
     RDKit          3D

 67 70  0  0  0  0  0  0  0  0999 V2000
  145.6560   73.0110  221.6400 C   0  0  0  0  0  0  0  0  0  0  0  0
  146.3460   73.7160  220.5120 C   0  0  0  0  0  0  0  0  0  0  0  0
  145.8670   73.2910  219.1660 C   0  0  0  0  0  0  0  0  0  0  0  0
  146.6390   73.3900  218.1800 O   0  0  0  0  0  0  0  0  0  0  0  0
  144.5440   72.7770  219.0040 N   0  0  0  0  0  0  0  0  0  0  0  0
  144.3940   71.3670  219.1950 C   0  0  0  0  0  0  0  0  0  0  0  0
  143.2010   70.7760  219.5360 C   0  0  0  0  0  0  0  0  0  0  0  0
  143.1770   69.4090  219.7030 C   0  0  0  0  0  0  0  0  0  0  0  0
  144.3030   68.6170  219.5430 C   0  0  0  0  0  0  0  0  0  0  0  0
  145.5090   69.2170  219.1990 C   0  0  0  0  0  0  0  0  0  0  0  0
  145.5480   70.6050  219.0250 C   0  0  0  0  0  0  0  0  0  0  0  0
  143.4040   73.6390  218.6760 C   0  0  0  0  0  0  0  0  0  0  0  0
  143.1390   74.6010  219.7690 C   0  0  0  0  0  0  0  0  0  0  0  0
  143.4770   76.0420  219.4890 C   0  0  0  0  0  0  0  0  0  0  0  0
  143.3140   76.4240  218.0960 N   0  0  0  0  0  0  0  0  0  0  0  0
  142.7840   77.7450  217.7500 C   0  0  0  0  0  0  0  0  0  0  0  0
  142.5660   77.8930  216.5250 O   0  0  0  0  0  0  0  0  0  0  0  0
  142.5350   78.7770  218.7310 C   0  0  1  0  0  0  0  0  0  0  0  0
  142.9550   80.0930  218.1860 N   0  0  0  0  0  0  0  0  0  0  0  0
  141.1780   78.8730  219.3350 C   0  0  0  0  0  0  0  0  0  0  0  0
  140.8340   77.8700  220.3400 C   0  0  0  0  0  0  0  0  0  0  0  0
  140.3390   76.6510  219.8310 C   0  0  0  0  0  0  0  0  0  0  0  0
  140.0650   75.5770  220.6390 C   0  0  0  0  0  0  0  0  0  0  0  0
  140.2590   75.6290  222.0050 C   0  0  0  0  0  0  0  0  0  0  0  0
  140.7390   76.8140  222.5140 C   0  0  0  0  0  0  0  0  0  0  0  0
  141.0190   77.9170  221.6840 C   0  0  0  0  0  0  0  0  0  0  0  0
  141.3860   79.1260  222.4320 C   0  0  0  0  0  0  0  0  0  0  0  0
  140.4670   80.0660  222.8390 C   0  0  0  0  0  0  0  0  0  0  0  0
  140.8550   81.2340  223.5130 C   0  0  0  0  0  0  0  0  0  0  0  0
  142.2030   81.4460  223.7760 C   0  0  0  0  0  0  0  0  0  0  0  0
  143.1550   80.5070  223.3730 C   0  0  0  0  0  0  0  0  0  0  0  0
  142.7320   79.3730  222.7130 C   0  0  0  0  0  0  0  0  0  0  0  0
  143.7030   75.5470  217.0130 C   0  0  0  0  0  0  0  0  0  0  0  0
  143.3800   74.1450  217.2880 C   0  0  0  0  0  0  0  0  0  0  0  0
  146.0332   73.3964  222.5987 H   0  0  0  0  0  0  0  0  0  0  0  0
  144.5723   73.1877  221.5747 H   0  0  0  0  0  0  0  0  0  0  0  0
  145.8560   71.9313  221.5747 H   0  0  0  0  0  0  0  0  0  0  0  0
  146.1724   74.7970  220.6184 H   0  0  0  0  0  0  0  0  0  0  0  0
  147.4136   73.4580  220.5728 H   0  0  0  0  0  0  0  0  0  0  0  0
  142.2905   71.3781  219.6718 H   0  0  0  0  0  0  0  0  0  0  0  0
  142.2263   68.9267  219.9742 H   0  0  0  0  0  0  0  0  0  0  0  0
  144.2433   67.5280  219.6863 H   0  0  0  0  0  0  0  0  0  0  0  0
  146.4173   68.6109  219.0659 H   0  0  0  0  0  0  0  0  0  0  0  0
  146.4937   71.0965  218.7528 H   0  0  0  0  0  0  0  0  0  0  0  0
  142.5012   73.0115  218.6406 H   0  0  0  0  0  0  0  0  0  0  0  0
  142.0665   74.5491  220.0080 H   0  0  0  0  0  0  0  0  0  0  0  0
  143.8039   74.2992  220.5917 H   0  0  0  0  0  0  0  0  0  0  0  0
  142.8205   76.6773  220.1017 H   0  0  0  0  0  0  0  0  0  0  0  0
  144.5410   76.1745  219.7346 H   0  0  0  0  0  0  0  0  0  0  0  0
  143.1468   78.4598  219.5884 H   0  0  0  0  0  0  0  0  0  0  0  0
  143.3560   80.0150  217.2440 H   0  0  0  0  0  0  0  0  0  0  0  0
  142.2700   80.8300  218.3580 H   0  0  0  0  0  0  0  0  0  0  0  0
  141.0934   79.8621  219.8089 H   0  0  0  0  0  0  0  0  0  0  0  0
  140.4789   78.7002  218.5035 H   0  0  0  0  0  0  0  0  0  0  0  0
  140.1668   76.5586  218.7485 H   0  0  0  0  0  0  0  0  0  0  0  0
  139.6809   74.6506  220.1871 H   0  0  0  0  0  0  0  0  0  0  0  0
  140.0411   74.7674  222.6532 H   0  0  0  0  0  0  0  0  0  0  0  0
  140.9084   76.9021  223.5973 H   0  0  0  0  0  0  0  0  0  0  0  0
  139.4002   79.8973  222.6305 H   0  0  0  0  0  0  0  0  0  0  0  0
  140.1025   81.9716  223.8288 H   0  0  0  0  0  0  0  0  0  0  0  0
  142.5215   82.3571  224.3037 H   0  0  0  0  0  0  0  0  0  0  0  0
  144.2234   80.6694  223.5786 H   0  0  0  0  0  0  0  0  0  0  0  0
  143.4829   78.6345  222.3955 H   0  0  0  0  0  0  0  0  0  0  0  0
  143.1759   75.8585  216.0991 H   0  0  0  0  0  0  0  0  0  0  0  0
  144.7939   75.6234  216.8942 H   0  0  0  0  0  0  0  0  0  0  0  0
  142.3634   73.9725  216.9048 H   0  0  0  0  0  0  0  0  0  0  0  0
  144.2027   73.5971  216.8053 H   0  0  0  0  0  0  0  0  0  0  0  0
  1  2  1  0
  2  3  1  0
  3  4  2  0
  3  5  1  0
  5  6  1  0
  6  7  2  0
  7  8  1  0
  8  9  2  0
  9 10  1  0
 10 11  2  0
  5 12  1  0
 12 13  1  0
 13 14  1  0
 14 15  1  0
 15 16  1  0
 16 17  2  0
 16 18  1  0
 18 19  1  0
 18 20  1  0
 20 21  1  0
 21 22  2  0
 22 23  1  0
 23 24  2  0
 24 25  1  0
 25 26  2  0
 26 27  1  0
 27 28  2  0
 28 29  1  0
 29 30  2  0
 30 31  1  0
 31 32  2  0
 15 33  1  0
 33 34  1  0
 11  6  1  0
 34 12  1  0
 26 21  1  0
 32 27  1  0
  1 35  1  0
  1 36  1  0
  1 37  1  0
  2 38  1  0
  2 39  1  0
  7 40  1  0
  8 41  1  0
  9 42  1  0
 10 43  1  0
 11 44  1  0
 12 45  1  0
 13 46  1  0
 13 47  1  0
 14 48  1  0
 14 49  1  0
 18 50  1  1
 19 51  1  0
 19 52  1  0
 20 53  1  0
 20 54  1  0
 22 55  1  0
 23 56  1  0
 24 57  1  0
 25 58  1  0
 28 59  1  0
 29 60  1  0
 30 61  1  0
 31 62  1  0
 32 63  1  0
 33 64  1  0
 33 65  1  0
 34 66  1  0
 34 67  1  0
M  END
>  <smiles>  (1) 
CCC(=O)N(c1ccccc1)C1CCN(C(=O)[C@@H](N)Cc2ccccc2-c2ccccc2)CC1

>  <score_type>  (1) 
oracle

>  <origin>  (1) 
autodockgpu

>  <m_score__min__energy>  (1) 
-8.6899999999999995

>  <m_primary>  (1) 
energy

>  <rmsd>  (1) 
5.8250935887543305

>  <m_score__min__rmsd>  (1) 
5.8250935887543305

>  <meeko>  (1) 
{"free_energy": -8.17, "intermolecular_energy": -10.86, "internal_energy": -3.28, "cluster_size": 13, "cluster_id": 1, "rank_in_cluster": 9}

>  <energy>  (1) 
-8.69

>  <cluster_rmsd>  (1) 
0.0

>  <cluster>  (1) 
1

$$$$

     RDKit          3D

 67 70  0  0  0  0  0  0  0  0999 V2000
  137.8910   84.3190  220.7630 C   0  0  0  0  0  0  0  0  0  0  0  0
  137.9500   84.5530  222.2420 C   0  0  0  0  0  0  0  0  0  0  0  0
  136.9610   83.7430  223.0090 C   0  0  0  0  0  0  0  0  0  0  0  0
  135.8670   84.2630  223.3400 O   0  0  0  0  0  0  0  0  0  0  0  0
  137.2600   82.3910  223.3630 N   0  0  0  0  0  0  0  0  0  0  0  0
  136.6730   81.9210  224.5810 C   0  0  0  0  0  0  0  0  0  0  0  0
  137.2350   82.1330  225.8170 C   0  0  0  0  0  0  0  0  0  0  0  0
  136.5870   81.6260  226.9220 C   0  0  0  0  0  0  0  0  0  0  0  0
  135.4010   80.9150  226.8300 C   0  0  0  0  0  0  0  0  0  0  0  0
  134.8340   80.7020  225.5790 C   0  0  0  0  0  0  0  0  0  0  0  0
  135.4820   81.2120  224.4480 C   0  0  0  0  0  0  0  0  0  0  0  0
  138.1030   81.5320  222.5270 C   0  0  0  0  0  0  0  0  0  0  0  0
  139.0250   80.7270  223.3600 C   0  0  0  0  0  0  0  0  0  0  0  0
  138.7330   79.2520  223.4490 C   0  0  0  0  0  0  0  0  0  0  0  0
  138.1300   78.6990  222.2470 N   0  0  0  0  0  0  0  0  0  0  0  0
  138.5060   77.3620  221.7800 C   0  0  0  0  0  0  0  0  0  0  0  0
  138.0200   77.0650  220.6650 O   0  0  0  0  0  0  0  0  0  0  0  0
  139.3600   76.4740  222.5370 C   0  0  1  0  0  0  0  0  0  0  0  0
  139.0110   75.0650  222.2250 N   0  0  0  0  0  0  0  0  0  0  0  0
  140.8330   76.6730  222.4700 C   0  0  0  0  0  0  0  0  0  0  0  0
  141.3710   77.1770  221.2080 C   0  0  0  0  0  0  0  0  0  0  0  0
  141.3900   76.2460  220.1480 C   0  0  0  0  0  0  0  0  0  0  0  0
  141.7720   76.5930  218.8760 C   0  0  0  0  0  0  0  0  0  0  0  0
  142.1630   77.8800  218.5620 C   0  0  0  0  0  0  0  0  0  0  0  0
  142.1510   78.7950  219.5890 C   0  0  0  0  0  0  0  0  0  0  0  0
  141.7600   78.4380  220.8950 C   0  0  0  0  0  0  0  0  0  0  0  0
  141.9510   79.5180  221.8710 C   0  0  0  0  0  0  0  0  0  0  0  0
  142.3800   79.2970  223.1600 C   0  0  0  0  0  0  0  0  0  0  0  0
  142.5080   80.3450  224.0850 C   0  0  0  0  0  0  0  0  0  0  0  0
  142.1940   81.6390  223.6870 C   0  0  0  0  0  0  0  0  0  0  0  0
  141.7570   81.8880  222.3840 C   0  0  0  0  0  0  0  0  0  0  0  0
  141.6440   80.8310  221.5080 C   0  0  0  0  0  0  0  0  0  0  0  0
  137.1200   79.4160  221.4990 C   0  0  0  0  0  0  0  0  0  0  0  0
  137.4010   80.8520  221.4180 C   0  0  0  0  0  0  0  0  0  0  0  0
  137.6264   83.2692  220.5681 H   0  0  0  0  0  0  0  0  0  0  0  0
  137.1308   84.9775  220.3176 H   0  0  0  0  0  0  0  0  0  0  0  0
  138.8726   84.5384  220.3176 H   0  0  0  0  0  0  0  0  0  0  0  0
  138.9597   84.2970  222.5956 H   0  0  0  0  0  0  0  0  0  0  0  0
  137.7057   85.6117  222.4135 H   0  0  0  0  0  0  0  0  0  0  0  0
  138.1765   82.6922  225.9212 H   0  0  0  0  0  0  0  0  0  0  0  0
  137.0281   81.7920  227.9159 H   0  0  0  0  0  0  0  0  0  0  0  0
  134.9144   80.5241  227.7358 H   0  0  0  0  0  0  0  0  0  0  0  0
  133.8923   80.1423  225.4795 H   0  0  0  0  0  0  0  0  0  0  0  0
  135.0485   81.0520  223.4498 H   0  0  0  0  0  0  0  0  0  0  0  0
  138.7655   82.1792  221.9335 H   0  0  0  0  0  0  0  0  0  0  0  0
  140.0376   80.8432  222.9462 H   0  0  0  0  0  0  0  0  0  0  0  0
  138.9041   81.1109  224.3837 H   0  0  0  0  0  0  0  0  0  0  0  0
  139.6783   78.7222  223.6379 H   0  0  0  0  0  0  0  0  0  0  0  0
  138.0052   79.1183  224.2629 H   0  0  0  0  0  0  0  0  0  0  0  0
  139.1398   76.7435  223.5805 H   0  0  0  0  0  0  0  0  0  0  0  0
  138.7620   74.5290  223.0640 H   0  0  0  0  0  0  0  0  0  0  0  0
  138.4130   74.9770  221.4020 H   0  0  0  0  0  0  0  0  0  0  0  0
  141.1089   77.3880  223.2591 H   0  0  0  0  0  0  0  0  0  0  0  0
  141.2658   75.6686  222.5879 H   0  0  0  0  0  0  0  0  0  0  0  0
  141.0885   75.2071  220.3476 H   0  0  0  0  0  0  0  0  0  0  0  0
  141.7666   75.8267  218.0868 H   0  0  0  0  0  0  0  0  0  0  0  0
  142.4684   78.1590  217.5427 H   0  0  0  0  0  0  0  0  0  0  0  0
  142.4546   79.8325  219.3855 H   0  0  0  0  0  0  0  0  0  0  0  0
  142.6290   78.2724  223.4735 H   0  0  0  0  0  0  0  0  0  0  0  0
  142.8520   80.1449  225.1105 H   0  0  0  0  0  0  0  0  0  0  0  0
  142.2900   82.4703  224.4009 H   0  0  0  0  0  0  0  0  0  0  0  0
  141.5075   82.9101  222.0630 H   0  0  0  0  0  0  0  0  0  0  0  0
  141.2985   81.0289  220.4826 H   0  0  0  0  0  0  0  0  0  0  0  0
  137.0777   79.0060  220.4791 H   0  0  0  0  0  0  0  0  0  0  0  0
  136.1612   79.2903  222.0232 H   0  0  0  0  0  0  0  0  0  0  0  0
  138.0101   81.0058  220.5150 H   0  0  0  0  0  0  0  0  0  0  0  0
  136.3996   81.3068  221.4364 H   0  0  0  0  0  0  0  0  0  0  0  0
  1  2  1  0
  2  3  1  0
  3  4  2  0
  3  5  1  0
  5  6  1  0
  6  7  2  0
  7  8  1  0
  8  9  2  0
  9 10  1  0
 10 11  2  0
  5 12  1  0
 12 13  1  0
 13 14  1  0
 14 15  1  0
 15 16  1  0
 16 17  2  0
 16 18  1  0
 18 19  1  0
 18 20  1  0
 20 21  1  0
 21 22  2  0
 22 23  1  0
 23 24  2  0
 24 25  1  0
 25 26  2  0
 26 27  1  0
 27 28  2  0
 28 29  1  0
 29 30  2  0
 30 31  1  0
 31 32  2  0
 15 33  1  0
 33 34  1  0
 11  6  1  0
 34 12  1  0
 26 21  1  0
 32 27  1  0
  1 35  1  0
  1 36  1  0
  1 37  1  0
  2 38  1  0
  2 39  1  0
  7 40  1  0
  8 41  1  0
  9 42  1  0
 10 43  1  0
 11 44  1  0
 12 45  1  0
 13 46  1  0
 13 47  1  0
 14 48  1  0
 14 49  1  0
 18 50  1  1
 19 51  1  0
 19 52  1  0
 20 53  1  0
 20 54  1  0
 22 55  1  0
 23 56  1  0
 24 57  1  0
 25 58  1  0
 28 59  1  0
 29 60  1  0
 30 61  1  0
 31 62  1  0
 32 63  1  0
 33 64  1  0
 33 65  1  0
 34 66  1  0
 34 67  1  0
M  END
>  <smiles>  (2) 
CCC(=O)N(c1ccccc1)C1CCN(C(=O)[C@@H](N)Cc2ccccc2-c2ccccc2)CC1

>  <score_type>  (2) 
oracle

>  <origin>  (2) 
autodockgpu

>  <m_score__min__energy>  (2) 
-8.6899999999999995

>  <m_primary>  (2) 
energy

>  <rmsd>  (2) 
3.8056644346468187

>  <m_score__min__rmsd>  (2) 
3.8056644346468187

>  <meeko>  (2) 
{"free_energy": -6.57, "intermolecular_energy": -9.26, "internal_energy": -4.06, "cluster_size": 6, "cluster_id": 7, "rank_in_cluster": 5}

>  <energy>  (2) 
-8.57

>  <cluster_rmsd>  (2) 
0.36

>  <cluster>  (2) 
1

$$$$

     RDKit          3D

 67 70  0  0  0  0  0  0  0  0999 V2000
  142.9080   82.3010  217.4470 C   0  0  0  0  0  0  0  0  0  0  0  0
  141.9750   81.2710  218.0090 C   0  0  0  0  0  0  0  0  0  0  0  0
  141.5080   81.5850  219.3890 C   0  0  0  0  0  0  0  0  0  0  0  0
  141.3620   82.7860  219.7290 O   0  0  0  0  0  0  0  0  0  0  0  0
  141.2320   80.5300  220.3120 N   0  0  0  0  0  0  0  0  0  0  0  0
  141.6570   80.7540  221.6600 C   0  0  0  0  0  0  0  0  0  0  0  0
  140.9250   81.4800  222.5680 C   0  0  0  0  0  0  0  0  0  0  0  0
  141.4370   81.6400  223.8370 C   0  0  0  0  0  0  0  0  0  0  0  0
  142.6530   81.0990  224.2250 C   0  0  0  0  0  0  0  0  0  0  0  0
  143.3920   80.3650  223.3040 C   0  0  0  0  0  0  0  0  0  0  0  0
  142.8840   80.1950  222.0120 C   0  0  0  0  0  0  0  0  0  0  0  0
  140.5460   79.2990  219.9100 C   0  0  0  0  0  0  0  0  0  0  0  0
  141.5070   78.1830  219.7640 C   0  0  0  0  0  0  0  0  0  0  0  0
  141.4470   77.1050  220.8130 C   0  0  0  0  0  0  0  0  0  0  0  0
  140.1150   76.8820  221.3520 N   0  0  0  0  0  0  0  0  0  0  0  0
  139.6620   75.5250  221.6660 C   0  0  0  0  0  0  0  0  0  0  0  0
  138.4530   75.4610  221.9890 O   0  0  0  0  0  0  0  0  0  0  0  0
  140.5300   74.3700  221.6040 C   0  0  1  0  0  0  0  0  0  0  0  0
  139.9590   73.2760  222.4290 N   0  0  0  0  0  0  0  0  0  0  0  0
  140.9380   73.8570  220.2680 C   0  0  0  0  0  0  0  0  0  0  0  0
  142.3730   73.7850  220.0030 C   0  0  0  0  0  0  0  0  0  0  0  0
  143.0940   72.8960  220.8260 C   0  0  0  0  0  0  0  0  0  0  0  0
  144.4290   72.6420  220.6380 C   0  0  0  0  0  0  0  0  0  0  0  0
  145.1460   73.2480  219.6250 C   0  0  0  0  0  0  0  0  0  0  0  0
  144.4540   74.1190  218.8160 C   0  0  0  0  0  0  0  0  0  0  0  0
  143.0840   74.3810  219.0120 C   0  0  0  0  0  0  0  0  0  0  0  0
  142.5660   75.4410  218.1380 C   0  0  0  0  0  0  0  0  0  0  0  0
  141.2870   75.4390  217.6300 C   0  0  0  0  0  0  0  0  0  0  0  0
  140.8360   76.4430  216.7600 C   0  0  0  0  0  0  0  0  0  0  0  0
  141.7060   77.4670  216.4030 C   0  0  0  0  0  0  0  0  0  0  0  0
  143.0090   77.4920  216.9050 C   0  0  0  0  0  0  0  0  0  0  0  0
  143.4110   76.4860  217.7560 C   0  0  0  0  0  0  0  0  0  0  0  0
  139.2130   77.9780  221.6350 C   0  0  0  0  0  0  0  0  0  0  0  0
  139.2760   79.0300  220.6170 C   0  0  0  0  0  0  0  0  0  0  0  0
  143.3972   82.8411  218.2710 H   0  0  0  0  0  0  0  0  0  0  0  0
  143.6714   81.8059  216.8288 H   0  0  0  0  0  0  0  0  0  0  0  0
  142.3400   83.0118  216.8288 H   0  0  0  0  0  0  0  0  0  0  0  0
  141.0962   81.2007  217.3511 H   0  0  0  0  0  0  0  0  0  0  0  0
  142.5315   80.3237  218.0624 H   0  0  0  0  0  0  0  0  0  0  0  0
  139.9567   81.9214  222.2895 H   0  0  0  0  0  0  0  0  0  0  0  0
  140.8582   82.2197  224.5711 H   0  0  0  0  0  0  0  0  0  0  0  0
  143.0283   81.2485  225.2481 H   0  0  0  0  0  0  0  0  0  0  0  0
  144.3599   79.9254  223.5867 H   0  0  0  0  0  0  0  0  0  0  0  0
  143.4555   79.6175  221.2705 H   0  0  0  0  0  0  0  0  0  0  0  0
  140.1456   79.4479  218.8963 H   0  0  0  0  0  0  0  0  0  0  0  0
  141.3246   77.7101  218.7877 H   0  0  0  0  0  0  0  0  0  0  0  0
  142.5022   78.6392  219.8711 H   0  0  0  0  0  0  0  0  0  0  0  0
  141.8012   76.1651  220.3646 H   0  0  0  0  0  0  0  0  0  0  0  0
  142.0789   77.4376  221.6497 H   0  0  0  0  0  0  0  0  0  0  0  0
  141.4818   74.7490  222.0046 H   0  0  0  0  0  0  0  0  0  0  0  0
  139.0840   73.5500  222.8900 H   0  0  0  0  0  0  0  0  0  0  0  0
  139.9930   72.3680  221.9620 H   0  0  0  0  0  0  0  0  0  0  0  0
  140.5280   72.8419  220.1613 H   0  0  0  0  0  0  0  0  0  0  0  0
  140.5470   74.5887  219.5457 H   0  0  0  0  0  0  0  0  0  0  0  0
  142.5677   72.3882  221.6477 H   0  0  0  0  0  0  0  0  0  0  0  0
  144.9410   71.9383  221.3107 H   0  0  0  0  0  0  0  0  0  0  0  0
  146.2162   73.0444  219.4729 H   0  0  0  0  0  0  0  0  0  0  0  0
  144.9841   74.6239  217.9949 H   0  0  0  0  0  0  0  0  0  0  0  0
  140.5997   74.6283  217.9137 H   0  0  0  0  0  0  0  0  0  0  0  0
  139.8092   76.4203  216.3661 H   0  0  0  0  0  0  0  0  0  0  0  0
  141.3664   78.2613  215.7219 H   0  0  0  0  0  0  0  0  0  0  0  0
  143.7014   78.2999  216.6261 H   0  0  0  0  0  0  0  0  0  0  0  0
  144.4377   76.5063  218.1503 H   0  0  0  0  0  0  0  0  0  0  0  0
  138.1853   77.5880  221.6769 H   0  0  0  0  0  0  0  0  0  0  0  0
  139.5150   78.4217  222.5952 H   0  0  0  0  0  0  0  0  0  0  0  0
  138.5328   78.7727  219.8480 H   0  0  0  0  0  0  0  0  0  0  0  0
  139.1080   79.9511  221.1944 H   0  0  0  0  0  0  0  0  0  0  0  0
  1  2  1  0
  2  3  1  0
  3  4  2  0
  3  5  1  0
  5  6  1  0
  6  7  2  0
  7  8  1  0
  8  9  2  0
  9 10  1  0
 10 11  2  0
  5 12  1  0
 12 13  1  0
 13 14  1  0
 14 15  1  0
 15 16  1  0
 16 17  2  0
 16 18  1  0
 18 19  1  0
 18 20  1  0
 20 21  1  0
 21 22  2  0
 22 23  1  0
 23 24  2  0
 24 25  1  0
 25 26  2  0
 26 27  1  0
 27 28  2  0
 28 29  1  0
 29 30  2  0
 30 31  1  0
 31 32  2  0
 15 33  1  0
 33 34  1  0
 11  6  1  0
 34 12  1  0
 26 21  1  0
 32 27  1  0
  1 35  1  0
  1 36  1  0
  1 37  1  0
  2 38  1  0
  2 39  1  0
  7 40  1  0
  8 41  1  0
  9 42  1  0
 10 43  1  0
 11 44  1  0
 12 45  1  0
 13 46  1  0
 13 47  1  0
 14 48  1  0
 14 49  1  0
 18 50  1  1
 19 51  1  0
 19 52  1  0
 20 53  1  0
 20 54  1  0
 22 55  1  0
 23 56  1  0
 24 57  1  0
 25 58  1  0
 28 59  1  0
 29 60  1  0
 30 61  1  0
 31 62  1  0
 32 63  1  0
 33 64  1  0
 33 65  1  0
 34 66  1  0
 34 67  1  0
M  END
>  <smiles>  (3) 
CCC(=O)N(c1ccccc1)C1CCN(C(=O)[C@@H](N)Cc2ccccc2-c2ccccc2)CC1

>  <score_type>  (3) 
oracle

>  <origin>  (3) 
autodockgpu

>  <m_score__min__energy>  (3) 
-8.6899999999999995

>  <m_primary>  (3) 
energy

>  <rmsd>  (3) 
3.620666825333357

>  <m_score__min__rmsd>  (3) 
3.620666825333357

>  <meeko>  (3) 
{"free_energy": -6.78, "intermolecular_energy": -9.46, "internal_energy": -3.84, "cluster_size": 8, "cluster_id": 5, "rank_in_cluster": 8}

>  <energy>  (3) 
-8.55

>  <cluster_rmsd>  (3) 
1.0

>  <cluster>  (3) 
1

$$$$

     RDKit          3D

 67 70  0  0  0  0  0  0  0  0999 V2000
  140.3350   71.5220  223.0940 C   0  0  0  0  0  0  0  0  0  0  0  0
  141.0750   71.9250  221.8550 C   0  0  0  0  0  0  0  0  0  0  0  0
  141.0530   73.3940  221.6040 C   0  0  0  0  0  0  0  0  0  0  0  0
  140.3410   74.1310  222.3320 O   0  0  0  0  0  0  0  0  0  0  0  0
  141.8340   73.9540  220.5470 N   0  0  0  0  0  0  0  0  0  0  0  0
  143.1730   73.4600  220.4320 C   0  0  0  0  0  0  0  0  0  0  0  0
  144.2730   74.1650  220.8580 C   0  0  0  0  0  0  0  0  0  0  0  0
  145.5160   73.5950  220.6880 C   0  0  0  0  0  0  0  0  0  0  0  0
  145.6930   72.3490  220.1070 C   0  0  0  0  0  0  0  0  0  0  0  0
  144.5780   71.6380  219.6770 C   0  0  0  0  0  0  0  0  0  0  0  0
  143.3100   72.2050  219.8440 C   0  0  0  0  0  0  0  0  0  0  0  0
  141.2990   74.9610  219.6270 C   0  0  0  0  0  0  0  0  0  0  0  0
  140.9940   76.2200  220.3420 C   0  0  0  0  0  0  0  0  0  0  0  0
  141.9030   77.3870  220.0610 C   0  0  0  0  0  0  0  0  0  0  0  0
  142.4390   77.4020  218.7100 N   0  0  0  0  0  0  0  0  0  0  0  0
  142.5930   78.6690  217.9900 C   0  0  0  0  0  0  0  0  0  0  0  0
  142.9330   78.5290  216.7930 O   0  0  0  0  0  0  0  0  0  0  0  0
  142.3690   79.9580  218.6060 C   0  0  1  0  0  0  0  0  0  0  0  0
  143.0790   81.0080  217.8320 N   0  0  0  0  0  0  0  0  0  0  0  0
  140.9700   80.3780  218.8910 C   0  0  0  0  0  0  0  0  0  0  0  0
  140.7970   81.6040  219.6670 C   0  0  0  0  0  0  0  0  0  0  0  0
  140.5610   82.7690  218.9080 C   0  0  0  0  0  0  0  0  0  0  0  0
  140.2800   83.9780  219.4910 C   0  0  0  0  0  0  0  0  0  0  0  0
  140.2140   84.1240  220.8630 C   0  0  0  0  0  0  0  0  0  0  0  0
  140.4460   82.9950  221.6140 C   0  0  0  0  0  0  0  0  0  0  0  0
  140.7350   81.7530  221.0150 C   0  0  0  0  0  0  0  0  0  0  0  0
  141.0880   80.7100  221.9850 C   0  0  0  0  0  0  0  0  0  0  0  0
  140.3670   79.5470  222.1330 C   0  0  0  0  0  0  0  0  0  0  0  0
  140.7020   78.5890  223.1030 C   0  0  0  0  0  0  0  0  0  0  0  0
  141.7920   78.8220  223.9330 C   0  0  0  0  0  0  0  0  0  0  0  0
  142.5390   79.9940  223.8030 C   0  0  0  0  0  0  0  0  0  0  0  0
  142.1750   80.9090  222.8390 C   0  0  0  0  0  0  0  0  0  0  0  0
  142.8760   76.1930  218.0480 C   0  0  0  0  0  0  0  0  0  0  0  0
  141.9950   75.0550  218.3270 C   0  0  0  0  0  0  0  0  0  0  0  0
  140.9071   71.8335  223.9804 H   0  0  0  0  0  0  0  0  0  0  0  0
  139.3478   72.0071  223.1056 H   0  0  0  0  0  0  0  0  0  0  0  0
  140.2069   70.4295  223.1056 H   0  0  0  0  0  0  0  0  0  0  0  0
  142.1224   71.6039  221.9544 H   0  0  0  0  0  0  0  0  0  0  0  0
  140.5712   71.4426  221.0044 H   0  0  0  0  0  0  0  0  0  0  0  0
  144.1643   75.1565  221.3217 H   0  0  0  0  0  0  0  0  0  0  0  0
  146.4028   74.1507  221.0267 H   0  0  0  0  0  0  0  0  0  0  0  0
  146.7023   71.9282  219.9876 H   0  0  0  0  0  0  0  0  0  0  0  0
  144.6910   70.6468  219.2135 H   0  0  0  0  0  0  0  0  0  0  0  0
  142.4169   71.6569  219.5093 H   0  0  0  0  0  0  0  0  0  0  0  0
  140.3209   74.6083  219.2679 H   0  0  0  0  0  0  0  0  0  0  0  0
  139.9711   76.5197  220.0704 H   0  0  0  0  0  0  0  0  0  0  0  0
  141.1338   75.9912  221.4088 H   0  0  0  0  0  0  0  0  0  0  0  0
  141.3342   78.3153  220.2186 H   0  0  0  0  0  0  0  0  0  0  0  0
  142.7602   77.2968  220.7444 H   0  0  0  0  0  0  0  0  0  0  0  0
  142.7802   79.8270  219.6178 H   0  0  0  0  0  0  0  0  0  0  0  0
  143.6100   80.6200  217.0440 H   0  0  0  0  0  0  0  0  0  0  0  0
  142.5030   81.8340  217.6640 H   0  0  0  0  0  0  0  0  0  0  0  0
  140.4617   80.5201  217.9259 H   0  0  0  0  0  0  0  0  0  0  0  0
  140.5506   79.5777  219.5184 H   0  0  0  0  0  0  0  0  0  0  0  0
  140.6038   82.7057  217.8107 H   0  0  0  0  0  0  0  0  0  0  0  0
  140.1026   84.8539  218.8497 H   0  0  0  0  0  0  0  0  0  0  0  0
  139.9876   85.0933  221.3311 H   0  0  0  0  0  0  0  0  0  0  0  0
  140.4048   83.0638  222.7111 H   0  0  0  0  0  0  0  0  0  0  0  0
  139.5057   79.3633  221.4739 H   0  0  0  0  0  0  0  0  0  0  0  0
  140.1103   77.6673  223.2046 H   0  0  0  0  0  0  0  0  0  0  0  0
  142.0675   78.0792  224.6961 H   0  0  0  0  0  0  0  0  0  0  0  0
  143.4022   80.1837  224.4579 H   0  0  0  0  0  0  0  0  0  0  0  0
  142.7639   81.8326  222.7382 H   0  0  0  0  0  0  0  0  0  0  0  0
  142.8916   76.3702  216.9625 H   0  0  0  0  0  0  0  0  0  0  0  0
  143.8773   75.9442  218.4295 H   0  0  0  0  0  0  0  0  0  0  0  0
  141.2168   75.0578  217.5496 H   0  0  0  0  0  0  0  0  0  0  0  0
  142.6860   74.1993  218.3476 H   0  0  0  0  0  0  0  0  0  0  0  0
  1  2  1  0
  2  3  1  0
  3  4  2  0
  3  5  1  0
  5  6  1  0
  6  7  2  0
  7  8  1  0
  8  9  2  0
  9 10  1  0
 10 11  2  0
  5 12  1  0
 12 13  1  0
 13 14  1  0
 14 15  1  0
 15 16  1  0
 16 17  2  0
 16 18  1  0
 18 19  1  0
 18 20  1  0
 20 21  1  0
 21 22  2  0
 22 23  1  0
 23 24  2  0
 24 25  1  0
 25 26  2  0
 26 27  1  0
 27 28  2  0
 28 29  1  0
 29 30  2  0
 30 31  1  0
 31 32  2  0
 15 33  1  0
 33 34  1  0
 11  6  1  0
 34 12  1  0
 26 21  1  0
 32 27  1  0
  1 35  1  0
  1 36  1  0
  1 37  1  0
  2 38  1  0
  2 39  1  0
  7 40  1  0
  8 41  1  0
  9 42  1  0
 10 43  1  0
 11 44  1  0
 12 45  1  0
 13 46  1  0
 13 47  1  0
 14 48  1  0
 14 49  1  0
 18 50  1  1
 19 51  1  0
 19 52  1  0
 20 53  1  0
 20 54  1  0
 22 55  1  0
 23 56  1  0
 24 57  1  0
 25 58  1  0
 28 59  1  0
 29 60  1  0
 30 61  1  0
 31 62  1  0
 32 63  1  0
 33 64  1  0
 33 65  1  0
 34 66  1  0
 34 67  1  0
M  END
>  <smiles>  (4) 
CCC(=O)N(c1ccccc1)C1CCN(C(=O)[C@@H](N)Cc2ccccc2-c2ccccc2)CC1

>  <score_type>  (4) 
oracle

>  <origin>  (4) 
autodockgpu

>  <m_score__min__energy>  (4) 
-8.6899999999999995

>  <m_primary>  (4) 
energy

>  <rmsd>  (4) 
5.884305776671351

>  <m_score__min__rmsd>  (4) 
5.884305776671351

>  <meeko>  (4) 
{"free_energy": -8.11, "intermolecular_energy": -10.79, "internal_energy": -3.22, "cluster_size": 4, "cluster_id": 3, "rank_in_cluster": 1}

>  <energy>  (4) 
-8.52

>  <cluster_rmsd>  (4) 
0.36

>  <cluster>  (4) 
1

$$$$

     RDKit          3D

 67 70  0  0  0  0  0  0  0  0999 V2000
  142.8010   72.4200  217.4290 C   0  0  0  0  0  0  0  0  0  0  0  0
  144.2400   72.6290  217.0670 C   0  0  0  0  0  0  0  0  0  0  0  0
  145.1670   72.5110  218.2290 C   0  0  0  0  0  0  0  0  0  0  0  0
  146.2880   73.0760  218.1800 O   0  0  0  0  0  0  0  0  0  0  0  0
  144.7810   71.7610  219.3820 N   0  0  0  0  0  0  0  0  0  0  0  0
  144.9900   70.3470  219.3050 C   0  0  0  0  0  0  0  0  0  0  0  0
  146.2360   69.7690  219.3440 C   0  0  0  0  0  0  0  0  0  0  0  0
  146.3190   68.3970  219.2520 C   0  0  0  0  0  0  0  0  0  0  0  0
  145.2020   67.5880  219.1210 C   0  0  0  0  0  0  0  0  0  0  0  0
  143.9420   68.1760  219.0810 C   0  0  0  0  0  0  0  0  0  0  0  0
  143.8430   69.5680  219.1740 C   0  0  0  0  0  0  0  0  0  0  0  0
  144.2160   72.3960  220.5760 C   0  0  0  0  0  0  0  0  0  0  0  0
  144.0730   73.8560  220.3790 C   0  0  0  0  0  0  0  0  0  0  0  0
  142.6670   74.3770  220.2320 C   0  0  0  0  0  0  0  0  0  0  0  0
  141.6780   73.6190  220.9810 N   0  0  0  0  0  0  0  0  0  0  0  0
  140.5680   74.3070  221.6440 C   0  0  0  0  0  0  0  0  0  0  0  0
  139.8720   73.5570  222.3660 O   0  0  0  0  0  0  0  0  0  0  0  0
  140.3060   75.7200  221.4820 C   0  0  1  0  0  0  0  0  0  0  0  0
  139.1620   76.1150  222.3420 N   0  0  0  0  0  0  0  0  0  0  0  0
  141.4340   76.6770  221.6430 C   0  0  0  0  0  0  0  0  0  0  0  0
  141.6680   77.6090  220.5430 C   0  0  0  0  0  0  0  0  0  0  0  0
  141.7370   77.0230  219.2620 C   0  0  0  0  0  0  0  0  0  0  0  0
  141.8520   77.7740  218.1190 C   0  0  0  0  0  0  0  0  0  0  0  0
  141.9100   79.1530  218.1600 C   0  0  0  0  0  0  0  0  0  0  0  0
  141.8470   79.7350  219.4040 C   0  0  0  0  0  0  0  0  0  0  0  0
  141.7300   78.9640  220.5780 C   0  0  0  0  0  0  0  0  0  0  0  0
  141.8200   79.7630  221.8060 C   0  0  0  0  0  0  0  0  0  0  0  0
  142.9350   79.7760  222.6140 C   0  0  0  0  0  0  0  0  0  0  0  0
  142.9740   80.5130  223.8070 C   0  0  0  0  0  0  0  0  0  0  0  0
  141.8570   81.2510  224.1810 C   0  0  0  0  0  0  0  0  0  0  0  0
  140.7130   81.2540  223.3790 C   0  0  0  0  0  0  0  0  0  0  0  0
  140.7170   80.5150  222.2160 C   0  0  0  0  0  0  0  0  0  0  0  0
  141.7240   72.1760  221.0640 C   0  0  0  0  0  0  0  0  0  0  0  0
  143.0920   71.6690  221.2010 C   0  0  0  0  0  0  0  0  0  0  0  0
  142.6968   72.4049  218.5240 H   0  0  0  0  0  0  0  0  0  0  0  0
  142.1958   73.2397  217.0144 H   0  0  0  0  0  0  0  0  0  0  0  0
  142.4540   71.4620  217.0144 H   0  0  0  0  0  0  0  0  0  0  0  0
  144.5236   71.8759  216.3170 H   0  0  0  0  0  0  0  0  0  0  0  0
  144.3318   73.6552  216.6818 H   0  0  0  0  0  0  0  0  0  0  0  0
  147.1419   70.3846  219.4458 H   0  0  0  0  0  0  0  0  0  0  0  0
  147.3120   67.9249  219.2838 H   0  0  0  0  0  0  0  0  0  0  0  0
  145.3100   66.4956  219.0496 H   0  0  0  0  0  0  0  0  0  0  0  0
  143.0388   67.5567  218.9780 H   0  0  0  0  0  0  0  0  0  0  0  0
  142.8546   70.0498  219.1435 H   0  0  0  0  0  0  0  0  0  0  0  0
  144.9489   72.3012  221.3908 H   0  0  0  0  0  0  0  0  0  0  0  0
  144.5266   74.3569  221.2469 H   0  0  0  0  0  0  0  0  0  0  0  0
  144.5665   74.0714  219.4198 H   0  0  0  0  0  0  0  0  0  0  0  0
  142.6448   75.4188  220.5842 H   0  0  0  0  0  0  0  0  0  0  0  0
  142.4016   74.2859  219.1684 H   0  0  0  0  0  0  0  0  0  0  0  0
  140.0797   75.8111  220.4094 H   0  0  0  0  0  0  0  0  0  0  0  0
  138.4100   76.5660  221.8080 H   0  0  0  0  0  0  0  0  0  0  0  0
  138.9070   75.3940  223.0190 H   0  0  0  0  0  0  0  0  0  0  0  0
  141.2395   77.2718  222.5477 H   0  0  0  0  0  0  0  0  0  0  0  0
  142.3380   76.0519  221.6884 H   0  0  0  0  0  0  0  0  0  0  0  0
  141.6973   75.9271  219.1761 H   0  0  0  0  0  0  0  0  0  0  0  0
  141.8992   77.2643  217.1453 H   0  0  0  0  0  0  0  0  0  0  0  0
  142.0019   79.7552  217.2441 H   0  0  0  0  0  0  0  0  0  0  0  0
  141.8890   80.8312  219.4852 H   0  0  0  0  0  0  0  0  0  0  0  0
  143.8188   79.1928  222.3160 H   0  0  0  0  0  0  0  0  0  0  0  0
  143.8754   80.5070  224.4374 H   0  0  0  0  0  0  0  0  0  0  0  0
  141.8738   81.8354  225.1128 H   0  0  0  0  0  0  0  0  0  0  0  0
  139.8258   81.8353  223.6705 H   0  0  0  0  0  0  0  0  0  0  0  0
  139.8156   80.5175  221.5855 H   0  0  0  0  0  0  0  0  0  0  0  0
  141.1383   71.8533  221.9374 H   0  0  0  0  0  0  0  0  0  0  0  0
  141.3081   71.7723  220.1291 H   0  0  0  0  0  0  0  0  0  0  0  0
  143.3059   71.6200  222.2789 H   0  0  0  0  0  0  0  0  0  0  0  0
  143.0660   70.7193  220.6465 H   0  0  0  0  0  0  0  0  0  0  0  0
  1  2  1  0
  2  3  1  0
  3  4  2  0
  3  5  1  0
  5  6  1  0
  6  7  2  0
  7  8  1  0
  8  9  2  0
  9 10  1  0
 10 11  2  0
  5 12  1  0
 12 13  1  0
 13 14  1  0
 14 15  1  0
 15 16  1  0
 16 17  2  0
 16 18  1  0
 18 19  1  0
 18 20  1  0
 20 21  1  0
 21 22  2  0
 22 23  1  0
 23 24  2  0
 24 25  1  0
 25 26  2  0
 26 27  1  0
 27 28  2  0
 28 29  1  0
 29 30  2  0
 30 31  1  0
 31 32  2  0
 15 33  1  0
 33 34  1  0
 11  6  1  0
 34 12  1  0
 26 21  1  0
 32 27  1  0
  1 35  1  0
  1 36  1  0
  1 37  1  0
  2 38  1  0
  2 39  1  0
  7 40  1  0
  8 41  1  0
  9 42  1  0
 10 43  1  0
 11 44  1  0
 12 45  1  0
 13 46  1  0
 13 47  1  0
 14 48  1  0
 14 49  1  0
 18 50  1  6
 19 51  1  0
 19 52  1  0
 20 53  1  0
 20 54  1  0
 22 55  1  0
 23 56  1  0
 24 57  1  0
 25 58  1  0
 28 59  1  0
 29 60  1  0
 30 61  1  0
 31 62  1  0
 32 63  1  0
 33 64  1  0
 33 65  1  0
 34 66  1  0
 34 67  1  0
M  END
>  <smiles>  (5) 
CCC(=O)N(c1ccccc1)C1CCN(C(=O)[C@@H](N)Cc2ccccc2-c2ccccc2)CC1

>  <score_type>  (5) 
oracle

>  <origin>  (5) 
autodockgpu

>  <m_score__min__energy>  (5) 
-8.6899999999999995

>  <m_primary>  (5) 
energy

>  <rmsd>  (5) 
6.206973920916526

>  <m_score__min__rmsd>  (5) 
6.206973920916526

>  <meeko>  (5) 
{"free_energy": -8.33, "intermolecular_energy": -11.02, "internal_energy": -2.74, "cluster_size": 13, "cluster_id": 2, "rank_in_cluster": 1}

>  <energy>  (5) 
-8.52

>  <cluster_rmsd>  (5) 
0.52

>  <cluster>  (5) 
1

$$$$

     RDKit          3D

 67 70  0  0  0  0  0  0  0  0999 V2000
  140.0280   71.0920  220.8210 C   0  0  0  0  0  0  0  0  0  0  0  0
  141.2470   71.7210  221.4220 C   0  0  0  0  0  0  0  0  0  0  0  0
  141.2000   73.2110  221.4340 C   0  0  0  0  0  0  0  0  0  0  0  0
  140.5080   73.7970  222.3030 O   0  0  0  0  0  0  0  0  0  0  0  0
  141.9340   73.9600  220.4640 N   0  0  0  0  0  0  0  0  0  0  0  0
  143.3180   73.6210  220.3310 C   0  0  0  0  0  0  0  0  0  0  0  0
  144.3340   74.3920  220.8440 C   0  0  0  0  0  0  0  0  0  0  0  0
  145.6310   73.9730  220.6480 C   0  0  0  0  0  0  0  0  0  0  0  0
  145.9440   72.8140  219.9550 C   0  0  0  0  0  0  0  0  0  0  0  0
  144.9150   72.0360  219.4370 C   0  0  0  0  0  0  0  0  0  0  0  0
  143.5920   72.4490  219.6290 C   0  0  0  0  0  0  0  0  0  0  0  0
  141.3100   75.0030  219.6440 C   0  0  0  0  0  0  0  0  0  0  0  0
  141.1600   76.2590  220.4130 C   0  0  0  0  0  0  0  0  0  0  0  0
  142.0620   77.3980  220.0180 C   0  0  0  0  0  0  0  0  0  0  0  0
  142.3980   77.4190  218.6040 N   0  0  0  0  0  0  0  0  0  0  0  0
  142.4950   78.6920  217.8870 C   0  0  0  0  0  0  0  0  0  0  0  0
  142.6530   78.5620  216.6510 O   0  0  0  0  0  0  0  0  0  0  0  0
  142.4120   79.9770  218.5460 C   0  0  1  0  0  0  0  0  0  0  0  0
  143.3190   80.9400  217.8730 N   0  0  0  0  0  0  0  0  0  0  0  0
  141.0690   80.5850  218.7540 C   0  0  0  0  0  0  0  0  0  0  0  0
  141.0150   81.7950  219.5710 C   0  0  0  0  0  0  0  0  0  0  0  0
  140.8460   82.9980  218.8560 C   0  0  0  0  0  0  0  0  0  0  0  0
  140.6780   84.2060  219.4840 C   0  0  0  0  0  0  0  0  0  0  0  0
  140.6660   84.3120  220.8610 C   0  0  0  0  0  0  0  0  0  0  0  0
  140.8330   83.1450  221.5690 C   0  0  0  0  0  0  0  0  0  0  0  0
  141.0080   81.9050  220.9240 C   0  0  0  0  0  0  0  0  0  0  0  0
  141.3090   80.8070  221.8510 C   0  0  0  0  0  0  0  0  0  0  0  0
  142.5860   80.5040  222.2660 C   0  0  0  0  0  0  0  0  0  0  0  0
  142.8480   79.4190  223.1160 C   0  0  0  0  0  0  0  0  0  0  0  0
  141.7880   78.6310  223.5510 C   0  0  0  0  0  0  0  0  0  0  0  0
  140.4830   78.9180  223.1430 C   0  0  0  0  0  0  0  0  0  0  0  0
  140.2710   79.9920  222.3070 C   0  0  0  0  0  0  0  0  0  0  0  0
  142.6890   76.2070  217.8700 C   0  0  0  0  0  0  0  0  0  0  0  0
  141.8150   75.0970  218.2580 C   0  0  0  0  0  0  0  0  0  0  0  0
  139.3597   70.7472  221.6238 H   0  0  0  0  0  0  0  0  0  0  0  0
  139.5026   71.8316  220.1989 H   0  0  0  0  0  0  0  0  0  0  0  0
  140.3263   70.2353  220.1989 H   0  0  0  0  0  0  0  0  0  0  0  0
  141.3468   71.3670  222.4587 H   0  0  0  0  0  0  0  0  0  0  0  0
  142.1044   71.4283  220.7981 H   0  0  0  0  0  0  0  0  0  0  0  0
  144.1168   75.3184  221.3960 H   0  0  0  0  0  0  0  0  0  0  0  0
  146.4507   74.5818  221.0573 H   0  0  0  0  0  0  0  0  0  0  0  0
  146.9932   72.5138  219.8167 H   0  0  0  0  0  0  0  0  0  0  0  0
  145.1372   71.1108  218.8851 H   0  0  0  0  0  0  0  0  0  0  0  0
  142.7654   71.8464  219.2244 H   0  0  0  0  0  0  0  0  0  0  0  0
  140.2778   74.6920  219.4253 H   0  0  0  0  0  0  0  0  0  0  0  0
  140.1205   76.5999  220.2976 H   0  0  0  0  0  0  0  0  0  0  0  0
  141.4446   76.0054  221.4448 H   0  0  0  0  0  0  0  0  0  0  0  0
  141.5571   78.3427  220.2682 H   0  0  0  0  0  0  0  0  0  0  0  0
  143.0049   77.2649  220.5687 H   0  0  0  0  0  0  0  0  0  0  0  0
  142.7248   79.7509  219.5761 H   0  0  0  0  0  0  0  0  0  0  0  0
  143.6950   80.5720  216.9910 H   0  0  0  0  0  0  0  0  0  0  0  0
  142.9600   81.8960  217.8810 H   0  0  0  0  0  0  0  0  0  0  0  0
  140.6586   80.8329  217.7640 H   0  0  0  0  0  0  0  0  0  0  0  0
  140.4951   79.8324  219.3145 H   0  0  0  0  0  0  0  0  0  0  0  0
  140.8489   82.9671  217.7564 H   0  0  0  0  0  0  0  0  0  0  0  0
  140.5496   85.1133  218.8754 H   0  0  0  0  0  0  0  0  0  0  0  0
  140.5299   85.2800  221.3654 H   0  0  0  0  0  0  0  0  0  0  0  0
  140.8298   83.1808  222.6684 H   0  0  0  0  0  0  0  0  0  0  0  0
  143.4232   81.1291  221.9221 H   0  0  0  0  0  0  0  0  0  0  0  0
  143.8770   79.1949  223.4337 H   0  0  0  0  0  0  0  0  0  0  0  0
  141.9778   77.7781  224.2192 H   0  0  0  0  0  0  0  0  0  0  0  0
  139.6405   78.2978  223.4831 H   0  0  0  0  0  0  0  0  0  0  0  0
  139.2432   80.2165  221.9859 H   0  0  0  0  0  0  0  0  0  0  0  0
  142.5552   76.4035  216.7960 H   0  0  0  0  0  0  0  0  0  0  0  0
  143.7244   75.9155  218.0999 H   0  0  0  0  0  0  0  0  0  0  0  0
  140.9336   75.1425  217.6014 H   0  0  0  0  0  0  0  0  0  0  0  0
  142.4688   74.2170  218.1671 H   0  0  0  0  0  0  0  0  0  0  0  0
  1  2  1  0
  2  3  1  0
  3  4  2  0
  3  5  1  0
  5  6  1  0
  6  7  2  0
  7  8  1  0
  8  9  2  0
  9 10  1  0
 10 11  2  0
  5 12  1  0
 12 13  1  0
 13 14  1  0
 14 15  1  0
 15 16  1  0
 16 17  2  0
 16 18  1  0
 18 19  1  0
 18 20  1  0
 20 21  1  0
 21 22  2  0
 22 23  1  0
 23 24  2  0
 24 25  1  0
 25 26  2  0
 26 27  1  0
 27 28  2  0
 28 29  1  0
 29 30  2  0
 30 31  1  0
 31 32  2  0
 15 33  1  0
 33 34  1  0
 11  6  1  0
 34 12  1  0
 26 21  1  0
 32 27  1  0
  1 35  1  0
  1 36  1  0
  1 37  1  0
  2 38  1  0
  2 39  1  0
  7 40  1  0
  8 41  1  0
  9 42  1  0
 10 43  1  0
 11 44  1  0
 12 45  1  0
 13 46  1  0
 13 47  1  0
 14 48  1  0
 14 49  1  0
 18 50  1  1
 19 51  1  0
 19 52  1  0
 20 53  1  0
 20 54  1  0
 22 55  1  0
 23 56  1  0
 24 57  1  0
 25 58  1  0
 28 59  1  0
 29 60  1  0
 30 61  1  0
 31 62  1  0
 32 63  1  0
 33 64  1  0
 33 65  1  0
 34 66  1  0
 34 67  1  0
M  END
>  <smiles>  (6) 
CCC(=O)N(c1ccccc1)C1CCN(C(=O)[C@@H](N)Cc2ccccc2-c2ccccc2)CC1

>  <score_type>  (6) 
oracle

>  <origin>  (6) 
autodockgpu

>  <m_score__min__energy>  (6) 
-8.6899999999999995

>  <m_primary>  (6) 
energy

>  <rmsd>  (6) 
5.950957750660671

>  <m_score__min__rmsd>  (6) 
5.950957750660671

>  <meeko>  (6) 
{"free_energy": -7.76, "intermolecular_energy": -10.44, "internal_energy": -3.32, "cluster_size": 4, "cluster_id": 3, "rank_in_cluster": 4}

>  <energy>  (6) 
-8.45

>  <cluster_rmsd>  (6) 
0.91

>  <cluster>  (6) 
1

$$$$

     RDKit          3D

 67 70  0  0  0  0  0  0  0  0999 V2000
  144.7620   74.3400  216.2100 C   0  0  0  0  0  0  0  0  0  0  0  0
  144.0870   73.5630  217.3000 C   0  0  0  0  0  0  0  0  0  0  0  0
  145.0340   73.0250  218.3180 C   0  0  0  0  0  0  0  0  0  0  0  0
  146.2390   73.3790  218.2820 O   0  0  0  0  0  0  0  0  0  0  0  0
  144.5720   72.1180  219.3190 N   0  0  0  0  0  0  0  0  0  0  0  0
  144.7520   70.7280  219.0320 C   0  0  0  0  0  0  0  0  0  0  0  0
  143.7280   69.9050  218.6250 C   0  0  0  0  0  0  0  0  0  0  0  0
  144.0150   68.5800  218.3850 C   0  0  0  0  0  0  0  0  0  0  0  0
  145.2870   68.0510  218.5400 C   0  0  0  0  0  0  0  0  0  0  0  0
  146.3210   68.8840  218.9520 C   0  0  0  0  0  0  0  0  0  0  0  0
  146.0440   70.2340  219.1990 C   0  0  0  0  0  0  0  0  0  0  0  0
  143.9630   72.5770  220.5710 C   0  0  0  0  0  0  0  0  0  0  0  0
  143.8490   74.0530  220.5920 C   0  0  0  0  0  0  0  0  0  0  0  0
  142.4600   74.6190  220.4660 C   0  0  0  0  0  0  0  0  0  0  0  0
  141.4270   73.7770  221.0490 N   0  0  0  0  0  0  0  0  0  0  0  0
  140.2980   74.3800  221.7610 C   0  0  0  0  0  0  0  0  0  0  0  0
  139.5590   73.5450  222.3300 O   0  0  0  0  0  0  0  0  0  0  0  0
  140.0630   75.8070  221.8040 C   0  0  1  0  0  0  0  0  0  0  0  0
  138.7120   76.0710  222.3590 N   0  0  0  0  0  0  0  0  0  0  0  0
  141.0760   76.6750  222.4620 C   0  0  0  0  0  0  0  0  0  0  0  0
  141.1350   78.0670  222.0210 C   0  0  0  0  0  0  0  0  0  0  0  0
  140.8820   79.0280  223.0220 C   0  0  0  0  0  0  0  0  0  0  0  0
  140.9970   80.3750  222.7900 C   0  0  0  0  0  0  0  0  0  0  0  0
  141.3680   80.8690  221.5550 C   0  0  0  0  0  0  0  0  0  0  0  0
  141.6150   79.9410  220.5700 C   0  0  0  0  0  0  0  0  0  0  0  0
  141.4950   78.5580  220.8080 C   0  0  0  0  0  0  0  0  0  0  0  0
  141.6630   77.7450  219.5970 C   0  0  0  0  0  0  0  0  0  0  0  0
  142.8850   77.5270  219.0020 C   0  0  0  0  0  0  0  0  0  0  0  0
  143.0070   76.7840  217.8180 C   0  0  0  0  0  0  0  0  0  0  0  0
  141.8630   76.2530  217.2330 C   0  0  0  0  0  0  0  0  0  0  0  0
  140.6120   76.4610  217.8170 C   0  0  0  0  0  0  0  0  0  0  0  0
  140.5360   77.1980  218.9790 C   0  0  0  0  0  0  0  0  0  0  0  0
  141.4490   72.3370  220.9140 C   0  0  0  0  0  0  0  0  0  0  0  0
  142.8020   71.7870  221.0300 C   0  0  0  0  0  0  0  0  0  0  0  0
  145.4216   75.0993  216.6554 H   0  0  0  0  0  0  0  0  0  0  0  0
  145.3579   73.6564  215.5874 H   0  0  0  0  0  0  0  0  0  0  0  0
  144.0018   74.8344  215.5874 H   0  0  0  0  0  0  0  0  0  0  0  0
  143.3694   74.2249  217.8069 H   0  0  0  0  0  0  0  0  0  0  0  0
  143.5949   72.7005  216.8267 H   0  0  0  0  0  0  0  0  0  0  0  0
  142.7076   70.2947  218.4948 H   0  0  0  0  0  0  0  0  0  0  0  0
  143.2027   67.9147  218.0572 H   0  0  0  0  0  0  0  0  0  0  0  0
  145.4757   66.9860  218.3396 H   0  0  0  0  0  0  0  0  0  0  0  0
  147.3395   68.4891  219.0817 H   0  0  0  0  0  0  0  0  0  0  0  0
  146.8498   70.9075  219.5263 H   0  0  0  0  0  0  0  0  0  0  0  0
  144.6573   72.3456  221.3922 H   0  0  0  0  0  0  0  0  0  0  0  0
  144.2697   74.4076  221.5445 H   0  0  0  0  0  0  0  0  0  0  0  0
  144.3882   74.4004  219.6983 H   0  0  0  0  0  0  0  0  0  0  0  0
  142.4367   75.5960  220.9709 H   0  0  0  0  0  0  0  0  0  0  0  0
  142.2417   74.6950  219.3906 H   0  0  0  0  0  0  0  0  0  0  0  0
  140.1525   76.1083  220.7499 H   0  0  0  0  0  0  0  0  0  0  0  0
  138.3810   75.3070  222.9590 H   0  0  0  0  0  0  0  0  0  0  0  0
  138.6010   77.0290  222.6940 H   0  0  0  0  0  0  0  0  0  0  0  0
  140.8631   76.6762  223.5412 H   0  0  0  0  0  0  0  0  0  0  0  0
  142.0492   76.2432  222.1856 H   0  0  0  0  0  0  0  0  0  0  0  0
  140.5821   78.6854  224.0233 H   0  0  0  0  0  0  0  0  0  0  0  0
  140.7884   81.0796  223.6085 H   0  0  0  0  0  0  0  0  0  0  0  0
  141.4612   81.9491  221.3684 H   0  0  0  0  0  0  0  0  0  0  0  0
  141.9142   80.2883  219.5701 H   0  0  0  0  0  0  0  0  0  0  0  0
  143.7895   77.9462  219.4669 H   0  0  0  0  0  0  0  0  0  0  0  0
  143.9938   76.6239  217.3591 H   0  0  0  0  0  0  0  0  0  0  0  0
  141.9438   75.6664  216.3060 H   0  0  0  0  0  0  0  0  0  0  0  0
  139.7035   76.0441  217.3579 H   0  0  0  0  0  0  0  0  0  0  0  0
  139.5497   77.3619  219.4376 H   0  0  0  0  0  0  0  0  0  0  0  0
  140.8203   71.8984  221.7029 H   0  0  0  0  0  0  0  0  0  0  0  0
  141.0698   72.0877  219.9120 H   0  0  0  0  0  0  0  0  0  0  0  0
  142.9665   71.5709  222.0960 H   0  0  0  0  0  0  0  0  0  0  0  0
  142.7877   70.9329  220.3369 H   0  0  0  0  0  0  0  0  0  0  0  0
  1  2  1  0
  2  3  1  0
  3  4  2  0
  3  5  1  0
  5  6  1  0
  6  7  2  0
  7  8  1  0
  8  9  2  0
  9 10  1  0
 10 11  2  0
  5 12  1  0
 12 13  1  0
 13 14  1  0
 14 15  1  0
 15 16  1  0
 16 17  2  0
 16 18  1  0
 18 19  1  0
 18 20  1  0
 20 21  1  0
 21 22  2  0
 22 23  1  0
 23 24  2  0
 24 25  1  0
 25 26  2  0
 26 27  1  0
 27 28  2  0
 28 29  1  0
 29 30  2  0
 30 31  1  0
 31 32  2  0
 15 33  1  0
 33 34  1  0
 11  6  1  0
 34 12  1  0
 26 21  1  0
 32 27  1  0
  1 35  1  0
  1 36  1  0
  1 37  1  0
  2 38  1  0
  2 39  1  0
  7 40  1  0
  8 41  1  0
  9 42  1  0
 10 43  1  0
 11 44  1  0
 12 45  1  0
 13 46  1  0
 13 47  1  0
 14 48  1  0
 14 49  1  0
 18 50  1  6
 19 51  1  0
 19 52  1  0
 20 53  1  0
 20 54  1  0
 22 55  1  0
 23 56  1  0
 24 57  1  0
 25 58  1  0
 28 59  1  0
 29 60  1  0
 30 61  1  0
 31 62  1  0
 32 63  1  0
 33 64  1  0
 33 65  1  0
 34 66  1  0
 34 67  1  0
M  END
>  <smiles>  (7) 
CCC(=O)N(c1ccccc1)C1CCN(C(=O)[C@@H](N)Cc2ccccc2-c2ccccc2)CC1

>  <score_type>  (7) 
oracle

>  <origin>  (7) 
autodockgpu

>  <m_score__min__energy>  (7) 
-8.6899999999999995

>  <m_primary>  (7) 
energy

>  <rmsd>  (7) 
6.500353206649747

>  <m_score__min__rmsd>  (7) 
6.500353206649747

>  <meeko>  (7) 
{"free_energy": -7.14, "intermolecular_energy": -9.82, "internal_energy": -3.65, "cluster_size": 13, "cluster_id": 2, "rank_in_cluster": 10}

>  <energy>  (7) 
-8.44

>  <cluster_rmsd>  (7) 
0.32

>  <cluster>  (7) 
1

$$$$

     RDKit          3D

 67 70  0  0  0  0  0  0  0  0999 V2000
  146.3040   73.2250  221.4230 C   0  0  0  0  0  0  0  0  0  0  0  0
  145.2170   73.5350  220.4390 C   0  0  0  0  0  0  0  0  0  0  0  0
  145.1330   72.5530  219.3210 C   0  0  0  0  0  0  0  0  0  0  0  0
  145.8950   72.6840  218.3310 O   0  0  0  0  0  0  0  0  0  0  0  0
  144.1930   71.4780  219.3780 N   0  0  0  0  0  0  0  0  0  0  0  0
  144.7410   70.1630  219.2390 C   0  0  0  0  0  0  0  0  0  0  0  0
  145.8890   69.8980  218.5300 C   0  0  0  0  0  0  0  0  0  0  0  0
  146.3190   68.5920  218.4540 C   0  0  0  0  0  0  0  0  0  0  0  0
  145.6410   67.5460  219.0610 C   0  0  0  0  0  0  0  0  0  0  0  0
  144.4810   67.8170  219.7770 C   0  0  0  0  0  0  0  0  0  0  0  0
  144.0320   69.1390  219.8630 C   0  0  0  0  0  0  0  0  0  0  0  0
  142.7590   71.7010  219.5790 C   0  0  0  0  0  0  0  0  0  0  0  0
  142.4860   72.1650  220.9580 C   0  0  0  0  0  0  0  0  0  0  0  0
  142.0700   73.6050  221.1100 C   0  0  0  0  0  0  0  0  0  0  0  0
  141.3150   74.1210  219.9800 N   0  0  0  0  0  0  0  0  0  0  0  0
  140.1950   75.0400  220.1990 C   0  0  0  0  0  0  0  0  0  0  0  0
  139.5470   75.2980  219.1580 O   0  0  0  0  0  0  0  0  0  0  0  0
  139.8700   75.5930  221.4940 C   0  0  1  0  0  0  0  0  0  0  0  0
  139.2160   74.5520  222.3280 N   0  0  0  0  0  0  0  0  0  0  0  0
  140.9410   76.2800  222.2650 C   0  0  0  0  0  0  0  0  0  0  0  0
  141.0800   77.7200  222.0580 C   0  0  0  0  0  0  0  0  0  0  0  0
  140.5660   78.5290  223.0920 C   0  0  0  0  0  0  0  0  0  0  0  0
  140.7070   79.8940  223.0930 C   0  0  0  0  0  0  0  0  0  0  0  0
  141.3640   80.5550  222.0740 C   0  0  0  0  0  0  0  0  0  0  0  0
  141.8680   79.7760  221.0580 C   0  0  0  0  0  0  0  0  0  0  0  0
  141.7200   78.3750  221.0570 C   0  0  0  0  0  0  0  0  0  0  0  0
  142.2010   77.7430  219.8220 C   0  0  0  0  0  0  0  0  0  0  0  0
  143.1620   76.7580  219.8060 C   0  0  0  0  0  0  0  0  0  0  0  0
  143.6350   76.2060  218.6060 C   0  0  0  0  0  0  0  0  0  0  0  0
  143.1160   76.6670  217.4010 C   0  0  0  0  0  0  0  0  0  0  0  0
  142.1410   77.6660  217.3900 C   0  0  0  0  0  0  0  0  0  0  0  0
  141.7050   78.1810  218.5920 C   0  0  0  0  0  0  0  0  0  0  0  0
  141.6600   73.7890  218.6150 C   0  0  0  0  0  0  0  0  0  0  0  0
  142.0700   72.3900  218.4680 C   0  0  0  0  0  0  0  0  0  0  0  0
  145.9151   73.3359  222.4460 H   0  0  0  0  0  0  0  0  0  0  0  0
  146.6511   72.1921  221.2726 H   0  0  0  0  0  0  0  0  0  0  0  0
  147.1437   73.9195  221.2726 H   0  0  0  0  0  0  0  0  0  0  0  0
  144.2549   73.5395  220.9722 H   0  0  0  0  0  0  0  0  0  0  0  0
  145.4506   74.5138  219.9947 H   0  0  0  0  0  0  0  0  0  0  0  0
  146.4484   70.7068  218.0372 H   0  0  0  0  0  0  0  0  0  0  0  0
  147.2366   68.3699  217.8894 H   0  0  0  0  0  0  0  0  0  0  0  0
  146.0162   66.5154  218.9770 H   0  0  0  0  0  0  0  0  0  0  0  0
  143.9249   67.0049  220.2682 H   0  0  0  0  0  0  0  0  0  0  0  0
  143.1156   69.3709  220.4255 H   0  0  0  0  0  0  0  0  0  0  0  0
  142.2502   70.7280  219.5130 H   0  0  0  0  0  0  0  0  0  0  0  0
  141.6802   71.5387  221.3685 H   0  0  0  0  0  0  0  0  0  0  0  0
  143.4449   72.0800  221.4902 H   0  0  0  0  0  0  0  0  0  0  0  0
  141.4468   73.6924  222.0122 H   0  0  0  0  0  0  0  0  0  0  0  0
  142.9932   74.1994  221.1762 H   0  0  0  0  0  0  0  0  0  0  0  0
  139.1943   76.4255  221.2482 H   0  0  0  0  0  0  0  0  0  0  0  0
  138.8940   74.9210  223.2310 H   0  0  0  0  0  0  0  0  0  0  0  0
  138.5780   73.9600  221.7950 H   0  0  0  0  0  0  0  0  0  0  0  0
  140.7400   76.1151  223.3338 H   0  0  0  0  0  0  0  0  0  0  0  0
  141.8831   75.8441  221.9012 H   0  0  0  0  0  0  0  0  0  0  0  0
  140.0336   78.0495  223.9266 H   0  0  0  0  0  0  0  0  0  0  0  0
  140.2863   80.4761  223.9262 H   0  0  0  0  0  0  0  0  0  0  0  0
  141.4786   81.6490  222.0745 H   0  0  0  0  0  0  0  0  0  0  0  0
  142.4000   80.2594  220.2254 H   0  0  0  0  0  0  0  0  0  0  0  0
  143.5704   76.3935  220.7601 H   0  0  0  0  0  0  0  0  0  0  0  0
  144.4048   75.4204  218.6181 H   0  0  0  0  0  0  0  0  0  0  0  0
  143.4754   76.2424  216.4520 H   0  0  0  0  0  0  0  0  0  0  0  0
  141.7283   78.0354  216.4396 H   0  0  0  0  0  0  0  0  0  0  0  0
  140.9363   78.9678  218.5821 H   0  0  0  0  0  0  0  0  0  0  0  0
  140.7837   73.9696  217.9750 H   0  0  0  0  0  0  0  0  0  0  0  0
  142.5108   74.4210  218.3204 H   0  0  0  0  0  0  0  0  0  0  0  0
  141.1585   71.8129  218.2531 H   0  0  0  0  0  0  0  0  0  0  0  0
  142.8384   72.4331  217.6821 H   0  0  0  0  0  0  0  0  0  0  0  0
  1  2  1  0
  2  3  1  0
  3  4  2  0
  3  5  1  0
  5  6  1  0
  6  7  2  0
  7  8  1  0
  8  9  2  0
  9 10  1  0
 10 11  2  0
  5 12  1  0
 12 13  1  0
 13 14  1  0
 14 15  1  0
 15 16  1  0
 16 17  2  0
 16 18  1  0
 18 19  1  0
 18 20  1  0
 20 21  1  0
 21 22  2  0
 22 23  1  0
 23 24  2  0
 24 25  1  0
 25 26  2  0
 26 27  1  0
 27 28  2  0
 28 29  1  0
 29 30  2  0
 30 31  1  0
 31 32  2  0
 15 33  1  0
 33 34  1  0
 11  6  1  0
 34 12  1  0
 26 21  1  0
 32 27  1  0
  1 35  1  0
  1 36  1  0
  1 37  1  0
  2 38  1  0
  2 39  1  0
  7 40  1  0
  8 41  1  0
  9 42  1  0
 10 43  1  0
 11 44  1  0
 12 45  1  0
 13 46  1  0
 13 47  1  0
 14 48  1  0
 14 49  1  0
 18 50  1  6
 19 51  1  0
 19 52  1  0
 20 53  1  0
 20 54  1  0
 22 55  1  0
 23 56  1  0
 24 57  1  0
 25 58  1  0
 28 59  1  0
 29 60  1  0
 30 61  1  0
 31 62  1  0
 32 63  1  0
 33 64  1  0
 33 65  1  0
 34 66  1  0
 34 67  1  0
M  END
>  <smiles>  (8) 
CCC(=O)N(c1ccccc1)C1CCN(C(=O)[C@@H](N)Cc2ccccc2-c2ccccc2)CC1

>  <score_type>  (8) 
oracle

>  <origin>  (8) 
autodockgpu

>  <m_score__min__energy>  (8) 
-8.6899999999999995

>  <m_primary>  (8) 
energy

>  <rmsd>  (8) 
6.788156448810132

>  <m_score__min__rmsd>  (8) 
6.788156448810132

>  <meeko>  (8) 
{"free_energy": -8.15, "intermolecular_energy": -10.84, "internal_energy": -3.13, "cluster_size": 13, "cluster_id": 2, "rank_in_cluster": 4}

>  <energy>  (8) 
-8.38

>  <cluster_rmsd>  (8) 
0.85

>  <cluster>  (8) 
1

$$$$

     RDKit          3D

 67 70  0  0  0  0  0  0  0  0999 V2000
  146.3550   73.0480  221.8530 C   0  0  0  0  0  0  0  0  0  0  0  0
  145.8570   74.0260  220.8330 C   0  0  0  0  0  0  0  0  0  0  0  0
  145.4540   73.3880  219.5470 C   0  0  0  0  0  0  0  0  0  0  0  0
  146.3090   73.2490  218.6370 O   0  0  0  0  0  0  0  0  0  0  0  0
  144.1100   72.9410  219.3570 N   0  0  0  0  0  0  0  0  0  0  0  0
  143.9080   71.5260  219.4280 C   0  0  0  0  0  0  0  0  0  0  0  0
  142.6770   70.9510  219.6330 C   0  0  0  0  0  0  0  0  0  0  0  0
  142.6020   69.5770  219.6930 C   0  0  0  0  0  0  0  0  0  0  0  0
  143.7140   68.7620  219.5560 C   0  0  0  0  0  0  0  0  0  0  0  0
  144.9590   69.3460  219.3490 C   0  0  0  0  0  0  0  0  0  0  0  0
  145.0500   70.7400  219.2860 C   0  0  0  0  0  0  0  0  0  0  0  0
  143.0030   73.8700  219.1180 C   0  0  0  0  0  0  0  0  0  0  0  0
  143.0220   74.9780  220.0990 C   0  0  0  0  0  0  0  0  0  0  0  0
  143.4170   76.3320  219.5720 C   0  0  0  0  0  0  0  0  0  0  0  0
  143.0300   76.5610  218.1890 N   0  0  0  0  0  0  0  0  0  0  0  0
  142.5520   77.8780  217.7640 C   0  0  0  0  0  0  0  0  0  0  0  0
  142.1230   77.9020  216.5870 O   0  0  0  0  0  0  0  0  0  0  0  0
  142.5730   79.0400  218.6250 C   0  0  1  0  0  0  0  0  0  0  0  0
  142.9280   80.2420  217.8280 N   0  0  0  0  0  0  0  0  0  0  0  0
  141.3860   79.3140  219.4790 C   0  0  0  0  0  0  0  0  0  0  0  0
  141.5780   79.2070  220.9240 C   0  0  0  0  0  0  0  0  0  0  0  0
  142.2360   80.2990  221.5270 C   0  0  0  0  0  0  0  0  0  0  0  0
  142.4030   80.3950  222.8850 C   0  0  0  0  0  0  0  0  0  0  0  0
  141.9350   79.4190  223.7430 C   0  0  0  0  0  0  0  0  0  0  0  0
  141.2930   78.3480  223.1670 C   0  0  0  0  0  0  0  0  0  0  0  0
  141.1240   78.2500  221.7720 C   0  0  0  0  0  0  0  0  0  0  0  0
  140.5430   76.9700  221.3480 C   0  0  0  0  0  0  0  0  0  0  0  0
  140.7200   75.7970  222.0460 C   0  0  0  0  0  0  0  0  0  0  0  0
  140.1900   74.5790  221.5910 C   0  0  0  0  0  0  0  0  0  0  0  0
  139.4670   74.5600  220.4030 C   0  0  0  0  0  0  0  0  0  0  0  0
  139.2740   75.7370  219.6770 C   0  0  0  0  0  0  0  0  0  0  0  0
  139.8120   76.9100  220.1590 C   0  0  0  0  0  0  0  0  0  0  0  0
  143.1400   75.5260  217.1850 C   0  0  0  0  0  0  0  0  0  0  0  0
  142.7620   74.2070  217.6990 C   0  0  0  0  0  0  0  0  0  0  0  0
  146.1565   73.4378  222.8623 H   0  0  0  0  0  0  0  0  0  0  0  0
  145.8367   72.0865  221.7228 H   0  0  0  0  0  0  0  0  0  0  0  0
  147.4374   72.9016  221.7228 H   0  0  0  0  0  0  0  0  0  0  0  0
  144.9848   74.5508  221.2500 H   0  0  0  0  0  0  0  0  0  0  0  0
  146.6873   74.7118  220.6087 H   0  0  0  0  0  0  0  0  0  0  0  0
  141.7757   71.5713  219.7461 H   0  0  0  0  0  0  0  0  0  0  0  0
  141.6204   69.1082  219.8561 H   0  0  0  0  0  0  0  0  0  0  0  0
  143.6135   67.6679  219.6102 H   0  0  0  0  0  0  0  0  0  0  0  0
  145.8576   68.7216  219.2367 H   0  0  0  0  0  0  0  0  0  0  0  0
  146.0272   71.2182  219.1237 H   0  0  0  0  0  0  0  0  0  0  0  0
  142.0627   73.3383  219.3259 H   0  0  0  0  0  0  0  0  0  0  0  0
  142.0112   75.0661  220.5240 H   0  0  0  0  0  0  0  0  0  0  0  0
  143.8008   74.7096  220.8280 H   0  0  0  0  0  0  0  0  0  0  0  0
  142.9388   77.1002  220.1974 H   0  0  0  0  0  0  0  0  0  0  0  0
  144.5153   76.3815  219.6090 H   0  0  0  0  0  0  0  0  0  0  0  0
  143.3401   78.7857  219.3713 H   0  0  0  0  0  0  0  0  0  0  0  0
  143.0240   80.0330  216.8280 H   0  0  0  0  0  0  0  0  0  0  0  0
  142.3920   81.0690  218.0970 H   0  0  0  0  0  0  0  0  0  0  0  0
  141.0490   80.3385  219.2625 H   0  0  0  0  0  0  0  0  0  0  0  0
  140.6596   78.5280  219.2250 H   0  0  0  0  0  0  0  0  0  0  0  0
  142.6290   81.1018  220.8858 H   0  0  0  0  0  0  0  0  0  0  0  0
  142.9224   81.2708  223.3010 H   0  0  0  0  0  0  0  0  0  0  0  0
  142.0691   79.4946  224.8322 H   0  0  0  0  0  0  0  0  0  0  0  0
  140.9015   77.5475  223.8120 H   0  0  0  0  0  0  0  0  0  0  0  0
  141.2920   75.8142  222.9854 H   0  0  0  0  0  0  0  0  0  0  0  0
  140.3443   73.6537  222.1655 H   0  0  0  0  0  0  0  0  0  0  0  0
  139.0453   73.6135  220.0337 H   0  0  0  0  0  0  0  0  0  0  0  0
  138.7026   75.7278  218.7371 H   0  0  0  0  0  0  0  0  0  0  0  0
  139.6600   77.8360  219.5850 H   0  0  0  0  0  0  0  0  0  0  0  0
  142.4796   75.7794  216.3426 H   0  0  0  0  0  0  0  0  0  0  0  0
  144.1928   75.4743  216.8704 H   0  0  0  0  0  0  0  0  0  0  0  0
  141.6814   74.0962  217.5254 H   0  0  0  0  0  0  0  0  0  0  0  0
  143.4335   73.5232  217.1591 H   0  0  0  0  0  0  0  0  0  0  0  0
  1  2  1  0
  2  3  1  0
  3  4  2  0
  3  5  1  0
  5  6  1  0
  6  7  2  0
  7  8  1  0
  8  9  2  0
  9 10  1  0
 10 11  2  0
  5 12  1  0
 12 13  1  0
 13 14  1  0
 14 15  1  0
 15 16  1  0
 16 17  2  0
 16 18  1  0
 18 19  1  0
 18 20  1  0
 20 21  1  0
 21 22  2  0
 22 23  1  0
 23 24  2  0
 24 25  1  0
 25 26  2  0
 26 27  1  0
 27 28  2  0
 28 29  1  0
 29 30  2  0
 30 31  1  0
 31 32  2  0
 15 33  1  0
 33 34  1  0
 11  6  1  0
 34 12  1  0
 26 21  1  0
 32 27  1  0
  1 35  1  0
  1 36  1  0
  1 37  1  0
  2 38  1  0
  2 39  1  0
  7 40  1  0
  8 41  1  0
  9 42  1  0
 10 43  1  0
 11 44  1  0
 12 45  1  0
 13 46  1  0
 13 47  1  0
 14 48  1  0
 14 49  1  0
 18 50  1  1
 19 51  1  0
 19 52  1  0
 20 53  1  0
 20 54  1  0
 22 55  1  0
 23 56  1  0
 24 57  1  0
 25 58  1  0
 28 59  1  0
 29 60  1  0
 30 61  1  0
 31 62  1  0
 32 63  1  0
 33 64  1  0
 33 65  1  0
 34 66  1  0
 34 67  1  0
M  END
>  <smiles>  (9) 
CCC(=O)N(c1ccccc1)C1CCN(C(=O)[C@@H](N)Cc2ccccc2-c2ccccc2)CC1

>  <score_type>  (9) 
oracle

>  <origin>  (9) 
autodockgpu

>  <m_score__min__energy>  (9) 
-8.6899999999999995

>  <m_primary>  (9) 
energy

>  <rmsd>  (9) 
6.096816404158428

>  <m_score__min__rmsd>  (9) 
6.096816404158428

>  <meeko>  (9) 
{"free_energy": -7.89, "intermolecular_energy": -10.58, "internal_energy": -3.55, "cluster_size": 13, "cluster_id": 1, "rank_in_cluster": 12}

>  <energy>  (9) 
-8.17

>  <cluster_rmsd>  (9) 
0.54

>  <cluster>  (9) 
1

$$$$

     RDKit          3D

 67 70  0  0  0  0  0  0  0  0999 V2000
  146.3450   73.1100  221.8680 C   0  0  0  0  0  0  0  0  0  0  0  0
  145.7370   74.0180  220.8420 C   0  0  0  0  0  0  0  0  0  0  0  0
  145.4020   73.3280  219.5650 C   0  0  0  0  0  0  0  0  0  0  0  0
  146.3050   73.1460  218.7100 O   0  0  0  0  0  0  0  0  0  0  0  0
  144.0670   72.8810  219.3190 N   0  0  0  0  0  0  0  0  0  0  0  0
  143.8580   71.4680  219.4010 C   0  0  0  0  0  0  0  0  0  0  0  0
  142.6290   70.9020  219.6410 C   0  0  0  0  0  0  0  0  0  0  0  0
  142.5470   69.5290  219.7100 C   0  0  0  0  0  0  0  0  0  0  0  0
  143.6500   68.7060  219.5490 C   0  0  0  0  0  0  0  0  0  0  0  0
  144.8930   69.2800  219.3070 C   0  0  0  0  0  0  0  0  0  0  0  0
  144.9910   70.6740  219.2340 C   0  0  0  0  0  0  0  0  0  0  0  0
  142.9750   73.8090  219.0130 C   0  0  0  0  0  0  0  0  0  0  0  0
  142.9110   74.8960  220.0150 C   0  0  0  0  0  0  0  0  0  0  0  0
  143.3350   76.2630  219.5480 C   0  0  0  0  0  0  0  0  0  0  0  0
  143.0540   76.5180  218.1440 N   0  0  0  0  0  0  0  0  0  0  0  0
  142.6010   77.8410  217.7100 C   0  0  0  0  0  0  0  0  0  0  0  0
  142.2640   77.8860  216.5040 O   0  0  0  0  0  0  0  0  0  0  0  0
  142.5470   78.9850  218.5920 C   0  0  1  0  0  0  0  0  0  0  0  0
  142.9710   80.2020  217.8550 N   0  0  0  0  0  0  0  0  0  0  0  0
  141.2890   79.2440  219.3450 C   0  0  0  0  0  0  0  0  0  0  0  0
  140.8750   78.2230  220.3040 C   0  0  0  0  0  0  0  0  0  0  0  0
  140.2440   77.0920  219.7450 C   0  0  0  0  0  0  0  0  0  0  0  0
  139.8870   76.0040  220.5000 C   0  0  0  0  0  0  0  0  0  0  0  0
  140.1250   75.9560  221.8600 C   0  0  0  0  0  0  0  0  0  0  0  0
  140.7370   77.0540  222.4170 C   0  0  0  0  0  0  0  0  0  0  0  0
  141.1030   78.1720  221.6410 C   0  0  0  0  0  0  0  0  0  0  0  0
  141.6120   79.2920  222.4420 C   0  0  0  0  0  0  0  0  0  0  0  0
  142.9490   79.4740  222.7130 C   0  0  0  0  0  0  0  0  0  0  0  0
  143.4020   80.5280  223.5210 C   0  0  0  0  0  0  0  0  0  0  0  0
  142.4740   81.4120  224.0600 C   0  0  0  0  0  0  0  0  0  0  0  0
  141.1120   81.2480  223.8000 C   0  0  0  0  0  0  0  0  0  0  0  0
  140.7100   80.1980  223.0020 C   0  0  0  0  0  0  0  0  0  0  0  0
  143.2490   75.5040  217.1300 C   0  0  0  0  0  0  0  0  0  0  0  0
  142.8420   74.1730  217.5870 C   0  0  0  0  0  0  0  0  0  0  0  0
  146.0988   73.4777  222.8750 H   0  0  0  0  0  0  0  0  0  0  0  0
  145.9449   72.0932  221.7409 H   0  0  0  0  0  0  0  0  0  0  0  0
  147.4375   73.0927  221.7409 H   0  0  0  0  0  0  0  0  0  0  0  0
  144.8139   74.4467  221.2592 H   0  0  0  0  0  0  0  0  0  0  0  0
  146.4851   74.7896  220.6074 H   0  0  0  0  0  0  0  0  0  0  0  0
  141.7349   71.5287  219.7744 H   0  0  0  0  0  0  0  0  0  0  0  0
  141.5669   69.0674  219.9005 H   0  0  0  0  0  0  0  0  0  0  0  0
  143.5436   67.6130  219.6118 H   0  0  0  0  0  0  0  0  0  0  0  0
  145.7843   68.6490  219.1752 H   0  0  0  0  0  0  0  0  0  0  0  0
  145.9667   71.1451  219.0439 H   0  0  0  0  0  0  0  0  0  0  0  0
  142.0245   73.2691  219.1358 H   0  0  0  0  0  0  0  0  0  0  0  0
  141.8701   74.9693  220.3632 H   0  0  0  0  0  0  0  0  0  0  0  0
  143.6340   74.6167  220.7955 H   0  0  0  0  0  0  0  0  0  0  0  0
  142.8040   77.0151  220.1499 H   0  0  0  0  0  0  0  0  0  0  0  0
  144.4267   76.3188  219.6711 H   0  0  0  0  0  0  0  0  0  0  0  0
  143.2462   78.7140  219.3968 H   0  0  0  0  0  0  0  0  0  0  0  0
  143.7950   80.6460  218.2760 H   0  0  0  0  0  0  0  0  0  0  0  0
  142.9560   80.0780  216.8420 H   0  0  0  0  0  0  0  0  0  0  0  0
  141.4194   80.1863  219.8973 H   0  0  0  0  0  0  0  0  0  0  0  0
  140.4956   79.2630  218.5833 H   0  0  0  0  0  0  0  0  0  0  0  0
  140.0308   77.0823  218.6659 H   0  0  0  0  0  0  0  0  0  0  0  0
  139.3990   75.1483  220.0104 H   0  0  0  0  0  0  0  0  0  0  0  0
  139.8394   75.0838  222.4664 H   0  0  0  0  0  0  0  0  0  0  0  0
  140.9465   77.0600  223.4969 H   0  0  0  0  0  0  0  0  0  0  0  0
  143.6821   78.7745  222.2848 H   0  0  0  0  0  0  0  0  0  0  0  0
  144.4757   80.6531  223.7250 H   0  0  0  0  0  0  0  0  0  0  0  0
  142.8143   82.2441  224.6939 H   0  0  0  0  0  0  0  0  0  0  0  0
  140.3732   81.9439  224.2241 H   0  0  0  0  0  0  0  0  0  0  0  0
  139.6366   80.0693  222.7988 H   0  0  0  0  0  0  0  0  0  0  0  0
  142.6538   75.7709  216.2443 H   0  0  0  0  0  0  0  0  0  0  0  0
  144.3232   75.4649  216.8964 H   0  0  0  0  0  0  0  0  0  0  0  0
  141.7789   74.0596  217.3281 H   0  0  0  0  0  0  0  0  0  0  0  0
  143.5581   73.5040  217.0873 H   0  0  0  0  0  0  0  0  0  0  0  0
  1  2  1  0
  2  3  1  0
  3  4  2  0
  3  5  1  0
  5  6  1  0
  6  7  2  0
  7  8  1  0
  8  9  2  0
  9 10  1  0
 10 11  2  0
  5 12  1  0
 12 13  1  0
 13 14  1  0
 14 15  1  0
 15 16  1  0
 16 17  2  0
 16 18  1  0
 18 19  1  0
 18 20  1  0
 20 21  1  0
 21 22  2  0
 22 23  1  0
 23 24  2  0
 24 25  1  0
 25 26  2  0
 26 27  1  0
 27 28  2  0
 28 29  1  0
 29 30  2  0
 30 31  1  0
 31 32  2  0
 15 33  1  0
 33 34  1  0
 11  6  1  0
 34 12  1  0
 26 21  1  0
 32 27  1  0
  1 35  1  0
  1 36  1  0
  1 37  1  0
  2 38  1  0
  2 39  1  0
  7 40  1  0
  8 41  1  0
  9 42  1  0
 10 43  1  0
 11 44  1  0
 12 45  1  0
 13 46  1  0
 13 47  1  0
 14 48  1  0
 14 49  1  0
 18 50  1  1
 19 51  1  0
 19 52  1  0
 20 53  1  0
 20 54  1  0
 22 55  1  0
 23 56  1  0
 24 57  1  0
 25 58  1  0
 28 59  1  0
 29 60  1  0
 30 61  1  0
 31 62  1  0
 32 63  1  0
 33 64  1  0
 33 65  1  0
 34 66  1  0
 34 67  1  0
M  END
>  <smiles>  (10) 
CCC(=O)N(c1ccccc1)C1CCN(C(=O)[C@@H](N)Cc2ccccc2-c2ccccc2)CC1

>  <score_type>  (10) 
oracle

>  <origin>  (10) 
autodockgpu

>  <m_score__min__energy>  (10) 
-8.6899999999999995

>  <m_primary>  (10) 
energy

>  <rmsd>  (10) 
5.71525997117306

>  <m_score__min__rmsd>  (10) 
5.71525997117306

>  <meeko>  (10) 
{"free_energy": -8.69, "intermolecular_energy": -11.38, "internal_energy": -3.2, "cluster_size": 13, "cluster_id": 1, "rank_in_cluster": 1}

>  <energy>  (10) 
-8.06

>  <cluster_rmsd>  (10) 
0.68

>  <cluster>  (10) 
1

$$$$

     RDKit          3D

 67 70  0  0  0  0  0  0  0  0999 V2000
  142.5090   72.6340  217.6140 C   0  0  0  0  0  0  0  0  0  0  0  0
  143.9470   72.9450  217.3280 C   0  0  0  0  0  0  0  0  0  0  0  0
  144.8560   72.6430  218.4710 C   0  0  0  0  0  0  0  0  0  0  0  0
  145.9990   73.1640  218.4990 O   0  0  0  0  0  0  0  0  0  0  0  0
  144.4280   71.7710  219.5180 N   0  0  0  0  0  0  0  0  0  0  0  0
  144.6580   70.3750  219.3000 C   0  0  0  0  0  0  0  0  0  0  0  0
  143.6520   69.4390  219.2910 C   0  0  0  0  0  0  0  0  0  0  0  0
  143.9920   68.1210  219.0810 C   0  0  0  0  0  0  0  0  0  0  0  0
  145.3000   67.7100  218.8820 C   0  0  0  0  0  0  0  0  0  0  0  0
  146.3170   68.6580  218.8920 C   0  0  0  0  0  0  0  0  0  0  0  0
  145.9860   70.0010  219.1030 C   0  0  0  0  0  0  0  0  0  0  0  0
  143.8030   72.2700  220.7460 C   0  0  0  0  0  0  0  0  0  0  0  0
  143.7420   73.7490  220.7440 C   0  0  0  0  0  0  0  0  0  0  0  0
  142.3780   74.3620  220.5730 C   0  0  0  0  0  0  0  0  0  0  0  0
  141.3000   73.5670  221.1390 N   0  0  0  0  0  0  0  0  0  0  0  0
  140.1760   74.2200  221.8120 C   0  0  0  0  0  0  0  0  0  0  0  0
  139.3920   73.4200  222.3730 O   0  0  0  0  0  0  0  0  0  0  0  0
  139.9910   75.6540  221.8290 C   0  0  1  0  0  0  0  0  0  0  0  0
  138.6780   75.9790  222.4400 N   0  0  0  0  0  0  0  0  0  0  0  0
  141.0630   76.5030  222.4170 C   0  0  0  0  0  0  0  0  0  0  0  0
  141.0730   77.9120  222.0290 C   0  0  0  0  0  0  0  0  0  0  0  0
  140.7440   78.8210  223.0550 C   0  0  0  0  0  0  0  0  0  0  0  0
  140.8060   80.1800  222.8770 C   0  0  0  0  0  0  0  0  0  0  0  0
  141.1940   80.7370  221.6730 C   0  0  0  0  0  0  0  0  0  0  0  0
  141.5150   79.8590  220.6640 C   0  0  0  0  0  0  0  0  0  0  0  0
  141.4500   78.4630  220.8480 C   0  0  0  0  0  0  0  0  0  0  0  0
  141.6940   77.7050  219.6140 C   0  0  0  0  0  0  0  0  0  0  0  0
  140.7170   77.4670  218.6740 C   0  0  0  0  0  0  0  0  0  0  0  0
  140.9680   76.6990  217.5270 C   0  0  0  0  0  0  0  0  0  0  0  0
  142.2390   76.1670  217.3360 C   0  0  0  0  0  0  0  0  0  0  0  0
  143.2460   76.3950  218.2760 C   0  0  0  0  0  0  0  0  0  0  0  0
  142.9560   77.1530  219.3890 C   0  0  0  0  0  0  0  0  0  0  0  0
  141.2740   72.1250  221.0250 C   0  0  0  0  0  0  0  0  0  0  0  0
  142.6030   71.5290  221.1850 C   0  0  0  0  0  0  0  0  0  0  0  0
  142.3506   72.5998  218.7020 H   0  0  0  0  0  0  0  0  0  0  0  0
  141.8706   73.4149  217.1749 H   0  0  0  0  0  0  0  0  0  0  0  0
  142.2503   71.6592  217.1749 H   0  0  0  0  0  0  0  0  0  0  0  0
  144.2671   72.3488  216.4608 H   0  0  0  0  0  0  0  0  0  0  0  0
  144.0139   74.0261  217.1362 H   0  0  0  0  0  0  0  0  0  0  0  0
  142.6039   69.7343  219.4472 H   0  0  0  0  0  0  0  0  0  0  0  0
  143.1934   67.3647  219.0709 H   0  0  0  0  0  0  0  0  0  0  0  0
  145.5310   66.6471  218.7182 H   0  0  0  0  0  0  0  0  0  0  0  0
  147.3637   68.3574  218.7367 H   0  0  0  0  0  0  0  0  0  0  0  0
  146.7774   70.7649  219.1134 H   0  0  0  0  0  0  0  0  0  0  0  0
  144.4668   72.0260  221.5885 H   0  0  0  0  0  0  0  0  0  0  0  0
  144.1499   74.1021  221.7026 H   0  0  0  0  0  0  0  0  0  0  0  0
  144.3170   74.0641  219.8608 H   0  0  0  0  0  0  0  0  0  0  0  0
  142.3767   75.3466  221.0635 H   0  0  0  0  0  0  0  0  0  0  0  0
  142.1913   74.4292  219.4910 H   0  0  0  0  0  0  0  0  0  0  0  0
  140.0399   75.9251  220.7641 H   0  0  0  0  0  0  0  0  0  0  0  0
  138.0230   76.3890  221.7630 H   0  0  0  0  0  0  0  0  0  0  0  0
  138.3340   75.2420  223.0570 H   0  0  0  0  0  0  0  0  0  0  0  0
  140.9596   76.4596  223.5113 H   0  0  0  0  0  0  0  0  0  0  0  0
  142.0049   76.0897  222.0270 H   0  0  0  0  0  0  0  0  0  0  0  0
  140.4267   78.4272  224.0318 H   0  0  0  0  0  0  0  0  0  0  0  0
  140.5402   80.8430  223.7136 H   0  0  0  0  0  0  0  0  0  0  0  0
  141.2435   81.8264  221.5291 H   0  0  0  0  0  0  0  0  0  0  0  0
  141.8306   80.2566  219.6881 H   0  0  0  0  0  0  0  0  0  0  0  0
  139.7131   77.8901  218.8261 H   0  0  0  0  0  0  0  0  0  0  0  0
  140.1715   76.5202  216.7897 H   0  0  0  0  0  0  0  0  0  0  0  0
  142.4516   75.5642  216.4408 H   0  0  0  0  0  0  0  0  0  0  0  0
  144.2529   75.9768  218.1303 H   0  0  0  0  0  0  0  0  0  0  0  0
  143.7500   77.3302  220.1294 H   0  0  0  0  0  0  0  0  0  0  0  0
  140.6094   71.7209  221.8028 H   0  0  0  0  0  0  0  0  0  0  0  0
  140.9127   71.8743  220.0167 H   0  0  0  0  0  0  0  0  0  0  0  0
  142.7317   71.3235  222.2580 H   0  0  0  0  0  0  0  0  0  0  0  0
  142.5762   70.6655  220.5041 H   0  0  0  0  0  0  0  0  0  0  0  0
  1  2  1  0
  2  3  1  0
  3  4  2  0
  3  5  1  0
  5  6  1  0
  6  7  2  0
  7  8  1  0
  8  9  2  0
  9 10  1  0
 10 11  2  0
  5 12  1  0
 12 13  1  0
 13 14  1  0
 14 15  1  0
 15 16  1  0
 16 17  2  0
 16 18  1  0
 18 19  1  0
 18 20  1  0
 20 21  1  0
 21 22  2  0
 22 23  1  0
 23 24  2  0
 24 25  1  0
 25 26  2  0
 26 27  1  0
 27 28  2  0
 28 29  1  0
 29 30  2  0
 30 31  1  0
 31 32  2  0
 15 33  1  0
 33 34  1  0
 11  6  1  0
 34 12  1  0
 26 21  1  0
 32 27  1  0
  1 35  1  0
  1 36  1  0
  1 37  1  0
  2 38  1  0
  2 39  1  0
  7 40  1  0
  8 41  1  0
  9 42  1  0
 10 43  1  0
 11 44  1  0
 12 45  1  0
 13 46  1  0
 13 47  1  0
 14 48  1  0
 14 49  1  0
 18 50  1  6
 19 51  1  0
 19 52  1  0
 20 53  1  0
 20 54  1  0
 22 55  1  0
 23 56  1  0
 24 57  1  0
 25 58  1  0
 28 59  1  0
 29 60  1  0
 30 61  1  0
 31 62  1  0
 32 63  1  0
 33 64  1  0
 33 65  1  0
 34 66  1  0
 34 67  1  0
M  END
>  <smiles>  (11) 
CCC(=O)N(c1ccccc1)C1CCN(C(=O)[C@@H](N)Cc2ccccc2-c2ccccc2)CC1

>  <score_type>  (11) 
oracle

>  <origin>  (11) 
autodockgpu

>  <m_score__min__energy>  (11) 
-8.6899999999999995

>  <m_primary>  (11) 
energy

>  <rmsd>  (11) 
6.612056282449875

>  <m_score__min__rmsd>  (11) 
6.612056282449875

>  <meeko>  (11) 
{"free_energy": -7.05, "intermolecular_energy": -9.73, "internal_energy": -3.61, "cluster_size": 13, "cluster_id": 2, "rank_in_cluster": 11}

>  <energy>  (11) 
-7.91

>  <cluster_rmsd>  (11) 
0.72

>  <cluster>  (11) 
1

$$$$

     RDKit          3D

 67 70  0  0  0  0  0  0  0  0999 V2000
  139.9610   71.1030  222.2930 C   0  0  0  0  0  0  0  0  0  0  0  0
  140.5620   71.7810  221.0990 C   0  0  0  0  0  0  0  0  0  0  0  0
  140.8600   73.2240  221.3260 C   0  0  0  0  0  0  0  0  0  0  0  0
  140.3790   73.7980  222.3340 O   0  0  0  0  0  0  0  0  0  0  0  0
  141.6810   73.9410  220.4030 N   0  0  0  0  0  0  0  0  0  0  0  0
  143.0570   73.5500  220.3590 C   0  0  0  0  0  0  0  0  0  0  0  0
  143.4640   72.2500  220.1710 C   0  0  0  0  0  0  0  0  0  0  0  0
  144.8160   71.9880  220.1560 C   0  0  0  0  0  0  0  0  0  0  0  0
  145.7710   72.9780  220.3240 C   0  0  0  0  0  0  0  0  0  0  0  0
  145.3570   74.2920  220.5140 C   0  0  0  0  0  0  0  0  0  0  0  0
  143.9860   74.5730  220.5310 C   0  0  0  0  0  0  0  0  0  0  0  0
  141.1510   75.0030  219.5440 C   0  0  0  0  0  0  0  0  0  0  0  0
  140.9540   76.2540  220.3120 C   0  0  0  0  0  0  0  0  0  0  0  0
  141.9070   77.3800  220.0120 C   0  0  0  0  0  0  0  0  0  0  0  0
  142.3680   77.4100  218.6330 N   0  0  0  0  0  0  0  0  0  0  0  0
  142.5490   78.6890  217.9430 C   0  0  0  0  0  0  0  0  0  0  0  0
  142.8140   78.5690  216.7240 O   0  0  0  0  0  0  0  0  0  0  0  0
  142.4300   79.9680  218.6070 C   0  0  1  0  0  0  0  0  0  0  0  0
  143.1980   80.9910  217.8540 N   0  0  0  0  0  0  0  0  0  0  0  0
  141.0700   80.4750  218.9360 C   0  0  0  0  0  0  0  0  0  0  0  0
  141.0000   81.7340  219.6750 C   0  0  0  0  0  0  0  0  0  0  0  0
  140.8040   82.8850  218.8850 C   0  0  0  0  0  0  0  0  0  0  0  0
  140.6170   84.1280  219.4360 C   0  0  0  0  0  0  0  0  0  0  0  0
  140.6130   84.3220  220.8030 C   0  0  0  0  0  0  0  0  0  0  0  0
  140.8060   83.2060  221.5840 C   0  0  0  0  0  0  0  0  0  0  0  0
  140.9990   81.9300  221.0180 C   0  0  0  0  0  0  0  0  0  0  0  0
  141.3260   80.9000  222.0110 C   0  0  0  0  0  0  0  0  0  0  0  0
  142.5970   80.3990  222.1820 C   0  0  0  0  0  0  0  0  0  0  0  0
  142.8700   79.3800  223.1080 C   0  0  0  0  0  0  0  0  0  0  0  0
  141.8290   78.8660  223.8730 C   0  0  0  0  0  0  0  0  0  0  0  0
  140.5310   79.3570  223.7170 C   0  0  0  0  0  0  0  0  0  0  0  0
  140.3060   80.3570  222.7950 C   0  0  0  0  0  0  0  0  0  0  0  0
  142.7020   76.2000  217.9130 C   0  0  0  0  0  0  0  0  0  0  0  0
  141.7770   75.1020  218.2090 C   0  0  0  0  0  0  0  0  0  0  0  0
  140.3620   71.5554  223.2120 H   0  0  0  0  0  0  0  0  0  0  0  0
  138.8679   71.2238  222.2716 H   0  0  0  0  0  0  0  0  0  0  0  0
  140.2121   70.0322  222.2716 H   0  0  0  0  0  0  0  0  0  0  0  0
  141.5001   71.2674  220.8417 H   0  0  0  0  0  0  0  0  0  0  0  0
  139.8219   71.7258  220.2871 H   0  0  0  0  0  0  0  0  0  0  0  0
  142.7301   71.4418  220.0363 H   0  0  0  0  0  0  0  0  0  0  0  0
  145.1512   70.9513  220.0046 H   0  0  0  0  0  0  0  0  0  0  0  0
  146.8421   72.7279  220.3073 H   0  0  0  0  0  0  0  0  0  0  0  0
  146.0946   75.0969  220.6487 H   0  0  0  0  0  0  0  0  0  0  0  0
  143.6408   75.6066  220.6809 H   0  0  0  0  0  0  0  0  0  0  0  0
  140.1372   74.7127  219.2309 H   0  0  0  0  0  0  0  0  0  0  0  0
  139.9349   76.6147  220.1086 H   0  0  0  0  0  0  0  0  0  0  0  0
  141.1405   75.9849  221.3621 H   0  0  0  0  0  0  0  0  0  0  0  0
  141.3983   78.3311  220.2279 H   0  0  0  0  0  0  0  0  0  0  0  0
  142.7949   77.2234  220.6422 H   0  0  0  0  0  0  0  0  0  0  0  0
  142.8504   79.7735  219.6047 H   0  0  0  0  0  0  0  0  0  0  0  0
  143.6570   80.6020  217.0230 H   0  0  0  0  0  0  0  0  0  0  0  0
  142.6930   81.8740  217.7560 H   0  0  0  0  0  0  0  0  0  0  0  0
  140.5279   80.6137  217.9890 H   0  0  0  0  0  0  0  0  0  0  0  0
  140.6350   79.7207  219.6081 H   0  0  0  0  0  0  0  0  0  0  0  0
  140.8008   82.7834  217.7897 H   0  0  0  0  0  0  0  0  0  0  0  0
  140.4665   84.9917  218.7716 H   0  0  0  0  0  0  0  0  0  0  0  0
  140.4632   85.3181  221.2451 H   0  0  0  0  0  0  0  0  0  0  0  0
  140.8098   83.3125  222.6788 H   0  0  0  0  0  0  0  0  0  0  0  0
  143.4199   80.8079  221.5773 H   0  0  0  0  0  0  0  0  0  0  0  0
  143.8930   78.9936  223.2267 H   0  0  0  0  0  0  0  0  0  0  0  0
  142.0287   78.0690  224.6044 H   0  0  0  0  0  0  0  0  0  0  0  0
  139.7034   78.9533  224.3187 H   0  0  0  0  0  0  0  0  0  0  0  0
  139.2830   80.7422  222.6721 H   0  0  0  0  0  0  0  0  0  0  0  0
  142.6677   76.4099  216.8338 H   0  0  0  0  0  0  0  0  0  0  0  0
  143.7077   75.8869  218.2302 H   0  0  0  0  0  0  0  0  0  0  0  0
  140.9576   75.1713  217.4784 H   0  0  0  0  0  0  0  0  0  0  0  0
  142.4200   74.2106  218.1644 H   0  0  0  0  0  0  0  0  0  0  0  0
  1  2  1  0
  2  3  1  0
  3  4  2  0
  3  5  1  0
  5  6  1  0
  6  7  2  0
  7  8  1  0
  8  9  2  0
  9 10  1  0
 10 11  2  0
  5 12  1  0
 12 13  1  0
 13 14  1  0
 14 15  1  0
 15 16  1  0
 16 17  2  0
 16 18  1  0
 18 19  1  0
 18 20  1  0
 20 21  1  0
 21 22  2  0
 22 23  1  0
 23 24  2  0
 24 25  1  0
 25 26  2  0
 26 27  1  0
 27 28  2  0
 28 29  1  0
 29 30  2  0
 30 31  1  0
 31 32  2  0
 15 33  1  0
 33 34  1  0
 11  6  1  0
 34 12  1  0
 26 21  1  0
 32 27  1  0
  1 35  1  0
  1 36  1  0
  1 37  1  0
  2 38  1  0
  2 39  1  0
  7 40  1  0
  8 41  1  0
  9 42  1  0
 10 43  1  0
 11 44  1  0
 12 45  1  0
 13 46  1  0
 13 47  1  0
 14 48  1  0
 14 49  1  0
 18 50  1  1
 19 51  1  0
 19 52  1  0
 20 53  1  0
 20 54  1  0
 22 55  1  0
 23 56  1  0
 24 57  1  0
 25 58  1  0
 28 59  1  0
 29 60  1  0
 30 61  1  0
 31 62  1  0
 32 63  1  0
 33 64  1  0
 33 65  1  0
 34 66  1  0
 34 67  1  0
M  END
>  <smiles>  (12) 
CCC(=O)N(c1ccccc1)C1CCN(C(=O)[C@@H](N)Cc2ccccc2-c2ccccc2)CC1

>  <score_type>  (12) 
oracle

>  <origin>  (12) 
autodockgpu

>  <m_score__min__energy>  (12) 
-8.6899999999999995

>  <m_primary>  (12) 
energy

>  <rmsd>  (12) 
5.920080177578071

>  <m_score__min__rmsd>  (12) 
5.920080177578071

>  <meeko>  (12) 
{"free_energy": -8.01, "intermolecular_energy": -10.69, "internal_energy": -3.24, "cluster_size": 4, "cluster_id": 3, "rank_in_cluster": 2}

>  <energy>  (12) 
-7.89

>  <cluster_rmsd>  (12) 
0.71

>  <cluster>  (12) 
1

$$$$

     RDKit          3D

 67 70  0  0  0  0  0  0  0  0999 V2000
  142.6080   80.8380  217.9370 C   0  0  0  0  0  0  0  0  0  0  0  0
  141.3640   81.6100  218.2540 C   0  0  0  0  0  0  0  0  0  0  0  0
  141.1410   81.8000  219.7160 C   0  0  0  0  0  0  0  0  0  0  0  0
  141.0410   82.9650  220.1750 O   0  0  0  0  0  0  0  0  0  0  0  0
  141.0450   80.6670  220.5810 N   0  0  0  0  0  0  0  0  0  0  0  0
  141.6480   80.8150  221.8700 C   0  0  0  0  0  0  0  0  0  0  0  0
  141.0900   81.5600  222.8810 C   0  0  0  0  0  0  0  0  0  0  0  0
  141.7640   81.6390  224.0800 C   0  0  0  0  0  0  0  0  0  0  0  0
  142.9750   81.0030  224.2980 C   0  0  0  0  0  0  0  0  0  0  0  0
  143.5390   80.2500  223.2740 C   0  0  0  0  0  0  0  0  0  0  0  0
  142.8650   80.1600  222.0520 C   0  0  0  0  0  0  0  0  0  0  0  0
  140.3620   79.4330  220.1820 C   0  0  0  0  0  0  0  0  0  0  0  0
  141.3390   78.3690  219.8620 C   0  0  0  0  0  0  0  0  0  0  0  0
  141.4350   77.2310  220.8430 C   0  0  0  0  0  0  0  0  0  0  0  0
  140.1810   76.9220  221.5100 N   0  0  0  0  0  0  0  0  0  0  0  0
  139.8150   75.5310  221.7880 C   0  0  0  0  0  0  0  0  0  0  0  0
  138.6530   75.3980  222.2380 O   0  0  0  0  0  0  0  0  0  0  0  0
  140.7100   74.4190  221.5590 C   0  0  1  0  0  0  0  0  0  0  0  0
  140.4350   73.3490  222.5500 N   0  0  0  0  0  0  0  0  0  0  0  0
  140.8010   73.8480  220.1880 C   0  0  0  0  0  0  0  0  0  0  0  0
  141.4480   74.6770  219.1730 C   0  0  0  0  0  0  0  0  0  0  0  0
  140.5730   75.4220  218.3560 C   0  0  0  0  0  0  0  0  0  0  0  0
  141.0280   76.3210  217.4250 C   0  0  0  0  0  0  0  0  0  0  0  0
  142.3770   76.5460  217.2330 C   0  0  0  0  0  0  0  0  0  0  0  0
  143.2400   75.8220  218.0220 C   0  0  0  0  0  0  0  0  0  0  0  0
  142.7730   74.8980  218.9770 C   0  0  0  0  0  0  0  0  0  0  0  0
  143.8490   74.1290  219.6140 C   0  0  0  0  0  0  0  0  0  0  0  0
  144.0050   72.7720  219.4430 C   0  0  0  0  0  0  0  0  0  0  0  0
  145.0170   72.0570  220.1020 C   0  0  0  0  0  0  0  0  0  0  0  0
  145.8830   72.7380  220.9500 C   0  0  0  0  0  0  0  0  0  0  0  0
  145.7440   74.1150  221.1400 C   0  0  0  0  0  0  0  0  0  0  0  0
  144.7370   74.7790  220.4740 C   0  0  0  0  0  0  0  0  0  0  0  0
  139.2790   77.9610  221.9590 C   0  0  0  0  0  0  0  0  0  0  0  0
  139.1900   79.0710  221.0070 C   0  0  0  0  0  0  0  0  0  0  0  0
  143.0990   80.5333  218.8730 H   0  0  0  0  0  0  0  0  0  0  0  0
  142.3457   79.9438  217.3526 H   0  0  0  0  0  0  0  0  0  0  0  0
  143.2928   81.4700  217.3526 H   0  0  0  0  0  0  0  0  0  0  0  0
  141.4383   82.6004  217.7811 H   0  0  0  0  0  0  0  0  0  0  0  0
  140.5138   81.0279  217.8689 H   0  0  0  0  0  0  0  0  0  0  0  0
  140.1310   82.0793  222.7368 H   0  0  0  0  0  0  0  0  0  0  0  0
  141.3232   82.2303  224.8961 H   0  0  0  0  0  0  0  0  0  0  0  0
  143.4842   81.0924  225.2690 H   0  0  0  0  0  0  0  0  0  0  0  0
  144.4990   79.7339  223.4227 H   0  0  0  0  0  0  0  0  0  0  0  0
  143.2972   79.5696  221.2306 H   0  0  0  0  0  0  0  0  0  0  0  0
  139.8448   79.6224  219.2298 H   0  0  0  0  0  0  0  0  0  0  0  0
  141.0647   77.9458  218.8844 H   0  0  0  0  0  0  0  0  0  0  0  0
  142.3234   78.8594  219.8862 H   0  0  0  0  0  0  0  0  0  0  0  0
  141.7696   76.3340  220.3014 H   0  0  0  0  0  0  0  0  0  0  0  0
  142.1445   77.5414  221.6242 H   0  0  0  0  0  0  0  0  0  0  0  0
  141.7058   74.8686  221.6867 H   0  0  0  0  0  0  0  0  0  0  0  0
  139.5820   73.5280  223.0920 H   0  0  0  0  0  0  0  0  0  0  0  0
  140.5760   72.4110  222.1710 H   0  0  0  0  0  0  0  0  0  0  0  0
  141.3635   72.9051  220.2563 H   0  0  0  0  0  0  0  0  0  0  0  0
  139.7597   73.7386  219.8509 H   0  0  0  0  0  0  0  0  0  0  0  0
  139.4884   75.2774  218.4690 H   0  0  0  0  0  0  0  0  0  0  0  0
  140.2999   76.8768  216.8160 H   0  0  0  0  0  0  0  0  0  0  0  0
  142.7425   77.2673  216.4872 H   0  0  0  0  0  0  0  0  0  0  0  0
  144.3238   75.9684  217.9041 H   0  0  0  0  0  0  0  0  0  0  0  0
  143.3187   72.2341  218.7724 H   0  0  0  0  0  0  0  0  0  0  0  0
  145.1235   70.9728  219.9497 H   0  0  0  0  0  0  0  0  0  0  0  0
  146.6807   72.1905  221.4733 H   0  0  0  0  0  0  0  0  0  0  0  0
  146.4263   74.6595  221.8094 H   0  0  0  0  0  0  0  0  0  0  0  0
  144.6282   75.8631  220.6255 H   0  0  0  0  0  0  0  0  0  0  0  0
  138.2769   77.5268  222.0904 H   0  0  0  0  0  0  0  0  0  0  0  0
  139.6715   78.3608  222.9056 H   0  0  0  0  0  0  0  0  0  0  0  0
  138.3744   78.8272  220.3103 H   0  0  0  0  0  0  0  0  0  0  0  0
  139.0559   79.9497  221.6550 H   0  0  0  0  0  0  0  0  0  0  0  0
  1  2  1  0
  2  3  1  0
  3  4  2  0
  3  5  1  0
  5  6  1  0
  6  7  2  0
  7  8  1  0
  8  9  2  0
  9 10  1  0
 10 11  2  0
  5 12  1  0
 12 13  1  0
 13 14  1  0
 14 15  1  0
 15 16  1  0
 16 17  2  0
 16 18  1  0
 18 19  1  0
 18 20  1  0
 20 21  1  0
 21 22  2  0
 22 23  1  0
 23 24  2  0
 24 25  1  0
 25 26  2  0
 26 27  1  0
 27 28  2  0
 28 29  1  0
 29 30  2  0
 30 31  1  0
 31 32  2  0
 15 33  1  0
 33 34  1  0
 11  6  1  0
 34 12  1  0
 26 21  1  0
 32 27  1  0
  1 35  1  0
  1 36  1  0
  1 37  1  0
  2 38  1  0
  2 39  1  0
  7 40  1  0
  8 41  1  0
  9 42  1  0
 10 43  1  0
 11 44  1  0
 12 45  1  0
 13 46  1  0
 13 47  1  0
 14 48  1  0
 14 49  1  0
 18 50  1  1
 19 51  1  0
 19 52  1  0
 20 53  1  0
 20 54  1  0
 22 55  1  0
 23 56  1  0
 24 57  1  0
 25 58  1  0
 28 59  1  0
 29 60  1  0
 30 61  1  0
 31 62  1  0
 32 63  1  0
 33 64  1  0
 33 65  1  0
 34 66  1  0
 34 67  1  0
M  END
>  <smiles>  (13) 
CCC(=O)N(c1ccccc1)C1CCN(C(=O)[C@@H](N)Cc2ccccc2-c2ccccc2)CC1

>  <score_type>  (13) 
oracle

>  <origin>  (13) 
autodockgpu

>  <m_score__min__energy>  (13) 
-8.6899999999999995

>  <m_primary>  (13) 
energy

>  <rmsd>  (13) 
3.2597871864293677

>  <m_score__min__rmsd>  (13) 
3.2597871864293677

>  <meeko>  (13) 
{"free_energy": -7.37, "intermolecular_energy": -10.06, "internal_energy": -3.6, "cluster_size": 8, "cluster_id": 5, "rank_in_cluster": 2}

>  <energy>  (13) 
-7.78

>  <cluster_rmsd>  (13) 
0.75

>  <cluster>  (13) 
1

$$$$

     RDKit          3D

 67 70  0  0  0  0  0  0  0  0999 V2000
  146.9080   73.3820  222.0760 C   0  0  0  0  0  0  0  0  0  0  0  0
  145.5410   73.0980  221.5320 C   0  0  0  0  0  0  0  0  0  0  0  0
  145.5170   72.9270  220.0510 C   0  0  0  0  0  0  0  0  0  0  0  0
  146.5300   73.2460  219.3800 O   0  0  0  0  0  0  0  0  0  0  0  0
  144.3520   72.4080  219.4070 N   0  0  0  0  0  0  0  0  0  0  0  0
  144.2580   70.9820  219.3440 C   0  0  0  0  0  0  0  0  0  0  0  0
  145.3530   70.1610  219.2150 C   0  0  0  0  0  0  0  0  0  0  0  0
  145.1430   68.8010  219.1540 C   0  0  0  0  0  0  0  0  0  0  0  0
  143.8780   68.2380  219.2160 C   0  0  0  0  0  0  0  0  0  0  0  0
  142.7720   69.0700  219.3470 C   0  0  0  0  0  0  0  0  0  0  0  0
  142.9710   70.4530  219.4100 C   0  0  0  0  0  0  0  0  0  0  0  0
  143.3090   73.2780  218.8550 C   0  0  0  0  0  0  0  0  0  0  0  0
  142.8290   74.2370  219.8740 C   0  0  0  0  0  0  0  0  0  0  0  0
  143.2240   75.6770  219.6780 C   0  0  0  0  0  0  0  0  0  0  0  0
  143.3550   76.0660  218.2830 N   0  0  0  0  0  0  0  0  0  0  0  0
  142.9140   77.3910  217.8420 C   0  0  0  0  0  0  0  0  0  0  0  0
  142.9540   77.5460  216.6000 O   0  0  0  0  0  0  0  0  0  0  0  0
  142.4730   78.4210  218.7560 C   0  0  1  0  0  0  0  0  0  0  0  0
  142.8930   79.7510  218.2470 N   0  0  0  0  0  0  0  0  0  0  0  0
  141.0410   78.4470  219.1610 C   0  0  0  0  0  0  0  0  0  0  0  0
  140.6340   77.5030  220.1990 C   0  0  0  0  0  0  0  0  0  0  0  0
  140.0610   76.3020  219.7300 C   0  0  0  0  0  0  0  0  0  0  0  0
  139.7200   75.2750  220.5730 C   0  0  0  0  0  0  0  0  0  0  0  0
  139.9180   75.3610  221.9370 C   0  0  0  0  0  0  0  0  0  0  0  0
  140.4730   76.5290  222.4070 C   0  0  0  0  0  0  0  0  0  0  0  0
  140.8220   77.5830  221.5410 C   0  0  0  0  0  0  0  0  0  0  0  0
  141.2670   78.7900  222.2480 C   0  0  0  0  0  0  0  0  0  0  0  0
  142.5940   79.1120  222.4230 C   0  0  0  0  0  0  0  0  0  0  0  0
  142.9880   80.2500  223.1450 C   0  0  0  0  0  0  0  0  0  0  0  0
  142.0120   81.0730  223.6950 C   0  0  0  0  0  0  0  0  0  0  0  0
  140.6590   80.7670  223.5310 C   0  0  0  0  0  0  0  0  0  0  0  0
  140.3150   79.6400  222.8160 C   0  0  0  0  0  0  0  0  0  0  0  0
  143.9550   75.1910  217.3000 C   0  0  0  0  0  0  0  0  0  0  0  0
  143.5750   73.7900  217.4940 C   0  0  0  0  0  0  0  0  0  0  0  0
  146.8739   73.3749  223.1755 H   0  0  0  0  0  0  0  0  0  0  0  0
  147.6095   72.6104  221.7260 H   0  0  0  0  0  0  0  0  0  0  0  0
  147.2441   74.3692  221.7260 H   0  0  0  0  0  0  0  0  0  0  0  0
  145.1662   72.1737  221.9959 H   0  0  0  0  0  0  0  0  0  0  0  0
  144.9101   73.9674  221.7688 H   0  0  0  0  0  0  0  0  0  0  0  0
  146.3692   70.5787  219.1619 H   0  0  0  0  0  0  0  0  0  0  0  0
  146.0132   68.1359  219.0521 H   0  0  0  0  0  0  0  0  0  0  0  0
  143.7508   67.1467  219.1622 H   0  0  0  0  0  0  0  0  0  0  0  0
  141.7576   68.6478  219.4002 H   0  0  0  0  0  0  0  0  0  0  0  0
  142.1071   71.1262  219.5122 H   0  0  0  0  0  0  0  0  0  0  0  0
  142.4300   72.6559  218.6307 H   0  0  0  0  0  0  0  0  0  0  0  0
  141.7301   74.1902  219.8860 H   0  0  0  0  0  0  0  0  0  0  0  0
  143.3088   73.9281  220.8144 H   0  0  0  0  0  0  0  0  0  0  0  0
  142.4576   76.3133  220.1448 H   0  0  0  0  0  0  0  0  0  0  0  0
  144.2145   75.8027  220.1395 H   0  0  0  0  0  0  0  0  0  0  0  0
  142.9743   78.1519  219.6974 H   0  0  0  0  0  0  0  0  0  0  0  0
  143.3250   80.3290  218.9770 H   0  0  0  0  0  0  0  0  0  0  0  0
  143.3540   79.7000  217.3380 H   0  0  0  0  0  0  0  0  0  0  0  0
  140.8164   79.4602  219.5257 H   0  0  0  0  0  0  0  0  0  0  0  0
  140.4817   78.1466  218.2627 H   0  0  0  0  0  0  0  0  0  0  0  0
  139.8815   76.1852  218.6510 H   0  0  0  0  0  0  0  0  0  0  0  0
  139.2778   74.3600  220.1520 H   0  0  0  0  0  0  0  0  0  0  0  0
  139.6458   74.5374  222.6135 H   0  0  0  0  0  0  0  0  0  0  0  0
  140.6486   76.6423  223.4870 H   0  0  0  0  0  0  0  0  0  0  0  0
  143.3655   78.4610  221.9860 H   0  0  0  0  0  0  0  0  0  0  0  0
  144.0544   80.4870  223.2736 H   0  0  0  0  0  0  0  0  0  0  0  0
  142.3063   81.9687  224.2616 H   0  0  0  0  0  0  0  0  0  0  0  0
  139.8821   81.4138  223.9647 H   0  0  0  0  0  0  0  0  0  0  0  0
  139.2491   79.4005  222.6876 H   0  0  0  0  0  0  0  0  0  0  0  0
  143.6305   75.5097  216.2984 H   0  0  0  0  0  0  0  0  0  0  0  0
  145.0472   75.2608  217.4109 H   0  0  0  0  0  0  0  0  0  0  0  0
  142.6587   73.6255  216.9081 H   0  0  0  0  0  0  0  0  0  0  0  0
  144.4765   73.2388  217.1882 H   0  0  0  0  0  0  0  0  0  0  0  0
  1  2  1  0
  2  3  1  0
  3  4  2  0
  3  5  1  0
  5  6  1  0
  6  7  2  0
  7  8  1  0
  8  9  2  0
  9 10  1  0
 10 11  2  0
  5 12  1  0
 12 13  1  0
 13 14  1  0
 14 15  1  0
 15 16  1  0
 16 17  2  0
 16 18  1  0
 18 19  1  0
 18 20  1  0
 20 21  1  0
 21 22  2  0
 22 23  1  0
 23 24  2  0
 24 25  1  0
 25 26  2  0
 26 27  1  0
 27 28  2  0
 28 29  1  0
 29 30  2  0
 30 31  1  0
 31 32  2  0
 15 33  1  0
 33 34  1  0
 11  6  1  0
 34 12  1  0
 26 21  1  0
 32 27  1  0
  1 35  1  0
  1 36  1  0
  1 37  1  0
  2 38  1  0
  2 39  1  0
  7 40  1  0
  8 41  1  0
  9 42  1  0
 10 43  1  0
 11 44  1  0
 12 45  1  0
 13 46  1  0
 13 47  1  0
 14 48  1  0
 14 49  1  0
 18 50  1  1
 19 51  1  0
 19 52  1  0
 20 53  1  0
 20 54  1  0
 22 55  1  0
 23 56  1  0
 24 57  1  0
 25 58  1  0
 28 59  1  0
 29 60  1  0
 30 61  1  0
 31 62  1  0
 32 63  1  0
 33 64  1  0
 33 65  1  0
 34 66  1  0
 34 67  1  0
M  END
>  <smiles>  (14) 
CCC(=O)N(c1ccccc1)C1CCN(C(=O)[C@@H](N)Cc2ccccc2-c2ccccc2)CC1

>  <score_type>  (14) 
oracle

>  <origin>  (14) 
autodockgpu

>  <m_score__min__energy>  (14) 
-8.6899999999999995

>  <m_primary>  (14) 
energy

>  <rmsd>  (14) 
5.8650648680472015

>  <m_score__min__rmsd>  (14) 
5.8650648680472015

>  <meeko>  (14) 
{"free_energy": -8.06, "intermolecular_energy": -10.75, "internal_energy": -3.32, "cluster_size": 13, "cluster_id": 1, "rank_in_cluster": 10}

>  <energy>  (14) 
-8.33

>  <cluster_rmsd>  (14) 
0.0

>  <cluster>  (14) 
2

$$$$

     RDKit          3D

 67 70  0  0  0  0  0  0  0  0999 V2000
  146.6480   73.3420  221.7810 C   0  0  0  0  0  0  0  0  0  0  0  0
  145.7670   74.1470  220.8750 C   0  0  0  0  0  0  0  0  0  0  0  0
  145.4120   73.4390  219.6120 C   0  0  0  0  0  0  0  0  0  0  0  0
  146.3040   73.2350  218.7510 O   0  0  0  0  0  0  0  0  0  0  0  0
  144.0710   72.9990  219.3880 N   0  0  0  0  0  0  0  0  0  0  0  0
  143.8590   71.5860  219.4540 C   0  0  0  0  0  0  0  0  0  0  0  0
  142.6250   71.0190  219.6650 C   0  0  0  0  0  0  0  0  0  0  0  0
  142.5400   69.6450  219.7200 C   0  0  0  0  0  0  0  0  0  0  0  0
  143.6460   68.8230  219.5730 C   0  0  0  0  0  0  0  0  0  0  0  0
  144.8930   69.3980  219.3600 C   0  0  0  0  0  0  0  0  0  0  0  0
  144.9940   70.7920  219.3010 C   0  0  0  0  0  0  0  0  0  0  0  0
  142.9750   73.9350  219.1190 C   0  0  0  0  0  0  0  0  0  0  0  0
  142.9730   75.0410  220.1030 C   0  0  0  0  0  0  0  0  0  0  0  0
  143.3890   76.3940  219.5910 C   0  0  0  0  0  0  0  0  0  0  0  0
  143.0420   76.6270  218.1980 N   0  0  0  0  0  0  0  0  0  0  0  0
  142.5840   77.9480  217.7620 C   0  0  0  0  0  0  0  0  0  0  0  0
  142.1880   77.9760  216.5740 O   0  0  0  0  0  0  0  0  0  0  0  0
  142.5860   79.1080  218.6250 C   0  0  1  0  0  0  0  0  0  0  0  0
  142.9250   80.3170  217.8330 N   0  0  0  0  0  0  0  0  0  0  0  0
  141.3930   79.3630  219.4780 C   0  0  0  0  0  0  0  0  0  0  0  0
  141.5880   79.2760  220.9240 C   0  0  0  0  0  0  0  0  0  0  0  0
  142.2380   80.3820  221.5110 C   0  0  0  0  0  0  0  0  0  0  0  0
  142.4060   80.4970  222.8680 C   0  0  0  0  0  0  0  0  0  0  0  0
  141.9480   79.5290  223.7400 C   0  0  0  0  0  0  0  0  0  0  0  0
  141.3150   78.4440  223.1780 C   0  0  0  0  0  0  0  0  0  0  0  0
  141.1440   78.3260  221.7850 C   0  0  0  0  0  0  0  0  0  0  0  0
  140.5730   77.0360  221.3790 C   0  0  0  0  0  0  0  0  0  0  0  0
  139.9220   76.8460  220.1810 C   0  0  0  0  0  0  0  0  0  0  0  0
  139.3470   75.6120  219.8410 C   0  0  0  0  0  0  0  0  0  0  0  0
  139.4390   74.5540  220.7380 C   0  0  0  0  0  0  0  0  0  0  0  0
  140.0950   74.7220  221.9600 C   0  0  0  0  0  0  0  0  0  0  0  0
  140.6450   75.9500  222.2550 C   0  0  0  0  0  0  0  0  0  0  0  0
  143.1760   75.5940  217.1940 C   0  0  0  0  0  0  0  0  0  0  0  0
  142.7770   74.2760  217.6950 C   0  0  0  0  0  0  0  0  0  0  0  0
  146.4006   73.5680  222.8287 H   0  0  0  0  0  0  0  0  0  0  0  0
  146.4892   72.2705  221.5897 H   0  0  0  0  0  0  0  0  0  0  0  0
  147.7009   73.5965  221.5897 H   0  0  0  0  0  0  0  0  0  0  0  0
  144.8382   74.3858  221.4137 H   0  0  0  0  0  0  0  0  0  0  0  0
  146.3287   75.0501  220.5942 H   0  0  0  0  0  0  0  0  0  0  0  0
  141.7291   71.6455  219.7867 H   0  0  0  0  0  0  0  0  0  0  0  0
  141.5560   69.1825  219.8871 H   0  0  0  0  0  0  0  0  0  0  0  0
  143.5382   67.7295  219.6243 H   0  0  0  0  0  0  0  0  0  0  0  0
  145.7862   68.7673  219.2398 H   0  0  0  0  0  0  0  0  0  0  0  0
  145.9736   71.2635  219.1331 H   0  0  0  0  0  0  0  0  0  0  0  0
  142.0259   73.4086  219.2982 H   0  0  0  0  0  0  0  0  0  0  0  0
  141.9515   75.1333  220.5004 H   0  0  0  0  0  0  0  0  0  0  0  0
  143.7306   74.7667  220.8519 H   0  0  0  0  0  0  0  0  0  0  0  0
  142.8968   77.1632  220.2043 H   0  0  0  0  0  0  0  0  0  0  0  0
  144.4859   76.4389  219.6596 H   0  0  0  0  0  0  0  0  0  0  0  0
  143.3555   78.8624  219.3716 H   0  0  0  0  0  0  0  0  0  0  0  0
  143.0290   80.1110  216.8320 H   0  0  0  0  0  0  0  0  0  0  0  0
  142.3750   81.1340  218.1010 H   0  0  0  0  0  0  0  0  0  0  0  0
  141.0318   80.3769  219.2510 H   0  0  0  0  0  0  0  0  0  0  0  0
  140.6856   78.5570  219.2332 H   0  0  0  0  0  0  0  0  0  0  0  0
  142.6233   81.1794  220.8586 H   0  0  0  0  0  0  0  0  0  0  0  0
  142.9185   81.3827  223.2715 H   0  0  0  0  0  0  0  0  0  0  0  0
  142.0823   79.6205  224.8279 H   0  0  0  0  0  0  0  0  0  0  0  0
  140.9326   77.6480  223.8339 H   0  0  0  0  0  0  0  0  0  0  0  0
  139.8507   77.6836  219.4716 H   0  0  0  0  0  0  0  0  0  0  0  0
  138.8307   75.4836  218.8782 H   0  0  0  0  0  0  0  0  0  0  0  0
  138.9935   73.5807  220.4847 H   0  0  0  0  0  0  0  0  0  0  0  0
  140.1709   73.8885  222.6738 H   0  0  0  0  0  0  0  0  0  0  0  0
  141.1609   76.0806  223.2177 H   0  0  0  0  0  0  0  0  0  0  0  0
  142.5411   75.8524  216.3337 H   0  0  0  0  0  0  0  0  0  0  0  0
  144.2368   75.5382  216.9082 H   0  0  0  0  0  0  0  0  0  0  0  0
  141.7014   74.1709  217.4901 H   0  0  0  0  0  0  0  0  0  0  0  0
  143.4610   73.5901  217.1737 H   0  0  0  0  0  0  0  0  0  0  0  0
  1  2  1  0
  2  3  1  0
  3  4  2  0
  3  5  1  0
  5  6  1  0
  6  7  2  0
  7  8  1  0
  8  9  2  0
  9 10  1  0
 10 11  2  0
  5 12  1  0
 12 13  1  0
 13 14  1  0
 14 15  1  0
 15 16  1  0
 16 17  2  0
 16 18  1  0
 18 19  1  0
 18 20  1  0
 20 21  1  0
 21 22  2  0
 22 23  1  0
 23 24  2  0
 24 25  1  0
 25 26  2  0
 26 27  1  0
 27 28  2  0
 28 29  1  0
 29 30  2  0
 30 31  1  0
 31 32  2  0
 15 33  1  0
 33 34  1  0
 11  6  1  0
 34 12  1  0
 26 21  1  0
 32 27  1  0
  1 35  1  0
  1 36  1  0
  1 37  1  0
  2 38  1  0
  2 39  1  0
  7 40  1  0
  8 41  1  0
  9 42  1  0
 10 43  1  0
 11 44  1  0
 12 45  1  0
 13 46  1  0
 13 47  1  0
 14 48  1  0
 14 49  1  0
 18 50  1  1
 19 51  1  0
 19 52  1  0
 20 53  1  0
 20 54  1  0
 22 55  1  0
 23 56  1  0
 24 57  1  0
 25 58  1  0
 28 59  1  0
 29 60  1  0
 30 61  1  0
 31 62  1  0
 32 63  1  0
 33 64  1  0
 33 65  1  0
 34 66  1  0
 34 67  1  0
M  END
>  <smiles>  (15) 
CCC(=O)N(c1ccccc1)C1CCN(C(=O)[C@@H](N)Cc2ccccc2-c2ccccc2)CC1

>  <score_type>  (15) 
oracle

>  <origin>  (15) 
autodockgpu

>  <m_score__min__energy>  (15) 
-8.6899999999999995

>  <m_primary>  (15) 
energy

>  <rmsd>  (15) 
6.0899990792471925

>  <m_score__min__rmsd>  (15) 
6.0899990792471925

>  <meeko>  (15) 
{"free_energy": -7.91, "intermolecular_energy": -10.59, "internal_energy": -3.56, "cluster_size": 13, "cluster_id": 1, "rank_in_cluster": 11}

>  <energy>  (15) 
-8.22

>  <cluster_rmsd>  (15) 
1.39

>  <cluster>  (15) 
2

$$$$

     RDKit          3D

 67 70  0  0  0  0  0  0  0  0999 V2000
  135.9490   69.6790  224.7070 C   0  0  0  0  0  0  0  0  0  0  0  0
  136.5590   69.2480  223.4080 C   0  0  0  0  0  0  0  0  0  0  0  0
  138.0360   69.0560  223.4830 C   0  0  0  0  0  0  0  0  0  0  0  0
  138.4970   67.8950  223.6210 O   0  0  0  0  0  0  0  0  0  0  0  0
  138.9120   70.1810  223.3980 N   0  0  0  0  0  0  0  0  0  0  0  0
  139.6030   70.5240  224.6030 C   0  0  0  0  0  0  0  0  0  0  0  0
  140.5600   71.5080  224.6670 C   0  0  0  0  0  0  0  0  0  0  0  0
  141.1680   71.7470  225.8800 C   0  0  0  0  0  0  0  0  0  0  0  0
  140.8530   71.0340  227.0260 C   0  0  0  0  0  0  0  0  0  0  0  0
  139.8850   70.0380  226.9590 C   0  0  0  0  0  0  0  0  0  0  0  0
  139.2590   69.7860  225.7330 C   0  0  0  0  0  0  0  0  0  0  0  0
  139.1040   70.9320  222.1550 C   0  0  0  0  0  0  0  0  0  0  0  0
  138.6740   72.3390  222.3160 C   0  0  0  0  0  0  0  0  0  0  0  0
  139.7670   73.3740  222.3480 C   0  0  0  0  0  0  0  0  0  0  0  0
  140.9250   73.0310  221.5380 N   0  0  0  0  0  0  0  0  0  0  0  0
  141.6310   74.0680  220.7820 C   0  0  0  0  0  0  0  0  0  0  0  0
  142.5190   73.6180  220.0220 O   0  0  0  0  0  0  0  0  0  0  0  0
  141.3260   75.4760  220.9010 C   0  0  1  0  0  0  0  0  0  0  0  0
  142.4870   76.2760  220.4350 N   0  0  0  0  0  0  0  0  0  0  0  0
  140.0660   75.9850  220.2950 C   0  0  0  0  0  0  0  0  0  0  0  0
  139.0540   76.4970  221.2170 C   0  0  0  0  0  0  0  0  0  0  0  0
  137.8280   75.8010  221.2120 C   0  0  0  0  0  0  0  0  0  0  0  0
  136.8140   76.0950  222.0890 C   0  0  0  0  0  0  0  0  0  0  0  0
  136.9390   77.0990  223.0300 C   0  0  0  0  0  0  0  0  0  0  0  0
  138.1300   77.7880  223.0410 C   0  0  0  0  0  0  0  0  0  0  0  0
  139.1690   77.4850  222.1400 C   0  0  0  0  0  0  0  0  0  0  0  0
  140.2960   78.4220  222.2210 C   0  0  0  0  0  0  0  0  0  0  0  0
  140.6490   79.2640  221.1900 C   0  0  0  0  0  0  0  0  0  0  0  0
  141.7600   80.1160  221.2790 C   0  0  0  0  0  0  0  0  0  0  0  0
  142.5240   80.1090  222.4410 C   0  0  0  0  0  0  0  0  0  0  0  0
  142.1870   79.2640  223.5010 C   0  0  0  0  0  0  0  0  0  0  0  0
  141.0880   78.4430  223.3710 C   0  0  0  0  0  0  0  0  0  0  0  0
  141.4460   71.6820  221.4820 C   0  0  0  0  0  0  0  0  0  0  0  0
  140.3820   70.6750  221.4580 C   0  0  0  0  0  0  0  0  0  0  0  0
  136.5340   69.2657  225.5418 H   0  0  0  0  0  0  0  0  0  0  0  0
  135.9509   70.7774  224.7664 H   0  0  0  0  0  0  0  0  0  0  0  0
  134.9143   69.3103  224.7664 H   0  0  0  0  0  0  0  0  0  0  0  0
  136.0984   68.2961  223.1052 H   0  0  0  0  0  0  0  0  0  0  0  0
  136.3721   70.0503  222.6791 H   0  0  0  0  0  0  0  0  0  0  0  0
  140.8333   72.0892  223.7739 H   0  0  0  0  0  0  0  0  0  0  0  0
  141.9335   72.5346  225.9413 H   0  0  0  0  0  0  0  0  0  0  0  0
  141.3621   71.2532  227.9761 H   0  0  0  0  0  0  0  0  0  0  0  0
  139.6159   69.4582  227.8542 H   0  0  0  0  0  0  0  0  0  0  0  0
  138.4915   69.0012  225.6614 H   0  0  0  0  0  0  0  0  0  0  0  0
  138.4163   70.5219  221.4008 H   0  0  0  0  0  0  0  0  0  0  0  0
  138.0066   72.5830  221.4763 H   0  0  0  0  0  0  0  0  0  0  0  0
  138.1972   72.3871  223.3061 H   0  0  0  0  0  0  0  0  0  0  0  0
  139.3550   74.3248  221.9788 H   0  0  0  0  0  0  0  0  0  0  0  0
  140.1137   73.4412  223.3898 H   0  0  0  0  0  0  0  0  0  0  0  0
  141.1306   75.6007  221.9763 H   0  0  0  0  0  0  0  0  0  0  0  0
  142.6010   77.1450  220.9700 H   0  0  0  0  0  0  0  0  0  0  0  0
  143.3160   75.7070  220.2590 H   0  0  0  0  0  0  0  0  0  0  0  0
  140.3329   76.8005  219.6067 H   0  0  0  0  0  0  0  0  0  0  0  0
  139.6029   75.1108  219.8140 H   0  0  0  0  0  0  0  0  0  0  0  0
  137.6789   74.9940  220.4795 H   0  0  0  0  0  0  0  0  0  0  0  0
  135.8791   75.5173  222.0416 H   0  0  0  0  0  0  0  0  0  0  0  0
  136.1278   77.3354  223.7344 H   0  0  0  0  0  0  0  0  0  0  0  0
  138.2743   78.5966  223.7727 H   0  0  0  0  0  0  0  0  0  0  0  0
  140.0434   79.2686  220.2717 H   0  0  0  0  0  0  0  0  0  0  0  0
  142.0229   80.7797  220.4421 H   0  0  0  0  0  0  0  0  0  0  0  0
  143.3977   80.7719  222.5258 H   0  0  0  0  0  0  0  0  0  0  0  0
  142.7878   79.2542  224.4224 H   0  0  0  0  0  0  0  0  0  0  0  0
  140.8240   77.7777  224.2063 H   0  0  0  0  0  0  0  0  0  0  0  0
  142.0544   71.5754  220.5718 H   0  0  0  0  0  0  0  0  0  0  0  0
  142.0463   71.5154  222.3886 H   0  0  0  0  0  0  0  0  0  0  0  0
  140.1367   70.4977  220.4005 H   0  0  0  0  0  0  0  0  0  0  0  0
  140.8145   69.8373  222.0247 H   0  0  0  0  0  0  0  0  0  0  0  0
  1  2  1  0
  2  3  1  0
  3  4  2  0
  3  5  1  0
  5  6  1  0
  6  7  2  0
  7  8  1  0
  8  9  2  0
  9 10  1  0
 10 11  2  0
  5 12  1  0
 12 13  1  0
 13 14  1  0
 14 15  1  0
 15 16  1  0
 16 17  2  0
 16 18  1  0
 18 19  1  0
 18 20  1  0
 20 21  1  0
 21 22  2  0
 22 23  1  0
 23 24  2  0
 24 25  1  0
 25 26  2  0
 26 27  1  0
 27 28  2  0
 28 29  1  0
 29 30  2  0
 30 31  1  0
 31 32  2  0
 15 33  1  0
 33 34  1  0
 11  6  1  0
 34 12  1  0
 26 21  1  0
 32 27  1  0
  1 35  1  0
  1 36  1  0
  1 37  1  0
  2 38  1  0
  2 39  1  0
  7 40  1  0
  8 41  1  0
  9 42  1  0
 10 43  1  0
 11 44  1  0
 12 45  1  0
 13 46  1  0
 13 47  1  0
 14 48  1  0
 14 49  1  0
 18 50  1  1
 19 51  1  0
 19 52  1  0
 20 53  1  0
 20 54  1  0
 22 55  1  0
 23 56  1  0
 24 57  1  0
 25 58  1  0
 28 59  1  0
 29 60  1  0
 30 61  1  0
 31 62  1  0
 32 63  1  0
 33 64  1  0
 33 65  1  0
 34 66  1  0
 34 67  1  0
M  END
>  <smiles>  (16) 
CCC(=O)N(c1ccccc1)C1CCN(C(=O)[C@@H](N)Cc2ccccc2-c2ccccc2)CC1

>  <score_type>  (16) 
oracle

>  <origin>  (16) 
autodockgpu

>  <m_score__min__energy>  (16) 
-8.6899999999999995

>  <m_primary>  (16) 
energy

>  <rmsd>  (16) 
6.737346705393405

>  <m_score__min__rmsd>  (16) 
6.737346705393405

>  <meeko>  (16) 
{"free_energy": -7.43, "intermolecular_energy": -10.12, "internal_energy": -3.17, "cluster_size": 1, "cluster_id": 6, "rank_in_cluster": 1}

>  <energy>  (16) 
-8.15

>  <cluster_rmsd>  (16) 
1.43

>  <cluster>  (16) 
2

$$$$

     RDKit          3D

 67 70  0  0  0  0  0  0  0  0999 V2000
  138.8640   84.5060  221.5790 C   0  0  0  0  0  0  0  0  0  0  0  0
  137.4020   84.1920  221.6800 C   0  0  0  0  0  0  0  0  0  0  0  0
  137.0040   83.6520  223.0120 C   0  0  0  0  0  0  0  0  0  0  0  0
  136.4690   84.4190  223.8500 O   0  0  0  0  0  0  0  0  0  0  0  0
  137.2310   82.2770  223.3260 N   0  0  0  0  0  0  0  0  0  0  0  0
  136.5760   81.7890  224.5010 C   0  0  0  0  0  0  0  0  0  0  0  0
  135.4130   81.0580  224.4660 C   0  0  0  0  0  0  0  0  0  0  0  0
  134.8650   80.6490  225.6610 C   0  0  0  0  0  0  0  0  0  0  0  0
  135.4390   80.9480  226.8870 C   0  0  0  0  0  0  0  0  0  0  0  0
  136.6150   81.6880  226.9210 C   0  0  0  0  0  0  0  0  0  0  0  0
  137.1840   82.1090  225.7130 C   0  0  0  0  0  0  0  0  0  0  0  0
  138.0720   81.4120  222.4930 C   0  0  0  0  0  0  0  0  0  0  0  0
  139.0270   80.6460  223.3250 C   0  0  0  0  0  0  0  0  0  0  0  0
  138.7650   79.1690  223.4560 C   0  0  0  0  0  0  0  0  0  0  0  0
  138.1470   78.5740  222.2820 N   0  0  0  0  0  0  0  0  0  0  0  0
  138.5370   77.2330  221.8410 C   0  0  0  0  0  0  0  0  0  0  0  0
  138.0330   76.8980  220.7440 O   0  0  0  0  0  0  0  0  0  0  0  0
  139.4240   76.3800  222.6000 C   0  0  1  0  0  0  0  0  0  0  0  0
  139.1530   74.9590  222.2660 N   0  0  0  0  0  0  0  0  0  0  0  0
  140.8860   76.6550  222.5570 C   0  0  0  0  0  0  0  0  0  0  0  0
  141.4380   77.0770  221.2710 C   0  0  0  0  0  0  0  0  0  0  0  0
  141.5380   76.0620  220.2970 C   0  0  0  0  0  0  0  0  0  0  0  0
  141.9420   76.3190  219.0110 C   0  0  0  0  0  0  0  0  0  0  0  0
  142.2770   77.5930  218.5970 C   0  0  0  0  0  0  0  0  0  0  0  0
  142.1860   78.5900  219.5400 C   0  0  0  0  0  0  0  0  0  0  0  0
  141.7730   78.3260  220.8610 C   0  0  0  0  0  0  0  0  0  0  0  0
  141.8770   79.4930  221.7450 C   0  0  0  0  0  0  0  0  0  0  0  0
  141.5540   80.7700  221.3450 C   0  0  0  0  0  0  0  0  0  0  0  0
  141.7090   81.8730  222.1990 C   0  0  0  0  0  0  0  0  0  0  0  0
  142.2000   81.6680  223.4830 C   0  0  0  0  0  0  0  0  0  0  0  0
  142.5350   80.3820  223.9130 C   0  0  0  0  0  0  0  0  0  0  0  0
  142.3680   79.3270  223.0420 C   0  0  0  0  0  0  0  0  0  0  0  0
  137.1070   79.2530  221.5410 C   0  0  0  0  0  0  0  0  0  0  0  0
  137.3590   80.6920  221.4180 C   0  0  0  0  0  0  0  0  0  0  0  0
  139.2900   84.5975  222.5890 H   0  0  0  0  0  0  0  0  0  0  0  0
  139.3761   83.6974  221.0369 H   0  0  0  0  0  0  0  0  0  0  0  0
  138.9989   85.4536  221.0369 H   0  0  0  0  0  0  0  0  0  0  0  0
  136.8332   85.1149  221.4935 H   0  0  0  0  0  0  0  0  0  0  0  0
  137.1845   83.4126  220.9349 H   0  0  0  0  0  0  0  0  0  0  0  0
  134.9327   80.8063  223.5089 H   0  0  0  0  0  0  0  0  0  0  0  0
  133.9350   80.0618  225.6422 H   0  0  0  0  0  0  0  0  0  0  0  0
  134.9699   80.6041  227.8206 H   0  0  0  0  0  0  0  0  0  0  0  0
  137.0906   81.9386  227.8807 H   0  0  0  0  0  0  0  0  0  0  0  0
  138.1150   82.6949  225.7209 H   0  0  0  0  0  0  0  0  0  0  0  0
  138.7095   82.0553  221.8687 H   0  0  0  0  0  0  0  0  0  0  0  0
  140.0281   80.7708  222.8865 H   0  0  0  0  0  0  0  0  0  0  0  0
  138.9213   81.0531  224.3414 H   0  0  0  0  0  0  0  0  0  0  0  0
  139.7241   78.6618  223.6371 H   0  0  0  0  0  0  0  0  0  0  0  0
  138.0569   79.0428  224.2882 H   0  0  0  0  0  0  0  0  0  0  0  0
  139.1744   76.6242  223.6431 H   0  0  0  0  0  0  0  0  0  0  0  0
  138.8890   74.4080  223.0910 H   0  0  0  0  0  0  0  0  0  0  0  0
  138.5960   74.8500  221.4170 H   0  0  0  0  0  0  0  0  0  0  0  0
  141.0970   77.4502  223.2872 H   0  0  0  0  0  0  0  0  0  0  0  0
  141.3677   75.6905  222.7753 H   0  0  0  0  0  0  0  0  0  0  0  0
  141.2835   75.0293  220.5777 H   0  0  0  0  0  0  0  0  0  0  0  0
  142.0005   75.4889  218.2916 H   0  0  0  0  0  0  0  0  0  0  0  0
  142.6000   77.7998  217.5660 H   0  0  0  0  0  0  0  0  0  0  0  0
  142.4425   79.6211  219.2553 H   0  0  0  0  0  0  0  0  0  0  0  0
  141.1640   80.9302  220.3290 H   0  0  0  0  0  0  0  0  0  0  0  0
  141.4457   82.8848  221.8571 H   0  0  0  0  0  0  0  0  0  0  0  0
  142.3254   82.5228  224.1639 H   0  0  0  0  0  0  0  0  0  0  0  0
  142.9249   80.2144  224.9278 H   0  0  0  0  0  0  0  0  0  0  0  0
  142.6317   78.3145  223.3816 H   0  0  0  0  0  0  0  0  0  0  0  0
  137.0489   78.8168  220.5329 H   0  0  0  0  0  0  0  0  0  0  0  0
  136.1631   79.1229  222.0906 H   0  0  0  0  0  0  0  0  0  0  0  0
  137.9449   80.8342  220.4979 H   0  0  0  0  0  0  0  0  0  0  0  0
  136.3498   81.1286  221.4477 H   0  0  0  0  0  0  0  0  0  0  0  0
  1  2  1  0
  2  3  1  0
  3  4  2  0
  3  5  1  0
  5  6  1  0
  6  7  2  0
  7  8  1  0
  8  9  2  0
  9 10  1  0
 10 11  2  0
  5 12  1  0
 12 13  1  0
 13 14  1  0
 14 15  1  0
 15 16  1  0
 16 17  2  0
 16 18  1  0
 18 19  1  0
 18 20  1  0
 20 21  1  0
 21 22  2  0
 22 23  1  0
 23 24  2  0
 24 25  1  0
 25 26  2  0
 26 27  1  0
 27 28  2  0
 28 29  1  0
 29 30  2  0
 30 31  1  0
 31 32  2  0
 15 33  1  0
 33 34  1  0
 11  6  1  0
 34 12  1  0
 26 21  1  0
 32 27  1  0
  1 35  1  0
  1 36  1  0
  1 37  1  0
  2 38  1  0
  2 39  1  0
  7 40  1  0
  8 41  1  0
  9 42  1  0
 10 43  1  0
 11 44  1  0
 12 45  1  0
 13 46  1  0
 13 47  1  0
 14 48  1  0
 14 49  1  0
 18 50  1  1
 19 51  1  0
 19 52  1  0
 20 53  1  0
 20 54  1  0
 22 55  1  0
 23 56  1  0
 24 57  1  0
 25 58  1  0
 28 59  1  0
 29 60  1  0
 30 61  1  0
 31 62  1  0
 32 63  1  0
 33 64  1  0
 33 65  1  0
 34 66  1  0
 34 67  1  0
M  END
>  <smiles>  (17) 
CCC(=O)N(c1ccccc1)C1CCN(C(=O)[C@@H](N)Cc2ccccc2-c2ccccc2)CC1

>  <score_type>  (17) 
oracle

>  <origin>  (17) 
autodockgpu

>  <m_score__min__energy>  (17) 
-8.6899999999999995

>  <m_primary>  (17) 
energy

>  <rmsd>  (17) 
3.8345961047828543

>  <m_score__min__rmsd>  (17) 
3.8345961047828543

>  <meeko>  (17) 
{"free_energy": -6.74, "intermolecular_energy": -9.42, "internal_energy": -4.09, "cluster_size": 6, "cluster_id": 7, "rank_in_cluster": 1}

>  <energy>  (17) 
-8.15

>  <cluster_rmsd>  (17) 
1.39

>  <cluster>  (17) 
2

$$$$

     RDKit          3D

 67 70  0  0  0  0  0  0  0  0999 V2000
  146.1540   73.1110  221.8360 C   0  0  0  0  0  0  0  0  0  0  0  0
  146.5600   73.7700  220.5530 C   0  0  0  0  0  0  0  0  0  0  0  0
  145.8020   73.2780  219.3680 C   0  0  0  0  0  0  0  0  0  0  0  0
  146.3260   73.3550  218.2280 O   0  0  0  0  0  0  0  0  0  0  0  0
  144.4940   72.7260  219.5300 N   0  0  0  0  0  0  0  0  0  0  0  0
  144.4130   71.2980  219.5070 C   0  0  0  0  0  0  0  0  0  0  0  0
  143.2580   70.6050  219.7820 C   0  0  0  0  0  0  0  0  0  0  0  0
  143.2990   69.2290  219.7390 C   0  0  0  0  0  0  0  0  0  0  0  0
  144.4530   68.5260  219.4350 C   0  0  0  0  0  0  0  0  0  0  0  0
  145.6210   69.2280  219.1580 C   0  0  0  0  0  0  0  0  0  0  0  0
  145.5940   70.6260  219.1970 C   0  0  0  0  0  0  0  0  0  0  0  0
  143.3090   73.5660  219.7220 C   0  0  0  0  0  0  0  0  0  0  0  0
  143.6480   74.7940  220.4760 C   0  0  0  0  0  0  0  0  0  0  0  0
  143.6360   76.0830  219.6980 C   0  0  0  0  0  0  0  0  0  0  0  0
  142.6610   76.1090  218.6200 N   0  0  0  0  0  0  0  0  0  0  0  0
  141.9180   77.3370  218.3260 C   0  0  0  0  0  0  0  0  0  0  0  0
  141.0160   77.1860  217.4700 O   0  0  0  0  0  0  0  0  0  0  0  0
  142.2000   78.6020  218.9670 C   0  0  1  0  0  0  0  0  0  0  0  0
  142.6060   79.5980  217.9440 N   0  0  0  0  0  0  0  0  0  0  0  0
  141.1770   79.1810  219.8800 C   0  0  0  0  0  0  0  0  0  0  0  0
  141.5410   79.2870  221.2920 C   0  0  0  0  0  0  0  0  0  0  0  0
  142.3240   80.4110  221.6290 C   0  0  0  0  0  0  0  0  0  0  0  0
  142.6620   80.7050  222.9260 C   0  0  0  0  0  0  0  0  0  0  0  0
  142.2550   79.9100  223.9790 C   0  0  0  0  0  0  0  0  0  0  0  0
  141.4930   78.8090  223.6620 C   0  0  0  0  0  0  0  0  0  0  0  0
  141.1470   78.5070  222.3300 C   0  0  0  0  0  0  0  0  0  0  0  0
  140.4540   77.2210  222.1900 C   0  0  0  0  0  0  0  0  0  0  0  0
  141.0900   76.0630  221.8020 C   0  0  0  0  0  0  0  0  0  0  0  0
  140.3910   74.8580  221.6310 C   0  0  0  0  0  0  0  0  0  0  0  0
  139.0200   74.8340  221.8630 C   0  0  0  0  0  0  0  0  0  0  0  0
  138.3530   75.9960  222.2570 C   0  0  0  0  0  0  0  0  0  0  0  0
  139.0770   77.1580  222.4110 C   0  0  0  0  0  0  0  0  0  0  0  0
  142.4200   74.9570  217.7790 C   0  0  0  0  0  0  0  0  0  0  0  0
  142.4380   73.7020  218.5360 C   0  0  0  0  0  0  0  0  0  0  0  0
  146.5204   73.7058  222.6857 H   0  0  0  0  0  0  0  0  0  0  0  0
  145.0571   73.0428  221.8821 H   0  0  0  0  0  0  0  0  0  0  0  0
  146.5864   72.1006  221.8821 H   0  0  0  0  0  0  0  0  0  0  0  0
  146.3921   74.8528  220.6491 H   0  0  0  0  0  0  0  0  0  0  0  0
  147.6193   73.5263  220.3843 H   0  0  0  0  0  0  0  0  0  0  0  0
  142.3265   71.1350  220.0296 H   0  0  0  0  0  0  0  0  0  0  0  0
  142.3789   68.6661  219.9546 H   0  0  0  0  0  0  0  0  0  0  0  0
  144.4457   67.4262  219.4129 H   0  0  0  0  0  0  0  0  0  0  0  0
  146.5503   68.6931  218.9124 H   0  0  0  0  0  0  0  0  0  0  0  0
  146.5089   71.1975  218.9821 H   0  0  0  0  0  0  0  0  0  0  0  0
  142.6131   73.0255  220.3805 H   0  0  0  0  0  0  0  0  0  0  0  0
  142.9236   74.8926  221.2979 H   0  0  0  0  0  0  0  0  0  0  0  0
  144.6903   74.6588  220.8006 H   0  0  0  0  0  0  0  0  0  0  0  0
  143.4073   76.9050  220.3923 H   0  0  0  0  0  0  0  0  0  0  0  0
  144.6283   76.1867  219.2348 H   0  0  0  0  0  0  0  0  0  0  0  0
  143.0155   78.3540  219.6623 H   0  0  0  0  0  0  0  0  0  0  0  0
  143.4870   79.3450  217.4810 H   0  0  0  0  0  0  0  0  0  0  0  0
  141.8270   79.9070  217.3600 H   0  0  0  0  0  0  0  0  0  0  0  0
  140.9433   80.1935  219.5192 H   0  0  0  0  0  0  0  0  0  0  0  0
  140.3327   78.4765  219.8515 H   0  0  0  0  0  0  0  0  0  0  0  0
  142.6755   81.0742  220.8249 H   0  0  0  0  0  0  0  0  0  0  0  0
  143.2726   81.5965  223.1320 H   0  0  0  0  0  0  0  0  0  0  0  0
  142.5262   80.1450  225.0188 H   0  0  0  0  0  0  0  0  0  0  0  0
  141.1450   78.1477  224.4692 H   0  0  0  0  0  0  0  0  0  0  0  0
  142.1749   76.0829  221.6212 H   0  0  0  0  0  0  0  0  0  0  0  0
  140.9200   73.9457  221.3180 H   0  0  0  0  0  0  0  0  0  0  0  0
  138.4590   73.8964  221.7357 H   0  0  0  0  0  0  0  0  0  0  0  0
  137.2686   75.9837  222.4412 H   0  0  0  0  0  0  0  0  0  0  0  0
  138.5492   78.0722  222.7203 H   0  0  0  0  0  0  0  0  0  0  0  0
  141.4355   75.0677  217.3011 H   0  0  0  0  0  0  0  0  0  0  0  0
  143.2263   74.9111  217.0322 H   0  0  0  0  0  0  0  0  0  0  0  0
  141.4077   73.5220  218.8766 H   0  0  0  0  0  0  0  0  0  0  0  0
  142.8683   72.9833  217.8230 H   0  0  0  0  0  0  0  0  0  0  0  0
  1  2  1  0
  2  3  1  0
  3  4  2  0
  3  5  1  0
  5  6  1  0
  6  7  2  0
  7  8  1  0
  8  9  2  0
  9 10  1  0
 10 11  2  0
  5 12  1  0
 12 13  1  0
 13 14  1  0
 14 15  1  0
 15 16  1  0
 16 17  2  0
 16 18  1  0
 18 19  1  0
 18 20  1  0
 20 21  1  0
 21 22  2  0
 22 23  1  0
 23 24  2  0
 24 25  1  0
 25 26  2  0
 26 27  1  0
 27 28  2  0
 28 29  1  0
 29 30  2  0
 30 31  1  0
 31 32  2  0
 15 33  1  0
 33 34  1  0
 11  6  1  0
 34 12  1  0
 26 21  1  0
 32 27  1  0
  1 35  1  0
  1 36  1  0
  1 37  1  0
  2 38  1  0
  2 39  1  0
  7 40  1  0
  8 41  1  0
  9 42  1  0
 10 43  1  0
 11 44  1  0
 12 45  1  0
 13 46  1  0
 13 47  1  0
 14 48  1  0
 14 49  1  0
 18 50  1  1
 19 51  1  0
 19 52  1  0
 20 53  1  0
 20 54  1  0
 22 55  1  0
 23 56  1  0
 24 57  1  0
 25 58  1  0
 28 59  1  0
 29 60  1  0
 30 61  1  0
 31 62  1  0
 32 63  1  0
 33 64  1  0
 33 65  1  0
 34 66  1  0
 34 67  1  0
M  END
>  <smiles>  (18) 
CCC(=O)N(c1ccccc1)C1CCN(C(=O)[C@@H](N)Cc2ccccc2-c2ccccc2)CC1

>  <score_type>  (18) 
oracle

>  <origin>  (18) 
autodockgpu

>  <m_score__min__energy>  (18) 
-8.6899999999999995

>  <m_primary>  (18) 
energy

>  <rmsd>  (18) 
6.08283423119738

>  <m_score__min__rmsd>  (18) 
6.08283423119738

>  <meeko>  (18) 
{"free_energy": -8.55, "intermolecular_energy": -11.23, "internal_energy": -3.0, "cluster_size": 13, "cluster_id": 1, "rank_in_cluster": 3}

>  <energy>  (18) 
-8.12

>  <cluster_rmsd>  (18) 
0.27

>  <cluster>  (18) 
2

$$$$

     RDKit          3D

 67 70  0  0  0  0  0  0  0  0999 V2000
  137.9740   84.4270  221.9300 C   0  0  0  0  0  0  0  0  0  0  0  0
  136.4810   84.3900  222.0410 C   0  0  0  0  0  0  0  0  0  0  0  0
  135.9250   83.0080  222.1020 C   0  0  0  0  0  0  0  0  0  0  0  0
  134.7920   82.7800  221.6110 O   0  0  0  0  0  0  0  0  0  0  0  0
  136.6770   81.9580  222.7130 N   0  0  0  0  0  0  0  0  0  0  0  0
  136.4600   81.7710  224.1150 C   0  0  0  0  0  0  0  0  0  0  0  0
  137.2890   82.2920  225.0800 C   0  0  0  0  0  0  0  0  0  0  0  0
  136.9880   82.0390  226.4010 C   0  0  0  0  0  0  0  0  0  0  0  0
  135.8910   81.2850  226.7860 C   0  0  0  0  0  0  0  0  0  0  0  0
  135.0550   80.7590  225.8080 C   0  0  0  0  0  0  0  0  0  0  0  0
  135.3480   81.0070  224.4620 C   0  0  0  0  0  0  0  0  0  0  0  0
  137.6040   81.1140  221.9540 C   0  0  0  0  0  0  0  0  0  0  0  0
  138.6330   80.5280  222.8420 C   0  0  0  0  0  0  0  0  0  0  0  0
  138.5260   79.0490  223.1070 C   0  0  0  0  0  0  0  0  0  0  0  0
  137.9740   78.2920  221.9950 N   0  0  0  0  0  0  0  0  0  0  0  0
  138.5020   76.9650  221.6710 C   0  0  0  0  0  0  0  0  0  0  0  0
  138.0360   76.4830  220.6130 O   0  0  0  0  0  0  0  0  0  0  0  0
  139.4720   76.2790  222.4960 C   0  0  1  0  0  0  0  0  0  0  0  0
  139.3980   74.8190  222.2390 N   0  0  0  0  0  0  0  0  0  0  0  0
  140.8860   76.7420  222.4670 C   0  0  0  0  0  0  0  0  0  0  0  0
  141.3720   77.2900  221.2020 C   0  0  0  0  0  0  0  0  0  0  0  0
  141.4340   76.3720  220.1330 C   0  0  0  0  0  0  0  0  0  0  0  0
  141.7740   76.7530  218.8590 C   0  0  0  0  0  0  0  0  0  0  0  0
  142.0780   78.0650  218.5520 C   0  0  0  0  0  0  0  0  0  0  0  0
  142.0240   78.9680  219.5880 C   0  0  0  0  0  0  0  0  0  0  0  0
  141.6760   78.5760  220.8960 C   0  0  0  0  0  0  0  0  0  0  0  0
  141.8120   79.6570  221.8800 C   0  0  0  0  0  0  0  0  0  0  0  0
  141.4490   80.9590  221.6210 C   0  0  0  0  0  0  0  0  0  0  0  0
  141.6350   81.9790  222.5660 C   0  0  0  0  0  0  0  0  0  0  0  0
  142.1990   81.6640  223.7970 C   0  0  0  0  0  0  0  0  0  0  0  0
  142.5760   80.3510  224.0840 C   0  0  0  0  0  0  0  0  0  0  0  0
  142.3770   79.3790  223.1270 C   0  0  0  0  0  0  0  0  0  0  0  0
  136.8700   78.7910  221.2040 C   0  0  0  0  0  0  0  0  0  0  0  0
  136.9710   80.2310  220.9520 C   0  0  0  0  0  0  0  0  0  0  0  0
  138.4164   84.4380  222.9371 H   0  0  0  0  0  0  0  0  0  0  0  0
  138.3234   83.5372  221.3857 H   0  0  0  0  0  0  0  0  0  0  0  0
  138.2789   85.3330  221.3857 H   0  0  0  0  0  0  0  0  0  0  0  0
  136.1862   84.9250  222.9558 H   0  0  0  0  0  0  0  0  0  0  0  0
  136.0765   84.8626  221.1338 H   0  0  0  0  0  0  0  0  0  0  0  0
  138.1679   82.8939  224.8056 H   0  0  0  0  0  0  0  0  0  0  0  0
  137.6448   82.4521  227.1807 H   0  0  0  0  0  0  0  0  0  0  0  0
  135.6845   81.1051  227.8514 H   0  0  0  0  0  0  0  0  0  0  0  0
  134.1773   80.1576  226.0873 H   0  0  0  0  0  0  0  0  0  0  0  0
  134.6977   80.5971  223.6752 H   0  0  0  0  0  0  0  0  0  0  0  0
  138.1720   81.7624  221.2707 H   0  0  0  0  0  0  0  0  0  0  0  0
  139.6157   80.7158  222.3848 H   0  0  0  0  0  0  0  0  0  0  0  0
  138.4850   81.0112  223.8190 H   0  0  0  0  0  0  0  0  0  0  0  0
  139.5324   78.6619  223.3244 H   0  0  0  0  0  0  0  0  0  0  0  0
  137.8350   78.9244  223.9538 H   0  0  0  0  0  0  0  0  0  0  0  0
  139.1643   76.5446  223.5182 H   0  0  0  0  0  0  0  0  0  0  0  0
  139.1850   74.2830  223.0890 H   0  0  0  0  0  0  0  0  0  0  0  0
  138.8860   74.5910  221.3860 H   0  0  0  0  0  0  0  0  0  0  0  0
  140.9965   77.5236  223.2331 H   0  0  0  0  0  0  0  0  0  0  0  0
  141.4893   75.8389  222.6413 H   0  0  0  0  0  0  0  0  0  0  0  0
  141.2019   75.3144  220.3270 H   0  0  0  0  0  0  0  0  0  0  0  0
  141.8052   75.9947  218.0627 H   0  0  0  0  0  0  0  0  0  0  0  0
  142.3494   78.3719  217.5311 H   0  0  0  0  0  0  0  0  0  0  0  0
  142.2587   80.0243  219.3903 H   0  0  0  0  0  0  0  0  0  0  0  0
  141.0012   81.2064  220.6472 H   0  0  0  0  0  0  0  0  0  0  0  0
  141.3388   83.0132  222.3363 H   0  0  0  0  0  0  0  0  0  0  0  0
  142.3489   82.4532  224.5484 H   0  0  0  0  0  0  0  0  0  0  0  0
  143.0237   80.0966  225.0560 H   0  0  0  0  0  0  0  0  0  0  0  0
  142.6746   78.3446  223.3540 H   0  0  0  0  0  0  0  0  0  0  0  0
  136.8595   78.2631  220.2390 H   0  0  0  0  0  0  0  0  0  0  0  0
  135.9437   78.6131  221.7700 H   0  0  0  0  0  0  0  0  0  0  0  0
  137.5402   80.3508  220.0184 H   0  0  0  0  0  0  0  0  0  0  0  0
  135.9218   80.5616  220.9505 H   0  0  0  0  0  0  0  0  0  0  0  0
  1  2  1  0
  2  3  1  0
  3  4  2  0
  3  5  1  0
  5  6  1  0
  6  7  2  0
  7  8  1  0
  8  9  2  0
  9 10  1  0
 10 11  2  0
  5 12  1  0
 12 13  1  0
 13 14  1  0
 14 15  1  0
 15 16  1  0
 16 17  2  0
 16 18  1  0
 18 19  1  0
 18 20  1  0
 20 21  1  0
 21 22  2  0
 22 23  1  0
 23 24  2  0
 24 25  1  0
 25 26  2  0
 26 27  1  0
 27 28  2  0
 28 29  1  0
 29 30  2  0
 30 31  1  0
 31 32  2  0
 15 33  1  0
 33 34  1  0
 11  6  1  0
 34 12  1  0
 26 21  1  0
 32 27  1  0
  1 35  1  0
  1 36  1  0
  1 37  1  0
  2 38  1  0
  2 39  1  0
  7 40  1  0
  8 41  1  0
  9 42  1  0
 10 43  1  0
 11 44  1  0
 12 45  1  0
 13 46  1  0
 13 47  1  0
 14 48  1  0
 14 49  1  0
 18 50  1  1
 19 51  1  0
 19 52  1  0
 20 53  1  0
 20 54  1  0
 22 55  1  0
 23 56  1  0
 24 57  1  0
 25 58  1  0
 28 59  1  0
 29 60  1  0
 30 61  1  0
 31 62  1  0
 32 63  1  0
 33 64  1  0
 33 65  1  0
 34 66  1  0
 34 67  1  0
M  END
>  <smiles>  (19) 
CCC(=O)N(c1ccccc1)C1CCN(C(=O)[C@@H](N)Cc2ccccc2-c2ccccc2)CC1

>  <score_type>  (19) 
oracle

>  <origin>  (19) 
autodockgpu

>  <m_score__min__energy>  (19) 
-8.6899999999999995

>  <m_primary>  (19) 
energy

>  <rmsd>  (19) 
3.862447229687676

>  <m_score__min__rmsd>  (19) 
3.862447229687676

>  <meeko>  (19) 
{"free_energy": -6.5, "intermolecular_energy": -9.18, "internal_energy": -4.02, "cluster_size": 6, "cluster_id": 7, "rank_in_cluster": 6}

>  <energy>  (19) 
-8.08

>  <cluster_rmsd>  (19) 
1.41

>  <cluster>  (19) 
2

$$$$

     RDKit          3D

 67 70  0  0  0  0  0  0  0  0999 V2000
  138.8580   84.6180  221.5920 C   0  0  0  0  0  0  0  0  0  0  0  0
  137.4160   84.2240  221.6850 C   0  0  0  0  0  0  0  0  0  0  0  0
  137.0290   83.7050  223.0280 C   0  0  0  0  0  0  0  0  0  0  0  0
  136.4790   84.4800  223.8500 O   0  0  0  0  0  0  0  0  0  0  0  0
  137.2840   82.3430  223.3730 N   0  0  0  0  0  0  0  0  0  0  0  0
  136.6850   81.8850  224.5890 C   0  0  0  0  0  0  0  0  0  0  0  0
  137.2380   82.1020  225.8290 C   0  0  0  0  0  0  0  0  0  0  0  0
  136.5780   81.6060  226.9310 C   0  0  0  0  0  0  0  0  0  0  0  0
  135.3880   80.9020  226.8350 C   0  0  0  0  0  0  0  0  0  0  0  0
  134.8310   80.6830  225.5800 C   0  0  0  0  0  0  0  0  0  0  0  0
  135.4900   81.1810  224.4510 C   0  0  0  0  0  0  0  0  0  0  0  0
  138.0970   81.4610  222.5310 C   0  0  0  0  0  0  0  0  0  0  0  0
  139.0410   80.6700  223.3520 C   0  0  0  0  0  0  0  0  0  0  0  0
  138.7460   79.1990  223.4810 C   0  0  0  0  0  0  0  0  0  0  0  0
  138.1040   78.6230  222.3100 N   0  0  0  0  0  0  0  0  0  0  0  0
  138.4590   77.2750  221.8610 C   0  0  0  0  0  0  0  0  0  0  0  0
  137.9380   76.9560  220.7670 O   0  0  0  0  0  0  0  0  0  0  0  0
  139.3320   76.3990  222.6100 C   0  0  1  0  0  0  0  0  0  0  0  0
  139.0560   74.9880  222.2390 N   0  0  0  0  0  0  0  0  0  0  0  0
  140.7960   76.6660  222.5910 C   0  0  0  0  0  0  0  0  0  0  0  0
  141.3760   77.0580  221.3090 C   0  0  0  0  0  0  0  0  0  0  0  0
  141.4680   76.0290  220.3490 C   0  0  0  0  0  0  0  0  0  0  0  0
  141.8970   76.2590  219.0670 C   0  0  0  0  0  0  0  0  0  0  0  0
  142.2660   77.5210  218.6420 C   0  0  0  0  0  0  0  0  0  0  0  0
  142.1830   78.5320  219.5700 C   0  0  0  0  0  0  0  0  0  0  0  0
  141.7440   78.2950  220.8870 C   0  0  0  0  0  0  0  0  0  0  0  0
  141.8600   79.4710  221.7570 C   0  0  0  0  0  0  0  0  0  0  0  0
  141.5600   80.7480  221.3390 C   0  0  0  0  0  0  0  0  0  0  0  0
  141.7260   81.8590  222.1800 C   0  0  0  0  0  0  0  0  0  0  0  0
  142.2050   81.6630  223.4710 C   0  0  0  0  0  0  0  0  0  0  0  0
  142.5170   80.3770  223.9180 C   0  0  0  0  0  0  0  0  0  0  0  0
  142.3410   79.3140  223.0590 C   0  0  0  0  0  0  0  0  0  0  0  0
  137.0740   79.3290  221.5790 C   0  0  0  0  0  0  0  0  0  0  0  0
  137.3590   80.7620  221.4590 C   0  0  0  0  0  0  0  0  0  0  0  0
  139.2731   84.7314  222.6043 H   0  0  0  0  0  0  0  0  0  0  0  0
  139.4167   83.8396  221.0517 H   0  0  0  0  0  0  0  0  0  0  0  0
  138.9432   85.5724  221.0517 H   0  0  0  0  0  0  0  0  0  0  0  0
  136.7984   85.1063  221.4610 H   0  0  0  0  0  0  0  0  0  0  0  0
  137.2549   83.4094  220.9635 H   0  0  0  0  0  0  0  0  0  0  0  0
  138.1817   82.6566  225.9377 H   0  0  0  0  0  0  0  0  0  0  0  0
  137.0125   81.7753  227.9273 H   0  0  0  0  0  0  0  0  0  0  0  0
  134.8909   80.5216  227.7395 H   0  0  0  0  0  0  0  0  0  0  0  0
  133.8874   80.1272  225.4766 H   0  0  0  0  0  0  0  0  0  0  0  0
  135.0635   81.0164  223.4505 H   0  0  0  0  0  0  0  0  0  0  0  0
  138.7443   82.0916  221.9038 H   0  0  0  0  0  0  0  0  0  0  0  0
  140.0408   80.7729  222.9049 H   0  0  0  0  0  0  0  0  0  0  0  0
  138.9535   81.0760  224.3706 H   0  0  0  0  0  0  0  0  0  0  0  0
  139.6946   78.6690  223.6521 H   0  0  0  0  0  0  0  0  0  0  0  0
  138.0428   79.0861  224.3193 H   0  0  0  0  0  0  0  0  0  0  0  0
  139.0721   76.6200  223.6558 H   0  0  0  0  0  0  0  0  0  0  0  0
  138.8430   74.4040  223.0560 H   0  0  0  0  0  0  0  0  0  0  0  0
  138.4570   74.9040  221.4170 H   0  0  0  0  0  0  0  0  0  0  0  0
  140.9963   77.4753  223.3086 H   0  0  0  0  0  0  0  0  0  0  0  0
  141.2680   75.7038  222.8390 H   0  0  0  0  0  0  0  0  0  0  0  0
  141.1857   75.0061  220.6387 H   0  0  0  0  0  0  0  0  0  0  0  0
  141.9487   75.4182  218.3596 H   0  0  0  0  0  0  0  0  0  0  0  0
  142.6087   77.7073  217.6135 H   0  0  0  0  0  0  0  0  0  0  0  0
  142.4670   79.5532  219.2760 H   0  0  0  0  0  0  0  0  0  0  0  0
  141.1799   80.9015  220.3182 H   0  0  0  0  0  0  0  0  0  0  0  0
  141.4808   82.8703  221.8234 H   0  0  0  0  0  0  0  0  0  0  0  0
  142.3386   82.5240  224.1425 H   0  0  0  0  0  0  0  0  0  0  0  0
  142.8965   80.2156  224.9378 H   0  0  0  0  0  0  0  0  0  0  0  0
  142.5890   78.3023  223.4124 H   0  0  0  0  0  0  0  0  0  0  0  0
  136.9979   78.8979  220.5699 H   0  0  0  0  0  0  0  0  0  0  0  0
  136.1314   79.2190  222.1353 H   0  0  0  0  0  0  0  0  0  0  0  0
  137.9411   80.8936  220.5349 H   0  0  0  0  0  0  0  0  0  0  0  0
  136.3607   81.2223  221.4979 H   0  0  0  0  0  0  0  0  0  0  0  0
  1  2  1  0
  2  3  1  0
  3  4  2  0
  3  5  1  0
  5  6  1  0
  6  7  2  0
  7  8  1  0
  8  9  2  0
  9 10  1  0
 10 11  2  0
  5 12  1  0
 12 13  1  0
 13 14  1  0
 14 15  1  0
 15 16  1  0
 16 17  2  0
 16 18  1  0
 18 19  1  0
 18 20  1  0
 20 21  1  0
 21 22  2  0
 22 23  1  0
 23 24  2  0
 24 25  1  0
 25 26  2  0
 26 27  1  0
 27 28  2  0
 28 29  1  0
 29 30  2  0
 30 31  1  0
 31 32  2  0
 15 33  1  0
 33 34  1  0
 11  6  1  0
 34 12  1  0
 26 21  1  0
 32 27  1  0
  1 35  1  0
  1 36  1  0
  1 37  1  0
  2 38  1  0
  2 39  1  0
  7 40  1  0
  8 41  1  0
  9 42  1  0
 10 43  1  0
 11 44  1  0
 12 45  1  0
 13 46  1  0
 13 47  1  0
 14 48  1  0
 14 49  1  0
 18 50  1  1
 19 51  1  0
 19 52  1  0
 20 53  1  0
 20 54  1  0
 22 55  1  0
 23 56  1  0
 24 57  1  0
 25 58  1  0
 28 59  1  0
 29 60  1  0
 30 61  1  0
 31 62  1  0
 32 63  1  0
 33 64  1  0
 33 65  1  0
 34 66  1  0
 34 67  1  0
M  END
>  <smiles>  (20) 
CCC(=O)N(c1ccccc1)C1CCN(C(=O)[C@@H](N)Cc2ccccc2-c2ccccc2)CC1

>  <score_type>  (20) 
oracle

>  <origin>  (20) 
autodockgpu

>  <m_score__min__energy>  (20) 
-8.6899999999999995

>  <m_primary>  (20) 
energy

>  <rmsd>  (20) 
3.8525889717463166

>  <m_score__min__rmsd>  (20) 
3.8525889717463166

>  <meeko>  (20) 
{"free_energy": -6.7, "intermolecular_energy": -9.38, "internal_energy": -4.12, "cluster_size": 6, "cluster_id": 7, "rank_in_cluster": 2}

>  <energy>  (20) 
-8.02

>  <cluster_rmsd>  (20) 
1.39

>  <cluster>  (20) 
2

$$$$

     RDKit          3D

 67 70  0  0  0  0  0  0  0  0999 V2000
  146.3280   73.0640  221.9510 C   0  0  0  0  0  0  0  0  0  0  0  0
  146.0080   74.0290  220.8500 C   0  0  0  0  0  0  0  0  0  0  0  0
  145.5280   73.3680  219.6030 C   0  0  0  0  0  0  0  0  0  0  0  0
  146.3220   73.2210  218.6410 O   0  0  0  0  0  0  0  0  0  0  0  0
  144.1780   72.9090  219.5080 N   0  0  0  0  0  0  0  0  0  0  0  0
  144.0010   71.4890  219.5130 C   0  0  0  0  0  0  0  0  0  0  0  0
  145.0370   70.6010  219.3480 C   0  0  0  0  0  0  0  0  0  0  0  0
  144.7480   69.2540  219.3610 C   0  0  0  0  0  0  0  0  0  0  0  0
  143.4610   68.7690  219.5310 C   0  0  0  0  0  0  0  0  0  0  0  0
  142.4140   69.6690  219.6980 C   0  0  0  0  0  0  0  0  0  0  0  0
  142.6940   71.0400  219.6880 C   0  0  0  0  0  0  0  0  0  0  0  0
  143.0420   73.8310  219.4230 C   0  0  0  0  0  0  0  0  0  0  0  0
  143.2430   74.9990  220.3090 C   0  0  0  0  0  0  0  0  0  0  0  0
  143.5260   76.3130  219.6300 C   0  0  0  0  0  0  0  0  0  0  0  0
  142.8830   76.4560  218.3340 N   0  0  0  0  0  0  0  0  0  0  0  0
  142.3290   77.7470  217.9220 C   0  0  0  0  0  0  0  0  0  0  0  0
  141.6850   77.6990  216.8490 O   0  0  0  0  0  0  0  0  0  0  0  0
  142.5080   78.9620  218.6860 C   0  0  1  0  0  0  0  0  0  0  0  0
  142.9530   80.0550  217.7850 N   0  0  0  0  0  0  0  0  0  0  0  0
  141.3940   79.4260  219.5560 C   0  0  0  0  0  0  0  0  0  0  0  0
  141.5650   79.2450  220.9960 C   0  0  0  0  0  0  0  0  0  0  0  0
  142.2020   80.3100  221.6660 C   0  0  0  0  0  0  0  0  0  0  0  0
  142.3470   80.3360  223.0300 C   0  0  0  0  0  0  0  0  0  0  0  0
  141.8760   79.3110  223.8280 C   0  0  0  0  0  0  0  0  0  0  0  0
  141.2560   78.2650  223.1850 C   0  0  0  0  0  0  0  0  0  0  0  0
  141.1080   78.2390  221.7850 C   0  0  0  0  0  0  0  0  0  0  0  0
  140.5480   76.9780  221.2850 C   0  0  0  0  0  0  0  0  0  0  0  0
  139.7850   76.8950  220.1420 C   0  0  0  0  0  0  0  0  0  0  0  0
  139.2240   75.6820  219.7140 C   0  0  0  0  0  0  0  0  0  0  0  0
  139.4480   74.5340  220.4660 C   0  0  0  0  0  0  0  0  0  0  0  0
  140.2180   74.5920  221.6290 C   0  0  0  0  0  0  0  0  0  0  0  0
  140.7490   75.8040  222.0140 C   0  0  0  0  0  0  0  0  0  0  0  0
  142.8050   75.3570  217.3960 C   0  0  0  0  0  0  0  0  0  0  0  0
  142.5360   74.0770  218.0570 C   0  0  0  0  0  0  0  0  0  0  0  0
  146.1665   73.5511  222.9240 H   0  0  0  0  0  0  0  0  0  0  0  0
  145.6737   72.1836  221.8686 H   0  0  0  0  0  0  0  0  0  0  0  0
  147.3787   72.7490  221.8686 H   0  0  0  0  0  0  0  0  0  0  0  0
  145.2246   74.7149  221.2046 H   0  0  0  0  0  0  0  0  0  0  0  0
  146.9405   74.5559  220.5994 H   0  0  0  0  0  0  0  0  0  0  0  0
  146.0688   70.9561  219.2094 H   0  0  0  0  0  0  0  0  0  0  0  0
  145.5708   68.5355  219.2314 H   0  0  0  0  0  0  0  0  0  0  0  0
  143.2700   67.6857  219.5338 H   0  0  0  0  0  0  0  0  0  0  0  0
  141.3836   69.3094  219.8356 H   0  0  0  0  0  0  0  0  0  0  0  0
  141.8784   71.7664  219.8189 H   0  0  0  0  0  0  0  0  0  0  0  0
  142.1592   73.3236  219.8391 H   0  0  0  0  0  0  0  0  0  0  0  0
  142.3310   75.1231  220.9114 H   0  0  0  0  0  0  0  0  0  0  0  0
  144.1469   74.7710  220.8930 H   0  0  0  0  0  0  0  0  0  0  0  0
  143.1724   77.1240  220.2836 H   0  0  0  0  0  0  0  0  0  0  0  0
  144.6111   76.3551  219.4548 H   0  0  0  0  0  0  0  0  0  0  0  0
  143.2754   78.6833  219.4232 H   0  0  0  0  0  0  0  0  0  0  0  0
  143.0050   79.7550  216.8040 H   0  0  0  0  0  0  0  0  0  0  0  0
  142.5040   80.9480  217.9920 H   0  0  0  0  0  0  0  0  0  0  0  0
  141.2517   80.5008  219.3700 H   0  0  0  0  0  0  0  0  0  0  0  0
  140.5348   78.7945  219.2859 H   0  0  0  0  0  0  0  0  0  0  0  0
  142.5964   81.1492  221.0742 H   0  0  0  0  0  0  0  0  0  0  0  0
  142.8505   81.1938  223.4998 H   0  0  0  0  0  0  0  0  0  0  0  0
  141.9910   79.3305  224.9218 H   0  0  0  0  0  0  0  0  0  0  0  0
  140.8654   77.4265  223.7803 H   0  0  0  0  0  0  0  0  0  0  0  0
  139.6104   77.8043  219.5481 H   0  0  0  0  0  0  0  0  0  0  0  0
  138.6165   75.6400  218.7979 H   0  0  0  0  0  0  0  0  0  0  0  0
  139.0163   73.5753  220.1428 H   0  0  0  0  0  0  0  0  0  0  0  0
  140.3977   73.6866  222.2273 H   0  0  0  0  0  0  0  0  0  0  0  0
  141.3547   75.8484  222.9312 H   0  0  0  0  0  0  0  0  0  0  0  0
  141.9962   75.5612  216.6789 H   0  0  0  0  0  0  0  0  0  0  0  0
  143.7794   75.2762  216.8920 H   0  0  0  0  0  0  0  0  0  0  0  0
  141.4426   73.9644  218.0982 H   0  0  0  0  0  0  0  0  0  0  0  0
  143.0958   73.3539  217.4457 H   0  0  0  0  0  0  0  0  0  0  0  0
  1  2  1  0
  2  3  1  0
  3  4  2  0
  3  5  1  0
  5  6  1  0
  6  7  2  0
  7  8  1  0
  8  9  2  0
  9 10  1  0
 10 11  2  0
  5 12  1  0
 12 13  1  0
 13 14  1  0
 14 15  1  0
 15 16  1  0
 16 17  2  0
 16 18  1  0
 18 19  1  0
 18 20  1  0
 20 21  1  0
 21 22  2  0
 22 23  1  0
 23 24  2  0
 24 25  1  0
 25 26  2  0
 26 27  1  0
 27 28  2  0
 28 29  1  0
 29 30  2  0
 30 31  1  0
 31 32  2  0
 15 33  1  0
 33 34  1  0
 11  6  1  0
 34 12  1  0
 26 21  1  0
 32 27  1  0
  1 35  1  0
  1 36  1  0
  1 37  1  0
  2 38  1  0
  2 39  1  0
  7 40  1  0
  8 41  1  0
  9 42  1  0
 10 43  1  0
 11 44  1  0
 12 45  1  0
 13 46  1  0
 13 47  1  0
 14 48  1  0
 14 49  1  0
 18 50  1  1
 19 51  1  0
 19 52  1  0
 20 53  1  0
 20 54  1  0
 22 55  1  0
 23 56  1  0
 24 57  1  0
 25 58  1  0
 28 59  1  0
 29 60  1  0
 30 61  1  0
 31 62  1  0
 32 63  1  0
 33 64  1  0
 33 65  1  0
 34 66  1  0
 34 67  1  0
M  END
>  <smiles>  (21) 
CCC(=O)N(c1ccccc1)C1CCN(C(=O)[C@@H](N)Cc2ccccc2-c2ccccc2)CC1

>  <score_type>  (21) 
oracle

>  <origin>  (21) 
autodockgpu

>  <m_score__min__energy>  (21) 
-8.6899999999999995

>  <m_primary>  (21) 
energy

>  <rmsd>  (21) 
6.059140941327929

>  <m_score__min__rmsd>  (21) 
6.059140941327929

>  <meeko>  (21) 
{"free_energy": -7.78, "intermolecular_energy": -10.47, "internal_energy": -3.6, "cluster_size": 13, "cluster_id": 1, "rank_in_cluster": 13}

>  <energy>  (21) 
-7.93

>  <cluster_rmsd>  (21) 
1.39

>  <cluster>  (21) 
2

$$$$

     RDKit          3D

 67 70  0  0  0  0  0  0  0  0999 V2000
  146.3040   73.7690  220.7750 C   0  0  0  0  0  0  0  0  0  0  0  0
  145.2210   72.7370  220.8610 C   0  0  0  0  0  0  0  0  0  0  0  0
  144.9290   72.0750  219.5580 C   0  0  0  0  0  0  0  0  0  0  0  0
  145.6100   72.3810  218.5480 O   0  0  0  0  0  0  0  0  0  0  0  0
  143.8840   71.1050  219.4630 N   0  0  0  0  0  0  0  0  0  0  0  0
  144.3040   69.7590  219.2170 C   0  0  0  0  0  0  0  0  0  0  0  0
  143.4300   68.7430  218.9130 C   0  0  0  0  0  0  0  0  0  0  0  0
  143.9460   67.4820  218.7050 C   0  0  0  0  0  0  0  0  0  0  0  0
  145.3010   67.2070  218.7930 C   0  0  0  0  0  0  0  0  0  0  0  0
  146.1830   68.2360  219.1010 C   0  0  0  0  0  0  0  0  0  0  0  0
  145.6730   69.5220  219.3140 C   0  0  0  0  0  0  0  0  0  0  0  0
  142.4710   71.4590  219.6200 C   0  0  0  0  0  0  0  0  0  0  0  0
  142.1950   71.9310  220.9950 C   0  0  0  0  0  0  0  0  0  0  0  0
  141.9100   73.4010  221.1550 C   0  0  0  0  0  0  0  0  0  0  0  0
  141.2450   73.9980  220.0080 N   0  0  0  0  0  0  0  0  0  0  0  0
  140.2080   75.0150  220.2030 C   0  0  0  0  0  0  0  0  0  0  0  0
  139.6220   75.3440  219.1460 O   0  0  0  0  0  0  0  0  0  0  0  0
  139.8910   75.5800  221.4950 C   0  0  1  0  0  0  0  0  0  0  0  0
  139.2450   74.5480  222.3450 N   0  0  0  0  0  0  0  0  0  0  0  0
  140.9670   76.2770  222.2510 C   0  0  0  0  0  0  0  0  0  0  0  0
  141.0780   77.7210  222.0560 C   0  0  0  0  0  0  0  0  0  0  0  0
  140.5800   78.5120  223.1120 C   0  0  0  0  0  0  0  0  0  0  0  0
  140.7020   79.8780  223.1240 C   0  0  0  0  0  0  0  0  0  0  0  0
  141.3200   80.5600  222.0950 C   0  0  0  0  0  0  0  0  0  0  0  0
  141.8070   79.8000  221.0570 C   0  0  0  0  0  0  0  0  0  0  0  0
  141.6810   78.3960  221.0450 C   0  0  0  0  0  0  0  0  0  0  0  0
  142.1360   77.7850  219.7900 C   0  0  0  0  0  0  0  0  0  0  0  0
  143.0260   76.7360  219.7450 C   0  0  0  0  0  0  0  0  0  0  0  0
  143.4790   76.2030  218.5290 C   0  0  0  0  0  0  0  0  0  0  0  0
  143.0140   76.7500  217.3380 C   0  0  0  0  0  0  0  0  0  0  0  0
  142.1110   77.8150  217.3570 C   0  0  0  0  0  0  0  0  0  0  0  0
  141.6930   78.3090  218.5740 C   0  0  0  0  0  0  0  0  0  0  0  0
  141.6040   73.6510  218.6500 C   0  0  0  0  0  0  0  0  0  0  0  0
  141.8870   72.2220  218.4970 C   0  0  0  0  0  0  0  0  0  0  0  0
  146.6121   74.0626  221.7893 H   0  0  0  0  0  0  0  0  0  0  0  0
  147.1671   73.3508  220.2363 H   0  0  0  0  0  0  0  0  0  0  0  0
  145.9279   74.6512  220.2363 H   0  0  0  0  0  0  0  0  0  0  0  0
  145.5305   71.9661  221.5821 H   0  0  0  0  0  0  0  0  0  0  0  0
  144.3029   73.2553  221.1747 H   0  0  0  0  0  0  0  0  0  0  0  0
  142.3488   68.9309  218.8378 H   0  0  0  0  0  0  0  0  0  0  0  0
  143.2551   66.6620  218.4596 H   0  0  0  0  0  0  0  0  0  0  0  0
  145.6742   66.1866  218.6212 H   0  0  0  0  0  0  0  0  0  0  0  0
  147.2633   68.0431  219.1761 H   0  0  0  0  0  0  0  0  0  0  0  0
  146.3561   70.3487  219.5589 H   0  0  0  0  0  0  0  0  0  0  0  0
  141.8772   70.5381  219.5234 H   0  0  0  0  0  0  0  0  0  0  0  0
  141.3207   71.3782  221.3692 H   0  0  0  0  0  0  0  0  0  0  0  0
  143.1233   71.7510  221.5570 H   0  0  0  0  0  0  0  0  0  0  0  0
  141.2672   73.5356  222.0374 H   0  0  0  0  0  0  0  0  0  0  0  0
  142.8814   73.9061  221.2608 H   0  0  0  0  0  0  0  0  0  0  0  0
  139.2112   76.4078  221.2450 H   0  0  0  0  0  0  0  0  0  0  0  0
  139.7010   73.6320  222.2600 H   0  0  0  0  0  0  0  0  0  0  0  0
  139.0180   74.8890  223.2800 H   0  0  0  0  0  0  0  0  0  0  0  0
  140.7911   76.0981  223.3220 H   0  0  0  0  0  0  0  0  0  0  0  0
  141.9083   75.8603  221.8634 H   0  0  0  0  0  0  0  0  0  0  0  0
  140.0764   78.0163  223.9550 H   0  0  0  0  0  0  0  0  0  0  0  0
  140.2970   80.4447  223.9754 H   0  0  0  0  0  0  0  0  0  0  0  0
  141.4180   81.6556  222.1047 H   0  0  0  0  0  0  0  0  0  0  0  0
  142.3075   80.3005  220.2150 H   0  0  0  0  0  0  0  0  0  0  0  0
  143.3920   76.3039  220.6881 H   0  0  0  0  0  0  0  0  0  0  0  0
  144.1914   75.3649  218.5178 H   0  0  0  0  0  0  0  0  0  0  0  0
  143.3591   76.3419  216.3766 H   0  0  0  0  0  0  0  0  0  0  0  0
  141.7401   78.2517  216.4180 H   0  0  0  0  0  0  0  0  0  0  0  0
  140.9827   79.1488  218.5878 H   0  0  0  0  0  0  0  0  0  0  0  0
  140.7706   73.9197  217.9842 H   0  0  0  0  0  0  0  0  0  0  0  0
  142.5190   74.2044  218.3922 H   0  0  0  0  0  0  0  0  0  0  0  0
  140.9336   71.7350  218.2442 H   0  0  0  0  0  0  0  0  0  0  0  0
  142.6826   72.2022  217.7376 H   0  0  0  0  0  0  0  0  0  0  0  0
  1  2  1  0
  2  3  1  0
  3  4  2  0
  3  5  1  0
  5  6  1  0
  6  7  2  0
  7  8  1  0
  8  9  2  0
  9 10  1  0
 10 11  2  0
  5 12  1  0
 12 13  1  0
 13 14  1  0
 14 15  1  0
 15 16  1  0
 16 17  2  0
 16 18  1  0
 18 19  1  0
 18 20  1  0
 20 21  1  0
 21 22  2  0
 22 23  1  0
 23 24  2  0
 24 25  1  0
 25 26  2  0
 26 27  1  0
 27 28  2  0
 28 29  1  0
 29 30  2  0
 30 31  1  0
 31 32  2  0
 15 33  1  0
 33 34  1  0
 11  6  1  0
 34 12  1  0
 26 21  1  0
 32 27  1  0
  1 35  1  0
  1 36  1  0
  1 37  1  0
  2 38  1  0
  2 39  1  0
  7 40  1  0
  8 41  1  0
  9 42  1  0
 10 43  1  0
 11 44  1  0
 12 45  1  0
 13 46  1  0
 13 47  1  0
 14 48  1  0
 14 49  1  0
 18 50  1  6
 19 51  1  0
 19 52  1  0
 20 53  1  0
 20 54  1  0
 22 55  1  0
 23 56  1  0
 24 57  1  0
 25 58  1  0
 28 59  1  0
 29 60  1  0
 30 61  1  0
 31 62  1  0
 32 63  1  0
 33 64  1  0
 33 65  1  0
 34 66  1  0
 34 67  1  0
M  END
>  <smiles>  (22) 
CCC(=O)N(c1ccccc1)C1CCN(C(=O)[C@@H](N)Cc2ccccc2-c2ccccc2)CC1

>  <score_type>  (22) 
oracle

>  <origin>  (22) 
autodockgpu

>  <m_score__min__energy>  (22) 
-8.6899999999999995

>  <m_primary>  (22) 
energy

>  <rmsd>  (22) 
6.861966153134115

>  <m_score__min__rmsd>  (22) 
6.861966153134115

>  <meeko>  (22) 
{"free_energy": -8.02, "intermolecular_energy": -10.7, "internal_energy": -3.06, "cluster_size": 13, "cluster_id": 2, "rank_in_cluster": 7}

>  <energy>  (22) 
-7.79

>  <cluster_rmsd>  (22) 
1.48

>  <cluster>  (22) 
2

$$$$

     RDKit          3D

 67 70  0  0  0  0  0  0  0  0999 V2000
  144.0450   75.6720  216.7240 C   0  0  0  0  0  0  0  0  0  0  0  0
  143.1290   76.4980  217.5750 C   0  0  0  0  0  0  0  0  0  0  0  0
  142.1900   75.6840  218.3980 C   0  0  0  0  0  0  0  0  0  0  0  0
  141.2210   75.1130  217.8380 O   0  0  0  0  0  0  0  0  0  0  0  0
  142.3930   75.5570  219.8060 N   0  0  0  0  0  0  0  0  0  0  0  0
  143.2870   74.5180  220.2160 C   0  0  0  0  0  0  0  0  0  0  0  0
  142.8920   73.2150  220.4000 C   0  0  0  0  0  0  0  0  0  0  0  0
  143.8370   72.2990  220.8060 C   0  0  0  0  0  0  0  0  0  0  0  0
  145.1600   72.6430  221.0350 C   0  0  0  0  0  0  0  0  0  0  0  0
  145.5580   73.9620  220.8480 C   0  0  0  0  0  0  0  0  0  0  0  0
  144.6080   74.9030  220.4360 C   0  0  0  0  0  0  0  0  0  0  0  0
  141.7400   76.4430  220.7740 C   0  0  0  0  0  0  0  0  0  0  0  0
  140.9990   77.5230  220.0850 C   0  0  0  0  0  0  0  0  0  0  0  0
  139.4970   77.4380  220.1270 C   0  0  0  0  0  0  0  0  0  0  0  0
  138.9760   76.8260  221.3400 N   0  0  0  0  0  0  0  0  0  0  0  0
  137.7540   77.3410  221.9600 C   0  0  0  0  0  0  0  0  0  0  0  0
  137.4940   76.8170  223.0680 O   0  0  0  0  0  0  0  0  0  0  0  0
  136.9280   78.3590  221.3500 C   0  0  1  0  0  0  0  0  0  0  0  0
  135.5270   78.2100  221.8200 N   0  0  0  0  0  0  0  0  0  0  0  0
  137.3610   79.7790  221.4480 C   0  0  0  0  0  0  0  0  0  0  0  0
  137.3820   80.3700  222.7840 C   0  0  0  0  0  0  0  0  0  0  0  0
  136.1410   80.8540  223.2480 C   0  0  0  0  0  0  0  0  0  0  0  0
  135.9750   81.3450  224.5180 C   0  0  0  0  0  0  0  0  0  0  0  0
  137.0220   81.3960  225.4180 C   0  0  0  0  0  0  0  0  0  0  0  0
  138.2380   80.9290  224.9760 C   0  0  0  0  0  0  0  0  0  0  0  0
  138.4080   80.4260  223.6710 C   0  0  0  0  0  0  0  0  0  0  0  0
  139.8050   80.1110  223.3490 C   0  0  0  0  0  0  0  0  0  0  0  0
  140.4580   79.0040  223.8420 C   0  0  0  0  0  0  0  0  0  0  0  0
  141.8090   78.7550  223.5530 C   0  0  0  0  0  0  0  0  0  0  0  0
  142.5030   79.6500  222.7480 C   0  0  0  0  0  0  0  0  0  0  0  0
  141.8630   80.7810  222.2360 C   0  0  0  0  0  0  0  0  0  0  0  0
  140.5360   80.9880  222.5450 C   0  0  0  0  0  0  0  0  0  0  0  0
  139.6100   75.6770  221.9480 C   0  0  0  0  0  0  0  0  0  0  0  0
  141.0730   75.7570  221.9010 C   0  0  0  0  0  0  0  0  0  0  0  0
  144.7065   75.0755  217.3694 H   0  0  0  0  0  0  0  0  0  0  0  0
  143.4490   75.0001  216.0890 H   0  0  0  0  0  0  0  0  0  0  0  0
  144.6519   76.3341  216.0890 H   0  0  0  0  0  0  0  0  0  0  0  0
  143.7413   77.1131  218.2508 H   0  0  0  0  0  0  0  0  0  0  0  0
  142.5178   77.1094  216.8949 H   0  0  0  0  0  0  0  0  0  0  0  0
  141.8488   72.9115  220.2276 H   0  0  0  0  0  0  0  0  0  0  0  0
  143.5297   71.2533  220.9544 H   0  0  0  0  0  0  0  0  0  0  0  0
  145.8853   71.8827  221.3603 H   0  0  0  0  0  0  0  0  0  0  0  0
  146.6024   74.2608  221.0211 H   0  0  0  0  0  0  0  0  0  0  0  0
  144.9053   75.9513  220.2851 H   0  0  0  0  0  0  0  0  0  0  0  0
  142.5251   76.9682  221.3378 H   0  0  0  0  0  0  0  0  0  0  0  0
  141.2930   78.4773  220.5464 H   0  0  0  0  0  0  0  0  0  0  0  0
  141.2668   77.4284  219.0223 H   0  0  0  0  0  0  0  0  0  0  0  0
  139.0899   78.4570  220.0505 H   0  0  0  0  0  0  0  0  0  0  0  0
  139.1893   76.7970  219.2877 H   0  0  0  0  0  0  0  0  0  0  0  0
  137.0364   78.1582  220.2739 H   0  0  0  0  0  0  0  0  0  0  0  0
  135.4520   77.5820  222.6290 H   0  0  0  0  0  0  0  0  0  0  0  0
  135.0220   79.0970  221.8500 H   0  0  0  0  0  0  0  0  0  0  0  0
  138.3798   79.8454  221.0386 H   0  0  0  0  0  0  0  0  0  0  0  0
  136.6030   80.3503  220.8921 H   0  0  0  0  0  0  0  0  0  0  0  0
  135.2766   80.8371  222.5680 H   0  0  0  0  0  0  0  0  0  0  0  0
  134.9836   81.7072  224.8276 H   0  0  0  0  0  0  0  0  0  0  0  0
  136.8899   81.7901  226.4364 H   0  0  0  0  0  0  0  0  0  0  0  0
  139.1000   80.9488  225.6591 H   0  0  0  0  0  0  0  0  0  0  0  0
  139.9070   78.2963  224.4788 H   0  0  0  0  0  0  0  0  0  0  0  0
  142.3111   77.8640  223.9581 H   0  0  0  0  0  0  0  0  0  0  0  0
  143.5618   79.4669  222.5128 H   0  0  0  0  0  0  0  0  0  0  0  0
  142.4077   81.4928  221.5984 H   0  0  0  0  0  0  0  0  0  0  0  0
  140.0327   81.8794  222.1423 H   0  0  0  0  0  0  0  0  0  0  0  0
  139.2931   75.6137  222.9995 H   0  0  0  0  0  0  0  0  0  0  0  0
  139.3041   74.7855  221.3809 H   0  0  0  0  0  0  0  0  0  0  0  0
  141.3926   76.2710  222.8195 H   0  0  0  0  0  0  0  0  0  0  0  0
  141.3797   74.7081  221.7757 H   0  0  0  0  0  0  0  0  0  0  0  0
  1  2  1  0
  2  3  1  0
  3  4  2  0
  3  5  1  0
  5  6  1  0
  6  7  2  0
  7  8  1  0
  8  9  2  0
  9 10  1  0
 10 11  2  0
  5 12  1  0
 12 13  1  0
 13 14  1  0
 14 15  1  0
 15 16  1  0
 16 17  2  0
 16 18  1  0
 18 19  1  0
 18 20  1  0
 20 21  1  0
 21 22  2  0
 22 23  1  0
 23 24  2  0
 24 25  1  0
 25 26  2  0
 26 27  1  0
 27 28  2  0
 28 29  1  0
 29 30  2  0
 30 31  1  0
 31 32  2  0
 15 33  1  0
 33 34  1  0
 11  6  1  0
 34 12  1  0
 26 21  1  0
 32 27  1  0
  1 35  1  0
  1 36  1  0
  1 37  1  0
  2 38  1  0
  2 39  1  0
  7 40  1  0
  8 41  1  0
  9 42  1  0
 10 43  1  0
 11 44  1  0
 12 45  1  0
 13 46  1  0
 13 47  1  0
 14 48  1  0
 14 49  1  0
 18 50  1  6
 19 51  1  0
 19 52  1  0
 20 53  1  0
 20 54  1  0
 22 55  1  0
 23 56  1  0
 24 57  1  0
 25 58  1  0
 28 59  1  0
 29 60  1  0
 30 61  1  0
 31 62  1  0
 32 63  1  0
 33 64  1  0
 33 65  1  0
 34 66  1  0
 34 67  1  0
M  END
>  <smiles>  (23) 
CCC(=O)N(c1ccccc1)C1CCN(C(=O)[C@@H](N)Cc2ccccc2-c2ccccc2)CC1

>  <score_type>  (23) 
oracle

>  <origin>  (23) 
autodockgpu

>  <m_score__min__energy>  (23) 
-8.6899999999999995

>  <m_primary>  (23) 
energy

>  <rmsd>  (23) 
5.558259212474797

>  <m_score__min__rmsd>  (23) 
5.558259212474797

>  <meeko>  (23) 
{"free_energy": -6.54, "intermolecular_energy": -9.22, "internal_energy": -4.03, "cluster_size": 2, "cluster_id": 8, "rank_in_cluster": 2}

>  <energy>  (23) 
-7.14

>  <cluster_rmsd>  (23) 
0.95

>  <cluster>  (23) 
2

$$$$

     RDKit          3D

 67 70  0  0  0  0  0  0  0  0999 V2000
  138.6000   84.5570  221.5600 C   0  0  0  0  0  0  0  0  0  0  0  0
  137.5150   84.6860  222.5850 C   0  0  0  0  0  0  0  0  0  0  0  0
  136.5650   83.5370  222.5900 C   0  0  0  0  0  0  0  0  0  0  0  0
  135.3930   83.7080  222.1720 O   0  0  0  0  0  0  0  0  0  0  0  0
  136.9880   82.2580  223.0670 N   0  0  0  0  0  0  0  0  0  0  0  0
  136.5330   81.8990  224.3750 C   0  0  0  0  0  0  0  0  0  0  0  0
  135.4170   81.1280  224.5990 C   0  0  0  0  0  0  0  0  0  0  0  0
  135.0670   80.8530  225.9020 C   0  0  0  0  0  0  0  0  0  0  0  0
  135.7920   81.3240  226.9850 C   0  0  0  0  0  0  0  0  0  0  0  0
  136.9200   82.1040  226.7570 C   0  0  0  0  0  0  0  0  0  0  0  0
  137.2880   82.3910  225.4380 C   0  0  0  0  0  0  0  0  0  0  0  0
  137.8240   81.3600  222.2650 C   0  0  0  0  0  0  0  0  0  0  0  0
  138.8190   80.6670  223.1140 C   0  0  0  0  0  0  0  0  0  0  0  0
  138.5940   79.1960  223.3440 C   0  0  0  0  0  0  0  0  0  0  0  0
  137.9570   78.5170  222.2270 N   0  0  0  0  0  0  0  0  0  0  0  0
  138.3650   77.1600  221.8580 C   0  0  0  0  0  0  0  0  0  0  0  0
  137.8370   76.7470  220.8000 O   0  0  0  0  0  0  0  0  0  0  0  0
  139.2910   76.3740  222.6420 C   0  0  1  0  0  0  0  0  0  0  0  0
  139.1610   74.9410  222.2760 N   0  0  0  0  0  0  0  0  0  0  0  0
  140.7240   76.7770  222.6660 C   0  0  0  0  0  0  0  0  0  0  0  0
  141.3120   77.1900  221.3940 C   0  0  0  0  0  0  0  0  0  0  0  0
  141.3910   76.1820  220.4120 C   0  0  0  0  0  0  0  0  0  0  0  0
  141.8260   76.4350  219.1350 C   0  0  0  0  0  0  0  0  0  0  0  0
  142.2140   77.7000  218.7390 C   0  0  0  0  0  0  0  0  0  0  0  0
  142.1430   78.6920  219.6900 C   0  0  0  0  0  0  0  0  0  0  0  0
  141.6980   78.4300  221.0010 C   0  0  0  0  0  0  0  0  0  0  0  0
  141.8300   79.5850  221.8980 C   0  0  0  0  0  0  0  0  0  0  0  0
  141.5320   80.8730  221.5130 C   0  0  0  0  0  0  0  0  0  0  0  0
  141.7130   81.9630  222.3790 C   0  0  0  0  0  0  0  0  0  0  0  0
  142.2030   81.7330  223.6600 C   0  0  0  0  0  0  0  0  0  0  0  0
  142.5120   80.4350  224.0740 C   0  0  0  0  0  0  0  0  0  0  0  0
  142.3210   79.3940  223.1910 C   0  0  0  0  0  0  0  0  0  0  0  0
  136.8820   79.1270  221.4760 C   0  0  0  0  0  0  0  0  0  0  0  0
  137.0970   80.5600  221.2570 C   0  0  0  0  0  0  0  0  0  0  0  0
  139.5701   84.4417  222.0655 H   0  0  0  0  0  0  0  0  0  0  0  0
  138.4072   83.6754  220.9309 H   0  0  0  0  0  0  0  0  0  0  0  0
  138.6193   85.4592  220.9309 H   0  0  0  0  0  0  0  0  0  0  0  0
  137.9810   84.7573  223.5789 H   0  0  0  0  0  0  0  0  0  0  0  0
  136.9349   85.5857  222.3320 H   0  0  0  0  0  0  0  0  0  0  0  0
  134.8199   80.7413  223.7600 H   0  0  0  0  0  0  0  0  0  0  0  0
  134.1768   80.2350  226.0907 H   0  0  0  0  0  0  0  0  0  0  0  0
  135.4790   81.0838  228.0118 H   0  0  0  0  0  0  0  0  0  0  0  0
  137.5132   82.4891  227.5995 H   0  0  0  0  0  0  0  0  0  0  0  0
  138.1770   83.0076  225.2392 H   0  0  0  0  0  0  0  0  0  0  0  0
  138.4295   81.9760  221.5839 H   0  0  0  0  0  0  0  0  0  0  0  0
  139.8042   80.7847  222.6390 H   0  0  0  0  0  0  0  0  0  0  0  0
  138.7329   81.1345  224.1060 H   0  0  0  0  0  0  0  0  0  0  0  0
  139.5689   78.7209  223.5281 H   0  0  0  0  0  0  0  0  0  0  0  0
  137.9127   79.1071  224.2030 H   0  0  0  0  0  0  0  0  0  0  0  0
  138.9771   76.5759  223.6767 H   0  0  0  0  0  0  0  0  0  0  0  0
  138.9140   74.3530  223.0810 H   0  0  0  0  0  0  0  0  0  0  0  0
  138.6520   74.7990  221.4020 H   0  0  0  0  0  0  0  0  0  0  0  0
  140.8215   77.6191  223.3670 H   0  0  0  0  0  0  0  0  0  0  0  0
  141.2740   75.8699  222.9571 H   0  0  0  0  0  0  0  0  0  0  0  0
  141.0937   75.1570  220.6783 H   0  0  0  0  0  0  0  0  0  0  0  0
  141.8666   75.6097  218.4089 H   0  0  0  0  0  0  0  0  0  0  0  0
  142.5620   77.9041  217.7156 H   0  0  0  0  0  0  0  0  0  0  0  0
  142.4413   79.7157  219.4198 H   0  0  0  0  0  0  0  0  0  0  0  0
  141.1419   81.0526  220.5003 H   0  0  0  0  0  0  0  0  0  0  0  0
  141.4708   82.9840  222.0491 H   0  0  0  0  0  0  0  0  0  0  0  0
  142.3480   82.5770  224.3504 H   0  0  0  0  0  0  0  0  0  0  0  0
  142.9005   80.2472  225.0858 H   0  0  0  0  0  0  0  0  0  0  0  0
  142.5650   78.3724  223.5179 H   0  0  0  0  0  0  0  0  0  0  0  0
  136.8060   78.6277  220.4988 H   0  0  0  0  0  0  0  0  0  0  0  0
  135.9571   79.0119  222.0602 H   0  0  0  0  0  0  0  0  0  0  0  0
  137.6531   80.6572  220.3129 H   0  0  0  0  0  0  0  0  0  0  0  0
  136.0794   80.9765  221.2891 H   0  0  0  0  0  0  0  0  0  0  0  0
  1  2  1  0
  2  3  1  0
  3  4  2  0
  3  5  1  0
  5  6  1  0
  6  7  2  0
  7  8  1  0
  8  9  2  0
  9 10  1  0
 10 11  2  0
  5 12  1  0
 12 13  1  0
 13 14  1  0
 14 15  1  0
 15 16  1  0
 16 17  2  0
 16 18  1  0
 18 19  1  0
 18 20  1  0
 20 21  1  0
 21 22  2  0
 22 23  1  0
 23 24  2  0
 24 25  1  0
 25 26  2  0
 26 27  1  0
 27 28  2  0
 28 29  1  0
 29 30  2  0
 30 31  1  0
 31 32  2  0
 15 33  1  0
 33 34  1  0
 11  6  1  0
 34 12  1  0
 26 21  1  0
 32 27  1  0
  1 35  1  0
  1 36  1  0
  1 37  1  0
  2 38  1  0
  2 39  1  0
  7 40  1  0
  8 41  1  0
  9 42  1  0
 10 43  1  0
 11 44  1  0
 12 45  1  0
 13 46  1  0
 13 47  1  0
 14 48  1  0
 14 49  1  0
 18 50  1  1
 19 51  1  0
 19 52  1  0
 20 53  1  0
 20 54  1  0
 22 55  1  0
 23 56  1  0
 24 57  1  0
 25 58  1  0
 28 59  1  0
 29 60  1  0
 30 61  1  0
 31 62  1  0
 32 63  1  0
 33 64  1  0
 33 65  1  0
 34 66  1  0
 34 67  1  0
M  END
>  <smiles>  (24) 
CCC(=O)N(c1ccccc1)C1CCN(C(=O)[C@@H](N)Cc2ccccc2-c2ccccc2)CC1

>  <score_type>  (24) 
oracle

>  <origin>  (24) 
autodockgpu

>  <m_score__min__energy>  (24) 
-8.6899999999999995

>  <m_primary>  (24) 
energy

>  <rmsd>  (24) 
3.9191315239806133

>  <m_score__min__rmsd>  (24) 
3.9191315239806133

>  <meeko>  (24) 
{"free_energy": -6.58, "intermolecular_energy": -9.26, "internal_energy": -4.07, "cluster_size": 6, "cluster_id": 7, "rank_in_cluster": 4}

>  <energy>  (24) 
-7.05

>  <cluster_rmsd>  (24) 
0.86

>  <cluster>  (24) 
2

$$$$

     RDKit          3D

 67 70  0  0  0  0  0  0  0  0999 V2000
  142.6130   72.6990  217.5440 C   0  0  0  0  0  0  0  0  0  0  0  0
  143.9310   73.3960  217.3950 C   0  0  0  0  0  0  0  0  0  0  0  0
  144.9570   72.9380  218.3750 C   0  0  0  0  0  0  0  0  0  0  0  0
  146.1410   73.3410  218.2570 O   0  0  0  0  0  0  0  0  0  0  0  0
  144.5930   72.0500  219.4340 N   0  0  0  0  0  0  0  0  0  0  0  0
  144.8830   70.6660  219.2140 C   0  0  0  0  0  0  0  0  0  0  0  0
  146.1470   70.1370  219.3180 C   0  0  0  0  0  0  0  0  0  0  0  0
  146.3110   68.7910  219.0740 C   0  0  0  0  0  0  0  0  0  0  0  0
  145.2560   67.9610  218.7300 C   0  0  0  0  0  0  0  0  0  0  0  0
  143.9790   68.4980  218.6250 C   0  0  0  0  0  0  0  0  0  0  0  0
  143.7970   69.8640  218.8700 C   0  0  0  0  0  0  0  0  0  0  0  0
  143.9730   72.5230  220.6740 C   0  0  0  0  0  0  0  0  0  0  0  0
  143.8670   74.0000  220.6810 C   0  0  0  0  0  0  0  0  0  0  0  0
  142.4820   74.5720  220.5340 C   0  0  0  0  0  0  0  0  0  0  0  0
  141.4380   73.7410  221.1130 N   0  0  0  0  0  0  0  0  0  0  0  0
  140.3040   74.3570  221.8070 C   0  0  0  0  0  0  0  0  0  0  0  0
  139.5540   73.5300  222.3750 O   0  0  0  0  0  0  0  0  0  0  0  0
  140.0770   75.7840  221.8350 C   0  0  1  0  0  0  0  0  0  0  0  0
  138.7140   76.0600  222.3550 N   0  0  0  0  0  0  0  0  0  0  0  0
  141.0780   76.6520  222.5120 C   0  0  0  0  0  0  0  0  0  0  0  0
  141.1390   78.0460  222.0810 C   0  0  0  0  0  0  0  0  0  0  0  0
  140.9310   79.0010  223.0980 C   0  0  0  0  0  0  0  0  0  0  0  0
  141.0550   80.3490  222.8740 C   0  0  0  0  0  0  0  0  0  0  0  0
  141.3890   80.8490  221.6300 C   0  0  0  0  0  0  0  0  0  0  0  0
  141.5910   79.9280  220.6300 C   0  0  0  0  0  0  0  0  0  0  0  0
  141.4630   78.5440  220.8600 C   0  0  0  0  0  0  0  0  0  0  0  0
  141.5790   77.7400  219.6370 C   0  0  0  0  0  0  0  0  0  0  0  0
  140.4950   77.1760  219.0040 C   0  0  0  0  0  0  0  0  0  0  0  0
  140.6420   76.3730  217.8620 C   0  0  0  0  0  0  0  0  0  0  0  0
  141.9180   76.1440  217.3580 C   0  0  0  0  0  0  0  0  0  0  0  0
  143.0330   76.7060  217.9830 C   0  0  0  0  0  0  0  0  0  0  0  0
  142.8440   77.4860  219.1030 C   0  0  0  0  0  0  0  0  0  0  0  0
  141.4530   72.3000  220.9910 C   0  0  0  0  0  0  0  0  0  0  0  0
  142.8020   71.7430  221.1270 C   0  0  0  0  0  0  0  0  0  0  0  0
  142.3817   72.5766  218.6124 H   0  0  0  0  0  0  0  0  0  0  0  0
  141.8250   73.2983  217.0645 H   0  0  0  0  0  0  0  0  0  0  0  0
  142.6648   71.7104  217.0645 H   0  0  0  0  0  0  0  0  0  0  0  0
  144.3110   73.2099  216.3797 H   0  0  0  0  0  0  0  0  0  0  0  0
  143.7560   74.4654  217.5839 H   0  0  0  0  0  0  0  0  0  0  0  0
  147.0043   70.7708  219.5886 H   0  0  0  0  0  0  0  0  0  0  0  0
  147.3190   68.3582  219.1555 H   0  0  0  0  0  0  0  0  0  0  0  0
  145.4274   66.8907  218.5425 H   0  0  0  0  0  0  0  0  0  0  0  0
  143.1249   67.8601  218.3538 H   0  0  0  0  0  0  0  0  0  0  0  0
  142.7928   70.3059  218.7906 H   0  0  0  0  0  0  0  0  0  0  0  0
  144.6568   72.2951  221.5049 H   0  0  0  0  0  0  0  0  0  0  0  0
  144.2786   74.3606  221.6352 H   0  0  0  0  0  0  0  0  0  0  0  0
  144.4185   74.3370  219.7909 H   0  0  0  0  0  0  0  0  0  0  0  0
  142.4581   75.5538  221.0294 H   0  0  0  0  0  0  0  0  0  0  0  0
  142.2763   74.6388  219.4555 H   0  0  0  0  0  0  0  0  0  0  0  0
  140.1952   76.0765  220.7812 H   0  0  0  0  0  0  0  0  0  0  0  0
  138.0940   76.4530  221.6380 H   0  0  0  0  0  0  0  0  0  0  0  0
  138.3530   75.3060  222.9420 H   0  0  0  0  0  0  0  0  0  0  0  0
  140.8501   76.6460  223.5881 H   0  0  0  0  0  0  0  0  0  0  0  0
  142.0562   76.2252  222.2457 H   0  0  0  0  0  0  0  0  0  0  0  0
  140.6600   78.6530  224.1057 H   0  0  0  0  0  0  0  0  0  0  0  0
  140.8843   81.0489  223.7053 H   0  0  0  0  0  0  0  0  0  0  0  0
  141.4882   81.9295  221.4491 H   0  0  0  0  0  0  0  0  0  0  0  0
  141.8597   80.2809  219.6234 H   0  0  0  0  0  0  0  0  0  0  0  0
  139.4866   77.3593  219.4035 H   0  0  0  0  0  0  0  0  0  0  0  0
  139.7612   75.9314  217.3730 H   0  0  0  0  0  0  0  0  0  0  0  0
  142.0493   75.5176  216.4634 H   0  0  0  0  0  0  0  0  0  0  0  0
  144.0444   76.5292  217.5882 H   0  0  0  0  0  0  0  0  0  0  0  0
  143.7238   77.9257  219.5956 H   0  0  0  0  0  0  0  0  0  0  0  0
  140.8130   71.8720  221.7766 H   0  0  0  0  0  0  0  0  0  0  0  0
  141.0835   72.0440  219.9871 H   0  0  0  0  0  0  0  0  0  0  0  0
  142.9534   71.5352  222.1965 H   0  0  0  0  0  0  0  0  0  0  0  0
  142.7906   70.8829  220.4413 H   0  0  0  0  0  0  0  0  0  0  0  0
  1  2  1  0
  2  3  1  0
  3  4  2  0
  3  5  1  0
  5  6  1  0
  6  7  2  0
  7  8  1  0
  8  9  2  0
  9 10  1  0
 10 11  2  0
  5 12  1  0
 12 13  1  0
 13 14  1  0
 14 15  1  0
 15 16  1  0
 16 17  2  0
 16 18  1  0
 18 19  1  0
 18 20  1  0
 20 21  1  0
 21 22  2  0
 22 23  1  0
 23 24  2  0
 24 25  1  0
 25 26  2  0
 26 27  1  0
 27 28  2  0
 28 29  1  0
 29 30  2  0
 30 31  1  0
 31 32  2  0
 15 33  1  0
 33 34  1  0
 11  6  1  0
 34 12  1  0
 26 21  1  0
 32 27  1  0
  1 35  1  0
  1 36  1  0
  1 37  1  0
  2 38  1  0
  2 39  1  0
  7 40  1  0
  8 41  1  0
  9 42  1  0
 10 43  1  0
 11 44  1  0
 12 45  1  0
 13 46  1  0
 13 47  1  0
 14 48  1  0
 14 49  1  0
 18 50  1  6
 19 51  1  0
 19 52  1  0
 20 53  1  0
 20 54  1  0
 22 55  1  0
 23 56  1  0
 24 57  1  0
 25 58  1  0
 28 59  1  0
 29 60  1  0
 30 61  1  0
 31 62  1  0
 32 63  1  0
 33 64  1  0
 33 65  1  0
 34 66  1  0
 34 67  1  0
M  END
>  <smiles>  (25) 
CCC(=O)N(c1ccccc1)C1CCN(C(=O)[C@@H](N)Cc2ccccc2-c2ccccc2)CC1

>  <score_type>  (25) 
oracle

>  <origin>  (25) 
autodockgpu

>  <m_score__min__energy>  (25) 
-8.6899999999999995

>  <m_primary>  (25) 
energy

>  <rmsd>  (25) 
6.540847052153682

>  <m_score__min__rmsd>  (25) 
6.540847052153682

>  <meeko>  (25) 
{"free_energy": -7.0, "intermolecular_energy": -9.69, "internal_energy": -3.77, "cluster_size": 13, "cluster_id": 2, "rank_in_cluster": 12}

>  <energy>  (25) 
-7.0

>  <cluster_rmsd>  (25) 
0.86

>  <cluster>  (25) 
2

$$$$

     RDKit          3D

 67 70  0  0  0  0  0  0  0  0999 V2000
  146.7170   73.2730  222.0920 C   0  0  0  0  0  0  0  0  0  0  0  0
  145.7430   73.9740  221.1950 C   0  0  0  0  0  0  0  0  0  0  0  0
  145.6660   73.3850  219.8280 C   0  0  0  0  0  0  0  0  0  0  0  0
  146.6890   73.3910  219.0990 O   0  0  0  0  0  0  0  0  0  0  0  0
  144.4410   72.8210  219.3570 N   0  0  0  0  0  0  0  0  0  0  0  0
  144.3670   71.3920  219.3680 C   0  0  0  0  0  0  0  0  0  0  0  0
  143.2290   70.7010  219.7080 C   0  0  0  0  0  0  0  0  0  0  0  0
  143.2750   69.3240  219.6930 C   0  0  0  0  0  0  0  0  0  0  0  0
  144.4190   68.6200  219.3520 C   0  0  0  0  0  0  0  0  0  0  0  0
  145.5690   69.3210  219.0090 C   0  0  0  0  0  0  0  0  0  0  0  0
  145.5360   70.7200  219.0200 C   0  0  0  0  0  0  0  0  0  0  0  0
  143.3220   73.6510  218.9010 C   0  0  0  0  0  0  0  0  0  0  0  0
  142.9750   74.6720  219.9160 C   0  0  0  0  0  0  0  0  0  0  0  0
  143.3220   76.0970  219.5780 C   0  0  0  0  0  0  0  0  0  0  0  0
  143.2550   76.3980  218.1560 N   0  0  0  0  0  0  0  0  0  0  0  0
  142.7420   77.6910  217.6990 C   0  0  0  0  0  0  0  0  0  0  0  0
  142.6090   77.7670  216.4550 O   0  0  0  0  0  0  0  0  0  0  0  0
  142.4190   78.7750  218.5990 C   0  0  1  0  0  0  0  0  0  0  0  0
  142.7870   80.0690  217.9720 N   0  0  0  0  0  0  0  0  0  0  0  0
  141.0440   78.8440  219.1650 C   0  0  0  0  0  0  0  0  0  0  0  0
  140.7130   77.8750  220.2080 C   0  0  0  0  0  0  0  0  0  0  0  0
  140.1910   76.6490  219.7480 C   0  0  0  0  0  0  0  0  0  0  0  0
  139.9250   75.6020  220.5940 C   0  0  0  0  0  0  0  0  0  0  0  0
  140.1540   75.6930  221.9530 C   0  0  0  0  0  0  0  0  0  0  0  0
  140.6610   76.8850  222.4140 C   0  0  0  0  0  0  0  0  0  0  0  0
  140.9320   77.9600  221.5450 C   0  0  0  0  0  0  0  0  0  0  0  0
  141.3330   79.1850  222.2470 C   0  0  0  0  0  0  0  0  0  0  0  0
  140.6840   80.3890  222.0880 C   0  0  0  0  0  0  0  0  0  0  0  0
  141.1190   81.5540  222.7380 C   0  0  0  0  0  0  0  0  0  0  0  0
  142.2350   81.4890  223.5650 C   0  0  0  0  0  0  0  0  0  0  0  0
  142.9110   80.2800  223.7410 C   0  0  0  0  0  0  0  0  0  0  0  0
  142.4510   79.1600  223.0840 C   0  0  0  0  0  0  0  0  0  0  0  0
  143.7250   75.4640  217.1560 C   0  0  0  0  0  0  0  0  0  0  0  0
  143.3920   74.0770  217.4880 C   0  0  0  0  0  0  0  0  0  0  0  0
  146.4514   73.4642  223.1422 H   0  0  0  0  0  0  0  0  0  0  0  0
  146.6827   72.1911  221.8962 H   0  0  0  0  0  0  0  0  0  0  0  0
  147.7320   73.6491  221.8962 H   0  0  0  0  0  0  0  0  0  0  0  0
  144.7450   73.9200  221.6544 H   0  0  0  0  0  0  0  0  0  0  0  0
  146.0939   75.0104  221.0823 H   0  0  0  0  0  0  0  0  0  0  0  0
  142.3066   71.2326  219.9846 H   0  0  0  0  0  0  0  0  0  0  0  0
  142.3687   68.7617  219.9621 H   0  0  0  0  0  0  0  0  0  0  0  0
  144.4169   67.5200  219.3528 H   0  0  0  0  0  0  0  0  0  0  0  0
  146.4894   68.7853  218.7336 H   0  0  0  0  0  0  0  0  0  0  0  0
  146.4372   71.2912  218.7526 H   0  0  0  0  0  0  0  0  0  0  0  0
  142.4282   73.0128  218.8388 H   0  0  0  0  0  0  0  0  0  0  0  0
  141.8888   74.6226  220.0826 H   0  0  0  0  0  0  0  0  0  0  0  0
  143.5831   74.4248  220.7987 H   0  0  0  0  0  0  0  0  0  0  0  0
  142.6198   76.7591  220.1058 H   0  0  0  0  0  0  0  0  0  0  0  0
  144.3653   76.2543  219.8892 H   0  0  0  0  0  0  0  0  0  0  0  0
  143.0247   78.5497  219.4892 H   0  0  0  0  0  0  0  0  0  0  0  0
  143.3750   80.6460  218.5840 H   0  0  0  0  0  0  0  0  0  0  0  0
  143.0620   79.9720  216.9930 H   0  0  0  0  0  0  0  0  0  0  0  0
  140.9086   79.8497  219.5896 H   0  0  0  0  0  0  0  0  0  0  0  0
  140.3742   78.6049  218.3259 H   0  0  0  0  0  0  0  0  0  0  0  0
  139.9899   76.5275  218.6734 H   0  0  0  0  0  0  0  0  0  0  0  0
  139.5194   74.6672  220.1797 H   0  0  0  0  0  0  0  0  0  0  0  0
  139.9415   74.8542  222.6322 H   0  0  0  0  0  0  0  0  0  0  0  0
  140.8602   77.0022  223.4894 H   0  0  0  0  0  0  0  0  0  0  0  0
  139.8010   80.4389  221.4340 H   0  0  0  0  0  0  0  0  0  0  0  0
  140.5849   82.5050  222.5954 H   0  0  0  0  0  0  0  0  0  0  0  0
  142.5867   82.3936  224.0826 H   0  0  0  0  0  0  0  0  0  0  0  0
  143.7953   80.2229  224.3928 H   0  0  0  0  0  0  0  0  0  0  0  0
  142.9851   78.2086  223.2240 H   0  0  0  0  0  0  0  0  0  0  0  0
  143.2622   75.7172  216.1908 H   0  0  0  0  0  0  0  0  0  0  0  0
  144.8211   75.5443  217.1105 H   0  0  0  0  0  0  0  0  0  0  0  0
  142.4057   73.8729  217.0458 H   0  0  0  0  0  0  0  0  0  0  0  0
  144.2497   73.5107  217.0959 H   0  0  0  0  0  0  0  0  0  0  0  0
  1  2  1  0
  2  3  1  0
  3  4  2  0
  3  5  1  0
  5  6  1  0
  6  7  2  0
  7  8  1  0
  8  9  2  0
  9 10  1  0
 10 11  2  0
  5 12  1  0
 12 13  1  0
 13 14  1  0
 14 15  1  0
 15 16  1  0
 16 17  2  0
 16 18  1  0
 18 19  1  0
 18 20  1  0
 20 21  1  0
 21 22  2  0
 22 23  1  0
 23 24  2  0
 24 25  1  0
 25 26  2  0
 26 27  1  0
 27 28  2  0
 28 29  1  0
 29 30  2  0
 30 31  1  0
 31 32  2  0
 15 33  1  0
 33 34  1  0
 11  6  1  0
 34 12  1  0
 26 21  1  0
 32 27  1  0
  1 35  1  0
  1 36  1  0
  1 37  1  0
  2 38  1  0
  2 39  1  0
  7 40  1  0
  8 41  1  0
  9 42  1  0
 10 43  1  0
 11 44  1  0
 12 45  1  0
 13 46  1  0
 13 47  1  0
 14 48  1  0
 14 49  1  0
 18 50  1  1
 19 51  1  0
 19 52  1  0
 20 53  1  0
 20 54  1  0
 22 55  1  0
 23 56  1  0
 24 57  1  0
 25 58  1  0
 28 59  1  0
 29 60  1  0
 30 61  1  0
 31 62  1  0
 32 63  1  0
 33 64  1  0
 33 65  1  0
 34 66  1  0
 34 67  1  0
M  END
>  <smiles>  (26) 
CCC(=O)N(c1ccccc1)C1CCN(C(=O)[C@@H](N)Cc2ccccc2-c2ccccc2)CC1

>  <score_type>  (26) 
oracle

>  <origin>  (26) 
autodockgpu

>  <m_score__min__energy>  (26) 
-8.6899999999999995

>  <m_primary>  (26) 
energy

>  <rmsd>  (26) 
5.770562012169221

>  <m_score__min__rmsd>  (26) 
5.770562012169221

>  <meeko>  (26) 
{"free_energy": -8.52, "intermolecular_energy": -11.2, "internal_energy": -3.2, "cluster_size": 13, "cluster_id": 1, "rank_in_cluster": 5}

>  <energy>  (26) 
-6.98

>  <cluster_rmsd>  (26) 
0.86

>  <cluster>  (26) 
2

$$$$

     RDKit          3D

 67 70  0  0  0  0  0  0  0  0999 V2000
  142.2770   79.8190  223.8550 C   0  0  0  0  0  0  0  0  0  0  0  0
  142.1120   81.2050  223.3110 C   0  0  0  0  0  0  0  0  0  0  0  0
  141.1450   81.2860  222.1800 C   0  0  0  0  0  0  0  0  0  0  0  0
  141.4000   82.0400  221.2070 O   0  0  0  0  0  0  0  0  0  0  0  0
  139.9440   80.5140  222.2050 N   0  0  0  0  0  0  0  0  0  0  0  0
  138.9350   80.9610  223.1160 C   0  0  0  0  0  0  0  0  0  0  0  0
  138.7250   80.3880  224.3470 C   0  0  0  0  0  0  0  0  0  0  0  0
  137.7170   80.8950  225.1380 C   0  0  0  0  0  0  0  0  0  0  0  0
  136.9150   81.9520  224.7380 C   0  0  0  0  0  0  0  0  0  0  0  0
  137.1290   82.5300  223.4920 C   0  0  0  0  0  0  0  0  0  0  0  0
  138.1490   82.0260  222.6790 C   0  0  0  0  0  0  0  0  0  0  0  0
  139.7470   79.3430  221.3460 C   0  0  0  0  0  0  0  0  0  0  0  0
  140.9800   78.5270  221.2750 C   0  0  0  0  0  0  0  0  0  0  0  0
  140.9460   77.2010  221.9860 C   0  0  0  0  0  0  0  0  0  0  0  0
  139.6330   76.5770  222.0060 N   0  0  0  0  0  0  0  0  0  0  0  0
  139.5020   75.1260  221.8530 C   0  0  0  0  0  0  0  0  0  0  0  0
  138.3160   74.7370  221.7490 O   0  0  0  0  0  0  0  0  0  0  0  0
  140.6370   74.2310  221.8220 C   0  0  1  0  0  0  0  0  0  0  0  0
  140.3470   73.0320  222.6480 N   0  0  0  0  0  0  0  0  0  0  0  0
  141.1920   73.8310  220.5010 C   0  0  0  0  0  0  0  0  0  0  0  0
  141.8170   74.8840  219.7040 C   0  0  0  0  0  0  0  0  0  0  0  0
  140.9270   75.8170  219.1340 C   0  0  0  0  0  0  0  0  0  0  0  0
  141.3630   76.9190  218.4430 C   0  0  0  0  0  0  0  0  0  0  0  0
  142.7080   77.1770  218.2650 C   0  0  0  0  0  0  0  0  0  0  0  0
  143.5870   76.2720  218.8140 C   0  0  0  0  0  0  0  0  0  0  0  0
  143.1380   75.1390  219.5220 C   0  0  0  0  0  0  0  0  0  0  0  0
  144.2230   74.2280  219.9040 C   0  0  0  0  0  0  0  0  0  0  0  0
  145.1930   74.5590  220.8230 C   0  0  0  0  0  0  0  0  0  0  0  0
  146.2450   73.6840  221.1340 C   0  0  0  0  0  0  0  0  0  0  0  0
  146.3060   72.4490  220.4970 C   0  0  0  0  0  0  0  0  0  0  0  0
  145.3340   72.0900  219.5610 C   0  0  0  0  0  0  0  0  0  0  0  0
  144.3190   72.9800  219.2850 C   0  0  0  0  0  0  0  0  0  0  0  0
  138.4260   77.3450  222.2180 C   0  0  0  0  0  0  0  0  0  0  0  0
  138.4610   78.6390  221.5300 C   0  0  0  0  0  0  0  0  0  0  0  0
  142.2729   79.8537  224.9544 H   0  0  0  0  0  0  0  0  0  0  0  0
  141.4478   79.1866  223.5050 H   0  0  0  0  0  0  0  0  0  0  0  0
  143.2315   79.3989  223.5050 H   0  0  0  0  0  0  0  0  0  0  0  0
  141.7557   81.8576  224.1217 H   0  0  0  0  0  0  0  0  0  0  0  0
  143.0920   81.5204  222.9234 H   0  0  0  0  0  0  0  0  0  0  0  0
  139.3448   79.5472  224.6918 H   0  0  0  0  0  0  0  0  0  0  0  0
  137.5421   80.4431  226.1255 H   0  0  0  0  0  0  0  0  0  0  0  0
  136.1195   82.3287  225.3978 H   0  0  0  0  0  0  0  0  0  0  0  0
  136.5061   83.3701  223.1511 H   0  0  0  0  0  0  0  0  0  0  0  0
  138.3319   82.4720  221.6902 H   0  0  0  0  0  0  0  0  0  0  0  0
  139.5962   79.6985  220.3160 H   0  0  0  0  0  0  0  0  0  0  0  0
  141.1919   78.3323  220.2133 H   0  0  0  0  0  0  0  0  0  0  0  0
  141.7511   79.1166  221.7924 H   0  0  0  0  0  0  0  0  0  0  0  0
  141.6459   76.5191  221.4809 H   0  0  0  0  0  0  0  0  0  0  0  0
  141.2245   77.3926  223.0327 H   0  0  0  0  0  0  0  0  0  0  0  0
  141.4505   74.8438  222.2375 H   0  0  0  0  0  0  0  0  0  0  0  0
  139.4230   73.0800  223.0940 H   0  0  0  0  0  0  0  0  0  0  0  0
  140.6150   72.1600  222.1900 H   0  0  0  0  0  0  0  0  0  0  0  0
  141.9501   73.0543  220.6797 H   0  0  0  0  0  0  0  0  0  0  0  0
  140.3240   73.5002  219.9118 H   0  0  0  0  0  0  0  0  0  0  0  0
  139.8448   75.6557  219.2473 H   0  0  0  0  0  0  0  0  0  0  0  0
  140.6229   77.6144  218.0202 H   0  0  0  0  0  0  0  0  0  0  0  0
  143.0587   78.0611  217.7124 H   0  0  0  0  0  0  0  0  0  0  0  0
  144.6683   76.4370  218.6973 H   0  0  0  0  0  0  0  0  0  0  0  0
  145.1421   75.5354  221.3270 H   0  0  0  0  0  0  0  0  0  0  0  0
  147.0101   73.9705  221.8706 H   0  0  0  0  0  0  0  0  0  0  0  0
  147.1238   71.7518  220.7317 H   0  0  0  0  0  0  0  0  0  0  0  0
  145.3778   71.1150  219.0536 H   0  0  0  0  0  0  0  0  0  0  0  0
  143.5537   72.6961  218.5476 H   0  0  0  0  0  0  0  0  0  0  0  0
  137.5688   76.7675  221.8417 H   0  0  0  0  0  0  0  0  0  0  0  0
  138.3369   77.5402  223.2969 H   0  0  0  0  0  0  0  0  0  0  0  0
  138.0414   78.4765  220.5262 H   0  0  0  0  0  0  0  0  0  0  0  0
  137.9047   79.3018  222.2092 H   0  0  0  0  0  0  0  0  0  0  0  0
  1  2  1  0
  2  3  1  0
  3  4  2  0
  3  5  1  0
  5  6  1  0
  6  7  2  0
  7  8  1  0
  8  9  2  0
  9 10  1  0
 10 11  2  0
  5 12  1  0
 12 13  1  0
 13 14  1  0
 14 15  1  0
 15 16  1  0
 16 17  2  0
 16 18  1  0
 18 19  1  0
 18 20  1  0
 20 21  1  0
 21 22  2  0
 22 23  1  0
 23 24  2  0
 24 25  1  0
 25 26  2  0
 26 27  1  0
 27 28  2  0
 28 29  1  0
 29 30  2  0
 30 31  1  0
 31 32  2  0
 15 33  1  0
 33 34  1  0
 11  6  1  0
 34 12  1  0
 26 21  1  0
 32 27  1  0
  1 35  1  0
  1 36  1  0
  1 37  1  0
  2 38  1  0
  2 39  1  0
  7 40  1  0
  8 41  1  0
  9 42  1  0
 10 43  1  0
 11 44  1  0
 12 45  1  0
 13 46  1  0
 13 47  1  0
 14 48  1  0
 14 49  1  0
 18 50  1  1
 19 51  1  0
 19 52  1  0
 20 53  1  0
 20 54  1  0
 22 55  1  0
 23 56  1  0
 24 57  1  0
 25 58  1  0
 28 59  1  0
 29 60  1  0
 30 61  1  0
 31 62  1  0
 32 63  1  0
 33 64  1  0
 33 65  1  0
 34 66  1  0
 34 67  1  0
M  END
>  <smiles>  (27) 
CCC(=O)N(c1ccccc1)C1CCN(C(=O)[C@@H](N)Cc2ccccc2-c2ccccc2)CC1

>  <score_type>  (27) 
oracle

>  <origin>  (27) 
autodockgpu

>  <m_score__min__energy>  (27) 
-8.6899999999999995

>  <m_primary>  (27) 
energy

>  <rmsd>  (27) 
3.5693675832936407

>  <m_score__min__rmsd>  (27) 
3.5693675832936407

>  <meeko>  (27) 
{"free_energy": -7.69, "intermolecular_energy": -10.38, "internal_energy": -3.2, "cluster_size": 3, "cluster_id": 4, "rank_in_cluster": 2}

>  <energy>  (27) 
-8.11

>  <cluster_rmsd>  (27) 
0.0

>  <cluster>  (27) 
3

$$$$

     RDKit          3D

 67 70  0  0  0  0  0  0  0  0999 V2000
  146.4430   73.0180  222.0340 C   0  0  0  0  0  0  0  0  0  0  0  0
  145.9850   74.0140  221.0120 C   0  0  0  0  0  0  0  0  0  0  0  0
  145.7390   73.4150  219.6700 C   0  0  0  0  0  0  0  0  0  0  0  0
  146.6720   73.3910  218.8280 O   0  0  0  0  0  0  0  0  0  0  0  0
  144.4560   72.8760  219.3480 N   0  0  0  0  0  0  0  0  0  0  0  0
  144.3480   71.4500  219.3970 C   0  0  0  0  0  0  0  0  0  0  0  0
  145.4180   70.6080  219.2120 C   0  0  0  0  0  0  0  0  0  0  0  0
  145.1960   69.2500  219.2710 C   0  0  0  0  0  0  0  0  0  0  0  0
  143.9420   68.7090  219.5060 C   0  0  0  0  0  0  0  0  0  0  0  0
  142.8600   69.5620  219.6920 C   0  0  0  0  0  0  0  0  0  0  0  0
  143.0720   70.9440  219.6350 C   0  0  0  0  0  0  0  0  0  0  0  0
  143.3140   73.7270  219.0010 C   0  0  0  0  0  0  0  0  0  0  0  0
  143.0820   74.7510  220.0450 C   0  0  0  0  0  0  0  0  0  0  0  0
  143.4230   76.1710  219.6770 C   0  0  0  0  0  0  0  0  0  0  0  0
  143.2270   76.4770  218.2690 N   0  0  0  0  0  0  0  0  0  0  0  0
  142.6970   77.7800  217.8630 C   0  0  0  0  0  0  0  0  0  0  0  0
  142.4490   77.8620  216.6380 O   0  0  0  0  0  0  0  0  0  0  0  0
  142.4800   78.8670  218.7920 C   0  0  1  0  0  0  0  0  0  0  0  0
  142.5430   80.1610  218.0660 N   0  0  0  0  0  0  0  0  0  0  0  0
  141.2800   78.8220  219.6720 C   0  0  0  0  0  0  0  0  0  0  0  0
  141.4940   79.1050  221.0890 C   0  0  0  0  0  0  0  0  0  0  0  0
  142.2660   80.2530  221.3650 C   0  0  0  0  0  0  0  0  0  0  0  0
  142.4720   80.7080  222.6430 C   0  0  0  0  0  0  0  0  0  0  0  0
  141.9340   80.0610  223.7380 C   0  0  0  0  0  0  0  0  0  0  0  0
  141.1820   78.9380  223.4820 C   0  0  0  0  0  0  0  0  0  0  0  0
  140.9720   78.4710  222.1690 C   0  0  0  0  0  0  0  0  0  0  0  0
  140.2640   77.1860  222.1180 C   0  0  0  0  0  0  0  0  0  0  0  0
  140.8870   75.9960  221.8160 C   0  0  0  0  0  0  0  0  0  0  0  0
  140.1750   74.7900  221.7300 C   0  0  0  0  0  0  0  0  0  0  0  0
  138.8030   74.7990  221.9570 C   0  0  0  0  0  0  0  0  0  0  0  0
  138.1480   75.9930  222.2640 C   0  0  0  0  0  0  0  0  0  0  0  0
  138.8850   77.1550  222.3380 C   0  0  0  0  0  0  0  0  0  0  0  0
  143.5830   75.5380  217.2270 C   0  0  0  0  0  0  0  0  0  0  0  0
  143.2580   74.1560  217.5880 C   0  0  0  0  0  0  0  0  0  0  0  0
  146.2596   73.4169  223.0426 H   0  0  0  0  0  0  0  0  0  0  0  0
  145.8868   72.0778  221.9047 H   0  0  0  0  0  0  0  0  0  0  0  0
  147.5188   72.8283  221.9047 H   0  0  0  0  0  0  0  0  0  0  0  0
  145.0496   74.4718  221.3662 H   0  0  0  0  0  0  0  0  0  0  0  0
  146.7915   74.7528  220.8947 H   0  0  0  0  0  0  0  0  0  0  0  0
  146.4250   71.0079  219.0219 H   0  0  0  0  0  0  0  0  0  0  0  0
  146.0471   68.5684  219.1259 H   0  0  0  0  0  0  0  0  0  0  0  0
  143.8044   67.6183  219.5449 H   0  0  0  0  0  0  0  0  0  0  0  0
  141.8546   69.1575  219.8807 H   0  0  0  0  0  0  0  0  0  0  0  0
  142.2274   71.6339  219.7787 H   0  0  0  0  0  0  0  0  0  0  0  0
  142.4074   73.1044  219.0233 H   0  0  0  0  0  0  0  0  0  0  0  0
  142.0153   74.7213  220.3119 H   0  0  0  0  0  0  0  0  0  0  0  0
  143.7645   74.4901  220.8673 H   0  0  0  0  0  0  0  0  0  0  0  0
  142.7871   76.8449  220.2699 H   0  0  0  0  0  0  0  0  0  0  0  0
  144.4939   76.3076  219.8879 H   0  0  0  0  0  0  0  0  0  0  0  0
  143.3008   78.7473  219.5145 H   0  0  0  0  0  0  0  0  0  0  0  0
  142.8640   80.9300  218.6660 H   0  0  0  0  0  0  0  0  0  0  0  0
  142.9530   80.0740  217.1350 H   0  0  0  0  0  0  0  0  0  0  0  0
  140.5589   79.5596  219.2901 H   0  0  0  0  0  0  0  0  0  0  0  0
  140.9336   77.7786  219.6349 H   0  0  0  0  0  0  0  0  0  0  0  0
  142.7186   80.8025  220.5265 H   0  0  0  0  0  0  0  0  0  0  0  0
  143.0809   81.6107  222.7992 H   0  0  0  0  0  0  0  0  0  0  0  0
  142.0985   80.4252  224.7629 H   0  0  0  0  0  0  0  0  0  0  0  0
  140.7330   78.3904  224.3237 H   0  0  0  0  0  0  0  0  0  0  0  0
  141.9724   75.9905  221.6373 H   0  0  0  0  0  0  0  0  0  0  0  0
  140.6943   73.8514  221.4866 H   0  0  0  0  0  0  0  0  0  0  0  0
  138.2314   73.8613  221.8944 H   0  0  0  0  0  0  0  0  0  0  0  0
  137.0628   76.0060  222.4437 H   0  0  0  0  0  0  0  0  0  0  0  0
  138.3671   78.0949  222.5798 H   0  0  0  0  0  0  0  0  0  0  0  0
  143.0349   75.8023  216.3106 H   0  0  0  0  0  0  0  0  0  0  0  0
  144.6710   75.5992  217.0768 H   0  0  0  0  0  0  0  0  0  0  0  0
  142.2309   73.9706  217.2407 H   0  0  0  0  0  0  0  0  0  0  0  0
  144.0648   73.5759  217.1163 H   0  0  0  0  0  0  0  0  0  0  0  0
  1  2  1  0
  2  3  1  0
  3  4  2  0
  3  5  1  0
  5  6  1  0
  6  7  2  0
  7  8  1  0
  8  9  2  0
  9 10  1  0
 10 11  2  0
  5 12  1  0
 12 13  1  0
 13 14  1  0
 14 15  1  0
 15 16  1  0
 16 17  2  0
 16 18  1  0
 18 19  1  0
 18 20  1  0
 20 21  1  0
 21 22  2  0
 22 23  1  0
 23 24  2  0
 24 25  1  0
 25 26  2  0
 26 27  1  0
 27 28  2  0
 28 29  1  0
 29 30  2  0
 30 31  1  0
 31 32  2  0
 15 33  1  0
 33 34  1  0
 11  6  1  0
 34 12  1  0
 26 21  1  0
 32 27  1  0
  1 35  1  0
  1 36  1  0
  1 37  1  0
  2 38  1  0
  2 39  1  0
  7 40  1  0
  8 41  1  0
  9 42  1  0
 10 43  1  0
 11 44  1  0
 12 45  1  0
 13 46  1  0
 13 47  1  0
 14 48  1  0
 14 49  1  0
 18 50  1  1
 19 51  1  0
 19 52  1  0
 20 53  1  0
 20 54  1  0
 22 55  1  0
 23 56  1  0
 24 57  1  0
 25 58  1  0
 28 59  1  0
 29 60  1  0
 30 61  1  0
 31 62  1  0
 32 63  1  0
 33 64  1  0
 33 65  1  0
 34 66  1  0
 34 67  1  0
M  END
>  <smiles>  (28) 
CCC(=O)N(c1ccccc1)C1CCN(C(=O)[C@@H](N)Cc2ccccc2-c2ccccc2)CC1

>  <score_type>  (28) 
oracle

>  <origin>  (28) 
autodockgpu

>  <m_score__min__energy>  (28) 
-8.6899999999999995

>  <m_primary>  (28) 
energy

>  <rmsd>  (28) 
6.160398331599939

>  <m_score__min__rmsd>  (28) 
6.160398331599939

>  <meeko>  (28) 
{"free_energy": -8.38, "intermolecular_energy": -11.06, "internal_energy": -3.12, "cluster_size": 13, "cluster_id": 1, "rank_in_cluster": 8}

>  <energy>  (28) 
-8.01

>  <cluster_rmsd>  (28) 
0.5

>  <cluster>  (28) 
3

$$$$

     RDKit          3D

 67 70  0  0  0  0  0  0  0  0999 V2000
  145.7160   73.0590  221.6220 C   0  0  0  0  0  0  0  0  0  0  0  0
  146.3270   73.6920  220.4090 C   0  0  0  0  0  0  0  0  0  0  0  0
  145.6810   73.2710  219.1330 C   0  0  0  0  0  0  0  0  0  0  0  0
  146.3350   73.3400  218.0630 O   0  0  0  0  0  0  0  0  0  0  0  0
  144.3340   72.7960  219.1320 N   0  0  0  0  0  0  0  0  0  0  0  0
  144.1710   71.3830  219.2940 C   0  0  0  0  0  0  0  0  0  0  0  0
  142.9650   70.7940  219.5910 C   0  0  0  0  0  0  0  0  0  0  0  0
  142.9280   69.4250  219.7340 C   0  0  0  0  0  0  0  0  0  0  0  0
  144.0530   68.6280  219.5910 C   0  0  0  0  0  0  0  0  0  0  0  0
  145.2720   69.2260  219.2900 C   0  0  0  0  0  0  0  0  0  0  0  0
  145.3240   70.6160  219.1420 C   0  0  0  0  0  0  0  0  0  0  0  0
  143.1860   73.6960  218.9880 C   0  0  0  0  0  0  0  0  0  0  0  0
  143.2540   74.7980  219.9740 C   0  0  0  0  0  0  0  0  0  0  0  0
  143.5690   76.1660  219.4280 C   0  0  0  0  0  0  0  0  0  0  0  0
  143.0690   76.3910  218.0820 N   0  0  0  0  0  0  0  0  0  0  0  0
  142.5240   77.6980  217.7060 C   0  0  0  0  0  0  0  0  0  0  0  0
  142.0020   77.7160  216.5670 O   0  0  0  0  0  0  0  0  0  0  0  0
  142.5810   78.8550  218.5710 C   0  0  1  0  0  0  0  0  0  0  0  0
  142.9760   80.0480  217.7800 N   0  0  0  0  0  0  0  0  0  0  0  0
  141.4030   79.1640  219.4260 C   0  0  0  0  0  0  0  0  0  0  0  0
  140.9830   78.1270  220.3660 C   0  0  0  0  0  0  0  0  0  0  0  0
  140.4160   76.9760  219.7800 C   0  0  0  0  0  0  0  0  0  0  0  0
  140.0640   75.8750  220.5180 C   0  0  0  0  0  0  0  0  0  0  0  0
  140.2450   75.8330  221.8870 C   0  0  0  0  0  0  0  0  0  0  0  0
  140.7950   76.9510  222.4710 C   0  0  0  0  0  0  0  0  0  0  0  0
  141.1550   78.0820  221.7110 C   0  0  0  0  0  0  0  0  0  0  0  0
  141.5910   79.2160  222.5340 C   0  0  0  0  0  0  0  0  0  0  0  0
  140.7140   80.1150  223.1000 C   0  0  0  0  0  0  0  0  0  0  0  0
  141.1640   81.2170  223.8430 C   0  0  0  0  0  0  0  0  0  0  0  0
  142.5310   81.4040  224.0130 C   0  0  0  0  0  0  0  0  0  0  0  0
  143.4400   80.5060  223.4490 C   0  0  0  0  0  0  0  0  0  0  0  0
  142.9560   79.4380  222.7250 C   0  0  0  0  0  0  0  0  0  0  0  0
  143.1260   75.3660  217.0630 C   0  0  0  0  0  0  0  0  0  0  0  0
  142.8260   74.0340  217.5960 C   0  0  0  0  0  0  0  0  0  0  0  0
  146.1495   73.5081  222.5277 H   0  0  0  0  0  0  0  0  0  0  0  0
  144.6288   73.2258  221.6144 H   0  0  0  0  0  0  0  0  0  0  0  0
  145.9212   71.9783  221.6144 H   0  0  0  0  0  0  0  0  0  0  0  0
  146.2359   74.7842  220.5023 H   0  0  0  0  0  0  0  0  0  0  0  0
  147.3763   73.3648  220.3654 H   0  0  0  0  0  0  0  0  0  0  0  0
  142.0546   71.3996  219.7111 H   0  0  0  0  0  0  0  0  0  0  0  0
  141.9673   68.9447  219.9712 H   0  0  0  0  0  0  0  0  0  0  0  0
  143.9826   67.5372  219.7140 H   0  0  0  0  0  0  0  0  0  0  0  0
  146.1797   68.6163  219.1703 H   0  0  0  0  0  0  0  0  0  0  0  0
  146.2799   71.1058  218.9045 H   0  0  0  0  0  0  0  0  0  0  0  0
  142.2785   73.1390  219.2642 H   0  0  0  0  0  0  0  0  0  0  0  0
  142.2787   74.8557  220.4794 H   0  0  0  0  0  0  0  0  0  0  0  0
  144.0956   74.5465  220.6361 H   0  0  0  0  0  0  0  0  0  0  0  0
  143.1200   76.9170  220.0946 H   0  0  0  0  0  0  0  0  0  0  0  0
  144.6650   76.2465  219.3797 H   0  0  0  0  0  0  0  0  0  0  0  0
  143.3385   78.5724  219.3169 H   0  0  0  0  0  0  0  0  0  0  0  0
  143.8230   80.4970  218.1470 H   0  0  0  0  0  0  0  0  0  0  0  0
  142.9100   79.8960  216.7730 H   0  0  0  0  0  0  0  0  0  0  0  0
  141.6421   80.0654  220.0094 H   0  0  0  0  0  0  0  0  0  0  0  0
  140.5612   79.2782  218.7272 H   0  0  0  0  0  0  0  0  0  0  0  0
  140.2503   76.9610  218.6927 H   0  0  0  0  0  0  0  0  0  0  0  0
  139.6269   75.0042  220.0075 H   0  0  0  0  0  0  0  0  0  0  0  0
  139.9636   74.9504  222.4802 H   0  0  0  0  0  0  0  0  0  0  0  0
  140.9579   76.9623  223.5588 H   0  0  0  0  0  0  0  0  0  0  0  0
  139.6325   79.9650  222.9660 H   0  0  0  0  0  0  0  0  0  0  0  0
  140.4453   81.9229  224.2847 H   0  0  0  0  0  0  0  0  0  0  0  0
  142.8983   82.2627  224.5941 H   0  0  0  0  0  0  0  0  0  0  0  0
  144.5228   80.6487  223.5804 H   0  0  0  0  0  0  0  0  0  0  0  0
  143.6734   78.7327  222.2801 H   0  0  0  0  0  0  0  0  0  0  0  0
  142.3934   75.6062  216.2784 H   0  0  0  0  0  0  0  0  0  0  0  0
  144.1507   75.3455  216.6635 H   0  0  0  0  0  0  0  0  0  0  0  0
  141.7386   73.8940  217.5065 H   0  0  0  0  0  0  0  0  0  0  0  0
  143.4725   73.3725  217.0005 H   0  0  0  0  0  0  0  0  0  0  0  0
  1  2  1  0
  2  3  1  0
  3  4  2  0
  3  5  1  0
  5  6  1  0
  6  7  2  0
  7  8  1  0
  8  9  2  0
  9 10  1  0
 10 11  2  0
  5 12  1  0
 12 13  1  0
 13 14  1  0
 14 15  1  0
 15 16  1  0
 16 17  2  0
 16 18  1  0
 18 19  1  0
 18 20  1  0
 20 21  1  0
 21 22  2  0
 22 23  1  0
 23 24  2  0
 24 25  1  0
 25 26  2  0
 26 27  1  0
 27 28  2  0
 28 29  1  0
 29 30  2  0
 30 31  1  0
 31 32  2  0
 15 33  1  0
 33 34  1  0
 11  6  1  0
 34 12  1  0
 26 21  1  0
 32 27  1  0
  1 35  1  0
  1 36  1  0
  1 37  1  0
  2 38  1  0
  2 39  1  0
  7 40  1  0
  8 41  1  0
  9 42  1  0
 10 43  1  0
 11 44  1  0
 12 45  1  0
 13 46  1  0
 13 47  1  0
 14 48  1  0
 14 49  1  0
 18 50  1  1
 19 51  1  0
 19 52  1  0
 20 53  1  0
 20 54  1  0
 22 55  1  0
 23 56  1  0
 24 57  1  0
 25 58  1  0
 28 59  1  0
 29 60  1  0
 30 61  1  0
 31 62  1  0
 32 63  1  0
 33 64  1  0
 33 65  1  0
 34 66  1  0
 34 67  1  0
M  END
>  <smiles>  (29) 
CCC(=O)N(c1ccccc1)C1CCN(C(=O)[C@@H](N)Cc2ccccc2-c2ccccc2)CC1

>  <score_type>  (29) 
oracle

>  <origin>  (29) 
autodockgpu

>  <m_score__min__energy>  (29) 
-8.6899999999999995

>  <m_primary>  (29) 
energy

>  <rmsd>  (29) 
5.774051830612283

>  <m_score__min__rmsd>  (29) 
5.774051830612283

>  <meeko>  (29) 
{"free_energy": -8.44, "intermolecular_energy": -11.12, "internal_energy": -3.23, "cluster_size": 13, "cluster_id": 1, "rank_in_cluster": 7}

>  <energy>  (29) 
-7.9

>  <cluster_rmsd>  (29) 
0.54

>  <cluster>  (29) 
3

$$$$

     RDKit          3D

 67 70  0  0  0  0  0  0  0  0999 V2000
  145.4700   74.1570  220.8030 C   0  0  0  0  0  0  0  0  0  0  0  0
  145.7370   72.6940  220.6190 C   0  0  0  0  0  0  0  0  0  0  0  0
  145.1690   72.1430  219.3560 C   0  0  0  0  0  0  0  0  0  0  0  0
  145.5720   72.5920  218.2540 O   0  0  0  0  0  0  0  0  0  0  0  0
  144.1760   71.1170  219.4020 N   0  0  0  0  0  0  0  0  0  0  0  0
  144.6600   69.7750  219.2820 C   0  0  0  0  0  0  0  0  0  0  0  0
  145.9700   69.4710  218.9990 C   0  0  0  0  0  0  0  0  0  0  0  0
  146.3220   68.1430  218.8970 C   0  0  0  0  0  0  0  0  0  0  0  0
  145.4090   67.1140  219.0640 C   0  0  0  0  0  0  0  0  0  0  0  0
  144.0840   67.4240  219.3490 C   0  0  0  0  0  0  0  0  0  0  0  0
  143.7120   68.7690  219.4570 C   0  0  0  0  0  0  0  0  0  0  0  0
  142.7510   71.4130  219.5760 C   0  0  0  0  0  0  0  0  0  0  0  0
  142.4740   71.8840  220.9520 C   0  0  0  0  0  0  0  0  0  0  0  0
  142.1310   73.3420  221.1040 C   0  0  0  0  0  0  0  0  0  0  0  0
  141.4260   73.9020  219.9620 N   0  0  0  0  0  0  0  0  0  0  0  0
  140.3510   74.8770  220.1640 C   0  0  0  0  0  0  0  0  0  0  0  0
  139.7380   75.1730  219.1130 O   0  0  0  0  0  0  0  0  0  0  0  0
  140.0290   75.4390  221.4560 C   0  0  1  0  0  0  0  0  0  0  0  0
  139.4410   74.3870  222.3230 N   0  0  0  0  0  0  0  0  0  0  0  0
  141.0840   76.1890  222.1900 C   0  0  0  0  0  0  0  0  0  0  0  0
  141.1120   77.6380  222.0030 C   0  0  0  0  0  0  0  0  0  0  0  0
  140.5700   78.3920  223.0640 C   0  0  0  0  0  0  0  0  0  0  0  0
  140.6120   79.7630  223.0840 C   0  0  0  0  0  0  0  0  0  0  0  0
  141.1900   80.4860  222.0590 C   0  0  0  0  0  0  0  0  0  0  0  0
  141.7200   79.7600  221.0170 C   0  0  0  0  0  0  0  0  0  0  0  0
  141.6750   78.3520  220.9960 C   0  0  0  0  0  0  0  0  0  0  0  0
  142.1640   77.7760  219.7380 C   0  0  0  0  0  0  0  0  0  0  0  0
  141.6880   78.1540  218.5030 C   0  0  0  0  0  0  0  0  0  0  0  0
  142.1430   77.5510  217.3200 C   0  0  0  0  0  0  0  0  0  0  0  0
  143.1010   76.5460  217.4000 C   0  0  0  0  0  0  0  0  0  0  0  0
  143.5990   76.1450  218.6410 C   0  0  0  0  0  0  0  0  0  0  0  0
  143.1250   76.7630  219.7780 C   0  0  0  0  0  0  0  0  0  0  0  0
  141.7810   73.5600  218.6030 C   0  0  0  0  0  0  0  0  0  0  0  0
  142.1210   72.1420  218.4560 C   0  0  0  0  0  0  0  0  0  0  0  0
  145.4275   74.3897  221.8773 H   0  0  0  0  0  0  0  0  0  0  0  0
  146.2768   74.7389  220.3334 H   0  0  0  0  0  0  0  0  0  0  0  0
  144.5097   74.4164  220.3334 H   0  0  0  0  0  0  0  0  0  0  0  0
  146.8257   72.5367  220.6095 H   0  0  0  0  0  0  0  0  0  0  0  0
  145.2481   72.1674  221.4519 H   0  0  0  0  0  0  0  0  0  0  0  0
  146.7169   70.2661  218.8578 H   0  0  0  0  0  0  0  0  0  0  0  0
  147.3690   67.8895  218.6743 H   0  0  0  0  0  0  0  0  0  0  0  0
  145.7285   66.0654  218.9722 H   0  0  0  0  0  0  0  0  0  0  0  0
  143.3403   66.6254  219.4873 H   0  0  0  0  0  0  0  0  0  0  0  0
  142.6678   69.0327  219.6808 H   0  0  0  0  0  0  0  0  0  0  0  0
  142.1948   70.4675  219.4944 H   0  0  0  0  0  0  0  0  0  0  0  0
  141.6283   71.2988  221.3422 H   0  0  0  0  0  0  0  0  0  0  0  0
  143.4159   71.7464  221.5032 H   0  0  0  0  0  0  0  0  0  0  0  0
  141.4956   73.4576  221.9944 H   0  0  0  0  0  0  0  0  0  0  0  0
  143.0824   73.8872  221.1915 H   0  0  0  0  0  0  0  0  0  0  0  0
  139.3106   76.2349  221.2102 H   0  0  0  0  0  0  0  0  0  0  0  0
  138.6740   74.7440  222.9050 H   0  0  0  0  0  0  0  0  0  0  0  0
  139.3010   73.5020  221.8340 H   0  0  0  0  0  0  0  0  0  0  0  0
  140.9449   75.9945  223.2637 H   0  0  0  0  0  0  0  0  0  0  0  0
  142.0364   75.8264  221.7760 H   0  0  0  0  0  0  0  0  0  0  0  0
  140.0973   77.8627  223.9045 H   0  0  0  0  0  0  0  0  0  0  0  0
  140.1741   80.3002  223.9382 H   0  0  0  0  0  0  0  0  0  0  0  0
  141.2249   81.5853  222.0747 H   0  0  0  0  0  0  0  0  0  0  0  0
  142.1913   80.2932  220.1782 H   0  0  0  0  0  0  0  0  0  0  0  0
  140.9310   78.9497  218.4415 H   0  0  0  0  0  0  0  0  0  0  0  0
  141.7477   77.8687  216.3439 H   0  0  0  0  0  0  0  0  0  0  0  0
  143.4679   76.0649  216.4813 H   0  0  0  0  0  0  0  0  0  0  0  0
  144.3561   75.3500  218.7101 H   0  0  0  0  0  0  0  0  0  0  0  0
  143.5188   76.4462  220.7550 H   0  0  0  0  0  0  0  0  0  0  0  0
  140.9286   73.7891  217.9466 H   0  0  0  0  0  0  0  0  0  0  0  0
  142.6690   74.1487  218.3293 H   0  0  0  0  0  0  0  0  0  0  0  0
  141.1853   71.6140  218.2199 H   0  0  0  0  0  0  0  0  0  0  0  0
  142.9062   72.1490  217.6857 H   0  0  0  0  0  0  0  0  0  0  0  0
  1  2  1  0
  2  3  1  0
  3  4  2  0
  3  5  1  0
  5  6  1  0
  6  7  2  0
  7  8  1  0
  8  9  2  0
  9 10  1  0
 10 11  2  0
  5 12  1  0
 12 13  1  0
 13 14  1  0
 14 15  1  0
 15 16  1  0
 16 17  2  0
 16 18  1  0
 18 19  1  0
 18 20  1  0
 20 21  1  0
 21 22  2  0
 22 23  1  0
 23 24  2  0
 24 25  1  0
 25 26  2  0
 26 27  1  0
 27 28  2  0
 28 29  1  0
 29 30  2  0
 30 31  1  0
 31 32  2  0
 15 33  1  0
 33 34  1  0
 11  6  1  0
 34 12  1  0
 26 21  1  0
 32 27  1  0
  1 35  1  0
  1 36  1  0
  1 37  1  0
  2 38  1  0
  2 39  1  0
  7 40  1  0
  8 41  1  0
  9 42  1  0
 10 43  1  0
 11 44  1  0
 12 45  1  0
 13 46  1  0
 13 47  1  0
 14 48  1  0
 14 49  1  0
 18 50  1  6
 19 51  1  0
 19 52  1  0
 20 53  1  0
 20 54  1  0
 22 55  1  0
 23 56  1  0
 24 57  1  0
 25 58  1  0
 28 59  1  0
 29 60  1  0
 30 61  1  0
 31 62  1  0
 32 63  1  0
 33 64  1  0
 33 65  1  0
 34 66  1  0
 34 67  1  0
M  END
>  <smiles>  (30) 
CCC(=O)N(c1ccccc1)C1CCN(C(=O)[C@@H](N)Cc2ccccc2-c2ccccc2)CC1

>  <score_type>  (30) 
oracle

>  <origin>  (30) 
autodockgpu

>  <m_score__min__energy>  (30) 
-8.6899999999999995

>  <m_primary>  (30) 
energy

>  <rmsd>  (30) 
6.907037101363758

>  <m_score__min__rmsd>  (30) 
6.907037101363758

>  <meeko>  (30) 
{"free_energy": -7.93, "intermolecular_energy": -10.62, "internal_energy": -3.32, "cluster_size": 13, "cluster_id": 2, "rank_in_cluster": 8}

>  <energy>  (30) 
-7.76

>  <cluster_rmsd>  (30) 
0.48

>  <cluster>  (30) 
3

$$$$

     RDKit          3D

 67 70  0  0  0  0  0  0  0  0999 V2000
  142.5370   80.8410  218.0450 C   0  0  0  0  0  0  0  0  0  0  0  0
  141.2890   81.6270  218.3120 C   0  0  0  0  0  0  0  0  0  0  0  0
  141.0000   81.8020  219.7640 C   0  0  0  0  0  0  0  0  0  0  0  0
  140.8150   82.9590  220.2170 O   0  0  0  0  0  0  0  0  0  0  0  0
  140.9360   80.6650  220.6260 N   0  0  0  0  0  0  0  0  0  0  0  0
  141.5910   80.8030  221.8910 C   0  0  0  0  0  0  0  0  0  0  0  0
  141.0770   81.5460  222.9270 C   0  0  0  0  0  0  0  0  0  0  0  0
  141.8000   81.6170  224.0970 C   0  0  0  0  0  0  0  0  0  0  0  0
  143.0150   80.9730  224.2640 C   0  0  0  0  0  0  0  0  0  0  0  0
  143.5330   80.2230  223.2150 C   0  0  0  0  0  0  0  0  0  0  0  0
  142.8100   80.1410  222.0200 C   0  0  0  0  0  0  0  0  0  0  0  0
  140.2330   79.4350  220.2490 C   0  0  0  0  0  0  0  0  0  0  0  0
  141.1930   78.3740  219.8700 C   0  0  0  0  0  0  0  0  0  0  0  0
  141.3360   77.2260  220.8340 C   0  0  0  0  0  0  0  0  0  0  0  0
  140.1150   76.9110  221.5580 N   0  0  0  0  0  0  0  0  0  0  0  0
  139.7620   75.5170  221.8390 C   0  0  0  0  0  0  0  0  0  0  0  0
  138.6240   75.3790  222.3440 O   0  0  0  0  0  0  0  0  0  0  0  0
  140.6450   74.4070  221.5560 C   0  0  1  0  0  0  0  0  0  0  0  0
  140.4040   73.3190  222.5370 N   0  0  0  0  0  0  0  0  0  0  0  0
  140.6820   73.8620  220.1720 C   0  0  0  0  0  0  0  0  0  0  0  0
  141.3360   74.6860  219.1580 C   0  0  0  0  0  0  0  0  0  0  0  0
  140.4660   75.4280  218.3330 C   0  0  0  0  0  0  0  0  0  0  0  0
  140.9260   76.3240  217.4010 C   0  0  0  0  0  0  0  0  0  0  0  0
  142.2770   76.5480  217.2170 C   0  0  0  0  0  0  0  0  0  0  0  0
  143.1350   75.8280  218.0140 C   0  0  0  0  0  0  0  0  0  0  0  0
  142.6610   74.9070  218.9700 C   0  0  0  0  0  0  0  0  0  0  0  0
  143.7330   74.1410  219.6170 C   0  0  0  0  0  0  0  0  0  0  0  0
  143.8800   72.7810  219.4670 C   0  0  0  0  0  0  0  0  0  0  0  0
  144.8880   72.0690  220.1360 C   0  0  0  0  0  0  0  0  0  0  0  0
  145.7610   72.7570  220.9700 C   0  0  0  0  0  0  0  0  0  0  0  0
  145.6320   74.1380  221.1390 C   0  0  0  0  0  0  0  0  0  0  0  0
  144.6280   74.7980  220.4650 C   0  0  0  0  0  0  0  0  0  0  0  0
  139.2370   77.9440  222.0610 C   0  0  0  0  0  0  0  0  0  0  0  0
  139.1030   79.0650  221.1260 C   0  0  0  0  0  0  0  0  0  0  0  0
  142.9986   80.5503  219.0002 H   0  0  0  0  0  0  0  0  0  0  0  0
  142.2855   79.9380  217.4694 H   0  0  0  0  0  0  0  0  0  0  0  0
  143.2428   81.4579  217.4694 H   0  0  0  0  0  0  0  0  0  0  0  0
  141.3990   82.6219  217.8558 H   0  0  0  0  0  0  0  0  0  0  0  0
  140.4501   81.0622  217.8792 H   0  0  0  0  0  0  0  0  0  0  0  0
  140.1149   82.0693  222.8244 H   0  0  0  0  0  0  0  0  0  0  0  0
  141.3966   82.2086  224.9320 H   0  0  0  0  0  0  0  0  0  0  0  0
  143.5626   81.0542  225.2145 H   0  0  0  0  0  0  0  0  0  0  0  0
  144.4959   79.7022  223.3225 H   0  0  0  0  0  0  0  0  0  0  0  0
  143.2054   79.5518  221.1795 H   0  0  0  0  0  0  0  0  0  0  0  0
  139.6691   79.6341  219.3258 H   0  0  0  0  0  0  0  0  0  0  0  0
  140.8708   77.9609  218.9028 H   0  0  0  0  0  0  0  0  0  0  0  0
  142.1777   78.8639  219.8503 H   0  0  0  0  0  0  0  0  0  0  0  0
  141.6432   76.3342  220.2680 H   0  0  0  0  0  0  0  0  0  0  0  0
  142.0831   77.5280  221.5827 H   0  0  0  0  0  0  0  0  0  0  0  0
  141.6465   74.8511  221.6547 H   0  0  0  0  0  0  0  0  0  0  0  0
  139.5710   73.4890  223.1120 H   0  0  0  0  0  0  0  0  0  0  0  0
  140.5300   72.3880  222.1360 H   0  0  0  0  0  0  0  0  0  0  0  0
  141.2093   72.8973  220.2080 H   0  0  0  0  0  0  0  0  0  0  0  0
  139.6295   73.7999  219.8583 H   0  0  0  0  0  0  0  0  0  0  0  0
  139.3808   75.2836  218.4402 H   0  0  0  0  0  0  0  0  0  0  0  0
  140.2016   76.8774  216.7854 H   0  0  0  0  0  0  0  0  0  0  0  0
  142.6472   77.2661  216.4705 H   0  0  0  0  0  0  0  0  0  0  0  0
  144.2195   75.9744  217.9028 H   0  0  0  0  0  0  0  0  0  0  0  0
  143.1894   72.2375  218.8054 H   0  0  0  0  0  0  0  0  0  0  0  0
  144.9855   70.9816  220.0019 H   0  0  0  0  0  0  0  0  0  0  0  0
  146.5567   72.2123  221.4992 H   0  0  0  0  0  0  0  0  0  0  0  0
  146.3196   74.6882  221.7982 H   0  0  0  0  0  0  0  0  0  0  0  0
  144.5271   75.8850  220.5998 H   0  0  0  0  0  0  0  0  0  0  0  0
  138.2422   77.5084  222.2357 H   0  0  0  0  0  0  0  0  0  0  0  0
  139.6746   78.3332  222.9921 H   0  0  0  0  0  0  0  0  0  0  0  0
  138.2540   78.8294  220.4675 H   0  0  0  0  0  0  0  0  0  0  0  0
  139.0020   79.9367  221.7894 H   0  0  0  0  0  0  0  0  0  0  0  0
  1  2  1  0
  2  3  1  0
  3  4  2  0
  3  5  1  0
  5  6  1  0
  6  7  2  0
  7  8  1  0
  8  9  2  0
  9 10  1  0
 10 11  2  0
  5 12  1  0
 12 13  1  0
 13 14  1  0
 14 15  1  0
 15 16  1  0
 16 17  2  0
 16 18  1  0
 18 19  1  0
 18 20  1  0
 20 21  1  0
 21 22  2  0
 22 23  1  0
 23 24  2  0
 24 25  1  0
 25 26  2  0
 26 27  1  0
 27 28  2  0
 28 29  1  0
 29 30  2  0
 30 31  1  0
 31 32  2  0
 15 33  1  0
 33 34  1  0
 11  6  1  0
 34 12  1  0
 26 21  1  0
 32 27  1  0
  1 35  1  0
  1 36  1  0
  1 37  1  0
  2 38  1  0
  2 39  1  0
  7 40  1  0
  8 41  1  0
  9 42  1  0
 10 43  1  0
 11 44  1  0
 12 45  1  0
 13 46  1  0
 13 47  1  0
 14 48  1  0
 14 49  1  0
 18 50  1  1
 19 51  1  0
 19 52  1  0
 20 53  1  0
 20 54  1  0
 22 55  1  0
 23 56  1  0
 24 57  1  0
 25 58  1  0
 28 59  1  0
 29 60  1  0
 30 61  1  0
 31 62  1  0
 32 63  1  0
 33 64  1  0
 33 65  1  0
 34 66  1  0
 34 67  1  0
M  END
>  <smiles>  (31) 
CCC(=O)N(c1ccccc1)C1CCN(C(=O)[C@@H](N)Cc2ccccc2-c2ccccc2)CC1

>  <score_type>  (31) 
oracle

>  <origin>  (31) 
autodockgpu

>  <m_score__min__energy>  (31) 
-8.6899999999999995

>  <m_primary>  (31) 
energy

>  <rmsd>  (31) 
3.254239417151964

>  <m_score__min__rmsd>  (31) 
3.254239417151964

>  <meeko>  (31) 
{"free_energy": -7.31, "intermolecular_energy": -9.99, "internal_energy": -3.63, "cluster_size": 8, "cluster_id": 5, "rank_in_cluster": 3}

>  <energy>  (31) 
-7.93

>  <cluster_rmsd>  (31) 
0.0

>  <cluster>  (31) 
4

$$$$

     RDKit          3D

 67 70  0  0  0  0  0  0  0  0999 V2000
  142.5110   72.4630  217.5080 C   0  0  0  0  0  0  0  0  0  0  0  0
  143.8900   73.0030  217.2760 C   0  0  0  0  0  0  0  0  0  0  0  0
  144.8590   72.6300  218.3450 C   0  0  0  0  0  0  0  0  0  0  0  0
  146.0330   73.0750  218.2910 O   0  0  0  0  0  0  0  0  0  0  0  0
  144.4540   71.7760  219.4160 N   0  0  0  0  0  0  0  0  0  0  0  0
  144.6790   70.3770  219.2170 C   0  0  0  0  0  0  0  0  0  0  0  0
  143.6670   69.4460  219.2090 C   0  0  0  0  0  0  0  0  0  0  0  0
  144.0020   68.1240  219.0170 C   0  0  0  0  0  0  0  0  0  0  0  0
  145.3100   67.7030  218.8370 C   0  0  0  0  0  0  0  0  0  0  0  0
  146.3310   68.6460  218.8470 C   0  0  0  0  0  0  0  0  0  0  0  0
  146.0060   69.9930  219.0400 C   0  0  0  0  0  0  0  0  0  0  0  0
  143.8570   72.2970  220.6500 C   0  0  0  0  0  0  0  0  0  0  0  0
  143.7890   73.7750  220.6200 C   0  0  0  0  0  0  0  0  0  0  0  0
  142.4180   74.3790  220.4700 C   0  0  0  0  0  0  0  0  0  0  0  0
  141.3580   73.5910  221.0770 N   0  0  0  0  0  0  0  0  0  0  0  0
  140.2470   74.2530  221.7650 C   0  0  0  0  0  0  0  0  0  0  0  0
  139.4810   73.4610  222.3600 O   0  0  0  0  0  0  0  0  0  0  0  0
  140.0570   75.6860  221.7580 C   0  0  1  0  0  0  0  0  0  0  0  0
  138.7210   76.0130  222.3160 N   0  0  0  0  0  0  0  0  0  0  0  0
  141.1030   76.5460  222.3750 C   0  0  0  0  0  0  0  0  0  0  0  0
  141.1910   77.9230  221.8940 C   0  0  0  0  0  0  0  0  0  0  0  0
  140.8920   78.9160  222.8510 C   0  0  0  0  0  0  0  0  0  0  0  0
  141.0250   80.2550  222.5830 C   0  0  0  0  0  0  0  0  0  0  0  0
  141.4590   80.7080  221.3530 C   0  0  0  0  0  0  0  0  0  0  0  0
  141.7510   79.7490  220.4110 C   0  0  0  0  0  0  0  0  0  0  0  0
  141.6130   78.3740  220.6860 C   0  0  0  0  0  0  0  0  0  0  0  0
  141.8370   77.5230  219.5110 C   0  0  0  0  0  0  0  0  0  0  0  0
  143.0910   77.1570  219.0770 C   0  0  0  0  0  0  0  0  0  0  0  0
  143.2750   76.3800  217.9230 C   0  0  0  0  0  0  0  0  0  0  0  0
  142.1610   75.9700  217.2000 C   0  0  0  0  0  0  0  0  0  0  0  0
  140.8780   76.3300  217.6200 C   0  0  0  0  0  0  0  0  0  0  0  0
  140.7420   77.0940  218.7580 C   0  0  0  0  0  0  0  0  0  0  0  0
  141.3360   72.1470  220.9920 C   0  0  0  0  0  0  0  0  0  0  0  0
  142.6710   71.5590  221.1320 C   0  0  0  0  0  0  0  0  0  0  0  0
  142.3232   72.3894  218.5893 H   0  0  0  0  0  0  0  0  0  0  0  0
  141.7715   73.1380  217.0524 H   0  0  0  0  0  0  0  0  0  0  0  0
  142.4265   71.4653  217.0524 H   0  0  0  0  0  0  0  0  0  0  0  0
  144.2609   72.6118  216.3171 H   0  0  0  0  0  0  0  0  0  0  0  0
  143.8133   74.1003  217.2755 H   0  0  0  0  0  0  0  0  0  0  0  0
  142.6192   69.7487  219.3520 H   0  0  0  0  0  0  0  0  0  0  0  0
  143.1991   67.3721  219.0061 H   0  0  0  0  0  0  0  0  0  0  0  0
  145.5371   66.6370  218.6883 H   0  0  0  0  0  0  0  0  0  0  0  0
  147.3775   68.3382  218.7055 H   0  0  0  0  0  0  0  0  0  0  0  0
  146.8020   70.7521  219.0520 H   0  0  0  0  0  0  0  0  0  0  0  0
  144.5421   72.0735  221.4811 H   0  0  0  0  0  0  0  0  0  0  0  0
  144.2184   74.1490  221.5612 H   0  0  0  0  0  0  0  0  0  0  0  0
  144.3408   74.0747  219.7169 H   0  0  0  0  0  0  0  0  0  0  0  0
  142.4239   75.3730  220.9411 H   0  0  0  0  0  0  0  0  0  0  0  0
  142.2050   74.4242  219.3918 H   0  0  0  0  0  0  0  0  0  0  0  0
  140.1451   75.9447  220.6925 H   0  0  0  0  0  0  0  0  0  0  0  0
  138.0860   76.4000  221.6080 H   0  0  0  0  0  0  0  0  0  0  0  0
  138.3620   75.2870  222.9380 H   0  0  0  0  0  0  0  0  0  0  0  0
  140.9079   76.5831  223.4569 H   0  0  0  0  0  0  0  0  0  0  0  0
  142.0600   76.0813  222.0952 H   0  0  0  0  0  0  0  0  0  0  0  0
  140.5402   78.6059  223.8460 H   0  0  0  0  0  0  0  0  0  0  0  0
  140.7797   80.9859  223.3676 H   0  0  0  0  0  0  0  0  0  0  0  0
  141.5658   81.7813  221.1373 H   0  0  0  0  0  0  0  0  0  0  0  0
  142.1014   80.0638  219.4170 H   0  0  0  0  0  0  0  0  0  0  0  0
  143.9720   77.4821  219.6498 H   0  0  0  0  0  0  0  0  0  0  0  0
  144.2868   76.0993  217.5952 H   0  0  0  0  0  0  0  0  0  0  0  0
  142.2899   75.3599  216.2938 H   0  0  0  0  0  0  0  0  0  0  0  0
  139.9924   76.0090  217.0520 H   0  0  0  0  0  0  0  0  0  0  0  0
  139.7312   77.3773  219.0866 H   0  0  0  0  0  0  0  0  0  0  0  0
  140.6918   71.7557  221.7932 H   0  0  0  0  0  0  0  0  0  0  0  0
  140.9523   71.8753  219.9976 H   0  0  0  0  0  0  0  0  0  0  0  0
  142.8260   71.3748  222.2053 H   0  0  0  0  0  0  0  0  0  0  0  0
  142.6321   70.6819  220.4693 H   0  0  0  0  0  0  0  0  0  0  0  0
  1  2  1  0
  2  3  1  0
  3  4  2  0
  3  5  1  0
  5  6  1  0
  6  7  2  0
  7  8  1  0
  8  9  2  0
  9 10  1  0
 10 11  2  0
  5 12  1  0
 12 13  1  0
 13 14  1  0
 14 15  1  0
 15 16  1  0
 16 17  2  0
 16 18  1  0
 18 19  1  0
 18 20  1  0
 20 21  1  0
 21 22  2  0
 22 23  1  0
 23 24  2  0
 24 25  1  0
 25 26  2  0
 26 27  1  0
 27 28  2  0
 28 29  1  0
 29 30  2  0
 30 31  1  0
 31 32  2  0
 15 33  1  0
 33 34  1  0
 11  6  1  0
 34 12  1  0
 26 21  1  0
 32 27  1  0
  1 35  1  0
  1 36  1  0
  1 37  1  0
  2 38  1  0
  2 39  1  0
  7 40  1  0
  8 41  1  0
  9 42  1  0
 10 43  1  0
 11 44  1  0
 12 45  1  0
 13 46  1  0
 13 47  1  0
 14 48  1  0
 14 49  1  0
 18 50  1  6
 19 51  1  0
 19 52  1  0
 20 53  1  0
 20 54  1  0
 22 55  1  0
 23 56  1  0
 24 57  1  0
 25 58  1  0
 28 59  1  0
 29 60  1  0
 30 61  1  0
 31 62  1  0
 32 63  1  0
 33 64  1  0
 33 65  1  0
 34 66  1  0
 34 67  1  0
M  END
>  <smiles>  (32) 
CCC(=O)N(c1ccccc1)C1CCN(C(=O)[C@@H](N)Cc2ccccc2-c2ccccc2)CC1

>  <score_type>  (32) 
oracle

>  <origin>  (32) 
autodockgpu

>  <m_score__min__energy>  (32) 
-8.6899999999999995

>  <m_primary>  (32) 
energy

>  <rmsd>  (32) 
6.576324563322293

>  <m_score__min__rmsd>  (32) 
6.576324563322293

>  <meeko>  (32) 
{"free_energy": -6.98, "intermolecular_energy": -9.67, "internal_energy": -3.75, "cluster_size": 13, "cluster_id": 2, "rank_in_cluster": 13}

>  <energy>  (32) 
-7.69

>  <cluster_rmsd>  (32) 
0.36

>  <cluster>  (32) 
4

$$$$

     RDKit          3D

 67 70  0  0  0  0  0  0  0  0999 V2000
  146.7050   73.3010  222.1360 C   0  0  0  0  0  0  0  0  0  0  0  0
  145.8120   74.0560  221.1980 C   0  0  0  0  0  0  0  0  0  0  0  0
  145.6910   73.4190  219.8560 C   0  0  0  0  0  0  0  0  0  0  0  0
  146.6980   73.3700  219.1070 O   0  0  0  0  0  0  0  0  0  0  0  0
  144.4410   72.8730  219.4300 N   0  0  0  0  0  0  0  0  0  0  0  0
  144.3670   71.4450  219.3870 C   0  0  0  0  0  0  0  0  0  0  0  0
  145.4270   70.6470  219.0280 C   0  0  0  0  0  0  0  0  0  0  0  0
  145.2380   69.2830  219.0120 C   0  0  0  0  0  0  0  0  0  0  0  0
  144.0270   68.6930  219.3400 C   0  0  0  0  0  0  0  0  0  0  0  0
  142.9560   69.5020  219.7020 C   0  0  0  0  0  0  0  0  0  0  0  0
  143.1340   70.8900  219.7230 C   0  0  0  0  0  0  0  0  0  0  0  0
  143.2990   73.7190  219.0710 C   0  0  0  0  0  0  0  0  0  0  0  0
  143.0730   74.7630  220.0960 C   0  0  0  0  0  0  0  0  0  0  0  0
  143.4140   76.1750  219.7000 C   0  0  0  0  0  0  0  0  0  0  0  0
  143.2140   76.4540  218.2870 N   0  0  0  0  0  0  0  0  0  0  0  0
  142.6840   77.7510  217.8580 C   0  0  0  0  0  0  0  0  0  0  0  0
  142.4310   77.8100  216.6320 O   0  0  0  0  0  0  0  0  0  0  0  0
  142.4710   78.8550  218.7660 C   0  0  1  0  0  0  0  0  0  0  0  0
  142.5460   80.1350  218.0170 N   0  0  0  0  0  0  0  0  0  0  0  0
  141.2690   78.8350  219.6430 C   0  0  0  0  0  0  0  0  0  0  0  0
  141.4840   79.1230  221.0590 C   0  0  0  0  0  0  0  0  0  0  0  0
  142.2650   80.2660  221.3300 C   0  0  0  0  0  0  0  0  0  0  0  0
  142.4740   80.7260  222.6050 C   0  0  0  0  0  0  0  0  0  0  0  0
  141.9290   80.0900  223.7030 C   0  0  0  0  0  0  0  0  0  0  0  0
  141.1670   78.9720  223.4520 C   0  0  0  0  0  0  0  0  0  0  0  0
  140.9540   78.5000  222.1420 C   0  0  0  0  0  0  0  0  0  0  0  0
  140.2350   77.2210  222.0970 C   0  0  0  0  0  0  0  0  0  0  0  0
  140.8520   76.0210  221.8260 C   0  0  0  0  0  0  0  0  0  0  0  0
  140.1300   74.8210  221.7450 C   0  0  0  0  0  0  0  0  0  0  0  0
  138.7540   74.8460  221.9440 C   0  0  0  0  0  0  0  0  0  0  0  0
  138.1040   76.0510  222.2200 C   0  0  0  0  0  0  0  0  0  0  0  0
  138.8520   77.2070  222.2900 C   0  0  0  0  0  0  0  0  0  0  0  0
  143.5650   75.4950  217.2620 C   0  0  0  0  0  0  0  0  0  0  0  0
  143.2390   74.1200  217.6500 C   0  0  0  0  0  0  0  0  0  0  0  0
  146.4279   73.5353  223.1744 H   0  0  0  0  0  0  0  0  0  0  0  0
  146.5913   72.2210  221.9609 H   0  0  0  0  0  0  0  0  0  0  0  0
  147.7511   73.5927  221.9609 H   0  0  0  0  0  0  0  0  0  0  0  0
  144.8093   74.1192  221.6459 H   0  0  0  0  0  0  0  0  0  0  0  0
  146.2629   75.0480  221.0476 H   0  0  0  0  0  0  0  0  0  0  0  0
  146.3996   71.0859  218.7608 H   0  0  0  0  0  0  0  0  0  0  0  0
  146.0811   68.6361  218.7278 H   0  0  0  0  0  0  0  0  0  0  0  0
  143.9151   67.5990  219.3141 H   0  0  0  0  0  0  0  0  0  0  0  0
  141.9849   69.0586  219.9675 H   0  0  0  0  0  0  0  0  0  0  0  0
  142.2971   71.5454  220.0059 H   0  0  0  0  0  0  0  0  0  0  0  0
  142.3907   73.0997  219.1087 H   0  0  0  0  0  0  0  0  0  0  0  0
  142.0074   74.7398  220.3680 H   0  0  0  0  0  0  0  0  0  0  0  0
  143.7590   74.5169  220.9199 H   0  0  0  0  0  0  0  0  0  0  0  0
  142.7804   76.8607  220.2817 H   0  0  0  0  0  0  0  0  0  0  0  0
  144.4856   76.3148  219.9051 H   0  0  0  0  0  0  0  0  0  0  0  0
  143.2879   78.7416  219.4938 H   0  0  0  0  0  0  0  0  0  0  0  0
  142.9640   80.0190  217.0870 H   0  0  0  0  0  0  0  0  0  0  0  0
  141.6940   80.6920  218.0970 H   0  0  0  0  0  0  0  0  0  0  0  0
  140.5610   79.5820  219.2549 H   0  0  0  0  0  0  0  0  0  0  0  0
  140.9059   77.7971  219.6114 H   0  0  0  0  0  0  0  0  0  0  0  0
  142.7226   80.8075  220.4889 H   0  0  0  0  0  0  0  0  0  0  0  0
  143.0911   81.6239  222.7568 H   0  0  0  0  0  0  0  0  0  0  0  0
  142.0955   80.4583  224.7260 H   0  0  0  0  0  0  0  0  0  0  0  0
  140.7124   78.4329  224.2962 H   0  0  0  0  0  0  0  0  0  0  0  0
  141.9405   76.0024  221.6687 H   0  0  0  0  0  0  0  0  0  0  0  0
  140.6450   73.8737  221.5272 H   0  0  0  0  0  0  0  0  0  0  0  0
  138.1749   73.9127  221.8838 H   0  0  0  0  0  0  0  0  0  0  0  0
  137.0158   76.0772  222.3785 H   0  0  0  0  0  0  0  0  0  0  0  0
  138.3392   78.1558  222.5064 H   0  0  0  0  0  0  0  0  0  0  0  0
  143.0144   75.7428  216.3426 H   0  0  0  0  0  0  0  0  0  0  0  0
  144.6526   75.5515  217.1073 H   0  0  0  0  0  0  0  0  0  0  0  0
  142.2105   73.9294  217.3095 H   0  0  0  0  0  0  0  0  0  0  0  0
  144.0430   73.5293  217.1866 H   0  0  0  0  0  0  0  0  0  0  0  0
  1  2  1  0
  2  3  1  0
  3  4  2  0
  3  5  1  0
  5  6  1  0
  6  7  2  0
  7  8  1  0
  8  9  2  0
  9 10  1  0
 10 11  2  0
  5 12  1  0
 12 13  1  0
 13 14  1  0
 14 15  1  0
 15 16  1  0
 16 17  2  0
 16 18  1  0
 18 19  1  0
 18 20  1  0
 20 21  1  0
 21 22  2  0
 22 23  1  0
 23 24  2  0
 24 25  1  0
 25 26  2  0
 26 27  1  0
 27 28  2  0
 28 29  1  0
 29 30  2  0
 30 31  1  0
 31 32  2  0
 15 33  1  0
 33 34  1  0
 11  6  1  0
 34 12  1  0
 26 21  1  0
 32 27  1  0
  1 35  1  0
  1 36  1  0
  1 37  1  0
  2 38  1  0
  2 39  1  0
  7 40  1  0
  8 41  1  0
  9 42  1  0
 10 43  1  0
 11 44  1  0
 12 45  1  0
 13 46  1  0
 13 47  1  0
 14 48  1  0
 14 49  1  0
 18 50  1  1
 19 51  1  0
 19 52  1  0
 20 53  1  0
 20 54  1  0
 22 55  1  0
 23 56  1  0
 24 57  1  0
 25 58  1  0
 28 59  1  0
 29 60  1  0
 30 61  1  0
 31 62  1  0
 32 63  1  0
 33 64  1  0
 33 65  1  0
 34 66  1  0
 34 67  1  0
M  END
>  <smiles>  (33) 
CCC(=O)N(c1ccccc1)C1CCN(C(=O)[C@@H](N)Cc2ccccc2-c2ccccc2)CC1

>  <score_type>  (33) 
oracle

>  <origin>  (33) 
autodockgpu

>  <m_score__min__energy>  (33) 
-8.6899999999999995

>  <m_primary>  (33) 
energy

>  <rmsd>  (33) 
6.153025858692921

>  <m_score__min__rmsd>  (33) 
6.153025858692921

>  <meeko>  (33) 
{"free_energy": -8.45, "intermolecular_energy": -11.13, "internal_energy": -3.06, "cluster_size": 13, "cluster_id": 1, "rank_in_cluster": 6}

>  <energy>  (33) 
-7.69

>  <cluster_rmsd>  (33) 
0.41

>  <cluster>  (33) 
4

$$$$

     RDKit          3D

 67 70  0  0  0  0  0  0  0  0999 V2000
  145.5820   74.2650  220.8640 C   0  0  0  0  0  0  0  0  0  0  0  0
  145.6410   72.7680  220.8270 C   0  0  0  0  0  0  0  0  0  0  0  0
  145.2220   72.1920  219.5180 C   0  0  0  0  0  0  0  0  0  0  0  0
  145.7170   72.6510  218.4580 O   0  0  0  0  0  0  0  0  0  0  0  0
  144.2670   71.1300  219.4740 N   0  0  0  0  0  0  0  0  0  0  0  0
  144.7980   69.8230  219.2320 C   0  0  0  0  0  0  0  0  0  0  0  0
  145.8860   69.5910  218.4250 C   0  0  0  0  0  0  0  0  0  0  0  0
  146.3050   68.2900  218.2570 C   0  0  0  0  0  0  0  0  0  0  0  0
  145.6730   67.2170  218.8660 C   0  0  0  0  0  0  0  0  0  0  0  0
  144.5720   67.4540  219.6820 C   0  0  0  0  0  0  0  0  0  0  0  0
  144.1360   68.7720  219.8620 C   0  0  0  0  0  0  0  0  0  0  0  0
  142.8330   71.3580  219.6750 C   0  0  0  0  0  0  0  0  0  0  0  0
  142.5670   71.8710  221.0380 C   0  0  0  0  0  0  0  0  0  0  0  0
  142.1490   73.3140  221.1390 C   0  0  0  0  0  0  0  0  0  0  0  0
  141.3860   73.7880  219.9960 N   0  0  0  0  0  0  0  0  0  0  0  0
  140.2650   74.7110  220.1870 C   0  0  0  0  0  0  0  0  0  0  0  0
  139.6100   74.9290  219.1420 O   0  0  0  0  0  0  0  0  0  0  0  0
  139.9460   75.3100  221.4640 C   0  0  1  0  0  0  0  0  0  0  0  0
  139.2990   74.3000  222.3390 N   0  0  0  0  0  0  0  0  0  0  0  0
  141.0210   76.0270  222.2030 C   0  0  0  0  0  0  0  0  0  0  0  0
  141.1020   77.4720  222.0060 C   0  0  0  0  0  0  0  0  0  0  0  0
  140.5480   78.2530  223.0420 C   0  0  0  0  0  0  0  0  0  0  0  0
  140.6340   79.6220  223.0540 C   0  0  0  0  0  0  0  0  0  0  0  0
  141.2710   80.3170  222.0440 C   0  0  0  0  0  0  0  0  0  0  0  0
  141.8130   79.5660  221.0270 C   0  0  0  0  0  0  0  0  0  0  0  0
  141.7230   78.1600  221.0150 C   0  0  0  0  0  0  0  0  0  0  0  0
  142.2370   77.5580  219.7790 C   0  0  0  0  0  0  0  0  0  0  0  0
  143.1440   76.5220  219.7690 C   0  0  0  0  0  0  0  0  0  0  0  0
  143.6540   75.9980  218.5710 C   0  0  0  0  0  0  0  0  0  0  0  0
  143.2280   76.5390  217.3630 C   0  0  0  0  0  0  0  0  0  0  0  0
  142.3090   77.5900  217.3470 C   0  0  0  0  0  0  0  0  0  0  0  0
  141.8350   78.0760  218.5460 C   0  0  0  0  0  0  0  0  0  0  0  0
  141.7230   73.4070  218.6420 C   0  0  0  0  0  0  0  0  0  0  0  0
  142.1360   72.0040  218.5440 C   0  0  0  0  0  0  0  0  0  0  0  0
  145.5686   74.6057  221.9098 H   0  0  0  0  0  0  0  0  0  0  0  0
  146.4645   74.6794  220.3547 H   0  0  0  0  0  0  0  0  0  0  0  0
  144.6696   74.6087  220.3547 H   0  0  0  0  0  0  0  0  0  0  0  0
  146.6755   72.4546  221.0309 H   0  0  0  0  0  0  0  0  0  0  0  0
  144.9370   72.3961  221.5860 H   0  0  0  0  0  0  0  0  0  0  0  0
  146.4077   70.4216  217.9271 H   0  0  0  0  0  0  0  0  0  0  0  0
  147.1758   68.0945  217.6140 H   0  0  0  0  0  0  0  0  0  0  0  0
  146.0375   66.1916  218.7059 H   0  0  0  0  0  0  0  0  0  0  0  0
  144.0528   66.6203  220.1774 H   0  0  0  0  0  0  0  0  0  0  0  0
  143.2668   68.9785  220.5038 H   0  0  0  0  0  0  0  0  0  0  0  0
  142.3256   70.3824  219.6471 H   0  0  0  0  0  0  0  0  0  0  0  0
  141.7650   71.2585  221.4758 H   0  0  0  0  0  0  0  0  0  0  0  0
  143.5289   71.8070  221.5678 H   0  0  0  0  0  0  0  0  0  0  0  0
  141.5312   73.4332  222.0413 H   0  0  0  0  0  0  0  0  0  0  0  0
  143.0717   73.9116  221.1768 H   0  0  0  0  0  0  0  0  0  0  0  0
  139.2665   76.1313  221.1923 H   0  0  0  0  0  0  0  0  0  0  0  0
  139.9780   73.7900  222.9150 H   0  0  0  0  0  0  0  0  0  0  0  0
  138.4510   74.6500  222.7890 H   0  0  0  0  0  0  0  0  0  0  0  0
  140.8654   75.8453  223.2767 H   0  0  0  0  0  0  0  0  0  0  0  0
  141.9637   75.6275  221.8009 H   0  0  0  0  0  0  0  0  0  0  0  0
  140.0290   77.7465  223.8691 H   0  0  0  0  0  0  0  0  0  0  0  0
  140.1846   80.1803  223.8885 H   0  0  0  0  0  0  0  0  0  0  0  0
  141.3411   81.4147  222.0527 H   0  0  0  0  0  0  0  0  0  0  0  0
  142.3303   80.0766  220.2013 H   0  0  0  0  0  0  0  0  0  0  0  0
  143.4778   76.0936  220.7256 H   0  0  0  0  0  0  0  0  0  0  0  0
  144.3799   75.1717  218.5875 H   0  0  0  0  0  0  0  0  0  0  0  0
  143.6168   76.1371  216.4157 H   0  0  0  0  0  0  0  0  0  0  0  0
  141.9695   78.0223  216.3942 H   0  0  0  0  0  0  0  0  0  0  0  0
  141.1116   78.9045  218.5314 H   0  0  0  0  0  0  0  0  0  0  0  0
  140.8421   73.5618  218.0016 H   0  0  0  0  0  0  0  0  0  0  0  0
  142.5700   74.0299  218.3187 H   0  0  0  0  0  0  0  0  0  0  0  0
  141.2248   71.4173  218.3558 H   0  0  0  0  0  0  0  0  0  0  0  0
  142.8998   72.0202  217.7526 H   0  0  0  0  0  0  0  0  0  0  0  0
  1  2  1  0
  2  3  1  0
  3  4  2  0
  3  5  1  0
  5  6  1  0
  6  7  2  0
  7  8  1  0
  8  9  2  0
  9 10  1  0
 10 11  2  0
  5 12  1  0
 12 13  1  0
 13 14  1  0
 14 15  1  0
 15 16  1  0
 16 17  2  0
 16 18  1  0
 18 19  1  0
 18 20  1  0
 20 21  1  0
 21 22  2  0
 22 23  1  0
 23 24  2  0
 24 25  1  0
 25 26  2  0
 26 27  1  0
 27 28  2  0
 28 29  1  0
 29 30  2  0
 30 31  1  0
 31 32  2  0
 15 33  1  0
 33 34  1  0
 11  6  1  0
 34 12  1  0
 26 21  1  0
 32 27  1  0
  1 35  1  0
  1 36  1  0
  1 37  1  0
  2 38  1  0
  2 39  1  0
  7 40  1  0
  8 41  1  0
  9 42  1  0
 10 43  1  0
 11 44  1  0
 12 45  1  0
 13 46  1  0
 13 47  1  0
 14 48  1  0
 14 49  1  0
 18 50  1  6
 19 51  1  0
 19 52  1  0
 20 53  1  0
 20 54  1  0
 22 55  1  0
 23 56  1  0
 24 57  1  0
 25 58  1  0
 28 59  1  0
 29 60  1  0
 30 61  1  0
 31 62  1  0
 32 63  1  0
 33 64  1  0
 33 65  1  0
 34 66  1  0
 34 67  1  0
M  END
>  <smiles>  (34) 
CCC(=O)N(c1ccccc1)C1CCN(C(=O)[C@@H](N)Cc2ccccc2-c2ccccc2)CC1

>  <score_type>  (34) 
oracle

>  <origin>  (34) 
autodockgpu

>  <m_score__min__energy>  (34) 
-8.6899999999999995

>  <m_primary>  (34) 
energy

>  <rmsd>  (34) 
6.95203786979399

>  <m_score__min__rmsd>  (34) 
6.95203786979399

>  <meeko>  (34) 
{"free_energy": -8.08, "intermolecular_energy": -10.76, "internal_energy": -3.25, "cluster_size": 13, "cluster_id": 2, "rank_in_cluster": 6}

>  <energy>  (34) 
-7.45

>  <cluster_rmsd>  (34) 
0.0

>  <cluster>  (34) 
5

$$$$

     RDKit          3D

 67 70  0  0  0  0  0  0  0  0999 V2000
  138.8090   84.7390  221.6080 C   0  0  0  0  0  0  0  0  0  0  0  0
  137.3810   84.3030  221.7300 C   0  0  0  0  0  0  0  0  0  0  0  0
  137.0350   83.7780  223.0820 C   0  0  0  0  0  0  0  0  0  0  0  0
  136.4950   84.5440  223.9180 O   0  0  0  0  0  0  0  0  0  0  0  0
  137.3180   82.4180  223.4180 N   0  0  0  0  0  0  0  0  0  0  0  0
  136.7130   81.9340  224.6210 C   0  0  0  0  0  0  0  0  0  0  0  0
  137.2640   82.1180  225.8660 C   0  0  0  0  0  0  0  0  0  0  0  0
  136.5980   81.6000  226.9550 C   0  0  0  0  0  0  0  0  0  0  0  0
  135.4040   80.9050  226.8390 C   0  0  0  0  0  0  0  0  0  0  0  0
  134.8490   80.7200  225.5780 C   0  0  0  0  0  0  0  0  0  0  0  0
  135.5140   81.2420  224.4630 C   0  0  0  0  0  0  0  0  0  0  0  0
  138.1640   81.5640  222.5790 C   0  0  0  0  0  0  0  0  0  0  0  0
  139.0630   80.7330  223.4110 C   0  0  0  0  0  0  0  0  0  0  0  0
  138.7530   79.2610  223.4660 C   0  0  0  0  0  0  0  0  0  0  0  0
  138.1630   78.7380  222.2440 N   0  0  0  0  0  0  0  0  0  0  0  0
  138.5300   77.4060  221.7590 C   0  0  0  0  0  0  0  0  0  0  0  0
  138.0590   77.1350  220.6300 O   0  0  0  0  0  0  0  0  0  0  0  0
  139.3610   76.4930  222.5110 C   0  0  1  0  0  0  0  0  0  0  0  0
  138.9800   75.0940  222.1900 N   0  0  0  0  0  0  0  0  0  0  0  0
  140.8390   76.6570  222.4480 C   0  0  0  0  0  0  0  0  0  0  0  0
  141.3940   77.1270  221.1800 C   0  0  0  0  0  0  0  0  0  0  0  0
  141.4200   76.1710  220.1430 C   0  0  0  0  0  0  0  0  0  0  0  0
  141.8180   76.4850  218.8680 C   0  0  0  0  0  0  0  0  0  0  0  0
  142.2200   77.7620  218.5270 C   0  0  0  0  0  0  0  0  0  0  0  0
  142.2000   78.7020  219.5310 C   0  0  0  0  0  0  0  0  0  0  0  0
  141.7930   78.3790  220.8410 C   0  0  0  0  0  0  0  0  0  0  0  0
  141.9780   79.4810  221.7930 C   0  0  0  0  0  0  0  0  0  0  0  0
  142.4130   79.2920  223.0850 C   0  0  0  0  0  0  0  0  0  0  0  0
  142.5360   80.3610  223.9870 C   0  0  0  0  0  0  0  0  0  0  0  0
  142.2100   81.6440  223.5610 C   0  0  0  0  0  0  0  0  0  0  0  0
  141.7660   81.8610  222.2550 C   0  0  0  0  0  0  0  0  0  0  0  0
  141.6590   80.7830  221.4020 C   0  0  0  0  0  0  0  0  0  0  0  0
  137.1740   79.4810  221.4950 C   0  0  0  0  0  0  0  0  0  0  0  0
  137.4720   80.9150  221.4460 C   0  0  0  0  0  0  0  0  0  0  0  0
  139.2393   84.8704  222.6118 H   0  0  0  0  0  0  0  0  0  0  0  0
  139.3804   83.9744  221.0613 H   0  0  0  0  0  0  0  0  0  0  0  0
  138.8559   85.6924  221.0613 H   0  0  0  0  0  0  0  0  0  0  0  0
  136.7335   85.1658  221.5149 H   0  0  0  0  0  0  0  0  0  0  0  0
  137.2304   83.4812  221.0145 H   0  0  0  0  0  0  0  0  0  0  0  0
  138.2109   82.6639  225.9899 H   0  0  0  0  0  0  0  0  0  0  0  0
  137.0306   81.7435  227.9561 H   0  0  0  0  0  0  0  0  0  0  0  0
  134.9026   80.5053  227.7328 H   0  0  0  0  0  0  0  0  0  0  0  0
  133.9026   80.1722  225.4587 H   0  0  0  0  0  0  0  0  0  0  0  0
  135.0886   81.1055  223.4578 H   0  0  0  0  0  0  0  0  0  0  0  0
  138.8442   82.2131  222.0080 H   0  0  0  0  0  0  0  0  0  0  0  0
  140.0835   80.8456  223.0162 H   0  0  0  0  0  0  0  0  0  0  0  0
  138.9298   81.0984  224.4399 H   0  0  0  0  0  0  0  0  0  0  0  0
  139.6891   78.7167  223.6594 H   0  0  0  0  0  0  0  0  0  0  0  0
  138.0105   79.1203  224.2653 H   0  0  0  0  0  0  0  0  0  0  0  0
  139.1443   76.7616  223.5554 H   0  0  0  0  0  0  0  0  0  0  0  0
  138.7510   74.5500  223.0290 H   0  0  0  0  0  0  0  0  0  0  0  0
  138.3520   75.0290  221.3870 H   0  0  0  0  0  0  0  0  0  0  0  0
  141.1277   77.3789  223.2262 H   0  0  0  0  0  0  0  0  0  0  0  0
  141.2482   75.6452  222.5853 H   0  0  0  0  0  0  0  0  0  0  0  0
  141.1107   75.1388  220.3641 H   0  0  0  0  0  0  0  0  0  0  0  0
  141.8169   75.6998  218.0976 H   0  0  0  0  0  0  0  0  0  0  0  0
  142.5397   78.0141  217.5051 H   0  0  0  0  0  0  0  0  0  0  0  0
  142.5099   79.7331  219.3055 H   0  0  0  0  0  0  0  0  0  0  0  0
  142.6712   78.2765  223.4199 H   0  0  0  0  0  0  0  0  0  0  0  0
  142.8851   80.1862  225.0154 H   0  0  0  0  0  0  0  0  0  0  0  0
  142.3023   82.4917  224.2559 H   0  0  0  0  0  0  0  0  0  0  0  0
  141.5063   82.8737  221.9129 H   0  0  0  0  0  0  0  0  0  0  0  0
  141.3087   80.9553  220.3736 H   0  0  0  0  0  0  0  0  0  0  0  0
  137.1432   79.0912  220.4668 H   0  0  0  0  0  0  0  0  0  0  0  0
  136.2059   79.3566  222.0022 H   0  0  0  0  0  0  0  0  0  0  0  0
  138.0968   81.0795  220.5557 H   0  0  0  0  0  0  0  0  0  0  0  0
  136.4758   81.3813  221.4570 H   0  0  0  0  0  0  0  0  0  0  0  0
  1  2  1  0
  2  3  1  0
  3  4  2  0
  3  5  1  0
  5  6  1  0
  6  7  2  0
  7  8  1  0
  8  9  2  0
  9 10  1  0
 10 11  2  0
  5 12  1  0
 12 13  1  0
 13 14  1  0
 14 15  1  0
 15 16  1  0
 16 17  2  0
 16 18  1  0
 18 19  1  0
 18 20  1  0
 20 21  1  0
 21 22  2  0
 22 23  1  0
 23 24  2  0
 24 25  1  0
 25 26  2  0
 26 27  1  0
 27 28  2  0
 28 29  1  0
 29 30  2  0
 30 31  1  0
 31 32  2  0
 15 33  1  0
 33 34  1  0
 11  6  1  0
 34 12  1  0
 26 21  1  0
 32 27  1  0
  1 35  1  0
  1 36  1  0
  1 37  1  0
  2 38  1  0
  2 39  1  0
  7 40  1  0
  8 41  1  0
  9 42  1  0
 10 43  1  0
 11 44  1  0
 12 45  1  0
 13 46  1  0
 13 47  1  0
 14 48  1  0
 14 49  1  0
 18 50  1  1
 19 51  1  0
 19 52  1  0
 20 53  1  0
 20 54  1  0
 22 55  1  0
 23 56  1  0
 24 57  1  0
 25 58  1  0
 28 59  1  0
 29 60  1  0
 30 61  1  0
 31 62  1  0
 32 63  1  0
 33 64  1  0
 33 65  1  0
 34 66  1  0
 34 67  1  0
M  END
>  <smiles>  (35) 
CCC(=O)N(c1ccccc1)C1CCN(C(=O)[C@@H](N)Cc2ccccc2-c2ccccc2)CC1

>  <score_type>  (35) 
oracle

>  <origin>  (35) 
autodockgpu

>  <m_score__min__energy>  (35) 
-8.6899999999999995

>  <m_primary>  (35) 
energy

>  <rmsd>  (35) 
3.7858237743166523

>  <m_score__min__rmsd>  (35) 
3.7858237743166523

>  <meeko>  (35) 
{"free_energy": -6.69, "intermolecular_energy": -9.37, "internal_energy": -4.09, "cluster_size": 6, "cluster_id": 7, "rank_in_cluster": 3}

>  <energy>  (35) 
-7.37

>  <cluster_rmsd>  (35) 
0.11

>  <cluster>  (35) 
5

$$$$

     RDKit          3D

 67 70  0  0  0  0  0  0  0  0999 V2000
  141.8050   81.3350  218.7260 C   0  0  0  0  0  0  0  0  0  0  0  0
  140.6920   81.6470  219.6800 C   0  0  0  0  0  0  0  0  0  0  0  0
  139.7620   80.5030  219.8990 C   0  0  0  0  0  0  0  0  0  0  0  0
  138.8080   80.3260  219.1010 O   0  0  0  0  0  0  0  0  0  0  0  0
  139.9560   79.6210  221.0060 N   0  0  0  0  0  0  0  0  0  0  0  0
  140.9200   80.0410  221.9760 C   0  0  0  0  0  0  0  0  0  0  0  0
  140.6310   80.9250  222.9890 C   0  0  0  0  0  0  0  0  0  0  0  0
  141.6410   81.2670  223.8610 C   0  0  0  0  0  0  0  0  0  0  0  0
  142.9250   80.7570  223.7540 C   0  0  0  0  0  0  0  0  0  0  0  0
  143.2150   79.8630  222.7290 C   0  0  0  0  0  0  0  0  0  0  0  0
  142.1990   79.5070  221.8350 C   0  0  0  0  0  0  0  0  0  0  0  0
  139.2080   78.3680  221.1490 C   0  0  0  0  0  0  0  0  0  0  0  0
  139.1860   77.6180  219.8730 C   0  0  0  0  0  0  0  0  0  0  0  0
  140.0130   76.3620  219.8200 C   0  0  0  0  0  0  0  0  0  0  0  0
  140.1150   75.6710  221.0960 N   0  0  0  0  0  0  0  0  0  0  0  0
  140.0950   74.2070  221.1460 C   0  0  0  0  0  0  0  0  0  0  0  0
  140.0500   73.7450  222.3100 O   0  0  0  0  0  0  0  0  0  0  0  0
  140.1210   73.3760  219.9630 C   0  0  1  0  0  0  0  0  0  0  0  0
  138.8580   73.5560  219.2020 N   0  0  0  0  0  0  0  0  0  0  0  0
  141.2940   73.4700  219.0530 C   0  0  0  0  0  0  0  0  0  0  0  0
  142.6060   73.6010  219.6840 C   0  0  0  0  0  0  0  0  0  0  0  0
  143.0000   72.5110  220.4870 C   0  0  0  0  0  0  0  0  0  0  0  0
  144.2420   72.4390  221.0660 C   0  0  0  0  0  0  0  0  0  0  0  0
  145.1810   73.4370  220.8940 C   0  0  0  0  0  0  0  0  0  0  0  0
  144.8070   74.5070  220.1150 C   0  0  0  0  0  0  0  0  0  0  0  0
  143.5310   74.5810  219.5220 C   0  0  0  0  0  0  0  0  0  0  0  0
  143.2790   75.8610  218.8490 C   0  0  0  0  0  0  0  0  0  0  0  0
  142.8900   76.9990  219.5200 C   0  0  0  0  0  0  0  0  0  0  0  0
  142.6110   78.1960  218.8430 C   0  0  0  0  0  0  0  0  0  0  0  0
  142.7330   78.2330  217.4580 C   0  0  0  0  0  0  0  0  0  0  0  0
  143.1260   77.0920  216.7560 C   0  0  0  0  0  0  0  0  0  0  0  0
  143.3890   75.9370  217.4590 C   0  0  0  0  0  0  0  0  0  0  0  0
  140.2820   76.3870  222.3410 C   0  0  0  0  0  0  0  0  0  0  0  0
  139.4810   77.6140  222.3900 C   0  0  0  0  0  0  0  0  0  0  0  0
  142.7129   81.0805  219.2925 H   0  0  0  0  0  0  0  0  0  0  0  0
  141.5170   80.4830  218.0927 H   0  0  0  0  0  0  0  0  0  0  0  0
  142.0019   82.2126  218.0927 H   0  0  0  0  0  0  0  0  0  0  0  0
  141.1314   81.9294  220.6481 H   0  0  0  0  0  0  0  0  0  0  0  0
  140.1035   82.4637  219.2365 H   0  0  0  0  0  0  0  0  0  0  0  0
  139.6213   81.3473  223.0999 H   0  0  0  0  0  0  0  0  0  0  0  0
  141.4194   81.9732  224.6748 H   0  0  0  0  0  0  0  0  0  0  0  0
  143.7046   81.0554  224.4704 H   0  0  0  0  0  0  0  0  0  0  0  0
  144.2260   79.4428  222.6228 H   0  0  0  0  0  0  0  0  0  0  0  0
  142.4112   78.8024  221.0173 H   0  0  0  0  0  0  0  0  0  0  0  0
  138.1534   78.6199  221.3345 H   0  0  0  0  0  0  0  0  0  0  0  0
  138.1420   77.3401  219.6663 H   0  0  0  0  0  0  0  0  0  0  0  0
  139.6337   78.2938  219.1295 H   0  0  0  0  0  0  0  0  0  0  0  0
  139.5566   75.6770  219.0903 H   0  0  0  0  0  0  0  0  0  0  0  0
  141.0325   76.6619  219.5361 H   0  0  0  0  0  0  0  0  0  0  0  0
  140.2276   72.3605  220.3722 H   0  0  0  0  0  0  0  0  0  0  0  0
  138.7060   72.8080  218.5160 H   0  0  0  0  0  0  0  0  0  0  0  0
  138.0740   73.8330  219.7950 H   0  0  0  0  0  0  0  0  0  0  0  0
  141.3106   72.5598  218.4356 H   0  0  0  0  0  0  0  0  0  0  0  0
  141.1493   74.4043  218.4907 H   0  0  0  0  0  0  0  0  0  0  0  0
  142.2873   71.6902  220.6551 H   0  0  0  0  0  0  0  0  0  0  0  0
  144.4961   71.5643  221.6827 H   0  0  0  0  0  0  0  0  0  0  0  0
  146.1774   73.3791  221.3565 H   0  0  0  0  0  0  0  0  0  0  0  0
  145.5225   75.3262  219.9507 H   0  0  0  0  0  0  0  0  0  0  0  0
  142.7955   76.9688  220.6155 H   0  0  0  0  0  0  0  0  0  0  0  0
  142.3002   79.0923  219.3997 H   0  0  0  0  0  0  0  0  0  0  0  0
  142.5191   79.1647  216.9137 H   0  0  0  0  0  0  0  0  0  0  0  0
  143.2239   77.1150  215.6606 H   0  0  0  0  0  0  0  0  0  0  0  0
  143.6978   75.0392  216.9036 H   0  0  0  0  0  0  0  0  0  0  0  0
  139.9758   75.7316  223.1696 H   0  0  0  0  0  0  0  0  0  0  0  0
  141.3408   76.6732  222.4247 H   0  0  0  0  0  0  0  0  0  0  0  0
  138.5047   77.3391  222.8159 H   0  0  0  0  0  0  0  0  0  0  0  0
  140.1103   78.3037  222.9717 H   0  0  0  0  0  0  0  0  0  0  0  0
  1  2  1  0
  2  3  1  0
  3  4  2  0
  3  5  1  0
  5  6  1  0
  6  7  2  0
  7  8  1  0
  8  9  2  0
  9 10  1  0
 10 11  2  0
  5 12  1  0
 12 13  1  0
 13 14  1  0
 14 15  1  0
 15 16  1  0
 16 17  2  0
 16 18  1  0
 18 19  1  0
 18 20  1  0
 20 21  1  0
 21 22  2  0
 22 23  1  0
 23 24  2  0
 24 25  1  0
 25 26  2  0
 26 27  1  0
 27 28  2  0
 28 29  1  0
 29 30  2  0
 30 31  1  0
 31 32  2  0
 15 33  1  0
 33 34  1  0
 11  6  1  0
 34 12  1  0
 26 21  1  0
 32 27  1  0
  1 35  1  0
  1 36  1  0
  1 37  1  0
  2 38  1  0
  2 39  1  0
  7 40  1  0
  8 41  1  0
  9 42  1  0
 10 43  1  0
 11 44  1  0
 12 45  1  0
 13 46  1  0
 13 47  1  0
 14 48  1  0
 14 49  1  0
 18 50  1  1
 19 51  1  0
 19 52  1  0
 20 53  1  0
 20 54  1  0
 22 55  1  0
 23 56  1  0
 24 57  1  0
 25 58  1  0
 28 59  1  0
 29 60  1  0
 30 61  1  0
 31 62  1  0
 32 63  1  0
 33 64  1  0
 33 65  1  0
 34 66  1  0
 34 67  1  0
M  END
>  <smiles>  (36) 
CCC(=O)N(c1ccccc1)C1CCN(C(=O)[C@@H](N)Cc2ccccc2-c2ccccc2)CC1

>  <score_type>  (36) 
oracle

>  <origin>  (36) 
autodockgpu

>  <m_score__min__energy>  (36) 
-8.6899999999999995

>  <m_primary>  (36) 
energy

>  <rmsd>  (36) 
4.109438001844781

>  <m_score__min__rmsd>  (36) 
4.109438001844781

>  <meeko>  (36) 
{"free_energy": -6.83, "intermolecular_energy": -9.51, "internal_energy": -3.66, "cluster_size": 8, "cluster_id": 5, "rank_in_cluster": 7}

>  <energy>  (36) 
-7.31

>  <cluster_rmsd>  (36) 
0.09

>  <cluster>  (36) 
5

$$$$

     RDKit          3D

 67 70  0  0  0  0  0  0  0  0999 V2000
  146.3490   73.7760  220.7850 C   0  0  0  0  0  0  0  0  0  0  0  0
  145.2440   72.7700  220.8990 C   0  0  0  0  0  0  0  0  0  0  0  0
  144.9650   72.0500  219.6240 C   0  0  0  0  0  0  0  0  0  0  0  0
  145.6310   72.3370  218.5980 O   0  0  0  0  0  0  0  0  0  0  0  0
  143.9490   71.0460  219.5740 N   0  0  0  0  0  0  0  0  0  0  0  0
  144.4100   69.7030  219.3950 C   0  0  0  0  0  0  0  0  0  0  0  0
  143.5890   68.6060  219.5040 C   0  0  0  0  0  0  0  0  0  0  0  0
  144.1430   67.3580  219.3210 C   0  0  0  0  0  0  0  0  0  0  0  0
  145.4870   67.1720  219.0350 C   0  0  0  0  0  0  0  0  0  0  0  0
  146.3150   68.2830  218.9260 C   0  0  0  0  0  0  0  0  0  0  0  0
  145.7650   69.5570  219.1090 C   0  0  0  0  0  0  0  0  0  0  0  0
  142.5250   71.3650  219.7100 C   0  0  0  0  0  0  0  0  0  0  0  0
  142.2210   71.8510  221.0740 C   0  0  0  0  0  0  0  0  0  0  0  0
  141.8960   73.3150  221.2070 C   0  0  0  0  0  0  0  0  0  0  0  0
  141.2290   73.8770  220.0430 N   0  0  0  0  0  0  0  0  0  0  0  0
  140.1640   74.8680  220.2100 C   0  0  0  0  0  0  0  0  0  0  0  0
  139.5820   75.1650  219.1420 O   0  0  0  0  0  0  0  0  0  0  0  0
  139.8170   75.4460  221.4900 C   0  0  1  0  0  0  0  0  0  0  0  0
  139.1430   74.4240  222.3300 N   0  0  0  0  0  0  0  0  0  0  0  0
  140.8780   76.1410  222.2670 C   0  0  0  0  0  0  0  0  0  0  0  0
  141.0100   77.5820  222.0580 C   0  0  0  0  0  0  0  0  0  0  0  0
  140.4290   78.3910  223.0560 C   0  0  0  0  0  0  0  0  0  0  0  0
  140.5530   79.7570  223.0550 C   0  0  0  0  0  0  0  0  0  0  0  0
  141.2570   80.4210  222.0690 C   0  0  0  0  0  0  0  0  0  0  0  0
  141.8250   79.6420  221.0880 C   0  0  0  0  0  0  0  0  0  0  0  0
  141.6960   78.2390  221.0890 C   0  0  0  0  0  0  0  0  0  0  0  0
  142.2520   77.6060  219.8870 C   0  0  0  0  0  0  0  0  0  0  0  0
  141.8940   77.9740  218.6100 C   0  0  0  0  0  0  0  0  0  0  0  0
  142.4080   77.3180  217.4800 C   0  0  0  0  0  0  0  0  0  0  0  0
  143.3040   76.2700  217.6580 C   0  0  0  0  0  0  0  0  0  0  0  0
  143.6830   75.8780  218.9440 C   0  0  0  0  0  0  0  0  0  0  0  0
  143.1530   76.5480  220.0250 C   0  0  0  0  0  0  0  0  0  0  0  0
  141.6130   73.5180  218.6950 C   0  0  0  0  0  0  0  0  0  0  0  0
  141.9350   72.0940  218.5680 C   0  0  0  0  0  0  0  0  0  0  0  0
  146.6777   74.0752  221.7912 H   0  0  0  0  0  0  0  0  0  0  0  0
  147.1948   73.3314  220.2401 H   0  0  0  0  0  0  0  0  0  0  0  0
  145.9855   74.6597  220.2401 H   0  0  0  0  0  0  0  0  0  0  0  0
  145.5237   72.0300  221.6633 H   0  0  0  0  0  0  0  0  0  0  0  0
  144.3303   73.3204  221.1678 H   0  0  0  0  0  0  0  0  0  0  0  0
  142.5189   68.7214  219.7311 H   0  0  0  0  0  0  0  0  0  0  0  0
  143.4935   66.4742  219.4051 H   0  0  0  0  0  0  0  0  0  0  0  0
  145.8924   66.1589  218.8963 H   0  0  0  0  0  0  0  0  0  0  0  0
  147.3848   68.1630  218.6997 H   0  0  0  0  0  0  0  0  0  0  0  0
  146.4061   70.4471  219.0265 H   0  0  0  0  0  0  0  0  0  0  0  0
  141.9558   70.4278  219.6227 H   0  0  0  0  0  0  0  0  0  0  0  0
  141.3572   71.2814  221.4473 H   0  0  0  0  0  0  0  0  0  0  0  0
  143.1471   71.7043  221.6492 H   0  0  0  0  0  0  0  0  0  0  0  0
  141.2396   73.4465  222.0798 H   0  0  0  0  0  0  0  0  0  0  0  0
  142.8528   73.8467  221.3154 H   0  0  0  0  0  0  0  0  0  0  0  0
  139.1490   76.2765  221.2179 H   0  0  0  0  0  0  0  0  0  0  0  0
  139.7970   73.9410  222.9570 H   0  0  0  0  0  0  0  0  0  0  0  0
  138.2570   74.7510  222.7180 H   0  0  0  0  0  0  0  0  0  0  0  0
  140.6703   75.9770  223.3347 H   0  0  0  0  0  0  0  0  0  0  0  0
  141.8253   75.7101  221.9107 H   0  0  0  0  0  0  0  0  0  0  0  0
  139.8567   77.9102  223.8630 H   0  0  0  0  0  0  0  0  0  0  0  0
  140.0798   80.3387  223.8598 H   0  0  0  0  0  0  0  0  0  0  0  0
  141.3581   81.5163  222.0685 H   0  0  0  0  0  0  0  0  0  0  0  0
  142.3948   80.1270  220.2817 H   0  0  0  0  0  0  0  0  0  0  0  0
  141.1861   78.8044  218.4709 H   0  0  0  0  0  0  0  0  0  0  0  0
  142.1062   77.6287  216.4689 H   0  0  0  0  0  0  0  0  0  0  0  0
  143.7162   75.7472  216.7823 H   0  0  0  0  0  0  0  0  0  0  0  0
  144.3916   75.0496  219.0910 H   0  0  0  0  0  0  0  0  0  0  0  0
  143.4515   76.2371  221.0371 H   0  0  0  0  0  0  0  0  0  0  0  0
  140.7809   73.7543  218.0155 H   0  0  0  0  0  0  0  0  0  0  0  0
  142.5164   74.0910  218.4390 H   0  0  0  0  0  0  0  0  0  0  0  0
  140.9978   71.5782  218.3120 H   0  0  0  0  0  0  0  0  0  0  0  0
  142.7396   72.0827  217.8180 H   0  0  0  0  0  0  0  0  0  0  0  0
  1  2  1  0
  2  3  1  0
  3  4  2  0
  3  5  1  0
  5  6  1  0
  6  7  2  0
  7  8  1  0
  8  9  2  0
  9 10  1  0
 10 11  2  0
  5 12  1  0
 12 13  1  0
 13 14  1  0
 14 15  1  0
 15 16  1  0
 16 17  2  0
 16 18  1  0
 18 19  1  0
 18 20  1  0
 20 21  1  0
 21 22  2  0
 22 23  1  0
 23 24  2  0
 24 25  1  0
 25 26  2  0
 26 27  1  0
 27 28  2  0
 28 29  1  0
 29 30  2  0
 30 31  1  0
 31 32  2  0
 15 33  1  0
 33 34  1  0
 11  6  1  0
 34 12  1  0
 26 21  1  0
 32 27  1  0
  1 35  1  0
  1 36  1  0
  1 37  1  0
  2 38  1  0
  2 39  1  0
  7 40  1  0
  8 41  1  0
  9 42  1  0
 10 43  1  0
 11 44  1  0
 12 45  1  0
 13 46  1  0
 13 47  1  0
 14 48  1  0
 14 49  1  0
 18 50  1  6
 19 51  1  0
 19 52  1  0
 20 53  1  0
 20 54  1  0
 22 55  1  0
 23 56  1  0
 24 57  1  0
 25 58  1  0
 28 59  1  0
 29 60  1  0
 30 61  1  0
 31 62  1  0
 32 63  1  0
 33 64  1  0
 33 65  1  0
 34 66  1  0
 34 67  1  0
M  END
>  <smiles>  (37) 
CCC(=O)N(c1ccccc1)C1CCN(C(=O)[C@@H](N)Cc2ccccc2-c2ccccc2)CC1

>  <score_type>  (37) 
oracle

>  <origin>  (37) 
autodockgpu

>  <m_score__min__energy>  (37) 
-8.6899999999999995

>  <m_primary>  (37) 
energy

>  <rmsd>  (37) 
6.91357862183453

>  <m_score__min__rmsd>  (37) 
6.91357862183453

>  <meeko>  (37) 
{"free_energy": -8.15, "intermolecular_energy": -10.84, "internal_energy": -3.14, "cluster_size": 13, "cluster_id": 2, "rank_in_cluster": 3}

>  <energy>  (37) 
-7.16

>  <cluster_rmsd>  (37) 
0.38

>  <cluster>  (37) 
5

$$$$

     RDKit          3D

 67 70  0  0  0  0  0  0  0  0999 V2000
  140.3100   71.2690  220.0220 C   0  0  0  0  0  0  0  0  0  0  0  0
  141.0050   71.7030  221.2760 C   0  0  0  0  0  0  0  0  0  0  0  0
  141.1310   73.1830  221.4010 C   0  0  0  0  0  0  0  0  0  0  0  0
  140.5390   73.7720  222.3390 O   0  0  0  0  0  0  0  0  0  0  0  0
  141.9170   73.9190  220.4620 N   0  0  0  0  0  0  0  0  0  0  0  0
  143.3030   73.5710  220.4010 C   0  0  0  0  0  0  0  0  0  0  0  0
  144.3070   74.4010  220.8380 C   0  0  0  0  0  0  0  0  0  0  0  0
  145.6090   73.9660  220.7210 C   0  0  0  0  0  0  0  0  0  0  0  0
  145.9380   72.7320  220.1820 C   0  0  0  0  0  0  0  0  0  0  0  0
  144.9210   71.8940  219.7400 C   0  0  0  0  0  0  0  0  0  0  0  0
  143.5940   72.3230  219.8530 C   0  0  0  0  0  0  0  0  0  0  0  0
  141.3410   74.9580  219.6030 C   0  0  0  0  0  0  0  0  0  0  0  0
  141.1230   76.2100  220.3630 C   0  0  0  0  0  0  0  0  0  0  0  0
  142.0390   77.3590  220.0350 C   0  0  0  0  0  0  0  0  0  0  0  0
  142.4730   77.3880  218.6470 N   0  0  0  0  0  0  0  0  0  0  0  0
  142.6050   78.6650  217.9410 C   0  0  0  0  0  0  0  0  0  0  0  0
  142.8510   78.5400  216.7190 O   0  0  0  0  0  0  0  0  0  0  0  0
  142.4630   79.9460  218.5960 C   0  0  1  0  0  0  0  0  0  0  0  0
  143.2210   80.9760  217.8410 N   0  0  0  0  0  0  0  0  0  0  0  0
  141.0940   80.4360  218.9120 C   0  0  0  0  0  0  0  0  0  0  0  0
  141.0000   81.6850  219.6630 C   0  0  0  0  0  0  0  0  0  0  0  0
  140.8580   82.8500  218.8800 C   0  0  0  0  0  0  0  0  0  0  0  0
  140.6570   84.0870  219.4370 C   0  0  0  0  0  0  0  0  0  0  0  0
  140.5860   84.2630  220.8060 C   0  0  0  0  0  0  0  0  0  0  0  0
  140.7260   83.1350  221.5800 C   0  0  0  0  0  0  0  0  0  0  0  0
  140.9330   81.8650  221.0070 C   0  0  0  0  0  0  0  0  0  0  0  0
  141.1980   80.8170  222.0010 C   0  0  0  0  0  0  0  0  0  0  0  0
  140.2250   80.3060  222.8300 C   0  0  0  0  0  0  0  0  0  0  0  0
  140.5190   79.3380  223.8030 C   0  0  0  0  0  0  0  0  0  0  0  0
  141.8270   78.8840  223.9300 C   0  0  0  0  0  0  0  0  0  0  0  0
  142.8310   79.3880  223.1010 C   0  0  0  0  0  0  0  0  0  0  0  0
  142.5000   80.3380  222.1590 C   0  0  0  0  0  0  0  0  0  0  0  0
  142.8270   76.1810  217.9320 C   0  0  0  0  0  0  0  0  0  0  0  0
  141.9390   75.0610  218.2560 C   0  0  0  0  0  0  0  0  0  0  0  0
  139.4035   70.7029  220.2823 H   0  0  0  0  0  0  0  0  0  0  0  0
  140.0324   72.1545  219.4314 H   0  0  0  0  0  0  0  0  0  0  0  0
  140.9838   70.6309  219.4314 H   0  0  0  0  0  0  0  0  0  0  0  0
  140.4348   71.3275  222.1385 H   0  0  0  0  0  0  0  0  0  0  0  0
  142.0248   71.2921  221.2410 H   0  0  0  0  0  0  0  0  0  0  0  0
  144.0774   75.3864  221.2697 H   0  0  0  0  0  0  0  0  0  0  0  0
  146.4192   74.6237  221.0689 H   0  0  0  0  0  0  0  0  0  0  0  0
  146.9900   72.4201  220.1051 H   0  0  0  0  0  0  0  0  0  0  0  0
  145.1555   70.9097  219.3085 H   0  0  0  0  0  0  0  0  0  0  0  0
  142.7769   71.6725  219.5078 H   0  0  0  0  0  0  0  0  0  0  0  0
  140.3300   74.6370  219.3116 H   0  0  0  0  0  0  0  0  0  0  0  0
  140.0908   76.5404  220.1751 H   0  0  0  0  0  0  0  0  0  0  0  0
  141.3356   75.9564  221.4121 H   0  0  0  0  0  0  0  0  0  0  0  0
  141.5085   78.2979  220.2519 H   0  0  0  0  0  0  0  0  0  0  0  0
  142.9424   77.2332  220.6499 H   0  0  0  0  0  0  0  0  0  0  0  0
  142.8794   79.7631  219.5976 H   0  0  0  0  0  0  0  0  0  0  0  0
  143.6600   80.5950  216.9950 H   0  0  0  0  0  0  0  0  0  0  0  0
  142.7210   81.8630  217.7680 H   0  0  0  0  0  0  0  0  0  0  0  0
  140.5635   80.5796  217.9592 H   0  0  0  0  0  0  0  0  0  0  0  0
  140.6584   79.6701  219.5705 H   0  0  0  0  0  0  0  0  0  0  0  0
  140.9103   82.7631  217.7847 H   0  0  0  0  0  0  0  0  0  0  0  0
  140.5496   84.9609  218.7777 H   0  0  0  0  0  0  0  0  0  0  0  0
  140.4257   85.2549  221.2537 H   0  0  0  0  0  0  0  0  0  0  0  0
  140.6750   83.2269  222.6750 H   0  0  0  0  0  0  0  0  0  0  0  0
  139.1905   80.6655  222.7273 H   0  0  0  0  0  0  0  0  0  0  0  0
  139.7259   78.9442  224.4557 H   0  0  0  0  0  0  0  0  0  0  0  0
  142.0719   78.1244  224.6870 H   0  0  0  0  0  0  0  0  0  0  0  0
  143.8677   79.0332  223.1980 H   0  0  0  0  0  0  0  0  0  0  0  0
  143.2920   80.7341  221.5065 H   0  0  0  0  0  0  0  0  0  0  0  0
  142.7663   76.3793  216.8517 H   0  0  0  0  0  0  0  0  0  0  0  0
  143.8469   75.8992  218.2325 H   0  0  0  0  0  0  0  0  0  0  0  0
  141.1046   75.1001  217.5403 H   0  0  0  0  0  0  0  0  0  0  0  0
  142.6059   74.1876  218.2081 H   0  0  0  0  0  0  0  0  0  0  0  0
  1  2  1  0
  2  3  1  0
  3  4  2  0
  3  5  1  0
  5  6  1  0
  6  7  2  0
  7  8  1  0
  8  9  2  0
  9 10  1  0
 10 11  2  0
  5 12  1  0
 12 13  1  0
 13 14  1  0
 14 15  1  0
 15 16  1  0
 16 17  2  0
 16 18  1  0
 18 19  1  0
 18 20  1  0
 20 21  1  0
 21 22  2  0
 22 23  1  0
 23 24  2  0
 24 25  1  0
 25 26  2  0
 26 27  1  0
 27 28  2  0
 28 29  1  0
 29 30  2  0
 30 31  1  0
 31 32  2  0
 15 33  1  0
 33 34  1  0
 11  6  1  0
 34 12  1  0
 26 21  1  0
 32 27  1  0
  1 35  1  0
  1 36  1  0
  1 37  1  0
  2 38  1  0
  2 39  1  0
  7 40  1  0
  8 41  1  0
  9 42  1  0
 10 43  1  0
 11 44  1  0
 12 45  1  0
 13 46  1  0
 13 47  1  0
 14 48  1  0
 14 49  1  0
 18 50  1  1
 19 51  1  0
 19 52  1  0
 20 53  1  0
 20 54  1  0
 22 55  1  0
 23 56  1  0
 24 57  1  0
 25 58  1  0
 28 59  1  0
 29 60  1  0
 30 61  1  0
 31 62  1  0
 32 63  1  0
 33 64  1  0
 33 65  1  0
 34 66  1  0
 34 67  1  0
M  END
>  <smiles>  (38) 
CCC(=O)N(c1ccccc1)C1CCN(C(=O)[C@@H](N)Cc2ccccc2-c2ccccc2)CC1

>  <score_type>  (38) 
oracle

>  <origin>  (38) 
autodockgpu

>  <m_score__min__energy>  (38) 
-8.6899999999999995

>  <m_primary>  (38) 
energy

>  <rmsd>  (38) 
5.930933153647648

>  <m_score__min__rmsd>  (38) 
5.930933153647648

>  <meeko>  (38) 
{"free_energy": -7.9, "intermolecular_energy": -10.58, "internal_energy": -3.27, "cluster_size": 4, "cluster_id": 3, "rank_in_cluster": 3}

>  <energy>  (38) 
-6.94

>  <cluster_rmsd>  (38) 
0.52

>  <cluster>  (38) 
5

$$$$

     RDKit          3D

 67 70  0  0  0  0  0  0  0  0999 V2000
  146.5130   73.3730  221.5180 C   0  0  0  0  0  0  0  0  0  0  0  0
  145.2320   73.4910  220.7500 C   0  0  0  0  0  0  0  0  0  0  0  0
  145.1670   72.5900  219.5640 C   0  0  0  0  0  0  0  0  0  0  0  0
  145.9500   72.7870  218.6010 O   0  0  0  0  0  0  0  0  0  0  0  0
  144.2230   71.5190  219.5260 N   0  0  0  0  0  0  0  0  0  0  0  0
  144.7690   70.2150  219.3030 C   0  0  0  0  0  0  0  0  0  0  0  0
  145.8970   69.9910  218.5510 C   0  0  0  0  0  0  0  0  0  0  0  0
  146.3270   68.6910  218.3950 C   0  0  0  0  0  0  0  0  0  0  0  0
  145.6670   67.6130  218.9620 C   0  0  0  0  0  0  0  0  0  0  0  0
  144.5250   67.8420  219.7220 C   0  0  0  0  0  0  0  0  0  0  0  0
  144.0770   69.1570  219.8890 C   0  0  0  0  0  0  0  0  0  0  0  0
  142.7860   71.7340  219.7170 C   0  0  0  0  0  0  0  0  0  0  0  0
  142.5060   72.2480  221.0770 C   0  0  0  0  0  0  0  0  0  0  0  0
  142.0750   73.6870  221.1730 C   0  0  0  0  0  0  0  0  0  0  0  0
  141.3160   74.1520  220.0240 N   0  0  0  0  0  0  0  0  0  0  0  0
  140.1850   75.0660  220.2050 C   0  0  0  0  0  0  0  0  0  0  0  0
  139.5360   75.2770  219.1550 O   0  0  0  0  0  0  0  0  0  0  0  0
  139.8520   75.6640  221.4790 C   0  0  1  0  0  0  0  0  0  0  0  0
  139.1620   74.6640  222.3320 N   0  0  0  0  0  0  0  0  0  0  0  0
  140.9270   76.3500  222.2460 C   0  0  0  0  0  0  0  0  0  0  0  0
  141.0570   77.7920  222.0490 C   0  0  0  0  0  0  0  0  0  0  0  0
  140.5380   78.5920  223.0890 C   0  0  0  0  0  0  0  0  0  0  0  0
  140.6720   79.9570  223.1000 C   0  0  0  0  0  0  0  0  0  0  0  0
  141.3250   80.6290  222.0850 C   0  0  0  0  0  0  0  0  0  0  0  0
  141.8330   79.8600  221.0640 C   0  0  0  0  0  0  0  0  0  0  0  0
  141.6940   78.4580  221.0530 C   0  0  0  0  0  0  0  0  0  0  0  0
  142.1780   77.8380  219.8140 C   0  0  0  0  0  0  0  0  0  0  0  0
  143.0840   76.8020  219.7960 C   0  0  0  0  0  0  0  0  0  0  0  0
  143.5640   76.2610  218.5940 C   0  0  0  0  0  0  0  0  0  0  0  0
  143.1090   76.7850  217.3890 C   0  0  0  0  0  0  0  0  0  0  0  0
  142.1900   77.8370  217.3800 C   0  0  0  0  0  0  0  0  0  0  0  0
  141.7460   78.3390  218.5840 C   0  0  0  0  0  0  0  0  0  0  0  0
  141.6660   73.7720  218.6730 C   0  0  0  0  0  0  0  0  0  0  0  0
  142.0910   72.3720  218.5800 C   0  0  0  0  0  0  0  0  0  0  0  0
  146.2971   73.3929  222.5964 H   0  0  0  0  0  0  0  0  0  0  0  0
  147.0088   72.4254  221.2607 H   0  0  0  0  0  0  0  0  0  0  0  0
  147.1736   74.2141  221.2607 H   0  0  0  0  0  0  0  0  0  0  0  0
  144.3980   73.2423  221.4228 H   0  0  0  0  0  0  0  0  0  0  0  0
  145.1715   74.5239  220.3766 H   0  0  0  0  0  0  0  0  0  0  0  0
  146.4417   70.8261  218.0864 H   0  0  0  0  0  0  0  0  0  0  0  0
  147.2303   68.5018  217.7964 H   0  0  0  0  0  0  0  0  0  0  0  0
  146.0413   66.5894  218.8131 H   0  0  0  0  0  0  0  0  0  0  0  0
  143.9831   67.0036  220.1840 H   0  0  0  0  0  0  0  0  0  0  0  0
  143.1746   69.3565  220.4855 H   0  0  0  0  0  0  0  0  0  0  0  0
  142.2882   70.7535  219.6881 H   0  0  0  0  0  0  0  0  0  0  0  0
  141.7063   71.6295  221.5105 H   0  0  0  0  0  0  0  0  0  0  0  0
  143.4650   72.1938  221.6130 H   0  0  0  0  0  0  0  0  0  0  0  0
  141.4499   73.8022  222.0708 H   0  0  0  0  0  0  0  0  0  0  0  0
  142.9920   74.2929  221.2165 H   0  0  0  0  0  0  0  0  0  0  0  0
  139.1983   76.5031  221.1988 H   0  0  0  0  0  0  0  0  0  0  0  0
  138.9150   75.0420  223.2540 H   0  0  0  0  0  0  0  0  0  0  0  0
  138.4530   74.1310  221.8250 H   0  0  0  0  0  0  0  0  0  0  0  0
  140.7365   76.1757  223.3153 H   0  0  0  0  0  0  0  0  0  0  0  0
  141.8679   75.9214  221.8706 H   0  0  0  0  0  0  0  0  0  0  0  0
  140.0074   78.1040  223.9199 H   0  0  0  0  0  0  0  0  0  0  0  0
  140.2490   80.5308  223.9378 H   0  0  0  0  0  0  0  0  0  0  0  0
  141.4332   81.7236  222.0929 H   0  0  0  0  0  0  0  0  0  0  0  0
  142.3615   80.3524  220.2344 H   0  0  0  0  0  0  0  0  0  0  0  0
  143.4414   76.3870  220.7500 H   0  0  0  0  0  0  0  0  0  0  0  0
  144.2897   75.4344  218.6045 H   0  0  0  0  0  0  0  0  0  0  0  0
  143.4744   76.3692  216.4385 H   0  0  0  0  0  0  0  0  0  0  0  0
  141.8277   78.2566  216.4299 H   0  0  0  0  0  0  0  0  0  0  0  0
  141.0224   79.1674  218.5760 H   0  0  0  0  0  0  0  0  0  0  0  0
  140.7887   73.9188  218.0259 H   0  0  0  0  0  0  0  0  0  0  0  0
  142.5103   74.4013  218.3550 H   0  0  0  0  0  0  0  0  0  0  0  0
  141.1858   71.7775  218.3870 H   0  0  0  0  0  0  0  0  0  0  0  0
  142.8595   72.3927  217.7933 H   0  0  0  0  0  0  0  0  0  0  0  0
  1  2  1  0
  2  3  1  0
  3  4  2  0
  3  5  1  0
  5  6  1  0
  6  7  2  0
  7  8  1  0
  8  9  2  0
  9 10  1  0
 10 11  2  0
  5 12  1  0
 12 13  1  0
 13 14  1  0
 14 15  1  0
 15 16  1  0
 16 17  2  0
 16 18  1  0
 18 19  1  0
 18 20  1  0
 20 21  1  0
 21 22  2  0
 22 23  1  0
 23 24  2  0
 24 25  1  0
 25 26  2  0
 26 27  1  0
 27 28  2  0
 28 29  1  0
 29 30  2  0
 30 31  1  0
 31 32  2  0
 15 33  1  0
 33 34  1  0
 11  6  1  0
 34 12  1  0
 26 21  1  0
 32 27  1  0
  1 35  1  0
  1 36  1  0
  1 37  1  0
  2 38  1  0
  2 39  1  0
  7 40  1  0
  8 41  1  0
  9 42  1  0
 10 43  1  0
 11 44  1  0
 12 45  1  0
 13 46  1  0
 13 47  1  0
 14 48  1  0
 14 49  1  0
 18 50  1  6
 19 51  1  0
 19 52  1  0
 20 53  1  0
 20 54  1  0
 22 55  1  0
 23 56  1  0
 24 57  1  0
 25 58  1  0
 28 59  1  0
 29 60  1  0
 30 61  1  0
 31 62  1  0
 32 63  1  0
 33 64  1  0
 33 65  1  0
 34 66  1  0
 34 67  1  0
M  END
>  <smiles>  (39) 
CCC(=O)N(c1ccccc1)C1CCN(C(=O)[C@@H](N)Cc2ccccc2-c2ccccc2)CC1

>  <score_type>  (39) 
oracle

>  <origin>  (39) 
autodockgpu

>  <m_score__min__energy>  (39) 
-8.6899999999999995

>  <m_primary>  (39) 
energy

>  <rmsd>  (39) 
6.765393176796256

>  <m_score__min__rmsd>  (39) 
6.765393176796256

>  <meeko>  (39) 
{"free_energy": -8.22, "intermolecular_energy": -10.9, "internal_energy": -2.97, "cluster_size": 13, "cluster_id": 2, "rank_in_cluster": 2}

>  <energy>  (39) 
-6.93

>  <cluster_rmsd>  (39) 
0.54

>  <cluster>  (39) 
5

$$$$

     RDKit          3D

 67 70  0  0  0  0  0  0  0  0999 V2000
  146.4160   73.0870  221.9230 C   0  0  0  0  0  0  0  0  0  0  0  0
  145.8690   74.0060  220.8720 C   0  0  0  0  0  0  0  0  0  0  0  0
  145.4600   73.3010  219.6240 C   0  0  0  0  0  0  0  0  0  0  0  0
  146.2970   73.1570  218.6990 O   0  0  0  0  0  0  0  0  0  0  0  0
  144.1290   72.7990  219.4860 N   0  0  0  0  0  0  0  0  0  0  0  0
  143.9970   71.3750  219.4960 C   0  0  0  0  0  0  0  0  0  0  0  0
  145.0590   70.5190  219.3260 C   0  0  0  0  0  0  0  0  0  0  0  0
  144.8120   69.1640  219.3430 C   0  0  0  0  0  0  0  0  0  0  0  0
  143.5420   68.6390  219.5230 C   0  0  0  0  0  0  0  0  0  0  0  0
  142.4690   69.5060  219.6950 C   0  0  0  0  0  0  0  0  0  0  0  0
  142.7050   70.8850  219.6800 C   0  0  0  0  0  0  0  0  0  0  0  0
  142.9680   73.6840  219.3560 C   0  0  0  0  0  0  0  0  0  0  0  0
  143.1210   74.8840  220.2090 C   0  0  0  0  0  0  0  0  0  0  0  0
  143.3760   76.1850  219.4940 C   0  0  0  0  0  0  0  0  0  0  0  0
  142.7500   76.2690  218.1840 N   0  0  0  0  0  0  0  0  0  0  0  0
  142.1650   77.5310  217.7250 C   0  0  0  0  0  0  0  0  0  0  0  0
  141.5400   77.4310  216.6450 O   0  0  0  0  0  0  0  0  0  0  0  0
  142.2970   78.7730  218.4540 C   0  0  1  0  0  0  0  0  0  0  0  0
  142.5700   79.8800  217.5040 N   0  0  0  0  0  0  0  0  0  0  0  0
  141.2190   79.1570  219.4060 C   0  0  0  0  0  0  0  0  0  0  0  0
  140.8250   78.1540  220.3920 C   0  0  0  0  0  0  0  0  0  0  0  0
  140.1720   77.0190  219.8690 C   0  0  0  0  0  0  0  0  0  0  0  0
  139.8290   75.9450  220.6510 C   0  0  0  0  0  0  0  0  0  0  0  0
  140.1030   75.9180  222.0050 C   0  0  0  0  0  0  0  0  0  0  0  0
  140.7370   77.0220  222.5270 C   0  0  0  0  0  0  0  0  0  0  0  0
  141.0880   78.1240  221.7230 C   0  0  0  0  0  0  0  0  0  0  0  0
  141.6250   79.2530  222.4920 C   0  0  0  0  0  0  0  0  0  0  0  0
  142.9690   79.4210  222.7410 C   0  0  0  0  0  0  0  0  0  0  0  0
  143.4490   80.4860  223.5180 C   0  0  0  0  0  0  0  0  0  0  0  0
  142.5410   81.3960  224.0490 C   0  0  0  0  0  0  0  0  0  0  0  0
  141.1730   81.2470  223.8110 C   0  0  0  0  0  0  0  0  0  0  0  0
  140.7450   80.1870  223.0430 C   0  0  0  0  0  0  0  0  0  0  0  0
  142.7190   75.1410  217.2790 C   0  0  0  0  0  0  0  0  0  0  0  0
  142.4770   73.8740  217.9750 C   0  0  0  0  0  0  0  0  0  0  0  0
  146.1780   73.4869  222.9197 H   0  0  0  0  0  0  0  0  0  0  0  0
  145.9639   72.0906  221.8102 H   0  0  0  0  0  0  0  0  0  0  0  0
  147.5074   73.0093  221.8102 H   0  0  0  0  0  0  0  0  0  0  0  0
  144.9901   74.5233  221.2843 H   0  0  0  0  0  0  0  0  0  0  0  0
  146.6738   74.7052  220.6011 H   0  0  0  0  0  0  0  0  0  0  0  0
  146.0785   70.9056  219.1803 H   0  0  0  0  0  0  0  0  0  0  0  0
  145.6559   68.4714  219.2084 H   0  0  0  0  0  0  0  0  0  0  0  0
  143.3851   67.5503  219.5297 H   0  0  0  0  0  0  0  0  0  0  0  0
  141.4514   69.1144  219.8405 H   0  0  0  0  0  0  0  0  0  0  0  0
  141.8675   71.5855  219.8139 H   0  0  0  0  0  0  0  0  0  0  0  0
  142.0938   73.1635  219.7741 H   0  0  0  0  0  0  0  0  0  0  0  0
  142.1966   74.9990  220.7939 H   0  0  0  0  0  0  0  0  0  0  0  0
  144.0219   74.7007  220.8129 H   0  0  0  0  0  0  0  0  0  0  0  0
  142.9879   77.0045  220.1167 H   0  0  0  0  0  0  0  0  0  0  0  0
  144.4621   76.2545  219.3344 H   0  0  0  0  0  0  0  0  0  0  0  0
  143.1428   78.5787  219.1299 H   0  0  0  0  0  0  0  0  0  0  0  0
  143.5500   80.1850  217.5310 H   0  0  0  0  0  0  0  0  0  0  0  0
  142.1360   79.7360  216.5910 H   0  0  0  0  0  0  0  0  0  0  0  0
  141.5606   80.0471  219.9546 H   0  0  0  0  0  0  0  0  0  0  0  0
  140.3265   79.3150  218.7827 H   0  0  0  0  0  0  0  0  0  0  0  0
  139.9290   76.9937  218.7965 H   0  0  0  0  0  0  0  0  0  0  0  0
  139.3235   75.0844  220.1886 H   0  0  0  0  0  0  0  0  0  0  0  0
  139.8284   75.0580  222.6334 H   0  0  0  0  0  0  0  0  0  0  0  0
  140.9760   77.0446  223.6005 H   0  0  0  0  0  0  0  0  0  0  0  0
  143.6855   78.7007  222.3193 H   0  0  0  0  0  0  0  0  0  0  0  0
  144.5271   80.5996  223.7044 H   0  0  0  0  0  0  0  0  0  0  0  0
  142.9021   82.2370  224.6592 H   0  0  0  0  0  0  0  0  0  0  0  0
  140.4505   81.9632  224.2293 H   0  0  0  0  0  0  0  0  0  0  0  0
  139.6672   80.0714  222.8561 H   0  0  0  0  0  0  0  0  0  0  0  0
  141.9161   75.2995  216.5440 H   0  0  0  0  0  0  0  0  0  0  0  0
  143.7030   75.0740  216.7920 H   0  0  0  0  0  0  0  0  0  0  0  0
  141.3868   73.7303  218.0030 H   0  0  0  0  0  0  0  0  0  0  0  0
  143.0678   73.1499  217.3948 H   0  0  0  0  0  0  0  0  0  0  0  0
  1  2  1  0
  2  3  1  0
  3  4  2  0
  3  5  1  0
  5  6  1  0
  6  7  2  0
  7  8  1  0
  8  9  2  0
  9 10  1  0
 10 11  2  0
  5 12  1  0
 12 13  1  0
 13 14  1  0
 14 15  1  0
 15 16  1  0
 16 17  2  0
 16 18  1  0
 18 19  1  0
 18 20  1  0
 20 21  1  0
 21 22  2  0
 22 23  1  0
 23 24  2  0
 24 25  1  0
 25 26  2  0
 26 27  1  0
 27 28  2  0
 28 29  1  0
 29 30  2  0
 30 31  1  0
 31 32  2  0
 15 33  1  0
 33 34  1  0
 11  6  1  0
 34 12  1  0
 26 21  1  0
 32 27  1  0
  1 35  1  0
  1 36  1  0
  1 37  1  0
  2 38  1  0
  2 39  1  0
  7 40  1  0
  8 41  1  0
  9 42  1  0
 10 43  1  0
 11 44  1  0
 12 45  1  0
 13 46  1  0
 13 47  1  0
 14 48  1  0
 14 49  1  0
 18 50  1  1
 19 51  1  0
 19 52  1  0
 20 53  1  0
 20 54  1  0
 22 55  1  0
 23 56  1  0
 24 57  1  0
 25 58  1  0
 28 59  1  0
 29 60  1  0
 30 61  1  0
 31 62  1  0
 32 63  1  0
 33 64  1  0
 33 65  1  0
 34 66  1  0
 34 67  1  0
M  END
>  <smiles>  (40) 
CCC(=O)N(c1ccccc1)C1CCN(C(=O)[C@@H](N)Cc2ccccc2-c2ccccc2)CC1

>  <score_type>  (40) 
oracle

>  <origin>  (40) 
autodockgpu

>  <m_score__min__energy>  (40) 
-8.6899999999999995

>  <m_primary>  (40) 
energy

>  <rmsd>  (40) 
5.6715689037996055

>  <m_score__min__rmsd>  (40) 
5.6715689037996055

>  <meeko>  (40) 
{"free_energy": -8.57, "intermolecular_energy": -11.25, "internal_energy": -3.04, "cluster_size": 13, "cluster_id": 1, "rank_in_cluster": 2}

>  <energy>  (40) 
-6.83

>  <cluster_rmsd>  (40) 
1.69

>  <cluster>  (40) 
5

$$$$

     RDKit          3D

 67 70  0  0  0  0  0  0  0  0999 V2000
  142.5790   78.3250  217.5180 C   0  0  0  0  0  0  0  0  0  0  0  0
  143.0770   76.9250  217.7070 C   0  0  0  0  0  0  0  0  0  0  0  0
  142.1000   76.0370  218.3990 C   0  0  0  0  0  0  0  0  0  0  0  0
  141.1630   75.5230  217.7390 O   0  0  0  0  0  0  0  0  0  0  0  0
  142.2300   75.7790  219.7980 N   0  0  0  0  0  0  0  0  0  0  0  0
  143.0750   74.6800  220.1530 C   0  0  0  0  0  0  0  0  0  0  0  0
  142.5960   73.4260  220.4490 C   0  0  0  0  0  0  0  0  0  0  0  0
  143.5020   72.4460  220.7870 C   0  0  0  0  0  0  0  0  0  0  0  0
  144.8670   72.6780  220.8410 C   0  0  0  0  0  0  0  0  0  0  0  0
  145.3500   73.9470  220.5420 C   0  0  0  0  0  0  0  0  0  0  0  0
  144.4410   74.9520  220.1970 C   0  0  0  0  0  0  0  0  0  0  0  0
  141.5530   76.5930  220.8120 C   0  0  0  0  0  0  0  0  0  0  0  0
  140.7150   77.6350  220.1770 C   0  0  0  0  0  0  0  0  0  0  0  0
  139.2240   77.4440  220.2700 C   0  0  0  0  0  0  0  0  0  0  0  0
  138.7920   76.7690  221.4830 N   0  0  0  0  0  0  0  0  0  0  0  0
  137.5600   77.1820  222.1590 C   0  0  0  0  0  0  0  0  0  0  0  0
  137.3780   76.6150  223.2610 O   0  0  0  0  0  0  0  0  0  0  0  0
  136.6450   78.1540  221.6060 C   0  0  1  0  0  0  0  0  0  0  0  0
  135.3120   77.9990  222.2410 N   0  0  0  0  0  0  0  0  0  0  0  0
  137.0500   79.5860  221.5900 C   0  0  0  0  0  0  0  0  0  0  0  0
  137.1380   80.2580  222.8850 C   0  0  0  0  0  0  0  0  0  0  0  0
  135.9130   80.7200  223.4080 C   0  0  0  0  0  0  0  0  0  0  0  0
  135.8150   81.2820  224.6560 C   0  0  0  0  0  0  0  0  0  0  0  0
  136.9180   81.4290  225.4730 C   0  0  0  0  0  0  0  0  0  0  0  0
  138.1190   80.9840  224.9720 C   0  0  0  0  0  0  0  0  0  0  0  0
  138.2200   80.4090  223.6900 C   0  0  0  0  0  0  0  0  0  0  0  0
  139.6040   80.1300  223.2870 C   0  0  0  0  0  0  0  0  0  0  0  0
  140.3530   79.1110  223.8310 C   0  0  0  0  0  0  0  0  0  0  0  0
  141.6900   78.8990  223.4590 C   0  0  0  0  0  0  0  0  0  0  0  0
  142.2700   79.7390  222.5150 C   0  0  0  0  0  0  0  0  0  0  0  0
  141.5300   80.7800  221.9500 C   0  0  0  0  0  0  0  0  0  0  0  0
  140.2210   80.9540  222.3440 C   0  0  0  0  0  0  0  0  0  0  0  0
  139.5260   75.6520  222.0380 C   0  0  0  0  0  0  0  0  0  0  0  0
  140.9770   75.8360  221.9420 C   0  0  0  0  0  0  0  0  0  0  0  0
  142.4132   78.7910  218.5005 H   0  0  0  0  0  0  0  0  0  0  0  0
  143.3252   78.9071  216.9573 H   0  0  0  0  0  0  0  0  0  0  0  0
  141.6328   78.3050  216.9573 H   0  0  0  0  0  0  0  0  0  0  0  0
  143.2974   76.4969  216.7180 H   0  0  0  0  0  0  0  0  0  0  0  0
  143.9717   76.9821  218.3444 H   0  0  0  0  0  0  0  0  0  0  0  0
  141.5176   73.2113  220.4167 H   0  0  0  0  0  0  0  0  0  0  0  0
  143.1275   71.4391  221.0235 H   0  0  0  0  0  0  0  0  0  0  0  0
  145.5593   71.8689  221.1168 H   0  0  0  0  0  0  0  0  0  0  0  0
  146.4292   74.1569  220.5763 H   0  0  0  0  0  0  0  0  0  0  0  0
  144.8059   75.9621  219.9592 H   0  0  0  0  0  0  0  0  0  0  0  0
  142.3195   77.1572  221.3635 H   0  0  0  0  0  0  0  0  0  0  0  0
  140.9595   78.5965  220.6521 H   0  0  0  0  0  0  0  0  0  0  0  0
  140.9496   77.5845  219.1035 H   0  0  0  0  0  0  0  0  0  0  0  0
  138.7450   78.4336  220.2348 H   0  0  0  0  0  0  0  0  0  0  0  0
  138.9305   76.8030  219.4256 H   0  0  0  0  0  0  0  0  0  0  0  0
  136.6349   77.9060  220.5344 H   0  0  0  0  0  0  0  0  0  0  0  0
  135.3460   77.4110  223.0820 H   0  0  0  0  0  0  0  0  0  0  0  0
  134.7890   78.8750  222.2870 H   0  0  0  0  0  0  0  0  0  0  0  0
  138.0402   79.6470  221.1149 H   0  0  0  0  0  0  0  0  0  0  0  0
  136.2473   80.1073  221.0479 H   0  0  0  0  0  0  0  0  0  0  0  0
  135.0047   80.6268  222.7946 H   0  0  0  0  0  0  0  0  0  0  0  0
  134.8329   81.6240  225.0144 H   0  0  0  0  0  0  0  0  0  0  0  0
  136.8403   81.8791  226.4737 H   0  0  0  0  0  0  0  0  0  0  0  0
  139.0248   81.0796  225.5888 H   0  0  0  0  0  0  0  0  0  0  0  0
  139.8921   78.4459  224.5761 H   0  0  0  0  0  0  0  0  0  0  0  0
  142.2706   78.0798  223.9081 H   0  0  0  0  0  0  0  0  0  0  0  0
  143.3159   79.5830  222.2120 H   0  0  0  0  0  0  0  0  0  0  0  0
  141.9838   81.4489  221.2040 H   0  0  0  0  0  0  0  0  0  0  0  0
  139.6395   81.7743  221.8980 H   0  0  0  0  0  0  0  0  0  0  0  0
  139.2530   75.5411  223.0978 H   0  0  0  0  0  0  0  0  0  0  0  0
  139.2618   74.7550  221.4586 H   0  0  0  0  0  0  0  0  0  0  0  0
  141.2934   76.3493  222.8620 H   0  0  0  0  0  0  0  0  0  0  0  0
  141.3508   74.8145  221.7783 H   0  0  0  0  0  0  0  0  0  0  0  0
  1  2  1  0
  2  3  1  0
  3  4  2  0
  3  5  1  0
  5  6  1  0
  6  7  2  0
  7  8  1  0
  8  9  2  0
  9 10  1  0
 10 11  2  0
  5 12  1  0
 12 13  1  0
 13 14  1  0
 14 15  1  0
 15 16  1  0
 16 17  2  0
 16 18  1  0
 18 19  1  0
 18 20  1  0
 20 21  1  0
 21 22  2  0
 22 23  1  0
 23 24  2  0
 24 25  1  0
 25 26  2  0
 26 27  1  0
 27 28  2  0
 28 29  1  0
 29 30  2  0
 30 31  1  0
 31 32  2  0
 15 33  1  0
 33 34  1  0
 11  6  1  0
 34 12  1  0
 26 21  1  0
 32 27  1  0
  1 35  1  0
  1 36  1  0
  1 37  1  0
  2 38  1  0
  2 39  1  0
  7 40  1  0
  8 41  1  0
  9 42  1  0
 10 43  1  0
 11 44  1  0
 12 45  1  0
 13 46  1  0
 13 47  1  0
 14 48  1  0
 14 49  1  0
 18 50  1  6
 19 51  1  0
 19 52  1  0
 20 53  1  0
 20 54  1  0
 22 55  1  0
 23 56  1  0
 24 57  1  0
 25 58  1  0
 28 59  1  0
 29 60  1  0
 30 61  1  0
 31 62  1  0
 32 63  1  0
 33 64  1  0
 33 65  1  0
 34 66  1  0
 34 67  1  0
M  END
>  <smiles>  (41) 
CCC(=O)N(c1ccccc1)C1CCN(C(=O)[C@@H](N)Cc2ccccc2-c2ccccc2)CC1

>  <score_type>  (41) 
oracle

>  <origin>  (41) 
autodockgpu

>  <m_score__min__energy>  (41) 
-8.6899999999999995

>  <m_primary>  (41) 
energy

>  <rmsd>  (41) 
5.637719384429672

>  <m_score__min__rmsd>  (41) 
5.637719384429672

>  <meeko>  (41) 
{"free_energy": -6.55, "intermolecular_energy": -9.23, "internal_energy": -4.07, "cluster_size": 2, "cluster_id": 8, "rank_in_cluster": 1}

>  <energy>  (41) 
-6.78

>  <cluster_rmsd>  (41) 
0.77

>  <cluster>  (41) 
5

$$$$

     RDKit          3D

 67 70  0  0  0  0  0  0  0  0999 V2000
  142.5520   80.8850  218.0870 C   0  0  0  0  0  0  0  0  0  0  0  0
  141.3420   81.7360  218.3280 C   0  0  0  0  0  0  0  0  0  0  0  0
  140.9850   81.8630  219.7690 C   0  0  0  0  0  0  0  0  0  0  0  0
  140.7250   82.9990  220.2390 O   0  0  0  0  0  0  0  0  0  0  0  0
  140.9410   80.7040  220.6040 N   0  0  0  0  0  0  0  0  0  0  0  0
  141.5820   80.8290  221.8770 C   0  0  0  0  0  0  0  0  0  0  0  0
  141.0710   81.5810  222.9070 C   0  0  0  0  0  0  0  0  0  0  0  0
  141.7790   81.6360  224.0870 C   0  0  0  0  0  0  0  0  0  0  0  0
  142.9800   80.9670  224.2690 C   0  0  0  0  0  0  0  0  0  0  0  0
  143.4960   80.2080  223.2250 C   0  0  0  0  0  0  0  0  0  0  0  0
  142.7860   80.1420  222.0210 C   0  0  0  0  0  0  0  0  0  0  0  0
  140.2710   79.4680  220.1910 C   0  0  0  0  0  0  0  0  0  0  0  0
  141.2600   78.4130  219.8740 C   0  0  0  0  0  0  0  0  0  0  0  0
  141.3550   77.2700  220.8500 C   0  0  0  0  0  0  0  0  0  0  0  0
  140.0970   76.9480  221.5030 N   0  0  0  0  0  0  0  0  0  0  0  0
  139.7390   75.5520  221.7690 C   0  0  0  0  0  0  0  0  0  0  0  0
  138.5740   75.4070  222.2070 O   0  0  0  0  0  0  0  0  0  0  0  0
  140.6450   74.4490  221.5430 C   0  0  1  0  0  0  0  0  0  0  0  0
  140.3760   73.3750  222.5320 N   0  0  0  0  0  0  0  0  0  0  0  0
  140.7460   73.8800  220.1720 C   0  0  0  0  0  0  0  0  0  0  0  0
  141.4050   74.7080  219.1640 C   0  0  0  0  0  0  0  0  0  0  0  0
  140.5380   75.4300  218.3180 C   0  0  0  0  0  0  0  0  0  0  0  0
  141.0000   76.3270  217.3880 C   0  0  0  0  0  0  0  0  0  0  0  0
  142.3500   76.5720  217.2260 C   0  0  0  0  0  0  0  0  0  0  0  0
  143.2060   75.8700  218.0440 C   0  0  0  0  0  0  0  0  0  0  0  0
  142.7300   74.9490  218.9980 C   0  0  0  0  0  0  0  0  0  0  0  0
  143.8020   74.2050  219.6690 C   0  0  0  0  0  0  0  0  0  0  0  0
  144.7570   74.8080  220.4560 C   0  0  0  0  0  0  0  0  0  0  0  0
  145.7970   74.0760  221.0470 C   0  0  0  0  0  0  0  0  0  0  0  0
  145.8640   72.7040  220.8320 C   0  0  0  0  0  0  0  0  0  0  0  0
  144.9080   72.0690  220.0370 C   0  0  0  0  0  0  0  0  0  0  0  0
  143.9030   72.8250  219.4740 C   0  0  0  0  0  0  0  0  0  0  0  0
  139.1830   77.9760  221.9490 C   0  0  0  0  0  0  0  0  0  0  0  0
  139.0940   79.0920  221.0020 C   0  0  0  0  0  0  0  0  0  0  0  0
  142.9844   80.5809  219.0516 H   0  0  0  0  0  0  0  0  0  0  0  0
  142.2631   79.9901  217.5162 H   0  0  0  0  0  0  0  0  0  0  0  0
  143.2965   81.4594  217.5162 H   0  0  0  0  0  0  0  0  0  0  0  0
  141.5376   82.7416  217.9274 H   0  0  0  0  0  0  0  0  0  0  0  0
  140.4950   81.2457  217.8258 H   0  0  0  0  0  0  0  0  0  0  0  0
  140.1217   82.1247  222.7922 H   0  0  0  0  0  0  0  0  0  0  0  0
  141.3761   82.2340  224.9177 H   0  0  0  0  0  0  0  0  0  0  0  0
  143.5170   81.0360  225.2265 H   0  0  0  0  0  0  0  0  0  0  0  0
  144.4470   79.6680  223.3434 H   0  0  0  0  0  0  0  0  0  0  0  0
  143.1797   79.5455  221.1848 H   0  0  0  0  0  0  0  0  0  0  0  0
  139.7611   79.6595  219.2353 H   0  0  0  0  0  0  0  0  0  0  0  0
  140.9985   77.9933  218.8914 H   0  0  0  0  0  0  0  0  0  0  0  0
  142.2403   78.9107  219.9101 H   0  0  0  0  0  0  0  0  0  0  0  0
  141.7016   76.3785  220.3068 H   0  0  0  0  0  0  0  0  0  0  0  0
  142.0545   77.5814  221.6397 H   0  0  0  0  0  0  0  0  0  0  0  0
  141.6360   74.9077  221.6754 H   0  0  0  0  0  0  0  0  0  0  0  0
  139.5330   73.5590  223.0890 H   0  0  0  0  0  0  0  0  0  0  0  0
  140.5020   72.4380  222.1460 H   0  0  0  0  0  0  0  0  0  0  0  0
  141.3043   72.9349  220.2438 H   0  0  0  0  0  0  0  0  0  0  0  0
  139.7073   73.7752  219.8256 H   0  0  0  0  0  0  0  0  0  0  0  0
  139.4535   75.2685  218.4067 H   0  0  0  0  0  0  0  0  0  0  0  0
  140.2777   76.8643  216.7559 H   0  0  0  0  0  0  0  0  0  0  0  0
  142.7218   77.2913  216.4814 H   0  0  0  0  0  0  0  0  0  0  0  0
  144.2899   76.0323  217.9504 H   0  0  0  0  0  0  0  0  0  0  0  0
  144.7029   75.8935  220.6259 H   0  0  0  0  0  0  0  0  0  0  0  0
  146.5490   74.5801  221.6718 H   0  0  0  0  0  0  0  0  0  0  0  0
  146.6734   72.1166  221.2901 H   0  0  0  0  0  0  0  0  0  0  0  0
  144.9563   70.9839  219.8631 H   0  0  0  0  0  0  0  0  0  0  0  0
  143.1514   72.3230  218.8470 H   0  0  0  0  0  0  0  0  0  0  0  0
  138.1833   77.5328  222.0681 H   0  0  0  0  0  0  0  0  0  0  0  0
  139.5630   78.3732  222.9018 H   0  0  0  0  0  0  0  0  0  0  0  0
  138.2872   78.8459  220.2959 H   0  0  0  0  0  0  0  0  0  0  0  0
  138.9461   79.9657  221.6537 H   0  0  0  0  0  0  0  0  0  0  0  0
  1  2  1  0
  2  3  1  0
  3  4  2  0
  3  5  1  0
  5  6  1  0
  6  7  2  0
  7  8  1  0
  8  9  2  0
  9 10  1  0
 10 11  2  0
  5 12  1  0
 12 13  1  0
 13 14  1  0
 14 15  1  0
 15 16  1  0
 16 17  2  0
 16 18  1  0
 18 19  1  0
 18 20  1  0
 20 21  1  0
 21 22  2  0
 22 23  1  0
 23 24  2  0
 24 25  1  0
 25 26  2  0
 26 27  1  0
 27 28  2  0
 28 29  1  0
 29 30  2  0
 30 31  1  0
 31 32  2  0
 15 33  1  0
 33 34  1  0
 11  6  1  0
 34 12  1  0
 26 21  1  0
 32 27  1  0
  1 35  1  0
  1 36  1  0
  1 37  1  0
  2 38  1  0
  2 39  1  0
  7 40  1  0
  8 41  1  0
  9 42  1  0
 10 43  1  0
 11 44  1  0
 12 45  1  0
 13 46  1  0
 13 47  1  0
 14 48  1  0
 14 49  1  0
 18 50  1  1
 19 51  1  0
 19 52  1  0
 20 53  1  0
 20 54  1  0
 22 55  1  0
 23 56  1  0
 24 57  1  0
 25 58  1  0
 28 59  1  0
 29 60  1  0
 30 61  1  0
 31 62  1  0
 32 63  1  0
 33 64  1  0
 33 65  1  0
 34 66  1  0
 34 67  1  0
M  END
>  <smiles>  (42) 
CCC(=O)N(c1ccccc1)C1CCN(C(=O)[C@@H](N)Cc2ccccc2-c2ccccc2)CC1

>  <score_type>  (42) 
oracle

>  <origin>  (42) 
autodockgpu

>  <m_score__min__energy>  (42) 
-8.6899999999999995

>  <m_primary>  (42) 
energy

>  <rmsd>  (42) 
3.2426747639191946

>  <m_score__min__rmsd>  (42) 
3.2426747639191946

>  <meeko>  (42) 
{"free_energy": -7.45, "intermolecular_energy": -10.14, "internal_energy": -3.6, "cluster_size": 8, "cluster_id": 5, "rank_in_cluster": 1}

>  <energy>  (42) 
-7.43

>  <cluster_rmsd>  (42) 
0.0

>  <cluster>  (42) 
6

$$$$

     RDKit          3D

 67 70  0  0  0  0  0  0  0  0999 V2000
  142.4220   80.5780  217.9150 C   0  0  0  0  0  0  0  0  0  0  0  0
  142.0560   81.8390  218.6360 C   0  0  0  0  0  0  0  0  0  0  0  0
  140.9220   81.6690  219.5890 C   0  0  0  0  0  0  0  0  0  0  0  0
  140.0110   82.5330  219.6190 O   0  0  0  0  0  0  0  0  0  0  0  0
  140.8780   80.5350  220.4570 N   0  0  0  0  0  0  0  0  0  0  0  0
  141.4840   80.7100  221.7420 C   0  0  0  0  0  0  0  0  0  0  0  0
  140.9950   81.5730  222.6930 C   0  0  0  0  0  0  0  0  0  0  0  0
  141.6660   81.6680  223.8920 C   0  0  0  0  0  0  0  0  0  0  0  0
  142.8060   80.9300  224.1690 C   0  0  0  0  0  0  0  0  0  0  0  0
  143.2990   80.0570  223.2060 C   0  0  0  0  0  0  0  0  0  0  0  0
  142.6270   79.9510  221.9830 C   0  0  0  0  0  0  0  0  0  0  0  0
  140.2420   79.2740  220.0660 C   0  0  0  0  0  0  0  0  0  0  0  0
  141.2580   78.2300  219.8030 C   0  0  0  0  0  0  0  0  0  0  0  0
  141.3510   77.1180  220.8140 C   0  0  0  0  0  0  0  0  0  0  0  0
  140.0840   76.7900  221.4470 N   0  0  0  0  0  0  0  0  0  0  0  0
  139.7460   75.3970  221.7450 C   0  0  0  0  0  0  0  0  0  0  0  0
  138.5740   75.2420  222.1600 O   0  0  0  0  0  0  0  0  0  0  0  0
  140.6780   74.3050  221.5730 C   0  0  1  0  0  0  0  0  0  0  0  0
  140.4170   73.2630  222.5990 N   0  0  0  0  0  0  0  0  0  0  0  0
  140.8100   73.6870  220.2260 C   0  0  0  0  0  0  0  0  0  0  0  0
  141.3830   74.5230  219.1730 C   0  0  0  0  0  0  0  0  0  0  0  0
  140.4450   75.1800  218.3490 C   0  0  0  0  0  0  0  0  0  0  0  0
  140.8220   76.0770  217.3810 C   0  0  0  0  0  0  0  0  0  0  0  0
  142.1490   76.3860  217.1570 C   0  0  0  0  0  0  0  0  0  0  0  0
  143.0730   75.7490  217.9530 C   0  0  0  0  0  0  0  0  0  0  0  0
  142.6850   74.8280  218.9460 C   0  0  0  0  0  0  0  0  0  0  0  0
  143.8220   74.1550  219.5870 C   0  0  0  0  0  0  0  0  0  0  0  0
  144.6560   74.7820  220.4850 C   0  0  0  0  0  0  0  0  0  0  0  0
  145.7620   74.1260  221.0470 C   0  0  0  0  0  0  0  0  0  0  0  0
  146.0210   72.8080  220.6850 C   0  0  0  0  0  0  0  0  0  0  0  0
  145.1900   72.1520  219.7750 C   0  0  0  0  0  0  0  0  0  0  0  0
  144.1150   72.8330  219.2470 C   0  0  0  0  0  0  0  0  0  0  0  0
  139.1400   77.8130  221.8400 C   0  0  0  0  0  0  0  0  0  0  0  0
  139.0530   78.8990  220.8600 C   0  0  0  0  0  0  0  0  0  0  0  0
  142.6507   79.7900  218.6476 H   0  0  0  0  0  0  0  0  0  0  0  0
  141.5795   80.2587  217.2840 H   0  0  0  0  0  0  0  0  0  0  0  0
  143.3046   80.7594  217.2840 H   0  0  0  0  0  0  0  0  0  0  0  0
  142.9350   82.1865  219.1986 H   0  0  0  0  0  0  0  0  0  0  0  0
  141.7346   82.5660  217.8756 H   0  0  0  0  0  0  0  0  0  0  0  0
  140.0922   82.1717  222.5018 H   0  0  0  0  0  0  0  0  0  0  0  0
  141.2823   82.3563  224.6595 H   0  0  0  0  0  0  0  0  0  0  0  0
  143.3144   81.0338  225.1389 H   0  0  0  0  0  0  0  0  0  0  0  0
  144.2018   79.4598  223.4019 H   0  0  0  0  0  0  0  0  0  0  0  0
  143.0028   79.2657  221.2090 H   0  0  0  0  0  0  0  0  0  0  0  0
  139.7514   79.4269  219.0934 H   0  0  0  0  0  0  0  0  0  0  0  0
  141.0280   77.7771  218.8273 H   0  0  0  0  0  0  0  0  0  0  0  0
  142.2276   78.7475  219.8471 H   0  0  0  0  0  0  0  0  0  0  0  0
  141.7273   76.2181  220.3055 H   0  0  0  0  0  0  0  0  0  0  0  0
  142.0252   77.4661  221.6104 H   0  0  0  0  0  0  0  0  0  0  0  0
  141.6574   74.7891  221.7011 H   0  0  0  0  0  0  0  0  0  0  0  0
  141.2650   73.0050  223.1170 H   0  0  0  0  0  0  0  0  0  0  0  0
  139.5620   73.4340  223.1300 H   0  0  0  0  0  0  0  0  0  0  0  0
  141.4480   72.7968  220.3289 H   0  0  0  0  0  0  0  0  0  0  0  0
  139.7797   73.4792  219.9013 H   0  0  0  0  0  0  0  0  0  0  0  0
  139.3749   74.9660  218.4871 H   0  0  0  0  0  0  0  0  0  0  0  0
  140.0477   76.5618  216.7683 H   0  0  0  0  0  0  0  0  0  0  0  0
  142.4521   77.1049  216.3816 H   0  0  0  0  0  0  0  0  0  0  0  0
  144.1422   75.9644  217.8104 H   0  0  0  0  0  0  0  0  0  0  0  0
  144.4501   75.8244  220.7695 H   0  0  0  0  0  0  0  0  0  0  0  0
  146.4147   74.6464  221.7634 H   0  0  0  0  0  0  0  0  0  0  0  0
  146.8840   72.2806  221.1175 H   0  0  0  0  0  0  0  0  0  0  0  0
  145.3900   71.1100  219.4847 H   0  0  0  0  0  0  0  0  0  0  0  0
  143.4619   72.3148  218.5294 H   0  0  0  0  0  0  0  0  0  0  0  0
  138.1462   77.3540  221.9478 H   0  0  0  0  0  0  0  0  0  0  0  0
  139.4895   78.2451  222.7893 H   0  0  0  0  0  0  0  0  0  0  0  0
  138.2679   78.6176  220.1428 H   0  0  0  0  0  0  0  0  0  0  0  0
  138.8735   79.7880  221.4825 H   0  0  0  0  0  0  0  0  0  0  0  0
  1  2  1  0
  2  3  1  0
  3  4  2  0
  3  5  1  0
  5  6  1  0
  6  7  2  0
  7  8  1  0
  8  9  2  0
  9 10  1  0
 10 11  2  0
  5 12  1  0
 12 13  1  0
 13 14  1  0
 14 15  1  0
 15 16  1  0
 16 17  2  0
 16 18  1  0
 18 19  1  0
 18 20  1  0
 20 21  1  0
 21 22  2  0
 22 23  1  0
 23 24  2  0
 24 25  1  0
 25 26  2  0
 26 27  1  0
 27 28  2  0
 28 29  1  0
 29 30  2  0
 30 31  1  0
 31 32  2  0
 15 33  1  0
 33 34  1  0
 11  6  1  0
 34 12  1  0
 26 21  1  0
 32 27  1  0
  1 35  1  0
  1 36  1  0
  1 37  1  0
  2 38  1  0
  2 39  1  0
  7 40  1  0
  8 41  1  0
  9 42  1  0
 10 43  1  0
 11 44  1  0
 12 45  1  0
 13 46  1  0
 13 47  1  0
 14 48  1  0
 14 49  1  0
 18 50  1  1
 19 51  1  0
 19 52  1  0
 20 53  1  0
 20 54  1  0
 22 55  1  0
 23 56  1  0
 24 57  1  0
 25 58  1  0
 28 59  1  0
 29 60  1  0
 30 61  1  0
 31 62  1  0
 32 63  1  0
 33 64  1  0
 33 65  1  0
 34 66  1  0
 34 67  1  0
M  END
>  <smiles>  (43) 
CCC(=O)N(c1ccccc1)C1CCN(C(=O)[C@@H](N)Cc2ccccc2-c2ccccc2)CC1

>  <score_type>  (43) 
oracle

>  <origin>  (43) 
autodockgpu

>  <m_score__min__energy>  (43) 
-8.6899999999999995

>  <m_primary>  (43) 
energy

>  <rmsd>  (43) 
3.375565230671812

>  <m_score__min__rmsd>  (43) 
3.375565230671812

>  <meeko>  (43) 
{"free_energy": -7.16, "intermolecular_energy": -9.85, "internal_energy": -3.56, "cluster_size": 8, "cluster_id": 5, "rank_in_cluster": 4}

>  <energy>  (43) 
-6.74

>  <cluster_rmsd>  (43) 
0.0

>  <cluster>  (43) 
7

$$$$

     RDKit          3D

 67 70  0  0  0  0  0  0  0  0999 V2000
  145.6990   74.1950  220.8720 C   0  0  0  0  0  0  0  0  0  0  0  0
  145.6710   72.6980  220.8140 C   0  0  0  0  0  0  0  0  0  0  0  0
  145.3040   72.1640  219.4720 C   0  0  0  0  0  0  0  0  0  0  0  0
  145.8510   72.6470  218.4490 O   0  0  0  0  0  0  0  0  0  0  0  0
  144.3410   71.1160  219.3540 N   0  0  0  0  0  0  0  0  0  0  0  0
  144.8660   69.8170  219.0590 C   0  0  0  0  0  0  0  0  0  0  0  0
  145.7060   69.5680  218.0010 C   0  0  0  0  0  0  0  0  0  0  0  0
  146.1420   68.2760  217.8070 C   0  0  0  0  0  0  0  0  0  0  0  0
  145.7650   67.2290  218.6330 C   0  0  0  0  0  0  0  0  0  0  0  0
  144.9150   67.4830  219.7030 C   0  0  0  0  0  0  0  0  0  0  0  0
  144.4640   68.7910  219.9120 C   0  0  0  0  0  0  0  0  0  0  0  0
  142.9050   71.3480  219.5360 C   0  0  0  0  0  0  0  0  0  0  0  0
  142.6220   71.8590  220.8960 C   0  0  0  0  0  0  0  0  0  0  0  0
  142.2070   73.3030  220.9940 C   0  0  0  0  0  0  0  0  0  0  0  0
  141.4620   73.7820  219.8410 N   0  0  0  0  0  0  0  0  0  0  0  0
  140.3410   74.7080  220.0190 C   0  0  0  0  0  0  0  0  0  0  0  0
  139.7020   74.9310  218.9650 O   0  0  0  0  0  0  0  0  0  0  0  0
  140.0060   75.3060  221.2920 C   0  0  1  0  0  0  0  0  0  0  0  0
  139.3370   74.2980  222.1530 N   0  0  0  0  0  0  0  0  0  0  0  0
  141.0740   76.0120  222.0500 C   0  0  0  0  0  0  0  0  0  0  0  0
  141.1410   77.4630  221.8950 C   0  0  0  0  0  0  0  0  0  0  0  0
  140.5890   78.2080  222.9580 C   0  0  0  0  0  0  0  0  0  0  0  0
  140.6630   79.5770  223.0080 C   0  0  0  0  0  0  0  0  0  0  0  0
  141.2840   80.3070  222.0140 C   0  0  0  0  0  0  0  0  0  0  0  0
  141.8240   79.5910  220.9700 C   0  0  0  0  0  0  0  0  0  0  0  0
  141.7460   78.1850  220.9190 C   0  0  0  0  0  0  0  0  0  0  0  0
  142.2550   77.6240  219.6610 C   0  0  0  0  0  0  0  0  0  0  0  0
  141.8080   78.0260  218.4230 C   0  0  0  0  0  0  0  0  0  0  0  0
  142.2800   77.4370  217.2400 C   0  0  0  0  0  0  0  0  0  0  0  0
  143.2260   76.4220  217.3230 C   0  0  0  0  0  0  0  0  0  0  0  0
  143.6950   75.9960  218.5670 C   0  0  0  0  0  0  0  0  0  0  0  0
  143.2040   76.6000  219.7040 C   0  0  0  0  0  0  0  0  0  0  0  0
  141.8170   73.4020  218.4910 C   0  0  0  0  0  0  0  0  0  0  0  0
  142.2260   71.9980  218.3960 C   0  0  0  0  0  0  0  0  0  0  0  0
  145.7051   74.5212  221.9225 H   0  0  0  0  0  0  0  0  0  0  0  0
  146.6042   74.5646  220.3680 H   0  0  0  0  0  0  0  0  0  0  0  0
  144.8082   74.5982  220.3680 H   0  0  0  0  0  0  0  0  0  0  0  0
  146.6697   72.3202  221.0783 H   0  0  0  0  0  0  0  0  0  0  0  0
  144.8981   72.3603  221.5201 H   0  0  0  0  0  0  0  0  0  0  0  0
  146.0217   70.3782  217.3273 H   0  0  0  0  0  0  0  0  0  0  0  0
  146.8160   68.0669  216.9632 H   0  0  0  0  0  0  0  0  0  0  0  0
  146.1337   66.2100  218.4442 H   0  0  0  0  0  0  0  0  0  0  0  0
  144.6021   66.6695  220.3741 H   0  0  0  0  0  0  0  0  0  0  0  0
  143.7896   69.0102  220.7529 H   0  0  0  0  0  0  0  0  0  0  0  0
  142.3943   70.3744  219.5001 H   0  0  0  0  0  0  0  0  0  0  0  0
  141.8122   71.2481  221.3216 H   0  0  0  0  0  0  0  0  0  0  0  0
  143.5763   71.7910  221.4389 H   0  0  0  0  0  0  0  0  0  0  0  0
  141.5765   73.4222  221.8875 H   0  0  0  0  0  0  0  0  0  0  0  0
  143.1309   73.8976  221.0463 H   0  0  0  0  0  0  0  0  0  0  0  0
  139.3376   76.1337  221.0123 H   0  0  0  0  0  0  0  0  0  0  0  0
  139.3750   73.3540  221.7510 H   0  0  0  0  0  0  0  0  0  0  0  0
  139.5630   74.4090  223.1430 H   0  0  0  0  0  0  0  0  0  0  0  0
  140.9213   75.7979  223.1181 H   0  0  0  0  0  0  0  0  0  0  0  0
  142.0200   75.6338  221.6353 H   0  0  0  0  0  0  0  0  0  0  0  0
  140.0820   77.6731  223.7746 H   0  0  0  0  0  0  0  0  0  0  0  0
  140.2160   80.1068  223.8621 H   0  0  0  0  0  0  0  0  0  0  0  0
  141.3440   81.4046  222.0545 H   0  0  0  0  0  0  0  0  0  0  0  0
  142.3292   80.1299  220.1549 H   0  0  0  0  0  0  0  0  0  0  0  0
  141.0607   78.8306  218.3591 H   0  0  0  0  0  0  0  0  0  0  0  0
  141.9069   77.7736  216.2615 H   0  0  0  0  0  0  0  0  0  0  0  0
  143.6069   75.9522  216.4042 H   0  0  0  0  0  0  0  0  0  0  0  0
  144.4430   75.1927  218.6382 H   0  0  0  0  0  0  0  0  0  0  0  0
  143.5737   76.2627  220.6835 H   0  0  0  0  0  0  0  0  0  0  0  0
  140.9460   73.5613  217.8384 H   0  0  0  0  0  0  0  0  0  0  0  0
  142.6710   74.0222  218.1812 H   0  0  0  0  0  0  0  0  0  0  0  0
  141.3154   71.4149  218.1942 H   0  0  0  0  0  0  0  0  0  0  0  0
  143.0004   72.0123  217.6149 H   0  0  0  0  0  0  0  0  0  0  0  0
  1  2  1  0
  2  3  1  0
  3  4  2  0
  3  5  1  0
  5  6  1  0
  6  7  2  0
  7  8  1  0
  8  9  2  0
  9 10  1  0
 10 11  2  0
  5 12  1  0
 12 13  1  0
 13 14  1  0
 14 15  1  0
 15 16  1  0
 16 17  2  0
 16 18  1  0
 18 19  1  0
 18 20  1  0
 20 21  1  0
 21 22  2  0
 22 23  1  0
 23 24  2  0
 24 25  1  0
 25 26  2  0
 26 27  1  0
 27 28  2  0
 28 29  1  0
 29 30  2  0
 30 31  1  0
 31 32  2  0
 15 33  1  0
 33 34  1  0
 11  6  1  0
 34 12  1  0
 26 21  1  0
 32 27  1  0
  1 35  1  0
  1 36  1  0
  1 37  1  0
  2 38  1  0
  2 39  1  0
  7 40  1  0
  8 41  1  0
  9 42  1  0
 10 43  1  0
 11 44  1  0
 12 45  1  0
 13 46  1  0
 13 47  1  0
 14 48  1  0
 14 49  1  0
 18 50  1  6
 19 51  1  0
 19 52  1  0
 20 53  1  0
 20 54  1  0
 22 55  1  0
 23 56  1  0
 24 57  1  0
 25 58  1  0
 28 59  1  0
 29 60  1  0
 30 61  1  0
 31 62  1  0
 32 63  1  0
 33 64  1  0
 33 65  1  0
 34 66  1  0
 34 67  1  0
M  END
>  <smiles>  (44) 
CCC(=O)N(c1ccccc1)C1CCN(C(=O)[C@@H](N)Cc2ccccc2-c2ccccc2)CC1

>  <score_type>  (44) 
oracle

>  <origin>  (44) 
autodockgpu

>  <m_score__min__energy>  (44) 
-8.6899999999999995

>  <m_primary>  (44) 
energy

>  <rmsd>  (44) 
6.944213488553974

>  <m_score__min__rmsd>  (44) 
6.944213488553974

>  <meeko>  (44) 
{"free_energy": -7.79, "intermolecular_energy": -10.48, "internal_energy": -3.29, "cluster_size": 13, "cluster_id": 2, "rank_in_cluster": 9}

>  <energy>  (44) 
-6.7

>  <cluster_rmsd>  (44) 
0.09

>  <cluster>  (44) 
7

$$$$

     RDKit          3D

 67 70  0  0  0  0  0  0  0  0999 V2000
  142.7940   80.0270  217.8460 C   0  0  0  0  0  0  0  0  0  0  0  0
  141.6160   80.9390  218.0090 C   0  0  0  0  0  0  0  0  0  0  0  0
  141.3970   81.3760  219.4170 C   0  0  0  0  0  0  0  0  0  0  0  0
  141.4760   82.5980  219.6990 O   0  0  0  0  0  0  0  0  0  0  0  0
  141.1010   80.4140  220.4300 N   0  0  0  0  0  0  0  0  0  0  0  0
  141.6420   80.6870  221.7260 C   0  0  0  0  0  0  0  0  0  0  0  0
  141.2720   81.7730  222.4820 C   0  0  0  0  0  0  0  0  0  0  0  0
  141.8660   81.9420  223.7130 C   0  0  0  0  0  0  0  0  0  0  0  0
  142.8160   81.0650  224.2100 C   0  0  0  0  0  0  0  0  0  0  0  0
  143.1900   79.9660  223.4440 C   0  0  0  0  0  0  0  0  0  0  0  0
  142.5940   79.7820  222.1910 C   0  0  0  0  0  0  0  0  0  0  0  0
  140.2840   79.2260  220.1670 C   0  0  0  0  0  0  0  0  0  0  0  0
  141.1260   78.0980  219.7080 C   0  0  0  0  0  0  0  0  0  0  0  0
  141.3080   76.9600  220.6770 C   0  0  0  0  0  0  0  0  0  0  0  0
  140.1620   76.7380  221.5440 N   0  0  0  0  0  0  0  0  0  0  0  0
  139.7580   75.3750  221.8990 C   0  0  0  0  0  0  0  0  0  0  0  0
  138.6800   75.3200  222.5340 O   0  0  0  0  0  0  0  0  0  0  0  0
  140.5310   74.2060  221.5450 C   0  0  1  0  0  0  0  0  0  0  0  0
  140.3240   73.1460  222.5640 N   0  0  0  0  0  0  0  0  0  0  0  0
  140.3870   73.6450  220.1740 C   0  0  0  0  0  0  0  0  0  0  0  0
  141.0000   74.4040  219.0860 C   0  0  0  0  0  0  0  0  0  0  0  0
  140.0960   74.9990  218.1820 C   0  0  0  0  0  0  0  0  0  0  0  0
  140.5110   75.8240  217.1670 C   0  0  0  0  0  0  0  0  0  0  0  0
  141.8460   76.1170  216.9710 C   0  0  0  0  0  0  0  0  0  0  0  0
  142.7380   75.5390  217.8450 C   0  0  0  0  0  0  0  0  0  0  0  0
  142.3110   74.6920  218.8860 C   0  0  0  0  0  0  0  0  0  0  0  0
  143.4220   74.0680  219.6160 C   0  0  0  0  0  0  0  0  0  0  0  0
  143.4760   72.7200  219.8920 C   0  0  0  0  0  0  0  0  0  0  0  0
  144.5280   72.1600  220.6320 C   0  0  0  0  0  0  0  0  0  0  0  0
  145.5430   72.9890  221.0980 C   0  0  0  0  0  0  0  0  0  0  0  0
  145.5090   74.3600  220.8320 C   0  0  0  0  0  0  0  0  0  0  0  0
  144.4570   74.8690  220.1020 C   0  0  0  0  0  0  0  0  0  0  0  0
  139.4140   77.8350  222.1180 C   0  0  0  0  0  0  0  0  0  0  0  0
  139.2420   78.9450  221.1760 C   0  0  0  0  0  0  0  0  0  0  0  0
  143.1714   79.7348  218.8370 H   0  0  0  0  0  0  0  0  0  0  0  0
  142.4878   79.1282  217.2906 H   0  0  0  0  0  0  0  0  0  0  0  0
  143.5874   80.5486  217.2906 H   0  0  0  0  0  0  0  0  0  0  0  0
  141.7778   81.8322  217.3877 H   0  0  0  0  0  0  0  0  0  0  0  0
  140.7232   80.3750  217.7011 H   0  0  0  0  0  0  0  0  0  0  0  0
  140.5216   82.4882  222.1140 H   0  0  0  0  0  0  0  0  0  0  0  0
  141.5744   82.8077  224.3258 H   0  0  0  0  0  0  0  0  0  0  0  0
  143.2688   81.2355  225.1979 H   0  0  0  0  0  0  0  0  0  0  0  0
  143.9411   79.2538  223.8164 H   0  0  0  0  0  0  0  0  0  0  0  0
  142.8784   78.9192  221.5707 H   0  0  0  0  0  0  0  0  0  0  0  0
  139.6307   79.4456  219.3097 H   0  0  0  0  0  0  0  0  0  0  0  0
  140.6692   77.6897  218.7944 H   0  0  0  0  0  0  0  0  0  0  0  0
  142.1305   78.5229  219.5648 H   0  0  0  0  0  0  0  0  0  0  0  0
  141.4907   76.0405  220.1016 H   0  0  0  0  0  0  0  0  0  0  0  0
  142.1547   77.2253  221.3271 H   0  0  0  0  0  0  0  0  0  0  0  0
  141.5640   74.5839  221.5316 H   0  0  0  0  0  0  0  0  0  0  0  0
  139.5310   73.3500  223.1830 H   0  0  0  0  0  0  0  0  0  0  0  0
  140.4030   72.2040  222.1780 H   0  0  0  0  0  0  0  0  0  0  0  0
  140.8377   72.6416  220.1755 H   0  0  0  0  0  0  0  0  0  0  0  0
  139.3069   73.6635  219.9663 H   0  0  0  0  0  0  0  0  0  0  0  0
  139.0210   74.7948  218.2943 H   0  0  0  0  0  0  0  0  0  0  0  0
  139.7612   76.2630  216.4925 H   0  0  0  0  0  0  0  0  0  0  0  0
  142.1794   76.7785  216.1579 H   0  0  0  0  0  0  0  0  0  0  0  0
  143.8124   75.7438  217.7275 H   0  0  0  0  0  0  0  0  0  0  0  0
  142.6731   72.0651  219.5225 H   0  0  0  0  0  0  0  0  0  0  0  0
  144.5499   71.0802  220.8408 H   0  0  0  0  0  0  0  0  0  0  0  0
  146.3753   72.5636  221.6780 H   0  0  0  0  0  0  0  0  0  0  0  0
  146.3078   75.0214  221.1988 H   0  0  0  0  0  0  0  0  0  0  0  0
  144.4317   75.9489  219.8940 H   0  0  0  0  0  0  0  0  0  0  0  0
  138.4211   77.4678  222.4170 H   0  0  0  0  0  0  0  0  0  0  0  0
  139.9802   78.2122  222.9824 H   0  0  0  0  0  0  0  0  0  0  0  0
  138.3100   78.7520  220.6246 H   0  0  0  0  0  0  0  0  0  0  0  0
  139.2716   79.8334  221.8240 H   0  0  0  0  0  0  0  0  0  0  0  0
  1  2  1  0
  2  3  1  0
  3  4  2  0
  3  5  1  0
  5  6  1  0
  6  7  2  0
  7  8  1  0
  8  9  2  0
  9 10  1  0
 10 11  2  0
  5 12  1  0
 12 13  1  0
 13 14  1  0
 14 15  1  0
 15 16  1  0
 16 17  2  0
 16 18  1  0
 18 19  1  0
 18 20  1  0
 20 21  1  0
 21 22  2  0
 22 23  1  0
 23 24  2  0
 24 25  1  0
 25 26  2  0
 26 27  1  0
 27 28  2  0
 28 29  1  0
 29 30  2  0
 30 31  1  0
 31 32  2  0
 15 33  1  0
 33 34  1  0
 11  6  1  0
 34 12  1  0
 26 21  1  0
 32 27  1  0
  1 35  1  0
  1 36  1  0
  1 37  1  0
  2 38  1  0
  2 39  1  0
  7 40  1  0
  8 41  1  0
  9 42  1  0
 10 43  1  0
 11 44  1  0
 12 45  1  0
 13 46  1  0
 13 47  1  0
 14 48  1  0
 14 49  1  0
 18 50  1  6
 19 51  1  0
 19 52  1  0
 20 53  1  0
 20 54  1  0
 22 55  1  0
 23 56  1  0
 24 57  1  0
 25 58  1  0
 28 59  1  0
 29 60  1  0
 30 61  1  0
 31 62  1  0
 32 63  1  0
 33 64  1  0
 33 65  1  0
 34 66  1  0
 34 67  1  0
M  END
>  <smiles>  (45) 
CCC(=O)N(c1ccccc1)C1CCN(C(=O)[C@@H](N)Cc2ccccc2-c2ccccc2)CC1

>  <score_type>  (45) 
oracle

>  <origin>  (45) 
autodockgpu

>  <m_score__min__energy>  (45) 
-8.6899999999999995

>  <m_primary>  (45) 
energy

>  <rmsd>  (45) 
3.366158025280883

>  <m_score__min__rmsd>  (45) 
3.366158025280883

>  <meeko>  (45) 
{"free_energy": -6.94, "intermolecular_energy": -9.63, "internal_energy": -3.65, "cluster_size": 8, "cluster_id": 5, "rank_in_cluster": 5}

>  <energy>  (45) 
-6.69

>  <cluster_rmsd>  (45) 
0.17

>  <cluster>  (45) 
7

$$$$

     RDKit          3D

 67 70  0  0  0  0  0  0  0  0999 V2000
  142.3950   71.9740  217.4470 C   0  0  0  0  0  0  0  0  0  0  0  0
  143.7400   72.5050  217.0550 C   0  0  0  0  0  0  0  0  0  0  0  0
  144.7900   72.2800  218.0890 C   0  0  0  0  0  0  0  0  0  0  0  0
  145.9540   72.7040  217.8830 O   0  0  0  0  0  0  0  0  0  0  0  0
  144.4710   71.5880  219.2970 N   0  0  0  0  0  0  0  0  0  0  0  0
  144.6720   70.1710  219.2760 C   0  0  0  0  0  0  0  0  0  0  0  0
  143.6390   69.2650  219.2490 C   0  0  0  0  0  0  0  0  0  0  0  0
  143.9500   67.9240  219.2400 C   0  0  0  0  0  0  0  0  0  0  0  0
  145.2560   67.4600  219.2590 C   0  0  0  0  0  0  0  0  0  0  0  0
  146.3000   68.3780  219.2870 C   0  0  0  0  0  0  0  0  0  0  0  0
  145.9980   69.7440  219.2950 C   0  0  0  0  0  0  0  0  0  0  0  0
  143.9820   72.2830  220.4910 C   0  0  0  0  0  0  0  0  0  0  0  0
  143.8510   73.7360  220.2400 C   0  0  0  0  0  0  0  0  0  0  0  0
  142.4490   74.2750  220.1440 C   0  0  0  0  0  0  0  0  0  0  0  0
  141.4880   73.5670  220.9760 N   0  0  0  0  0  0  0  0  0  0  0  0
  140.4270   74.3030  221.6670 C   0  0  0  0  0  0  0  0  0  0  0  0
  139.7570   73.5960  222.4550 O   0  0  0  0  0  0  0  0  0  0  0  0
  140.1790   75.7120  221.4580 C   0  0  1  0  0  0  0  0  0  0  0  0
  138.9690   76.1210  222.2150 N   0  0  0  0  0  0  0  0  0  0  0  0
  141.2900   76.6730  221.6940 C   0  0  0  0  0  0  0  0  0  0  0  0
  141.6010   77.5980  220.6060 C   0  0  0  0  0  0  0  0  0  0  0  0
  141.6830   77.0150  219.3250 C   0  0  0  0  0  0  0  0  0  0  0  0
  141.8680   77.7640  218.1900 C   0  0  0  0  0  0  0  0  0  0  0  0
  141.9880   79.1390  218.2400 C   0  0  0  0  0  0  0  0  0  0  0  0
  141.9120   79.7180  219.4860 C   0  0  0  0  0  0  0  0  0  0  0  0
  141.7230   78.9490  220.6500 C   0  0  0  0  0  0  0  0  0  0  0  0
  141.8120   79.7370  221.8860 C   0  0  0  0  0  0  0  0  0  0  0  0
  140.7720   80.5010  222.3650 C   0  0  0  0  0  0  0  0  0  0  0  0
  140.9020   81.2810  223.5250 C   0  0  0  0  0  0  0  0  0  0  0  0
  142.1130   81.2800  224.2070 C   0  0  0  0  0  0  0  0  0  0  0  0
  143.1830   80.5130  223.7400 C   0  0  0  0  0  0  0  0  0  0  0  0
  143.0130   79.7630  222.5970 C   0  0  0  0  0  0  0  0  0  0  0  0
  141.5160   72.1280  221.1180 C   0  0  0  0  0  0  0  0  0  0  0  0
  142.8810   71.6020  221.2050 C   0  0  0  0  0  0  0  0  0  0  0  0
  142.3182   71.9437  218.5439 H   0  0  0  0  0  0  0  0  0  0  0  0
  141.6098   72.6296  217.0425 H   0  0  0  0  0  0  0  0  0  0  0  0
  142.2694   70.9588  217.0425 H   0  0  0  0  0  0  0  0  0  0  0  0
  144.0538   72.0075  216.1255 H   0  0  0  0  0  0  0  0  0  0  0  0
  143.6356   73.5928  216.9297 H   0  0  0  0  0  0  0  0  0  0  0  0
  142.5921   69.6022  219.2349 H   0  0  0  0  0  0  0  0  0  0  0  0
  143.1295   67.1917  219.2168 H   0  0  0  0  0  0  0  0  0  0  0  0
  145.4638   66.3798  219.2520 H   0  0  0  0  0  0  0  0  0  0  0  0
  147.3454   68.0361  219.3026 H   0  0  0  0  0  0  0  0  0  0  0  0
  146.8113   70.4844  219.3164 H   0  0  0  0  0  0  0  0  0  0  0  0
  144.7567   72.2106  221.2685 H   0  0  0  0  0  0  0  0  0  0  0  0
  144.3571   74.2644  221.0613 H   0  0  0  0  0  0  0  0  0  0  0  0
  144.2965   73.9024  219.2481 H   0  0  0  0  0  0  0  0  0  0  0  0
  142.4619   75.3311  220.4515 H   0  0  0  0  0  0  0  0  0  0  0  0
  142.1266   74.1435  219.1005 H   0  0  0  0  0  0  0  0  0  0  0  0
  140.0406   75.7831  220.3691 H   0  0  0  0  0  0  0  0  0  0  0  0
  138.2270   76.4780  221.6020 H   0  0  0  0  0  0  0  0  0  0  0  0
  138.7120   75.4530  222.9430 H   0  0  0  0  0  0  0  0  0  0  0  0
  141.0288   77.2738  222.5776 H   0  0  0  0  0  0  0  0  0  0  0  0
  142.1898   76.0511  221.8103 H   0  0  0  0  0  0  0  0  0  0  0  0
  141.5957   75.9224  219.2321 H   0  0  0  0  0  0  0  0  0  0  0  0
  141.9221   77.2563  217.2157 H   0  0  0  0  0  0  0  0  0  0  0  0
  142.1366   79.7401  217.3309 H   0  0  0  0  0  0  0  0  0  0  0  0
  142.0013   80.8108  219.5749 H   0  0  0  0  0  0  0  0  0  0  0  0
  139.8139   80.5004  221.8247 H   0  0  0  0  0  0  0  0  0  0  0  0
  140.0574   81.8844  223.8890 H   0  0  0  0  0  0  0  0  0  0  0  0
  142.2293   81.8855  225.1180 H   0  0  0  0  0  0  0  0  0  0  0  0
  144.1440   80.5080  224.2753 H   0  0  0  0  0  0  0  0  0  0  0  0
  143.8572   79.1607  222.2300 H   0  0  0  0  0  0  0  0  0  0  0  0
  140.9722   71.8527  222.0337 H   0  0  0  0  0  0  0  0  0  0  0  0
  141.0453   71.6934  220.2238 H   0  0  0  0  0  0  0  0  0  0  0  0
  143.1509   71.5940  222.2713 H   0  0  0  0  0  0  0  0  0  0  0  0
  142.8108   70.6304  220.6941 H   0  0  0  0  0  0  0  0  0  0  0  0
  1  2  1  0
  2  3  1  0
  3  4  2  0
  3  5  1  0
  5  6  1  0
  6  7  2  0
  7  8  1  0
  8  9  2  0
  9 10  1  0
 10 11  2  0
  5 12  1  0
 12 13  1  0
 13 14  1  0
 14 15  1  0
 15 16  1  0
 16 17  2  0
 16 18  1  0
 18 19  1  0
 18 20  1  0
 20 21  1  0
 21 22  2  0
 22 23  1  0
 23 24  2  0
 24 25  1  0
 25 26  2  0
 26 27  1  0
 27 28  2  0
 28 29  1  0
 29 30  2  0
 30 31  1  0
 31 32  2  0
 15 33  1  0
 33 34  1  0
 11  6  1  0
 34 12  1  0
 26 21  1  0
 32 27  1  0
  1 35  1  0
  1 36  1  0
  1 37  1  0
  2 38  1  0
  2 39  1  0
  7 40  1  0
  8 41  1  0
  9 42  1  0
 10 43  1  0
 11 44  1  0
 12 45  1  0
 13 46  1  0
 13 47  1  0
 14 48  1  0
 14 49  1  0
 18 50  1  6
 19 51  1  0
 19 52  1  0
 20 53  1  0
 20 54  1  0
 22 55  1  0
 23 56  1  0
 24 57  1  0
 25 58  1  0
 28 59  1  0
 29 60  1  0
 30 61  1  0
 31 62  1  0
 32 63  1  0
 33 64  1  0
 33 65  1  0
 34 66  1  0
 34 67  1  0
M  END
>  <smiles>  (46) 
CCC(=O)N(c1ccccc1)C1CCN(C(=O)[C@@H](N)Cc2ccccc2-c2ccccc2)CC1

>  <score_type>  (46) 
oracle

>  <origin>  (46) 
autodockgpu

>  <m_score__min__energy>  (46) 
-8.6899999999999995

>  <m_primary>  (46) 
energy

>  <rmsd>  (46) 
6.213051307485339

>  <m_score__min__rmsd>  (46) 
6.213051307485339

>  <meeko>  (46) 
{"free_energy": -8.12, "intermolecular_energy": -10.8, "internal_energy": -2.84, "cluster_size": 13, "cluster_id": 2, "rank_in_cluster": 5}

>  <energy>  (46) 
-6.58

>  <cluster_rmsd>  (46) 
0.48

>  <cluster>  (46) 
7

$$$$

     RDKit          3D

 67 70  0  0  0  0  0  0  0  0999 V2000
  146.7100   73.2210  222.0740 C   0  0  0  0  0  0  0  0  0  0  0  0
  145.8060   74.0060  221.1730 C   0  0  0  0  0  0  0  0  0  0  0  0
  145.6650   73.4140  219.8130 C   0  0  0  0  0  0  0  0  0  0  0  0
  146.6600   73.3970  219.0450 O   0  0  0  0  0  0  0  0  0  0  0  0
  144.4120   72.8740  219.3910 N   0  0  0  0  0  0  0  0  0  0  0  0
  144.3100   71.4460  219.4100 C   0  0  0  0  0  0  0  0  0  0  0  0
  143.1340   70.7790  219.6530 C   0  0  0  0  0  0  0  0  0  0  0  0
  143.1550   69.4020  219.6560 C   0  0  0  0  0  0  0  0  0  0  0  0
  144.3120   68.6730  219.4270 C   0  0  0  0  0  0  0  0  0  0  0  0
  145.5010   69.3500  219.1820 C   0  0  0  0  0  0  0  0  0  0  0  0
  145.4930   70.7490  219.1750 C   0  0  0  0  0  0  0  0  0  0  0  0
  143.2930   73.7240  218.9760 C   0  0  0  0  0  0  0  0  0  0  0  0
  143.0200   74.7680  219.9890 C   0  0  0  0  0  0  0  0  0  0  0  0
  143.3850   76.1790  219.6110 C   0  0  0  0  0  0  0  0  0  0  0  0
  143.2570   76.4600  218.1900 N   0  0  0  0  0  0  0  0  0  0  0  0
  142.7540   77.7580  217.7360 C   0  0  0  0  0  0  0  0  0  0  0  0
  142.5620   77.8180  216.4990 O   0  0  0  0  0  0  0  0  0  0  0  0
  142.5010   78.8640  218.6330 C   0  0  1  0  0  0  0  0  0  0  0  0
  142.8770   80.1380  217.9700 N   0  0  0  0  0  0  0  0  0  0  0  0
  141.1550   78.9790  219.2580 C   0  0  0  0  0  0  0  0  0  0  0  0
  140.7930   77.9540  220.2340 C   0  0  0  0  0  0  0  0  0  0  0  0
  140.2020   76.7920  219.6970 C   0  0  0  0  0  0  0  0  0  0  0  0
  139.8980   75.7010  220.4700 C   0  0  0  0  0  0  0  0  0  0  0  0
  140.1530   75.6800  221.8270 C   0  0  0  0  0  0  0  0  0  0  0  0
  140.7270   76.8090  222.3630 C   0  0  0  0  0  0  0  0  0  0  0  0
  141.0380   77.9300  221.5690 C   0  0  0  0  0  0  0  0  0  0  0  0
  141.5120   79.0800  222.3500 C   0  0  0  0  0  0  0  0  0  0  0  0
  142.8450   79.3340  222.5790 C   0  0  0  0  0  0  0  0  0  0  0  0
  143.2650   80.4150  223.3690 C   0  0  0  0  0  0  0  0  0  0  0  0
  142.3080   81.2510  223.9330 C   0  0  0  0  0  0  0  0  0  0  0  0
  140.9490   81.0140  223.7140 C   0  0  0  0  0  0  0  0  0  0  0  0
  140.5800   79.9410  222.9330 C   0  0  0  0  0  0  0  0  0  0  0  0
  143.6540   75.5000  217.1830 C   0  0  0  0  0  0  0  0  0  0  0  0
  143.3040   74.1260  217.5540 C   0  0  0  0  0  0  0  0  0  0  0  0
  146.4604   73.4378  223.1231 H   0  0  0  0  0  0  0  0  0  0  0  0
  146.5778   72.1463  221.8802 H   0  0  0  0  0  0  0  0  0  0  0  0
  147.7555   73.5026  221.8802 H   0  0  0  0  0  0  0  0  0  0  0  0
  144.8096   74.0557  221.6365 H   0  0  0  0  0  0  0  0  0  0  0  0
  146.2572   75.0014  221.0482 H   0  0  0  0  0  0  0  0  0  0  0  0
  142.2005   71.3300  219.8402 H   0  0  0  0  0  0  0  0  0  0  0  0
  142.2175   68.8594  219.8475 H   0  0  0  0  0  0  0  0  0  0  0  0
  144.2892   67.5733  219.4390 H   0  0  0  0  0  0  0  0  0  0  0  0
  146.4326   68.7951  218.9968 H   0  0  0  0  0  0  0  0  0  0  0  0
  146.4249   71.3010  218.9831 H   0  0  0  0  0  0  0  0  0  0  0  0
  142.3822   73.1073  218.9676 H   0  0  0  0  0  0  0  0  0  0  0  0
  141.9422   74.7483  220.2079 H   0  0  0  0  0  0  0  0  0  0  0  0
  143.6634   74.5192  220.8459 H   0  0  0  0  0  0  0  0  0  0  0  0
  142.7254   76.8665  220.1608 H   0  0  0  0  0  0  0  0  0  0  0  0
  144.4457   76.3146  219.8691 H   0  0  0  0  0  0  0  0  0  0  0  0
  143.1388   78.6353  219.4996 H   0  0  0  0  0  0  0  0  0  0  0  0
  143.5720   80.6670  218.5080 H   0  0  0  0  0  0  0  0  0  0  0  0
  143.0240   80.0340  216.9650 H   0  0  0  0  0  0  0  0  0  0  0  0
  141.1056   79.9539  219.7651 H   0  0  0  0  0  0  0  0  0  0  0  0
  140.4413   78.8537  218.4304 H   0  0  0  0  0  0  0  0  0  0  0  0
  139.9770   76.7595  218.6208 H   0  0  0  0  0  0  0  0  0  0  0  0
  139.4393   74.8201  219.9971 H   0  0  0  0  0  0  0  0  0  0  0  0
  139.9095   74.8050  222.4475 H   0  0  0  0  0  0  0  0  0  0  0  0
  140.9490   76.8373  223.4400 H   0  0  0  0  0  0  0  0  0  0  0  0
  143.6010   78.6723  222.1310 H   0  0  0  0  0  0  0  0  0  0  0  0
  144.3361   80.5983  223.5396 H   0  0  0  0  0  0  0  0  0  0  0  0
  142.6223   82.1026  224.5543 H   0  0  0  0  0  0  0  0  0  0  0  0
  140.1872   81.6723  224.1572 H   0  0  0  0  0  0  0  0  0  0  0  0
  139.5094   79.7552  222.7619 H   0  0  0  0  0  0  0  0  0  0  0  0
  143.1500   75.7503  216.2378 H   0  0  0  0  0  0  0  0  0  0  0  0
  144.7481   75.5523  217.0817 H   0  0  0  0  0  0  0  0  0  0  0  0
  142.2926   73.9396  217.1636 H   0  0  0  0  0  0  0  0  0  0  0  0
  144.1274   73.5324  217.1301 H   0  0  0  0  0  0  0  0  0  0  0  0
  1  2  1  0
  2  3  1  0
  3  4  2  0
  3  5  1  0
  5  6  1  0
  6  7  2  0
  7  8  1  0
  8  9  2  0
  9 10  1  0
 10 11  2  0
  5 12  1  0
 12 13  1  0
 13 14  1  0
 14 15  1  0
 15 16  1  0
 16 17  2  0
 16 18  1  0
 18 19  1  0
 18 20  1  0
 20 21  1  0
 21 22  2  0
 22 23  1  0
 23 24  2  0
 24 25  1  0
 25 26  2  0
 26 27  1  0
 27 28  2  0
 28 29  1  0
 29 30  2  0
 30 31  1  0
 31 32  2  0
 15 33  1  0
 33 34  1  0
 11  6  1  0
 34 12  1  0
 26 21  1  0
 32 27  1  0
  1 35  1  0
  1 36  1  0
  1 37  1  0
  2 38  1  0
  2 39  1  0
  7 40  1  0
  8 41  1  0
  9 42  1  0
 10 43  1  0
 11 44  1  0
 12 45  1  0
 13 46  1  0
 13 47  1  0
 14 48  1  0
 14 49  1  0
 18 50  1  1
 19 51  1  0
 19 52  1  0
 20 53  1  0
 20 54  1  0
 22 55  1  0
 23 56  1  0
 24 57  1  0
 25 58  1  0
 28 59  1  0
 29 60  1  0
 30 61  1  0
 31 62  1  0
 32 63  1  0
 33 64  1  0
 33 65  1  0
 34 66  1  0
 34 67  1  0
M  END
>  <smiles>  (47) 
CCC(=O)N(c1ccccc1)C1CCN(C(=O)[C@@H](N)Cc2ccccc2-c2ccccc2)CC1

>  <score_type>  (47) 
oracle

>  <origin>  (47) 
autodockgpu

>  <m_score__min__energy>  (47) 
-8.6899999999999995

>  <m_primary>  (47) 
energy

>  <rmsd>  (47) 
5.749566620872021

>  <m_score__min__rmsd>  (47) 
5.749566620872021

>  <meeko>  (47) 
{"free_energy": -8.52, "intermolecular_energy": -11.21, "internal_energy": -3.29, "cluster_size": 13, "cluster_id": 1, "rank_in_cluster": 4}

>  <energy>  (47) 
-6.57

>  <cluster_rmsd>  (47) 
0.31

>  <cluster>  (47) 
7

$$$$

     RDKit          3D

 67 70  0  0  0  0  0  0  0  0999 V2000
  143.2690   80.4430  223.4350 C   0  0  0  0  0  0  0  0  0  0  0  0
  141.9630   81.0550  223.8420 C   0  0  0  0  0  0  0  0  0  0  0  0
  141.0590   81.3400  222.6920 C   0  0  0  0  0  0  0  0  0  0  0  0
  141.3930   82.2090  221.8490 O   0  0  0  0  0  0  0  0  0  0  0  0
  139.8260   80.6300  222.5550 N   0  0  0  0  0  0  0  0  0  0  0  0
  138.7490   81.0870  223.3800 C   0  0  0  0  0  0  0  0  0  0  0  0
  138.4550   80.5380  224.6050 C   0  0  0  0  0  0  0  0  0  0  0  0
  137.3880   81.0520  225.3080 C   0  0  0  0  0  0  0  0  0  0  0  0
  136.6080   82.0920  224.8270 C   0  0  0  0  0  0  0  0  0  0  0  0
  136.9070   82.6450  223.5870 C   0  0  0  0  0  0  0  0  0  0  0  0
  137.9890   82.1340  222.8620 C   0  0  0  0  0  0  0  0  0  0  0  0
  139.6660   79.5120  221.6210 C   0  0  0  0  0  0  0  0  0  0  0  0
  140.9090   78.7130  221.5370 C   0  0  0  0  0  0  0  0  0  0  0  0
  140.8690   77.3450  222.1670 C   0  0  0  0  0  0  0  0  0  0  0  0
  139.5620   76.7100  222.1110 N   0  0  0  0  0  0  0  0  0  0  0  0
  139.4500   75.2700  221.8670 C   0  0  0  0  0  0  0  0  0  0  0  0
  138.2720   74.8780  221.7050 O   0  0  0  0  0  0  0  0  0  0  0  0
  140.5950   74.3880  221.8150 C   0  0  1  0  0  0  0  0  0  0  0  0
  140.3210   73.1710  222.6200 N   0  0  0  0  0  0  0  0  0  0  0  0
  141.1490   74.0180  220.4840 C   0  0  0  0  0  0  0  0  0  0  0  0
  141.8200   75.0770  219.7340 C   0  0  0  0  0  0  0  0  0  0  0  0
  140.9780   76.1050  219.2590 C   0  0  0  0  0  0  0  0  0  0  0  0
  141.4680   77.2180  218.6250 C   0  0  0  0  0  0  0  0  0  0  0  0
  142.8210   77.3950  218.4120 C   0  0  0  0  0  0  0  0  0  0  0  0
  143.6510   76.3980  218.8680 C   0  0  0  0  0  0  0  0  0  0  0  0
  143.1480   75.2540  219.5190 C   0  0  0  0  0  0  0  0  0  0  0  0
  144.1780   74.2470  219.8010 C   0  0  0  0  0  0  0  0  0  0  0  0
  144.2530   73.0430  219.1380 C   0  0  0  0  0  0  0  0  0  0  0  0
  145.2220   72.0810  219.4620 C   0  0  0  0  0  0  0  0  0  0  0  0
  146.1310   72.3540  220.4790 C   0  0  0  0  0  0  0  0  0  0  0  0
  146.0740   73.5680  221.1660 C   0  0  0  0  0  0  0  0  0  0  0  0
  145.1060   74.4850  220.8170 C   0  0  0  0  0  0  0  0  0  0  0  0
  138.3410   77.4540  222.3330 C   0  0  0  0  0  0  0  0  0  0  0  0
  138.3820   78.7870  221.7260 C   0  0  0  0  0  0  0  0  0  0  0  0
  143.8436   80.1737  224.3335 H   0  0  0  0  0  0  0  0  0  0  0  0
  143.0799   79.5397  222.8364 H   0  0  0  0  0  0  0  0  0  0  0  0
  143.8421   81.1663  222.8364 H   0  0  0  0  0  0  0  0  0  0  0  0
  141.4506   80.3612  224.5247 H   0  0  0  0  0  0  0  0  0  0  0  0
  142.1913   82.0181  224.3220 H   0  0  0  0  0  0  0  0  0  0  0  0
  139.0551   79.7111  225.0127 H   0  0  0  0  0  0  0  0  0  0  0  0
  137.1452   80.6201  226.2901 H   0  0  0  0  0  0  0  0  0  0  0  0
  135.7634   82.4748  225.4187 H   0  0  0  0  0  0  0  0  0  0  0  0
  136.3029   83.4706  223.1826 H   0  0  0  0  0  0  0  0  0  0  0  0
  138.2407   82.5602  221.8796 H   0  0  0  0  0  0  0  0  0  0  0  0
  139.5412   79.9270  220.6100 H   0  0  0  0  0  0  0  0  0  0  0  0
  141.1529   78.5842  220.4721 H   0  0  0  0  0  0  0  0  0  0  0  0
  141.6589   79.2774  222.1106 H   0  0  0  0  0  0  0  0  0  0  0  0
  141.5901   76.7007  221.6427 H   0  0  0  0  0  0  0  0  0  0  0  0
  141.1160   77.4754  223.2310 H   0  0  0  0  0  0  0  0  0  0  0  0
  141.4038   75.0018  222.2382 H   0  0  0  0  0  0  0  0  0  0  0  0
  139.4080   73.2110  223.0890 H   0  0  0  0  0  0  0  0  0  0  0  0
  140.5760   72.3090  222.1360 H   0  0  0  0  0  0  0  0  0  0  0  0
  141.8765   73.2077  220.6396 H   0  0  0  0  0  0  0  0  0  0  0  0
  140.2758   73.7417  219.8747 H   0  0  0  0  0  0  0  0  0  0  0  0
  139.8915   76.0104  219.4022 H   0  0  0  0  0  0  0  0  0  0  0  0
  140.7653   77.9896  218.2772 H   0  0  0  0  0  0  0  0  0  0  0  0
  143.2145   78.2876  217.9037 H   0  0  0  0  0  0  0  0  0  0  0  0
  144.7367   76.4961  218.7206 H   0  0  0  0  0  0  0  0  0  0  0  0
  143.5345   72.8293  218.3330 H   0  0  0  0  0  0  0  0  0  0  0  0
  145.2622   71.1249  218.9196 H   0  0  0  0  0  0  0  0  0  0  0  0
  146.8976   71.6105  220.7429 H   0  0  0  0  0  0  0  0  0  0  0  0
  146.7893   73.7889  221.9719 H   0  0  0  0  0  0  0  0  0  0  0  0
  145.0628   75.4409  221.3596 H   0  0  0  0  0  0  0  0  0  0  0  0
  137.5011   76.8930  221.8973 H   0  0  0  0  0  0  0  0  0  0  0  0
  138.2190   77.5830  223.4186 H   0  0  0  0  0  0  0  0  0  0  0  0
  137.9919   78.6822  220.7029 H   0  0  0  0  0  0  0  0  0  0  0  0
  137.8006   79.4026  222.4281 H   0  0  0  0  0  0  0  0  0  0  0  0
  1  2  1  0
  2  3  1  0
  3  4  2  0
  3  5  1  0
  5  6  1  0
  6  7  2  0
  7  8  1  0
  8  9  2  0
  9 10  1  0
 10 11  2  0
  5 12  1  0
 12 13  1  0
 13 14  1  0
 14 15  1  0
 15 16  1  0
 16 17  2  0
 16 18  1  0
 18 19  1  0
 18 20  1  0
 20 21  1  0
 21 22  2  0
 22 23  1  0
 23 24  2  0
 24 25  1  0
 25 26  2  0
 26 27  1  0
 27 28  2  0
 28 29  1  0
 29 30  2  0
 30 31  1  0
 31 32  2  0
 15 33  1  0
 33 34  1  0
 11  6  1  0
 34 12  1  0
 26 21  1  0
 32 27  1  0
  1 35  1  0
  1 36  1  0
  1 37  1  0
  2 38  1  0
  2 39  1  0
  7 40  1  0
  8 41  1  0
  9 42  1  0
 10 43  1  0
 11 44  1  0
 12 45  1  0
 13 46  1  0
 13 47  1  0
 14 48  1  0
 14 49  1  0
 18 50  1  1
 19 51  1  0
 19 52  1  0
 20 53  1  0
 20 54  1  0
 22 55  1  0
 23 56  1  0
 24 57  1  0
 25 58  1  0
 28 59  1  0
 29 60  1  0
 30 61  1  0
 31 62  1  0
 32 63  1  0
 33 64  1  0
 33 65  1  0
 34 66  1  0
 34 67  1  0
M  END
>  <smiles>  (48) 
CCC(=O)N(c1ccccc1)C1CCN(C(=O)[C@@H](N)Cc2ccccc2-c2ccccc2)CC1

>  <score_type>  (48) 
oracle

>  <origin>  (48) 
autodockgpu

>  <m_score__min__energy>  (48) 
-8.6899999999999995

>  <m_primary>  (48) 
energy

>  <rmsd>  (48) 
3.5017677783717867

>  <m_score__min__rmsd>  (48) 
3.5017677783717867

>  <meeko>  (48) 
{"free_energy": -7.93, "intermolecular_energy": -10.62, "internal_energy": -3.07, "cluster_size": 3, "cluster_id": 4, "rank_in_cluster": 1}

>  <energy>  (48) 
-6.5

>  <cluster_rmsd>  (48) 
0.76

>  <cluster>  (48) 
7

$$$$

     RDKit          3D

 67 70  0  0  0  0  0  0  0  0999 V2000
  142.1270   79.7980  223.8460 C   0  0  0  0  0  0  0  0  0  0  0  0
  141.8130   81.2230  223.5060 C   0  0  0  0  0  0  0  0  0  0  0  0
  140.8660   81.3640  222.3630 C   0  0  0  0  0  0  0  0  0  0  0  0
  141.1870   82.0830  221.3850 O   0  0  0  0  0  0  0  0  0  0  0  0
  139.6080   80.6880  222.3860 N   0  0  0  0  0  0  0  0  0  0  0  0
  138.6340   81.2130  223.2950 C   0  0  0  0  0  0  0  0  0  0  0  0
  138.4380   80.7110  224.5590 C   0  0  0  0  0  0  0  0  0  0  0  0
  137.4650   81.2890  225.3440 C   0  0  0  0  0  0  0  0  0  0  0  0
  136.6840   82.3480  224.9070 C   0  0  0  0  0  0  0  0  0  0  0  0
  136.8850   82.8530  223.6280 C   0  0  0  0  0  0  0  0  0  0  0  0
  137.8700   82.2760  222.8190 C   0  0  0  0  0  0  0  0  0  0  0  0
  139.3220   79.5360  221.5260 C   0  0  0  0  0  0  0  0  0  0  0  0
  140.5570   78.7740  221.2380 C   0  0  0  0  0  0  0  0  0  0  0  0
  140.6820   77.4260  221.8980 C   0  0  0  0  0  0  0  0  0  0  0  0
  139.4110   76.7490  222.0970 N   0  0  0  0  0  0  0  0  0  0  0  0
  139.3100   75.2990  221.9150 C   0  0  0  0  0  0  0  0  0  0  0  0
  138.1370   74.8650  221.9810 O   0  0  0  0  0  0  0  0  0  0  0  0
  140.4580   74.4520  221.6780 C   0  0  1  0  0  0  0  0  0  0  0  0
  140.3270   73.2050  222.4720 N   0  0  0  0  0  0  0  0  0  0  0  0
  140.8330   74.1380  220.2720 C   0  0  0  0  0  0  0  0  0  0  0  0
  141.5130   75.1920  219.5220 C   0  0  0  0  0  0  0  0  0  0  0  0
  140.6670   76.1530  218.9320 C   0  0  0  0  0  0  0  0  0  0  0  0
  141.1550   77.2570  218.2800 C   0  0  0  0  0  0  0  0  0  0  0  0
  142.5120   77.4890  218.1640 C   0  0  0  0  0  0  0  0  0  0  0  0
  143.3470   76.5570  218.7340 C   0  0  0  0  0  0  0  0  0  0  0  0
  142.8450   75.4220  219.4020 C   0  0  0  0  0  0  0  0  0  0  0  0
  143.8940   74.4820  219.8140 C   0  0  0  0  0  0  0  0  0  0  0  0
  145.0110   74.8660  220.5220 C   0  0  0  0  0  0  0  0  0  0  0  0
  146.0200   73.9510  220.8610 C   0  0  0  0  0  0  0  0  0  0  0  0
  145.8850   72.6220  220.4740 C   0  0  0  0  0  0  0  0  0  0  0  0
  144.7610   72.2090  219.7560 C   0  0  0  0  0  0  0  0  0  0  0  0
  143.7940   73.1400  219.4420 C   0  0  0  0  0  0  0  0  0  0  0  0
  138.2240   77.4610  222.5190 C   0  0  0  0  0  0  0  0  0  0  0  0
  138.1060   78.7750  221.8810 C   0  0  0  0  0  0  0  0  0  0  0  0
  142.1532   79.6791  224.9392 H   0  0  0  0  0  0  0  0  0  0  0  0
  141.3521   79.1411  223.4242 H   0  0  0  0  0  0  0  0  0  0  0  0
  143.1063   79.5276  223.4242 H   0  0  0  0  0  0  0  0  0  0  0  0
  141.3666   81.7022  224.3898 H   0  0  0  0  0  0  0  0  0  0  0  0
  142.7573   81.7011  223.2063 H   0  0  0  0  0  0  0  0  0  0  0  0
  139.0414   79.8709  224.9335 H   0  0  0  0  0  0  0  0  0  0  0  0
  137.3010   80.8948  226.3578 H   0  0  0  0  0  0  0  0  0  0  0  0
  135.9159   82.7825  225.5637 H   0  0  0  0  0  0  0  0  0  0  0  0
  136.2792   83.6931  223.2575 H   0  0  0  0  0  0  0  0  0  0  0  0
  138.0416   82.6631  221.8038 H   0  0  0  0  0  0  0  0  0  0  0  0
  139.0007   79.9149  220.5446 H   0  0  0  0  0  0  0  0  0  0  0  0
  140.6091   78.6200  220.1501 H   0  0  0  0  0  0  0  0  0  0  0  0
  141.3768   79.3791  221.6525 H   0  0  0  0  0  0  0  0  0  0  0  0
  141.3190   76.7888  221.2670 H   0  0  0  0  0  0  0  0  0  0  0  0
  141.1131   77.5969  222.8955 H   0  0  0  0  0  0  0  0  0  0  0  0
  141.3023   75.0756  222.0070 H   0  0  0  0  0  0  0  0  0  0  0  0
  139.5100   73.2220  223.0940 H   0  0  0  0  0  0  0  0  0  0  0  0
  140.4920   72.3630  221.9180 H   0  0  0  0  0  0  0  0  0  0  0  0
  141.4976   73.2617  220.2923 H   0  0  0  0  0  0  0  0  0  0  0  0
  139.8792   73.9799  219.7474 H   0  0  0  0  0  0  0  0  0  0  0  0
  139.5779   76.0128  218.9967 H   0  0  0  0  0  0  0  0  0  0  0  0
  140.4484   77.9753  217.8387 H   0  0  0  0  0  0  0  0  0  0  0  0
  142.9045   78.3743  217.6422 H   0  0  0  0  0  0  0  0  0  0  0  0
  144.4355   76.7010  218.6669 H   0  0  0  0  0  0  0  0  0  0  0  0
  145.1152   75.9169  220.8298 H   0  0  0  0  0  0  0  0  0  0  0  0
  146.9052   74.2805  221.4249 H   0  0  0  0  0  0  0  0  0  0  0  0
  146.6668   71.8934  220.7346 H   0  0  0  0  0  0  0  0  0  0  0  0
  144.6491   71.1594  219.4464 H   0  0  0  0  0  0  0  0  0  0  0  0
  142.9091   72.8128  218.8763 H   0  0  0  0  0  0  0  0  0  0  0  0
  137.3401   76.8606  222.2579 H   0  0  0  0  0  0  0  0  0  0  0  0
  138.2959   77.6200  223.6051 H   0  0  0  0  0  0  0  0  0  0  0  0
  137.5414   78.6258  220.9488 H   0  0  0  0  0  0  0  0  0  0  0  0
  137.6393   79.3939  222.6614 H   0  0  0  0  0  0  0  0  0  0  0  0
  1  2  1  0
  2  3  1  0
  3  4  2  0
  3  5  1  0
  5  6  1  0
  6  7  2  0
  7  8  1  0
  8  9  2  0
  9 10  1  0
 10 11  2  0
  5 12  1  0
 12 13  1  0
 13 14  1  0
 14 15  1  0
 15 16  1  0
 16 17  2  0
 16 18  1  0
 18 19  1  0
 18 20  1  0
 20 21  1  0
 21 22  2  0
 22 23  1  0
 23 24  2  0
 24 25  1  0
 25 26  2  0
 26 27  1  0
 27 28  2  0
 28 29  1  0
 29 30  2  0
 30 31  1  0
 31 32  2  0
 15 33  1  0
 33 34  1  0
 11  6  1  0
 34 12  1  0
 26 21  1  0
 32 27  1  0
  1 35  1  0
  1 36  1  0
  1 37  1  0
  2 38  1  0
  2 39  1  0
  7 40  1  0
  8 41  1  0
  9 42  1  0
 10 43  1  0
 11 44  1  0
 12 45  1  0
 13 46  1  0
 13 47  1  0
 14 48  1  0
 14 49  1  0
 18 50  1  1
 19 51  1  0
 19 52  1  0
 20 53  1  0
 20 54  1  0
 22 55  1  0
 23 56  1  0
 24 57  1  0
 25 58  1  0
 28 59  1  0
 29 60  1  0
 30 61  1  0
 31 62  1  0
 32 63  1  0
 33 64  1  0
 33 65  1  0
 34 66  1  0
 34 67  1  0
M  END
>  <smiles>  (49) 
CCC(=O)N(c1ccccc1)C1CCN(C(=O)[C@@H](N)Cc2ccccc2-c2ccccc2)CC1

>  <score_type>  (49) 
oracle

>  <origin>  (49) 
autodockgpu

>  <m_score__min__energy>  (49) 
-8.6899999999999995

>  <m_primary>  (49) 
energy

>  <rmsd>  (49) 
3.4206230025631266

>  <m_score__min__rmsd>  (49) 
3.4206230025631266

>  <meeko>  (49) 
{"free_energy": -7.69, "intermolecular_energy": -10.37, "internal_energy": -3.21, "cluster_size": 3, "cluster_id": 4, "rank_in_cluster": 3}

>  <energy>  (49) 
-6.55

>  <cluster_rmsd>  (49) 
0.0

>  <cluster>  (49) 
8

$$$$

     RDKit          3D

 67 70  0  0  0  0  0  0  0  0999 V2000
  142.1240   80.9290  218.4450 C   0  0  0  0  0  0  0  0  0  0  0  0
  141.5170   82.1560  219.0560 C   0  0  0  0  0  0  0  0  0  0  0  0
  140.4990   81.8540  220.1030 C   0  0  0  0  0  0  0  0  0  0  0  0
  139.5570   82.6630  220.2930 O   0  0  0  0  0  0  0  0  0  0  0  0
  140.5990   80.6580  220.8780 N   0  0  0  0  0  0  0  0  0  0  0  0
  141.4950   80.7110  221.9920 C   0  0  0  0  0  0  0  0  0  0  0  0
  142.6890   80.0300  222.0300 C   0  0  0  0  0  0  0  0  0  0  0  0
  143.4680   80.1470  223.1590 C   0  0  0  0  0  0  0  0  0  0  0  0
  143.0940   80.9170  224.2490 C   0  0  0  0  0  0  0  0  0  0  0  0
  141.8860   81.6040  224.2090 C   0  0  0  0  0  0  0  0  0  0  0  0
  141.0840   81.4950  223.0670 C   0  0  0  0  0  0  0  0  0  0  0  0
  139.8230   79.4550  220.5640 C   0  0  0  0  0  0  0  0  0  0  0  0
  140.6830   78.4180  219.9500 C   0  0  0  0  0  0  0  0  0  0  0  0
  140.9880   77.2130  220.7990 C   0  0  0  0  0  0  0  0  0  0  0  0
  139.9200   76.8550  221.7180 N   0  0  0  0  0  0  0  0  0  0  0  0
  139.6080   75.4470  221.9740 C   0  0  0  0  0  0  0  0  0  0  0  0
  138.5810   75.2790  222.6730 O   0  0  0  0  0  0  0  0  0  0  0  0
  140.4090   74.3560  221.4660 C   0  0  1  0  0  0  0  0  0  0  0  0
  140.2950   73.1890  222.3770 N   0  0  0  0  0  0  0  0  0  0  0  0
  140.2200   73.9320  220.0520 C   0  0  0  0  0  0  0  0  0  0  0  0
  140.9410   74.6960  219.0350 C   0  0  0  0  0  0  0  0  0  0  0  0
  140.1280   75.3770  218.1050 C   0  0  0  0  0  0  0  0  0  0  0  0
  140.6510   76.2150  217.1520 C   0  0  0  0  0  0  0  0  0  0  0  0
  142.0100   76.4370  217.0490 C   0  0  0  0  0  0  0  0  0  0  0  0
  142.8120   75.7760  217.9500 C   0  0  0  0  0  0  0  0  0  0  0  0
  142.2760   74.9140  218.9270 C   0  0  0  0  0  0  0  0  0  0  0  0
  143.3020   74.1990  219.6950 C   0  0  0  0  0  0  0  0  0  0  0  0
  144.4280   74.8120  220.1960 C   0  0  0  0  0  0  0  0  0  0  0  0
  145.4150   74.0930  220.8870 C   0  0  0  0  0  0  0  0  0  0  0  0
  145.2480   72.7240  221.0710 C   0  0  0  0  0  0  0  0  0  0  0  0
  144.1150   72.0800  220.5720 C   0  0  0  0  0  0  0  0  0  0  0  0
  143.1700   72.8240  219.8980 C   0  0  0  0  0  0  0  0  0  0  0  0
  139.1620   77.8560  222.4360 C   0  0  0  0  0  0  0  0  0  0  0  0
  138.8700   79.0320  221.6120 C   0  0  0  0  0  0  0  0  0  0  0  0
  142.4599   80.2500  219.2426 H   0  0  0  0  0  0  0  0  0  0  0  0
  141.3737   80.4201  217.8220 H   0  0  0  0  0  0  0  0  0  0  0  0
  142.9838   81.2166  217.8220 H   0  0  0  0  0  0  0  0  0  0  0  0
  142.3207   82.7523  219.5127 H   0  0  0  0  0  0  0  0  0  0  0  0
  141.0027   82.6999  218.2500 H   0  0  0  0  0  0  0  0  0  0  0  0
  143.0127   79.4089  221.1818 H   0  0  0  0  0  0  0  0  0  0  0  0
  144.4259   79.6076  223.1976 H   0  0  0  0  0  0  0  0  0  0  0  0
  143.7442   80.9837  225.1338 H   0  0  0  0  0  0  0  0  0  0  0  0
  141.5659   82.2227  225.0603 H   0  0  0  0  0  0  0  0  0  0  0  0
  140.1247   82.0311  223.0185 H   0  0  0  0  0  0  0  0  0  0  0  0
  139.1006   79.7121  219.7753 H   0  0  0  0  0  0  0  0  0  0  0  0
  140.1819   78.0656  219.0364 H   0  0  0  0  0  0  0  0  0  0  0  0
  141.6530   78.9072  219.7776 H   0  0  0  0  0  0  0  0  0  0  0  0
  141.1730   76.3576  220.1327 H   0  0  0  0  0  0  0  0  0  0  0  0
  141.8651   77.4678  221.4120 H   0  0  0  0  0  0  0  0  0  0  0  0
  141.4240   74.7795  221.4462 H   0  0  0  0  0  0  0  0  0  0  0  0
  141.2120   72.8330  222.6710 H   0  0  0  0  0  0  0  0  0  0  0  0
  139.5740   73.3110  223.0900 H   0  0  0  0  0  0  0  0  0  0  0  0
  140.5431   72.8835  219.9725 H   0  0  0  0  0  0  0  0  0  0  0  0
  139.1542   74.1020  219.8394 H   0  0  0  0  0  0  0  0  0  0  0  0
  139.0384   75.2316  218.1448 H   0  0  0  0  0  0  0  0  0  0  0  0
  139.9704   76.7225  216.4526 H   0  0  0  0  0  0  0  0  0  0  0  0
  142.4298   77.1082  216.2853 H   0  0  0  0  0  0  0  0  0  0  0  0
  143.9011   75.9244  217.9066 H   0  0  0  0  0  0  0  0  0  0  0  0
  144.5575   75.8946  220.0507 H   0  0  0  0  0  0  0  0  0  0  0  0
  146.3075   74.6040  221.2774 H   0  0  0  0  0  0  0  0  0  0  0  0
  146.0123   72.1469  221.6121 H   0  0  0  0  0  0  0  0  0  0  0  0
  143.9783   70.9978  220.7139 H   0  0  0  0  0  0  0  0  0  0  0  0
  142.2777   72.3147  219.5051 H   0  0  0  0  0  0  0  0  0  0  0  0
  138.2117   77.4106  222.7656 H   0  0  0  0  0  0  0  0  0  0  0  0
  139.7693   78.1876  223.2911 H   0  0  0  0  0  0  0  0  0  0  0  0
  137.9110   78.8375  221.1095 H   0  0  0  0  0  0  0  0  0  0  0  0
  138.9033   79.8613  222.3339 H   0  0  0  0  0  0  0  0  0  0  0  0
  1  2  1  0
  2  3  1  0
  3  4  2  0
  3  5  1  0
  5  6  1  0
  6  7  2  0
  7  8  1  0
  8  9  2  0
  9 10  1  0
 10 11  2  0
  5 12  1  0
 12 13  1  0
 13 14  1  0
 14 15  1  0
 15 16  1  0
 16 17  2  0
 16 18  1  0
 18 19  1  0
 18 20  1  0
 20 21  1  0
 21 22  2  0
 22 23  1  0
 23 24  2  0
 24 25  1  0
 25 26  2  0
 26 27  1  0
 27 28  2  0
 28 29  1  0
 29 30  2  0
 30 31  1  0
 31 32  2  0
 15 33  1  0
 33 34  1  0
 11  6  1  0
 34 12  1  0
 26 21  1  0
 32 27  1  0
  1 35  1  0
  1 36  1  0
  1 37  1  0
  2 38  1  0
  2 39  1  0
  7 40  1  0
  8 41  1  0
  9 42  1  0
 10 43  1  0
 11 44  1  0
 12 45  1  0
 13 46  1  0
 13 47  1  0
 14 48  1  0
 14 49  1  0
 18 50  1  6
 19 51  1  0
 19 52  1  0
 20 53  1  0
 20 54  1  0
 22 55  1  0
 23 56  1  0
 24 57  1  0
 25 58  1  0
 28 59  1  0
 29 60  1  0
 30 61  1  0
 31 62  1  0
 32 63  1  0
 33 64  1  0
 33 65  1  0
 34 66  1  0
 34 67  1  0
M  END
>  <smiles>  (50) 
CCC(=O)N(c1ccccc1)C1CCN(C(=O)[C@@H](N)Cc2ccccc2-c2ccccc2)CC1

>  <score_type>  (50) 
oracle

>  <origin>  (50) 
autodockgpu

>  <m_score__min__energy>  (50) 
-8.6899999999999995

>  <m_primary>  (50) 
energy

>  <rmsd>  (50) 
3.2376792780604613

>  <m_score__min__rmsd>  (50) 
3.2376792780604613

>  <meeko>  (50) 
{"free_energy": -6.93, "intermolecular_energy": -9.61, "internal_energy": -3.64, "cluster_size": 8, "cluster_id": 5, "rank_in_cluster": 6}

>  <energy>  (50) 
-6.54

>  <cluster_rmsd>  (50) 
0.45

>  <cluster>  (50) 
8

$$$$
