
     RDKit          3D

 63 67  0  0  0  0  0  0  0  0999 V2000
  134.2780   74.1700  226.3790 N   0  0  0  0  0  0  0  0  0  0  0  0
  134.1960   73.9460  224.9270 C   0  0  2  0  0  0  0  0  0  0  0  0
  134.9960   72.7170  224.6550 C   0  0  0  0  0  0  0  0  0  0  0  0
  135.2770   72.4520  223.1970 C   0  0  0  0  0  0  0  0  0  0  0  0
  135.3100   73.6900  222.3690 C   0  0  2  0  0  0  0  0  0  0  0  0
  136.3160   73.5260  221.3360 N   0  0  0  0  0  0  0  0  0  0  0  0
  137.6800   73.7280  221.6750 C   0  0  0  0  0  0  0  0  0  0  0  0
  138.4170   72.7340  222.1720 N   0  0  0  0  0  0  0  0  0  0  0  0
  139.7230   72.9070  222.5030 C   0  0  0  0  0  0  0  0  0  0  0  0
  140.3890   71.7620  223.0230 N   0  0  0  0  0  0  0  0  0  0  0  0
  139.7260   70.7380  223.8020 C   0  0  0  0  0  0  0  0  0  0  0  0
  140.0890   70.8550  225.2530 C   0  0  0  0  0  0  0  0  0  0  0  0
  139.6100   69.9740  226.2020 C   0  0  0  0  0  0  0  0  0  0  0  0
  139.9820   70.1350  227.5270 C   0  0  0  0  0  0  0  0  0  0  0  0
  140.8290   71.1630  227.9280 C   0  0  0  0  0  0  0  0  0  0  0  0
  141.3100   72.0450  226.9810 C   0  0  0  0  0  0  0  0  0  0  0  0
  140.9390   71.8850  225.6630 C   0  0  0  0  0  0  0  0  0  0  0  0
  140.3230   74.0980  222.3390 N   0  0  0  0  0  0  0  0  0  0  0  0
  139.5720   75.0940  221.8370 C   0  0  0  0  0  0  0  0  0  0  0  0
  140.2100   76.3540  221.6640 N   0  0  0  0  0  0  0  0  0  0  0  0
  140.0000   77.1040  220.4440 C   0  0  0  0  0  0  0  0  0  0  0  0
  141.3370   77.7770  220.1070 C   0  0  0  0  0  0  0  0  0  0  0  0
  141.5540   78.7600  221.2150 C   0  0  0  0  0  0  0  0  0  0  0  0
  141.8770   80.0710  220.9240 C   0  0  0  0  0  0  0  0  0  0  0  0
  142.0620   80.9200  222.0020 C   0  0  0  0  0  0  0  0  0  0  0  0
  141.9260   80.4610  223.2960 C   0  0  0  0  0  0  0  0  0  0  0  0
  141.6020   79.1480  223.5740 C   0  0  0  0  0  0  0  0  0  0  0  0
  141.4140   78.2860  222.5050 C   0  0  0  0  0  0  0  0  0  0  0  0
  141.0640   76.8590  222.7250 C   0  0  0  0  0  0  0  0  0  0  0  0
  138.2800   74.9210  221.5110 N   0  0  0  0  0  0  0  0  0  0  0  0
  135.6830   74.9230  223.1600 C   0  0  0  0  0  0  0  0  0  0  0  0
  134.7200   75.1850  224.2900 C   0  0  0  0  0  0  0  0  0  0  0  0
  134.5400   75.1710  226.5330 H   0  0  0  0  0  0  0  0  0  0  0  0
  133.2730   74.1060  226.7160 H   0  0  0  0  0  0  0  0  0  0  0  0
  133.1867   73.7743  224.5246 H   0  0  0  0  0  0  0  0  0  0  0  0
  134.4456   71.8546  225.0592 H   0  0  0  0  0  0  0  0  0  0  0  0
  135.9737   72.8730  225.1343 H   0  0  0  0  0  0  0  0  0  0  0  0
  134.4908   71.7903  222.8045 H   0  0  0  0  0  0  0  0  0  0  0  0
  136.2744   71.9922  223.1357 H   0  0  0  0  0  0  0  0  0  0  0  0
  134.2972   73.8317  221.9638 H   0  0  0  0  0  0  0  0  0  0  0  0
  136.0870   73.2640  220.3450 H   0  0  0  0  0  0  0  0  0  0  0  0
  141.4230   71.7000  222.8020 H   0  0  0  0  0  0  0  0  0  0  0  0
  138.6372   70.8496  223.6924 H   0  0  0  0  0  0  0  0  0  0  0  0
  140.0482   69.7520  223.4359 H   0  0  0  0  0  0  0  0  0  0  0  0
  138.9397   69.1524  225.9091 H   0  0  0  0  0  0  0  0  0  0  0  0
  139.5978   69.4321  228.2809 H   0  0  0  0  0  0  0  0  0  0  0  0
  141.1118   71.2717  228.9855 H   0  0  0  0  0  0  0  0  0  0  0  0
  141.9812   72.8655  227.2746 H   0  0  0  0  0  0  0  0  0  0  0  0
  141.3240   72.5898  224.9113 H   0  0  0  0  0  0  0  0  0  0  0  0
  139.6996   76.4280  219.6299 H   0  0  0  0  0  0  0  0  0  0  0  0
  139.2012   77.8498  220.5695 H   0  0  0  0  0  0  0  0  0  0  0  0
  142.1493   77.0357  220.0807 H   0  0  0  0  0  0  0  0  0  0  0  0
  141.3243   78.2587  219.1181 H   0  0  0  0  0  0  0  0  0  0  0  0
  141.9821   80.4231  219.8872 H   0  0  0  0  0  0  0  0  0  0  0  0
  142.3208   81.9743  221.8244 H   0  0  0  0  0  0  0  0  0  0  0  0
  142.0801   81.1613  224.1302 H   0  0  0  0  0  0  0  0  0  0  0  0
  141.4964   78.7971  224.6112 H   0  0  0  0  0  0  0  0  0  0  0  0
  141.9887   76.2639  222.7542 H   0  0  0  0  0  0  0  0  0  0  0  0
  140.5185   76.7787  223.6768 H   0  0  0  0  0  0  0  0  0  0  0  0
  135.6820   75.7913  222.4847 H   0  0  0  0  0  0  0  0  0  0  0  0
  136.6793   74.7572  223.5957 H   0  0  0  0  0  0  0  0  0  0  0  0
  133.8690   75.7595  223.8953 H   0  0  0  0  0  0  0  0  0  0  0  0
  135.2741   75.7357  225.0643 H   0  0  0  0  0  0  0  0  0  0  0  0
  1  2  1  0
  2  3  1  0
  3  4  1  0
  4  5  1  0
  5  6  1  0
  6  7  1  0
  7  8  2  0
  8  9  1  0
  9 10  1  0
 10 11  1  0
 11 12  1  0
 12 13  2  0
 13 14  1  0
 14 15  2  0
 15 16  1  0
 16 17  2  0
  9 18  2  0
 18 19  1  0
 19 20  1  0
 20 21  1  0
 21 22  1  0
 22 23  1  0
 23 24  2  0
 24 25  1  0
 25 26  2  0
 26 27  1  0
 27 28  2  0
 28 29  1  0
 19 30  2  0
  5 31  1  0
 31 32  1  0
 32  2  1  0
 30  7  1  0
 17 12  1  0
 29 20  1  0
 28 23  1  0
  1 33  1  0
  1 34  1  0
  2 35  1  6
  3 36  1  0
  3 37  1  0
  4 38  1  0
  4 39  1  0
  5 40  1  6
  6 41  1  0
 10 42  1  0
 11 43  1  0
 11 44  1  0
 13 45  1  0
 14 46  1  0
 15 47  1  0
 16 48  1  0
 17 49  1  0
 21 50  1  0
 21 51  1  0
 22 52  1  0
 22 53  1  0
 24 54  1  0
 25 55  1  0
 26 56  1  0
 27 57  1  0
 29 58  1  0
 29 59  1  0
 31 60  1  0
 31 61  1  0
 32 62  1  0
 32 63  1  0
M  END
>  <smiles>  (1) 
NC1CCC(Nc2nc(NCc3ccccc3)nc(N3CCc4ccccc4C3)n2)CC1

>  <score_type>  (1) 
oracle

>  <origin>  (1) 
autodockgpu

>  <m_score__min__energy>  (1) 
-9.7599999999999998

>  <m_primary>  (1) 
energy

>  <rmsd>  (1) 
10.399031791449776

>  <m_score__min__rmsd>  (1) 
10.399031791449776

>  <meeko>  (1) 
{"free_energy": -8.75, "intermolecular_energy": -10.84, "internal_energy": -1.24, "cluster_size": 7, "cluster_id": 7, "rank_in_cluster": 3}

>  <energy>  (1) 
-9.76

>  <cluster_rmsd>  (1) 
0.0

>  <cluster>  (1) 
1

$$$$

     RDKit          3D

 63 67  0  0  0  0  0  0  0  0999 V2000
  139.8720   67.7940  227.5900 N   0  0  0  0  0  0  0  0  0  0  0  0
  140.2920   68.5700  226.4120 C   0  0  2  0  0  0  0  0  0  0  0  0
  140.4040   69.9850  226.8700 C   0  0  0  0  0  0  0  0  0  0  0  0
  140.5570   70.9990  225.7630 C   0  0  0  0  0  0  0  0  0  0  0  0
  139.9430   70.5660  224.4770 C   0  0  2  0  0  0  0  0  0  0  0  0
  139.3920   71.7320  223.8150 N   0  0  0  0  0  0  0  0  0  0  0  0
  140.1710   72.3860  222.8240 C   0  0  0  0  0  0  0  0  0  0  0  0
  139.9300   73.6540  222.4880 N   0  0  0  0  0  0  0  0  0  0  0  0
  140.6640   74.2960  221.5420 C   0  0  0  0  0  0  0  0  0  0  0  0
  140.2990   75.6470  221.2840 N   0  0  0  0  0  0  0  0  0  0  0  0
  141.2490   76.6730  220.9080 C   0  0  0  0  0  0  0  0  0  0  0  0
  141.1490   77.8540  221.8270 C   0  0  0  0  0  0  0  0  0  0  0  0
  142.1510   78.8000  221.9190 C   0  0  0  0  0  0  0  0  0  0  0  0
  141.9990   79.8680  222.7870 C   0  0  0  0  0  0  0  0  0  0  0  0
  140.8600   80.0150  223.5720 C   0  0  0  0  0  0  0  0  0  0  0  0
  139.8560   79.0720  223.4820 C   0  0  0  0  0  0  0  0  0  0  0  0
  140.0070   78.0080  222.6180 C   0  0  0  0  0  0  0  0  0  0  0  0
  141.6680   73.6690  220.9050 N   0  0  0  0  0  0  0  0  0  0  0  0
  141.9020   72.3910  221.2510 C   0  0  0  0  0  0  0  0  0  0  0  0
  142.9660   71.7290  220.5750 N   0  0  0  0  0  0  0  0  0  0  0  0
  144.2960   72.3000  220.5970 C   0  0  0  0  0  0  0  0  0  0  0  0
  144.9090   72.0370  219.2160 C   0  0  0  0  0  0  0  0  0  0  0  0
  145.0520   70.5490  219.1440 C   0  0  0  0  0  0  0  0  0  0  0  0
  146.2550   69.9870  218.7620 C   0  0  0  0  0  0  0  0  0  0  0  0
  146.3100   68.6040  218.7200 C   0  0  0  0  0  0  0  0  0  0  0  0
  145.2070   67.8410  219.0460 C   0  0  0  0  0  0  0  0  0  0  0  0
  144.0100   68.4160  219.4260 C   0  0  0  0  0  0  0  0  0  0  0  0
  143.9400   69.7980  219.4730 C   0  0  0  0  0  0  0  0  0  0  0  0
  142.6870   70.4890  219.8740 C   0  0  0  0  0  0  0  0  0  0  0  0
  141.1750   71.7570  222.1860 N   0  0  0  0  0  0  0  0  0  0  0  0
  138.8090   69.5830  224.6620 C   0  0  0  0  0  0  0  0  0  0  0  0
  139.2550   68.3300  225.3720 C   0  0  0  0  0  0  0  0  0  0  0  0
  139.3200   66.9730  227.2520 H   0  0  0  0  0  0  0  0  0  0  0  0
  140.7710   67.3710  227.9650 H   0  0  0  0  0  0  0  0  0  0  0  0
  141.2623   68.2917  225.9750 H   0  0  0  0  0  0  0  0  0  0  0  0
  141.2814   70.0628  227.5288 H   0  0  0  0  0  0  0  0  0  0  0  0
  139.4572   70.2217  227.3776 H   0  0  0  0  0  0  0  0  0  0  0  0
  141.6301   71.1739  225.5959 H   0  0  0  0  0  0  0  0  0  0  0  0
  140.0326   71.9115  226.0829 H   0  0  0  0  0  0  0  0  0  0  0  0
  140.7353   70.0748  223.8930 H   0  0  0  0  0  0  0  0  0  0  0  0
  138.4390   72.1210  224.0290 H   0  0  0  0  0  0  0  0  0  0  0  0
  139.2690   75.8650  221.3860 H   0  0  0  0  0  0  0  0  0  0  0  0
  142.2668   76.2593  220.9619 H   0  0  0  0  0  0  0  0  0  0  0  0
  141.0238   77.0036  219.8833 H   0  0  0  0  0  0  0  0  0  0  0  0
  143.0612   78.7059  221.3085 H   0  0  0  0  0  0  0  0  0  0  0  0
  142.7993   80.6194  222.8576 H   0  0  0  0  0  0  0  0  0  0  0  0
  140.7608   80.8713  224.2553 H   0  0  0  0  0  0  0  0  0  0  0  0
  138.9460   79.1682  224.0924 H   0  0  0  0  0  0  0  0  0  0  0  0
  139.2050   77.2583  222.5492 H   0  0  0  0  0  0  0  0  0  0  0  0
  144.2414   73.3819  220.7882 H   0  0  0  0  0  0  0  0  0  0  0  0
  144.9071   71.8514  221.3941 H   0  0  0  0  0  0  0  0  0  0  0  0
  144.2437   72.4022  218.4198 H   0  0  0  0  0  0  0  0  0  0  0  0
  145.8695   72.5556  219.0802 H   0  0  0  0  0  0  0  0  0  0  0  0
  147.1259   70.6074  218.5040 H   0  0  0  0  0  0  0  0  0  0  0  0
  147.2452   68.1068  218.4229 H   0  0  0  0  0  0  0  0  0  0  0  0
  145.2833   66.7445  219.0020 H   0  0  0  0  0  0  0  0  0  0  0  0
  143.1392   67.7951  219.6833 H   0  0  0  0  0  0  0  0  0  0  0  0
  142.0975   70.7125  218.9726 H   0  0  0  0  0  0  0  0  0  0  0  0
  142.1286   69.8267  220.5518 H   0  0  0  0  0  0  0  0  0  0  0  0
  138.4127   69.3085  223.6733 H   0  0  0  0  0  0  0  0  0  0  0  0
  138.0387   70.0669  225.2804 H   0  0  0  0  0  0  0  0  0  0  0  0
  139.6663   67.6350  224.6251 H   0  0  0  0  0  0  0  0  0  0  0  0
  138.3730   67.9196  225.8854 H   0  0  0  0  0  0  0  0  0  0  0  0
  1  2  1  0
  2  3  1  0
  3  4  1  0
  4  5  1  0
  5  6  1  0
  6  7  1  0
  7  8  2  0
  8  9  1  0
  9 10  1  0
 10 11  1  0
 11 12  1  0
 12 13  2  0
 13 14  1  0
 14 15  2  0
 15 16  1  0
 16 17  2  0
  9 18  2  0
 18 19  1  0
 19 20  1  0
 20 21  1  0
 21 22  1  0
 22 23  1  0
 23 24  2  0
 24 25  1  0
 25 26  2  0
 26 27  1  0
 27 28  2  0
 28 29  1  0
 19 30  2  0
  5 31  1  0
 31 32  1  0
 32  2  1  0
 30  7  1  0
 17 12  1  0
 29 20  1  0
 28 23  1  0
  1 33  1  0
  1 34  1  0
  2 35  1  6
  3 36  1  0
  3 37  1  0
  4 38  1  0
  4 39  1  0
  5 40  1  6
  6 41  1  0
 10 42  1  0
 11 43  1  0
 11 44  1  0
 13 45  1  0
 14 46  1  0
 15 47  1  0
 16 48  1  0
 17 49  1  0
 21 50  1  0
 21 51  1  0
 22 52  1  0
 22 53  1  0
 24 54  1  0
 25 55  1  0
 26 56  1  0
 27 57  1  0
 29 58  1  0
 29 59  1  0
 31 60  1  0
 31 61  1  0
 32 62  1  0
 32 63  1  0
M  END
>  <smiles>  (2) 
NC1CCC(Nc2nc(NCc3ccccc3)nc(N3CCc4ccccc4C3)n2)CC1

>  <score_type>  (2) 
oracle

>  <origin>  (2) 
autodockgpu

>  <m_score__min__energy>  (2) 
-9.7599999999999998

>  <m_primary>  (2) 
energy

>  <rmsd>  (2) 
7.994379202001606

>  <m_score__min__rmsd>  (2) 
7.994379202001606

>  <meeko>  (2) 
{"free_energy": -9.6, "intermolecular_energy": -11.69, "internal_energy": -0.88, "cluster_size": 12, "cluster_id": 3, "rank_in_cluster": 5}

>  <energy>  (2) 
-9.74

>  <cluster_rmsd>  (2) 
1.06

>  <cluster>  (2) 
1

$$$$

     RDKit          3D

 63 67  0  0  0  0  0  0  0  0999 V2000
  142.2960   80.3670  221.6600 N   0  0  0  0  0  0  0  0  0  0  0  0
  142.1650   78.9330  221.9630 C   0  0  2  0  0  0  0  0  0  0  0  0
  141.8750   78.2630  220.6620 C   0  0  0  0  0  0  0  0  0  0  0  0
  141.4340   76.8250  220.7740 C   0  0  0  0  0  0  0  0  0  0  0  0
  140.7510   76.5160  222.0610 C   0  0  2  0  0  0  0  0  0  0  0  0
  139.7050   75.5440  221.8060 N   0  0  0  0  0  0  0  0  0  0  0  0
  140.0610   74.1740  221.6910 C   0  0  0  0  0  0  0  0  0  0  0  0
  140.5940   73.6950  220.5660 N   0  0  0  0  0  0  0  0  0  0  0  0
  140.9390   72.3880  220.4370 C   0  0  0  0  0  0  0  0  0  0  0  0
  141.4980   72.0150  219.1820 N   0  0  0  0  0  0  0  0  0  0  0  0
  142.8840   71.6340  219.0070 C   0  0  0  0  0  0  0  0  0  0  0  0
  143.7960   72.6480  219.6320 C   0  0  0  0  0  0  0  0  0  0  0  0
  143.5390   74.0030  219.5710 C   0  0  0  0  0  0  0  0  0  0  0  0
  144.4200   74.8890  220.1680 C   0  0  0  0  0  0  0  0  0  0  0  0
  145.5620   74.4490  220.8300 C   0  0  0  0  0  0  0  0  0  0  0  0
  145.8220   73.0950  220.8940 C   0  0  0  0  0  0  0  0  0  0  0  0
  144.9450   72.2130  220.2990 C   0  0  0  0  0  0  0  0  0  0  0  0
  140.7540   71.5230  221.4480 N   0  0  0  0  0  0  0  0  0  0  0  0
  140.2170   72.0150  222.5780 C   0  0  0  0  0  0  0  0  0  0  0  0
  140.0220   71.0970  223.6480 N   0  0  0  0  0  0  0  0  0  0  0  0
  139.5880   69.7450  223.3630 C   0  0  0  0  0  0  0  0  0  0  0  0
  138.6270   69.3460  224.4920 C   0  0  0  0  0  0  0  0  0  0  0  0
  139.4840   69.3020  225.7180 C   0  0  0  0  0  0  0  0  0  0  0  0
  139.4470   68.1990  226.5490 C   0  0  0  0  0  0  0  0  0  0  0  0
  140.2680   68.2310  227.6640 C   0  0  0  0  0  0  0  0  0  0  0  0
  141.0760   69.3210  227.9160 C   0  0  0  0  0  0  0  0  0  0  0  0
  141.1040   70.4180  227.0760 C   0  0  0  0  0  0  0  0  0  0  0  0
  140.2880   70.3990  225.9570 C   0  0  0  0  0  0  0  0  0  0  0  0
  140.2640   71.5420  225.0080 C   0  0  0  0  0  0  0  0  0  0  0  0
  139.8740   73.3080  222.7040 N   0  0  0  0  0  0  0  0  0  0  0  0
  140.0920   77.7230  222.6880 C   0  0  0  0  0  0  0  0  0  0  0  0
  141.0800   78.8240  222.9760 C   0  0  0  0  0  0  0  0  0  0  0  0
  143.2760   80.5380  221.3400 H   0  0  0  0  0  0  0  0  0  0  0  0
  141.7060   80.5100  220.7880 H   0  0  0  0  0  0  0  0  0  0  0  0
  143.0570   78.4495  222.3879 H   0  0  0  0  0  0  0  0  0  0  0  0
  142.7888   78.2938  220.0504 H   0  0  0  0  0  0  0  0  0  0  0  0
  141.0329   78.8104  220.2134 H   0  0  0  0  0  0  0  0  0  0  0  0
  142.3208   76.1801  220.6859 H   0  0  0  0  0  0  0  0  0  0  0  0
  140.7075   76.6437  219.9682 H   0  0  0  0  0  0  0  0  0  0  0  0
  141.5227   76.1449  222.7515 H   0  0  0  0  0  0  0  0  0  0  0  0
  138.6920   75.8010  221.7020 H   0  0  0  0  0  0  0  0  0  0  0  0
  140.8260   72.0320  218.3650 H   0  0  0  0  0  0  0  0  0  0  0  0
  143.0523   70.6560  219.4816 H   0  0  0  0  0  0  0  0  0  0  0  0
  143.1021   71.5785  217.9303 H   0  0  0  0  0  0  0  0  0  0  0  0
  142.6429   74.3754  219.0530 H   0  0  0  0  0  0  0  0  0  0  0  0
  144.2117   75.9679  220.1176 H   0  0  0  0  0  0  0  0  0  0  0  0
  146.2487   75.1708  221.2963 H   0  0  0  0  0  0  0  0  0  0  0  0
  146.7179   72.7241  221.4133 H   0  0  0  0  0  0  0  0  0  0  0  0
  145.1558   71.1346  220.3507 H   0  0  0  0  0  0  0  0  0  0  0  0
  139.0701   69.7090  222.3932 H   0  0  0  0  0  0  0  0  0  0  0  0
  140.4442   69.0565  223.3088 H   0  0  0  0  0  0  0  0  0  0  0  0
  137.8273   70.0930  224.6036 H   0  0  0  0  0  0  0  0  0  0  0  0
  138.1288   68.3851  224.2961 H   0  0  0  0  0  0  0  0  0  0  0  0
  138.7973   67.3374  226.3356 H   0  0  0  0  0  0  0  0  0  0  0  0
  140.2761   67.3770  228.3573 H   0  0  0  0  0  0  0  0  0  0  0  0
  141.7158   69.3165  228.8108 H   0  0  0  0  0  0  0  0  0  0  0  0
  141.7540   71.2793  227.2894 H   0  0  0  0  0  0  0  0  0  0  0  0
  139.4644   72.2367  225.3047 H   0  0  0  0  0  0  0  0  0  0  0  0
  141.2449   72.0388  225.0400 H   0  0  0  0  0  0  0  0  0  0  0  0
  139.6169   77.4172  223.6318 H   0  0  0  0  0  0  0  0  0  0  0  0
  139.3503   78.1121  221.9749 H   0  0  0  0  0  0  0  0  0  0  0  0
  141.5387   78.6314  223.9571 H   0  0  0  0  0  0  0  0  0  0  0  0
  140.5218   79.7716  222.9530 H   0  0  0  0  0  0  0  0  0  0  0  0
  1  2  1  0
  2  3  1  0
  3  4  1  0
  4  5  1  0
  5  6  1  0
  6  7  1  0
  7  8  2  0
  8  9  1  0
  9 10  1  0
 10 11  1  0
 11 12  1  0
 12 13  2  0
 13 14  1  0
 14 15  2  0
 15 16  1  0
 16 17  2  0
  9 18  2  0
 18 19  1  0
 19 20  1  0
 20 21  1  0
 21 22  1  0
 22 23  1  0
 23 24  2  0
 24 25  1  0
 25 26  2  0
 26 27  1  0
 27 28  2  0
 28 29  1  0
 19 30  2  0
  5 31  1  0
 31 32  1  0
 32  2  1  0
 30  7  1  0
 17 12  1  0
 29 20  1  0
 28 23  1  0
  1 33  1  0
  1 34  1  0
  2 35  1  1
  3 36  1  0
  3 37  1  0
  4 38  1  0
  4 39  1  0
  5 40  1  1
  6 41  1  0
 10 42  1  0
 11 43  1  0
 11 44  1  0
 13 45  1  0
 14 46  1  0
 15 47  1  0
 16 48  1  0
 17 49  1  0
 21 50  1  0
 21 51  1  0
 22 52  1  0
 22 53  1  0
 24 54  1  0
 25 55  1  0
 26 56  1  0
 27 57  1  0
 29 58  1  0
 29 59  1  0
 31 60  1  0
 31 61  1  0
 32 62  1  0
 32 63  1  0
M  END
>  <smiles>  (3) 
NC1CCC(Nc2nc(NCc3ccccc3)nc(N3CCc4ccccc4C3)n2)CC1

>  <score_type>  (3) 
oracle

>  <origin>  (3) 
autodockgpu

>  <m_score__min__energy>  (3) 
-9.7599999999999998

>  <m_primary>  (3) 
energy

>  <rmsd>  (3) 
3.8832535242652404

>  <m_score__min__rmsd>  (3) 
3.8832535242652404

>  <meeko>  (3) 
{"free_energy": -9.11, "intermolecular_energy": -11.2, "internal_energy": -1.43, "cluster_size": 7, "cluster_id": 4, "rank_in_cluster": 1}

>  <energy>  (3) 
-9.68

>  <cluster_rmsd>  (3) 
1.09

>  <cluster>  (3) 
1

$$$$

     RDKit          3D

 63 67  0  0  0  0  0  0  0  0999 V2000
  138.3960   80.2800  223.4010 N   0  0  0  0  0  0  0  0  0  0  0  0
  139.0660   78.9710  223.4540 C   0  0  2  0  0  0  0  0  0  0  0  0
  140.4320   79.1850  222.8950 C   0  0  0  0  0  0  0  0  0  0  0  0
  141.2020   77.9220  222.6000 C   0  0  0  0  0  0  0  0  0  0  0  0
  140.3270   76.7580  222.2860 C   0  0  2  0  0  0  0  0  0  0  0  0
  140.9860   75.9440  221.2820 N   0  0  0  0  0  0  0  0  0  0  0  0
  141.1050   74.5470  221.5070 C   0  0  0  0  0  0  0  0  0  0  0  0
  140.2650   73.9100  222.3250 N   0  0  0  0  0  0  0  0  0  0  0  0
  140.3630   72.5750  222.5530 C   0  0  0  0  0  0  0  0  0  0  0  0
  139.4010   72.0250  223.4470 N   0  0  0  0  0  0  0  0  0  0  0  0
  139.5470   70.7320  224.0800 C   0  0  0  0  0  0  0  0  0  0  0  0
  140.0320   70.8820  225.4910 C   0  0  0  0  0  0  0  0  0  0  0  0
  139.6270   70.0310  226.5010 C   0  0  0  0  0  0  0  0  0  0  0  0
  140.1120   70.2210  227.7850 C   0  0  0  0  0  0  0  0  0  0  0  0
  140.9980   71.2500  228.0850 C   0  0  0  0  0  0  0  0  0  0  0  0
  141.4060   72.1020  227.0790 C   0  0  0  0  0  0  0  0  0  0  0  0
  140.9230   71.9130  225.8010 C   0  0  0  0  0  0  0  0  0  0  0  0
  141.3190   71.8420  221.9580 N   0  0  0  0  0  0  0  0  0  0  0  0
  142.1610   72.4930  221.1360 C   0  0  0  0  0  0  0  0  0  0  0  0
  143.1730   71.7150  220.5080 N   0  0  0  0  0  0  0  0  0  0  0  0
  144.5280   72.2200  220.4380 C   0  0  0  0  0  0  0  0  0  0  0  0
  145.0880   71.7860  219.0770 C   0  0  0  0  0  0  0  0  0  0  0  0
  145.1610   70.2940  219.1580 C   0  0  0  0  0  0  0  0  0  0  0  0
  146.3260   69.6380  218.8080 C   0  0  0  0  0  0  0  0  0  0  0  0
  146.3170   68.2570  218.9100 C   0  0  0  0  0  0  0  0  0  0  0  0
  145.1910   67.5860  219.3410 C   0  0  0  0  0  0  0  0  0  0  0  0
  144.0330   68.2540  219.6880 C   0  0  0  0  0  0  0  0  0  0  0  0
  144.0260   69.6360  219.5920 C   0  0  0  0  0  0  0  0  0  0  0  0
  142.8180   70.4230  219.9480 C   0  0  0  0  0  0  0  0  0  0  0  0
  142.0630   73.8140  220.9120 N   0  0  0  0  0  0  0  0  0  0  0  0
  138.9840   77.1600  221.7210 C   0  0  0  0  0  0  0  0  0  0  0  0
  138.2100   78.0400  222.6690 C   0  0  0  0  0  0  0  0  0  0  0  0
  139.1370   81.0180  223.4130 H   0  0  0  0  0  0  0  0  0  0  0  0
  137.9880   80.3310  222.4220 H   0  0  0  0  0  0  0  0  0  0  0  0
  139.1883   78.5354  224.4566 H   0  0  0  0  0  0  0  0  0  0  0  0
  141.0097   79.7758  223.6211 H   0  0  0  0  0  0  0  0  0  0  0  0
  140.2943   79.6951  221.9302 H   0  0  0  0  0  0  0  0  0  0  0  0
  141.8130   77.6721  223.4799 H   0  0  0  0  0  0  0  0  0  0  0  0
  141.8176   78.1163  221.7094 H   0  0  0  0  0  0  0  0  0  0  0  0
  140.1579   76.2207  223.2308 H   0  0  0  0  0  0  0  0  0  0  0  0
  141.3810   76.3350  220.3910 H   0  0  0  0  0  0  0  0  0  0  0  0
  138.5520   72.6310  223.6270 H   0  0  0  0  0  0  0  0  0  0  0  0
  138.5728   70.2212  224.0858 H   0  0  0  0  0  0  0  0  0  0  0  0
  140.2843   70.1435  223.5143 H   0  0  0  0  0  0  0  0  0  0  0  0
  138.9262   69.2104  226.2880 H   0  0  0  0  0  0  0  0  0  0  0  0
  139.7882   69.5411  228.5868 H   0  0  0  0  0  0  0  0  0  0  0  0
  141.3692   71.3832  229.1119 H   0  0  0  0  0  0  0  0  0  0  0  0
  142.1076   72.9215  227.2937 H   0  0  0  0  0  0  0  0  0  0  0  0
  141.2490   72.5945  225.0015 H   0  0  0  0  0  0  0  0  0  0  0  0
  144.5286   73.3172  220.5162 H   0  0  0  0  0  0  0  0  0  0  0  0
  145.1408   71.8270  221.2626 H   0  0  0  0  0  0  0  0  0  0  0  0
  144.4169   72.0985  218.2633 H   0  0  0  0  0  0  0  0  0  0  0  0
  146.0667   72.2408  218.8641 H   0  0  0  0  0  0  0  0  0  0  0  0
  147.2163   70.1857  218.4654 H   0  0  0  0  0  0  0  0  0  0  0  0
  147.2196   67.6873  218.6439 H   0  0  0  0  0  0  0  0  0  0  0  0
  145.2163   66.4885  219.4102 H   0  0  0  0  0  0  0  0  0  0  0  0
  143.1432   67.7053  220.0303 H   0  0  0  0  0  0  0  0  0  0  0  0
  142.2132   70.5794  219.0426 H   0  0  0  0  0  0  0  0  0  0  0  0
  142.2501   69.8620  220.7049 H   0  0  0  0  0  0  0  0  0  0  0  0
  138.3970   76.2514  221.5212 H   0  0  0  0  0  0  0  0  0  0  0  0
  139.1622   77.7312  220.7980 H   0  0  0  0  0  0  0  0  0  0  0  0
  137.6620   77.3956  223.3721 H   0  0  0  0  0  0  0  0  0  0  0  0
  137.5380   78.6595  222.0569 H   0  0  0  0  0  0  0  0  0  0  0  0
  1  2  1  0
  2  3  1  0
  3  4  1  0
  4  5  1  0
  5  6  1  0
  6  7  1  0
  7  8  2  0
  8  9  1  0
  9 10  1  0
 10 11  1  0
 11 12  1  0
 12 13  2  0
 13 14  1  0
 14 15  2  0
 15 16  1  0
 16 17  2  0
  9 18  2  0
 18 19  1  0
 19 20  1  0
 20 21  1  0
 21 22  1  0
 22 23  1  0
 23 24  2  0
 24 25  1  0
 25 26  2  0
 26 27  1  0
 27 28  2  0
 28 29  1  0
 19 30  2  0
  5 31  1  0
 31 32  1  0
 32  2  1  0
 30  7  1  0
 17 12  1  0
 29 20  1  0
 28 23  1  0
  1 33  1  0
  1 34  1  0
  2 35  1  1
  3 36  1  0
  3 37  1  0
  4 38  1  0
  4 39  1  0
  5 40  1  1
  6 41  1  0
 10 42  1  0
 11 43  1  0
 11 44  1  0
 13 45  1  0
 14 46  1  0
 15 47  1  0
 16 48  1  0
 17 49  1  0
 21 50  1  0
 21 51  1  0
 22 52  1  0
 22 53  1  0
 24 54  1  0
 25 55  1  0
 26 56  1  0
 27 57  1  0
 29 58  1  0
 29 59  1  0
 31 60  1  0
 31 61  1  0
 32 62  1  0
 32 63  1  0
M  END
>  <smiles>  (4) 
NC1CCC(Nc2nc(NCc3ccccc3)nc(N3CCc4ccccc4C3)n2)CC1

>  <score_type>  (4) 
oracle

>  <origin>  (4) 
autodockgpu

>  <m_score__min__energy>  (4) 
-9.7599999999999998

>  <m_primary>  (4) 
energy

>  <rmsd>  (4) 
8.01865598908026

>  <m_score__min__rmsd>  (4) 
8.01865598908026

>  <meeko>  (4) 
{"free_energy": -9.04, "intermolecular_energy": -11.12, "internal_energy": -0.96, "cluster_size": 1, "cluster_id": 5, "rank_in_cluster": 1}

>  <energy>  (4) 
-9.67

>  <cluster_rmsd>  (4) 
0.99

>  <cluster>  (4) 
1

$$$$

     RDKit          3D

 63 67  0  0  0  0  0  0  0  0999 V2000
  146.2620   73.4090  218.4230 N   0  0  0  0  0  0  0  0  0  0  0  0
  145.3120   72.2870  218.3500 C   0  0  2  0  0  0  0  0  0  0  0  0
  144.0220   72.8700  217.8830 C   0  0  0  0  0  0  0  0  0  0  0  0
  142.8320   71.9500  217.9960 C   0  0  0  0  0  0  0  0  0  0  0  0
  142.9660   70.9430  219.0860 C   0  0  2  0  0  0  0  0  0  0  0  0
  141.6570   70.7180  219.6690 N   0  0  0  0  0  0  0  0  0  0  0  0
  141.1390   71.6810  220.5740 C   0  0  0  0  0  0  0  0  0  0  0  0
  140.4890   71.3050  221.6770 N   0  0  0  0  0  0  0  0  0  0  0  0
  139.9850   72.2120  222.5540 C   0  0  0  0  0  0  0  0  0  0  0  0
  139.3170   71.6720  223.6890 N   0  0  0  0  0  0  0  0  0  0  0  0
  139.7300   70.4540  224.3540 C   0  0  0  0  0  0  0  0  0  0  0  0
  140.2390   70.7490  225.7340 C   0  0  0  0  0  0  0  0  0  0  0  0
  140.9830   71.8780  226.0170 C   0  0  0  0  0  0  0  0  0  0  0  0
  141.4240   72.0940  227.3120 C   0  0  0  0  0  0  0  0  0  0  0  0
  141.1370   71.2020  228.3400 C   0  0  0  0  0  0  0  0  0  0  0  0
  140.3930   70.0730  228.0620 C   0  0  0  0  0  0  0  0  0  0  0  0
  139.9540   69.8580  226.7720 C   0  0  0  0  0  0  0  0  0  0  0  0
  140.1240   73.5310  222.3390 N   0  0  0  0  0  0  0  0  0  0  0  0
  140.7800   73.8990  221.2250 C   0  0  0  0  0  0  0  0  0  0  0  0
  140.9260   75.2960  220.9990 N   0  0  0  0  0  0  0  0  0  0  0  0
  140.9800   76.2030  222.1260 C   0  0  0  0  0  0  0  0  0  0  0  0
  140.2290   77.4730  221.7030 C   0  0  0  0  0  0  0  0  0  0  0  0
  141.0630   78.0570  220.6060 C   0  0  0  0  0  0  0  0  0  0  0  0
  141.4180   79.3920  220.6420 C   0  0  0  0  0  0  0  0  0  0  0  0
  142.1900   79.8590  219.5920 C   0  0  0  0  0  0  0  0  0  0  0  0
  142.5770   79.0180  218.5690 C   0  0  0  0  0  0  0  0  0  0  0  0
  142.2160   77.6850  218.5450 C   0  0  0  0  0  0  0  0  0  0  0  0
  141.4430   77.2030  219.5890 C   0  0  0  0  0  0  0  0  0  0  0  0
  141.0160   75.7810  219.6330 C   0  0  0  0  0  0  0  0  0  0  0  0
  141.2770   73.0020  220.3570 N   0  0  0  0  0  0  0  0  0  0  0  0
  143.8780   71.3970  220.2040 C   0  0  0  0  0  0  0  0  0  0  0  0
  145.2720   71.6930  219.7140 C   0  0  0  0  0  0  0  0  0  0  0  0
  146.0200   74.0820  217.6610 H   0  0  0  0  0  0  0  0  0  0  0  0
  146.0030   73.9190  219.3180 H   0  0  0  0  0  0  0  0  0  0  0  0
  145.5763   71.4796  217.6512 H   0  0  0  0  0  0  0  0  0  0  0  0
  144.1371   73.1517  216.8259 H   0  0  0  0  0  0  0  0  0  0  0  0
  143.8139   73.7263  218.5414 H   0  0  0  0  0  0  0  0  0  0  0  0
  142.7111   71.4170  217.0414 H   0  0  0  0  0  0  0  0  0  0  0  0
  141.9591   72.5749  218.2358 H   0  0  0  0  0  0  0  0  0  0  0  0
  143.3958   70.0369  218.6340 H   0  0  0  0  0  0  0  0  0  0  0  0
  141.0680   69.8750  219.4540 H   0  0  0  0  0  0  0  0  0  0  0  0
  138.4800   72.2240  224.0270 H   0  0  0  0  0  0  0  0  0  0  0  0
  138.8700   69.7718  224.4246 H   0  0  0  0  0  0  0  0  0  0  0  0
  140.5389   69.9897  223.7707 H   0  0  0  0  0  0  0  0  0  0  0  0
  141.2229   72.5987  225.2213 H   0  0  0  0  0  0  0  0  0  0  0  0
  142.0164   72.9941  227.5333 H   0  0  0  0  0  0  0  0  0  0  0  0
  141.4982   71.3938  229.3612 H   0  0  0  0  0  0  0  0  0  0  0  0
  140.1532   69.3538  228.8590 H   0  0  0  0  0  0  0  0  0  0  0  0
  139.3613   68.9574  226.5538 H   0  0  0  0  0  0  0  0  0  0  0  0
  140.4943   75.7489  223.0023 H   0  0  0  0  0  0  0  0  0  0  0  0
  142.0200   76.4306  222.4026 H   0  0  0  0  0  0  0  0  0  0  0  0
  139.2224   77.2247  221.3354 H   0  0  0  0  0  0  0  0  0  0  0  0
  140.0901   78.1736  222.5395 H   0  0  0  0  0  0  0  0  0  0  0  0
  141.1028   80.0511  221.4643 H   0  0  0  0  0  0  0  0  0  0  0  0
  142.4990   80.9146  219.5731 H   0  0  0  0  0  0  0  0  0  0  0  0
  143.1904   79.4204  217.7494 H   0  0  0  0  0  0  0  0  0  0  0  0
  142.5324   77.0265  217.7226 H   0  0  0  0  0  0  0  0  0  0  0  0
  140.0297   75.6887  219.1549 H   0  0  0  0  0  0  0  0  0  0  0  0
  141.7663   75.1780  219.1006 H   0  0  0  0  0  0  0  0  0  0  0  0
  143.9302   70.6031  220.9636 H   0  0  0  0  0  0  0  0  0  0  0  0
  143.4626   72.3249  220.6241 H   0  0  0  0  0  0  0  0  0  0  0  0
  145.8425   70.7526  219.7004 H   0  0  0  0  0  0  0  0  0  0  0  0
  145.7040   72.4354  220.4012 H   0  0  0  0  0  0  0  0  0  0  0  0
  1  2  1  0
  2  3  1  0
  3  4  1  0
  4  5  1  0
  5  6  1  0
  6  7  1  0
  7  8  2  0
  8  9  1  0
  9 10  1  0
 10 11  1  0
 11 12  1  0
 12 13  2  0
 13 14  1  0
 14 15  2  0
 15 16  1  0
 16 17  2  0
  9 18  2  0
 18 19  1  0
 19 20  1  0
 20 21  1  0
 21 22  1  0
 22 23  1  0
 23 24  2  0
 24 25  1  0
 25 26  2  0
 26 27  1  0
 27 28  2  0
 28 29  1  0
 19 30  2  0
  5 31  1  0
 31 32  1  0
 32  2  1  0
 30  7  1  0
 17 12  1  0
 29 20  1  0
 28 23  1  0
  1 33  1  0
  1 34  1  0
  2 35  1  6
  3 36  1  0
  3 37  1  0
  4 38  1  0
  4 39  1  0
  5 40  1  6
  6 41  1  0
 10 42  1  0
 11 43  1  0
 11 44  1  0
 13 45  1  0
 14 46  1  0
 15 47  1  0
 16 48  1  0
 17 49  1  0
 21 50  1  0
 21 51  1  0
 22 52  1  0
 22 53  1  0
 24 54  1  0
 25 55  1  0
 26 56  1  0
 27 57  1  0
 29 58  1  0
 29 59  1  0
 31 60  1  0
 31 61  1  0
 32 62  1  0
 32 63  1  0
M  END
>  <smiles>  (5) 
NC1CCC(Nc2nc(NCc3ccccc3)nc(N3CCc4ccccc4C3)n2)CC1

>  <score_type>  (5) 
oracle

>  <origin>  (5) 
autodockgpu

>  <m_score__min__energy>  (5) 
-9.7599999999999998

>  <m_primary>  (5) 
energy

>  <rmsd>  (5) 
9.889804185165191

>  <m_score__min__rmsd>  (5) 
9.889804185165191

>  <meeko>  (5) 
{"free_energy": -9.03, "intermolecular_energy": -11.12, "internal_energy": -1.22, "cluster_size": 15, "cluster_id": 1, "rank_in_cluster": 13}

>  <energy>  (5) 
-9.67

>  <cluster_rmsd>  (5) 
0.95

>  <cluster>  (5) 
1

$$$$

     RDKit          3D

 63 67  0  0  0  0  0  0  0  0999 V2000
  139.1790   67.3880  226.6360 N   0  0  0  0  0  0  0  0  0  0  0  0
  139.7170   68.2220  225.5490 C   0  0  2  0  0  0  0  0  0  0  0  0
  140.1940   69.4800  226.1940 C   0  0  0  0  0  0  0  0  0  0  0  0
  140.5350   70.5930  225.2360 C   0  0  0  0  0  0  0  0  0  0  0  0
  139.7710   70.5280  223.9590 C   0  0  2  0  0  0  0  0  0  0  0  0
  139.4890   71.8820  223.5210 N   0  0  0  0  0  0  0  0  0  0  0  0
  140.3720   72.4960  222.5940 C   0  0  0  0  0  0  0  0  0  0  0  0
  140.2820   73.7990  222.3210 N   0  0  0  0  0  0  0  0  0  0  0  0
  141.1160   74.4040  221.4370 C   0  0  0  0  0  0  0  0  0  0  0  0
  140.9080   75.7990  221.2410 N   0  0  0  0  0  0  0  0  0  0  0  0
  140.2990   76.6610  222.2320 C   0  0  0  0  0  0  0  0  0  0  0  0
  141.0600   77.9480  222.3570 C   0  0  0  0  0  0  0  0  0  0  0  0
  141.3770   78.7230  221.2580 C   0  0  0  0  0  0  0  0  0  0  0  0
  142.0810   79.9020  221.4390 C   0  0  0  0  0  0  0  0  0  0  0  0
  142.4790   80.3280  222.7020 C   0  0  0  0  0  0  0  0  0  0  0  0
  142.1630   79.5570  223.8020 C   0  0  0  0  0  0  0  0  0  0  0  0
  141.4620   78.3830  223.6220 C   0  0  0  0  0  0  0  0  0  0  0  0
  142.0700   73.7050  220.8000 N   0  0  0  0  0  0  0  0  0  0  0  0
  142.1540   72.3930  221.0820 C   0  0  0  0  0  0  0  0  0  0  0  0
  143.1650   71.6550  220.4060 N   0  0  0  0  0  0  0  0  0  0  0  0
  144.5180   72.1680  220.3590 C   0  0  0  0  0  0  0  0  0  0  0  0
  145.0730   71.8140  218.9730 C   0  0  0  0  0  0  0  0  0  0  0  0
  145.1510   70.3190  218.9690 C   0  0  0  0  0  0  0  0  0  0  0  0
  146.3170   69.6880  218.5780 C   0  0  0  0  0  0  0  0  0  0  0  0
  146.3120   68.3040  218.6010 C   0  0  0  0  0  0  0  0  0  0  0  0
  145.1900   67.6060  218.9970 C   0  0  0  0  0  0  0  0  0  0  0  0
  144.0320   68.2490  219.3870 C   0  0  0  0  0  0  0  0  0  0  0  0
  144.0210   69.6340  219.3690 C   0  0  0  0  0  0  0  0  0  0  0  0
  142.8110   70.3960  219.7750 C   0  0  0  0  0  0  0  0  0  0  0  0
  141.3270   71.7950  221.9560 N   0  0  0  0  0  0  0  0  0  0  0  0
  138.4420   69.8210  224.0980 C   0  0  0  0  0  0  0  0  0  0  0  0
  138.6020   68.4010  224.5790 C   0  0  0  0  0  0  0  0  0  0  0  0
  139.8900   66.6530  226.8570 H   0  0  0  0  0  0  0  0  0  0  0  0
  139.1840   68.0230  227.4870 H   0  0  0  0  0  0  0  0  0  0  0  0
  140.5667   67.7978  224.9939 H   0  0  0  0  0  0  0  0  0  0  0  0
  141.0953   69.2440  226.7788 H   0  0  0  0  0  0  0  0  0  0  0  0
  139.3599   69.8471  226.8101 H   0  0  0  0  0  0  0  0  0  0  0  0
  141.6086   70.5364  225.0034 H   0  0  0  0  0  0  0  0  0  0  0  0
  140.2660   71.5393  225.7280 H   0  0  0  0  0  0  0  0  0  0  0  0
  140.3899   69.9657  223.2443 H   0  0  0  0  0  0  0  0  0  0  0  0
  138.6610   72.4350  223.8550 H   0  0  0  0  0  0  0  0  0  0  0  0
  141.2320   76.1790  220.3080 H   0  0  0  0  0  0  0  0  0  0  0  0
  139.2641   76.8815  221.9314 H   0  0  0  0  0  0  0  0  0  0  0  0
  140.3134   76.1465  223.2041 H   0  0  0  0  0  0  0  0  0  0  0  0
  141.0733   78.4068  220.2492 H   0  0  0  0  0  0  0  0  0  0  0  0
  142.3316   80.5169  220.5620 H   0  0  0  0  0  0  0  0  0  0  0  0
  143.0385   81.2674  222.8224 H   0  0  0  0  0  0  0  0  0  0  0  0
  142.4666   79.8750  224.8103 H   0  0  0  0  0  0  0  0  0  0  0  0
  141.2120   77.7708  224.5010 H   0  0  0  0  0  0  0  0  0  0  0  0
  144.5154   73.2590  220.4995 H   0  0  0  0  0  0  0  0  0  0  0  0
  145.1359   71.7310  221.1573 H   0  0  0  0  0  0  0  0  0  0  0  0
  144.3972   72.1699  218.1814 H   0  0  0  0  0  0  0  0  0  0  0  0
  146.0492   72.2835  218.7818 H   0  0  0  0  0  0  0  0  0  0  0  0
  147.2045   70.2572  218.2643 H   0  0  0  0  0  0  0  0  0  0  0  0
  147.2151   67.7532  218.2994 H   0  0  0  0  0  0  0  0  0  0  0  0
  145.2186   66.5064  219.0022 H   0  0  0  0  0  0  0  0  0  0  0  0
  143.1456   67.6790  219.7022 H   0  0  0  0  0  0  0  0  0  0  0  0
  142.2015   70.6018  218.8827 H   0  0  0  0  0  0  0  0  0  0  0  0
  142.2482   69.7910  220.5010 H   0  0  0  0  0  0  0  0  0  0  0  0
  137.9424   69.8093  223.1181 H   0  0  0  0  0  0  0  0  0  0  0  0
  137.8451   70.3659  224.8442 H   0  0  0  0  0  0  0  0  0  0  0  0
  138.7931   67.7580  223.7072 H   0  0  0  0  0  0  0  0  0  0  0  0
  137.6729   68.1313  225.1024 H   0  0  0  0  0  0  0  0  0  0  0  0
  1  2  1  0
  2  3  1  0
  3  4  1  0
  4  5  1  0
  5  6  1  0
  6  7  1  0
  7  8  2  0
  8  9  1  0
  9 10  1  0
 10 11  1  0
 11 12  1  0
 12 13  2  0
 13 14  1  0
 14 15  2  0
 15 16  1  0
 16 17  2  0
  9 18  2  0
 18 19  1  0
 19 20  1  0
 20 21  1  0
 21 22  1  0
 22 23  1  0
 23 24  2  0
 24 25  1  0
 25 26  2  0
 26 27  1  0
 27 28  2  0
 28 29  1  0
 19 30  2  0
  5 31  1  0
 31 32  1  0
 32  2  1  0
 30  7  1  0
 17 12  1  0
 29 20  1  0
 28 23  1  0
  1 33  1  0
  1 34  1  0
  2 35  1  6
  3 36  1  0
  3 37  1  0
  4 38  1  0
  4 39  1  0
  5 40  1  6
  6 41  1  0
 10 42  1  0
 11 43  1  0
 11 44  1  0
 13 45  1  0
 14 46  1  0
 15 47  1  0
 16 48  1  0
 17 49  1  0
 21 50  1  0
 21 51  1  0
 22 52  1  0
 22 53  1  0
 24 54  1  0
 25 55  1  0
 26 56  1  0
 27 57  1  0
 29 58  1  0
 29 59  1  0
 31 60  1  0
 31 61  1  0
 32 62  1  0
 32 63  1  0
M  END
>  <smiles>  (6) 
NC1CCC(Nc2nc(NCc3ccccc3)nc(N3CCc4ccccc4C3)n2)CC1

>  <score_type>  (6) 
oracle

>  <origin>  (6) 
autodockgpu

>  <m_score__min__energy>  (6) 
-9.7599999999999998

>  <m_primary>  (6) 
energy

>  <rmsd>  (6) 
8.148274521428839

>  <m_score__min__rmsd>  (6) 
8.148274521428839

>  <meeko>  (6) 
{"free_energy": -9.52, "intermolecular_energy": -11.61, "internal_energy": -0.86, "cluster_size": 12, "cluster_id": 3, "rank_in_cluster": 6}

>  <energy>  (6) 
-9.61

>  <cluster_rmsd>  (6) 
1.05

>  <cluster>  (6) 
1

$$$$

     RDKit          3D

 63 67  0  0  0  0  0  0  0  0999 V2000
  146.2760   73.7480  219.7520 N   0  0  0  0  0  0  0  0  0  0  0  0
  145.1470   73.0600  219.1060 C   0  0  2  0  0  0  0  0  0  0  0  0
  144.1870   74.1300  218.7090 C   0  0  0  0  0  0  0  0  0  0  0  0
  142.8310   73.6350  218.2730 C   0  0  0  0  0  0  0  0  0  0  0  0
  142.4490   72.3360  218.8950 C   0  0  2  0  0  0  0  0  0  0  0  0
  141.0190   72.3430  219.1370 N   0  0  0  0  0  0  0  0  0  0  0  0
  140.5340   72.9170  220.3410 C   0  0  0  0  0  0  0  0  0  0  0  0
  140.0840   72.1480  221.3350 N   0  0  0  0  0  0  0  0  0  0  0  0
  139.6150   72.6780  222.4940 C   0  0  0  0  0  0  0  0  0  0  0  0
  139.1670   71.7420  223.4680 N   0  0  0  0  0  0  0  0  0  0  0  0
  139.9630   70.6210  223.9230 C   0  0  0  0  0  0  0  0  0  0  0  0
  140.2580   70.7390  225.3890 C   0  0  0  0  0  0  0  0  0  0  0  0
  139.9290   69.7410  226.2860 C   0  0  0  0  0  0  0  0  0  0  0  0
  140.2290   69.9090  227.6280 C   0  0  0  0  0  0  0  0  0  0  0  0
  140.8540   71.0590  228.0980 C   0  0  0  0  0  0  0  0  0  0  0  0
  141.1850   72.0580  227.2050 C   0  0  0  0  0  0  0  0  0  0  0  0
  140.8870   71.8910  225.8690 C   0  0  0  0  0  0  0  0  0  0  0  0
  139.5880   74.0080  222.6820 N   0  0  0  0  0  0  0  0  0  0  0  0
  140.0430   74.7750  221.6760 C   0  0  0  0  0  0  0  0  0  0  0  0
  140.0130   76.1830  221.8780 N   0  0  0  0  0  0  0  0  0  0  0  0
  138.8100   76.8100  222.3840 C   0  0  0  0  0  0  0  0  0  0  0  0
  138.6850   78.1600  221.6660 C   0  0  0  0  0  0  0  0  0  0  0  0
  139.8540   78.9560  222.1530 C   0  0  0  0  0  0  0  0  0  0  0  0
  139.6670   80.2400  222.6310 C   0  0  0  0  0  0  0  0  0  0  0  0
  140.7970   80.9130  223.0650 C   0  0  0  0  0  0  0  0  0  0  0  0
  142.0390   80.3160  223.0140 C   0  0  0  0  0  0  0  0  0  0  0  0
  142.2130   79.0320  222.5350 C   0  0  0  0  0  0  0  0  0  0  0  0
  141.0920   78.3460  222.0980 C   0  0  0  0  0  0  0  0  0  0  0  0
  141.1990   76.9610  221.5690 C   0  0  0  0  0  0  0  0  0  0  0  0
  140.5060   74.2490  220.5290 N   0  0  0  0  0  0  0  0  0  0  0  0
  143.1230   72.0950  220.2270 C   0  0  0  0  0  0  0  0  0  0  0  0
  144.6260   72.0940  220.1100 C   0  0  0  0  0  0  0  0  0  0  0  0
  146.9230   74.0790  219.0000 H   0  0  0  0  0  0  0  0  0  0  0  0
  145.8550   74.6390  220.1480 H   0  0  0  0  0  0  0  0  0  0  0  0
  145.3896   72.4869  218.1989 H   0  0  0  0  0  0  0  0  0  0  0  0
  144.6295   74.6941  217.8748 H   0  0  0  0  0  0  0  0  0  0  0  0
  144.0183   74.7425  219.6070 H   0  0  0  0  0  0  0  0  0  0  0  0
  142.8401   73.5094  217.1802 H   0  0  0  0  0  0  0  0  0  0  0  0
  142.0918   74.3817  218.5986 H   0  0  0  0  0  0  0  0  0  0  0  0
  142.7625   71.5440  218.1990 H   0  0  0  0  0  0  0  0  0  0  0  0
  140.3180   71.9450  218.4630 H   0  0  0  0  0  0  0  0  0  0  0  0
  138.1960   71.9160  223.8500 H   0  0  0  0  0  0  0  0  0  0  0  0
  139.4100   69.6879  223.7402 H   0  0  0  0  0  0  0  0  0  0  0  0
  140.9143   70.6161  223.3707 H   0  0  0  0  0  0  0  0  0  0  0  0
  139.4339   68.8224  225.9381 H   0  0  0  0  0  0  0  0  0  0  0  0
  139.9662   69.1126  228.3398 H   0  0  0  0  0  0  0  0  0  0  0  0
  141.0818   71.1711  229.1683 H   0  0  0  0  0  0  0  0  0  0  0  0
  141.6803   72.9759  227.5546 H   0  0  0  0  0  0  0  0  0  0  0  0
  141.1524   72.6887  225.1596 H   0  0  0  0  0  0  0  0  0  0  0  0
  137.9339   76.1816  222.1662 H   0  0  0  0  0  0  0  0  0  0  0  0
  138.8606   76.9436  223.4747 H   0  0  0  0  0  0  0  0  0  0  0  0
  138.7339   78.0258  220.5753 H   0  0  0  0  0  0  0  0  0  0  0  0
  137.7260   78.6565  221.8752 H   0  0  0  0  0  0  0  0  0  0  0  0
  138.6702   80.7039  222.6649 H   0  0  0  0  0  0  0  0  0  0  0  0
  140.7025   81.9370  223.4554 H   0  0  0  0  0  0  0  0  0  0  0  0
  142.9167   80.8786  223.3650 H   0  0  0  0  0  0  0  0  0  0  0  0
  143.2103   78.5691  222.5017 H   0  0  0  0  0  0  0  0  0  0  0  0
  141.3246   77.0037  220.4770 H   0  0  0  0  0  0  0  0  0  0  0  0
  142.0648   76.4753  222.0428 H   0  0  0  0  0  0  0  0  0  0  0  0
  142.7970   71.1200  220.6182 H   0  0  0  0  0  0  0  0  0  0  0  0
  142.8365   72.9128  220.9045 H   0  0  0  0  0  0  0  0  0  0  0  0
  144.9515   71.0836  219.8216 H   0  0  0  0  0  0  0  0  0  0  0  0
  145.0254   72.3996  221.0883 H   0  0  0  0  0  0  0  0  0  0  0  0
  1  2  1  0
  2  3  1  0
  3  4  1  0
  4  5  1  0
  5  6  1  0
  6  7  1  0
  7  8  2  0
  8  9  1  0
  9 10  1  0
 10 11  1  0
 11 12  1  0
 12 13  2  0
 13 14  1  0
 14 15  2  0
 15 16  1  0
 16 17  2  0
  9 18  2  0
 18 19  1  0
 19 20  1  0
 20 21  1  0
 21 22  1  0
 22 23  1  0
 23 24  2  0
 24 25  1  0
 25 26  2  0
 26 27  1  0
 27 28  2  0
 28 29  1  0
 19 30  2  0
  5 31  1  0
 31 32  1  0
 32  2  1  0
 30  7  1  0
 17 12  1  0
 29 20  1  0
 28 23  1  0
  1 33  1  0
  1 34  1  0
  2 35  1  6
  3 36  1  0
  3 37  1  0
  4 38  1  0
  4 39  1  0
  5 40  1  6
  6 41  1  0
 10 42  1  0
 11 43  1  0
 11 44  1  0
 13 45  1  0
 14 46  1  0
 15 47  1  0
 16 48  1  0
 17 49  1  0
 21 50  1  0
 21 51  1  0
 22 52  1  0
 22 53  1  0
 24 54  1  0
 25 55  1  0
 26 56  1  0
 27 57  1  0
 29 58  1  0
 29 59  1  0
 31 60  1  0
 31 61  1  0
 32 62  1  0
 32 63  1  0
M  END
>  <smiles>  (7) 
NC1CCC(Nc2nc(NCc3ccccc3)nc(N3CCc4ccccc4C3)n2)CC1

>  <score_type>  (7) 
oracle

>  <origin>  (7) 
autodockgpu

>  <m_score__min__energy>  (7) 
-9.7599999999999998

>  <m_primary>  (7) 
energy

>  <rmsd>  (7) 
10.08778570075476

>  <m_score__min__rmsd>  (7) 
10.08778570075476

>  <meeko>  (7) 
{"free_energy": -9.36, "intermolecular_energy": -11.45, "internal_energy": -1.18, "cluster_size": 15, "cluster_id": 1, "rank_in_cluster": 11}

>  <energy>  (7) 
-9.57

>  <cluster_rmsd>  (7) 
1.07

>  <cluster>  (7) 
1

$$$$

     RDKit          3D

 63 67  0  0  0  0  0  0  0  0999 V2000
  146.3910   73.4700  217.8570 N   0  0  0  0  0  0  0  0  0  0  0  0
  145.2540   73.0520  218.6930 C   0  0  2  0  0  0  0  0  0  0  0  0
  144.0660   73.7820  218.1660 C   0  0  0  0  0  0  0  0  0  0  0  0
  142.8400   73.7160  219.0430 C   0  0  0  0  0  0  0  0  0  0  0  0
  143.1580   73.5360  220.4870 C   0  0  2  0  0  0  0  0  0  0  0  0
  142.1820   74.2730  221.2680 N   0  0  0  0  0  0  0  0  0  0  0  0
  140.9730   73.6250  221.6350 C   0  0  0  0  0  0  0  0  0  0  0  0
  139.8240   73.9220  221.0270 N   0  0  0  0  0  0  0  0  0  0  0  0
  138.6570   73.3140  221.3650 C   0  0  0  0  0  0  0  0  0  0  0  0
  137.5070   73.7270  220.6340 N   0  0  0  0  0  0  0  0  0  0  0  0
  137.2890   75.0890  220.1920 C   0  0  0  0  0  0  0  0  0  0  0  0
  138.0680   76.0530  221.0370 C   0  0  0  0  0  0  0  0  0  0  0  0
  137.6880   76.3710  222.3270 C   0  0  0  0  0  0  0  0  0  0  0  0
  138.4500   77.2690  223.0570 C   0  0  0  0  0  0  0  0  0  0  0  0
  139.5900   77.8610  222.5250 C   0  0  0  0  0  0  0  0  0  0  0  0
  139.9730   77.5460  221.2360 C   0  0  0  0  0  0  0  0  0  0  0  0
  139.2140   76.6520  220.5090 C   0  0  0  0  0  0  0  0  0  0  0  0
  138.6200   72.3840  222.3330 N   0  0  0  0  0  0  0  0  0  0  0  0
  139.7830   72.0910  222.9400 C   0  0  0  0  0  0  0  0  0  0  0  0
  139.7410   71.1050  223.9650 N   0  0  0  0  0  0  0  0  0  0  0  0
  139.4950   69.7210  223.6200 C   0  0  0  0  0  0  0  0  0  0  0  0
  138.6230   69.1380  224.7400 C   0  0  0  0  0  0  0  0  0  0  0  0
  139.5030   69.1570  225.9510 C   0  0  0  0  0  0  0  0  0  0  0  0
  139.6380   68.0210  226.7260 C   0  0  0  0  0  0  0  0  0  0  0  0
  140.4690   68.1170  227.8300 C   0  0  0  0  0  0  0  0  0  0  0  0
  141.1220   69.2960  228.1240 C   0  0  0  0  0  0  0  0  0  0  0  0
  140.9790   70.4240  227.3400 C   0  0  0  0  0  0  0  0  0  0  0  0
  140.1510   70.3440  226.2330 C   0  0  0  0  0  0  0  0  0  0  0  0
  139.9470   71.5160  225.3420 C   0  0  0  0  0  0  0  0  0  0  0  0
  140.9370   72.6940  222.6060 N   0  0  0  0  0  0  0  0  0  0  0  0
  144.5220   74.0670  220.8650 C   0  0  0  0  0  0  0  0  0  0  0  0
  145.6270   73.3940  220.0930 C   0  0  0  0  0  0  0  0  0  0  0  0
  146.0730   74.2690  217.2620 H   0  0  0  0  0  0  0  0  0  0  0  0
  147.0780   73.9070  218.5400 H   0  0  0  0  0  0  0  0  0  0  0  0
  145.0123   71.9791  218.6728 H   0  0  0  0  0  0  0  0  0  0  0  0
  143.8087   73.3537  217.1860 H   0  0  0  0  0  0  0  0  0  0  0  0
  144.3528   74.8428  218.1156 H   0  0  0  0  0  0  0  0  0  0  0  0
  142.2202   72.8690  218.7137 H   0  0  0  0  0  0  0  0  0  0  0  0
  142.3150   74.6774  218.9422 H   0  0  0  0  0  0  0  0  0  0  0  0
  143.1401   72.4545  220.6870 H   0  0  0  0  0  0  0  0  0  0  0  0
  142.3240   75.2660  221.5800 H   0  0  0  0  0  0  0  0  0  0  0  0
  136.8040   72.9640  220.4270 H   0  0  0  0  0  0  0  0  0  0  0  0
  137.6118   75.1846  219.1448 H   0  0  0  0  0  0  0  0  0  0  0  0
  136.2183   75.3233  220.2849 H   0  0  0  0  0  0  0  0  0  0  0  0
  136.7898   75.9159  222.7698 H   0  0  0  0  0  0  0  0  0  0  0  0
  138.1452   77.5199  224.0837 H   0  0  0  0  0  0  0  0  0  0  0  0
  140.1795   78.5714  223.1232 H   0  0  0  0  0  0  0  0  0  0  0  0
  140.8715   78.0019  220.7946 H   0  0  0  0  0  0  0  0  0  0  0  0
  139.5208   76.4034  219.4823 H   0  0  0  0  0  0  0  0  0  0  0  0
  138.9677   69.6580  222.6567 H   0  0  0  0  0  0  0  0  0  0  0  0
  140.4380   69.1634  223.5206 H   0  0  0  0  0  0  0  0  0  0  0  0
  137.7291   69.7589  224.8995 H   0  0  0  0  0  0  0  0  0  0  0  0
  138.2602   68.1269  224.5033 H   0  0  0  0  0  0  0  0  0  0  0  0
  139.1119   67.0872  226.4786 H   0  0  0  0  0  0  0  0  0  0  0  0
  140.6101   67.2415  228.4809 H   0  0  0  0  0  0  0  0  0  0  0  0
  141.7752   69.3390  229.0080 H   0  0  0  0  0  0  0  0  0  0  0  0
  141.5065   71.3570  227.5873 H   0  0  0  0  0  0  0  0  0  0  0  0
  139.0644   72.0763  225.6841 H   0  0  0  0  0  0  0  0  0  0  0  0
  140.8489   72.1443  225.3845 H   0  0  0  0  0  0  0  0  0  0  0  0
  144.6843   73.8948  221.9393 H   0  0  0  0  0  0  0  0  0  0  0  0
  144.5460   75.1401  220.6243 H   0  0  0  0  0  0  0  0  0  0  0  0
  145.9014   72.4661  220.6162 H   0  0  0  0  0  0  0  0  0  0  0  0
  146.4629   74.1070  220.0388 H   0  0  0  0  0  0  0  0  0  0  0  0
  1  2  1  0
  2  3  1  0
  3  4  1  0
  4  5  1  0
  5  6  1  0
  6  7  1  0
  7  8  2  0
  8  9  1  0
  9 10  1  0
 10 11  1  0
 11 12  1  0
 12 13  2  0
 13 14  1  0
 14 15  2  0
 15 16  1  0
 16 17  2  0
  9 18  2  0
 18 19  1  0
 19 20  1  0
 20 21  1  0
 21 22  1  0
 22 23  1  0
 23 24  2  0
 24 25  1  0
 25 26  2  0
 26 27  1  0
 27 28  2  0
 28 29  1  0
 19 30  2  0
  5 31  1  0
 31 32  1  0
 32  2  1  0
 30  7  1  0
 17 12  1  0
 29 20  1  0
 28 23  1  0
  1 33  1  0
  1 34  1  0
  2 35  1  1
  3 36  1  0
  3 37  1  0
  4 38  1  0
  4 39  1  0
  5 40  1  1
  6 41  1  0
 10 42  1  0
 11 43  1  0
 11 44  1  0
 13 45  1  0
 14 46  1  0
 15 47  1  0
 16 48  1  0
 17 49  1  0
 21 50  1  0
 21 51  1  0
 22 52  1  0
 22 53  1  0
 24 54  1  0
 25 55  1  0
 26 56  1  0
 27 57  1  0
 29 58  1  0
 29 59  1  0
 31 60  1  0
 31 61  1  0
 32 62  1  0
 32 63  1  0
M  END
>  <smiles>  (8) 
NC1CCC(Nc2nc(NCc3ccccc3)nc(N3CCc4ccccc4C3)n2)CC1

>  <score_type>  (8) 
oracle

>  <origin>  (8) 
autodockgpu

>  <m_score__min__energy>  (8) 
-9.7599999999999998

>  <m_primary>  (8) 
energy

>  <rmsd>  (8) 
3.92379865342287

>  <m_score__min__rmsd>  (8) 
3.92379865342287

>  <meeko>  (8) 
{"free_energy": -8.51, "intermolecular_energy": -10.6, "internal_energy": -1.15, "cluster_size": 2, "cluster_id": 6, "rank_in_cluster": 2}

>  <energy>  (8) 
-9.53

>  <cluster_rmsd>  (8) 
0.83

>  <cluster>  (8) 
1

$$$$

     RDKit          3D

 63 67  0  0  0  0  0  0  0  0999 V2000
  139.5950   68.5970  227.4610 N   0  0  0  0  0  0  0  0  0  0  0  0
  139.8810   69.0380  226.0870 C   0  0  2  0  0  0  0  0  0  0  0  0
  140.5780   70.3510  226.2130 C   0  0  0  0  0  0  0  0  0  0  0  0
  140.7240   71.1170  224.9220 C   0  0  0  0  0  0  0  0  0  0  0  0
  139.6540   70.8140  223.9320 C   0  0  2  0  0  0  0  0  0  0  0  0
  139.3460   72.0270  223.1990 N   0  0  0  0  0  0  0  0  0  0  0  0
  140.3680   72.6320  222.4210 C   0  0  0  0  0  0  0  0  0  0  0  0
  140.4380   73.9580  222.2930 N   0  0  0  0  0  0  0  0  0  0  0  0
  141.4080   74.5550  221.5520 C   0  0  0  0  0  0  0  0  0  0  0  0
  141.3640   75.9770  221.5030 N   0  0  0  0  0  0  0  0  0  0  0  0
  140.1840   76.7510  221.8250 C   0  0  0  0  0  0  0  0  0  0  0  0
  140.5630   78.0850  222.3960 C   0  0  0  0  0  0  0  0  0  0  0  0
  141.8300   78.6150  222.2460 C   0  0  0  0  0  0  0  0  0  0  0  0
  142.1180   79.8530  222.7970 C   0  0  0  0  0  0  0  0  0  0  0  0
  141.1630   80.5800  223.4990 C   0  0  0  0  0  0  0  0  0  0  0  0
  139.8950   80.0550  223.6500 C   0  0  0  0  0  0  0  0  0  0  0  0
  139.6080   78.8220  223.1020 C   0  0  0  0  0  0  0  0  0  0  0  0
  142.3380   73.8230  220.9170 N   0  0  0  0  0  0  0  0  0  0  0  0
  142.2590   72.4880  221.0520 C   0  0  0  0  0  0  0  0  0  0  0  0
  143.2450   71.7160  220.3770 N   0  0  0  0  0  0  0  0  0  0  0  0
  144.5940   72.2270  220.2500 C   0  0  0  0  0  0  0  0  0  0  0  0
  145.0960   71.7990  218.8650 C   0  0  0  0  0  0  0  0  0  0  0  0
  145.1780   70.3070  218.9380 C   0  0  0  0  0  0  0  0  0  0  0  0
  146.3290   69.6570  218.5350 C   0  0  0  0  0  0  0  0  0  0  0  0
  146.3310   68.2760  218.6330 C   0  0  0  0  0  0  0  0  0  0  0  0
  145.2270   67.5990  219.1100 C   0  0  0  0  0  0  0  0  0  0  0  0
  144.0830   68.2610  219.5100 C   0  0  0  0  0  0  0  0  0  0  0  0
  144.0670   69.6430  219.4180 C   0  0  0  0  0  0  0  0  0  0  0  0
  142.8710   70.4240  219.8290 C   0  0  0  0  0  0  0  0  0  0  0  0
  141.2990   71.8990  221.7840 N   0  0  0  0  0  0  0  0  0  0  0  0
  138.3680   70.3430  224.5730 C   0  0  0  0  0  0  0  0  0  0  0  0
  138.5660   69.0940  225.3920 C   0  0  0  0  0  0  0  0  0  0  0  0
  140.3390   68.9870  228.0840 H   0  0  0  0  0  0  0  0  0  0  0  0
  138.7180   69.1290  227.7350 H   0  0  0  0  0  0  0  0  0  0  0  0
  140.5338   68.3774  225.4975 H   0  0  0  0  0  0  0  0  0  0  0  0
  141.5844   70.1666  226.6170 H   0  0  0  0  0  0  0  0  0  0  0  0
  139.9524   70.9713  226.8716 H   0  0  0  0  0  0  0  0  0  0  0  0
  141.6960   70.8634  224.4738 H   0  0  0  0  0  0  0  0  0  0  0  0
  140.6466   72.1864  225.1677 H   0  0  0  0  0  0  0  0  0  0  0  0
  140.0346   70.0085  223.2868 H   0  0  0  0  0  0  0  0  0  0  0  0
  138.4000   72.4850  223.2130 H   0  0  0  0  0  0  0  0  0  0  0  0
  142.2650   76.4480  221.2090 H   0  0  0  0  0  0  0  0  0  0  0  0
  139.5927   76.9048  220.9103 H   0  0  0  0  0  0  0  0  0  0  0  0
  139.5945   76.2012  222.5734 H   0  0  0  0  0  0  0  0  0  0  0  0
  142.6027   78.0594  221.6944 H   0  0  0  0  0  0  0  0  0  0  0  0
  143.1280   80.2716  222.6761 H   0  0  0  0  0  0  0  0  0  0  0  0
  141.4145   81.5609  223.9286 H   0  0  0  0  0  0  0  0  0  0  0  0
  139.1232   80.6130  224.2004 H   0  0  0  0  0  0  0  0  0  0  0  0
  138.5970   78.4062  223.2244 H   0  0  0  0  0  0  0  0  0  0  0  0
  144.5936   73.3240  220.3313 H   0  0  0  0  0  0  0  0  0  0  0  0
  145.2436   71.8345  221.0462 H   0  0  0  0  0  0  0  0  0  0  0  0
  144.3891   72.1113  218.0821 H   0  0  0  0  0  0  0  0  0  0  0  0
  146.0629   72.2581  218.6115 H   0  0  0  0  0  0  0  0  0  0  0  0
  147.2008   70.2097  218.1550 H   0  0  0  0  0  0  0  0  0  0  0  0
  147.2239   67.7112  218.3268 H   0  0  0  0  0  0  0  0  0  0  0  0
  145.2592   66.5013  219.1734 H   0  0  0  0  0  0  0  0  0  0  0  0
  143.2114   67.7079  219.8899 H   0  0  0  0  0  0  0  0  0  0  0  0
  142.2266   70.5804  218.9513 H   0  0  0  0  0  0  0  0  0  0  0  0
  142.3388   69.8583  220.6079 H   0  0  0  0  0  0  0  0  0  0  0  0
  137.6328   70.1351  223.7816 H   0  0  0  0  0  0  0  0  0  0  0  0
  138.0155   71.1373  225.2473 H   0  0  0  0  0  0  0  0  0  0  0  0
  138.4891   68.2241  224.7232 H   0  0  0  0  0  0  0  0  0  0  0  0
  137.7896   69.0934  226.1712 H   0  0  0  0  0  0  0  0  0  0  0  0
  1  2  1  0
  2  3  1  0
  3  4  1  0
  4  5  1  0
  5  6  1  0
  6  7  1  0
  7  8  2  0
  8  9  1  0
  9 10  1  0
 10 11  1  0
 11 12  1  0
 12 13  2  0
 13 14  1  0
 14 15  2  0
 15 16  1  0
 16 17  2  0
  9 18  2  0
 18 19  1  0
 19 20  1  0
 20 21  1  0
 21 22  1  0
 22 23  1  0
 23 24  2  0
 24 25  1  0
 25 26  2  0
 26 27  1  0
 27 28  2  0
 28 29  1  0
 19 30  2  0
  5 31  1  0
 31 32  1  0
 32  2  1  0
 30  7  1  0
 17 12  1  0
 29 20  1  0
 28 23  1  0
  1 33  1  0
  1 34  1  0
  2 35  1  6
  3 36  1  0
  3 37  1  0
  4 38  1  0
  4 39  1  0
  5 40  1  6
  6 41  1  0
 10 42  1  0
 11 43  1  0
 11 44  1  0
 13 45  1  0
 14 46  1  0
 15 47  1  0
 16 48  1  0
 17 49  1  0
 21 50  1  0
 21 51  1  0
 22 52  1  0
 22 53  1  0
 24 54  1  0
 25 55  1  0
 26 56  1  0
 27 57  1  0
 29 58  1  0
 29 59  1  0
 31 60  1  0
 31 61  1  0
 32 62  1  0
 32 63  1  0
M  END
>  <smiles>  (9) 
NC1CCC(Nc2nc(NCc3ccccc3)nc(N3CCc4ccccc4C3)n2)CC1

>  <score_type>  (9) 
oracle

>  <origin>  (9) 
autodockgpu

>  <m_score__min__energy>  (9) 
-9.7599999999999998

>  <m_primary>  (9) 
energy

>  <rmsd>  (9) 
8.18764920916236

>  <m_score__min__rmsd>  (9) 
8.18764920916236

>  <meeko>  (9) 
{"free_energy": -9.14, "intermolecular_energy": -11.23, "internal_energy": -0.86, "cluster_size": 12, "cluster_id": 3, "rank_in_cluster": 8}

>  <energy>  (9) 
-9.47

>  <cluster_rmsd>  (9) 
1.42

>  <cluster>  (9) 
1

$$$$

     RDKit          3D

 63 67  0  0  0  0  0  0  0  0999 V2000
  146.3310   73.4010  219.0500 N   0  0  0  0  0  0  0  0  0  0  0  0
  145.0460   72.8070  218.6490 C   0  0  2  0  0  0  0  0  0  0  0  0
  144.3340   73.8570  217.8650 C   0  0  0  0  0  0  0  0  0  0  0  0
  142.8820   73.5630  217.5840 C   0  0  0  0  0  0  0  0  0  0  0  0
  142.2470   72.6920  218.6120 C   0  0  2  0  0  0  0  0  0  0  0  0
  140.8690   73.1100  218.7830 N   0  0  0  0  0  0  0  0  0  0  0  0
  140.4510   73.5750  220.0580 C   0  0  0  0  0  0  0  0  0  0  0  0
  139.9910   72.7280  220.9810 N   0  0  0  0  0  0  0  0  0  0  0  0
  139.5870   73.1540  222.2050 C   0  0  0  0  0  0  0  0  0  0  0  0
  139.1200   72.1420  223.0910 N   0  0  0  0  0  0  0  0  0  0  0  0
  139.8960   70.9730  223.4470 C   0  0  0  0  0  0  0  0  0  0  0  0
  140.1320   70.9230  224.9280 C   0  0  0  0  0  0  0  0  0  0  0  0
  140.9080   71.8620  225.5790 C   0  0  0  0  0  0  0  0  0  0  0  0
  141.0880   71.7620  226.9490 C   0  0  0  0  0  0  0  0  0  0  0  0
  140.5080   70.7370  227.6890 C   0  0  0  0  0  0  0  0  0  0  0  0
  139.7320   69.7960  227.0410 C   0  0  0  0  0  0  0  0  0  0  0  0
  139.5520   69.8960  225.6780 C   0  0  0  0  0  0  0  0  0  0  0  0
  139.6350   74.4560  222.5330 N   0  0  0  0  0  0  0  0  0  0  0  0
  140.1000   75.3020  221.5970 C   0  0  0  0  0  0  0  0  0  0  0  0
  140.1500   76.6800  221.9470 N   0  0  0  0  0  0  0  0  0  0  0  0
  139.0360   77.2850  222.6450 C   0  0  0  0  0  0  0  0  0  0  0  0
  138.8900   78.7080  222.0910 C   0  0  0  0  0  0  0  0  0  0  0  0
  140.1380   79.4110  222.5250 C   0  0  0  0  0  0  0  0  0  0  0  0
  140.0560   80.6400  223.1520 C   0  0  0  0  0  0  0  0  0  0  0  0
  141.2530   81.2290  223.5250 C   0  0  0  0  0  0  0  0  0  0  0  0
  142.4570   80.6040  223.2750 C   0  0  0  0  0  0  0  0  0  0  0  0
  142.5250   79.3750  222.6490 C   0  0  0  0  0  0  0  0  0  0  0  0
  141.3360   78.7730  222.2700 C   0  0  0  0  0  0  0  0  0  0  0  0
  141.3280   77.4520  221.5910 C   0  0  0  0  0  0  0  0  0  0  0  0
  140.4990   74.8800  220.3860 N   0  0  0  0  0  0  0  0  0  0  0  0
  142.9120   72.7890  219.9660 C   0  0  0  0  0  0  0  0  0  0  0  0
  144.3690   72.4030  219.9120 C   0  0  0  0  0  0  0  0  0  0  0  0
  146.7090   73.9280  218.2300 H   0  0  0  0  0  0  0  0  0  0  0  0
  146.0690   74.1550  219.7500 H   0  0  0  0  0  0  0  0  0  0  0  0
  145.1089   71.9122  218.0123 H   0  0  0  0  0  0  0  0  0  0  0  0
  144.8517   73.9743  216.9016 H   0  0  0  0  0  0  0  0  0  0  0  0
  144.3511   74.7678  218.4816 H   0  0  0  0  0  0  0  0  0  0  0  0
  142.8101   73.0605  216.6081 H   0  0  0  0  0  0  0  0  0  0  0  0
  142.3470   74.5241  217.5961 H   0  0  0  0  0  0  0  0  0  0  0  0
  142.3399   71.6559  218.2544 H   0  0  0  0  0  0  0  0  0  0  0  0
  140.1590   73.0890  218.0090 H   0  0  0  0  0  0  0  0  0  0  0  0
  138.1490   72.2970  223.4840 H   0  0  0  0  0  0  0  0  0  0  0  0
  139.3501   70.0695  223.1378 H   0  0  0  0  0  0  0  0  0  0  0  0
  140.8686   71.0254  222.9358 H   0  0  0  0  0  0  0  0  0  0  0  0
  141.3784   72.6811  225.0153 H   0  0  0  0  0  0  0  0  0  0  0  0
  141.7053   72.5123  227.4647 H   0  0  0  0  0  0  0  0  0  0  0  0
  140.6653   70.6766  228.7760 H   0  0  0  0  0  0  0  0  0  0  0  0
  139.2633   68.9766  227.6057 H   0  0  0  0  0  0  0  0  0  0  0  0
  138.9333   69.1449  225.1651 H   0  0  0  0  0  0  0  0  0  0  0  0
  138.1162   76.7103  222.4614 H   0  0  0  0  0  0  0  0  0  0  0  0
  139.2097   77.2988  223.7311 H   0  0  0  0  0  0  0  0  0  0  0  0
  138.8148   78.6919  220.9937 H   0  0  0  0  0  0  0  0  0  0  0  0
  137.9807   79.2073  222.4570 H   0  0  0  0  0  0  0  0  0  0  0  0
  139.0884   81.1262  223.3452 H   0  0  0  0  0  0  0  0  0  0  0  0
  141.2433   82.2077  224.0270 H   0  0  0  0  0  0  0  0  0  0  0  0
  143.3898   81.0988  223.5832 H   0  0  0  0  0  0  0  0  0  0  0  0
  143.4930   78.8891  222.4572 H   0  0  0  0  0  0  0  0  0  0  0  0
  141.3373   77.6092  220.5023 H   0  0  0  0  0  0  0  0  0  0  0  0
  142.2188   76.8923  221.9123 H   0  0  0  0  0  0  0  0  0  0  0  0
  142.3928   72.1169  220.6650 H   0  0  0  0  0  0  0  0  0  0  0  0
  142.8512   73.8357  220.2988 H   0  0  0  0  0  0  0  0  0  0  0  0
  144.4432   71.3101  220.0122 H   0  0  0  0  0  0  0  0  0  0  0  0
  144.8740   72.9335  220.7327 H   0  0  0  0  0  0  0  0  0  0  0  0
  1  2  1  0
  2  3  1  0
  3  4  1  0
  4  5  1  0
  5  6  1  0
  6  7  1  0
  7  8  2  0
  8  9  1  0
  9 10  1  0
 10 11  1  0
 11 12  1  0
 12 13  2  0
 13 14  1  0
 14 15  2  0
 15 16  1  0
 16 17  2  0
  9 18  2  0
 18 19  1  0
 19 20  1  0
 20 21  1  0
 21 22  1  0
 22 23  1  0
 23 24  2  0
 24 25  1  0
 25 26  2  0
 26 27  1  0
 27 28  2  0
 28 29  1  0
 19 30  2  0
  5 31  1  0
 31 32  1  0
 32  2  1  0
 30  7  1  0
 17 12  1  0
 29 20  1  0
 28 23  1  0
  1 33  1  0
  1 34  1  0
  2 35  1  6
  3 36  1  0
  3 37  1  0
  4 38  1  0
  4 39  1  0
  5 40  1  6
  6 41  1  0
 10 42  1  0
 11 43  1  0
 11 44  1  0
 13 45  1  0
 14 46  1  0
 15 47  1  0
 16 48  1  0
 17 49  1  0
 21 50  1  0
 21 51  1  0
 22 52  1  0
 22 53  1  0
 24 54  1  0
 25 55  1  0
 26 56  1  0
 27 57  1  0
 29 58  1  0
 29 59  1  0
 31 60  1  0
 31 61  1  0
 32 62  1  0
 32 63  1  0
M  END
>  <smiles>  (10) 
NC1CCC(Nc2nc(NCc3ccccc3)nc(N3CCc4ccccc4C3)n2)CC1

>  <score_type>  (10) 
oracle

>  <origin>  (10) 
autodockgpu

>  <m_score__min__energy>  (10) 
-9.7599999999999998

>  <m_primary>  (10) 
energy

>  <rmsd>  (10) 
10.355765081625428

>  <m_score__min__rmsd>  (10) 
10.355765081625428

>  <meeko>  (10) 
{"free_energy": -9.76, "intermolecular_energy": -11.85, "internal_energy": -1.06, "cluster_size": 15, "cluster_id": 1, "rank_in_cluster": 1}

>  <energy>  (10) 
-9.44

>  <cluster_rmsd>  (10) 
0.89

>  <cluster>  (10) 
1

$$$$

     RDKit          3D

 63 67  0  0  0  0  0  0  0  0999 V2000
  133.9290   74.3760  226.4900 N   0  0  0  0  0  0  0  0  0  0  0  0
  133.9380   74.4950  225.0230 C   0  0  2  0  0  0  0  0  0  0  0  0
  134.1050   73.1080  224.4990 C   0  0  0  0  0  0  0  0  0  0  0  0
  134.4150   73.0210  223.0250 C   0  0  0  0  0  0  0  0  0  0  0  0
  135.1230   74.2200  222.4990 C   0  0  2  0  0  0  0  0  0  0  0  0
  136.0610   73.7910  221.4790 N   0  0  0  0  0  0  0  0  0  0  0  0
  137.4520   73.9330  221.7290 C   0  0  0  0  0  0  0  0  0  0  0  0
  138.1940   72.8860  222.0930 N   0  0  0  0  0  0  0  0  0  0  0  0
  139.5250   73.0010  222.3370 C   0  0  0  0  0  0  0  0  0  0  0  0
  140.1930   71.8030  222.7170 N   0  0  0  0  0  0  0  0  0  0  0  0
  139.5730   70.7600  223.5060 C   0  0  0  0  0  0  0  0  0  0  0  0
  140.0100   70.8460  224.9390 C   0  0  0  0  0  0  0  0  0  0  0  0
  140.8160   71.8690  225.3990 C   0  0  0  0  0  0  0  0  0  0  0  0
  141.1850   71.8930  226.7340 C   0  0  0  0  0  0  0  0  0  0  0  0
  140.7640   70.9130  227.6270 C   0  0  0  0  0  0  0  0  0  0  0  0
  139.9580   69.8900  227.1700 C   0  0  0  0  0  0  0  0  0  0  0  0
  139.5910   69.8650  225.8410 C   0  0  0  0  0  0  0  0  0  0  0  0
  140.1460   74.1870  222.2190 N   0  0  0  0  0  0  0  0  0  0  0  0
  139.3910   75.2360  221.8510 C   0  0  0  0  0  0  0  0  0  0  0  0
  140.0520   76.4900  221.7270 N   0  0  0  0  0  0  0  0  0  0  0  0
  139.7260   77.3670  220.6220 C   0  0  0  0  0  0  0  0  0  0  0  0
  141.0380   78.0360  220.1920 C   0  0  0  0  0  0  0  0  0  0  0  0
  141.4240   78.8930  221.3570 C   0  0  0  0  0  0  0  0  0  0  0  0
  141.7610   80.2180  221.1600 C   0  0  0  0  0  0  0  0  0  0  0  0
  142.1060   80.9470  222.2860 C   0  0  0  0  0  0  0  0  0  0  0  0
  142.1090   80.3600  223.5350 C   0  0  0  0  0  0  0  0  0  0  0  0
  141.7700   79.0340  223.7180 C   0  0  0  0  0  0  0  0  0  0  0  0
  141.4220   78.2930  222.6010 C   0  0  0  0  0  0  0  0  0  0  0  0
  141.0450   76.8600  222.7190 C   0  0  0  0  0  0  0  0  0  0  0  0
  138.0740   75.1210  221.6110 N   0  0  0  0  0  0  0  0  0  0  0  0
  135.9200   74.9500  223.5560 C   0  0  0  0  0  0  0  0  0  0  0  0
  135.0530   75.4250  224.6940 C   0  0  0  0  0  0  0  0  0  0  0  0
  134.3640   73.4580  226.7390 H   0  0  0  0  0  0  0  0  0  0  0  0
  134.6330   75.0990  226.8200 H   0  0  0  0  0  0  0  0  0  0  0  0
  133.0246   74.9072  224.5693 H   0  0  0  0  0  0  0  0  0  0  0  0
  133.1712   72.5572  224.6853 H   0  0  0  0  0  0  0  0  0  0  0  0
  134.9728   72.6815  225.0234 H   0  0  0  0  0  0  0  0  0  0  0  0
  133.4689   72.9056  222.4758 H   0  0  0  0  0  0  0  0  0  0  0  0
  135.0848   72.1599  222.8839 H   0  0  0  0  0  0  0  0  0  0  0  0
  134.3519   74.9030  222.1131 H   0  0  0  0  0  0  0  0  0  0  0  0
  135.7650   73.3780  220.5600 H   0  0  0  0  0  0  0  0  0  0  0  0
  141.1920   71.7160  222.3810 H   0  0  0  0  0  0  0  0  0  0  0  0
  138.4798   70.8706  223.4549 H   0  0  0  0  0  0  0  0  0  0  0  0
  139.8779   69.7834  223.1020 H   0  0  0  0  0  0  0  0  0  0  0  0
  141.1612   72.6562  224.7126 H   0  0  0  0  0  0  0  0  0  0  0  0
  141.8277   72.7083  227.0974 H   0  0  0  0  0  0  0  0  0  0  0  0
  141.0693   70.9528  228.6830 H   0  0  0  0  0  0  0  0  0  0  0  0
  139.6125   69.1041  227.8577 H   0  0  0  0  0  0  0  0  0  0  0  0
  138.9489   69.0479  225.4802 H   0  0  0  0  0  0  0  0  0  0  0  0
  139.3049   76.7864  219.7880 H   0  0  0  0  0  0  0  0  0  0  0  0
  138.9768   78.1162  220.9177 H   0  0  0  0  0  0  0  0  0  0  0  0
  141.8120   77.2804  219.9924 H   0  0  0  0  0  0  0  0  0  0  0  0
  140.9256   78.6177  219.2652 H   0  0  0  0  0  0  0  0  0  0  0  0
  141.7556   80.6719  220.1580 H   0  0  0  0  0  0  0  0  0  0  0  0
  142.3811   82.0071  222.1834 H   0  0  0  0  0  0  0  0  0  0  0  0
  142.3893   80.9656  224.4095 H   0  0  0  0  0  0  0  0  0  0  0  0
  141.7762   78.5803  224.7200 H   0  0  0  0  0  0  0  0  0  0  0  0
  141.9427   76.2408  222.5750 H   0  0  0  0  0  0  0  0  0  0  0  0
  140.6140   76.6966  223.7178 H   0  0  0  0  0  0  0  0  0  0  0  0
  136.4072   75.8213  223.0939 H   0  0  0  0  0  0  0  0  0  0  0  0
  136.6614   74.2481  223.9656 H   0  0  0  0  0  0  0  0  0  0  0  0
  134.6232   76.3999  224.4202 H   0  0  0  0  0  0  0  0  0  0  0  0
  135.6954   75.4860  225.5849 H   0  0  0  0  0  0  0  0  0  0  0  0
  1  2  1  0
  2  3  1  0
  3  4  1  0
  4  5  1  0
  5  6  1  0
  6  7  1  0
  7  8  2  0
  8  9  1  0
  9 10  1  0
 10 11  1  0
 11 12  1  0
 12 13  2  0
 13 14  1  0
 14 15  2  0
 15 16  1  0
 16 17  2  0
  9 18  2  0
 18 19  1  0
 19 20  1  0
 20 21  1  0
 21 22  1  0
 22 23  1  0
 23 24  2  0
 24 25  1  0
 25 26  2  0
 26 27  1  0
 27 28  2  0
 28 29  1  0
 19 30  2  0
  5 31  1  0
 31 32  1  0
 32  2  1  0
 30  7  1  0
 17 12  1  0
 29 20  1  0
 28 23  1  0
  1 33  1  0
  1 34  1  0
  2 35  1  6
  3 36  1  0
  3 37  1  0
  4 38  1  0
  4 39  1  0
  5 40  1  6
  6 41  1  0
 10 42  1  0
 11 43  1  0
 11 44  1  0
 13 45  1  0
 14 46  1  0
 15 47  1  0
 16 48  1  0
 17 49  1  0
 21 50  1  0
 21 51  1  0
 22 52  1  0
 22 53  1  0
 24 54  1  0
 25 55  1  0
 26 56  1  0
 27 57  1  0
 29 58  1  0
 29 59  1  0
 31 60  1  0
 31 61  1  0
 32 62  1  0
 32 63  1  0
M  END
>  <smiles>  (11) 
NC1CCC(Nc2nc(NCc3ccccc3)nc(N3CCc4ccccc4C3)n2)CC1

>  <score_type>  (11) 
oracle

>  <origin>  (11) 
autodockgpu

>  <m_score__min__energy>  (11) 
-9.7599999999999998

>  <m_primary>  (11) 
energy

>  <rmsd>  (11) 
10.41053336697203

>  <m_score__min__rmsd>  (11) 
10.41053336697203

>  <meeko>  (11) 
{"free_energy": -8.75, "intermolecular_energy": -10.84, "internal_energy": -1.12, "cluster_size": 7, "cluster_id": 7, "rank_in_cluster": 4}

>  <energy>  (11) 
-9.36

>  <cluster_rmsd>  (11) 
0.66

>  <cluster>  (11) 
1

$$$$

     RDKit          3D

 63 67  0  0  0  0  0  0  0  0999 V2000
  139.8470   67.7790  227.5760 N   0  0  0  0  0  0  0  0  0  0  0  0
  140.2790   68.5670  226.4110 C   0  0  2  0  0  0  0  0  0  0  0  0
  140.4000   69.9740  226.8880 C   0  0  0  0  0  0  0  0  0  0  0  0
  140.5670   71.0020  225.7960 C   0  0  0  0  0  0  0  0  0  0  0  0
  139.9560   70.5920  224.5020 C   0  0  2  0  0  0  0  0  0  0  0  0
  139.4170   71.7720  223.8520 N   0  0  0  0  0  0  0  0  0  0  0  0
  140.1910   72.4110  222.8490 C   0  0  0  0  0  0  0  0  0  0  0  0
  139.9460   73.6730  222.4930 N   0  0  0  0  0  0  0  0  0  0  0  0
  140.6760   74.3020  221.5350 C   0  0  0  0  0  0  0  0  0  0  0  0
  140.3060   75.6480  221.2560 N   0  0  0  0  0  0  0  0  0  0  0  0
  141.1920   76.6050  220.6280 C   0  0  0  0  0  0  0  0  0  0  0  0
  141.4430   77.7730  221.5350 C   0  0  0  0  0  0  0  0  0  0  0  0
  141.8770   78.9930  221.0570 C   0  0  0  0  0  0  0  0  0  0  0  0
  142.0900   80.0340  221.9470 C   0  0  0  0  0  0  0  0  0  0  0  0
  141.8770   79.8830  223.3130 C   0  0  0  0  0  0  0  0  0  0  0  0
  141.4420   78.6640  223.7940 C   0  0  0  0  0  0  0  0  0  0  0  0
  141.2300   77.6280  222.9090 C   0  0  0  0  0  0  0  0  0  0  0  0
  141.6780   73.6670  220.9050 N   0  0  0  0  0  0  0  0  0  0  0  0
  141.9180   72.3950  221.2700 C   0  0  0  0  0  0  0  0  0  0  0  0
  142.9800   71.7260  220.6010 N   0  0  0  0  0  0  0  0  0  0  0  0
  144.3110   72.2960  220.6170 C   0  0  0  0  0  0  0  0  0  0  0  0
  144.9240   72.0170  219.2380 C   0  0  0  0  0  0  0  0  0  0  0  0
  145.0660   70.5280  219.1830 C   0  0  0  0  0  0  0  0  0  0  0  0
  146.2690   69.9610  218.8070 C   0  0  0  0  0  0  0  0  0  0  0  0
  146.3230   68.5780  218.7800 C   0  0  0  0  0  0  0  0  0  0  0  0
  145.2200   67.8200  219.1150 C   0  0  0  0  0  0  0  0  0  0  0  0
  144.0230   68.3990  219.4900 C   0  0  0  0  0  0  0  0  0  0  0  0
  143.9540   69.7820  219.5210 C   0  0  0  0  0  0  0  0  0  0  0  0
  142.7010   70.4780  219.9140 C   0  0  0  0  0  0  0  0  0  0  0  0
  141.1950   71.7750  222.2180 N   0  0  0  0  0  0  0  0  0  0  0  0
  138.8130   69.6160  224.6670 C   0  0  0  0  0  0  0  0  0  0  0  0
  139.2450   68.3490  225.3620 C   0  0  0  0  0  0  0  0  0  0  0  0
  139.3800   66.9130  227.2210 H   0  0  0  0  0  0  0  0  0  0  0  0
  140.7500   67.4300  228.0120 H   0  0  0  0  0  0  0  0  0  0  0  0
  141.2493   68.2867  225.9752 H   0  0  0  0  0  0  0  0  0  0  0  0
  141.2746   70.0358  227.5523 H   0  0  0  0  0  0  0  0  0  0  0  0
  139.4523   70.2114  227.3934 H   0  0  0  0  0  0  0  0  0  0  0  0
  141.6423   71.1702  225.6365 H   0  0  0  0  0  0  0  0  0  0  0  0
  140.0489   71.9145  226.1260 H   0  0  0  0  0  0  0  0  0  0  0  0
  140.7479   70.1025  223.9161 H   0  0  0  0  0  0  0  0  0  0  0  0
  138.4780   72.1800  224.0860 H   0  0  0  0  0  0  0  0  0  0  0  0
  139.3230   75.9160  221.5420 H   0  0  0  0  0  0  0  0  0  0  0  0
  142.1493   76.1140  220.3989 H   0  0  0  0  0  0  0  0  0  0  0  0
  140.7189   76.9707  219.7047 H   0  0  0  0  0  0  0  0  0  0  0  0
  142.0521   79.1376  219.9807 H   0  0  0  0  0  0  0  0  0  0  0  0
  142.4365   81.0048  221.5629 H   0  0  0  0  0  0  0  0  0  0  0  0
  142.0527   80.7232  224.0009 H   0  0  0  0  0  0  0  0  0  0  0  0
  141.2666   78.5210  224.8705 H   0  0  0  0  0  0  0  0  0  0  0  0
  140.8829   76.6585  223.2957 H   0  0  0  0  0  0  0  0  0  0  0  0
  144.2576   73.3800  220.7963 H   0  0  0  0  0  0  0  0  0  0  0  0
  144.9216   71.8556  221.4190 H   0  0  0  0  0  0  0  0  0  0  0  0
  144.2587   72.3736  218.4378 H   0  0  0  0  0  0  0  0  0  0  0  0
  145.8848   72.5335  219.0960 H   0  0  0  0  0  0  0  0  0  0  0  0
  147.1403   70.5780  218.5423 H   0  0  0  0  0  0  0  0  0  0  0  0
  147.2575   68.0769  218.4876 H   0  0  0  0  0  0  0  0  0  0  0  0
  145.2958   66.7231  219.0826 H   0  0  0  0  0  0  0  0  0  0  0  0
  143.1524   67.7813  219.7555 H   0  0  0  0  0  0  0  0  0  0  0  0
  142.1117   70.6914  219.0100 H   0  0  0  0  0  0  0  0  0  0  0  0
  142.1425   69.8235  220.5994 H   0  0  0  0  0  0  0  0  0  0  0  0
  138.4199   69.3587  223.6724 H   0  0  0  0  0  0  0  0  0  0  0  0
  138.0432   70.0975  225.2880 H   0  0  0  0  0  0  0  0  0  0  0  0
  139.6545   67.6610  224.6077 H   0  0  0  0  0  0  0  0  0  0  0  0
  138.3571   67.9383  225.8649 H   0  0  0  0  0  0  0  0  0  0  0  0
  1  2  1  0
  2  3  1  0
  3  4  1  0
  4  5  1  0
  5  6  1  0
  6  7  1  0
  7  8  2  0
  8  9  1  0
  9 10  1  0
 10 11  1  0
 11 12  1  0
 12 13  2  0
 13 14  1  0
 14 15  2  0
 15 16  1  0
 16 17  2  0
  9 18  2  0
 18 19  1  0
 19 20  1  0
 20 21  1  0
 21 22  1  0
 22 23  1  0
 23 24  2  0
 24 25  1  0
 25 26  2  0
 26 27  1  0
 27 28  2  0
 28 29  1  0
 19 30  2  0
  5 31  1  0
 31 32  1  0
 32  2  1  0
 30  7  1  0
 17 12  1  0
 29 20  1  0
 28 23  1  0
  1 33  1  0
  1 34  1  0
  2 35  1  6
  3 36  1  0
  3 37  1  0
  4 38  1  0
  4 39  1  0
  5 40  1  6
  6 41  1  0
 10 42  1  0
 11 43  1  0
 11 44  1  0
 13 45  1  0
 14 46  1  0
 15 47  1  0
 16 48  1  0
 17 49  1  0
 21 50  1  0
 21 51  1  0
 22 52  1  0
 22 53  1  0
 24 54  1  0
 25 55  1  0
 26 56  1  0
 27 57  1  0
 29 58  1  0
 29 59  1  0
 31 60  1  0
 31 61  1  0
 32 62  1  0
 32 63  1  0
M  END
>  <smiles>  (12) 
NC1CCC(Nc2nc(NCc3ccccc3)nc(N3CCc4ccccc4C3)n2)CC1

>  <score_type>  (12) 
oracle

>  <origin>  (12) 
autodockgpu

>  <m_score__min__energy>  (12) 
-9.7599999999999998

>  <m_primary>  (12) 
energy

>  <rmsd>  (12) 
7.974471988273372

>  <m_score__min__rmsd>  (12) 
7.974471988273372

>  <meeko>  (12) 
{"free_energy": -9.68, "intermolecular_energy": -11.77, "internal_energy": -0.92, "cluster_size": 12, "cluster_id": 3, "rank_in_cluster": 1}

>  <energy>  (12) 
-9.31

>  <cluster_rmsd>  (12) 
1.36

>  <cluster>  (12) 
1

$$$$

     RDKit          3D

 63 67  0  0  0  0  0  0  0  0999 V2000
  146.3160   71.4120  219.7220 N   0  0  0  0  0  0  0  0  0  0  0  0
  145.2210   72.3680  219.4900 C   0  0  2  0  0  0  0  0  0  0  0  0
  145.5460   73.5720  220.3090 C   0  0  0  0  0  0  0  0  0  0  0  0
  144.4250   74.5720  220.4380 C   0  0  0  0  0  0  0  0  0  0  0  0
  143.0720   73.9590  220.3260 C   0  0  2  0  0  0  0  0  0  0  0  0
  142.1710   74.6640  221.2180 N   0  0  0  0  0  0  0  0  0  0  0  0
  140.9480   74.0420  221.5820 C   0  0  0  0  0  0  0  0  0  0  0  0
  139.7820   74.5000  221.1220 N   0  0  0  0  0  0  0  0  0  0  0  0
  138.6010   73.9190  221.4600 C   0  0  0  0  0  0  0  0  0  0  0  0
  137.4360   74.5100  220.8960 N   0  0  0  0  0  0  0  0  0  0  0  0
  136.6620   75.5390  221.5580 C   0  0  0  0  0  0  0  0  0  0  0  0
  136.0300   75.0060  222.8100 C   0  0  0  0  0  0  0  0  0  0  0  0
  135.8420   75.7920  223.9290 C   0  0  0  0  0  0  0  0  0  0  0  0
  135.2510   75.2410  225.0550 C   0  0  0  0  0  0  0  0  0  0  0  0
  134.8410   73.9130  225.0880 C   0  0  0  0  0  0  0  0  0  0  0  0
  135.0270   73.1240  223.9710 C   0  0  0  0  0  0  0  0  0  0  0  0
  135.6150   73.6720  222.8510 C   0  0  0  0  0  0  0  0  0  0  0  0
  138.5660   72.8540  222.2780 N   0  0  0  0  0  0  0  0  0  0  0  0
  139.7460   72.4000  222.7360 C   0  0  0  0  0  0  0  0  0  0  0  0
  139.7060   71.2720  223.6020 N   0  0  0  0  0  0  0  0  0  0  0  0
  139.4520   69.9560  223.0550 C   0  0  0  0  0  0  0  0  0  0  0  0
  138.5850   69.2140  224.0810 C   0  0  0  0  0  0  0  0  0  0  0  0
  139.4710   69.0500  225.2760 C   0  0  0  0  0  0  0  0  0  0  0  0
  139.6060   67.8100  225.8720 C   0  0  0  0  0  0  0  0  0  0  0  0
  140.4440   67.7370  226.9720 C   0  0  0  0  0  0  0  0  0  0  0  0
  141.1030   68.8560  227.4360 C   0  0  0  0  0  0  0  0  0  0  0  0
  140.9600   70.0900  226.8300 C   0  0  0  0  0  0  0  0  0  0  0  0
  140.1250   70.1790  225.7290 C   0  0  0  0  0  0  0  0  0  0  0  0
  139.9210   71.4710  225.0240 C   0  0  0  0  0  0  0  0  0  0  0  0
  140.9130   72.9760  222.4020 N   0  0  0  0  0  0  0  0  0  0  0  0
  143.0450   72.5020  220.7290 C   0  0  0  0  0  0  0  0  0  0  0  0
  143.9710   71.6630  219.8860 C   0  0  0  0  0  0  0  0  0  0  0  0
  146.6900   71.5810  220.6830 H   0  0  0  0  0  0  0  0  0  0  0  0
  145.8360   70.4670  219.7890 H   0  0  0  0  0  0  0  0  0  0  0  0
  145.0906   72.7055  218.4512 H   0  0  0  0  0  0  0  0  0  0  0  0
  146.4050   74.0792  219.8454 H   0  0  0  0  0  0  0  0  0  0  0  0
  145.7534   73.2073  221.3259 H   0  0  0  0  0  0  0  0  0  0  0  0
  144.5346   75.3237  219.6424 H   0  0  0  0  0  0  0  0  0  0  0  0
  144.4990   75.0163  221.4415 H   0  0  0  0  0  0  0  0  0  0  0  0
  142.7745   74.0321  219.2695 H   0  0  0  0  0  0  0  0  0  0  0  0
  142.3780   75.6160  221.6120 H   0  0  0  0  0  0  0  0  0  0  0  0
  137.1600   74.1450  219.9420 H   0  0  0  0  0  0  0  0  0  0  0  0
  137.3243   76.3782  221.8171 H   0  0  0  0  0  0  0  0  0  0  0  0
  135.8667   75.8759  220.8768 H   0  0  0  0  0  0  0  0  0  0  0  0
  136.1582   76.8456  223.9271 H   0  0  0  0  0  0  0  0  0  0  0  0
  135.1026   75.8702  225.9450 H   0  0  0  0  0  0  0  0  0  0  0  0
  134.3743   73.4964  225.9928 H   0  0  0  0  0  0  0  0  0  0  0  0
  134.7099   72.0707  223.9744 H   0  0  0  0  0  0  0  0  0  0  0  0
  135.7620   73.0402  221.9626 H   0  0  0  0  0  0  0  0  0  0  0  0
  138.9181   70.0399  222.0969 H   0  0  0  0  0  0  0  0  0  0  0  0
  140.3921   69.4168  222.8664 H   0  0  0  0  0  0  0  0  0  0  0  0
  137.6938   69.8059  224.3367 H   0  0  0  0  0  0  0  0  0  0  0  0
  138.2185   68.2501  223.6981 H   0  0  0  0  0  0  0  0  0  0  0  0
  139.0743   66.9254  225.4914 H   0  0  0  0  0  0  0  0  0  0  0  0
  140.5860   66.7731  227.4827 H   0  0  0  0  0  0  0  0  0  0  0  0
  141.7608   68.7640  228.3128 H   0  0  0  0  0  0  0  0  0  0  0  0
  141.4930   70.9738  227.2105 H   0  0  0  0  0  0  0  0  0  0  0  0
  139.0425   71.9767  225.4512 H   0  0  0  0  0  0  0  0  0  0  0  0
  140.8261   72.0824  225.1544 H   0  0  0  0  0  0  0  0  0  0  0  0
  142.0192   72.1215  220.6151 H   0  0  0  0  0  0  0  0  0  0  0  0
  143.3826   72.4333  221.7737 H   0  0  0  0  0  0  0  0  0  0  0  0
  143.4354   71.3654  218.9724 H   0  0  0  0  0  0  0  0  0  0  0  0
  144.2687   70.7984  220.4975 H   0  0  0  0  0  0  0  0  0  0  0  0
  1  2  1  0
  2  3  1  0
  3  4  1  0
  4  5  1  0
  5  6  1  0
  6  7  1  0
  7  8  2  0
  8  9  1  0
  9 10  1  0
 10 11  1  0
 11 12  1  0
 12 13  2  0
 13 14  1  0
 14 15  2  0
 15 16  1  0
 16 17  2  0
  9 18  2  0
 18 19  1  0
 19 20  1  0
 20 21  1  0
 21 22  1  0
 22 23  1  0
 23 24  2  0
 24 25  1  0
 25 26  2  0
 26 27  1  0
 27 28  2  0
 28 29  1  0
 19 30  2  0
  5 31  1  0
 31 32  1  0
 32  2  1  0
 30  7  1  0
 17 12  1  0
 29 20  1  0
 28 23  1  0
  1 33  1  0
  1 34  1  0
  2 35  1  6
  3 36  1  0
  3 37  1  0
  4 38  1  0
  4 39  1  0
  5 40  1  6
  6 41  1  0
 10 42  1  0
 11 43  1  0
 11 44  1  0
 13 45  1  0
 14 46  1  0
 15 47  1  0
 16 48  1  0
 17 49  1  0
 21 50  1  0
 21 51  1  0
 22 52  1  0
 22 53  1  0
 24 54  1  0
 25 55  1  0
 26 56  1  0
 27 57  1  0
 29 58  1  0
 29 59  1  0
 31 60  1  0
 31 61  1  0
 32 62  1  0
 32 63  1  0
M  END
>  <smiles>  (13) 
NC1CCC(Nc2nc(NCc3ccccc3)nc(N3CCc4ccccc4C3)n2)CC1

>  <score_type>  (13) 
oracle

>  <origin>  (13) 
autodockgpu

>  <m_score__min__energy>  (13) 
-9.7599999999999998

>  <m_primary>  (13) 
energy

>  <rmsd>  (13) 
3.8145622558324925

>  <m_score__min__rmsd>  (13) 
3.8145622558324925

>  <meeko>  (13) 
{"free_energy": -9.03, "intermolecular_energy": -11.12, "internal_energy": -1.12, "cluster_size": 2, "cluster_id": 6, "rank_in_cluster": 1}

>  <energy>  (13) 
-9.03

>  <cluster_rmsd>  (13) 
1.82

>  <cluster>  (13) 
1

$$$$

     RDKit          3D

 63 67  0  0  0  0  0  0  0  0999 V2000
  142.3110   80.2980  221.6660 N   0  0  0  0  0  0  0  0  0  0  0  0
  142.1640   78.8680  221.9810 C   0  0  2  0  0  0  0  0  0  0  0  0
  141.8960   78.1870  220.6820 C   0  0  0  0  0  0  0  0  0  0  0  0
  141.4420   76.7530  220.8000 C   0  0  0  0  0  0  0  0  0  0  0  0
  140.7320   76.4620  222.0760 C   0  0  2  0  0  0  0  0  0  0  0  0
  139.6840   75.4950  221.8110 N   0  0  0  0  0  0  0  0  0  0  0  0
  140.0330   74.1220  221.7160 C   0  0  0  0  0  0  0  0  0  0  0  0
  140.5490   73.6210  220.5920 N   0  0  0  0  0  0  0  0  0  0  0  0
  140.8880   72.3100  220.4810 C   0  0  0  0  0  0  0  0  0  0  0  0
  141.4290   71.9130  219.2270 N   0  0  0  0  0  0  0  0  0  0  0  0
  142.8230   71.5770  219.0290 C   0  0  0  0  0  0  0  0  0  0  0  0
  143.7130   72.6140  219.6490 C   0  0  0  0  0  0  0  0  0  0  0  0
  143.4640   73.9660  219.5200 C   0  0  0  0  0  0  0  0  0  0  0  0
  144.3230   74.8740  220.1180 C   0  0  0  0  0  0  0  0  0  0  0  0
  145.4330   74.4600  220.8460 C   0  0  0  0  0  0  0  0  0  0  0  0
  145.6840   73.1080  220.9770 C   0  0  0  0  0  0  0  0  0  0  0  0
  144.8290   72.2040  220.3820 C   0  0  0  0  0  0  0  0  0  0  0  0
  140.7120   71.4640  221.5100 N   0  0  0  0  0  0  0  0  0  0  0  0
  140.1910   71.9780  222.6380 C   0  0  0  0  0  0  0  0  0  0  0  0
  140.0060   71.0790  223.7260 N   0  0  0  0  0  0  0  0  0  0  0  0
  139.5800   69.7190  223.4690 C   0  0  0  0  0  0  0  0  0  0  0  0
  138.6270   69.3360  224.6090 C   0  0  0  0  0  0  0  0  0  0  0  0
  139.4880   69.3220  225.8330 C   0  0  0  0  0  0  0  0  0  0  0  0
  139.4610   68.2340  226.6850 C   0  0  0  0  0  0  0  0  0  0  0  0
  140.2860   68.2940  227.7960 C   0  0  0  0  0  0  0  0  0  0  0  0
  141.0880   69.3930  228.0240 C   0  0  0  0  0  0  0  0  0  0  0  0
  141.1060   70.4740  227.1630 C   0  0  0  0  0  0  0  0  0  0  0  0
  140.2860   70.4290  226.0480 C   0  0  0  0  0  0  0  0  0  0  0  0
  140.2510   71.5530  225.0760 C   0  0  0  0  0  0  0  0  0  0  0  0
  139.8560   73.2740  222.7460 N   0  0  0  0  0  0  0  0  0  0  0  0
  140.0690   77.6810  222.6770 C   0  0  0  0  0  0  0  0  0  0  0  0
  141.0590   78.7780  222.9740 C   0  0  0  0  0  0  0  0  0  0  0  0
  143.3110   80.4700  221.4150 H   0  0  0  0  0  0  0  0  0  0  0  0
  141.7840   80.4260  220.7530 H   0  0  0  0  0  0  0  0  0  0  0  0
  143.0436   78.3819  222.4282 H   0  0  0  0  0  0  0  0  0  0  0  0
  142.8223   78.2048  220.0891 H   0  0  0  0  0  0  0  0  0  0  0  0
  141.0675   78.7358  220.2104 H   0  0  0  0  0  0  0  0  0  0  0  0
  142.3255   76.1009  220.7357 H   0  0  0  0  0  0  0  0  0  0  0  0
  140.7298   76.5689  219.9821 H   0  0  0  0  0  0  0  0  0  0  0  0
  141.4873   76.0923  222.7851 H   0  0  0  0  0  0  0  0  0  0  0  0
  138.6750   75.7570  221.6860 H   0  0  0  0  0  0  0  0  0  0  0  0
  140.7370   71.8750  218.4270 H   0  0  0  0  0  0  0  0  0  0  0  0
  143.0284   70.6011  219.4931 H   0  0  0  0  0  0  0  0  0  0  0  0
  143.0266   71.5371  217.9488 H   0  0  0  0  0  0  0  0  0  0  0  0
  142.5928   74.3186  218.9485 H   0  0  0  0  0  0  0  0  0  0  0  0
  144.1216   75.9504  220.0141 H   0  0  0  0  0  0  0  0  0  0  0  0
  146.1020   75.1990  221.3112 H   0  0  0  0  0  0  0  0  0  0  0  0
  146.5554   72.7565  221.5490 H   0  0  0  0  0  0  0  0  0  0  0  0
  145.0320   71.1281  220.4879 H   0  0  0  0  0  0  0  0  0  0  0  0
  139.0583   69.6608  222.5023 H   0  0  0  0  0  0  0  0  0  0  0  0
  140.4405   69.0352  223.4243 H   0  0  0  0  0  0  0  0  0  0  0  0
  137.8225   70.0795  224.7088 H   0  0  0  0  0  0  0  0  0  0  0  0
  138.1355   68.3676  224.4339 H   0  0  0  0  0  0  0  0  0  0  0  0
  138.8166   67.3640  226.4905 H   0  0  0  0  0  0  0  0  0  0  0  0
  140.3019   67.4540  228.5061 H   0  0  0  0  0  0  0  0  0  0  0  0
  141.7313   69.4094  228.9162 H   0  0  0  0  0  0  0  0  0  0  0  0
  141.7517   71.3431  227.3574 H   0  0  0  0  0  0  0  0  0  0  0  0
  139.4484   72.2486  225.3622 H   0  0  0  0  0  0  0  0  0  0  0  0
  141.2289   72.0564  225.0938 H   0  0  0  0  0  0  0  0  0  0  0  0
  139.5723   77.3886  223.6139 H   0  0  0  0  0  0  0  0  0  0  0  0
  139.3452   78.0679  221.9446 H   0  0  0  0  0  0  0  0  0  0  0  0
  141.4970   78.5921  223.9658 H   0  0  0  0  0  0  0  0  0  0  0  0
  140.5087   79.7295  222.9315 H   0  0  0  0  0  0  0  0  0  0  0  0
  1  2  1  0
  2  3  1  0
  3  4  1  0
  4  5  1  0
  5  6  1  0
  6  7  1  0
  7  8  2  0
  8  9  1  0
  9 10  1  0
 10 11  1  0
 11 12  1  0
 12 13  2  0
 13 14  1  0
 14 15  2  0
 15 16  1  0
 16 17  2  0
  9 18  2  0
 18 19  1  0
 19 20  1  0
 20 21  1  0
 21 22  1  0
 22 23  1  0
 23 24  2  0
 24 25  1  0
 25 26  2  0
 26 27  1  0
 27 28  2  0
 28 29  1  0
 19 30  2  0
  5 31  1  0
 31 32  1  0
 32  2  1  0
 30  7  1  0
 17 12  1  0
 29 20  1  0
 28 23  1  0
  1 33  1  0
  1 34  1  0
  2 35  1  1
  3 36  1  0
  3 37  1  0
  4 38  1  0
  4 39  1  0
  5 40  1  1
  6 41  1  0
 10 42  1  0
 11 43  1  0
 11 44  1  0
 13 45  1  0
 14 46  1  0
 15 47  1  0
 16 48  1  0
 17 49  1  0
 21 50  1  0
 21 51  1  0
 22 52  1  0
 22 53  1  0
 24 54  1  0
 25 55  1  0
 26 56  1  0
 27 57  1  0
 29 58  1  0
 29 59  1  0
 31 60  1  0
 31 61  1  0
 32 62  1  0
 32 63  1  0
M  END
>  <smiles>  (14) 
NC1CCC(Nc2nc(NCc3ccccc3)nc(N3CCc4ccccc4C3)n2)CC1

>  <score_type>  (14) 
oracle

>  <origin>  (14) 
autodockgpu

>  <m_score__min__energy>  (14) 
-9.7599999999999998

>  <m_primary>  (14) 
energy

>  <rmsd>  (14) 
3.9046730501598903

>  <m_score__min__rmsd>  (14) 
3.9046730501598903

>  <meeko>  (14) 
{"free_energy": -9.02, "intermolecular_energy": -11.11, "internal_energy": -1.47, "cluster_size": 7, "cluster_id": 4, "rank_in_cluster": 2}

>  <energy>  (14) 
-8.99

>  <cluster_rmsd>  (14) 
1.31

>  <cluster>  (14) 
1

$$$$

     RDKit          3D

 63 67  0  0  0  0  0  0  0  0999 V2000
  134.1400   73.9630  226.4510 N   0  0  0  0  0  0  0  0  0  0  0  0
  134.0470   74.0250  224.9840 C   0  0  2  0  0  0  0  0  0  0  0  0
  134.5700   72.7210  224.4830 C   0  0  0  0  0  0  0  0  0  0  0  0
  134.8230   72.6670  222.9970 C   0  0  0  0  0  0  0  0  0  0  0  0
  135.1420   73.9960  222.4050 C   0  0  2  0  0  0  0  0  0  0  0  0
  136.1140   73.8060  221.3450 N   0  0  0  0  0  0  0  0  0  0  0  0
  137.4930   73.9460  221.6520 C   0  0  0  0  0  0  0  0  0  0  0  0
  138.2130   72.9020  222.0650 N   0  0  0  0  0  0  0  0  0  0  0  0
  139.5330   73.0160  222.3640 C   0  0  0  0  0  0  0  0  0  0  0  0
  140.1780   71.8210  222.7910 N   0  0  0  0  0  0  0  0  0  0  0  0
  139.5140   70.7850  223.5550 C   0  0  0  0  0  0  0  0  0  0  0  0
  139.9640   70.8090  224.9860 C   0  0  0  0  0  0  0  0  0  0  0  0
  139.5960   69.8290  225.8870 C   0  0  0  0  0  0  0  0  0  0  0  0
  140.0450   69.9070  227.1960 C   0  0  0  0  0  0  0  0  0  0  0  0
  140.8570   70.9500  227.6280 C   0  0  0  0  0  0  0  0  0  0  0  0
  141.2270   71.9310  226.7310 C   0  0  0  0  0  0  0  0  0  0  0  0
  140.7800   71.8540  225.4280 C   0  0  0  0  0  0  0  0  0  0  0  0
  140.1650   74.1960  222.2530 N   0  0  0  0  0  0  0  0  0  0  0  0
  139.4320   75.2420  221.8350 C   0  0  0  0  0  0  0  0  0  0  0  0
  140.1040   76.4910  221.7190 N   0  0  0  0  0  0  0  0  0  0  0  0
  139.8160   77.3590  220.5970 C   0  0  0  0  0  0  0  0  0  0  0  0
  141.1440   78.0170  220.1990 C   0  0  0  0  0  0  0  0  0  0  0  0
  141.5020   78.8820  221.3670 C   0  0  0  0  0  0  0  0  0  0  0  0
  141.8520   80.2040  221.1670 C   0  0  0  0  0  0  0  0  0  0  0  0
  142.1690   80.9410  222.2960 C   0  0  0  0  0  0  0  0  0  0  0  0
  142.1320   80.3660  223.5490 C   0  0  0  0  0  0  0  0  0  0  0  0
  141.7790   79.0440  223.7350 C   0  0  0  0  0  0  0  0  0  0  0  0
  141.4590   78.2940  222.6160 C   0  0  0  0  0  0  0  0  0  0  0  0
  141.0700   76.8650  222.7360 C   0  0  0  0  0  0  0  0  0  0  0  0
  138.1260   75.1290  221.5410 N   0  0  0  0  0  0  0  0  0  0  0  0
  135.7510   74.9580  223.3990 C   0  0  0  0  0  0  0  0  0  0  0  0
  134.8400   75.2150  224.5720 C   0  0  0  0  0  0  0  0  0  0  0  0
  133.2240   74.2810  226.8430 H   0  0  0  0  0  0  0  0  0  0  0  0
  134.1740   72.9250  226.6730 H   0  0  0  0  0  0  0  0  0  0  0  0
  133.0344   74.1499  224.5728 H   0  0  0  0  0  0  0  0  0  0  0  0
  133.8371   71.9399  224.7335 H   0  0  0  0  0  0  0  0  0  0  0  0
  135.5463   72.5734  224.9678 H   0  0  0  0  0  0  0  0  0  0  0  0
  133.9226   72.2721  222.5037 H   0  0  0  0  0  0  0  0  0  0  0  0
  135.6993   72.0211  222.8390 H   0  0  0  0  0  0  0  0  0  0  0  0
  134.1937   74.4231  222.0468 H   0  0  0  0  0  0  0  0  0  0  0  0
  135.8500   73.5690  220.3560 H   0  0  0  0  0  0  0  0  0  0  0  0
  141.1950   71.7310  222.5130 H   0  0  0  0  0  0  0  0  0  0  0  0
  138.4269   70.9483  223.5157 H   0  0  0  0  0  0  0  0  0  0  0  0
  139.7696   69.8072  223.1207 H   0  0  0  0  0  0  0  0  0  0  0  0
  138.9531   68.9950  225.5689 H   0  0  0  0  0  0  0  0  0  0  0  0
  139.7517   69.1243  227.9110 H   0  0  0  0  0  0  0  0  0  0  0  0
  141.2002   70.9925  228.6722 H   0  0  0  0  0  0  0  0  0  0  0  0
  141.8703   72.7640  227.0508 H   0  0  0  0  0  0  0  0  0  0  0  0
  141.0747   72.6387  224.7156 H   0  0  0  0  0  0  0  0  0  0  0  0
  139.4161   76.7727  219.7565 H   0  0  0  0  0  0  0  0  0  0  0  0
  139.0630   78.1152  220.8638 H   0  0  0  0  0  0  0  0  0  0  0  0
  141.9189   77.2552  220.0280 H   0  0  0  0  0  0  0  0  0  0  0  0
  141.0613   78.5913  219.2645 H   0  0  0  0  0  0  0  0  0  0  0  0
  141.8775   80.6487  220.1612 H   0  0  0  0  0  0  0  0  0  0  0  0
  142.4539   81.9984  222.1920 H   0  0  0  0  0  0  0  0  0  0  0  0
  142.3911   80.9781  224.4255 H   0  0  0  0  0  0  0  0  0  0  0  0
  141.7529   78.6004  224.7412 H   0  0  0  0  0  0  0  0  0  0  0  0
  141.9677   76.2393  222.6240 H   0  0  0  0  0  0  0  0  0  0  0  0
  140.6089   76.7138  223.7232 H   0  0  0  0  0  0  0  0  0  0  0  0
  135.9525   75.9125  222.8908 H   0  0  0  0  0  0  0  0  0  0  0  0
  136.6776   74.5063  223.7829 H   0  0  0  0  0  0  0  0  0  0  0  0
  134.1420   76.0205  224.3000 H   0  0  0  0  0  0  0  0  0  0  0  0
  135.4808   75.4857  225.4241 H   0  0  0  0  0  0  0  0  0  0  0  0
  1  2  1  0
  2  3  1  0
  3  4  1  0
  4  5  1  0
  5  6  1  0
  6  7  1  0
  7  8  2  0
  8  9  1  0
  9 10  1  0
 10 11  1  0
 11 12  1  0
 12 13  2  0
 13 14  1  0
 14 15  2  0
 15 16  1  0
 16 17  2  0
  9 18  2  0
 18 19  1  0
 19 20  1  0
 20 21  1  0
 21 22  1  0
 22 23  1  0
 23 24  2  0
 24 25  1  0
 25 26  2  0
 26 27  1  0
 27 28  2  0
 28 29  1  0
 19 30  2  0
  5 31  1  0
 31 32  1  0
 32  2  1  0
 30  7  1  0
 17 12  1  0
 29 20  1  0
 28 23  1  0
  1 33  1  0
  1 34  1  0
  2 35  1  1
  3 36  1  0
  3 37  1  0
  4 38  1  0
  4 39  1  0
  5 40  1  6
  6 41  1  0
 10 42  1  0
 11 43  1  0
 11 44  1  0
 13 45  1  0
 14 46  1  0
 15 47  1  0
 16 48  1  0
 17 49  1  0
 21 50  1  0
 21 51  1  0
 22 52  1  0
 22 53  1  0
 24 54  1  0
 25 55  1  0
 26 56  1  0
 27 57  1  0
 29 58  1  0
 29 59  1  0
 31 60  1  0
 31 61  1  0
 32 62  1  0
 32 63  1  0
M  END
>  <smiles>  (15) 
NC1CCC(Nc2nc(NCc3ccccc3)nc(N3CCc4ccccc4C3)n2)CC1

>  <score_type>  (15) 
oracle

>  <origin>  (15) 
autodockgpu

>  <m_score__min__energy>  (15) 
-9.7599999999999998

>  <m_primary>  (15) 
energy

>  <rmsd>  (15) 
10.41145294796816

>  <m_score__min__rmsd>  (15) 
10.41145294796816

>  <meeko>  (15) 
{"free_energy": -8.74, "intermolecular_energy": -10.83, "internal_energy": -1.2, "cluster_size": 7, "cluster_id": 7, "rank_in_cluster": 6}

>  <energy>  (15) 
-8.7

>  <cluster_rmsd>  (15) 
1.94

>  <cluster>  (15) 
1

$$$$

     RDKit          3D

 63 67  0  0  0  0  0  0  0  0999 V2000
  146.9090   73.7630  219.4830 N   0  0  0  0  0  0  0  0  0  0  0  0
  145.9040   72.6990  219.6350 C   0  0  2  0  0  0  0  0  0  0  0  0
  145.0810   72.7300  218.3920 C   0  0  0  0  0  0  0  0  0  0  0  0
  143.8190   71.9060  218.4470 C   0  0  0  0  0  0  0  0  0  0  0  0
  143.2750   71.7510  219.8240 C   0  0  2  0  0  0  0  0  0  0  0  0
  141.8260   71.7420  219.7490 N   0  0  0  0  0  0  0  0  0  0  0  0
  141.0880   72.4390  220.7420 C   0  0  0  0  0  0  0  0  0  0  0  0
  140.4690   71.7810  221.7240 N   0  0  0  0  0  0  0  0  0  0  0  0
  139.7570   72.4290  222.6830 C   0  0  0  0  0  0  0  0  0  0  0  0
  139.1500   71.6030  223.6700 N   0  0  0  0  0  0  0  0  0  0  0  0
  139.8040   70.4560  224.2630 C   0  0  0  0  0  0  0  0  0  0  0  0
  140.2650   70.7680  225.6560 C   0  0  0  0  0  0  0  0  0  0  0  0
  141.0190   71.8880  225.9460 C   0  0  0  0  0  0  0  0  0  0  0  0
  141.4130   72.1210  227.2540 C   0  0  0  0  0  0  0  0  0  0  0  0
  141.0690   71.2550  228.2860 C   0  0  0  0  0  0  0  0  0  0  0  0
  140.3150   70.1340  228.0000 C   0  0  0  0  0  0  0  0  0  0  0  0
  139.9230   69.9020  226.6980 C   0  0  0  0  0  0  0  0  0  0  0  0
  139.6510   73.7680  222.6740 N   0  0  0  0  0  0  0  0  0  0  0  0
  140.2770   74.4220  221.6810 C   0  0  0  0  0  0  0  0  0  0  0  0
  140.1620   75.8400  221.6740 N   0  0  0  0  0  0  0  0  0  0  0  0
  138.9040   76.4600  222.0320 C   0  0  0  0  0  0  0  0  0  0  0  0
  138.7430   77.6840  221.1210 C   0  0  0  0  0  0  0  0  0  0  0  0
  139.8430   78.6110  221.5360 C   0  0  0  0  0  0  0  0  0  0  0  0
  139.5640   79.9350  221.8130 C   0  0  0  0  0  0  0  0  0  0  0  0
  140.6330   80.7300  222.1910 C   0  0  0  0  0  0  0  0  0  0  0  0
  141.9070   80.2080  222.2810 C   0  0  0  0  0  0  0  0  0  0  0  0
  142.1720   78.8810  222.0010 C   0  0  0  0  0  0  0  0  0  0  0  0
  141.1130   78.0730  221.6220 C   0  0  0  0  0  0  0  0  0  0  0  0
  141.3190   76.6360  221.3050 C   0  0  0  0  0  0  0  0  0  0  0  0
  140.9800   73.7800  220.7330 N   0  0  0  0  0  0  0  0  0  0  0  0
  143.6640   72.8830  220.7470 C   0  0  0  0  0  0  0  0  0  0  0  0
  145.1600   73.0140  220.8850 C   0  0  0  0  0  0  0  0  0  0  0  0
  146.8740   74.0970  218.4920 H   0  0  0  0  0  0  0  0  0  0  0  0
  146.5250   74.5760  220.0480 H   0  0  0  0  0  0  0  0  0  0  0  0
  146.2984   71.6774  219.7388 H   0  0  0  0  0  0  0  0  0  0  0  0
  145.6990   72.3542  217.5632 H   0  0  0  0  0  0  0  0  0  0  0  0
  144.7627   73.7744  218.2579 H   0  0  0  0  0  0  0  0  0  0  0  0
  144.0373   70.9062  218.0435 H   0  0  0  0  0  0  0  0  0  0  0  0
  143.0585   72.4359  217.8546 H   0  0  0  0  0  0  0  0  0  0  0  0
  143.6900   70.8159  220.2282 H   0  0  0  0  0  0  0  0  0  0  0  0
  141.2900   71.2460  218.9930 H   0  0  0  0  0  0  0  0  0  0  0  0
  138.1690   71.8820  223.9530 H   0  0  0  0  0  0  0  0  0  0  0  0
  139.0961   69.6147  224.2971 H   0  0  0  0  0  0  0  0  0  0  0  0
  140.6801   70.1940  223.6516 H   0  0  0  0  0  0  0  0  0  0  0  0
  141.3040   72.5881  225.1468 H   0  0  0  0  0  0  0  0  0  0  0  0
  142.0134   73.0141  227.4817 H   0  0  0  0  0  0  0  0  0  0  0  0
  141.3933   71.4602  229.3169 H   0  0  0  0  0  0  0  0  0  0  0  0
  140.0306   69.4350  228.8003 H   0  0  0  0  0  0  0  0  0  0  0  0
  139.3229   69.0080  226.4731 H   0  0  0  0  0  0  0  0  0  0  0  0
  138.0745   75.7556  221.8713 H   0  0  0  0  0  0  0  0  0  0  0  0
  138.8932   76.7511  223.0927 H   0  0  0  0  0  0  0  0  0  0  0  0
  138.8534   77.3988  220.0644 H   0  0  0  0  0  0  0  0  0  0  0  0
  137.7496   78.1467  221.2157 H   0  0  0  0  0  0  0  0  0  0  0  0
  138.5433   80.3380  221.7371 H   0  0  0  0  0  0  0  0  0  0  0  0
  140.4642   81.7920  222.4226 H   0  0  0  0  0  0  0  0  0  0  0  0
  142.7346   80.8663  222.5840 H   0  0  0  0  0  0  0  0  0  0  0  0
  143.1930   78.4787  222.0769 H   0  0  0  0  0  0  0  0  0  0  0  0
  141.4964   76.5299  220.2246 H   0  0  0  0  0  0  0  0  0  0  0  0
  142.1845   76.2756  221.8804 H   0  0  0  0  0  0  0  0  0  0  0  0
  143.2313   72.6951  221.7407 H   0  0  0  0  0  0  0  0  0  0  0  0
  143.2804   73.8192  220.3151 H   0  0  0  0  0  0  0  0  0  0  0  0
  145.4980   72.3256  221.6736 H   0  0  0  0  0  0  0  0  0  0  0  0
  145.3704   74.0658  221.1290 H   0  0  0  0  0  0  0  0  0  0  0  0
  1  2  1  0
  2  3  1  0
  3  4  1  0
  4  5  1  0
  5  6  1  0
  6  7  1  0
  7  8  2  0
  8  9  1  0
  9 10  1  0
 10 11  1  0
 11 12  1  0
 12 13  2  0
 13 14  1  0
 14 15  2  0
 15 16  1  0
 16 17  2  0
  9 18  2  0
 18 19  1  0
 19 20  1  0
 20 21  1  0
 21 22  1  0
 22 23  1  0
 23 24  2  0
 24 25  1  0
 25 26  2  0
 26 27  1  0
 27 28  2  0
 28 29  1  0
 19 30  2  0
  5 31  1  0
 31 32  1  0
 32  2  1  0
 30  7  1  0
 17 12  1  0
 29 20  1  0
 28 23  1  0
  1 33  1  0
  1 34  1  0
  2 35  1  1
  3 36  1  0
  3 37  1  0
  4 38  1  0
  4 39  1  0
  5 40  1  1
  6 41  1  0
 10 42  1  0
 11 43  1  0
 11 44  1  0
 13 45  1  0
 14 46  1  0
 15 47  1  0
 16 48  1  0
 17 49  1  0
 21 50  1  0
 21 51  1  0
 22 52  1  0
 22 53  1  0
 24 54  1  0
 25 55  1  0
 26 56  1  0
 27 57  1  0
 29 58  1  0
 29 59  1  0
 31 60  1  0
 31 61  1  0
 32 62  1  0
 32 63  1  0
M  END
>  <smiles>  (16) 
NC1CCC(Nc2nc(NCc3ccccc3)nc(N3CCc4ccccc4C3)n2)CC1

>  <score_type>  (16) 
oracle

>  <origin>  (16) 
autodockgpu

>  <m_score__min__energy>  (16) 
-9.7599999999999998

>  <m_primary>  (16) 
energy

>  <rmsd>  (16) 
10.043987745904692

>  <m_score__min__rmsd>  (16) 
10.043987745904692

>  <meeko>  (16) 
{"free_energy": -9.68, "intermolecular_energy": -11.77, "internal_energy": -1.02, "cluster_size": 15, "cluster_id": 1, "rank_in_cluster": 3}

>  <energy>  (16) 
-9.76

>  <cluster_rmsd>  (16) 
0.0

>  <cluster>  (16) 
2

$$$$

     RDKit          3D

 63 67  0  0  0  0  0  0  0  0999 V2000
  142.3410   80.2790  221.9760 N   0  0  0  0  0  0  0  0  0  0  0  0
  142.2280   78.8150  222.0760 C   0  0  2  0  0  0  0  0  0  0  0  0
  141.8920   78.3340  220.7050 C   0  0  0  0  0  0  0  0  0  0  0  0
  141.4620   76.8910  220.6270 C   0  0  0  0  0  0  0  0  0  0  0  0
  140.8290   76.3960  221.8810 C   0  0  2  0  0  0  0  0  0  0  0  0
  139.7790   75.4600  221.5300 N   0  0  0  0  0  0  0  0  0  0  0  0
  140.0840   74.0740  221.4930 C   0  0  0  0  0  0  0  0  0  0  0  0
  140.5480   73.5030  220.3800 N   0  0  0  0  0  0  0  0  0  0  0  0
  140.8450   72.1780  220.3240 C   0  0  0  0  0  0  0  0  0  0  0  0
  141.3310   71.7030  219.0740 N   0  0  0  0  0  0  0  0  0  0  0  0
  142.4190   72.3270  218.3510 C   0  0  0  0  0  0  0  0  0  0  0  0
  143.4240   72.9090  219.3010 C   0  0  0  0  0  0  0  0  0  0  0  0
  143.4960   74.2650  219.5530 C   0  0  0  0  0  0  0  0  0  0  0  0
  144.4470   74.7410  220.4420 C   0  0  0  0  0  0  0  0  0  0  0  0
  145.3330   73.8870  221.0900 C   0  0  0  0  0  0  0  0  0  0  0  0
  145.2630   72.5300  220.8420 C   0  0  0  0  0  0  0  0  0  0  0  0
  144.3170   72.0570  219.9560 C   0  0  0  0  0  0  0  0  0  0  0  0
  140.6810   71.3900  221.4000 N   0  0  0  0  0  0  0  0  0  0  0  0
  140.2140   71.9750  222.5170 C   0  0  0  0  0  0  0  0  0  0  0  0
  140.0410   71.1370  223.6540 N   0  0  0  0  0  0  0  0  0  0  0  0
  139.6360   69.7590  223.4760 C   0  0  0  0  0  0  0  0  0  0  0  0
  138.6870   69.4270  224.6350 C   0  0  0  0  0  0  0  0  0  0  0  0
  139.5460   69.4960  225.8580 C   0  0  0  0  0  0  0  0  0  0  0  0
  139.5340   68.4590  226.7710 C   0  0  0  0  0  0  0  0  0  0  0  0
  140.3570   68.5950  227.8770 C   0  0  0  0  0  0  0  0  0  0  0  0
  141.1410   69.7170  228.0420 C   0  0  0  0  0  0  0  0  0  0  0  0
  141.1440   70.7470  227.1210 C   0  0  0  0  0  0  0  0  0  0  0  0
  140.3270   70.6250  226.0100 C   0  0  0  0  0  0  0  0  0  0  0  0
  140.2760   71.6910  224.9760 C   0  0  0  0  0  0  0  0  0  0  0  0
  139.9190   73.2840  222.5700 N   0  0  0  0  0  0  0  0  0  0  0  0
  140.1890   77.4960  222.6980 C   0  0  0  0  0  0  0  0  0  0  0  0
  141.1830   78.5540  223.1030 C   0  0  0  0  0  0  0  0  0  0  0  0
  142.4070   80.6620  222.9470 H   0  0  0  0  0  0  0  0  0  0  0  0
  143.3050   80.4450  221.5620 H   0  0  0  0  0  0  0  0  0  0  0  0
  143.1374   78.2839  222.3937 H   0  0  0  0  0  0  0  0  0  0  0  0
  142.7818   78.4603  220.0708 H   0  0  0  0  0  0  0  0  0  0  0  0
  141.0310   78.9313  220.3705 H   0  0  0  0  0  0  0  0  0  0  0  0
  142.3477   76.2738  220.4158 H   0  0  0  0  0  0  0  0  0  0  0  0
  140.7068   76.8188  219.8305 H   0  0  0  0  0  0  0  0  0  0  0  0
  141.6280   75.9380  222.4825 H   0  0  0  0  0  0  0  0  0  0  0  0
  138.7970   75.7540  221.3000 H   0  0  0  0  0  0  0  0  0  0  0  0
  140.8400   70.8470  218.6940 H   0  0  0  0  0  0  0  0  0  0  0  0
  142.9129   71.5728  217.7207 H   0  0  0  0  0  0  0  0  0  0  0  0
  142.0108   73.1372  217.7289 H   0  0  0  0  0  0  0  0  0  0  0  0
  142.8055   74.9603  219.0532 H   0  0  0  0  0  0  0  0  0  0  0  0
  144.5023   75.8216  220.6400 H   0  0  0  0  0  0  0  0  0  0  0  0
  146.0801   74.2872  221.7912 H   0  0  0  0  0  0  0  0  0  0  0  0
  145.9525   71.8355  221.3443 H   0  0  0  0  0  0  0  0  0  0  0  0
  144.2642   70.9760  219.7592 H   0  0  0  0  0  0  0  0  0  0  0  0
  139.1169   69.6374  222.5138 H   0  0  0  0  0  0  0  0  0  0  0  0
  140.5070   69.0872  223.4720 H   0  0  0  0  0  0  0  0  0  0  0  0
  137.8710   70.1625  224.6916 H   0  0  0  0  0  0  0  0  0  0  0  0
  138.2105   68.4429  224.5150 H   0  0  0  0  0  0  0  0  0  0  0  0
  138.9025   67.5699  226.6268 H   0  0  0  0  0  0  0  0  0  0  0  0
  140.3853   67.7971  228.6337 H   0  0  0  0  0  0  0  0  0  0  0  0
  141.7824   69.7944  228.9323 H   0  0  0  0  0  0  0  0  0  0  0  0
  141.7756   71.6359  227.2659 H   0  0  0  0  0  0  0  0  0  0  0  0
  139.4619   72.3888  225.2214 H   0  0  0  0  0  0  0  0  0  0  0  0
  141.2458   72.2101  224.9662 H   0  0  0  0  0  0  0  0  0  0  0  0
  139.7513   77.0547  223.6056 H   0  0  0  0  0  0  0  0  0  0  0  0
  139.4191   77.9755  222.0757 H   0  0  0  0  0  0  0  0  0  0  0  0
  141.6794   78.2284  224.0291 H   0  0  0  0  0  0  0  0  0  0  0  0
  140.6210   79.4902  223.2361 H   0  0  0  0  0  0  0  0  0  0  0  0
  1  2  1  0
  2  3  1  0
  3  4  1  0
  4  5  1  0
  5  6  1  0
  6  7  1  0
  7  8  2  0
  8  9  1  0
  9 10  1  0
 10 11  1  0
 11 12  1  0
 12 13  2  0
 13 14  1  0
 14 15  2  0
 15 16  1  0
 16 17  2  0
  9 18  2  0
 18 19  1  0
 19 20  1  0
 20 21  1  0
 21 22  1  0
 22 23  1  0
 23 24  2  0
 24 25  1  0
 25 26  2  0
 26 27  1  0
 27 28  2  0
 28 29  1  0
 19 30  2  0
  5 31  1  0
 31 32  1  0
 32  2  1  0
 30  7  1  0
 17 12  1  0
 29 20  1  0
 28 23  1  0
  1 33  1  0
  1 34  1  0
  2 35  1  1
  3 36  1  0
  3 37  1  0
  4 38  1  0
  4 39  1  0
  5 40  1  1
  6 41  1  0
 10 42  1  0
 11 43  1  0
 11 44  1  0
 13 45  1  0
 14 46  1  0
 15 47  1  0
 16 48  1  0
 17 49  1  0
 21 50  1  0
 21 51  1  0
 22 52  1  0
 22 53  1  0
 24 54  1  0
 25 55  1  0
 26 56  1  0
 27 57  1  0
 29 58  1  0
 29 59  1  0
 31 60  1  0
 31 61  1  0
 32 62  1  0
 32 63  1  0
M  END
>  <smiles>  (17) 
NC1CCC(Nc2nc(NCc3ccccc3)nc(N3CCc4ccccc4C3)n2)CC1

>  <score_type>  (17) 
oracle

>  <origin>  (17) 
autodockgpu

>  <m_score__min__energy>  (17) 
-9.7599999999999998

>  <m_primary>  (17) 
energy

>  <rmsd>  (17) 
3.916099260151606

>  <m_score__min__rmsd>  (17) 
3.916099260151606

>  <meeko>  (17) 
{"free_energy": -8.5, "intermolecular_energy": -10.59, "internal_energy": -1.6, "cluster_size": 7, "cluster_id": 4, "rank_in_cluster": 6}

>  <energy>  (17) 
-9.42

>  <cluster_rmsd>  (17) 
0.43

>  <cluster>  (17) 
2

$$$$

     RDKit          3D

 63 67  0  0  0  0  0  0  0  0999 V2000
  140.3900   67.8410  227.7000 N   0  0  0  0  0  0  0  0  0  0  0  0
  140.6010   68.5420  226.4230 C   0  0  2  0  0  0  0  0  0  0  0  0
  140.8310   69.9740  226.7720 C   0  0  0  0  0  0  0  0  0  0  0  0
  140.7990   70.9250  225.6020 C   0  0  0  0  0  0  0  0  0  0  0  0
  139.9440   70.4500  224.4790 C   0  0  2  0  0  0  0  0  0  0  0  0
  139.3070   71.6000  223.8660 N   0  0  0  0  0  0  0  0  0  0  0  0
  139.8970   72.1700  222.7080 C   0  0  0  0  0  0  0  0  0  0  0  0
  140.4140   71.3980  221.7510 N   0  0  0  0  0  0  0  0  0  0  0  0
  140.9840   71.9240  220.6360 C   0  0  0  0  0  0  0  0  0  0  0  0
  141.4940   70.9850  219.6970 N   0  0  0  0  0  0  0  0  0  0  0  0
  142.9010   70.8600  219.3770 C   0  0  0  0  0  0  0  0  0  0  0  0
  143.6380   72.1220  219.7180 C   0  0  0  0  0  0  0  0  0  0  0  0
  143.4990   73.2770  218.9740 C   0  0  0  0  0  0  0  0  0  0  0  0
  144.2060   74.4100  219.3410 C   0  0  0  0  0  0  0  0  0  0  0  0
  145.0550   74.4160  220.4430 C   0  0  0  0  0  0  0  0  0  0  0  0
  145.1960   73.2630  221.1900 C   0  0  0  0  0  0  0  0  0  0  0  0
  144.4920   72.1350  220.8240 C   0  0  0  0  0  0  0  0  0  0  0  0
  141.0470   73.2550  220.4570 N   0  0  0  0  0  0  0  0  0  0  0  0
  140.5230   74.0240  221.4270 C   0  0  0  0  0  0  0  0  0  0  0  0
  140.5910   75.4320  221.2340 N   0  0  0  0  0  0  0  0  0  0  0  0
  140.1830   76.0050  219.9690 C   0  0  0  0  0  0  0  0  0  0  0  0
  141.1410   77.1690  219.6850 C   0  0  0  0  0  0  0  0  0  0  0  0
  140.8440   78.1710  220.7560 C   0  0  0  0  0  0  0  0  0  0  0  0
  140.6150   79.4930  220.4240 C   0  0  0  0  0  0  0  0  0  0  0  0
  140.3470   80.3600  221.4700 C   0  0  0  0  0  0  0  0  0  0  0  0
  140.3150   79.9090  222.7730 C   0  0  0  0  0  0  0  0  0  0  0  0
  140.5460   78.5850  223.0920 C   0  0  0  0  0  0  0  0  0  0  0  0
  140.8150   77.7050  222.0560 C   0  0  0  0  0  0  0  0  0  0  0  0
  141.0740   76.2660  222.3210 C   0  0  0  0  0  0  0  0  0  0  0  0
  139.9610   73.5020  222.5300 N   0  0  0  0  0  0  0  0  0  0  0  0
  138.8420   69.5160  224.9250 C   0  0  0  0  0  0  0  0  0  0  0  0
  139.3820   68.2860  225.6090 C   0  0  0  0  0  0  0  0  0  0  0  0
  139.4510   67.3830  227.6620 H   0  0  0  0  0  0  0  0  0  0  0  0
  141.0790   67.0320  227.6770 H   0  0  0  0  0  0  0  0  0  0  0  0
  141.4655   68.2087  225.8301 H   0  0  0  0  0  0  0  0  0  0  0  0
  141.8178   70.0548  227.2513 H   0  0  0  0  0  0  0  0  0  0  0  0
  140.0015   70.2681  227.4318 H   0  0  0  0  0  0  0  0  0  0  0  0
  141.8257   71.0537  225.2287 H   0  0  0  0  0  0  0  0  0  0  0  0
  140.3671   71.8702  225.9626 H   0  0  0  0  0  0  0  0  0  0  0  0
  140.6009   69.9037  223.7861 H   0  0  0  0  0  0  0  0  0  0  0  0
  138.4250   72.0350  224.2360 H   0  0  0  0  0  0  0  0  0  0  0  0
  140.7700   70.3680  219.2340 H   0  0  0  0  0  0  0  0  0  0  0  0
  143.3291   70.0256  219.9519 H   0  0  0  0  0  0  0  0  0  0  0  0
  143.0024   70.6725  218.2978 H   0  0  0  0  0  0  0  0  0  0  0  0
  142.8333   73.2970  218.0985 H   0  0  0  0  0  0  0  0  0  0  0  0
  144.0933   75.3283  218.7461 H   0  0  0  0  0  0  0  0  0  0  0  0
  145.6070   75.3275  220.7159 H   0  0  0  0  0  0  0  0  0  0  0  0
  145.8614   73.2446  222.0658 H   0  0  0  0  0  0  0  0  0  0  0  0
  144.6062   71.2179  221.4206 H   0  0  0  0  0  0  0  0  0  0  0  0
  140.2541   75.2516  219.1707 H   0  0  0  0  0  0  0  0  0  0  0  0
  139.1396   76.3510  220.0087 H   0  0  0  0  0  0  0  0  0  0  0  0
  142.1872   76.8346  219.7452 H   0  0  0  0  0  0  0  0  0  0  0  0
  141.0056   77.5844  218.6755 H   0  0  0  0  0  0  0  0  0  0  0  0
  140.6442   79.8393  219.3804 H   0  0  0  0  0  0  0  0  0  0  0  0
  140.1571   81.4227  221.2588 H   0  0  0  0  0  0  0  0  0  0  0  0
  140.0995   80.6237  223.5809 H   0  0  0  0  0  0  0  0  0  0  0  0
  140.5173   78.2399  224.1361 H   0  0  0  0  0  0  0  0  0  0  0  0
  142.1572   76.1125  222.4359 H   0  0  0  0  0  0  0  0  0  0  0  0
  140.5400   75.9814  223.2396 H   0  0  0  0  0  0  0  0  0  0  0  0
  138.2620   69.2056  224.0434 H   0  0  0  0  0  0  0  0  0  0  0  0
  138.2126   70.0561  225.6476 H   0  0  0  0  0  0  0  0  0  0  0  0
  139.6287   67.5402  224.8389 H   0  0  0  0  0  0  0  0  0  0  0  0
  138.6020   67.9331  226.2996 H   0  0  0  0  0  0  0  0  0  0  0  0
  1  2  1  0
  2  3  1  0
  3  4  1  0
  4  5  1  0
  5  6  1  0
  6  7  1  0
  7  8  2  0
  8  9  1  0
  9 10  1  0
 10 11  1  0
 11 12  1  0
 12 13  2  0
 13 14  1  0
 14 15  2  0
 15 16  1  0
 16 17  2  0
  9 18  2  0
 18 19  1  0
 19 20  1  0
 20 21  1  0
 21 22  1  0
 22 23  1  0
 23 24  2  0
 24 25  1  0
 25 26  2  0
 26 27  1  0
 27 28  2  0
 28 29  1  0
 19 30  2  0
  5 31  1  0
 31 32  1  0
 32  2  1  0
 30  7  1  0
 17 12  1  0
 29 20  1  0
 28 23  1  0
  1 33  1  0
  1 34  1  0
  2 35  1  6
  3 36  1  0
  3 37  1  0
  4 38  1  0
  4 39  1  0
  5 40  1  6
  6 41  1  0
 10 42  1  0
 11 43  1  0
 11 44  1  0
 13 45  1  0
 14 46  1  0
 15 47  1  0
 16 48  1  0
 17 49  1  0
 21 50  1  0
 21 51  1  0
 22 52  1  0
 22 53  1  0
 24 54  1  0
 25 55  1  0
 26 56  1  0
 27 57  1  0
 29 58  1  0
 29 59  1  0
 31 60  1  0
 31 61  1  0
 32 62  1  0
 32 63  1  0
M  END
>  <smiles>  (18) 
NC1CCC(Nc2nc(NCc3ccccc3)nc(N3CCc4ccccc4C3)n2)CC1

>  <score_type>  (18) 
oracle

>  <origin>  (18) 
autodockgpu

>  <m_score__min__energy>  (18) 
-9.7599999999999998

>  <m_primary>  (18) 
energy

>  <rmsd>  (18) 
9.961410227556488

>  <m_score__min__rmsd>  (18) 
9.961410227556488

>  <meeko>  (18) 
{"free_energy": -8.62, "intermolecular_energy": -10.71, "internal_energy": -1.46, "cluster_size": 12, "cluster_id": 3, "rank_in_cluster": 10}

>  <energy>  (18) 
-9.4

>  <cluster_rmsd>  (18) 
1.8

>  <cluster>  (18) 
2

$$$$

     RDKit          3D

 63 67  0  0  0  0  0  0  0  0999 V2000
  139.8480   67.7540  227.5340 N   0  0  0  0  0  0  0  0  0  0  0  0
  140.1990   68.4740  226.3000 C   0  0  2  0  0  0  0  0  0  0  0  0
  140.5220   69.8690  226.7160 C   0  0  0  0  0  0  0  0  0  0  0  0
  140.6450   70.8560  225.5820 C   0  0  0  0  0  0  0  0  0  0  0  0
  139.8300   70.4910  224.3900 C   0  0  2  0  0  0  0  0  0  0  0  0
  139.3310   71.7100  223.7820 N   0  0  0  0  0  0  0  0  0  0  0  0
  140.1400   72.3730  222.8210 C   0  0  0  0  0  0  0  0  0  0  0  0
  139.9300   73.6540  222.5160 N   0  0  0  0  0  0  0  0  0  0  0  0
  140.6920   74.3060  221.5990 C   0  0  0  0  0  0  0  0  0  0  0  0
  140.3580   75.6700  221.3710 N   0  0  0  0  0  0  0  0  0  0  0  0
  141.2510   76.6140  220.7320 C   0  0  0  0  0  0  0  0  0  0  0  0
  141.4520   77.8250  221.5950 C   0  0  0  0  0  0  0  0  0  0  0  0
  141.8120   79.0500  221.0690 C   0  0  0  0  0  0  0  0  0  0  0  0
  141.9820   80.1300  221.9190 C   0  0  0  0  0  0  0  0  0  0  0  0
  141.7990   80.0150  223.2930 C   0  0  0  0  0  0  0  0  0  0  0  0
  141.4390   78.7920  223.8220 C   0  0  0  0  0  0  0  0  0  0  0  0
  141.2700   77.7160  222.9760 C   0  0  0  0  0  0  0  0  0  0  0  0
  141.6930   73.6750  220.9620 N   0  0  0  0  0  0  0  0  0  0  0  0
  141.8970   72.3840  221.2770 C   0  0  0  0  0  0  0  0  0  0  0  0
  142.9570   71.7190  220.6010 N   0  0  0  0  0  0  0  0  0  0  0  0
  144.2710   72.3240  220.5560 C   0  0  0  0  0  0  0  0  0  0  0  0
  144.8520   72.0120  219.1710 C   0  0  0  0  0  0  0  0  0  0  0  0
  145.0330   70.5260  219.1640 C   0  0  0  0  0  0  0  0  0  0  0  0
  146.2390   69.9780  218.7720 C   0  0  0  0  0  0  0  0  0  0  0  0
  146.3300   68.5970  218.7920 C   0  0  0  0  0  0  0  0  0  0  0  0
  145.2590   67.8220  219.1870 C   0  0  0  0  0  0  0  0  0  0  0  0
  144.0580   68.3830  219.5760 C   0  0  0  0  0  0  0  0  0  0  0  0
  143.9520   69.7640  219.5610 C   0  0  0  0  0  0  0  0  0  0  0  0
  142.6920   70.4400  219.9670 C   0  0  0  0  0  0  0  0  0  0  0  0
  141.1410   71.7410  222.1830 N   0  0  0  0  0  0  0  0  0  0  0  0
  138.6280   69.6410  224.7320 C   0  0  0  0  0  0  0  0  0  0  0  0
  139.0180   68.3480  225.4010 C   0  0  0  0  0  0  0  0  0  0  0  0
  139.3070   66.9000  227.2630 H   0  0  0  0  0  0  0  0  0  0  0  0
  140.7730   67.3760  227.8940 H   0  0  0  0  0  0  0  0  0  0  0  0
  141.0699   68.0875  225.7503 H   0  0  0  0  0  0  0  0  0  0  0  0
  141.4784   69.8511  227.2591 H   0  0  0  0  0  0  0  0  0  0  0  0
  139.6781   70.2108  227.3332 H   0  0  0  0  0  0  0  0  0  0  0  0
  141.7012   70.9096  225.2793 H   0  0  0  0  0  0  0  0  0  0  0  0
  140.2686   71.8220  225.9496 H   0  0  0  0  0  0  0  0  0  0  0  0
  140.4835   69.9138  223.7194 H   0  0  0  0  0  0  0  0  0  0  0  0
  138.3970   72.1300  224.0150 H   0  0  0  0  0  0  0  0  0  0  0  0
  139.3980   75.9630  221.7050 H   0  0  0  0  0  0  0  0  0  0  0  0
  142.2232   76.1298  220.5579 H   0  0  0  0  0  0  0  0  0  0  0  0
  140.8050   76.9310  219.7777 H   0  0  0  0  0  0  0  0  0  0  0  0
  141.9622   79.1668  219.9856 H   0  0  0  0  0  0  0  0  0  0  0  0
  142.2692   81.1042  221.4965 H   0  0  0  0  0  0  0  0  0  0  0  0
  141.9392   80.8867  223.9490 H   0  0  0  0  0  0  0  0  0  0  0  0
  141.2887   78.6769  224.9056 H   0  0  0  0  0  0  0  0  0  0  0  0
  140.9834   76.7428  223.4012 H   0  0  0  0  0  0  0  0  0  0  0  0
  144.1926   73.4120  220.6980 H   0  0  0  0  0  0  0  0  0  0  0  0
  144.9164   71.9288  221.3543 H   0  0  0  0  0  0  0  0  0  0  0  0
  144.1550   72.3221  218.3785 H   0  0  0  0  0  0  0  0  0  0  0  0
  145.7940   72.5481  218.9832 H   0  0  0  0  0  0  0  0  0  0  0  0
  147.0849   70.6079  218.4595 H   0  0  0  0  0  0  0  0  0  0  0  0
  147.2690   68.1107  218.4889 H   0  0  0  0  0  0  0  0  0  0  0  0
  145.3644   66.7271  219.1923 H   0  0  0  0  0  0  0  0  0  0  0  0
  143.2122   67.7526  219.8879 H   0  0  0  0  0  0  0  0  0  0  0  0
  142.0708   70.6050  219.0743 H   0  0  0  0  0  0  0  0  0  0  0  0
  142.1717   69.7960  220.6913 H   0  0  0  0  0  0  0  0  0  0  0  0
  138.0821   69.4100  223.8054 H   0  0  0  0  0  0  0  0  0  0  0  0
  138.0008   70.2094  225.4345 H   0  0  0  0  0  0  0  0  0  0  0  0
  139.2526   67.6095  224.6202 H   0  0  0  0  0  0  0  0  0  0  0  0
  138.1677   68.0395  226.0270 H   0  0  0  0  0  0  0  0  0  0  0  0
  1  2  1  0
  2  3  1  0
  3  4  1  0
  4  5  1  0
  5  6  1  0
  6  7  1  0
  7  8  2  0
  8  9  1  0
  9 10  1  0
 10 11  1  0
 11 12  1  0
 12 13  2  0
 13 14  1  0
 14 15  2  0
 15 16  1  0
 16 17  2  0
  9 18  2  0
 18 19  1  0
 19 20  1  0
 20 21  1  0
 21 22  1  0
 22 23  1  0
 23 24  2  0
 24 25  1  0
 25 26  2  0
 26 27  1  0
 27 28  2  0
 28 29  1  0
 19 30  2  0
  5 31  1  0
 31 32  1  0
 32  2  1  0
 30  7  1  0
 17 12  1  0
 29 20  1  0
 28 23  1  0
  1 33  1  0
  1 34  1  0
  2 35  1  6
  3 36  1  0
  3 37  1  0
  4 38  1  0
  4 39  1  0
  5 40  1  6
  6 41  1  0
 10 42  1  0
 11 43  1  0
 11 44  1  0
 13 45  1  0
 14 46  1  0
 15 47  1  0
 16 48  1  0
 17 49  1  0
 21 50  1  0
 21 51  1  0
 22 52  1  0
 22 53  1  0
 24 54  1  0
 25 55  1  0
 26 56  1  0
 27 57  1  0
 29 58  1  0
 29 59  1  0
 31 60  1  0
 31 61  1  0
 32 62  1  0
 32 63  1  0
M  END
>  <smiles>  (19) 
NC1CCC(Nc2nc(NCc3ccccc3)nc(N3CCc4ccccc4C3)n2)CC1

>  <score_type>  (19) 
oracle

>  <origin>  (19) 
autodockgpu

>  <m_score__min__energy>  (19) 
-9.7599999999999998

>  <m_primary>  (19) 
energy

>  <rmsd>  (19) 
7.980342264535697

>  <m_score__min__rmsd>  (19) 
7.980342264535697

>  <meeko>  (19) 
{"free_energy": -9.68, "intermolecular_energy": -11.77, "internal_energy": -0.91, "cluster_size": 12, "cluster_id": 3, "rank_in_cluster": 2}

>  <energy>  (19) 
-9.4

>  <cluster_rmsd>  (19) 
0.6

>  <cluster>  (19) 
2

$$$$

     RDKit          3D

 63 67  0  0  0  0  0  0  0  0999 V2000
  142.8870   79.5410  217.4970 N   0  0  0  0  0  0  0  0  0  0  0  0
  142.0750   78.4770  218.1080 C   0  0  2  0  0  0  0  0  0  0  0  0
  141.5340   79.0490  219.3750 C   0  0  0  0  0  0  0  0  0  0  0  0
  140.8950   78.0450  220.3010 C   0  0  0  0  0  0  0  0  0  0  0  0
  141.4500   76.6710  220.1570 C   0  0  2  0  0  0  0  0  0  0  0  0
  141.4680   76.0410  221.4630 N   0  0  0  0  0  0  0  0  0  0  0  0
  141.4370   74.6230  221.5370 C   0  0  0  0  0  0  0  0  0  0  0  0
  140.4870   73.9940  222.2310 N   0  0  0  0  0  0  0  0  0  0  0  0
  140.4410   72.6390  222.3150 C   0  0  0  0  0  0  0  0  0  0  0  0
  139.3740   72.1010  223.0880 N   0  0  0  0  0  0  0  0  0  0  0  0
  139.4050   70.7810  223.6820 C   0  0  0  0  0  0  0  0  0  0  0  0
  139.9030   70.8460  225.0950 C   0  0  0  0  0  0  0  0  0  0  0  0
  140.7320   71.8600  225.5360 C   0  0  0  0  0  0  0  0  0  0  0  0
  141.1580   71.8640  226.8540 C   0  0  0  0  0  0  0  0  0  0  0  0
  140.7720   70.8720  227.7490 C   0  0  0  0  0  0  0  0  0  0  0  0
  139.9440   69.8570  227.3130 C   0  0  0  0  0  0  0  0  0  0  0  0
  139.5200   69.8530  226.0010 C   0  0  0  0  0  0  0  0  0  0  0  0
  141.3590   71.8780  221.6950 N   0  0  0  0  0  0  0  0  0  0  0  0
  142.3110   72.5220  220.9970 C   0  0  0  0  0  0  0  0  0  0  0  0
  143.2820   71.7140  220.3420 N   0  0  0  0  0  0  0  0  0  0  0  0
  144.6300   72.2120  220.1660 C   0  0  0  0  0  0  0  0  0  0  0  0
  145.1040   71.7170  218.7930 C   0  0  0  0  0  0  0  0  0  0  0  0
  145.1820   70.2290  218.9350 C   0  0  0  0  0  0  0  0  0  0  0  0
  146.3220   69.5550  218.5420 C   0  0  0  0  0  0  0  0  0  0  0  0
  146.3190   68.1800  218.7040 C   0  0  0  0  0  0  0  0  0  0  0  0
  145.2220   67.5320  219.2330 C   0  0  0  0  0  0  0  0  0  0  0  0
  144.0880   68.2180  219.6220 C   0  0  0  0  0  0  0  0  0  0  0  0
  144.0760   69.5940  219.4660 C   0  0  0  0  0  0  0  0  0  0  0  0
  142.8920   70.4000  219.8620 C   0  0  0  0  0  0  0  0  0  0  0  0
  142.3570   73.8620  220.9170 N   0  0  0  0  0  0  0  0  0  0  0  0
  142.8700   76.6560  219.6370 C   0  0  0  0  0  0  0  0  0  0  0  0
  142.9870   77.3150  218.2860 C   0  0  0  0  0  0  0  0  0  0  0  0
  143.8670   79.4360  217.8480 H   0  0  0  0  0  0  0  0  0  0  0  0
  142.9460   79.2750  216.4700 H   0  0  0  0  0  0  0  0  0  0  0  0
  141.2164   78.1285  217.5153 H   0  0  0  0  0  0  0  0  0  0  0  0
  140.7773   79.8035  219.1139 H   0  0  0  0  0  0  0  0  0  0  0  0
  142.3947   79.4666  219.9181 H   0  0  0  0  0  0  0  0  0  0  0  0
  139.8167   78.0098  220.0865 H   0  0  0  0  0  0  0  0  0  0  0  0
  141.1037   78.3734  221.3299 H   0  0  0  0  0  0  0  0  0  0  0  0
  140.8106   76.1422  219.4348 H   0  0  0  0  0  0  0  0  0  0  0  0
  141.5050   76.5810  222.3640 H   0  0  0  0  0  0  0  0  0  0  0  0
  138.5350   72.7350  223.2060 H   0  0  0  0  0  0  0  0  0  0  0  0
  138.3893   70.3588  223.6764 H   0  0  0  0  0  0  0  0  0  0  0  0
  140.0861   70.1461  223.0963 H   0  0  0  0  0  0  0  0  0  0  0  0
  141.0504   72.6562  224.8470 H   0  0  0  0  0  0  0  0  0  0  0  0
  141.8183   72.6722  227.2016 H   0  0  0  0  0  0  0  0  0  0  0  0
  141.1221   70.8958  228.7915 H   0  0  0  0  0  0  0  0  0  0  0  0
  139.6266   69.0617  228.0034 H   0  0  0  0  0  0  0  0  0  0  0  0
  138.8599   69.0432  225.6567 H   0  0  0  0  0  0  0  0  0  0  0  0
  144.6354   73.3116  220.1957 H   0  0  0  0  0  0  0  0  0  0  0  0
  145.2931   71.8542  220.9675 H   0  0  0  0  0  0  0  0  0  0  0  0
  144.3834   71.9952  218.0098 H   0  0  0  0  0  0  0  0  0  0  0  0
  146.0675   72.1594  218.4997 H   0  0  0  0  0  0  0  0  0  0  0  0
  147.1894   70.0846  218.1211 H   0  0  0  0  0  0  0  0  0  0  0  0
  147.2030   67.5966  218.4070 H   0  0  0  0  0  0  0  0  0  0  0  0
  145.2512   66.4384  219.3482 H   0  0  0  0  0  0  0  0  0  0  0  0
  143.2210   67.6876  220.0428 H   0  0  0  0  0  0  0  0  0  0  0  0
  142.2321   70.5188  218.9900 H   0  0  0  0  0  0  0  0  0  0  0  0
  142.3719   69.8743  220.6763 H   0  0  0  0  0  0  0  0  0  0  0  0
  143.2056   75.6119  219.5524 H   0  0  0  0  0  0  0  0  0  0  0  0
  143.4954   77.2206  220.3442 H   0  0  0  0  0  0  0  0  0  0  0  0
  142.7528   76.5678  217.5134 H   0  0  0  0  0  0  0  0  0  0  0  0
  144.0152   77.6966  218.2017 H   0  0  0  0  0  0  0  0  0  0  0  0
  1  2  1  0
  2  3  1  0
  3  4  1  0
  4  5  1  0
  5  6  1  0
  6  7  1  0
  7  8  2  0
  8  9  1  0
  9 10  1  0
 10 11  1  0
 11 12  1  0
 12 13  2  0
 13 14  1  0
 14 15  2  0
 15 16  1  0
 16 17  2  0
  9 18  2  0
 18 19  1  0
 19 20  1  0
 20 21  1  0
 21 22  1  0
 22 23  1  0
 23 24  2  0
 24 25  1  0
 25 26  2  0
 26 27  1  0
 27 28  2  0
 28 29  1  0
 19 30  2  0
  5 31  1  0
 31 32  1  0
 32  2  1  0
 30  7  1  0
 17 12  1  0
 29 20  1  0
 28 23  1  0
  1 33  1  0
  1 34  1  0
  2 35  1  6
  3 36  1  0
  3 37  1  0
  4 38  1  0
  4 39  1  0
  5 40  1  6
  6 41  1  0
 10 42  1  0
 11 43  1  0
 11 44  1  0
 13 45  1  0
 14 46  1  0
 15 47  1  0
 16 48  1  0
 17 49  1  0
 21 50  1  0
 21 51  1  0
 22 52  1  0
 22 53  1  0
 24 54  1  0
 25 55  1  0
 26 56  1  0
 27 57  1  0
 29 58  1  0
 29 59  1  0
 31 60  1  0
 31 61  1  0
 32 62  1  0
 32 63  1  0
M  END
>  <smiles>  (20) 
NC1CCC(Nc2nc(NCc3ccccc3)nc(N3CCc4ccccc4C3)n2)CC1

>  <score_type>  (20) 
oracle

>  <origin>  (20) 
autodockgpu

>  <m_score__min__energy>  (20) 
-9.7599999999999998

>  <m_primary>  (20) 
energy

>  <rmsd>  (20) 
8.188818562242766

>  <m_score__min__rmsd>  (20) 
8.188818562242766

>  <meeko>  (20) 
{"free_energy": -9.76, "intermolecular_energy": -11.85, "internal_energy": -1.01, "cluster_size": 6, "cluster_id": 2, "rank_in_cluster": 1}

>  <energy>  (20) 
-9.33

>  <cluster_rmsd>  (20) 
1.78

>  <cluster>  (20) 
2

$$$$

     RDKit          3D

 63 67  0  0  0  0  0  0  0  0999 V2000
  139.8680   67.7750  227.4590 N   0  0  0  0  0  0  0  0  0  0  0  0
  140.2100   68.4950  226.2220 C   0  0  2  0  0  0  0  0  0  0  0  0
  140.5270   69.8930  226.6350 C   0  0  0  0  0  0  0  0  0  0  0  0
  140.6400   70.8790  225.4990 C   0  0  0  0  0  0  0  0  0  0  0  0
  139.8220   70.5070  224.3110 C   0  0  2  0  0  0  0  0  0  0  0  0
  139.3130   71.7220  223.7030 N   0  0  0  0  0  0  0  0  0  0  0  0
  140.1260   72.4050  222.7610 C   0  0  0  0  0  0  0  0  0  0  0  0
  139.9370   73.7000  222.5020 N   0  0  0  0  0  0  0  0  0  0  0  0
  140.7040   74.3700  221.6030 C   0  0  0  0  0  0  0  0  0  0  0  0
  140.3920   75.7470  221.4260 N   0  0  0  0  0  0  0  0  0  0  0  0
  141.3810   76.7540  221.1050 C   0  0  0  0  0  0  0  0  0  0  0  0
  141.1900   77.9760  221.9550 C   0  0  0  0  0  0  0  0  0  0  0  0
  140.0570   78.1670  222.7220 C   0  0  0  0  0  0  0  0  0  0  0  0
  139.9400   79.3160  223.4860 C   0  0  0  0  0  0  0  0  0  0  0  0
  140.9360   80.2870  223.5010 C   0  0  0  0  0  0  0  0  0  0  0  0
  142.0700   80.1000  222.7360 C   0  0  0  0  0  0  0  0  0  0  0  0
  142.1860   78.9560  221.9750 C   0  0  0  0  0  0  0  0  0  0  0  0
  141.6900   73.7450  220.9370 N   0  0  0  0  0  0  0  0  0  0  0  0
  141.8730   72.4410  221.2050 C   0  0  0  0  0  0  0  0  0  0  0  0
  142.9180   71.7820  220.4990 N   0  0  0  0  0  0  0  0  0  0  0  0
  144.1810   72.4570  220.2910 C   0  0  0  0  0  0  0  0  0  0  0  0
  144.6680   72.0580  218.8920 C   0  0  0  0  0  0  0  0  0  0  0  0
  144.9450   70.5910  218.9940 C   0  0  0  0  0  0  0  0  0  0  0  0
  146.1500   70.0820  218.5470 C   0  0  0  0  0  0  0  0  0  0  0  0
  146.3340   68.7160  218.6750 C   0  0  0  0  0  0  0  0  0  0  0  0
  145.3510   67.9180  219.2230 C   0  0  0  0  0  0  0  0  0  0  0  0
  144.1510   68.4390  219.6650 C   0  0  0  0  0  0  0  0  0  0  0  0
  143.9530   69.8040  219.5450 C   0  0  0  0  0  0  0  0  0  0  0  0
  142.6880   70.4380  219.9980 C   0  0  0  0  0  0  0  0  0  0  0  0
  141.1130   71.7780  222.0940 N   0  0  0  0  0  0  0  0  0  0  0  0
  138.6250   69.6510  224.6600 C   0  0  0  0  0  0  0  0  0  0  0  0
  139.0260   68.3610  225.3300 C   0  0  0  0  0  0  0  0  0  0  0  0
  139.4440   66.8580  227.1890 H   0  0  0  0  0  0  0  0  0  0  0  0
  140.8070   67.5160  227.8850 H   0  0  0  0  0  0  0  0  0  0  0  0
  141.0806   68.1129  225.6688 H   0  0  0  0  0  0  0  0  0  0  0  0
  141.4856   69.8813  227.1743 H   0  0  0  0  0  0  0  0  0  0  0  0
  139.6836   70.2310  227.2551 H   0  0  0  0  0  0  0  0  0  0  0  0
  141.6946   70.9381  225.1919 H   0  0  0  0  0  0  0  0  0  0  0  0
  140.2600   71.8437  225.8665 H   0  0  0  0  0  0  0  0  0  0  0  0
  140.4762   69.9322  223.6390 H   0  0  0  0  0  0  0  0  0  0  0  0
  138.3680   72.1260  223.9240 H   0  0  0  0  0  0  0  0  0  0  0  0
  139.3710   75.9990  221.5440 H   0  0  0  0  0  0  0  0  0  0  0  0
  142.3856   76.3432  221.2839 H   0  0  0  0  0  0  0  0  0  0  0  0
  141.2668   77.0372  220.0482 H   0  0  0  0  0  0  0  0  0  0  0  0
  139.2555   77.4136  222.7258 H   0  0  0  0  0  0  0  0  0  0  0  0
  139.0369   79.4646  224.0962 H   0  0  0  0  0  0  0  0  0  0  0  0
  140.8215   81.1926  224.1148 H   0  0  0  0  0  0  0  0  0  0  0  0
  142.8708   80.8541  222.7336 H   0  0  0  0  0  0  0  0  0  0  0  0
  143.0899   78.8104  221.3652 H   0  0  0  0  0  0  0  0  0  0  0  0
  144.0425   73.5468  220.3478 H   0  0  0  0  0  0  0  0  0  0  0  0
  144.9133   72.1731  221.0611 H   0  0  0  0  0  0  0  0  0  0  0  0
  143.8906   72.2551  218.1391 H   0  0  0  0  0  0  0  0  0  0  0  0
  145.5544   72.6296  218.5796 H   0  0  0  0  0  0  0  0  0  0  0  0
  146.9243   70.7304  218.1111 H   0  0  0  0  0  0  0  0  0  0  0  0
  147.2761   68.2609  218.3354 H   0  0  0  0  0  0  0  0  0  0  0  0
  145.5282   66.8359  219.3103 H   0  0  0  0  0  0  0  0  0  0  0  0
  143.3764   67.7896  220.0990 H   0  0  0  0  0  0  0  0  0  0  0  0
  141.9887   70.4869  219.1503 H   0  0  0  0  0  0  0  0  0  0  0  0
  142.2699   69.8311  220.8147 H   0  0  0  0  0  0  0  0  0  0  0  0
  138.0762   69.4152  223.7363 H   0  0  0  0  0  0  0  0  0  0  0  0
  137.9973   70.2173  225.3638 H   0  0  0  0  0  0  0  0  0  0  0  0
  139.2606   67.6222  224.5495 H   0  0  0  0  0  0  0  0  0  0  0  0
  138.1807   68.0493  225.9611 H   0  0  0  0  0  0  0  0  0  0  0  0
  1  2  1  0
  2  3  1  0
  3  4  1  0
  4  5  1  0
  5  6  1  0
  6  7  1  0
  7  8  2  0
  8  9  1  0
  9 10  1  0
 10 11  1  0
 11 12  1  0
 12 13  2  0
 13 14  1  0
 14 15  2  0
 15 16  1  0
 16 17  2  0
  9 18  2  0
 18 19  1  0
 19 20  1  0
 20 21  1  0
 21 22  1  0
 22 23  1  0
 23 24  2  0
 24 25  1  0
 25 26  2  0
 26 27  1  0
 27 28  2  0
 28 29  1  0
 19 30  2  0
  5 31  1  0
 31 32  1  0
 32  2  1  0
 30  7  1  0
 17 12  1  0
 29 20  1  0
 28 23  1  0
  1 33  1  0
  1 34  1  0
  2 35  1  6
  3 36  1  0
  3 37  1  0
  4 38  1  0
  4 39  1  0
  5 40  1  6
  6 41  1  0
 10 42  1  0
 11 43  1  0
 11 44  1  0
 13 45  1  0
 14 46  1  0
 15 47  1  0
 16 48  1  0
 17 49  1  0
 21 50  1  0
 21 51  1  0
 22 52  1  0
 22 53  1  0
 24 54  1  0
 25 55  1  0
 26 56  1  0
 27 57  1  0
 29 58  1  0
 29 59  1  0
 31 60  1  0
 31 61  1  0
 32 62  1  0
 32 63  1  0
M  END
>  <smiles>  (21) 
NC1CCC(Nc2nc(NCc3ccccc3)nc(N3CCc4ccccc4C3)n2)CC1

>  <score_type>  (21) 
oracle

>  <origin>  (21) 
autodockgpu

>  <m_score__min__energy>  (21) 
-9.7599999999999998

>  <m_primary>  (21) 
energy

>  <rmsd>  (21) 
8.081298976146682

>  <m_score__min__rmsd>  (21) 
8.081298976146682

>  <meeko>  (21) 
{"free_energy": -9.49, "intermolecular_energy": -11.58, "internal_energy": -0.88, "cluster_size": 12, "cluster_id": 3, "rank_in_cluster": 7}

>  <energy>  (21) 
-9.22

>  <cluster_rmsd>  (21) 
0.74

>  <cluster>  (21) 
2

$$$$

     RDKit          3D

 63 67  0  0  0  0  0  0  0  0999 V2000
  146.6540   73.0770  221.3190 N   0  0  0  0  0  0  0  0  0  0  0  0
  145.7360   73.2640  220.1840 C   0  0  2  0  0  0  0  0  0  0  0  0
  144.9550   74.4980  220.4860 C   0  0  0  0  0  0  0  0  0  0  0  0
  143.7650   74.7300  219.5890 C   0  0  0  0  0  0  0  0  0  0  0  0
  143.1900   73.4730  219.0350 C   0  0  2  0  0  0  0  0  0  0  0  0
  141.7500   73.6260  218.9430 N   0  0  0  0  0  0  0  0  0  0  0  0
  141.0290   74.0040  220.1070 C   0  0  0  0  0  0  0  0  0  0  0  0
  140.4310   73.0890  220.8710 N   0  0  0  0  0  0  0  0  0  0  0  0
  139.7370   73.4320  221.9870 C   0  0  0  0  0  0  0  0  0  0  0  0
  139.1510   72.3540  222.7090 N   0  0  0  0  0  0  0  0  0  0  0  0
  139.7990   71.0740  222.8970 C   0  0  0  0  0  0  0  0  0  0  0  0
  140.0580   70.8180  224.3530 C   0  0  0  0  0  0  0  0  0  0  0  0
  139.6710   69.6460  224.9720 C   0  0  0  0  0  0  0  0  0  0  0  0
  139.9390   69.4690  226.3200 C   0  0  0  0  0  0  0  0  0  0  0  0
  140.5900   70.4440  227.0690 C   0  0  0  0  0  0  0  0  0  0  0  0
  140.9790   71.6170  226.4530 C   0  0  0  0  0  0  0  0  0  0  0  0
  140.7120   71.7920  225.1110 C   0  0  0  0  0  0  0  0  0  0  0  0
  139.6270   74.7170  222.3630 N   0  0  0  0  0  0  0  0  0  0  0  0
  140.2330   75.6320  221.5860 C   0  0  0  0  0  0  0  0  0  0  0  0
  140.1140   76.9920  221.9870 N   0  0  0  0  0  0  0  0  0  0  0  0
  141.1690   77.9300  221.6640 C   0  0  0  0  0  0  0  0  0  0  0  0
  141.2910   78.8820  222.8610 C   0  0  0  0  0  0  0  0  0  0  0  0
  139.9980   79.6360  222.8760 C   0  0  0  0  0  0  0  0  0  0  0  0
  140.0020   81.0150  222.9600 C   0  0  0  0  0  0  0  0  0  0  0  0
  138.7670   81.6410  222.9680 C   0  0  0  0  0  0  0  0  0  0  0  0
  137.6010   80.9080  222.8970 C   0  0  0  0  0  0  0  0  0  0  0  0
  137.6110   79.5290  222.8140 C   0  0  0  0  0  0  0  0  0  0  0  0
  138.8380   78.8880  222.8040 C   0  0  0  0  0  0  0  0  0  0  0  0
  138.9290   77.4080  222.7160 C   0  0  0  0  0  0  0  0  0  0  0  0
  140.9190   75.2920  220.4820 N   0  0  0  0  0  0  0  0  0  0  0  0
  143.4530   72.2650  219.9060 C   0  0  0  0  0  0  0  0  0  0  0  0
  144.9270   72.0170  220.1010 C   0  0  0  0  0  0  0  0  0  0  0  0
  146.5050   73.8700  221.9840 H   0  0  0  0  0  0  0  0  0  0  0  0
  146.2740   72.2280  221.8320 H   0  0  0  0  0  0  0  0  0  0  0  0
  146.2101   73.4107  219.2023 H   0  0  0  0  0  0  0  0  0  0  0  0
  145.6294   75.3617  220.3897 H   0  0  0  0  0  0  0  0  0  0  0  0
  144.5554   74.3699  221.5028 H   0  0  0  0  0  0  0  0  0  0  0  0
  144.0792   75.3692  218.7507 H   0  0  0  0  0  0  0  0  0  0  0  0
  142.9833   75.2033  220.2013 H   0  0  0  0  0  0  0  0  0  0  0  0
  143.6675   73.3065  218.0581 H   0  0  0  0  0  0  0  0  0  0  0  0
  141.2090   73.4720  218.0560 H   0  0  0  0  0  0  0  0  0  0  0  0
  138.1900   72.5460  223.1090 H   0  0  0  0  0  0  0  0  0  0  0  0
  139.1499   70.2792  222.5007 H   0  0  0  0  0  0  0  0  0  0  0  0
  140.7609   71.0834  222.3635 H   0  0  0  0  0  0  0  0  0  0  0  0
  139.1549   68.8604  224.4006 H   0  0  0  0  0  0  0  0  0  0  0  0
  139.6292   68.5342  226.8101 H   0  0  0  0  0  0  0  0  0  0  0  0
  140.7922   70.2826  228.1381 H   0  0  0  0  0  0  0  0  0  0  0  0
  141.4953   72.4019  227.0252 H   0  0  0  0  0  0  0  0  0  0  0  0
  141.0237   72.7272  224.6229 H   0  0  0  0  0  0  0  0  0  0  0  0
  142.1172   77.3952  221.5063 H   0  0  0  0  0  0  0  0  0  0  0  0
  140.9402   78.4816  220.7402 H   0  0  0  0  0  0  0  0  0  0  0  0
  141.4218   78.3165  223.7954 H   0  0  0  0  0  0  0  0  0  0  0  0
  142.1620   79.5486  222.7772 H   0  0  0  0  0  0  0  0  0  0  0  0
  140.9397   81.5872  223.0177 H   0  0  0  0  0  0  0  0  0  0  0  0
  138.7152   82.7379  223.0319 H   0  0  0  0  0  0  0  0  0  0  0  0
  136.6361   81.4361  222.9067 H   0  0  0  0  0  0  0  0  0  0  0  0
  136.6726   78.9578  222.7576 H   0  0  0  0  0  0  0  0  0  0  0  0
  138.9698   76.9909  223.7330 H   0  0  0  0  0  0  0  0  0  0  0  0
  138.0439   77.0383  222.1775 H   0  0  0  0  0  0  0  0  0  0  0  0
  143.0043   71.3804  219.4305 H   0  0  0  0  0  0  0  0  0  0  0  0
  143.0079   72.4560  220.8937 H   0  0  0  0  0  0  0  0  0  0  0  0
  145.2943   71.4202  219.2531 H   0  0  0  0  0  0  0  0  0  0  0  0
  145.0415   71.4940  221.0619 H   0  0  0  0  0  0  0  0  0  0  0  0
  1  2  1  0
  2  3  1  0
  3  4  1  0
  4  5  1  0
  5  6  1  0
  6  7  1  0
  7  8  2  0
  8  9  1  0
  9 10  1  0
 10 11  1  0
 11 12  1  0
 12 13  2  0
 13 14  1  0
 14 15  2  0
 15 16  1  0
 16 17  2  0
  9 18  2  0
 18 19  1  0
 19 20  1  0
 20 21  1  0
 21 22  1  0
 22 23  1  0
 23 24  2  0
 24 25  1  0
 25 26  2  0
 26 27  1  0
 27 28  2  0
 28 29  1  0
 19 30  2  0
  5 31  1  0
 31 32  1  0
 32  2  1  0
 30  7  1  0
 17 12  1  0
 29 20  1  0
 28 23  1  0
  1 33  1  0
  1 34  1  0
  2 35  1  6
  3 36  1  0
  3 37  1  0
  4 38  1  0
  4 39  1  0
  5 40  1  6
  6 41  1  0
 10 42  1  0
 11 43  1  0
 11 44  1  0
 13 45  1  0
 14 46  1  0
 15 47  1  0
 16 48  1  0
 17 49  1  0
 21 50  1  0
 21 51  1  0
 22 52  1  0
 22 53  1  0
 24 54  1  0
 25 55  1  0
 26 56  1  0
 27 57  1  0
 29 58  1  0
 29 59  1  0
 31 60  1  0
 31 61  1  0
 32 62  1  0
 32 63  1  0
M  END
>  <smiles>  (22) 
NC1CCC(Nc2nc(NCc3ccccc3)nc(N3CCc4ccccc4C3)n2)CC1

>  <score_type>  (22) 
oracle

>  <origin>  (22) 
autodockgpu

>  <m_score__min__energy>  (22) 
-9.7599999999999998

>  <m_primary>  (22) 
energy

>  <rmsd>  (22) 
10.259663346998936

>  <m_score__min__rmsd>  (22) 
10.259663346998936

>  <meeko>  (22) 
{"free_energy": -8.99, "intermolecular_energy": -11.08, "internal_energy": -1.16, "cluster_size": 15, "cluster_id": 1, "rank_in_cluster": 14}

>  <energy>  (22) 
-9.68

>  <cluster_rmsd>  (22) 
0.0

>  <cluster>  (22) 
3

$$$$

     RDKit          3D

 63 67  0  0  0  0  0  0  0  0999 V2000
  146.5920   73.1590  221.3930 N   0  0  0  0  0  0  0  0  0  0  0  0
  145.6520   73.1400  220.2610 C   0  0  2  0  0  0  0  0  0  0  0  0
  144.8870   74.4180  220.3400 C   0  0  0  0  0  0  0  0  0  0  0  0
  143.6800   74.4910  219.4390 C   0  0  0  0  0  0  0  0  0  0  0  0
  143.0840   73.1590  219.1420 C   0  0  2  0  0  0  0  0  0  0  0  0
  141.6430   73.3080  219.0520 N   0  0  0  0  0  0  0  0  0  0  0  0
  140.9330   73.7690  220.1910 C   0  0  0  0  0  0  0  0  0  0  0  0
  140.2170   72.9280  220.9390 N   0  0  0  0  0  0  0  0  0  0  0  0
  139.5290   73.3500  222.0320 C   0  0  0  0  0  0  0  0  0  0  0  0
  138.8090   72.3460  222.7380 N   0  0  0  0  0  0  0  0  0  0  0  0
  139.3030   70.9990  222.9360 C   0  0  0  0  0  0  0  0  0  0  0  0
  139.7320   70.7940  224.3580 C   0  0  0  0  0  0  0  0  0  0  0  0
  139.2310   69.7680  225.1360 C   0  0  0  0  0  0  0  0  0  0  0  0
  139.6690   69.6310  226.4430 C   0  0  0  0  0  0  0  0  0  0  0  0
  140.6020   70.5010  226.9960 C   0  0  0  0  0  0  0  0  0  0  0  0
  141.1060   71.5270  226.2220 C   0  0  0  0  0  0  0  0  0  0  0  0
  140.6700   71.6640  224.9210 C   0  0  0  0  0  0  0  0  0  0  0  0
  139.5470   74.6420  222.4010 N   0  0  0  0  0  0  0  0  0  0  0  0
  140.2710   75.4810  221.6410 C   0  0  0  0  0  0  0  0  0  0  0  0
  140.2870   76.8490  222.0340 N   0  0  0  0  0  0  0  0  0  0  0  0
  139.1440   77.4130  222.7190 C   0  0  0  0  0  0  0  0  0  0  0  0
  138.9880   78.8490  222.2040 C   0  0  0  0  0  0  0  0  0  0  0  0
  140.2110   79.5600  222.6940 C   0  0  0  0  0  0  0  0  0  0  0  0
  140.0910   80.7680  223.3550 C   0  0  0  0  0  0  0  0  0  0  0  0
  141.2660   81.3650  223.7790 C   0  0  0  0  0  0  0  0  0  0  0  0
  142.4880   80.7680  223.5430 C   0  0  0  0  0  0  0  0  0  0  0  0
  142.5940   79.5600  222.8820 C   0  0  0  0  0  0  0  0  0  0  0  0
  141.4270   78.9510  222.4520 C   0  0  0  0  0  0  0  0  0  0  0  0
  141.4600   77.6510  221.7340 C   0  0  0  0  0  0  0  0  0  0  0  0
  140.9500   75.0630  220.5590 N   0  0  0  0  0  0  0  0  0  0  0  0
  143.3560   72.1330  220.2200 C   0  0  0  0  0  0  0  0  0  0  0  0
  144.8320   71.9100  220.4290 C   0  0  0  0  0  0  0  0  0  0  0  0
  146.1620   73.7290  222.1560 H   0  0  0  0  0  0  0  0  0  0  0  0
  146.5790   72.1650  221.7670 H   0  0  0  0  0  0  0  0  0  0  0  0
  146.1069   73.0940  219.2605 H   0  0  0  0  0  0  0  0  0  0  0  0
  145.5659   75.2401  220.0694 H   0  0  0  0  0  0  0  0  0  0  0  0
  144.5081   74.4881  221.3703 H   0  0  0  0  0  0  0  0  0  0  0  0
  143.9809   74.9581  218.4897 H   0  0  0  0  0  0  0  0  0  0  0  0
  142.9150   75.0793  219.9669 H   0  0  0  0  0  0  0  0  0  0  0  0
  143.5393   72.8072  218.2045 H   0  0  0  0  0  0  0  0  0  0  0  0
  141.0950   73.0930  218.1820 H   0  0  0  0  0  0  0  0  0  0  0  0
  137.8690   72.6460  223.1190 H   0  0  0  0  0  0  0  0  0  0  0  0
  138.5045   70.2825  222.6932 H   0  0  0  0  0  0  0  0  0  0  0  0
  140.1711   70.8412  222.2791 H   0  0  0  0  0  0  0  0  0  0  0  0
  138.4916   69.0669  224.7216 H   0  0  0  0  0  0  0  0  0  0  0  0
  139.2683   68.8127  227.0593 H   0  0  0  0  0  0  0  0  0  0  0  0
  140.9343   70.3734  228.0368 H   0  0  0  0  0  0  0  0  0  0  0  0
  141.8461   72.2265  226.6379 H   0  0  0  0  0  0  0  0  0  0  0  0
  141.0728   72.4832  224.3073 H   0  0  0  0  0  0  0  0  0  0  0  0
  138.2399   76.8286  222.4930 H   0  0  0  0  0  0  0  0  0  0  0  0
  139.2877   77.3965  223.8094 H   0  0  0  0  0  0  0  0  0  0  0  0
  138.9436   78.8649  221.1050 H   0  0  0  0  0  0  0  0  0  0  0  0
  138.0601   79.3213  222.5589 H   0  0  0  0  0  0  0  0  0  0  0  0
  139.1102   81.2322  223.5353 H   0  0  0  0  0  0  0  0  0  0  0  0
  141.2252   82.3271  224.3106 H   0  0  0  0  0  0  0  0  0  0  0  0
  143.4035   81.2686  223.8913 H   0  0  0  0  0  0  0  0  0  0  0  0
  143.5751   79.0960  222.7027 H   0  0  0  0  0  0  0  0  0  0  0  0
  141.4959   77.8412  220.6512 H   0  0  0  0  0  0  0  0  0  0  0  0
  142.3513   77.0967  222.0632 H   0  0  0  0  0  0  0  0  0  0  0  0
  142.8908   71.1798  219.9284 H   0  0  0  0  0  0  0  0  0  0  0  0
  142.9330   72.5108  221.1625 H   0  0  0  0  0  0  0  0  0  0  0  0
  145.1766   71.1607  219.7011 H   0  0  0  0  0  0  0  0  0  0  0  0
  144.9627   71.5758  221.4688 H   0  0  0  0  0  0  0  0  0  0  0  0
  1  2  1  0
  2  3  1  0
  3  4  1  0
  4  5  1  0
  5  6  1  0
  6  7  1  0
  7  8  2  0
  8  9  1  0
  9 10  1  0
 10 11  1  0
 11 12  1  0
 12 13  2  0
 13 14  1  0
 14 15  2  0
 15 16  1  0
 16 17  2  0
  9 18  2  0
 18 19  1  0
 19 20  1  0
 20 21  1  0
 21 22  1  0
 22 23  1  0
 23 24  2  0
 24 25  1  0
 25 26  2  0
 26 27  1  0
 27 28  2  0
 28 29  1  0
 19 30  2  0
  5 31  1  0
 31 32  1  0
 32  2  1  0
 30  7  1  0
 17 12  1  0
 29 20  1  0
 28 23  1  0
  1 33  1  0
  1 34  1  0
  2 35  1  6
  3 36  1  0
  3 37  1  0
  4 38  1  0
  4 39  1  0
  5 40  1  6
  6 41  1  0
 10 42  1  0
 11 43  1  0
 11 44  1  0
 13 45  1  0
 14 46  1  0
 15 47  1  0
 16 48  1  0
 17 49  1  0
 21 50  1  0
 21 51  1  0
 22 52  1  0
 22 53  1  0
 24 54  1  0
 25 55  1  0
 26 56  1  0
 27 57  1  0
 29 58  1  0
 29 59  1  0
 31 60  1  0
 31 61  1  0
 32 62  1  0
 32 63  1  0
M  END
>  <smiles>  (23) 
NC1CCC(Nc2nc(NCc3ccccc3)nc(N3CCc4ccccc4C3)n2)CC1

>  <score_type>  (23) 
oracle

>  <origin>  (23) 
autodockgpu

>  <m_score__min__energy>  (23) 
-9.7599999999999998

>  <m_primary>  (23) 
energy

>  <rmsd>  (23) 
10.461695747637586

>  <m_score__min__rmsd>  (23) 
10.461695747637586

>  <meeko>  (23) 
{"free_energy": -9.61, "intermolecular_energy": -11.7, "internal_energy": -1.22, "cluster_size": 15, "cluster_id": 1, "rank_in_cluster": 6}

>  <energy>  (23) 
-9.68

>  <cluster_rmsd>  (23) 
0.12

>  <cluster>  (23) 
3

$$$$

     RDKit          3D

 63 67  0  0  0  0  0  0  0  0999 V2000
  142.5720   79.2170  217.5480 N   0  0  0  0  0  0  0  0  0  0  0  0
  142.6090   78.2360  218.6440 C   0  0  2  0  0  0  0  0  0  0  0  0
  141.9570   77.0030  218.1150 C   0  0  0  0  0  0  0  0  0  0  0  0
  141.6390   75.9580  219.1550 C   0  0  0  0  0  0  0  0  0  0  0  0
  141.4100   76.5270  220.5120 C   0  0  2  0  0  0  0  0  0  0  0  0
  140.3820   75.7440  221.1730 N   0  0  0  0  0  0  0  0  0  0  0  0
  140.6530   74.3850  221.4800 C   0  0  0  0  0  0  0  0  0  0  0  0
  139.9060   73.7180  222.3620 N   0  0  0  0  0  0  0  0  0  0  0  0
  140.1500   72.4180  222.6690 C   0  0  0  0  0  0  0  0  0  0  0  0
  139.2730   71.8320  223.6250 N   0  0  0  0  0  0  0  0  0  0  0  0
  139.5560   70.5880  224.3100 C   0  0  0  0  0  0  0  0  0  0  0  0
  140.0930   70.8490  225.6860 C   0  0  0  0  0  0  0  0  0  0  0  0
  140.9510   71.8980  225.9530 C   0  0  0  0  0  0  0  0  0  0  0  0
  141.4120   72.0870  227.2460 C   0  0  0  0  0  0  0  0  0  0  0  0
  141.0320   71.2460  228.2860 C   0  0  0  0  0  0  0  0  0  0  0  0
  140.1740   70.1960  228.0240 C   0  0  0  0  0  0  0  0  0  0  0  0
  139.7160   70.0080  226.7370 C   0  0  0  0  0  0  0  0  0  0  0  0
  141.1630   71.7520  222.0920 N   0  0  0  0  0  0  0  0  0  0  0  0
  141.9110   72.4310  221.2050 C   0  0  0  0  0  0  0  0  0  0  0  0
  142.9830   71.7230  220.5940 N   0  0  0  0  0  0  0  0  0  0  0  0
  144.3240   72.2680  220.6430 C   0  0  0  0  0  0  0  0  0  0  0  0
  144.9810   71.9390  219.2970 C   0  0  0  0  0  0  0  0  0  0  0  0
  145.0940   70.4460  219.2870 C   0  0  0  0  0  0  0  0  0  0  0  0
  146.2980   69.8460  218.9720 C   0  0  0  0  0  0  0  0  0  0  0  0
  146.3260   68.4610  218.9850 C   0  0  0  0  0  0  0  0  0  0  0  0
  145.1960   67.7340  219.3000 C   0  0  0  0  0  0  0  0  0  0  0  0
  143.9990   68.3470  219.6140 C   0  0  0  0  0  0  0  0  0  0  0  0
  143.9560   69.7310  219.6050 C   0  0  0  0  0  0  0  0  0  0  0  0
  142.7040   70.4620  219.9320 C   0  0  0  0  0  0  0  0  0  0  0  0
  141.6690   73.7180  220.9020 N   0  0  0  0  0  0  0  0  0  0  0  0
  140.9250   77.9590  220.4820 C   0  0  0  0  0  0  0  0  0  0  0  0
  141.9030   78.8740  219.7890 C   0  0  0  0  0  0  0  0  0  0  0  0
  143.5570   79.4960  217.3350 H   0  0  0  0  0  0  0  0  0  0  0  0
  142.2680   78.6560  216.6980 H   0  0  0  0  0  0  0  0  0  0  0  0
  143.6103   77.9487  218.9973 H   0  0  0  0  0  0  0  0  0  0  0  0
  142.6309   76.5518  217.3719 H   0  0  0  0  0  0  0  0  0  0  0  0
  140.9929   77.3207  217.6914 H   0  0  0  0  0  0  0  0  0  0  0  0
  142.4813   75.2526  219.2099 H   0  0  0  0  0  0  0  0  0  0  0  0
  140.7049   75.4656  218.8467 H   0  0  0  0  0  0  0  0  0  0  0  0
  142.3762   76.4989  221.0371 H   0  0  0  0  0  0  0  0  0  0  0  0
  139.4430   76.1320  221.4380 H   0  0  0  0  0  0  0  0  0  0  0  0
  138.3810   72.3690  223.8110 H   0  0  0  0  0  0  0  0  0  0  0  0
  138.6291   70.0010  224.3897 H   0  0  0  0  0  0  0  0  0  0  0  0
  140.3120   70.0327  223.7355 H   0  0  0  0  0  0  0  0  0  0  0  0
  141.2654   72.5770  225.1467 H   0  0  0  0  0  0  0  0  0  0  0  0
  142.0956   72.9231  227.4549 H   0  0  0  0  0  0  0  0  0  0  0  0
  141.4102   71.4149  229.3050 H   0  0  0  0  0  0  0  0  0  0  0  0
  139.8600   69.5184  228.8316 H   0  0  0  0  0  0  0  0  0  0  0  0
  139.0331   69.1706  226.5311 H   0  0  0  0  0  0  0  0  0  0  0  0
  144.2856   73.3574  220.7902 H   0  0  0  0  0  0  0  0  0  0  0  0
  144.8960   71.8386  221.4787 H   0  0  0  0  0  0  0  0  0  0  0  0
  144.3533   72.2866  218.4632 H   0  0  0  0  0  0  0  0  0  0  0  0
  145.9570   72.4321  219.1775 H   0  0  0  0  0  0  0  0  0  0  0  0
  147.1905   70.4389  218.7231 H   0  0  0  0  0  0  0  0  0  0  0  0
  147.2604   67.9342  218.7413 H   0  0  0  0  0  0  0  0  0  0  0  0
  145.2503   66.6353  219.3010 H   0  0  0  0  0  0  0  0  0  0  0  0
  143.1069   67.7539  219.8637 H   0  0  0  0  0  0  0  0  0  0  0  0
  142.1526   70.6610  219.0012 H   0  0  0  0  0  0  0  0  0  0  0  0
  142.1077   69.8381  220.6141 H   0  0  0  0  0  0  0  0  0  0  0  0
  140.7842   78.3077  221.5157 H   0  0  0  0  0  0  0  0  0  0  0  0
  139.9797   77.9851  219.9201 H   0  0  0  0  0  0  0  0  0  0  0  0
  142.6548   79.1993  220.5232 H   0  0  0  0  0  0  0  0  0  0  0  0
  141.3236   79.7157  219.3817 H   0  0  0  0  0  0  0  0  0  0  0  0
  1  2  1  0
  2  3  1  0
  3  4  1  0
  4  5  1  0
  5  6  1  0
  6  7  1  0
  7  8  2  0
  8  9  1  0
  9 10  1  0
 10 11  1  0
 11 12  1  0
 12 13  2  0
 13 14  1  0
 14 15  2  0
 15 16  1  0
 16 17  2  0
  9 18  2  0
 18 19  1  0
 19 20  1  0
 20 21  1  0
 21 22  1  0
 22 23  1  0
 23 24  2  0
 24 25  1  0
 25 26  2  0
 26 27  1  0
 27 28  2  0
 28 29  1  0
 19 30  2  0
  5 31  1  0
 31 32  1  0
 32  2  1  0
 30  7  1  0
 17 12  1  0
 29 20  1  0
 28 23  1  0
  1 33  1  0
  1 34  1  0
  2 35  1  1
  3 36  1  0
  3 37  1  0
  4 38  1  0
  4 39  1  0
  5 40  1  1
  6 41  1  0
 10 42  1  0
 11 43  1  0
 11 44  1  0
 13 45  1  0
 14 46  1  0
 15 47  1  0
 16 48  1  0
 17 49  1  0
 21 50  1  0
 21 51  1  0
 22 52  1  0
 22 53  1  0
 24 54  1  0
 25 55  1  0
 26 56  1  0
 27 57  1  0
 29 58  1  0
 29 59  1  0
 31 60  1  0
 31 61  1  0
 32 62  1  0
 32 63  1  0
M  END
>  <smiles>  (24) 
NC1CCC(Nc2nc(NCc3ccccc3)nc(N3CCc4ccccc4C3)n2)CC1

>  <score_type>  (24) 
oracle

>  <origin>  (24) 
autodockgpu

>  <m_score__min__energy>  (24) 
-9.7599999999999998

>  <m_primary>  (24) 
energy

>  <rmsd>  (24) 
7.902318343671527

>  <m_score__min__rmsd>  (24) 
7.902318343671527

>  <meeko>  (24) 
{"free_energy": -9.22, "intermolecular_energy": -11.31, "internal_energy": -0.94, "cluster_size": 6, "cluster_id": 2, "rank_in_cluster": 6}

>  <energy>  (24) 
-9.67

>  <cluster_rmsd>  (24) 
0.98

>  <cluster>  (24) 
3

$$$$

     RDKit          3D

 63 67  0  0  0  0  0  0  0  0999 V2000
  134.2950   74.2590  226.3490 N   0  0  0  0  0  0  0  0  0  0  0  0
  134.2140   74.0210  224.8990 C   0  0  2  0  0  0  0  0  0  0  0  0
  135.0020   72.7810  224.6410 C   0  0  0  0  0  0  0  0  0  0  0  0
  135.2840   72.5000  223.1860 C   0  0  0  0  0  0  0  0  0  0  0  0
  135.3310   73.7290  222.3460 C   0  0  2  0  0  0  0  0  0  0  0  0
  136.3380   73.5450  221.3170 N   0  0  0  0  0  0  0  0  0  0  0  0
  137.7020   73.7400  221.6560 C   0  0  0  0  0  0  0  0  0  0  0  0
  138.4370   72.7410  222.1470 N   0  0  0  0  0  0  0  0  0  0  0  0
  139.7440   72.9090  222.4780 C   0  0  0  0  0  0  0  0  0  0  0  0
  140.4070   71.7580  222.9890 N   0  0  0  0  0  0  0  0  0  0  0  0
  139.7450   70.7390  223.7760 C   0  0  0  0  0  0  0  0  0  0  0  0
  140.1240   70.8540  225.2230 C   0  0  0  0  0  0  0  0  0  0  0  0
  140.9250   71.8770  225.6920 C   0  0  0  0  0  0  0  0  0  0  0  0
  141.2390   71.9290  227.0410 C   0  0  0  0  0  0  0  0  0  0  0  0
  140.7670   70.9760  227.9380 C   0  0  0  0  0  0  0  0  0  0  0  0
  139.9650   69.9530  227.4720 C   0  0  0  0  0  0  0  0  0  0  0  0
  139.6530   69.9010  226.1300 C   0  0  0  0  0  0  0  0  0  0  0  0
  140.3470   74.0990  222.3210 N   0  0  0  0  0  0  0  0  0  0  0  0
  139.5990   75.1000  221.8260 C   0  0  0  0  0  0  0  0  0  0  0  0
  140.2400   76.3590  221.6610 N   0  0  0  0  0  0  0  0  0  0  0  0
  140.0530   77.1050  220.4340 C   0  0  0  0  0  0  0  0  0  0  0  0
  141.3960   77.7770  220.1200 C   0  0  0  0  0  0  0  0  0  0  0  0
  141.5930   78.7630  221.2290 C   0  0  0  0  0  0  0  0  0  0  0  0
  141.9220   80.0730  220.9400 C   0  0  0  0  0  0  0  0  0  0  0  0
  142.0870   80.9260  222.0180 C   0  0  0  0  0  0  0  0  0  0  0  0
  141.9280   80.4710  223.3110 C   0  0  0  0  0  0  0  0  0  0  0  0
  141.5980   79.1580  223.5860 C   0  0  0  0  0  0  0  0  0  0  0  0
  141.4300   78.2940  222.5180 C   0  0  0  0  0  0  0  0  0  0  0  0
  141.0750   76.8670  222.7350 C   0  0  0  0  0  0  0  0  0  0  0  0
  138.3060   74.9330  221.5000 N   0  0  0  0  0  0  0  0  0  0  0  0
  135.7140   74.9660  223.1250 C   0  0  0  0  0  0  0  0  0  0  0  0
  134.7520   75.2490  224.2510 C   0  0  0  0  0  0  0  0  0  0  0  0
  135.0410   74.9730  226.5140 H   0  0  0  0  0  0  0  0  0  0  0  0
  133.3910   74.7640  226.5870 H   0  0  0  0  0  0  0  0  0  0  0  0
  133.2041   73.8552  224.4958 H   0  0  0  0  0  0  0  0  0  0  0  0
  134.4415   71.9282  225.0515 H   0  0  0  0  0  0  0  0  0  0  0  0
  135.9799   72.9308  225.1219 H   0  0  0  0  0  0  0  0  0  0  0  0
  134.4925   71.8421  222.7979 H   0  0  0  0  0  0  0  0  0  0  0  0
  136.2774   72.0307  223.1318 H   0  0  0  0  0  0  0  0  0  0  0  0
  134.3205   73.8762  221.9371 H   0  0  0  0  0  0  0  0  0  0  0  0
  136.1090   73.2720  220.3290 H   0  0  0  0  0  0  0  0  0  0  0  0
  141.4370   71.6880  222.7570 H   0  0  0  0  0  0  0  0  0  0  0  0
  138.6559   70.8582  223.6778 H   0  0  0  0  0  0  0  0  0  0  0  0
  140.0566   69.7506  223.4072 H   0  0  0  0  0  0  0  0  0  0  0  0
  141.3097   72.6425  225.0020 H   0  0  0  0  0  0  0  0  0  0  0  0
  141.8775   72.7444  227.4118 H   0  0  0  0  0  0  0  0  0  0  0  0
  141.0293   71.0366  229.0046 H   0  0  0  0  0  0  0  0  0  0  0  0
  139.5797   69.1888  228.1631 H   0  0  0  0  0  0  0  0  0  0  0  0
  139.0140   69.0847  225.7622 H   0  0  0  0  0  0  0  0  0  0  0  0
  139.7682   76.4260  219.6168 H   0  0  0  0  0  0  0  0  0  0  0  0
  139.2519   77.8511  220.5418 H   0  0  0  0  0  0  0  0  0  0  0  0
  142.2085   77.0355  220.1107 H   0  0  0  0  0  0  0  0  0  0  0  0
  141.4014   78.2561  219.1298 H   0  0  0  0  0  0  0  0  0  0  0  0
  142.0468   80.4215  219.9041 H   0  0  0  0  0  0  0  0  0  0  0  0
  142.3482   81.9799  221.8415 H   0  0  0  0  0  0  0  0  0  0  0  0
  142.0679   81.1733  224.1460 H   0  0  0  0  0  0  0  0  0  0  0  0
  141.4727   78.8100  224.6219 H   0  0  0  0  0  0  0  0  0  0  0  0
  141.9988   76.2717  222.7822 H   0  0  0  0  0  0  0  0  0  0  0  0
  140.5121   76.7899  223.6769 H   0  0  0  0  0  0  0  0  0  0  0  0
  135.7222   75.8273  222.4409 H   0  0  0  0  0  0  0  0  0  0  0  0
  136.7079   74.7949  223.5642 H   0  0  0  0  0  0  0  0  0  0  0  0
  133.9077   75.8286  223.8495 H   0  0  0  0  0  0  0  0  0  0  0  0
  135.3105   75.8014  225.0210 H   0  0  0  0  0  0  0  0  0  0  0  0
  1  2  1  0
  2  3  1  0
  3  4  1  0
  4  5  1  0
  5  6  1  0
  6  7  1  0
  7  8  2  0
  8  9  1  0
  9 10  1  0
 10 11  1  0
 11 12  1  0
 12 13  2  0
 13 14  1  0
 14 15  2  0
 15 16  1  0
 16 17  2  0
  9 18  2  0
 18 19  1  0
 19 20  1  0
 20 21  1  0
 21 22  1  0
 22 23  1  0
 23 24  2  0
 24 25  1  0
 25 26  2  0
 26 27  1  0
 27 28  2  0
 28 29  1  0
 19 30  2  0
  5 31  1  0
 31 32  1  0
 32  2  1  0
 30  7  1  0
 17 12  1  0
 29 20  1  0
 28 23  1  0
  1 33  1  0
  1 34  1  0
  2 35  1  6
  3 36  1  0
  3 37  1  0
  4 38  1  0
  4 39  1  0
  5 40  1  6
  6 41  1  0
 10 42  1  0
 11 43  1  0
 11 44  1  0
 13 45  1  0
 14 46  1  0
 15 47  1  0
 16 48  1  0
 17 49  1  0
 21 50  1  0
 21 51  1  0
 22 52  1  0
 22 53  1  0
 24 54  1  0
 25 55  1  0
 26 56  1  0
 27 57  1  0
 29 58  1  0
 29 59  1  0
 31 60  1  0
 31 61  1  0
 32 62  1  0
 32 63  1  0
M  END
>  <smiles>  (25) 
NC1CCC(Nc2nc(NCc3ccccc3)nc(N3CCc4ccccc4C3)n2)CC1

>  <score_type>  (25) 
oracle

>  <origin>  (25) 
autodockgpu

>  <m_score__min__energy>  (25) 
-9.7599999999999998

>  <m_primary>  (25) 
energy

>  <rmsd>  (25) 
10.40204978249794

>  <m_score__min__rmsd>  (25) 
10.40204978249794

>  <meeko>  (25) 
{"free_energy": -8.75, "intermolecular_energy": -10.84, "internal_energy": -1.22, "cluster_size": 7, "cluster_id": 7, "rank_in_cluster": 2}

>  <energy>  (25) 
-9.63

>  <cluster_rmsd>  (25) 
0.97

>  <cluster>  (25) 
3

$$$$

     RDKit          3D

 63 67  0  0  0  0  0  0  0  0999 V2000
  146.3130   73.3940  218.5320 N   0  0  0  0  0  0  0  0  0  0  0  0
  145.0910   72.6640  218.1600 C   0  0  2  0  0  0  0  0  0  0  0  0
  144.1150   73.6980  217.7100 C   0  0  0  0  0  0  0  0  0  0  0  0
  142.7000   73.2030  217.5390 C   0  0  0  0  0  0  0  0  0  0  0  0
  142.3700   72.0460  218.4170 C   0  0  2  0  0  0  0  0  0  0  0  0
  140.9850   72.1620  218.8320 N   0  0  0  0  0  0  0  0  0  0  0  0
  140.6870   72.8820  220.0190 C   0  0  0  0  0  0  0  0  0  0  0  0
  140.1920   72.2610  221.0910 N   0  0  0  0  0  0  0  0  0  0  0  0
  139.8990   72.9320  222.2350 C   0  0  0  0  0  0  0  0  0  0  0  0
  139.3780   72.1450  223.3000 N   0  0  0  0  0  0  0  0  0  0  0  0
  139.9760   70.9030  223.7410 C   0  0  0  0  0  0  0  0  0  0  0  0
  140.2000   70.9180  225.2250 C   0  0  0  0  0  0  0  0  0  0  0  0
  140.9460   71.9010  225.8450 C   0  0  0  0  0  0  0  0  0  0  0  0
  141.1160   71.8590  227.2190 C   0  0  0  0  0  0  0  0  0  0  0  0
  140.5530   70.8510  227.9940 C   0  0  0  0  0  0  0  0  0  0  0  0
  139.8050   69.8670  227.3780 C   0  0  0  0  0  0  0  0  0  0  0  0
  139.6370   69.9080  226.0100 C   0  0  0  0  0  0  0  0  0  0  0  0
  140.1000   74.2580  222.3270 N   0  0  0  0  0  0  0  0  0  0  0  0
  140.6000   74.8740  221.2420 C   0  0  0  0  0  0  0  0  0  0  0  0
  140.8110   76.2770  221.3430 N   0  0  0  0  0  0  0  0  0  0  0  0
  140.7670   77.0970  220.1500 C   0  0  0  0  0  0  0  0  0  0  0  0
  141.8440   78.1770  220.3200 C   0  0  0  0  0  0  0  0  0  0  0  0
  141.3650   79.0110  221.4660 C   0  0  0  0  0  0  0  0  0  0  0  0
  141.3170   80.3870  221.3480 C   0  0  0  0  0  0  0  0  0  0  0  0
  140.8620   81.0910  222.4510 C   0  0  0  0  0  0  0  0  0  0  0  0
  140.4800   80.4330  223.6020 C   0  0  0  0  0  0  0  0  0  0  0  0
  140.5320   79.0560  223.7070 C   0  0  0  0  0  0  0  0  0  0  0  0
  140.9850   78.3390  222.6120 C   0  0  0  0  0  0  0  0  0  0  0  0
  141.0700   76.8560  222.6490 C   0  0  0  0  0  0  0  0  0  0  0  0
  140.8880   74.2090  220.1100 N   0  0  0  0  0  0  0  0  0  0  0  0
  143.2080   71.9980  219.6750 C   0  0  0  0  0  0  0  0  0  0  0  0
  144.6810   71.9050  219.3730 C   0  0  0  0  0  0  0  0  0  0  0  0
  146.5180   74.0830  217.7730 H   0  0  0  0  0  0  0  0  0  0  0  0
  146.0240   73.9940  219.3600 H   0  0  0  0  0  0  0  0  0  0  0  0
  145.1972   71.9374  217.3410 H   0  0  0  0  0  0  0  0  0  0  0  0
  144.4580   74.0938  216.7427 H   0  0  0  0  0  0  0  0  0  0  0  0
  144.0824   74.4584  218.5042 H   0  0  0  0  0  0  0  0  0  0  0  0
  142.5614   72.8970  216.4915 H   0  0  0  0  0  0  0  0  0  0  0  0
  142.0299   74.0281  217.8221 H   0  0  0  0  0  0  0  0  0  0  0  0
  142.5679   71.1348  217.8334 H   0  0  0  0  0  0  0  0  0  0  0  0
  140.1850   71.7410  218.2960 H   0  0  0  0  0  0  0  0  0  0  0  0
  138.5070   72.5290  223.7630 H   0  0  0  0  0  0  0  0  0  0  0  0
  139.3056   70.0691  223.4857 H   0  0  0  0  0  0  0  0  0  0  0  0
  140.9469   70.7807  223.2386 H   0  0  0  0  0  0  0  0  0  0  0  0
  141.4007   72.7093  225.2535 H   0  0  0  0  0  0  0  0  0  0  0  0
  141.7115   72.6430  227.7096 H   0  0  0  0  0  0  0  0  0  0  0  0
  140.7015   70.8376  229.0838 H   0  0  0  0  0  0  0  0  0  0  0  0
  139.3490   69.0607  227.9712 H   0  0  0  0  0  0  0  0  0  0  0  0
  139.0419   69.1221  225.5218 H   0  0  0  0  0  0  0  0  0  0  0  0
  140.9800   76.4853  219.2610 H   0  0  0  0  0  0  0  0  0  0  0  0
  139.7723   77.5467  220.0143 H   0  0  0  0  0  0  0  0  0  0  0  0
  142.8178   77.7211  220.5519 H   0  0  0  0  0  0  0  0  0  0  0  0
  141.9884   78.7697  219.4046 H   0  0  0  0  0  0  0  0  0  0  0  0
  141.6249   80.8981  220.4239 H   0  0  0  0  0  0  0  0  0  0  0  0
  140.8045   82.1887  222.4086 H   0  0  0  0  0  0  0  0  0  0  0  0
  140.1239   81.0212  224.4606 H   0  0  0  0  0  0  0  0  0  0  0  0
  140.2233   78.5455  224.6312 H   0  0  0  0  0  0  0  0  0  0  0  0
  142.0786   76.5635  222.9763 H   0  0  0  0  0  0  0  0  0  0  0  0
  140.3084   76.4833  223.3497 H   0  0  0  0  0  0  0  0  0  0  0  0
  142.9110   71.1187  220.2654 H   0  0  0  0  0  0  0  0  0  0  0  0
  143.0352   72.9306  220.2322 H   0  0  0  0  0  0  0  0  0  0  0  0
  144.9390   70.8461  219.2241 H   0  0  0  0  0  0  0  0  0  0  0  0
  145.2134   72.3500  220.2265 H   0  0  0  0  0  0  0  0  0  0  0  0
  1  2  1  0
  2  3  1  0
  3  4  1  0
  4  5  1  0
  5  6  1  0
  6  7  1  0
  7  8  2  0
  8  9  1  0
  9 10  1  0
 10 11  1  0
 11 12  1  0
 12 13  2  0
 13 14  1  0
 14 15  2  0
 15 16  1  0
 16 17  2  0
  9 18  2  0
 18 19  1  0
 19 20  1  0
 20 21  1  0
 21 22  1  0
 22 23  1  0
 23 24  2  0
 24 25  1  0
 25 26  2  0
 26 27  1  0
 27 28  2  0
 28 29  1  0
 19 30  2  0
  5 31  1  0
 31 32  1  0
 32  2  1  0
 30  7  1  0
 17 12  1  0
 29 20  1  0
 28 23  1  0
  1 33  1  0
  1 34  1  0
  2 35  1  6
  3 36  1  0
  3 37  1  0
  4 38  1  0
  4 39  1  0
  5 40  1  6
  6 41  1  0
 10 42  1  0
 11 43  1  0
 11 44  1  0
 13 45  1  0
 14 46  1  0
 15 47  1  0
 16 48  1  0
 17 49  1  0
 21 50  1  0
 21 51  1  0
 22 52  1  0
 22 53  1  0
 24 54  1  0
 25 55  1  0
 26 56  1  0
 27 57  1  0
 29 58  1  0
 29 59  1  0
 31 60  1  0
 31 61  1  0
 32 62  1  0
 32 63  1  0
M  END
>  <smiles>  (26) 
NC1CCC(Nc2nc(NCc3ccccc3)nc(N3CCc4ccccc4C3)n2)CC1

>  <score_type>  (26) 
oracle

>  <origin>  (26) 
autodockgpu

>  <m_score__min__energy>  (26) 
-9.7599999999999998

>  <m_primary>  (26) 
energy

>  <rmsd>  (26) 
10.346901519790203

>  <m_score__min__rmsd>  (26) 
10.346901519790203

>  <meeko>  (26) 
{"free_energy": -9.53, "intermolecular_energy": -11.61, "internal_energy": -1.13, "cluster_size": 15, "cluster_id": 1, "rank_in_cluster": 8}

>  <energy>  (26) 
-9.6

>  <cluster_rmsd>  (26) 
0.44

>  <cluster>  (26) 
3

$$$$

     RDKit          3D

 63 67  0  0  0  0  0  0  0  0999 V2000
  146.6260   73.4290  218.9730 N   0  0  0  0  0  0  0  0  0  0  0  0
  145.5260   72.4780  218.7470 C   0  0  2  0  0  0  0  0  0  0  0  0
  144.5540   73.1770  217.8570 C   0  0  0  0  0  0  0  0  0  0  0  0
  143.2190   72.4920  217.7150 C   0  0  0  0  0  0  0  0  0  0  0  0
  142.8480   71.6690  218.9000 C   0  0  2  0  0  0  0  0  0  0  0  0
  141.4130   71.7560  219.0910 N   0  0  0  0  0  0  0  0  0  0  0  0
  140.9180   72.2330  220.3330 C   0  0  0  0  0  0  0  0  0  0  0  0
  140.6470   73.5270  220.5120 N   0  0  0  0  0  0  0  0  0  0  0  0
  140.1730   74.0020  221.6930 C   0  0  0  0  0  0  0  0  0  0  0  0
  139.9270   75.4030  221.7440 N   0  0  0  0  0  0  0  0  0  0  0  0
  140.9690   76.4010  221.6310 C   0  0  0  0  0  0  0  0  0  0  0  0
  140.6020   77.6420  222.3910 C   0  0  0  0  0  0  0  0  0  0  0  0
  139.3090   78.1250  222.4270 C   0  0  0  0  0  0  0  0  0  0  0  0
  139.0340   79.2760  223.1480 C   0  0  0  0  0  0  0  0  0  0  0  0
  140.0280   79.9590  223.8400 C   0  0  0  0  0  0  0  0  0  0  0  0
  141.3220   79.4780  223.8080 C   0  0  0  0  0  0  0  0  0  0  0  0
  141.5960   78.3330  223.0890 C   0  0  0  0  0  0  0  0  0  0  0  0
  139.9600   73.1780  222.7330 N   0  0  0  0  0  0  0  0  0  0  0  0
  140.2360   71.8760  222.5430 C   0  0  0  0  0  0  0  0  0  0  0  0
  140.0100   71.0050  223.6450 N   0  0  0  0  0  0  0  0  0  0  0  0
  139.5290   69.6600  223.4100 C   0  0  0  0  0  0  0  0  0  0  0  0
  138.5560   69.3360  224.5510 C   0  0  0  0  0  0  0  0  0  0  0  0
  139.4110   69.3080  225.7800 C   0  0  0  0  0  0  0  0  0  0  0  0
  139.3350   68.2380  226.6510 C   0  0  0  0  0  0  0  0  0  0  0  0
  140.1570   68.2840  227.7640 C   0  0  0  0  0  0  0  0  0  0  0  0
  141.0030   69.3530  227.9770 C   0  0  0  0  0  0  0  0  0  0  0  0
  141.0690   70.4160  227.0980 C   0  0  0  0  0  0  0  0  0  0  0  0
  140.2530   70.3850  225.9790 C   0  0  0  0  0  0  0  0  0  0  0  0
  140.2680   71.4920  224.9880 C   0  0  0  0  0  0  0  0  0  0  0  0
  140.7060   71.4060  221.3740 N   0  0  0  0  0  0  0  0  0  0  0  0
  143.4960   72.1470  220.1800 C   0  0  0  0  0  0  0  0  0  0  0  0
  145.0010   72.1310  220.0950 C   0  0  0  0  0  0  0  0  0  0  0  0
  146.7410   73.9980  218.1030 H   0  0  0  0  0  0  0  0  0  0  0  0
  146.2430   74.1150  219.6870 H   0  0  0  0  0  0  0  0  0  0  0  0
  145.8008   71.5351  218.2516 H   0  0  0  0  0  0  0  0  0  0  0  0
  145.0042   73.2592  216.8567 H   0  0  0  0  0  0  0  0  0  0  0  0
  144.3527   74.1521  218.3247 H   0  0  0  0  0  0  0  0  0  0  0  0
  143.2555   71.8363  216.8325 H   0  0  0  0  0  0  0  0  0  0  0  0
  142.4582   73.2802  217.6157 H   0  0  0  0  0  0  0  0  0  0  0  0
  143.1924   70.6439  218.6983 H   0  0  0  0  0  0  0  0  0  0  0  0
  140.7160   71.4830  218.3540 H   0  0  0  0  0  0  0  0  0  0  0  0
  138.9140   75.6800  221.8740 H   0  0  0  0  0  0  0  0  0  0  0  0
  141.9056   75.9924  222.0381 H   0  0  0  0  0  0  0  0  0  0  0  0
  141.0947   76.6614  220.5697 H   0  0  0  0  0  0  0  0  0  0  0  0
  138.5052   77.6014  221.8887 H   0  0  0  0  0  0  0  0  0  0  0  0
  138.0032   79.6591  223.1735 H   0  0  0  0  0  0  0  0  0  0  0  0
  139.7866   80.8709  224.4058 H   0  0  0  0  0  0  0  0  0  0  0  0
  142.1242   80.0012  224.3490 H   0  0  0  0  0  0  0  0  0  0  0  0
  142.6278   77.9525  223.0644 H   0  0  0  0  0  0  0  0  0  0  0  0
  139.0097   69.6065  222.4418 H   0  0  0  0  0  0  0  0  0  0  0  0
  140.3608   68.9408  223.3822 H   0  0  0  0  0  0  0  0  0  0  0  0
  137.7821   70.1133  224.6339 H   0  0  0  0  0  0  0  0  0  0  0  0
  138.0258   68.3858  224.3899 H   0  0  0  0  0  0  0  0  0  0  0  0
  138.6556   67.3922  226.4692 H   0  0  0  0  0  0  0  0  0  0  0  0
  140.1354   67.4567  228.4887 H   0  0  0  0  0  0  0  0  0  0  0  0
  141.6427   69.3586  228.8719 H   0  0  0  0  0  0  0  0  0  0  0  0
  141.7486   71.2614  227.2808 H   0  0  0  0  0  0  0  0  0  0  0  0
  139.4930   72.2244  225.2580 H   0  0  0  0  0  0  0  0  0  0  0  0
  141.2655   71.9555  225.0022 H   0  0  0  0  0  0  0  0  0  0  0  0
  143.1804   71.4901  221.0039 H   0  0  0  0  0  0  0  0  0  0  0  0
  143.1779   73.1857  220.3529 H   0  0  0  0  0  0  0  0  0  0  0  0
  145.3532   71.1221  220.3560 H   0  0  0  0  0  0  0  0  0  0  0  0
  145.3712   72.8973  220.7920 H   0  0  0  0  0  0  0  0  0  0  0  0
  1  2  1  0
  2  3  1  0
  3  4  1  0
  4  5  1  0
  5  6  1  0
  6  7  1  0
  7  8  2  0
  8  9  1  0
  9 10  1  0
 10 11  1  0
 11 12  1  0
 12 13  2  0
 13 14  1  0
 14 15  2  0
 15 16  1  0
 16 17  2  0
  9 18  2  0
 18 19  1  0
 19 20  1  0
 20 21  1  0
 21 22  1  0
 22 23  1  0
 23 24  2  0
 24 25  1  0
 25 26  2  0
 26 27  1  0
 27 28  2  0
 28 29  1  0
 19 30  2  0
  5 31  1  0
 31 32  1  0
 32  2  1  0
 30  7  1  0
 17 12  1  0
 29 20  1  0
 28 23  1  0
  1 33  1  0
  1 34  1  0
  2 35  1  6
  3 36  1  0
  3 37  1  0
  4 38  1  0
  4 39  1  0
  5 40  1  6
  6 41  1  0
 10 42  1  0
 11 43  1  0
 11 44  1  0
 13 45  1  0
 14 46  1  0
 15 47  1  0
 16 48  1  0
 17 49  1  0
 21 50  1  0
 21 51  1  0
 22 52  1  0
 22 53  1  0
 24 54  1  0
 25 55  1  0
 26 56  1  0
 27 57  1  0
 29 58  1  0
 29 59  1  0
 31 60  1  0
 31 61  1  0
 32 62  1  0
 32 63  1  0
M  END
>  <smiles>  (27) 
NC1CCC(Nc2nc(NCc3ccccc3)nc(N3CCc4ccccc4C3)n2)CC1

>  <score_type>  (27) 
oracle

>  <origin>  (27) 
autodockgpu

>  <m_score__min__energy>  (27) 
-9.7599999999999998

>  <m_primary>  (27) 
energy

>  <rmsd>  (27) 
3.8979809398556085

>  <m_score__min__rmsd>  (27) 
3.8979809398556085

>  <meeko>  (27) 
{"free_energy": -9.47, "intermolecular_energy": -11.56, "internal_energy": -0.95, "cluster_size": 15, "cluster_id": 1, "rank_in_cluster": 9}

>  <energy>  (27) 
-9.52

>  <cluster_rmsd>  (27) 
0.75

>  <cluster>  (27) 
3

$$$$

     RDKit          3D

 63 67  0  0  0  0  0  0  0  0999 V2000
  134.3330   74.8970  226.4560 N   0  0  0  0  0  0  0  0  0  0  0  0
  134.2040   74.6290  225.0150 C   0  0  2  0  0  0  0  0  0  0  0  0
  134.7820   73.2720  224.7960 C   0  0  0  0  0  0  0  0  0  0  0  0
  135.0040   72.9030  223.3500 C   0  0  0  0  0  0  0  0  0  0  0  0
  135.2420   74.0810  222.4710 C   0  0  2  0  0  0  0  0  0  0  0  0
  136.1980   73.7060  221.4460 N   0  0  0  0  0  0  0  0  0  0  0  0
  137.5830   73.8630  221.7170 C   0  0  0  0  0  0  0  0  0  0  0  0
  138.3220   72.8320  222.1310 N   0  0  0  0  0  0  0  0  0  0  0  0
  139.6480   72.9620  222.3950 C   0  0  0  0  0  0  0  0  0  0  0  0
  140.3130   71.7810  222.8280 N   0  0  0  0  0  0  0  0  0  0  0  0
  139.6600   70.7230  223.5700 C   0  0  0  0  0  0  0  0  0  0  0  0
  140.0230   70.7910  225.0240 C   0  0  0  0  0  0  0  0  0  0  0  0
  139.5940   69.8430  225.9330 C   0  0  0  0  0  0  0  0  0  0  0  0
  139.9640   69.9620  227.2630 C   0  0  0  0  0  0  0  0  0  0  0  0
  140.7580   71.0120  227.7090 C   0  0  0  0  0  0  0  0  0  0  0  0
  141.1890   71.9620  226.8040 C   0  0  0  0  0  0  0  0  0  0  0  0
  140.8200   71.8440  225.4800 C   0  0  0  0  0  0  0  0  0  0  0  0
  140.2670   74.1460  222.2480 N   0  0  0  0  0  0  0  0  0  0  0  0
  139.5140   75.1780  221.8310 C   0  0  0  0  0  0  0  0  0  0  0  0
  140.1730   76.4300  221.6760 N   0  0  0  0  0  0  0  0  0  0  0  0
  139.9370   77.2230  220.4880 C   0  0  0  0  0  0  0  0  0  0  0  0
  141.2760   77.8800  220.1270 C   0  0  0  0  0  0  0  0  0  0  0  0
  141.5510   78.8220  221.2580 C   0  0  0  0  0  0  0  0  0  0  0  0
  141.8920   80.1350  220.9970 C   0  0  0  0  0  0  0  0  0  0  0  0
  142.1310   80.9450  222.0940 C   0  0  0  0  0  0  0  0  0  0  0  0
  142.0290   80.4480  223.3770 C   0  0  0  0  0  0  0  0  0  0  0  0
  141.6870   79.1320  223.6240 C   0  0  0  0  0  0  0  0  0  0  0  0
  141.4450   78.3100  222.5360 C   0  0  0  0  0  0  0  0  0  0  0  0
  141.0720   76.8840  222.7220 C   0  0  0  0  0  0  0  0  0  0  0  0
  138.2020   75.0490  221.5700 N   0  0  0  0  0  0  0  0  0  0  0  0
  135.8230   75.2660  223.2090 C   0  0  0  0  0  0  0  0  0  0  0  0
  134.9260   75.7340  224.3260 C   0  0  0  0  0  0  0  0  0  0  0  0
  135.2190   75.4320  226.6040 H   0  0  0  0  0  0  0  0  0  0  0  0
  133.5640   75.5990  226.6670 H   0  0  0  0  0  0  0  0  0  0  0  0
  133.1776   74.6138  224.6197 H   0  0  0  0  0  0  0  0  0  0  0  0
  134.0961   72.5331  225.2360 H   0  0  0  0  0  0  0  0  0  0  0  0
  135.7751   73.2792  225.2690 H   0  0  0  0  0  0  0  0  0  0  0  0
  134.1139   72.3695  222.9853 H   0  0  0  0  0  0  0  0  0  0  0  0
  135.9081   72.2779  223.3086 H   0  0  0  0  0  0  0  0  0  0  0  0
  134.2651   74.3751  222.0596 H   0  0  0  0  0  0  0  0  0  0  0  0
  135.9190   73.3220  220.5100 H   0  0  0  0  0  0  0  0  0  0  0  0
  141.3380   71.7180  222.5710 H   0  0  0  0  0  0  0  0  0  0  0  0
  138.5701   70.8282  223.4649 H   0  0  0  0  0  0  0  0  0  0  0  0
  139.9911   69.7539  223.1685 H   0  0  0  0  0  0  0  0  0  0  0  0
  138.9652   69.0025  225.6042 H   0  0  0  0  0  0  0  0  0  0  0  0
  139.6205   69.2060  227.9844 H   0  0  0  0  0  0  0  0  0  0  0  0
  141.0396   71.0854  228.7698 H   0  0  0  0  0  0  0  0  0  0  0  0
  141.8181   72.8016  227.1345 H   0  0  0  0  0  0  0  0  0  0  0  0
  141.1639   72.6023  224.7612 H   0  0  0  0  0  0  0  0  0  0  0  0
  139.5954   76.5796  219.6638 H   0  0  0  0  0  0  0  0  0  0  0  0
  139.1583   77.9797  220.6641 H   0  0  0  0  0  0  0  0  0  0  0  0
  142.0712   77.1239  220.0492 H   0  0  0  0  0  0  0  0  0  0  0  0
  141.2401   78.3939  219.1551 H   0  0  0  0  0  0  0  0  0  0  0  0
  141.9698   80.5179  219.9687 H   0  0  0  0  0  0  0  0  0  0  0  0
  142.4059   81.9990  221.9406 H   0  0  0  0  0  0  0  0  0  0  0  0
  142.2254   81.1179  224.2271 H   0  0  0  0  0  0  0  0  0  0  0  0
  141.6094   78.7494  224.6524 H   0  0  0  0  0  0  0  0  0  0  0  0
  141.9844   76.2699  222.7010 H   0  0  0  0  0  0  0  0  0  0  0  0
  140.5563   76.7846  223.6885 H   0  0  0  0  0  0  0  0  0  0  0  0
  135.9638   76.0928  222.4972 H   0  0  0  0  0  0  0  0  0  0  0  0
  136.7800   74.9530  223.6519 H   0  0  0  0  0  0  0  0  0  0  0  0
  134.1818   76.4272  223.9069 H   0  0  0  0  0  0  0  0  0  0  0  0
  135.5705   76.2149  225.0766 H   0  0  0  0  0  0  0  0  0  0  0  0
  1  2  1  0
  2  3  1  0
  3  4  1  0
  4  5  1  0
  5  6  1  0
  6  7  1  0
  7  8  2  0
  8  9  1  0
  9 10  1  0
 10 11  1  0
 11 12  1  0
 12 13  2  0
 13 14  1  0
 14 15  2  0
 15 16  1  0
 16 17  2  0
  9 18  2  0
 18 19  1  0
 19 20  1  0
 20 21  1  0
 21 22  1  0
 22 23  1  0
 23 24  2  0
 24 25  1  0
 25 26  2  0
 26 27  1  0
 27 28  2  0
 28 29  1  0
 19 30  2  0
  5 31  1  0
 31 32  1  0
 32  2  1  0
 30  7  1  0
 17 12  1  0
 29 20  1  0
 28 23  1  0
  1 33  1  0
  1 34  1  0
  2 35  1  6
  3 36  1  0
  3 37  1  0
  4 38  1  0
  4 39  1  0
  5 40  1  6
  6 41  1  0
 10 42  1  0
 11 43  1  0
 11 44  1  0
 13 45  1  0
 14 46  1  0
 15 47  1  0
 16 48  1  0
 17 49  1  0
 21 50  1  0
 21 51  1  0
 22 52  1  0
 22 53  1  0
 24 54  1  0
 25 55  1  0
 26 56  1  0
 27 57  1  0
 29 58  1  0
 29 59  1  0
 31 60  1  0
 31 61  1  0
 32 62  1  0
 32 63  1  0
M  END
>  <smiles>  (28) 
NC1CCC(Nc2nc(NCc3ccccc3)nc(N3CCc4ccccc4C3)n2)CC1

>  <score_type>  (28) 
oracle

>  <origin>  (28) 
autodockgpu

>  <m_score__min__energy>  (28) 
-9.7599999999999998

>  <m_primary>  (28) 
energy

>  <rmsd>  (28) 
10.425654677485099

>  <m_score__min__rmsd>  (28) 
10.425654677485099

>  <meeko>  (28) 
{"free_energy": -8.79, "intermolecular_energy": -10.87, "internal_energy": -1.16, "cluster_size": 7, "cluster_id": 7, "rank_in_cluster": 1}

>  <energy>  (28) 
-9.49

>  <cluster_rmsd>  (28) 
0.49

>  <cluster>  (28) 
3

$$$$

     RDKit          3D

 63 67  0  0  0  0  0  0  0  0999 V2000
  140.3600   68.4190  227.7220 N   0  0  0  0  0  0  0  0  0  0  0  0
  140.5460   69.0110  226.3880 C   0  0  2  0  0  0  0  0  0  0  0  0
  140.7650   70.4700  226.6120 C   0  0  0  0  0  0  0  0  0  0  0  0
  140.7070   71.3180  225.3660 C   0  0  0  0  0  0  0  0  0  0  0  0
  139.8420   70.7420  224.3000 C   0  0  2  0  0  0  0  0  0  0  0  0
  139.1840   71.8300  223.6020 N   0  0  0  0  0  0  0  0  0  0  0  0
  139.8240   72.4000  222.4700 C   0  0  0  0  0  0  0  0  0  0  0  0
  140.2080   71.6400  221.4430 N   0  0  0  0  0  0  0  0  0  0  0  0
  140.8230   72.1670  220.3520 C   0  0  0  0  0  0  0  0  0  0  0  0
  141.1770   71.2410  219.3320 N   0  0  0  0  0  0  0  0  0  0  0  0
  142.5450   70.9470  218.9600 C   0  0  0  0  0  0  0  0  0  0  0  0
  143.4810   71.9770  219.5210 C   0  0  0  0  0  0  0  0  0  0  0  0
  144.1270   71.8020  220.7280 C   0  0  0  0  0  0  0  0  0  0  0  0
  144.9800   72.7900  221.1920 C   0  0  0  0  0  0  0  0  0  0  0  0
  145.2040   73.9580  220.4710 C   0  0  0  0  0  0  0  0  0  0  0  0
  144.5600   74.1370  219.2630 C   0  0  0  0  0  0  0  0  0  0  0  0
  143.7110   73.1530  218.8020 C   0  0  0  0  0  0  0  0  0  0  0  0
  141.0680   73.4850  220.2700 N   0  0  0  0  0  0  0  0  0  0  0  0
  140.6780   74.2430  221.3090 C   0  0  0  0  0  0  0  0  0  0  0  0
  140.9390   75.6390  221.2190 N   0  0  0  0  0  0  0  0  0  0  0  0
  141.0800   76.2600  219.9180 C   0  0  0  0  0  0  0  0  0  0  0  0
  142.1760   77.3250  220.0570 C   0  0  0  0  0  0  0  0  0  0  0  0
  141.5970   78.3420  220.9900 C   0  0  0  0  0  0  0  0  0  0  0  0
  141.6270   79.6830  220.6550 C   0  0  0  0  0  0  0  0  0  0  0  0
  141.0710   80.5640  221.5680 C   0  0  0  0  0  0  0  0  0  0  0  0
  140.5200   80.1070  222.7470 C   0  0  0  0  0  0  0  0  0  0  0  0
  140.4960   78.7640  223.0690 C   0  0  0  0  0  0  0  0  0  0  0  0
  141.0480   77.8710  222.1660 C   0  0  0  0  0  0  0  0  0  0  0  0
  141.0600   76.4110  222.4420 C   0  0  0  0  0  0  0  0  0  0  0  0
  140.0710   73.7210  222.3880 N   0  0  0  0  0  0  0  0  0  0  0  0
  138.7560   69.8390  224.8390 C   0  0  0  0  0  0  0  0  0  0  0  0
  139.3180   68.6760  225.6160 C   0  0  0  0  0  0  0  0  0  0  0  0
  140.1630   67.4000  227.5950 H   0  0  0  0  0  0  0  0  0  0  0  0
  141.3260   68.4470  228.1630 H   0  0  0  0  0  0  0  0  0  0  0  0
  141.4057   68.6367  225.8129 H   0  0  0  0  0  0  0  0  0  0  0  0
  141.7571   70.6007  227.0688 H   0  0  0  0  0  0  0  0  0  0  0  0
  139.9414   70.8109  227.2566 H   0  0  0  0  0  0  0  0  0  0  0  0
  141.7271   71.4240  224.9683 H   0  0  0  0  0  0  0  0  0  0  0  0
  140.2701   72.2863  225.6516 H   0  0  0  0  0  0  0  0  0  0  0  0
  140.4953   70.1454  223.6463 H   0  0  0  0  0  0  0  0  0  0  0  0
  138.2520   72.2200  223.8900 H   0  0  0  0  0  0  0  0  0  0  0  0
  140.3640   70.7670  218.8470 H   0  0  0  0  0  0  0  0  0  0  0  0
  142.8208   69.9569  219.3520 H   0  0  0  0  0  0  0  0  0  0  0  0
  142.6231   70.9588  217.8628 H   0  0  0  0  0  0  0  0  0  0  0  0
  143.9660   70.8865  221.3161 H   0  0  0  0  0  0  0  0  0  0  0  0
  145.4929   72.6472  222.1546 H   0  0  0  0  0  0  0  0  0  0  0  0
  145.8857   74.7295  220.8583 H   0  0  0  0  0  0  0  0  0  0  0  0
  144.7221   75.0529  218.6757 H   0  0  0  0  0  0  0  0  0  0  0  0
  143.1993   73.2982  217.8391 H   0  0  0  0  0  0  0  0  0  0  0  0
  141.3728   75.5095  219.1690 H   0  0  0  0  0  0  0  0  0  0  0  0
  140.1313   76.7079  219.5873 H   0  0  0  0  0  0  0  0  0  0  0  0
  143.0920   76.8868  220.4800 H   0  0  0  0  0  0  0  0  0  0  0  0
  142.4595   77.7612  219.0878 H   0  0  0  0  0  0  0  0  0  0  0  0
  142.0701   80.0328  219.7109 H   0  0  0  0  0  0  0  0  0  0  0  0
  141.0689   81.6422  221.3499 H   0  0  0  0  0  0  0  0  0  0  0  0
  140.0872   80.8329  223.4511 H   0  0  0  0  0  0  0  0  0  0  0  0
  140.0523   78.4148  224.0131 H   0  0  0  0  0  0  0  0  0  0  0  0
  142.0058   76.1486  222.9386 H   0  0  0  0  0  0  0  0  0  0  0  0
  140.2011   76.1739  223.0870 H   0  0  0  0  0  0  0  0  0  0  0  0
  138.1671   69.4502  223.9952 H   0  0  0  0  0  0  0  0  0  0  0  0
  138.1311   70.4323  225.5227 H   0  0  0  0  0  0  0  0  0  0  0  0
  139.5617   67.8703  224.9079 H   0  0  0  0  0  0  0  0  0  0  0  0
  138.5513   68.3754  226.3452 H   0  0  0  0  0  0  0  0  0  0  0  0
  1  2  1  0
  2  3  1  0
  3  4  1  0
  4  5  1  0
  5  6  1  0
  6  7  1  0
  7  8  2  0
  8  9  1  0
  9 10  1  0
 10 11  1  0
 11 12  1  0
 12 13  2  0
 13 14  1  0
 14 15  2  0
 15 16  1  0
 16 17  2  0
  9 18  2  0
 18 19  1  0
 19 20  1  0
 20 21  1  0
 21 22  1  0
 22 23  1  0
 23 24  2  0
 24 25  1  0
 25 26  2  0
 26 27  1  0
 27 28  2  0
 28 29  1  0
 19 30  2  0
  5 31  1  0
 31 32  1  0
 32  2  1  0
 30  7  1  0
 17 12  1  0
 29 20  1  0
 28 23  1  0
  1 33  1  0
  1 34  1  0
  2 35  1  6
  3 36  1  0
  3 37  1  0
  4 38  1  0
  4 39  1  0
  5 40  1  6
  6 41  1  0
 10 42  1  0
 11 43  1  0
 11 44  1  0
 13 45  1  0
 14 46  1  0
 15 47  1  0
 16 48  1  0
 17 49  1  0
 21 50  1  0
 21 51  1  0
 22 52  1  0
 22 53  1  0
 24 54  1  0
 25 55  1  0
 26 56  1  0
 27 57  1  0
 29 58  1  0
 29 59  1  0
 31 60  1  0
 31 61  1  0
 32 62  1  0
 32 63  1  0
M  END
>  <smiles>  (29) 
NC1CCC(Nc2nc(NCc3ccccc3)nc(N3CCc4ccccc4C3)n2)CC1

>  <score_type>  (29) 
oracle

>  <origin>  (29) 
autodockgpu

>  <m_score__min__energy>  (29) 
-9.7599999999999998

>  <m_primary>  (29) 
energy

>  <rmsd>  (29) 
10.057718986118225

>  <m_score__min__rmsd>  (29) 
10.057718986118225

>  <meeko>  (29) 
{"free_energy": -8.47, "intermolecular_energy": -10.56, "internal_energy": -1.57, "cluster_size": 12, "cluster_id": 3, "rank_in_cluster": 12}

>  <energy>  (29) 
-9.14

>  <cluster_rmsd>  (29) 
1.08

>  <cluster>  (29) 
3

$$$$

     RDKit          3D

 63 67  0  0  0  0  0  0  0  0999 V2000
  142.0680   80.8860  222.3450 N   0  0  0  0  0  0  0  0  0  0  0  0
  142.1500   79.4230  222.2080 C   0  0  2  0  0  0  0  0  0  0  0  0
  141.7810   79.1210  220.7950 C   0  0  0  0  0  0  0  0  0  0  0  0
  141.5340   77.6620  220.5030 C   0  0  0  0  0  0  0  0  0  0  0  0
  141.0610   76.8950  221.6890 C   0  0  2  0  0  0  0  0  0  0  0  0
  140.1160   75.8900  221.2410 N   0  0  0  0  0  0  0  0  0  0  0  0
  140.4020   74.5230  221.4970 C   0  0  0  0  0  0  0  0  0  0  0  0
  139.6430   73.8070  222.3280 N   0  0  0  0  0  0  0  0  0  0  0  0
  139.9010   72.4990  222.5860 C   0  0  0  0  0  0  0  0  0  0  0  0
  139.0100   71.8570  223.4920 N   0  0  0  0  0  0  0  0  0  0  0  0
  139.3090   70.6050  224.1540 C   0  0  0  0  0  0  0  0  0  0  0  0
  139.9510   70.8490  225.4880 C   0  0  0  0  0  0  0  0  0  0  0  0
  140.8520   71.8760  225.6920 C   0  0  0  0  0  0  0  0  0  0  0  0
  141.4100   72.0500  226.9480 C   0  0  0  0  0  0  0  0  0  0  0  0
  141.0860   71.2160  228.0130 C   0  0  0  0  0  0  0  0  0  0  0  0
  140.1850   70.1890  227.8130 C   0  0  0  0  0  0  0  0  0  0  0  0
  139.6300   70.0150  226.5630 C   0  0  0  0  0  0  0  0  0  0  0  0
  140.9400   71.8740  222.0080 N   0  0  0  0  0  0  0  0  0  0  0  0
  141.6990   72.6030  221.1720 C   0  0  0  0  0  0  0  0  0  0  0  0
  142.7990   71.9390  220.5600 N   0  0  0  0  0  0  0  0  0  0  0  0
  144.1170   72.5370  220.6100 C   0  0  0  0  0  0  0  0  0  0  0  0
  144.7860   72.2360  219.2630 C   0  0  0  0  0  0  0  0  0  0  0  0
  144.9600   70.7500  219.2520 C   0  0  0  0  0  0  0  0  0  0  0  0
  146.1870   70.1980  218.9360 C   0  0  0  0  0  0  0  0  0  0  0  0
  146.2690   68.8160  218.9470 C   0  0  0  0  0  0  0  0  0  0  0  0
  145.1700   68.0440  219.2600 C   0  0  0  0  0  0  0  0  0  0  0  0
  143.9480   68.6080  219.5750 C   0  0  0  0  0  0  0  0  0  0  0  0
  143.8510   69.9890  219.5680 C   0  0  0  0  0  0  0  0  0  0  0  0
  142.5700   70.6690  219.8960 C   0  0  0  0  0  0  0  0  0  0  0  0
  141.4440   73.8980  220.9180 N   0  0  0  0  0  0  0  0  0  0  0  0
  140.3460   77.7550  222.7060 C   0  0  0  0  0  0  0  0  0  0  0  0
  141.2230   78.8630  223.2290 C   0  0  0  0  0  0  0  0  0  0  0  0
  142.0040   81.2940  221.3840 H   0  0  0  0  0  0  0  0  0  0  0  0
  141.1100   81.0610  222.7690 H   0  0  0  0  0  0  0  0  0  0  0  0
  143.1401   78.9789  222.3881 H   0  0  0  0  0  0  0  0  0  0  0  0
  142.5999   79.4658  220.1465 H   0  0  0  0  0  0  0  0  0  0  0  0
  140.8295   79.6397  220.6062 H   0  0  0  0  0  0  0  0  0  0  0  0
  142.4737   77.2129  220.1490 H   0  0  0  0  0  0  0  0  0  0  0  0
  140.7388   77.6119  219.7446 H   0  0  0  0  0  0  0  0  0  0  0  0
  141.9527   76.4630  222.1667 H   0  0  0  0  0  0  0  0  0  0  0  0
  139.2250   76.1210  220.7350 H   0  0  0  0  0  0  0  0  0  0  0  0
  138.0930   72.3600  223.6580 H   0  0  0  0  0  0  0  0  0  0  0  0
  138.3753   70.0423  224.3005 H   0  0  0  0  0  0  0  0  0  0  0  0
  140.0066   70.0314  223.5261 H   0  0  0  0  0  0  0  0  0  0  0  0
  141.1237   72.5490  224.8654 H   0  0  0  0  0  0  0  0  0  0  0  0
  142.1275   72.8685  227.1071 H   0  0  0  0  0  0  0  0  0  0  0  0
  141.5417   71.3726  229.0018 H   0  0  0  0  0  0  0  0  0  0  0  0
  139.9133   69.5178  228.6410 H   0  0  0  0  0  0  0  0  0  0  0  0
  138.9132   69.1954  226.4069 H   0  0  0  0  0  0  0  0  0  0  0  0
  144.0353   73.6238  220.7588 H   0  0  0  0  0  0  0  0  0  0  0  0
  144.7059   72.1300  221.4452 H   0  0  0  0  0  0  0  0  0  0  0  0
  144.1439   72.5580  218.4299 H   0  0  0  0  0  0  0  0  0  0  0  0
  145.7408   72.7688  219.1431 H   0  0  0  0  0  0  0  0  0  0  0  0
  147.0556   70.8257  218.6880 H   0  0  0  0  0  0  0  0  0  0  0  0
  147.2237   68.3272  218.7028 H   0  0  0  0  0  0  0  0  0  0  0  0
  145.2686   66.9484  219.2589 H   0  0  0  0  0  0  0  0  0  0  0  0
  143.0801   67.9795  219.8234 H   0  0  0  0  0  0  0  0  0  0  0  0
  142.0111   70.8474  218.9655 H   0  0  0  0  0  0  0  0  0  0  0  0
  141.9986   70.0208  220.5767 H   0  0  0  0  0  0  0  0  0  0  0  0
  140.0341   77.1215  223.5495 H   0  0  0  0  0  0  0  0  0  0  0  0
  139.4787   78.2153  222.2101 H   0  0  0  0  0  0  0  0  0  0  0  0
  141.8220   78.4680  224.0628 H   0  0  0  0  0  0  0  0  0  0  0  0
  140.5569   79.6805  223.5421 H   0  0  0  0  0  0  0  0  0  0  0  0
  1  2  1  0
  2  3  1  0
  3  4  1  0
  4  5  1  0
  5  6  1  0
  6  7  1  0
  7  8  2  0
  8  9  1  0
  9 10  1  0
 10 11  1  0
 11 12  1  0
 12 13  2  0
 13 14  1  0
 14 15  2  0
 15 16  1  0
 16 17  2  0
  9 18  2  0
 18 19  1  0
 19 20  1  0
 20 21  1  0
 21 22  1  0
 22 23  1  0
 23 24  2  0
 24 25  1  0
 25 26  2  0
 26 27  1  0
 27 28  2  0
 28 29  1  0
 19 30  2  0
  5 31  1  0
 31 32  1  0
 32  2  1  0
 30  7  1  0
 17 12  1  0
 29 20  1  0
 28 23  1  0
  1 33  1  0
  1 34  1  0
  2 35  1  1
  3 36  1  0
  3 37  1  0
  4 38  1  0
  4 39  1  0
  5 40  1  1
  6 41  1  0
 10 42  1  0
 11 43  1  0
 11 44  1  0
 13 45  1  0
 14 46  1  0
 15 47  1  0
 16 48  1  0
 17 49  1  0
 21 50  1  0
 21 51  1  0
 22 52  1  0
 22 53  1  0
 24 54  1  0
 25 55  1  0
 26 56  1  0
 27 57  1  0
 29 58  1  0
 29 59  1  0
 31 60  1  0
 31 61  1  0
 32 62  1  0
 32 63  1  0
M  END
>  <smiles>  (30) 
NC1CCC(Nc2nc(NCc3ccccc3)nc(N3CCc4ccccc4C3)n2)CC1

>  <score_type>  (30) 
oracle

>  <origin>  (30) 
autodockgpu

>  <m_score__min__energy>  (30) 
-9.7599999999999998

>  <m_primary>  (30) 
energy

>  <rmsd>  (30) 
7.874371714780993

>  <m_score__min__rmsd>  (30) 
7.874371714780993

>  <meeko>  (30) 
{"free_energy": -9.33, "intermolecular_energy": -11.42, "internal_energy": -0.99, "cluster_size": 6, "cluster_id": 2, "rank_in_cluster": 5}

>  <energy>  (30) 
-8.98

>  <cluster_rmsd>  (30) 
1.82

>  <cluster>  (30) 
3

$$$$

     RDKit          3D

 63 67  0  0  0  0  0  0  0  0999 V2000
  146.9380   73.7440  219.4450 N   0  0  0  0  0  0  0  0  0  0  0  0
  145.9270   72.6770  219.3700 C   0  0  2  0  0  0  0  0  0  0  0  0
  145.0260   73.0440  218.2390 C   0  0  0  0  0  0  0  0  0  0  0  0
  143.7560   72.2350  218.1520 C   0  0  0  0  0  0  0  0  0  0  0  0
  143.2980   71.7120  219.4690 C   0  0  2  0  0  0  0  0  0  0  0  0
  141.8480   71.7230  219.4910 N   0  0  0  0  0  0  0  0  0  0  0  0
  141.1870   72.5210  220.4610 C   0  0  0  0  0  0  0  0  0  0  0  0
  140.4350   71.9630  221.4120 N   0  0  0  0  0  0  0  0  0  0  0  0
  139.7940   72.7100  222.3480 C   0  0  0  0  0  0  0  0  0  0  0  0
  139.0280   71.9850  223.3020 N   0  0  0  0  0  0  0  0  0  0  0  0
  139.4300   70.7020  223.8400 C   0  0  0  0  0  0  0  0  0  0  0  0
  139.9460   70.8510  225.2410 C   0  0  0  0  0  0  0  0  0  0  0  0
  140.7970   71.8760  225.6040 C   0  0  0  0  0  0  0  0  0  0  0  0
  141.2390   71.9590  226.9140 C   0  0  0  0  0  0  0  0  0  0  0  0
  140.8480   71.0350  227.8770 C   0  0  0  0  0  0  0  0  0  0  0  0
  139.9970   70.0090  227.5180 C   0  0  0  0  0  0  0  0  0  0  0  0
  139.5570   69.9260  226.2130 C   0  0  0  0  0  0  0  0  0  0  0  0
  139.8960   74.0500  222.3480 N   0  0  0  0  0  0  0  0  0  0  0  0
  140.6550   74.6030  221.3860 C   0  0  0  0  0  0  0  0  0  0  0  0
  140.7610   76.0220  221.3890 N   0  0  0  0  0  0  0  0  0  0  0  0
  140.8210   76.7400  220.1330 C   0  0  0  0  0  0  0  0  0  0  0  0
  141.7940   77.9070  220.3420 C   0  0  0  0  0  0  0  0  0  0  0  0
  141.1150   78.7910  221.3410 C   0  0  0  0  0  0  0  0  0  0  0  0
  140.9940   80.1460  221.0980 C   0  0  0  0  0  0  0  0  0  0  0  0
  140.3530   80.8970  222.0680 C   0  0  0  0  0  0  0  0  0  0  0  0
  139.8660   80.3050  223.2150 C   0  0  0  0  0  0  0  0  0  0  0  0
  139.9930   78.9490  223.4460 C   0  0  0  0  0  0  0  0  0  0  0  0
  140.6320   78.1840  222.4840 C   0  0  0  0  0  0  0  0  0  0  0  0
  140.8060   76.7190  222.6620 C   0  0  0  0  0  0  0  0  0  0  0  0
  141.2880   73.8630  220.4600 N   0  0  0  0  0  0  0  0  0  0  0  0
  143.7660   72.5510  220.6360 C   0  0  0  0  0  0  0  0  0  0  0  0
  145.2690   72.6410  220.7050 C   0  0  0  0  0  0  0  0  0  0  0  0
  147.0280   74.1670  218.4930 H   0  0  0  0  0  0  0  0  0  0  0  0
  146.4800   74.5050  220.0280 H   0  0  0  0  0  0  0  0  0  0  0  0
  146.3104   71.6660  219.1676 H   0  0  0  0  0  0  0  0  0  0  0  0
  145.5830   72.9081  217.3002 H   0  0  0  0  0  0  0  0  0  0  0  0
  144.7177   74.0852  218.4149 H   0  0  0  0  0  0  0  0  0  0  0  0
  143.9309   71.3822  217.4796 H   0  0  0  0  0  0  0  0  0  0  0  0
  142.9686   72.9050  217.7764 H   0  0  0  0  0  0  0  0  0  0  0  0
  143.7209   70.7022  219.5763 H   0  0  0  0  0  0  0  0  0  0  0  0
  141.2570   71.1690  218.8220 H   0  0  0  0  0  0  0  0  0  0  0  0
  138.1250   72.4470  223.6050 H   0  0  0  0  0  0  0  0  0  0  0  0
  138.5629   70.0251  223.8449 H   0  0  0  0  0  0  0  0  0  0  0  0
  140.2325   70.2908  223.2100 H   0  0  0  0  0  0  0  0  0  0  0  0
  141.1206   72.6191  224.8603 H   0  0  0  0  0  0  0  0  0  0  0  0
  141.9167   72.7768  227.2001 H   0  0  0  0  0  0  0  0  0  0  0  0
  141.2122   71.1206  228.9114 H   0  0  0  0  0  0  0  0  0  0  0  0
  139.6738   69.2670  228.2630 H   0  0  0  0  0  0  0  0  0  0  0  0
  138.8797   69.1070  225.9294 H   0  0  0  0  0  0  0  0  0  0  0  0
  141.1878   76.0782  219.3346 H   0  0  0  0  0  0  0  0  0  0  0  0
  139.8259   77.1015  219.8346 H   0  0  0  0  0  0  0  0  0  0  0  0
  142.7558   77.5451  220.7343 H   0  0  0  0  0  0  0  0  0  0  0  0
  142.0198   78.4348  219.4037 H   0  0  0  0  0  0  0  0  0  0  0  0
  141.3877   80.6050  220.1791 H   0  0  0  0  0  0  0  0  0  0  0  0
  140.2302   81.9804  221.9224 H   0  0  0  0  0  0  0  0  0  0  0  0
  139.3624   80.9304  223.9668 H   0  0  0  0  0  0  0  0  0  0  0  0
  139.5990   78.4909  224.3652 H   0  0  0  0  0  0  0  0  0  0  0  0
  141.7786   76.5295  223.1397 H   0  0  0  0  0  0  0  0  0  0  0  0
  139.9835   76.3463  223.2902 H   0  0  0  0  0  0  0  0  0  0  0  0
  143.3948   72.1000  221.5681 H   0  0  0  0  0  0  0  0  0  0  0  0
  143.3723   73.5691  220.4998 H   0  0  0  0  0  0  0  0  0  0  0  0
  145.6448   71.7651  221.2541 H   0  0  0  0  0  0  0  0  0  0  0  0
  145.5121   73.5878  221.2095 H   0  0  0  0  0  0  0  0  0  0  0  0
  1  2  1  0
  2  3  1  0
  3  4  1  0
  4  5  1  0
  5  6  1  0
  6  7  1  0
  7  8  2  0
  8  9  1  0
  9 10  1  0
 10 11  1  0
 11 12  1  0
 12 13  2  0
 13 14  1  0
 14 15  2  0
 15 16  1  0
 16 17  2  0
  9 18  2  0
 18 19  1  0
 19 20  1  0
 20 21  1  0
 21 22  1  0
 22 23  1  0
 23 24  2  0
 24 25  1  0
 25 26  2  0
 26 27  1  0
 27 28  2  0
 28 29  1  0
 19 30  2  0
  5 31  1  0
 31 32  1  0
 32  2  1  0
 30  7  1  0
 17 12  1  0
 29 20  1  0
 28 23  1  0
  1 33  1  0
  1 34  1  0
  2 35  1  6
  3 36  1  0
  3 37  1  0
  4 38  1  0
  4 39  1  0
  5 40  1  1
  6 41  1  0
 10 42  1  0
 11 43  1  0
 11 44  1  0
 13 45  1  0
 14 46  1  0
 15 47  1  0
 16 48  1  0
 17 49  1  0
 21 50  1  0
 21 51  1  0
 22 52  1  0
 22 53  1  0
 24 54  1  0
 25 55  1  0
 26 56  1  0
 27 57  1  0
 29 58  1  0
 29 59  1  0
 31 60  1  0
 31 61  1  0
 32 62  1  0
 32 63  1  0
M  END
>  <smiles>  (31) 
NC1CCC(Nc2nc(NCc3ccccc3)nc(N3CCc4ccccc4C3)n2)CC1

>  <score_type>  (31) 
oracle

>  <origin>  (31) 
autodockgpu

>  <m_score__min__energy>  (31) 
-9.7599999999999998

>  <m_primary>  (31) 
energy

>  <rmsd>  (31) 
10.175676073952168

>  <m_score__min__rmsd>  (31) 
10.175676073952168

>  <meeko>  (31) 
{"free_energy": -9.57, "intermolecular_energy": -11.65, "internal_energy": -1.05, "cluster_size": 15, "cluster_id": 1, "rank_in_cluster": 7}

>  <energy>  (31) 
-8.62

>  <cluster_rmsd>  (31) 
1.8

>  <cluster>  (31) 
3

$$$$

     RDKit          3D

 63 67  0  0  0  0  0  0  0  0999 V2000
  142.3540   79.7450  221.9130 N   0  0  0  0  0  0  0  0  0  0  0  0
  141.0730   79.0240  221.9980 C   0  0  2  0  0  0  0  0  0  0  0  0
  141.3580   77.7660  222.7480 C   0  0  0  0  0  0  0  0  0  0  0  0
  140.2480   76.7450  222.7170 C   0  0  0  0  0  0  0  0  0  0  0  0
  139.3970   76.8350  221.4990 C   0  0  2  0  0  0  0  0  0  0  0  0
  138.9910   75.4950  221.1200 N   0  0  0  0  0  0  0  0  0  0  0  0
  139.8590   74.4110  221.4140 C   0  0  0  0  0  0  0  0  0  0  0  0
  141.0000   74.2440  220.7430 N   0  0  0  0  0  0  0  0  0  0  0  0
  141.8430   73.2130  221.0090 C   0  0  0  0  0  0  0  0  0  0  0  0
  143.0250   73.1580  220.2170 N   0  0  0  0  0  0  0  0  0  0  0  0
  144.0240   74.2050  220.2000 C   0  0  0  0  0  0  0  0  0  0  0  0
  143.6400   75.2910  219.2390 C   0  0  0  0  0  0  0  0  0  0  0  0
  143.2820   76.5550  219.6650 C   0  0  0  0  0  0  0  0  0  0  0  0
  142.9380   77.5150  218.7280 C   0  0  0  0  0  0  0  0  0  0  0  0
  142.9450   77.2400  217.3640 C   0  0  0  0  0  0  0  0  0  0  0  0
  143.3030   75.9780  216.9350 C   0  0  0  0  0  0  0  0  0  0  0  0
  143.6450   75.0220  217.8680 C   0  0  0  0  0  0  0  0  0  0  0  0
  141.5540   72.3160  221.9660 N   0  0  0  0  0  0  0  0  0  0  0  0
  140.4020   72.4920  222.6370 C   0  0  0  0  0  0  0  0  0  0  0  0
  140.0990   71.5400  223.6500 N   0  0  0  0  0  0  0  0  0  0  0  0
  139.5170   70.2650  223.2860 C   0  0  0  0  0  0  0  0  0  0  0  0
  138.5110   69.9110  224.3890 C   0  0  0  0  0  0  0  0  0  0  0  0
  139.3500   69.6990  225.6100 C   0  0  0  0  0  0  0  0  0  0  0  0
  139.1840   68.5590  226.3740 C   0  0  0  0  0  0  0  0  0  0  0  0
  139.9970   68.4330  227.4880 C   0  0  0  0  0  0  0  0  0  0  0  0
  140.9210   69.4070  227.8040 C   0  0  0  0  0  0  0  0  0  0  0  0
  141.0780   70.5410  227.0310 C   0  0  0  0  0  0  0  0  0  0  0  0
  140.2720   70.6820  225.9140 C   0  0  0  0  0  0  0  0  0  0  0  0
  140.3820   71.8740  225.0340 C   0  0  0  0  0  0  0  0  0  0  0  0
  139.5690   73.5120  222.3720 N   0  0  0  0  0  0  0  0  0  0  0  0
  140.1200   77.4310  220.3120 C   0  0  0  0  0  0  0  0  0  0  0  0
  140.6200   78.8250  220.5940 C   0  0  0  0  0  0  0  0  0  0  0  0
  143.1160   79.0330  221.8300 H   0  0  0  0  0  0  0  0  0  0  0  0
  142.3310   80.2180  220.9620 H   0  0  0  0  0  0  0  0  0  0  0  0
  140.2638   79.5449  222.5308 H   0  0  0  0  0  0  0  0  0  0  0  0
  141.5506   78.0301  223.7983 H   0  0  0  0  0  0  0  0  0  0  0  0
  142.2217   77.2991  222.2521 H   0  0  0  0  0  0  0  0  0  0  0  0
  139.6101   76.8963  223.6002 H   0  0  0  0  0  0  0  0  0  0  0  0
  140.7202   75.7515  222.7110 H   0  0  0  0  0  0  0  0  0  0  0  0
  138.5471   77.4864  221.7506 H   0  0  0  0  0  0  0  0  0  0  0  0
  138.0820   75.2820  220.6390 H   0  0  0  0  0  0  0  0  0  0  0  0
  143.1340   72.2860  219.6270 H   0  0  0  0  0  0  0  0  0  0  0  0
  144.1159   74.6324  221.2094 H   0  0  0  0  0  0  0  0  0  0  0  0
  144.9831   73.7725  219.8789 H   0  0  0  0  0  0  0  0  0  0  0  0
  143.2702   76.7969  220.7380 H   0  0  0  0  0  0  0  0  0  0  0  0
  142.6520   78.5204  219.0707 H   0  0  0  0  0  0  0  0  0  0  0  0
  142.6689   78.0182  216.6372 H   0  0  0  0  0  0  0  0  0  0  0  0
  143.3153   75.7377  215.8616 H   0  0  0  0  0  0  0  0  0  0  0  0
  143.9303   74.0174  217.5225 H   0  0  0  0  0  0  0  0  0  0  0  0
  139.0042   70.3450  222.3161 H   0  0  0  0  0  0  0  0  0  0  0  0
  140.2905   69.4887  223.1908 H   0  0  0  0  0  0  0  0  0  0  0  0
  137.7994   70.7352  224.5449 H   0  0  0  0  0  0  0  0  0  0  0  0
  137.9094   69.0253  224.1368 H   0  0  0  0  0  0  0  0  0  0  0  0
  138.4429   67.7901  226.1102 H   0  0  0  0  0  0  0  0  0  0  0  0
  139.9046   67.5442  228.1295 H   0  0  0  0  0  0  0  0  0  0  0  0
  141.5506   69.2771  228.6966 H   0  0  0  0  0  0  0  0  0  0  0  0
  141.8206   71.3085  227.2948 H   0  0  0  0  0  0  0  0  0  0  0  0
  139.6640   72.6357  225.3721 H   0  0  0  0  0  0  0  0  0  0  0  0
  141.4125   72.2541  225.0941 H   0  0  0  0  0  0  0  0  0  0  0  0
  139.4282   77.4684  219.4575 H   0  0  0  0  0  0  0  0  0  0  0  0
  140.9914   76.7965  220.0926 H   0  0  0  0  0  0  0  0  0  0  0  0
  139.8054   79.5348  220.3877 H   0  0  0  0  0  0  0  0  0  0  0  0
  141.4940   78.9908  219.9469 H   0  0  0  0  0  0  0  0  0  0  0  0
  1  2  1  0
  2  3  1  0
  3  4  1  0
  4  5  1  0
  5  6  1  0
  6  7  1  0
  7  8  2  0
  8  9  1  0
  9 10  1  0
 10 11  1  0
 11 12  1  0
 12 13  2  0
 13 14  1  0
 14 15  2  0
 15 16  1  0
 16 17  2  0
  9 18  2  0
 18 19  1  0
 19 20  1  0
 20 21  1  0
 21 22  1  0
 22 23  1  0
 23 24  2  0
 24 25  1  0
 25 26  2  0
 26 27  1  0
 27 28  2  0
 28 29  1  0
 19 30  2  0
  5 31  1  0
 31 32  1  0
 32  2  1  0
 30  7  1  0
 17 12  1  0
 29 20  1  0
 28 23  1  0
  1 33  1  0
  1 34  1  0
  2 35  1  1
  3 36  1  0
  3 37  1  0
  4 38  1  0
  4 39  1  0
  5 40  1  1
  6 41  1  0
 10 42  1  0
 11 43  1  0
 11 44  1  0
 13 45  1  0
 14 46  1  0
 15 47  1  0
 16 48  1  0
 17 49  1  0
 21 50  1  0
 21 51  1  0
 22 52  1  0
 22 53  1  0
 24 54  1  0
 25 55  1  0
 26 56  1  0
 27 57  1  0
 29 58  1  0
 29 59  1  0
 31 60  1  0
 31 61  1  0
 32 62  1  0
 32 63  1  0
M  END
>  <smiles>  (32) 
NC1CCC(Nc2nc(NCc3ccccc3)nc(N3CCc4ccccc4C3)n2)CC1

>  <score_type>  (32) 
oracle

>  <origin>  (32) 
autodockgpu

>  <m_score__min__energy>  (32) 
-9.7599999999999998

>  <m_primary>  (32) 
energy

>  <rmsd>  (32) 
3.843511765612716

>  <m_score__min__rmsd>  (32) 
3.843511765612716

>  <meeko>  (32) 
{"free_energy": -8.15, "intermolecular_energy": -10.24, "internal_energy": -1.8, "cluster_size": 7, "cluster_id": 4, "rank_in_cluster": 7}

>  <energy>  (32) 
-8.52

>  <cluster_rmsd>  (32) 
1.88

>  <cluster>  (32) 
3

$$$$

     RDKit          3D

 63 67  0  0  0  0  0  0  0  0999 V2000
  146.5760   72.6690  221.2010 N   0  0  0  0  0  0  0  0  0  0  0  0
  145.6380   72.9090  220.0940 C   0  0  2  0  0  0  0  0  0  0  0  0
  144.8960   74.1540  220.4460 C   0  0  0  0  0  0  0  0  0  0  0  0
  143.6910   74.4400  219.5840 C   0  0  0  0  0  0  0  0  0  0  0  0
  143.0720   73.2130  219.0110 C   0  0  2  0  0  0  0  0  0  0  0  0
  141.6350   73.4050  218.9570 N   0  0  0  0  0  0  0  0  0  0  0  0
  140.9610   73.8440  220.1280 C   0  0  0  0  0  0  0  0  0  0  0  0
  140.2940   72.9840  220.8990 N   0  0  0  0  0  0  0  0  0  0  0  0
  139.6430   73.3850  222.0210 C   0  0  0  0  0  0  0  0  0  0  0  0
  138.9720   72.3610  222.7490 N   0  0  0  0  0  0  0  0  0  0  0  0
  139.5120   71.0310  222.9370 C   0  0  0  0  0  0  0  0  0  0  0  0
  139.9100   70.8170  224.3680 C   0  0  0  0  0  0  0  0  0  0  0  0
  140.7910   71.6590  225.0180 C   0  0  0  0  0  0  0  0  0  0  0  0
  141.1190   71.4080  226.3410 C   0  0  0  0  0  0  0  0  0  0  0  0
  140.5830   70.3270  227.0340 C   0  0  0  0  0  0  0  0  0  0  0  0
  139.7020   69.4840  226.3870 C   0  0  0  0  0  0  0  0  0  0  0  0
  139.3760   69.7340  225.0700 C   0  0  0  0  0  0  0  0  0  0  0  0
  139.6490   74.6740  222.3980 N   0  0  0  0  0  0  0  0  0  0  0  0
  140.3240   75.5330  221.6150 C   0  0  0  0  0  0  0  0  0  0  0  0
  140.3290   76.8980  222.0160 N   0  0  0  0  0  0  0  0  0  0  0  0
  139.1990   77.4360  222.7440 C   0  0  0  0  0  0  0  0  0  0  0  0
  138.9990   78.8730  222.2440 C   0  0  0  0  0  0  0  0  0  0  0  0
  140.2240   79.6040  222.6970 C   0  0  0  0  0  0  0  0  0  0  0  0
  140.1040   80.8050  223.3700 C   0  0  0  0  0  0  0  0  0  0  0  0
  141.2820   81.4210  223.7580 C   0  0  0  0  0  0  0  0  0  0  0  0
  142.5050   80.8490  223.4770 C   0  0  0  0  0  0  0  0  0  0  0  0
  142.6110   79.6470  222.8040 C   0  0  0  0  0  0  0  0  0  0  0  0
  141.4420   79.0190  222.4100 C   0  0  0  0  0  0  0  0  0  0  0  0
  141.4750   77.7240  221.6820 C   0  0  0  0  0  0  0  0  0  0  0  0
  140.9670   75.1360  220.5040 N   0  0  0  0  0  0  0  0  0  0  0  0
  143.3240   71.9760  219.8430 C   0  0  0  0  0  0  0  0  0  0  0  0
  144.7950   71.6860  219.9970 C   0  0  0  0  0  0  0  0  0  0  0  0
  146.0170   72.5830  222.0810 H   0  0  0  0  0  0  0  0  0  0  0  0
  146.9470   71.6880  221.0290 H   0  0  0  0  0  0  0  0  0  0  0  0
  146.0938   73.0695  219.1058 H   0  0  0  0  0  0  0  0  0  0  0  0
  145.5900   75.0026  220.3557 H   0  0  0  0  0  0  0  0  0  0  0  0
  144.5168   74.0088  221.4683 H   0  0  0  0  0  0  0  0  0  0  0  0
  144.0015   75.0938  218.7557 H   0  0  0  0  0  0  0  0  0  0  0  0
  142.9360   74.9159  220.2271 H   0  0  0  0  0  0  0  0  0  0  0  0
  143.5228   73.0603  218.0193 H   0  0  0  0  0  0  0  0  0  0  0  0
  141.0620   73.2360  218.0930 H   0  0  0  0  0  0  0  0  0  0  0  0
  138.0340   72.6350  223.1540 H   0  0  0  0  0  0  0  0  0  0  0  0
  138.7488   70.2890  222.6597 H   0  0  0  0  0  0  0  0  0  0  0  0
  140.4029   70.9182  222.3017 H   0  0  0  0  0  0  0  0  0  0  0  0
  141.2279   72.5201  224.4910 H   0  0  0  0  0  0  0  0  0  0  0  0
  141.8208   72.0804  226.8562 H   0  0  0  0  0  0  0  0  0  0  0  0
  140.8577   70.1466  228.0837 H   0  0  0  0  0  0  0  0  0  0  0  0
  139.2653   68.6235  226.9150 H   0  0  0  0  0  0  0  0  0  0  0  0
  138.6742   69.0599  224.5572 H   0  0  0  0  0  0  0  0  0  0  0  0
  138.2988   76.8361  222.5448 H   0  0  0  0  0  0  0  0  0  0  0  0
  139.3798   77.4151  223.8288 H   0  0  0  0  0  0  0  0  0  0  0  0
  138.9171   78.8947  221.1473 H   0  0  0  0  0  0  0  0  0  0  0  0
  138.0751   79.3255  222.6334 H   0  0  0  0  0  0  0  0  0  0  0  0
  139.1215   81.2496  223.5867 H   0  0  0  0  0  0  0  0  0  0  0  0
  141.2417   82.3789  224.2973 H   0  0  0  0  0  0  0  0  0  0  0  0
  143.4223   81.3644  223.7978 H   0  0  0  0  0  0  0  0  0  0  0  0
  143.5939   79.2028  222.5880 H   0  0  0  0  0  0  0  0  0  0  0  0
  141.4702   77.9218  220.5999 H   0  0  0  0  0  0  0  0  0  0  0  0
  142.3874   77.1849  221.9768 H   0  0  0  0  0  0  0  0  0  0  0  0
  142.8422   71.1160  219.3548 H   0  0  0  0  0  0  0  0  0  0  0  0
  142.9067   72.1514  220.8455 H   0  0  0  0  0  0  0  0  0  0  0  0
  145.1274   71.1031  219.1253 H   0  0  0  0  0  0  0  0  0  0  0  0
  144.9174   71.1349  220.9411 H   0  0  0  0  0  0  0  0  0  0  0  0
  1  2  1  0
  2  3  1  0
  3  4  1  0
  4  5  1  0
  5  6  1  0
  6  7  1  0
  7  8  2  0
  8  9  1  0
  9 10  1  0
 10 11  1  0
 11 12  1  0
 12 13  2  0
 13 14  1  0
 14 15  2  0
 15 16  1  0
 16 17  2  0
  9 18  2  0
 18 19  1  0
 19 20  1  0
 20 21  1  0
 21 22  1  0
 22 23  1  0
 23 24  2  0
 24 25  1  0
 25 26  2  0
 26 27  1  0
 27 28  2  0
 28 29  1  0
 19 30  2  0
  5 31  1  0
 31 32  1  0
 32  2  1  0
 30  7  1  0
 17 12  1  0
 29 20  1  0
 28 23  1  0
  1 33  1  0
  1 34  1  0
  2 35  1  6
  3 36  1  0
  3 37  1  0
  4 38  1  0
  4 39  1  0
  5 40  1  6
  6 41  1  0
 10 42  1  0
 11 43  1  0
 11 44  1  0
 13 45  1  0
 14 46  1  0
 15 47  1  0
 16 48  1  0
 17 49  1  0
 21 50  1  0
 21 51  1  0
 22 52  1  0
 22 53  1  0
 24 54  1  0
 25 55  1  0
 26 56  1  0
 27 57  1  0
 29 58  1  0
 29 59  1  0
 31 60  1  0
 31 61  1  0
 32 62  1  0
 32 63  1  0
M  END
>  <smiles>  (33) 
NC1CCC(Nc2nc(NCc3ccccc3)nc(N3CCc4ccccc4C3)n2)CC1

>  <score_type>  (33) 
oracle

>  <origin>  (33) 
autodockgpu

>  <m_score__min__energy>  (33) 
-9.7599999999999998

>  <m_primary>  (33) 
energy

>  <rmsd>  (33) 
10.507014148171905

>  <m_score__min__rmsd>  (33) 
10.507014148171905

>  <meeko>  (33) 
{"free_energy": -9.74, "intermolecular_energy": -11.83, "internal_energy": -1.17, "cluster_size": 15, "cluster_id": 1, "rank_in_cluster": 2}

>  <energy>  (33) 
-8.47

>  <cluster_rmsd>  (33) 
1.79

>  <cluster>  (33) 
3

$$$$

     RDKit          3D

 63 67  0  0  0  0  0  0  0  0999 V2000
  146.4100   72.6880  221.0470 N   0  0  0  0  0  0  0  0  0  0  0  0
  145.4390   72.7860  219.9450 C   0  0  2  0  0  0  0  0  0  0  0  0
  144.8200   74.1370  220.0620 C   0  0  0  0  0  0  0  0  0  0  0  0
  143.6000   74.3530  219.2010 C   0  0  0  0  0  0  0  0  0  0  0  0
  142.8540   73.0970  218.9100 C   0  0  2  0  0  0  0  0  0  0  0  0
  141.4360   73.4030  218.8680 N   0  0  0  0  0  0  0  0  0  0  0  0
  140.7980   73.8450  220.0560 C   0  0  0  0  0  0  0  0  0  0  0  0
  140.1360   72.9900  220.8380 N   0  0  0  0  0  0  0  0  0  0  0  0
  139.5180   73.3930  221.9780 C   0  0  0  0  0  0  0  0  0  0  0  0
  138.8490   72.3760  222.7150 N   0  0  0  0  0  0  0  0  0  0  0  0
  139.3760   71.0380  222.8870 C   0  0  0  0  0  0  0  0  0  0  0  0
  139.8520   70.8300  224.2940 C   0  0  0  0  0  0  0  0  0  0  0  0
  140.6670   71.7430  224.9350 C   0  0  0  0  0  0  0  0  0  0  0  0
  141.0730   71.4940  226.2360 C   0  0  0  0  0  0  0  0  0  0  0  0
  140.6800   70.3460  226.9170 C   0  0  0  0  0  0  0  0  0  0  0  0
  139.8640   69.4330  226.2800 C   0  0  0  0  0  0  0  0  0  0  0  0
  139.4610   69.6800  224.9850 C   0  0  0  0  0  0  0  0  0  0  0  0
  139.5520   74.6800  222.3620 N   0  0  0  0  0  0  0  0  0  0  0  0
  140.2220   75.5340  221.5680 C   0  0  0  0  0  0  0  0  0  0  0  0
  140.2570   76.8970  221.9780 N   0  0  0  0  0  0  0  0  0  0  0  0
  139.1290   77.4620  222.6860 C   0  0  0  0  0  0  0  0  0  0  0  0
  138.9790   78.9070  222.1910 C   0  0  0  0  0  0  0  0  0  0  0  0
  140.2150   79.6000  222.6720 C   0  0  0  0  0  0  0  0  0  0  0  0
  140.1150   80.8010  223.3490 C   0  0  0  0  0  0  0  0  0  0  0  0
  141.3020   81.3820  223.7630 C   0  0  0  0  0  0  0  0  0  0  0  0
  142.5150   80.7770  223.5030 C   0  0  0  0  0  0  0  0  0  0  0  0
  142.6000   79.5760  222.8250 C   0  0  0  0  0  0  0  0  0  0  0  0
  141.4210   78.9830  222.4050 C   0  0  0  0  0  0  0  0  0  0  0  0
  141.4330   77.6910  221.6700 C   0  0  0  0  0  0  0  0  0  0  0  0
  140.8320   75.1340  220.4400 N   0  0  0  0  0  0  0  0  0  0  0  0
  143.0470   72.0340  219.9680 C   0  0  0  0  0  0  0  0  0  0  0  0
  144.4950   71.6490  220.1280 C   0  0  0  0  0  0  0  0  0  0  0  0
  145.8850   72.4320  221.9140 H   0  0  0  0  0  0  0  0  0  0  0  0
  146.9820   71.8220  220.8210 H   0  0  0  0  0  0  0  0  0  0  0  0
  145.8552   72.7046  218.9300 H   0  0  0  0  0  0  0  0  0  0  0  0
  145.5753   74.8847  219.7783 H   0  0  0  0  0  0  0  0  0  0  0  0
  144.4829   74.2329  221.1047 H   0  0  0  0  0  0  0  0  0  0  0  0
  143.9201   74.7978  218.2472 H   0  0  0  0  0  0  0  0  0  0  0  0
  142.9203   75.0136  219.7592 H   0  0  0  0  0  0  0  0  0  0  0  0
  143.2385   72.7098  217.9549 H   0  0  0  0  0  0  0  0  0  0  0  0
  140.8540   73.3160  217.9980 H   0  0  0  0  0  0  0  0  0  0  0  0
  137.9230   72.6600  223.1410 H   0  0  0  0  0  0  0  0  0  0  0  0
  138.5852   70.3072  222.6620 H   0  0  0  0  0  0  0  0  0  0  0  0
  140.2272   70.9037  222.2033 H   0  0  0  0  0  0  0  0  0  0  0  0
  140.9903   72.6583  224.4177 H   0  0  0  0  0  0  0  0  0  0  0  0
  141.7226   72.2224  226.7435 H   0  0  0  0  0  0  0  0  0  0  0  0
  141.0152   70.1684  227.9495 H   0  0  0  0  0  0  0  0  0  0  0  0
  139.5392   68.5194  226.7994 H   0  0  0  0  0  0  0  0  0  0  0  0
  138.8118   68.9495  224.4801 H   0  0  0  0  0  0  0  0  0  0  0  0
  138.2166   76.8886  222.4652 H   0  0  0  0  0  0  0  0  0  0  0  0
  139.2875   77.4301  223.7741 H   0  0  0  0  0  0  0  0  0  0  0  0
  138.9190   78.9373  221.0931 H   0  0  0  0  0  0  0  0  0  0  0  0
  138.0608   79.3833  222.5652 H   0  0  0  0  0  0  0  0  0  0  0  0
  139.1412   81.2718  223.5489 H   0  0  0  0  0  0  0  0  0  0  0  0
  141.2778   82.3382  224.3062 H   0  0  0  0  0  0  0  0  0  0  0  0
  143.4398   81.2645  223.8451 H   0  0  0  0  0  0  0  0  0  0  0  0
  143.5740   79.1055  222.6250 H   0  0  0  0  0  0  0  0  0  0  0  0
  141.4551   77.8940  220.5891 H   0  0  0  0  0  0  0  0  0  0  0  0
  142.3243   77.1248  221.9783 H   0  0  0  0  0  0  0  0  0  0  0  0
  142.4721   71.1408  219.6822 H   0  0  0  0  0  0  0  0  0  0  0  0
  142.6977   72.4438  220.9272 H   0  0  0  0  0  0  0  0  0  0  0  0
  144.7335   70.8759  219.3827 H   0  0  0  0  0  0  0  0  0  0  0  0
  144.6205   71.2891  221.1599 H   0  0  0  0  0  0  0  0  0  0  0  0
  1  2  1  0
  2  3  1  0
  3  4  1  0
  4  5  1  0
  5  6  1  0
  6  7  1  0
  7  8  2  0
  8  9  1  0
  9 10  1  0
 10 11  1  0
 11 12  1  0
 12 13  2  0
 13 14  1  0
 14 15  2  0
 15 16  1  0
 16 17  2  0
  9 18  2  0
 18 19  1  0
 19 20  1  0
 20 21  1  0
 21 22  1  0
 22 23  1  0
 23 24  2  0
 24 25  1  0
 25 26  2  0
 26 27  1  0
 27 28  2  0
 28 29  1  0
 19 30  2  0
  5 31  1  0
 31 32  1  0
 32  2  1  0
 30  7  1  0
 17 12  1  0
 29 20  1  0
 28 23  1  0
  1 33  1  0
  1 34  1  0
  2 35  1  6
  3 36  1  0
  3 37  1  0
  4 38  1  0
  4 39  1  0
  5 40  1  6
  6 41  1  0
 10 42  1  0
 11 43  1  0
 11 44  1  0
 13 45  1  0
 14 46  1  0
 15 47  1  0
 16 48  1  0
 17 49  1  0
 21 50  1  0
 21 51  1  0
 22 52  1  0
 22 53  1  0
 24 54  1  0
 25 55  1  0
 26 56  1  0
 27 57  1  0
 29 58  1  0
 29 59  1  0
 31 60  1  0
 31 61  1  0
 32 62  1  0
 32 63  1  0
M  END
>  <smiles>  (34) 
NC1CCC(Nc2nc(NCc3ccccc3)nc(N3CCc4ccccc4C3)n2)CC1

>  <score_type>  (34) 
oracle

>  <origin>  (34) 
autodockgpu

>  <m_score__min__energy>  (34) 
-9.7599999999999998

>  <m_primary>  (34) 
energy

>  <rmsd>  (34) 
10.492686912868999

>  <m_score__min__rmsd>  (34) 
10.492686912868999

>  <meeko>  (34) 
{"free_energy": -9.67, "intermolecular_energy": -11.76, "internal_energy": -1.22, "cluster_size": 15, "cluster_id": 1, "rank_in_cluster": 4}

>  <energy>  (34) 
-9.11

>  <cluster_rmsd>  (34) 
0.0

>  <cluster>  (34) 
4

$$$$

     RDKit          3D

 63 67  0  0  0  0  0  0  0  0999 V2000
  141.9500   80.8460  222.4880 N   0  0  0  0  0  0  0  0  0  0  0  0
  142.0910   79.3930  222.3070 C   0  0  2  0  0  0  0  0  0  0  0  0
  141.7570   79.1220  220.8790 C   0  0  0  0  0  0  0  0  0  0  0  0
  141.5700   77.6640  220.5380 C   0  0  0  0  0  0  0  0  0  0  0  0
  141.1080   76.8430  221.6900 C   0  0  2  0  0  0  0  0  0  0  0  0
  140.2090   75.8170  221.1950 N   0  0  0  0  0  0  0  0  0  0  0  0
  140.4970   74.4580  221.4890 C   0  0  0  0  0  0  0  0  0  0  0  0
  139.7430   73.7670  222.3450 N   0  0  0  0  0  0  0  0  0  0  0  0
  140.0030   72.4670  222.6400 C   0  0  0  0  0  0  0  0  0  0  0  0
  139.1170   71.8520  223.5690 N   0  0  0  0  0  0  0  0  0  0  0  0
  139.3870   70.5810  224.2080 C   0  0  0  0  0  0  0  0  0  0  0  0
  139.9840   70.7870  225.5690 C   0  0  0  0  0  0  0  0  0  0  0  0
  140.8040   71.8600  225.8560 C   0  0  0  0  0  0  0  0  0  0  0  0
  141.3240   71.9950  227.1340 C   0  0  0  0  0  0  0  0  0  0  0  0
  141.0410   71.0750  228.1380 C   0  0  0  0  0  0  0  0  0  0  0  0
  140.2210   70.0020  227.8550 C   0  0  0  0  0  0  0  0  0  0  0  0
  139.7040   69.8670  226.5830 C   0  0  0  0  0  0  0  0  0  0  0  0
  141.0390   71.8260  222.0730 N   0  0  0  0  0  0  0  0  0  0  0  0
  141.7930   72.5300  221.2120 C   0  0  0  0  0  0  0  0  0  0  0  0
  142.8890   71.8490  220.6140 N   0  0  0  0  0  0  0  0  0  0  0  0
  144.2130   72.4310  220.6700 C   0  0  0  0  0  0  0  0  0  0  0  0
  144.8900   72.1130  219.3300 C   0  0  0  0  0  0  0  0  0  0  0  0
  145.0450   70.6240  219.3300 C   0  0  0  0  0  0  0  0  0  0  0  0
  146.2670   70.0560  219.0270 C   0  0  0  0  0  0  0  0  0  0  0  0
  146.3330   68.6730  219.0480 C   0  0  0  0  0  0  0  0  0  0  0  0
  145.2210   67.9160  219.3580 C   0  0  0  0  0  0  0  0  0  0  0  0
  144.0050   68.4970  219.6590 C   0  0  0  0  0  0  0  0  0  0  0  0
  143.9240   69.8800  219.6420 C   0  0  0  0  0  0  0  0  0  0  0  0
  142.6500   70.5770  219.9560 C   0  0  0  0  0  0  0  0  0  0  0  0
  141.5350   73.8170  220.9220 N   0  0  0  0  0  0  0  0  0  0  0  0
  140.3440   77.6420  222.7210 C   0  0  0  0  0  0  0  0  0  0  0  0
  141.1700   78.7660  223.2940 C   0  0  0  0  0  0  0  0  0  0  0  0
  141.0570   81.1400  222.0310 H   0  0  0  0  0  0  0  0  0  0  0  0
  141.7670   80.9690  223.5270 H   0  0  0  0  0  0  0  0  0  0  0  0
  143.0946   78.9815  222.4902 H   0  0  0  0  0  0  0  0  0  0  0  0
  142.5729   79.5171  220.2559 H   0  0  0  0  0  0  0  0  0  0  0  0
  140.7899   79.6106  220.6893 H   0  0  0  0  0  0  0  0  0  0  0  0
  142.5316   77.2619  220.1864 H   0  0  0  0  0  0  0  0  0  0  0  0
  140.7891   77.6084  219.7652 H   0  0  0  0  0  0  0  0  0  0  0  0
  142.0083   76.4304  222.1688 H   0  0  0  0  0  0  0  0  0  0  0  0
  139.3510   76.0280  220.6270 H   0  0  0  0  0  0  0  0  0  0  0  0
  138.2280   72.3900  223.7710 H   0  0  0  0  0  0  0  0  0  0  0  0
  138.4460   70.0201  224.3077 H   0  0  0  0  0  0  0  0  0  0  0  0
  140.1027   70.0196  223.5895 H   0  0  0  0  0  0  0  0  0  0  0  0
  141.0424   72.6005  225.0783 H   0  0  0  0  0  0  0  0  0  0  0  0
  141.9768   72.8512  227.3597 H   0  0  0  0  0  0  0  0  0  0  0  0
  141.4655   71.2012  229.1449 H   0  0  0  0  0  0  0  0  0  0  0  0
  139.9823   69.2631  228.6342 H   0  0  0  0  0  0  0  0  0  0  0  0
  139.0519   69.0096  226.3603 H   0  0  0  0  0  0  0  0  0  0  0  0
  144.1432   73.5197  220.8108 H   0  0  0  0  0  0  0  0  0  0  0  0
  144.7902   72.0222  221.5124 H   0  0  0  0  0  0  0  0  0  0  0  0
  144.2593   72.4379  218.4894 H   0  0  0  0  0  0  0  0  0  0  0  0
  145.8525   72.6329  219.2149 H   0  0  0  0  0  0  0  0  0  0  0  0
  147.1446   70.6719  218.7811 H   0  0  0  0  0  0  0  0  0  0  0  0
  147.2836   68.1712  218.8147 H   0  0  0  0  0  0  0  0  0  0  0  0
  145.3059   66.8193  219.3655 H   0  0  0  0  0  0  0  0  0  0  0  0
  143.1276   67.8807  219.9047 H   0  0  0  0  0  0  0  0  0  0  0  0
  142.1002   70.7561  219.0202 H   0  0  0  0  0  0  0  0  0  0  0  0
  142.0661   69.9400  220.6367 H   0  0  0  0  0  0  0  0  0  0  0  0
  140.0432   76.9704  223.5386 H   0  0  0  0  0  0  0  0  0  0  0  0
  139.4675   78.0846  222.2250 H   0  0  0  0  0  0  0  0  0  0  0  0
  141.7703   78.3675  224.1252 H   0  0  0  0  0  0  0  0  0  0  0  0
  140.4681   79.5472  223.6212 H   0  0  0  0  0  0  0  0  0  0  0  0
  1  2  1  0
  2  3  1  0
  3  4  1  0
  4  5  1  0
  5  6  1  0
  6  7  1  0
  7  8  2  0
  8  9  1  0
  9 10  1  0
 10 11  1  0
 11 12  1  0
 12 13  2  0
 13 14  1  0
 14 15  2  0
 15 16  1  0
 16 17  2  0
  9 18  2  0
 18 19  1  0
 19 20  1  0
 20 21  1  0
 21 22  1  0
 22 23  1  0
 23 24  2  0
 24 25  1  0
 25 26  2  0
 26 27  1  0
 27 28  2  0
 28 29  1  0
 19 30  2  0
  5 31  1  0
 31 32  1  0
 32  2  1  0
 30  7  1  0
 17 12  1  0
 29 20  1  0
 28 23  1  0
  1 33  1  0
  1 34  1  0
  2 35  1  1
  3 36  1  0
  3 37  1  0
  4 38  1  0
  4 39  1  0
  5 40  1  1
  6 41  1  0
 10 42  1  0
 11 43  1  0
 11 44  1  0
 13 45  1  0
 14 46  1  0
 15 47  1  0
 16 48  1  0
 17 49  1  0
 21 50  1  0
 21 51  1  0
 22 52  1  0
 22 53  1  0
 24 54  1  0
 25 55  1  0
 26 56  1  0
 27 57  1  0
 29 58  1  0
 29 59  1  0
 31 60  1  0
 31 61  1  0
 32 62  1  0
 32 63  1  0
M  END
>  <smiles>  (35) 
NC1CCC(Nc2nc(NCc3ccccc3)nc(N3CCc4ccccc4C3)n2)CC1

>  <score_type>  (35) 
oracle

>  <origin>  (35) 
autodockgpu

>  <m_score__min__energy>  (35) 
-9.7599999999999998

>  <m_primary>  (35) 
energy

>  <rmsd>  (35) 
7.860346328684999

>  <m_score__min__rmsd>  (35) 
7.860346328684999

>  <meeko>  (35) 
{"free_energy": -9.4, "intermolecular_energy": -11.49, "internal_energy": -0.97, "cluster_size": 6, "cluster_id": 2, "rank_in_cluster": 3}

>  <energy>  (35) 
-9.02

>  <cluster_rmsd>  (35) 
0.1

>  <cluster>  (35) 
4

$$$$

     RDKit          3D

 63 67  0  0  0  0  0  0  0  0999 V2000
  142.3060   80.2920  221.6480 N   0  0  0  0  0  0  0  0  0  0  0  0
  142.1570   78.8610  221.9560 C   0  0  2  0  0  0  0  0  0  0  0  0
  141.8590   78.1890  220.6590 C   0  0  0  0  0  0  0  0  0  0  0  0
  141.3980   76.7570  220.7770 C   0  0  0  0  0  0  0  0  0  0  0  0
  140.7100   76.4630  222.0650 C   0  0  2  0  0  0  0  0  0  0  0  0
  139.6520   75.5040  221.8130 N   0  0  0  0  0  0  0  0  0  0  0  0
  139.9900   74.1300  221.6950 C   0  0  0  0  0  0  0  0  0  0  0  0
  140.4870   73.6420  220.5580 N   0  0  0  0  0  0  0  0  0  0  0  0
  140.8160   72.3300  220.4250 C   0  0  0  0  0  0  0  0  0  0  0  0
  141.3360   71.9460  219.1570 N   0  0  0  0  0  0  0  0  0  0  0  0
  142.7220   71.5880  218.9380 C   0  0  0  0  0  0  0  0  0  0  0  0
  143.6370   72.5620  219.6190 C   0  0  0  0  0  0  0  0  0  0  0  0
  144.7000   72.1490  220.3980 C   0  0  0  0  0  0  0  0  0  0  0  0
  145.5100   73.0980  221.0000 C   0  0  0  0  0  0  0  0  0  0  0  0
  145.2800   74.4610  220.8410 C   0  0  0  0  0  0  0  0  0  0  0  0
  144.2190   74.8770  220.0630 C   0  0  0  0  0  0  0  0  0  0  0  0
  143.4130   73.9320  219.4640 C   0  0  0  0  0  0  0  0  0  0  0  0
  140.6500   71.4720  221.4450 N   0  0  0  0  0  0  0  0  0  0  0  0
  140.1490   71.9740  222.5870 C   0  0  0  0  0  0  0  0  0  0  0  0
  139.9750   71.0620  223.6660 N   0  0  0  0  0  0  0  0  0  0  0  0
  139.5750   69.6970  223.3950 C   0  0  0  0  0  0  0  0  0  0  0  0
  138.6230   69.2860  224.5250 C   0  0  0  0  0  0  0  0  0  0  0  0
  139.4770   69.2770  225.7540 C   0  0  0  0  0  0  0  0  0  0  0  0
  139.4650   68.1810  226.5960 C   0  0  0  0  0  0  0  0  0  0  0  0
  140.2830   68.2460  227.7120 C   0  0  0  0  0  0  0  0  0  0  0  0
  141.0630   69.3580  227.9550 C   0  0  0  0  0  0  0  0  0  0  0  0
  141.0650   70.4460  227.1040 C   0  0  0  0  0  0  0  0  0  0  0  0
  140.2530   70.3960  225.9830 C   0  0  0  0  0  0  0  0  0  0  0  0
  140.2030   71.5280  225.0220 C   0  0  0  0  0  0  0  0  0  0  0  0
  139.8230   73.2710  222.7170 N   0  0  0  0  0  0  0  0  0  0  0  0
  140.0670   77.6820  222.6850 C   0  0  0  0  0  0  0  0  0  0  0  0
  141.0700   78.7710  222.9700 C   0  0  0  0  0  0  0  0  0  0  0  0
  143.3110   80.4650  221.4150 H   0  0  0  0  0  0  0  0  0  0  0  0
  141.7960   80.4200  220.7250 H   0  0  0  0  0  0  0  0  0  0  0  0
  143.0430   78.3676  222.3821 H   0  0  0  0  0  0  0  0  0  0  0  0
  142.7736   78.2044  220.0480 H   0  0  0  0  0  0  0  0  0  0  0  0
  141.0246   78.7457  220.2075 H   0  0  0  0  0  0  0  0  0  0  0  0
  142.2759   76.0996  220.6923 H   0  0  0  0  0  0  0  0  0  0  0  0
  140.6695   76.5822  219.9716 H   0  0  0  0  0  0  0  0  0  0  0  0
  141.4754   76.0847  222.7586 H   0  0  0  0  0  0  0  0  0  0  0  0
  138.6410   75.7730  221.7150 H   0  0  0  0  0  0  0  0  0  0  0  0
  140.6360   71.9370  218.3640 H   0  0  0  0  0  0  0  0  0  0  0  0
  142.9025   70.5807  219.3415 H   0  0  0  0  0  0  0  0  0  0  0  0
  142.9254   71.6092  217.8572 H   0  0  0  0  0  0  0  0  0  0  0  0
  144.9015   71.0769  220.5391 H   0  0  0  0  0  0  0  0  0  0  0  0
  146.3562   72.7657  221.6192 H   0  0  0  0  0  0  0  0  0  0  0  0
  145.9354   75.1973  221.3291 H   0  0  0  0  0  0  0  0  0  0  0  0
  144.0186   75.9494  219.9223 H   0  0  0  0  0  0  0  0  0  0  0  0
  142.5677   74.2673  218.8451 H   0  0  0  0  0  0  0  0  0  0  0  0
  139.0600   69.6381  222.4248 H   0  0  0  0  0  0  0  0  0  0  0  0
  140.4482   69.0296  223.3500 H   0  0  0  0  0  0  0  0  0  0  0  0
  137.8041   70.0133  224.6266 H   0  0  0  0  0  0  0  0  0  0  0  0
  138.1507   68.3103  224.3382 H   0  0  0  0  0  0  0  0  0  0  0  0
  138.8374   67.3013  226.3902 H   0  0  0  0  0  0  0  0  0  0  0  0
  140.3112   67.3996  228.4141 H   0  0  0  0  0  0  0  0  0  0  0  0
  141.7007   69.3786  228.8510 H   0  0  0  0  0  0  0  0  0  0  0  0
  141.6925   71.3256  227.3103 H   0  0  0  0  0  0  0  0  0  0  0  0
  139.3858   72.2058  225.3097 H   0  0  0  0  0  0  0  0  0  0  0  0
  141.1711   72.0495  225.0507 H   0  0  0  0  0  0  0  0  0  0  0  0
  139.5859   77.3873  223.6293 H   0  0  0  0  0  0  0  0  0  0  0  0
  139.3323   78.0781  221.9685 H   0  0  0  0  0  0  0  0  0  0  0  0
  141.5258   78.5757  223.9519 H   0  0  0  0  0  0  0  0  0  0  0  0
  140.5250   79.7262  222.9442 H   0  0  0  0  0  0  0  0  0  0  0  0
  1  2  1  0
  2  3  1  0
  3  4  1  0
  4  5  1  0
  5  6  1  0
  6  7  1  0
  7  8  2  0
  8  9  1  0
  9 10  1  0
 10 11  1  0
 11 12  1  0
 12 13  2  0
 13 14  1  0
 14 15  2  0
 15 16  1  0
 16 17  2  0
  9 18  2  0
 18 19  1  0
 19 20  1  0
 20 21  1  0
 21 22  1  0
 22 23  1  0
 23 24  2  0
 24 25  1  0
 25 26  2  0
 26 27  1  0
 27 28  2  0
 28 29  1  0
 19 30  2  0
  5 31  1  0
 31 32  1  0
 32  2  1  0
 30  7  1  0
 17 12  1  0
 29 20  1  0
 28 23  1  0
  1 33  1  0
  1 34  1  0
  2 35  1  1
  3 36  1  0
  3 37  1  0
  4 38  1  0
  4 39  1  0
  5 40  1  1
  6 41  1  0
 10 42  1  0
 11 43  1  0
 11 44  1  0
 13 45  1  0
 14 46  1  0
 15 47  1  0
 16 48  1  0
 17 49  1  0
 21 50  1  0
 21 51  1  0
 22 52  1  0
 22 53  1  0
 24 54  1  0
 25 55  1  0
 26 56  1  0
 27 57  1  0
 29 58  1  0
 29 59  1  0
 31 60  1  0
 31 61  1  0
 32 62  1  0
 32 63  1  0
M  END
>  <smiles>  (36) 
NC1CCC(Nc2nc(NCc3ccccc3)nc(N3CCc4ccccc4C3)n2)CC1

>  <score_type>  (36) 
oracle

>  <origin>  (36) 
autodockgpu

>  <m_score__min__energy>  (36) 
-9.7599999999999998

>  <m_primary>  (36) 
energy

>  <rmsd>  (36) 
3.8913428401022574

>  <m_score__min__rmsd>  (36) 
3.8913428401022574

>  <meeko>  (36) 
{"free_energy": -8.98, "intermolecular_energy": -11.07, "internal_energy": -1.51, "cluster_size": 7, "cluster_id": 4, "rank_in_cluster": 3}

>  <energy>  (36) 
-8.98

>  <cluster_rmsd>  (36) 
0.14

>  <cluster>  (36) 
4

$$$$

     RDKit          3D

 63 67  0  0  0  0  0  0  0  0999 V2000
  140.4880   67.8300  228.0360 N   0  0  0  0  0  0  0  0  0  0  0  0
  140.8400   68.6570  226.8700 C   0  0  2  0  0  0  0  0  0  0  0  0
  140.6460   70.0730  227.2950 C   0  0  0  0  0  0  0  0  0  0  0  0
  140.6860   71.0820  226.1760 C   0  0  0  0  0  0  0  0  0  0  0  0
  140.2630   70.5230  224.8620 C   0  0  2  0  0  0  0  0  0  0  0  0
  139.5510   71.5540  224.1300 N   0  0  0  0  0  0  0  0  0  0  0  0
  140.1220   72.0580  222.9320 C   0  0  0  0  0  0  0  0  0  0  0  0
  140.6350   71.2350  222.0170 N   0  0  0  0  0  0  0  0  0  0  0  0
  141.1870   71.6980  220.8650 C   0  0  0  0  0  0  0  0  0  0  0  0
  141.6950   70.7090  219.9780 N   0  0  0  0  0  0  0  0  0  0  0  0
  142.8630   70.9060  219.1460 C   0  0  0  0  0  0  0  0  0  0  0  0
  143.6500   72.0970  219.6090 C   0  0  0  0  0  0  0  0  0  0  0  0
  143.6050   73.3090  218.9490 C   0  0  0  0  0  0  0  0  0  0  0  0
  144.3560   74.3710  219.4270 C   0  0  0  0  0  0  0  0  0  0  0  0
  145.1550   74.2490  220.5580 C   0  0  0  0  0  0  0  0  0  0  0  0
  145.2020   73.0390  221.2210 C   0  0  0  0  0  0  0  0  0  0  0  0
  144.4560   71.9820  220.7450 C   0  0  0  0  0  0  0  0  0  0  0  0
  141.2360   73.0160  220.6070 N   0  0  0  0  0  0  0  0  0  0  0  0
  140.7170   73.8380  221.5350 C   0  0  0  0  0  0  0  0  0  0  0  0
  140.7710   75.2330  221.2590 N   0  0  0  0  0  0  0  0  0  0  0  0
  140.6650   76.1850  222.3440 C   0  0  0  0  0  0  0  0  0  0  0  0
  139.8540   77.3720  221.8090 C   0  0  0  0  0  0  0  0  0  0  0  0
  140.7240   77.9780  220.7530 C   0  0  0  0  0  0  0  0  0  0  0  0
  140.9700   79.3380  220.7560 C   0  0  0  0  0  0  0  0  0  0  0  0
  141.7850   79.8250  219.7480 C   0  0  0  0  0  0  0  0  0  0  0  0
  142.3160   78.9790  218.7970 C   0  0  0  0  0  0  0  0  0  0  0  0
  142.0630   77.6210  218.8060 C   0  0  0  0  0  0  0  0  0  0  0  0
  141.2500   77.1190  219.8080 C   0  0  0  0  0  0  0  0  0  0  0  0
  140.9320   75.6690  219.8830 C   0  0  0  0  0  0  0  0  0  0  0  0
  140.1730   73.3780  222.6740 N   0  0  0  0  0  0  0  0  0  0  0  0
  139.3260   69.3440  224.9920 C   0  0  0  0  0  0  0  0  0  0  0  0
  139.9470   68.2090  225.7660 C   0  0  0  0  0  0  0  0  0  0  0  0
  139.5640   67.3800  227.8420 H   0  0  0  0  0  0  0  0  0  0  0  0
  141.1820   67.0270  228.0120 H   0  0  0  0  0  0  0  0  0  0  0  0
  141.8757   68.5640  226.5113 H   0  0  0  0  0  0  0  0  0  0  0  0
  141.4404   70.3265  228.0124 H   0  0  0  0  0  0  0  0  0  0  0  0
  139.6357   70.1302  227.7264 H   0  0  0  0  0  0  0  0  0  0  0  0
  141.7158   71.4566  226.0806 H   0  0  0  0  0  0  0  0  0  0  0  0
  139.9757   71.8815  226.4333 H   0  0  0  0  0  0  0  0  0  0  0  0
  141.1759   70.1852  224.3497 H   0  0  0  0  0  0  0  0  0  0  0  0
  138.6280   71.9480  224.4400 H   0  0  0  0  0  0  0  0  0  0  0  0
  141.1570   69.7980  219.9600 H   0  0  0  0  0  0  0  0  0  0  0  0
  143.4992   70.0102  219.1989 H   0  0  0  0  0  0  0  0  0  0  0  0
  142.5342   71.0803  218.1109 H   0  0  0  0  0  0  0  0  0  0  0  0
  142.9791   73.4303  218.0526 H   0  0  0  0  0  0  0  0  0  0  0  0
  144.3190   75.3348  218.8982 H   0  0  0  0  0  0  0  0  0  0  0  0
  145.7423   75.1057  220.9201 H   0  0  0  0  0  0  0  0  0  0  0  0
  145.8271   72.9198  222.1182 H   0  0  0  0  0  0  0  0  0  0  0  0
  144.4963   71.0191  221.2752 H   0  0  0  0  0  0  0  0  0  0  0  0
  140.1483   75.7278  223.2007 H   0  0  0  0  0  0  0  0  0  0  0  0
  141.6592   76.5069  222.6874 H   0  0  0  0  0  0  0  0  0  0  0  0
  138.9018   77.0291  221.3781 H   0  0  0  0  0  0  0  0  0  0  0  0
  139.5957   78.0913  222.6002 H   0  0  0  0  0  0  0  0  0  0  0  0
  140.5397   80.0008  221.5212 H   0  0  0  0  0  0  0  0  0  0  0  0
  142.0118   80.9005  219.7052 H   0  0  0  0  0  0  0  0  0  0  0  0
  142.9592   79.3975  218.0089 H   0  0  0  0  0  0  0  0  0  0  0  0
  142.4942   76.9589  218.0407 H   0  0  0  0  0  0  0  0  0  0  0  0
  139.9972   75.4787  219.3354 H   0  0  0  0  0  0  0  0  0  0  0  0
  141.7664   75.1078  219.4370 H   0  0  0  0  0  0  0  0  0  0  0  0
  139.0648   68.9858  223.9853 H   0  0  0  0  0  0  0  0  0  0  0  0
  138.4333   69.6795  225.5402 H   0  0  0  0  0  0  0  0  0  0  0  0
  140.5368   67.5951  225.0694 H   0  0  0  0  0  0  0  0  0  0  0  0
  139.1229   67.6449  226.2272 H   0  0  0  0  0  0  0  0  0  0  0  0
  1  2  1  0
  2  3  1  0
  3  4  1  0
  4  5  1  0
  5  6  1  0
  6  7  1  0
  7  8  2  0
  8  9  1  0
  9 10  1  0
 10 11  1  0
 11 12  1  0
 12 13  2  0
 13 14  1  0
 14 15  2  0
 15 16  1  0
 16 17  2  0
  9 18  2  0
 18 19  1  0
 19 20  1  0
 20 21  1  0
 21 22  1  0
 22 23  1  0
 23 24  2  0
 24 25  1  0
 25 26  2  0
 26 27  1  0
 27 28  2  0
 28 29  1  0
 19 30  2  0
  5 31  1  0
 31 32  1  0
 32  2  1  0
 30  7  1  0
 17 12  1  0
 29 20  1  0
 28 23  1  0
  1 33  1  0
  1 34  1  0
  2 35  1  6
  3 36  1  0
  3 37  1  0
  4 38  1  0
  4 39  1  0
  5 40  1  6
  6 41  1  0
 10 42  1  0
 11 43  1  0
 11 44  1  0
 13 45  1  0
 14 46  1  0
 15 47  1  0
 16 48  1  0
 17 49  1  0
 21 50  1  0
 21 51  1  0
 22 52  1  0
 22 53  1  0
 24 54  1  0
 25 55  1  0
 26 56  1  0
 27 57  1  0
 29 58  1  0
 29 59  1  0
 31 60  1  0
 31 61  1  0
 32 62  1  0
 32 63  1  0
M  END
>  <smiles>  (37) 
NC1CCC(Nc2nc(NCc3ccccc3)nc(N3CCc4ccccc4C3)n2)CC1

>  <score_type>  (37) 
oracle

>  <origin>  (37) 
autodockgpu

>  <m_score__min__energy>  (37) 
-9.7599999999999998

>  <m_primary>  (37) 
energy

>  <rmsd>  (37) 
9.734008911627965

>  <m_score__min__rmsd>  (37) 
9.734008911627965

>  <meeko>  (37) 
{"free_energy": -8.52, "intermolecular_energy": -10.61, "internal_energy": -1.5, "cluster_size": 12, "cluster_id": 3, "rank_in_cluster": 11}

>  <energy>  (37) 
-8.98

>  <cluster_rmsd>  (37) 
0.49

>  <cluster>  (37) 
4

$$$$

     RDKit          3D

 63 67  0  0  0  0  0  0  0  0999 V2000
  139.6430   68.0490  227.4100 N   0  0  0  0  0  0  0  0  0  0  0  0
  140.0620   68.6470  226.1320 C   0  0  2  0  0  0  0  0  0  0  0  0
  140.5470   70.0190  226.4590 C   0  0  0  0  0  0  0  0  0  0  0  0
  140.7710   70.9140  225.2660 C   0  0  0  0  0  0  0  0  0  0  0  0
  139.9080   70.5710  224.1010 C   0  0  2  0  0  0  0  0  0  0  0  0
  139.5450   71.7990  223.4190 N   0  0  0  0  0  0  0  0  0  0  0  0
  140.4910   72.3990  222.5460 C   0  0  0  0  0  0  0  0  0  0  0  0
  140.5010   73.7180  222.3470 N   0  0  0  0  0  0  0  0  0  0  0  0
  141.3960   74.3090  221.5140 C   0  0  0  0  0  0  0  0  0  0  0  0
  141.2930   75.7240  221.3960 N   0  0  0  0  0  0  0  0  0  0  0  0
  140.0410   76.4440  221.4940 C   0  0  0  0  0  0  0  0  0  0  0  0
  140.2140   77.7070  222.2850 C   0  0  0  0  0  0  0  0  0  0  0  0
  141.4610   78.2190  222.5860 C   0  0  0  0  0  0  0  0  0  0  0  0
  141.5550   79.3900  223.3200 C   0  0  0  0  0  0  0  0  0  0  0  0
  140.4230   80.0670  223.7630 C   0  0  0  0  0  0  0  0  0  0  0  0
  139.1750   79.5590  223.4630 C   0  0  0  0  0  0  0  0  0  0  0  0
  139.0820   78.3920  222.7330 C   0  0  0  0  0  0  0  0  0  0  0  0
  142.3120   73.5790  220.8560 N   0  0  0  0  0  0  0  0  0  0  0  0
  142.2940   72.2510  221.0640 C   0  0  0  0  0  0  0  0  0  0  0  0
  143.2660   71.4800  220.3650 N   0  0  0  0  0  0  0  0  0  0  0  0
  144.6090   71.9950  220.2020 C   0  0  0  0  0  0  0  0  0  0  0  0
  145.0760   71.5660  218.8050 C   0  0  0  0  0  0  0  0  0  0  0  0
  145.1650   70.0740  218.8780 C   0  0  0  0  0  0  0  0  0  0  0  0
  146.3070   69.4270  218.4480 C   0  0  0  0  0  0  0  0  0  0  0  0
  146.3140   68.0450  218.5470 C   0  0  0  0  0  0  0  0  0  0  0  0
  145.2250   67.3670  219.0540 C   0  0  0  0  0  0  0  0  0  0  0  0
  144.0900   68.0260  219.4820 C   0  0  0  0  0  0  0  0  0  0  0  0
  144.0670   69.4080  219.3890 C   0  0  0  0  0  0  0  0  0  0  0  0
  142.8810   70.1870  219.8290 C   0  0  0  0  0  0  0  0  0  0  0  0
  141.4070   71.6670  221.8860 N   0  0  0  0  0  0  0  0  0  0  0  0
  138.6190   69.8870  224.4980 C   0  0  0  0  0  0  0  0  0  0  0  0
  138.8670   68.6020  225.2460 C   0  0  0  0  0  0  0  0  0  0  0  0
  139.6390   67.0100  227.2900 H   0  0  0  0  0  0  0  0  0  0  0  0
  140.4540   68.2350  228.0700 H   0  0  0  0  0  0  0  0  0  0  0  0
  140.8777   68.1299  225.6054 H   0  0  0  0  0  0  0  0  0  0  0  0
  141.5005   69.9247  226.9993 H   0  0  0  0  0  0  0  0  0  0  0  0
  139.7536   70.4928  227.0557 H   0  0  0  0  0  0  0  0  0  0  0  0
  141.8235   70.8282  224.9580 H   0  0  0  0  0  0  0  0  0  0  0  0
  140.5110   71.9376  225.5736 H   0  0  0  0  0  0  0  0  0  0  0  0
  140.4855   69.8820  223.4671 H   0  0  0  0  0  0  0  0  0  0  0  0
  138.6140   72.2710  223.5370 H   0  0  0  0  0  0  0  0  0  0  0  0
  142.2060   76.2320  221.2290 H   0  0  0  0  0  0  0  0  0  0  0  0
  139.6902   76.6970  220.4826 H   0  0  0  0  0  0  0  0  0  0  0  0
  139.3058   75.8053  222.0054 H   0  0  0  0  0  0  0  0  0  0  0  0
  142.3705   77.7020  222.2462 H   0  0  0  0  0  0  0  0  0  0  0  0
  142.5496   79.7948  223.5587 H   0  0  0  0  0  0  0  0  0  0  0  0
  140.5213   80.9953  224.3449 H   0  0  0  0  0  0  0  0  0  0  0  0
  138.2662   80.0781  223.8017 H   0  0  0  0  0  0  0  0  0  0  0  0
  138.0863   77.9887  222.4966 H   0  0  0  0  0  0  0  0  0  0  0  0
  144.6071   73.0921  220.2813 H   0  0  0  0  0  0  0  0  0  0  0  0
  145.2805   71.6062  220.9817 H   0  0  0  0  0  0  0  0  0  0  0  0
  144.3479   71.8746  218.0404 H   0  0  0  0  0  0  0  0  0  0  0  0
  146.0345   72.0278  218.5256 H   0  0  0  0  0  0  0  0  0  0  0  0
  147.1682   69.9814  218.0468 H   0  0  0  0  0  0  0  0  0  0  0  0
  147.1992   67.4814  218.2171 H   0  0  0  0  0  0  0  0  0  0  0  0
  145.2620   66.2696  219.1192 H   0  0  0  0  0  0  0  0  0  0  0  0
  143.2300   67.4707  219.8846 H   0  0  0  0  0  0  0  0  0  0  0  0
  142.2141   70.3407  218.9678 H   0  0  0  0  0  0  0  0  0  0  0  0
  142.3700   69.6215  220.6222 H   0  0  0  0  0  0  0  0  0  0  0  0
  138.0417   69.6627  223.5889 H   0  0  0  0  0  0  0  0  0  0  0  0
  138.0661   70.5658  225.1640 H   0  0  0  0  0  0  0  0  0  0  0  0
  139.0088   67.7948  224.5123 H   0  0  0  0  0  0  0  0  0  0  0  0
  137.9934   68.4325  225.8926 H   0  0  0  0  0  0  0  0  0  0  0  0
  1  2  1  0
  2  3  1  0
  3  4  1  0
  4  5  1  0
  5  6  1  0
  6  7  1  0
  7  8  2  0
  8  9  1  0
  9 10  1  0
 10 11  1  0
 11 12  1  0
 12 13  2  0
 13 14  1  0
 14 15  2  0
 15 16  1  0
 16 17  2  0
  9 18  2  0
 18 19  1  0
 19 20  1  0
 20 21  1  0
 21 22  1  0
 22 23  1  0
 23 24  2  0
 24 25  1  0
 25 26  2  0
 26 27  1  0
 27 28  2  0
 28 29  1  0
 19 30  2  0
  5 31  1  0
 31 32  1  0
 32  2  1  0
 30  7  1  0
 17 12  1  0
 29 20  1  0
 28 23  1  0
  1 33  1  0
  1 34  1  0
  2 35  1  6
  3 36  1  0
  3 37  1  0
  4 38  1  0
  4 39  1  0
  5 40  1  6
  6 41  1  0
 10 42  1  0
 11 43  1  0
 11 44  1  0
 13 45  1  0
 14 46  1  0
 15 47  1  0
 16 48  1  0
 17 49  1  0
 21 50  1  0
 21 51  1  0
 22 52  1  0
 22 53  1  0
 24 54  1  0
 25 55  1  0
 26 56  1  0
 27 57  1  0
 29 58  1  0
 29 59  1  0
 31 60  1  0
 31 61  1  0
 32 62  1  0
 32 63  1  0
M  END
>  <smiles>  (38) 
NC1CCC(Nc2nc(NCc3ccccc3)nc(N3CCc4ccccc4C3)n2)CC1

>  <score_type>  (38) 
oracle

>  <origin>  (38) 
autodockgpu

>  <m_score__min__energy>  (38) 
-9.7599999999999998

>  <m_primary>  (38) 
energy

>  <rmsd>  (38) 
8.227595239268064

>  <m_score__min__rmsd>  (38) 
8.227595239268064

>  <meeko>  (38) 
{"free_energy": -9.67, "intermolecular_energy": -11.76, "internal_energy": -0.86, "cluster_size": 12, "cluster_id": 3, "rank_in_cluster": 3}

>  <energy>  (38) 
-8.62

>  <cluster_rmsd>  (38) 
0.43

>  <cluster>  (38) 
4

$$$$

     RDKit          3D

 63 67  0  0  0  0  0  0  0  0999 V2000
  146.5540   73.4280  219.0510 N   0  0  0  0  0  0  0  0  0  0  0  0
  145.5290   72.3780  218.9450 C   0  0  2  0  0  0  0  0  0  0  0  0
  144.5470   72.8630  217.9320 C   0  0  0  0  0  0  0  0  0  0  0  0
  143.2650   72.0700  217.8620 C   0  0  0  0  0  0  0  0  0  0  0  0
  142.9070   71.4130  219.1490 C   0  0  2  0  0  0  0  0  0  0  0  0
  141.4620   71.4240  219.2860 N   0  0  0  0  0  0  0  0  0  0  0  0
  140.8940   71.9610  220.4700 C   0  0  0  0  0  0  0  0  0  0  0  0
  140.5170   73.2400  220.5320 N   0  0  0  0  0  0  0  0  0  0  0  0
  139.9720   73.7720  221.6570 C   0  0  0  0  0  0  0  0  0  0  0  0
  139.6150   75.1470  221.5830 N   0  0  0  0  0  0  0  0  0  0  0  0
  140.5370   76.2280  221.8620 C   0  0  0  0  0  0  0  0  0  0  0  0
  141.5290   76.3830  220.7470 C   0  0  0  0  0  0  0  0  0  0  0  0
  142.4880   75.4250  220.4800 C   0  0  0  0  0  0  0  0  0  0  0  0
  143.3750   75.6270  219.4350 C   0  0  0  0  0  0  0  0  0  0  0  0
  143.3260   76.7700  218.6450 C   0  0  0  0  0  0  0  0  0  0  0  0
  142.3680   77.7290  218.9090 C   0  0  0  0  0  0  0  0  0  0  0  0
  141.4850   77.5290  219.9490 C   0  0  0  0  0  0  0  0  0  0  0  0
  139.7930   73.0220  222.7570 N   0  0  0  0  0  0  0  0  0  0  0  0
  140.1760   71.7350  222.6850 C   0  0  0  0  0  0  0  0  0  0  0  0
  139.9850   70.9440  223.8520 N   0  0  0  0  0  0  0  0  0  0  0  0
  139.5460   69.5700  223.7240 C   0  0  0  0  0  0  0  0  0  0  0  0
  138.5910   69.3030  224.8950 C   0  0  0  0  0  0  0  0  0  0  0  0
  139.4550   69.3950  226.1140 C   0  0  0  0  0  0  0  0  0  0  0  0
  139.4200   68.3920  227.0640 C   0  0  0  0  0  0  0  0  0  0  0  0
  140.2470   68.5470  228.1630 C   0  0  0  0  0  0  0  0  0  0  0  0
  141.0600   69.6550  228.2870 C   0  0  0  0  0  0  0  0  0  0  0  0
  141.0860   70.6510  227.3300 C   0  0  0  0  0  0  0  0  0  0  0  0
  140.2630   70.5100  226.2240 C   0  0  0  0  0  0  0  0  0  0  0  0
  140.2360   71.5390  225.1530 C   0  0  0  0  0  0  0  0  0  0  0  0
  140.7160   71.2100  221.5730 N   0  0  0  0  0  0  0  0  0  0  0  0
  143.4720   72.1250  220.3570 C   0  0  0  0  0  0  0  0  0  0  0  0
  144.9770   72.2030  220.3160 C   0  0  0  0  0  0  0  0  0  0  0  0
  146.6130   73.9120  218.1260 H   0  0  0  0  0  0  0  0  0  0  0  0
  146.1270   74.1530  219.7000 H   0  0  0  0  0  0  0  0  0  0  0  0
  145.8845   71.3928  218.6089 H   0  0  0  0  0  0  0  0  0  0  0  0
  145.0278   72.8239  216.9434 H   0  0  0  0  0  0  0  0  0  0  0  0
  144.2646   73.8812  218.2378 H   0  0  0  0  0  0  0  0  0  0  0  0
  143.3774   71.2921  217.0925 H   0  0  0  0  0  0  0  0  0  0  0  0
  142.4575   72.7774  217.6221 H   0  0  0  0  0  0  0  0  0  0  0  0
  143.3280   70.3973  219.1171 H   0  0  0  0  0  0  0  0  0  0  0  0
  140.8100   71.0550  218.5490 H   0  0  0  0  0  0  0  0  0  0  0  0
  138.6130   75.3410  221.3050 H   0  0  0  0  0  0  0  0  0  0  0  0
  139.9713   77.1647  221.9742 H   0  0  0  0  0  0  0  0  0  0  0  0
  141.0818   75.9964  222.7891 H   0  0  0  0  0  0  0  0  0  0  0  0
  142.5467   74.5118  221.0904 H   0  0  0  0  0  0  0  0  0  0  0  0
  144.1380   74.8630  219.2249 H   0  0  0  0  0  0  0  0  0  0  0  0
  144.0409   76.9086  217.8206 H   0  0  0  0  0  0  0  0  0  0  0  0
  142.3100   78.6413  218.2971 H   0  0  0  0  0  0  0  0  0  0  0  0
  140.7231   78.2947  220.1566 H   0  0  0  0  0  0  0  0  0  0  0  0
  139.0225   69.4266  222.7672 H   0  0  0  0  0  0  0  0  0  0  0  0
  140.4004   68.8775  223.7436 H   0  0  0  0  0  0  0  0  0  0  0  0
  137.7933   70.0598  224.9261 H   0  0  0  0  0  0  0  0  0  0  0  0
  138.0898   68.3274  224.8110 H   0  0  0  0  0  0  0  0  0  0  0  0
  138.7671   67.5138  226.9523 H   0  0  0  0  0  0  0  0  0  0  0  0
  140.2563   67.7766  228.9481 H   0  0  0  0  0  0  0  0  0  0  0  0
  141.7056   69.7478  229.1728 H   0  0  0  0  0  0  0  0  0  0  0  0
  141.7396   71.5286  227.4424 H   0  0  0  0  0  0  0  0  0  0  0  0
  139.4396   72.2648  225.3742 H   0  0  0  0  0  0  0  0  0  0  0  0
  141.2181   72.0336  225.1236 H   0  0  0  0  0  0  0  0  0  0  0  0
  143.1695   71.5803  221.2635 H   0  0  0  0  0  0  0  0  0  0  0  0
  143.0792   73.1525  220.3594 H   0  0  0  0  0  0  0  0  0  0  0  0
  145.3848   71.2729  220.7386 H   0  0  0  0  0  0  0  0  0  0  0  0
  145.2692   73.0906  220.8963 H   0  0  0  0  0  0  0  0  0  0  0  0
  1  2  1  0
  2  3  1  0
  3  4  1  0
  4  5  1  0
  5  6  1  0
  6  7  1  0
  7  8  2  0
  8  9  1  0
  9 10  1  0
 10 11  1  0
 11 12  1  0
 12 13  2  0
 13 14  1  0
 14 15  2  0
 15 16  1  0
 16 17  2  0
  9 18  2  0
 18 19  1  0
 19 20  1  0
 20 21  1  0
 21 22  1  0
 22 23  1  0
 23 24  2  0
 24 25  1  0
 25 26  2  0
 26 27  1  0
 27 28  2  0
 28 29  1  0
 19 30  2  0
  5 31  1  0
 31 32  1  0
 32  2  1  0
 30  7  1  0
 17 12  1  0
 29 20  1  0
 28 23  1  0
  1 33  1  0
  1 34  1  0
  2 35  1  6
  3 36  1  0
  3 37  1  0
  4 38  1  0
  4 39  1  0
  5 40  1  6
  6 41  1  0
 10 42  1  0
 11 43  1  0
 11 44  1  0
 13 45  1  0
 14 46  1  0
 15 47  1  0
 16 48  1  0
 17 49  1  0
 21 50  1  0
 21 51  1  0
 22 52  1  0
 22 53  1  0
 24 54  1  0
 25 55  1  0
 26 56  1  0
 27 57  1  0
 29 58  1  0
 29 59  1  0
 31 60  1  0
 31 61  1  0
 32 62  1  0
 32 63  1  0
M  END
>  <smiles>  (39) 
NC1CCC(Nc2nc(NCc3ccccc3)nc(N3CCc4ccccc4C3)n2)CC1

>  <score_type>  (39) 
oracle

>  <origin>  (39) 
autodockgpu

>  <m_score__min__energy>  (39) 
-9.7599999999999998

>  <m_primary>  (39) 
energy

>  <rmsd>  (39) 
3.975941753803271

>  <m_score__min__rmsd>  (39) 
3.975941753803271

>  <meeko>  (39) 
{"free_energy": -8.7, "intermolecular_energy": -10.79, "internal_energy": -1.7, "cluster_size": 15, "cluster_id": 1, "rank_in_cluster": 15}

>  <energy>  (39) 
-8.5

>  <cluster_rmsd>  (39) 
0.52

>  <cluster>  (39) 
4

$$$$

     RDKit          3D

 63 67  0  0  0  0  0  0  0  0999 V2000
  146.6790   73.4440  218.9620 N   0  0  0  0  0  0  0  0  0  0  0  0
  145.5600   72.5010  219.1160 C   0  0  2  0  0  0  0  0  0  0  0  0
  144.7120   72.6670  217.9000 C   0  0  0  0  0  0  0  0  0  0  0  0
  143.3640   71.9940  217.9700 C   0  0  0  0  0  0  0  0  0  0  0  0
  142.8430   71.8610  219.3590 C   0  0  2  0  0  0  0  0  0  0  0  0
  141.4020   72.0240  219.3290 N   0  0  0  0  0  0  0  0  0  0  0  0
  140.7500   72.5380  220.4800 C   0  0  0  0  0  0  0  0  0  0  0  0
  140.2280   71.7190  221.3960 N   0  0  0  0  0  0  0  0  0  0  0  0
  139.6000   72.1920  222.5040 C   0  0  0  0  0  0  0  0  0  0  0  0
  139.0920   71.2070  223.3970 N   0  0  0  0  0  0  0  0  0  0  0  0
  139.9250   70.2290  224.0640 C   0  0  0  0  0  0  0  0  0  0  0  0
  140.2080   70.6470  225.4760 C   0  0  0  0  0  0  0  0  0  0  0  0
  139.7070   69.9540  226.5610 C   0  0  0  0  0  0  0  0  0  0  0  0
  140.0050   70.3900  227.8420 C   0  0  0  0  0  0  0  0  0  0  0  0
  140.7980   71.5100  228.0660 C   0  0  0  0  0  0  0  0  0  0  0  0
  141.3020   72.2050  226.9840 C   0  0  0  0  0  0  0  0  0  0  0  0
  141.0050   71.7710  225.7090 C   0  0  0  0  0  0  0  0  0  0  0  0
  139.4800   73.5130  222.7170 N   0  0  0  0  0  0  0  0  0  0  0  0
  140.0080   74.3290  221.7890 C   0  0  0  0  0  0  0  0  0  0  0  0
  139.8790   75.7280  222.0180 N   0  0  0  0  0  0  0  0  0  0  0  0
  138.5810   76.2870  222.3310 C   0  0  0  0  0  0  0  0  0  0  0  0
  138.5130   77.6540  221.6360 C   0  0  0  0  0  0  0  0  0  0  0  0
  139.5480   78.4820  222.3310 C   0  0  0  0  0  0  0  0  0  0  0  0
  139.2250   79.7410  222.8010 C   0  0  0  0  0  0  0  0  0  0  0  0
  140.2340   80.4470  223.4340 C   0  0  0  0  0  0  0  0  0  0  0  0
  141.4950   79.9040  223.5770 C   0  0  0  0  0  0  0  0  0  0  0  0
  141.8050   78.6450  223.1020 C   0  0  0  0  0  0  0  0  0  0  0  0
  140.8050   77.9260  222.4670 C   0  0  0  0  0  0  0  0  0  0  0  0
  141.0620   76.5650  221.9300 C   0  0  0  0  0  0  0  0  0  0  0  0
  140.6290   73.8610  220.6930 N   0  0  0  0  0  0  0  0  0  0  0  0
  143.3890   72.9100  220.3010 C   0  0  0  0  0  0  0  0  0  0  0  0
  144.8920   72.8610  220.3960 C   0  0  0  0  0  0  0  0  0  0  0  0
  146.5050   74.0090  218.0990 H   0  0  0  0  0  0  0  0  0  0  0  0
  146.5550   74.1360  219.7590 H   0  0  0  0  0  0  0  0  0  0  0  0
  145.8348   71.4378  219.1798 H   0  0  0  0  0  0  0  0  0  0  0  0
  145.2589   72.2486  217.0422 H   0  0  0  0  0  0  0  0  0  0  0  0
  144.5145   73.7450  217.8061 H   0  0  0  0  0  0  0  0  0  0  0  0
  143.4527   70.9886  217.5327 H   0  0  0  0  0  0  0  0  0  0  0  0
  142.6551   72.6264  217.4154 H   0  0  0  0  0  0  0  0  0  0  0  0
  143.1552   70.8714  219.7239 H   0  0  0  0  0  0  0  0  0  0  0  0
  140.8120   71.7820  218.4940 H   0  0  0  0  0  0  0  0  0  0  0  0
  138.0450   71.2300  223.5490 H   0  0  0  0  0  0  0  0  0  0  0  0
  139.4067   69.2588  224.0718 H   0  0  0  0  0  0  0  0  0  0  0  0
  140.8786   70.1485  223.5216 H   0  0  0  0  0  0  0  0  0  0  0  0
  139.0776   69.0647  226.4094 H   0  0  0  0  0  0  0  0  0  0  0  0
  139.6041   69.8360  228.7036 H   0  0  0  0  0  0  0  0  0  0  0  0
  141.0211   71.8384  229.0919 H   0  0  0  0  0  0  0  0  0  0  0  0
  141.9323   73.0934  227.1372 H   0  0  0  0  0  0  0  0  0  0  0  0
  141.4078   72.3266  224.8493 H   0  0  0  0  0  0  0  0  0  0  0  0
  137.7837   75.6295  221.9541 H   0  0  0  0  0  0  0  0  0  0  0  0
  138.4439   76.3873  223.4178 H   0  0  0  0  0  0  0  0  0  0  0  0
  138.7472   77.5576  220.5656 H   0  0  0  0  0  0  0  0  0  0  0  0
  137.5105   78.1029  221.6952 H   0  0  0  0  0  0  0  0  0  0  0  0
  138.2160   80.1614  222.6782 H   0  0  0  0  0  0  0  0  0  0  0  0
  140.0281   81.4532  223.8279 H   0  0  0  0  0  0  0  0  0  0  0  0
  142.2752   80.4909  224.0838 H   0  0  0  0  0  0  0  0  0  0  0  0
  142.8146   78.2258  223.2240 H   0  0  0  0  0  0  0  0  0  0  0  0
  141.3642   76.6476  220.8755 H   0  0  0  0  0  0  0  0  0  0  0  0
  141.8591   76.1014  222.5297 H   0  0  0  0  0  0  0  0  0  0  0  0
  142.9649   72.7427  221.3021 H   0  0  0  0  0  0  0  0  0  0  0  0
  143.1070   73.8977  219.9074 H   0  0  0  0  0  0  0  0  0  0  0  0
  145.1680   72.1134  221.1542 H   0  0  0  0  0  0  0  0  0  0  0  0
  145.2308   73.8731  220.6623 H   0  0  0  0  0  0  0  0  0  0  0  0
  1  2  1  0
  2  3  1  0
  3  4  1  0
  4  5  1  0
  5  6  1  0
  6  7  1  0
  7  8  2  0
  8  9  1  0
  9 10  1  0
 10 11  1  0
 11 12  1  0
 12 13  2  0
 13 14  1  0
 14 15  2  0
 15 16  1  0
 16 17  2  0
  9 18  2  0
 18 19  1  0
 19 20  1  0
 20 21  1  0
 21 22  1  0
 22 23  1  0
 23 24  2  0
 24 25  1  0
 25 26  2  0
 26 27  1  0
 27 28  2  0
 28 29  1  0
 19 30  2  0
  5 31  1  0
 31 32  1  0
 32  2  1  0
 30  7  1  0
 17 12  1  0
 29 20  1  0
 28 23  1  0
  1 33  1  0
  1 34  1  0
  2 35  1  1
  3 36  1  0
  3 37  1  0
  4 38  1  0
  4 39  1  0
  5 40  1  1
  6 41  1  0
 10 42  1  0
 11 43  1  0
 11 44  1  0
 13 45  1  0
 14 46  1  0
 15 47  1  0
 16 48  1  0
 17 49  1  0
 21 50  1  0
 21 51  1  0
 22 52  1  0
 22 53  1  0
 24 54  1  0
 25 55  1  0
 26 56  1  0
 27 57  1  0
 29 58  1  0
 29 59  1  0
 31 60  1  0
 31 61  1  0
 32 62  1  0
 32 63  1  0
M  END
>  <smiles>  (40) 
NC1CCC(Nc2nc(NCc3ccccc3)nc(N3CCc4ccccc4C3)n2)CC1

>  <score_type>  (40) 
oracle

>  <origin>  (40) 
autodockgpu

>  <m_score__min__energy>  (40) 
-9.7599999999999998

>  <m_primary>  (40) 
energy

>  <rmsd>  (40) 
9.663143794137083

>  <m_score__min__rmsd>  (40) 
9.663143794137083

>  <meeko>  (40) 
{"free_energy": -9.67, "intermolecular_energy": -11.76, "internal_energy": -1.08, "cluster_size": 15, "cluster_id": 1, "rank_in_cluster": 5}

>  <energy>  (40) 
-8.15

>  <cluster_rmsd>  (40) 
1.59

>  <cluster>  (40) 
4

$$$$

     RDKit          3D

 63 67  0  0  0  0  0  0  0  0999 V2000
  142.9300   79.5960  217.5520 N   0  0  0  0  0  0  0  0  0  0  0  0
  142.0600   78.5940  218.1880 C   0  0  2  0  0  0  0  0  0  0  0  0
  141.6570   79.1740  219.5020 C   0  0  0  0  0  0  0  0  0  0  0  0
  140.9840   78.2060  220.4420 C   0  0  0  0  0  0  0  0  0  0  0  0
  141.3970   76.7910  220.2270 C   0  0  2  0  0  0  0  0  0  0  0  0
  141.4370   76.1220  221.5140 N   0  0  0  0  0  0  0  0  0  0  0  0
  141.3570   74.7050  221.5480 C   0  0  0  0  0  0  0  0  0  0  0  0
  140.3370   74.0890  222.1470 N   0  0  0  0  0  0  0  0  0  0  0  0
  140.2430   72.7350  222.1910 C   0  0  0  0  0  0  0  0  0  0  0  0
  139.1020   72.2130  222.8620 N   0  0  0  0  0  0  0  0  0  0  0  0
  138.9550   70.8180  223.2210 C   0  0  0  0  0  0  0  0  0  0  0  0
  139.5570   70.5500  224.5700 C   0  0  0  0  0  0  0  0  0  0  0  0
  138.8990   69.8110  225.5330 C   0  0  0  0  0  0  0  0  0  0  0  0
  139.5070   69.5980  226.7590 C   0  0  0  0  0  0  0  0  0  0  0  0
  140.7680   70.1100  227.0470 C   0  0  0  0  0  0  0  0  0  0  0  0
  141.4290   70.8490  226.0870 C   0  0  0  0  0  0  0  0  0  0  0  0
  140.8230   71.0620  224.8660 C   0  0  0  0  0  0  0  0  0  0  0  0
  141.1850   71.9610  221.6270 N   0  0  0  0  0  0  0  0  0  0  0  0
  142.2100   72.5900  221.0250 C   0  0  0  0  0  0  0  0  0  0  0  0
  143.2050   71.7670  220.4290 N   0  0  0  0  0  0  0  0  0  0  0  0
  144.5750   72.2300  220.3650 C   0  0  0  0  0  0  0  0  0  0  0  0
  145.1400   71.7480  219.0220 C   0  0  0  0  0  0  0  0  0  0  0  0
  145.1670   70.2560  219.1390 C   0  0  0  0  0  0  0  0  0  0  0  0
  146.3160   69.5580  218.8200 C   0  0  0  0  0  0  0  0  0  0  0  0
  146.2640   68.1800  218.9540 C   0  0  0  0  0  0  0  0  0  0  0  0
  145.1130   67.5540  219.3860 C   0  0  0  0  0  0  0  0  0  0  0  0
  143.9710   68.2640  219.7020 C   0  0  0  0  0  0  0  0  0  0  0  0
  144.0080   69.6420  219.5730 C   0  0  0  0  0  0  0  0  0  0  0  0
  142.8190   70.4740  219.8940 C   0  0  0  0  0  0  0  0  0  0  0  0
  142.3010   73.9300  220.9840 N   0  0  0  0  0  0  0  0  0  0  0  0
  142.7740   76.6610  219.6160 C   0  0  0  0  0  0  0  0  0  0  0  0
  142.8670   77.3470  218.2770 C   0  0  0  0  0  0  0  0  0  0  0  0
  143.9140   79.4000  217.8490 H   0  0  0  0  0  0  0  0  0  0  0  0
  142.9120   79.3470  216.5190 H   0  0  0  0  0  0  0  0  0  0  0  0
  141.1365   78.3462  217.6442 H   0  0  0  0  0  0  0  0  0  0  0  0
  140.9614   80.0043  219.3104 H   0  0  0  0  0  0  0  0  0  0  0  0
  142.5862   79.4911  219.9980 H   0  0  0  0  0  0  0  0  0  0  0  0
  139.8960   78.2779  220.2968 H   0  0  0  0  0  0  0  0  0  0  0  0
  141.2854   78.4814  221.4634 H   0  0  0  0  0  0  0  0  0  0  0  0
  140.6672   76.3462  219.5345 H   0  0  0  0  0  0  0  0  0  0  0  0
  141.5240   76.6330  222.4280 H   0  0  0  0  0  0  0  0  0  0  0  0
  138.3470   72.9200  223.0890 H   0  0  0  0  0  0  0  0  0  0  0  0
  137.8854   70.5625  223.2459 H   0  0  0  0  0  0  0  0  0  0  0  0
  139.4773   70.2037  222.4727 H   0  0  0  0  0  0  0  0  0  0  0  0
  137.9013   69.3954  225.3284 H   0  0  0  0  0  0  0  0  0  0  0  0
  138.9797   69.0093  227.5241 H   0  0  0  0  0  0  0  0  0  0  0  0
  141.2324   69.9281  228.0274 H   0  0  0  0  0  0  0  0  0  0  0  0
  142.4270   71.2632  226.2929 H   0  0  0  0  0  0  0  0  0  0  0  0
  141.3519   71.6522  224.1032 H   0  0  0  0  0  0  0  0  0  0  0  0
  144.6070   73.3283  220.4177 H   0  0  0  0  0  0  0  0  0  0  0  0
  145.1652   71.8382  221.2065 H   0  0  0  0  0  0  0  0  0  0  0  0
  144.4895   72.0610  218.1920 H   0  0  0  0  0  0  0  0  0  0  0  0
  146.1345   72.1686  218.8121 H   0  0  0  0  0  0  0  0  0  0  0  0
  147.2266   70.0708  218.4768 H   0  0  0  0  0  0  0  0  0  0  0  0
  147.1520   67.5772  218.7128 H   0  0  0  0  0  0  0  0  0  0  0  0
  145.1044   66.4582  219.4816 H   0  0  0  0  0  0  0  0  0  0  0  0
  143.0607   67.7507  220.0454 H   0  0  0  0  0  0  0  0  0  0  0  0
  142.2315   70.6273  218.9767 H   0  0  0  0  0  0  0  0  0  0  0  0
  142.2245   69.9482  220.6556 H   0  0  0  0  0  0  0  0  0  0  0  0
  143.0044   75.5935  219.4844 H   0  0  0  0  0  0  0  0  0  0  0  0
  143.4927   77.1436  220.2946 H   0  0  0  0  0  0  0  0  0  0  0  0
  142.5143   76.6488  217.5036 H   0  0  0  0  0  0  0  0  0  0  0  0
  143.9194   77.6335  218.1343 H   0  0  0  0  0  0  0  0  0  0  0  0
  1  2  1  0
  2  3  1  0
  3  4  1  0
  4  5  1  0
  5  6  1  0
  6  7  1  0
  7  8  2  0
  8  9  1  0
  9 10  1  0
 10 11  1  0
 11 12  1  0
 12 13  2  0
 13 14  1  0
 14 15  2  0
 15 16  1  0
 16 17  2  0
  9 18  2  0
 18 19  1  0
 19 20  1  0
 20 21  1  0
 21 22  1  0
 22 23  1  0
 23 24  2  0
 24 25  1  0
 25 26  2  0
 26 27  1  0
 27 28  2  0
 28 29  1  0
 19 30  2  0
  5 31  1  0
 31 32  1  0
 32  2  1  0
 30  7  1  0
 17 12  1  0
 29 20  1  0
 28 23  1  0
  1 33  1  0
  1 34  1  0
  2 35  1  6
  3 36  1  0
  3 37  1  0
  4 38  1  0
  4 39  1  0
  5 40  1  6
  6 41  1  0
 10 42  1  0
 11 43  1  0
 11 44  1  0
 13 45  1  0
 14 46  1  0
 15 47  1  0
 16 48  1  0
 17 49  1  0
 21 50  1  0
 21 51  1  0
 22 52  1  0
 22 53  1  0
 24 54  1  0
 25 55  1  0
 26 56  1  0
 27 57  1  0
 29 58  1  0
 29 59  1  0
 31 60  1  0
 31 61  1  0
 32 62  1  0
 32 63  1  0
M  END
>  <smiles>  (41) 
NC1CCC(Nc2nc(NCc3ccccc3)nc(N3CCc4ccccc4C3)n2)CC1

>  <score_type>  (41) 
oracle

>  <origin>  (41) 
autodockgpu

>  <m_score__min__energy>  (41) 
-9.7599999999999998

>  <m_primary>  (41) 
energy

>  <rmsd>  (41) 
8.017912439090384

>  <m_score__min__rmsd>  (41) 
8.017912439090384

>  <meeko>  (41) 
{"free_energy": -9.42, "intermolecular_energy": -11.51, "internal_energy": -1.06, "cluster_size": 6, "cluster_id": 2, "rank_in_cluster": 2}

>  <energy>  (41) 
-9.04

>  <cluster_rmsd>  (41) 
0.0

>  <cluster>  (41) 
5

$$$$

     RDKit          3D

 63 67  0  0  0  0  0  0  0  0999 V2000
  140.3560   67.7800  227.7550 N   0  0  0  0  0  0  0  0  0  0  0  0
  140.5580   68.5050  226.4900 C   0  0  2  0  0  0  0  0  0  0  0  0
  140.6820   69.9450  226.8570 C   0  0  0  0  0  0  0  0  0  0  0  0
  140.6230   70.9030  225.6930 C   0  0  0  0  0  0  0  0  0  0  0  0
  139.8350   70.3840  224.5410 C   0  0  2  0  0  0  0  0  0  0  0  0
  139.1420   71.4950  223.9180 N   0  0  0  0  0  0  0  0  0  0  0  0
  139.7750   72.1800  222.8480 C   0  0  0  0  0  0  0  0  0  0  0  0
  140.4830   71.5170  221.9320 N   0  0  0  0  0  0  0  0  0  0  0  0
  141.0970   72.1550  220.9020 C   0  0  0  0  0  0  0  0  0  0  0  0
  141.8170   71.3240  219.9980 N   0  0  0  0  0  0  0  0  0  0  0  0
  142.7490   71.8340  219.0150 C   0  0  0  0  0  0  0  0  0  0  0  0
  143.8350   72.6310  219.6750 C   0  0  0  0  0  0  0  0  0  0  0  0
  143.7350   73.9970  219.8580 C   0  0  0  0  0  0  0  0  0  0  0  0
  144.7720   74.6760  220.4750 C   0  0  0  0  0  0  0  0  0  0  0  0
  145.9160   74.0190  220.9180 C   0  0  0  0  0  0  0  0  0  0  0  0
  146.0190   72.6550  220.7370 C   0  0  0  0  0  0  0  0  0  0  0  0
  144.9870   71.9780  220.1220 C   0  0  0  0  0  0  0  0  0  0  0  0
  141.0120   73.4890  220.7680 N   0  0  0  0  0  0  0  0  0  0  0  0
  140.2970   74.1490  221.6960 C   0  0  0  0  0  0  0  0  0  0  0  0
  140.2090   75.5610  221.5530 N   0  0  0  0  0  0  0  0  0  0  0  0
  139.2600   76.1310  220.6200 C   0  0  0  0  0  0  0  0  0  0  0  0
  139.9400   77.3550  219.9940 C   0  0  0  0  0  0  0  0  0  0  0  0
  140.1000   78.3190  221.1270 C   0  0  0  0  0  0  0  0  0  0  0  0
  139.6880   79.6300  220.9850 C   0  0  0  0  0  0  0  0  0  0  0  0
  139.8680   80.4610  222.0770 C   0  0  0  0  0  0  0  0  0  0  0  0
  140.4340   79.9860  223.2420 C   0  0  0  0  0  0  0  0  0  0  0  0
  140.8420   78.6720  223.3720 C   0  0  0  0  0  0  0  0  0  0  0  0
  140.6680   77.8290  222.2880 C   0  0  0  0  0  0  0  0  0  0  0  0
  141.0820   76.4030  222.3510 C   0  0  0  0  0  0  0  0  0  0  0  0
  139.6910   73.5170  222.7150 N   0  0  0  0  0  0  0  0  0  0  0  0
  138.7830   69.3760  224.9470 C   0  0  0  0  0  0  0  0  0  0  0  0
  139.3830   68.1770  225.6370 C   0  0  0  0  0  0  0  0  0  0  0  0
  139.4210   67.3130  227.7100 H   0  0  0  0  0  0  0  0  0  0  0  0
  141.0520   66.9790  227.7170 H   0  0  0  0  0  0  0  0  0  0  0  0
  141.4596   68.2348  225.9208 H   0  0  0  0  0  0  0  0  0  0  0  0
  141.6461   70.0860  227.3674 H   0  0  0  0  0  0  0  0  0  0  0  0
  139.8153   70.1777  227.4931 H   0  0  0  0  0  0  0  0  0  0  0  0
  141.6498   71.1016  225.3522 H   0  0  0  0  0  0  0  0  0  0  0  0
  140.1196   71.8147  226.0472 H   0  0  0  0  0  0  0  0  0  0  0  0
  140.5469   69.8887  223.8643 H   0  0  0  0  0  0  0  0  0  0  0  0
  138.1890   71.8210  224.2170 H   0  0  0  0  0  0  0  0  0  0  0  0
  141.6280   70.2860  220.0880 H   0  0  0  0  0  0  0  0  0  0  0  0
  143.1997   70.9896  218.4730 H   0  0  0  0  0  0  0  0  0  0  0  0
  142.2044   72.4885  218.3186 H   0  0  0  0  0  0  0  0  0  0  0  0
  142.8408   74.5394  219.5170 H   0  0  0  0  0  0  0  0  0  0  0  0
  144.6894   75.7634  220.6188 H   0  0  0  0  0  0  0  0  0  0  0  0
  146.7271   74.5795  221.4058 H   0  0  0  0  0  0  0  0  0  0  0  0
  146.9136   72.1141  221.0792 H   0  0  0  0  0  0  0  0  0  0  0  0
  145.0731   70.8908  219.9788 H   0  0  0  0  0  0  0  0  0  0  0  0
  139.0072   75.3974  219.8403 H   0  0  0  0  0  0  0  0  0  0  0  0
  138.3259   76.4132  221.1278 H   0  0  0  0  0  0  0  0  0  0  0  0
  140.9198   77.0827  219.5746 H   0  0  0  0  0  0  0  0  0  0  0  0
  139.3541   77.7791  219.1652 H   0  0  0  0  0  0  0  0  0  0  0  0
  139.2389   79.9955  220.0497 H   0  0  0  0  0  0  0  0  0  0  0  0
  139.5557   81.5139  222.0152 H   0  0  0  0  0  0  0  0  0  0  0  0
  140.5643   80.6726  224.0915 H   0  0  0  0  0  0  0  0  0  0  0  0
  141.2910   78.3074  224.3077 H   0  0  0  0  0  0  0  0  0  0  0  0
  142.1107   76.3121  221.9722 H   0  0  0  0  0  0  0  0  0  0  0  0
  141.0201   76.0710  223.3979 H   0  0  0  0  0  0  0  0  0  0  0  0
  138.2501   69.0371  224.0464 H   0  0  0  0  0  0  0  0  0  0  0  0
  138.0986   69.8668  225.6546 H   0  0  0  0  0  0  0  0  0  0  0  0
  139.7015   67.4571  224.8686 H   0  0  0  0  0  0  0  0  0  0  0  0
  138.6079   67.7660  226.3006 H   0  0  0  0  0  0  0  0  0  0  0  0
  1  2  1  0
  2  3  1  0
  3  4  1  0
  4  5  1  0
  5  6  1  0
  6  7  1  0
  7  8  2  0
  8  9  1  0
  9 10  1  0
 10 11  1  0
 11 12  1  0
 12 13  2  0
 13 14  1  0
 14 15  2  0
 15 16  1  0
 16 17  2  0
  9 18  2  0
 18 19  1  0
 19 20  1  0
 20 21  1  0
 21 22  1  0
 22 23  1  0
 23 24  2  0
 24 25  1  0
 25 26  2  0
 26 27  1  0
 27 28  2  0
 28 29  1  0
 19 30  2  0
  5 31  1  0
 31 32  1  0
 32  2  1  0
 30  7  1  0
 17 12  1  0
 29 20  1  0
 28 23  1  0
  1 33  1  0
  1 34  1  0
  2 35  1  6
  3 36  1  0
  3 37  1  0
  4 38  1  0
  4 39  1  0
  5 40  1  6
  6 41  1  0
 10 42  1  0
 11 43  1  0
 11 44  1  0
 13 45  1  0
 14 46  1  0
 15 47  1  0
 16 48  1  0
 17 49  1  0
 21 50  1  0
 21 51  1  0
 22 52  1  0
 22 53  1  0
 24 54  1  0
 25 55  1  0
 26 56  1  0
 27 57  1  0
 29 58  1  0
 29 59  1  0
 31 60  1  0
 31 61  1  0
 32 62  1  0
 32 63  1  0
M  END
>  <smiles>  (42) 
NC1CCC(Nc2nc(NCc3ccccc3)nc(N3CCc4ccccc4C3)n2)CC1

>  <score_type>  (42) 
oracle

>  <origin>  (42) 
autodockgpu

>  <m_score__min__energy>  (42) 
-9.7599999999999998

>  <m_primary>  (42) 
energy

>  <rmsd>  (42) 
9.93111437455271

>  <m_score__min__rmsd>  (42) 
9.93111437455271

>  <meeko>  (42) 
{"free_energy": -8.98, "intermolecular_energy": -11.06, "internal_energy": -1.21, "cluster_size": 12, "cluster_id": 3, "rank_in_cluster": 9}

>  <energy>  (42) 
-9.03

>  <cluster_rmsd>  (42) 
0.0

>  <cluster>  (42) 
6

$$$$

     RDKit          3D

 63 67  0  0  0  0  0  0  0  0999 V2000
  146.4390   73.4320  217.7960 N   0  0  0  0  0  0  0  0  0  0  0  0
  145.1360   72.8710  217.4050 C   0  0  2  0  0  0  0  0  0  0  0  0
  144.2100   74.0330  217.2760 C   0  0  0  0  0  0  0  0  0  0  0  0
  142.7520   73.6700  217.1480 C   0  0  0  0  0  0  0  0  0  0  0  0
  142.4070   72.3760  217.7990 C   0  0  2  0  0  0  0  0  0  0  0  0
  141.0750   72.4840  218.3630 N   0  0  0  0  0  0  0  0  0  0  0  0
  140.9400   72.8860  219.7180 C   0  0  0  0  0  0  0  0  0  0  0  0
  141.1570   74.1500  220.0840 N   0  0  0  0  0  0  0  0  0  0  0  0
  141.0340   74.5540  221.3750 C   0  0  0  0  0  0  0  0  0  0  0  0
  141.2940   75.9310  221.6230 N   0  0  0  0  0  0  0  0  0  0  0  0
  140.3500   76.8180  222.2690 C   0  0  0  0  0  0  0  0  0  0  0  0
  140.9490   78.1800  222.4640 C   0  0  0  0  0  0  0  0  0  0  0  0
  140.8410   79.1730  221.5100 C   0  0  0  0  0  0  0  0  0  0  0  0
  141.4150   80.4100  221.7500 C   0  0  0  0  0  0  0  0  0  0  0  0
  142.0990   80.6820  222.9300 C   0  0  0  0  0  0  0  0  0  0  0  0
  142.2090   79.6920  223.8870 C   0  0  0  0  0  0  0  0  0  0  0  0
  141.6380   78.4600  223.6470 C   0  0  0  0  0  0  0  0  0  0  0  0
  140.6850   73.6840  222.3390 N   0  0  0  0  0  0  0  0  0  0  0  0
  140.4680   72.4120  221.9600 C   0  0  0  0  0  0  0  0  0  0  0  0
  140.0990   71.4940  222.9830 N   0  0  0  0  0  0  0  0  0  0  0  0
  139.4730   70.2380  222.6270 C   0  0  0  0  0  0  0  0  0  0  0  0
  138.4260   69.9480  223.7110 C   0  0  0  0  0  0  0  0  0  0  0  0
  139.2250   69.7240  224.9570 C   0  0  0  0  0  0  0  0  0  0  0  0
  138.9910   68.6080  225.7370 C   0  0  0  0  0  0  0  0  0  0  0  0
  139.7700   68.4690  226.8740 C   0  0  0  0  0  0  0  0  0  0  0  0
  140.7270   69.4100  227.1950 C   0  0  0  0  0  0  0  0  0  0  0  0
  140.9510   70.5210  226.4060 C   0  0  0  0  0  0  0  0  0  0  0  0
  140.1800   70.6730  225.2660 C   0  0  0  0  0  0  0  0  0  0  0  0
  140.3620   71.8430  224.3670 C   0  0  0  0  0  0  0  0  0  0  0  0
  140.5920   72.0140  220.6830 N   0  0  0  0  0  0  0  0  0  0  0  0
  143.3410   72.0130  218.9310 C   0  0  0  0  0  0  0  0  0  0  0  0
  144.7720   71.8980  218.4710 C   0  0  0  0  0  0  0  0  0  0  0  0
  146.5790   74.3190  217.2610 H   0  0  0  0  0  0  0  0  0  0  0  0
  146.3020   73.7500  218.8000 H   0  0  0  0  0  0  0  0  0  0  0  0
  145.1146   72.3294  216.4478 H   0  0  0  0  0  0  0  0  0  0  0  0
  144.5001   74.6038  216.3816 H   0  0  0  0  0  0  0  0  0  0  0  0
  144.3045   74.6086  218.2086 H   0  0  0  0  0  0  0  0  0  0  0  0
  142.5023   73.6004  216.0790 H   0  0  0  0  0  0  0  0  0  0  0  0
  142.1751   74.4552  217.6586 H   0  0  0  0  0  0  0  0  0  0  0  0
  142.4831   71.5984  217.0247 H   0  0  0  0  0  0  0  0  0  0  0  0
  140.2000   72.2810  217.8190 H   0  0  0  0  0  0  0  0  0  0  0  0
  142.2400   76.2780  221.3000 H   0  0  0  0  0  0  0  0  0  0  0  0
  139.4502   76.9057  221.6424 H   0  0  0  0  0  0  0  0  0  0  0  0
  140.0907   76.4017  223.2536 H   0  0  0  0  0  0  0  0  0  0  0  0
  140.3043   78.9830  220.5688 H   0  0  0  0  0  0  0  0  0  0  0  0
  141.3277   81.1981  220.9875 H   0  0  0  0  0  0  0  0  0  0  0  0
  142.5465   81.6725  223.0990 H   0  0  0  0  0  0  0  0  0  0  0  0
  142.7451   79.8839  224.8282 H   0  0  0  0  0  0  0  0  0  0  0  0
  141.7277   77.6732  224.4105 H   0  0  0  0  0  0  0  0  0  0  0  0
  138.9880   70.3209  221.6432 H   0  0  0  0  0  0  0  0  0  0  0  0
  140.2149   69.4282  222.5649 H   0  0  0  0  0  0  0  0  0  0  0  0
  137.7467   70.8044  223.8339 H   0  0  0  0  0  0  0  0  0  0  0  0
  137.7936   69.0837  223.4598 H   0  0  0  0  0  0  0  0  0  0  0  0
  138.2241   67.8665  225.4685 H   0  0  0  0  0  0  0  0  0  0  0  0
  139.6239   67.5976  227.5292 H   0  0  0  0  0  0  0  0  0  0  0  0
  141.3286   69.2711  228.1054 H   0  0  0  0  0  0  0  0  0  0  0  0
  141.7181   71.2622  226.6748 H   0  0  0  0  0  0  0  0  0  0  0  0
  139.6688   72.6405  224.6728 H   0  0  0  0  0  0  0  0  0  0  0  0
  141.4058   72.1811  224.4462 H   0  0  0  0  0  0  0  0  0  0  0  0
  143.0261   71.0481  219.3550 H   0  0  0  0  0  0  0  0  0  0  0  0
  143.2902   72.8148  219.6823 H   0  0  0  0  0  0  0  0  0  0  0  0
  144.9317   70.8812  218.0828 H   0  0  0  0  0  0  0  0  0  0  0  0
  145.4087   72.1192  219.3403 H   0  0  0  0  0  0  0  0  0  0  0  0
  1  2  1  0
  2  3  1  0
  3  4  1  0
  4  5  1  0
  5  6  1  0
  6  7  1  0
  7  8  2  0
  8  9  1  0
  9 10  1  0
 10 11  1  0
 11 12  1  0
 12 13  2  0
 13 14  1  0
 14 15  2  0
 15 16  1  0
 16 17  2  0
  9 18  2  0
 18 19  1  0
 19 20  1  0
 20 21  1  0
 21 22  1  0
 22 23  1  0
 23 24  2  0
 24 25  1  0
 25 26  2  0
 26 27  1  0
 27 28  2  0
 28 29  1  0
 19 30  2  0
  5 31  1  0
 31 32  1  0
 32  2  1  0
 30  7  1  0
 17 12  1  0
 29 20  1  0
 28 23  1  0
  1 33  1  0
  1 34  1  0
  2 35  1  6
  3 36  1  0
  3 37  1  0
  4 38  1  0
  4 39  1  0
  5 40  1  6
  6 41  1  0
 10 42  1  0
 11 43  1  0
 11 44  1  0
 13 45  1  0
 14 46  1  0
 15 47  1  0
 16 48  1  0
 17 49  1  0
 21 50  1  0
 21 51  1  0
 22 52  1  0
 22 53  1  0
 24 54  1  0
 25 55  1  0
 26 56  1  0
 27 57  1  0
 29 58  1  0
 29 59  1  0
 31 60  1  0
 31 61  1  0
 32 62  1  0
 32 63  1  0
M  END
>  <smiles>  (43) 
NC1CCC(Nc2nc(NCc3ccccc3)nc(N3CCc4ccccc4C3)n2)CC1

>  <score_type>  (43) 
oracle

>  <origin>  (43) 
autodockgpu

>  <m_score__min__energy>  (43) 
-9.7599999999999998

>  <m_primary>  (43) 
energy

>  <rmsd>  (43) 
3.809445948271295

>  <m_score__min__rmsd>  (43) 
3.809445948271295

>  <meeko>  (43) 
{"free_energy": -9.31, "intermolecular_energy": -11.4, "internal_energy": -0.97, "cluster_size": 15, "cluster_id": 1, "rank_in_cluster": 12}

>  <energy>  (43) 
-8.51

>  <cluster_rmsd>  (43) 
1.8

>  <cluster>  (43) 
6

$$$$

     RDKit          3D

 63 67  0  0  0  0  0  0  0  0999 V2000
  142.2920   80.3700  221.5910 N   0  0  0  0  0  0  0  0  0  0  0  0
  142.1710   78.9340  221.8940 C   0  0  2  0  0  0  0  0  0  0  0  0
  141.8940   78.2610  220.5930 C   0  0  0  0  0  0  0  0  0  0  0  0
  141.4630   76.8200  220.7040 C   0  0  0  0  0  0  0  0  0  0  0  0
  140.7750   76.5070  221.9870 C   0  0  2  0  0  0  0  0  0  0  0  0
  139.7380   75.5260  221.7270 N   0  0  0  0  0  0  0  0  0  0  0  0
  140.1010   74.1560  221.6430 C   0  0  0  0  0  0  0  0  0  0  0  0
  140.6550   73.6600  220.5350 N   0  0  0  0  0  0  0  0  0  0  0  0
  141.0080   72.3520  220.4350 C   0  0  0  0  0  0  0  0  0  0  0  0
  141.5890   71.9590  219.1960 N   0  0  0  0  0  0  0  0  0  0  0  0
  142.4960   72.7960  218.4390 C   0  0  0  0  0  0  0  0  0  0  0  0
  143.6510   73.2330  219.2900 C   0  0  0  0  0  0  0  0  0  0  0  0
  143.8140   74.5460  219.6880 C   0  0  0  0  0  0  0  0  0  0  0  0
  144.9030   74.8870  220.4740 C   0  0  0  0  0  0  0  0  0  0  0  0
  145.8390   73.9400  220.8750 C   0  0  0  0  0  0  0  0  0  0  0  0
  145.6790   72.6270  220.4800 C   0  0  0  0  0  0  0  0  0  0  0  0
  144.5960   72.2870  219.6970 C   0  0  0  0  0  0  0  0  0  0  0  0
  140.8090   71.5050  221.4580 N   0  0  0  0  0  0  0  0  0  0  0  0
  140.2510   72.0140  222.5700 C   0  0  0  0  0  0  0  0  0  0  0  0
  140.0420   71.1140  223.6520 N   0  0  0  0  0  0  0  0  0  0  0  0
  139.5810   69.7670  223.3870 C   0  0  0  0  0  0  0  0  0  0  0  0
  138.6170   69.4020  224.5230 C   0  0  0  0  0  0  0  0  0  0  0  0
  139.4760   69.3580  225.7480 C   0  0  0  0  0  0  0  0  0  0  0  0
  139.4210   68.2660  226.5930 C   0  0  0  0  0  0  0  0  0  0  0  0
  140.2460   68.2980  227.7050 C   0  0  0  0  0  0  0  0  0  0  0  0
  141.0750   69.3750  227.9400 C   0  0  0  0  0  0  0  0  0  0  0  0
  141.1220   70.4600  227.0860 C   0  0  0  0  0  0  0  0  0  0  0  0
  140.3020   70.4420  225.9700 C   0  0  0  0  0  0  0  0  0  0  0  0
  140.2970   71.5730  225.0060 C   0  0  0  0  0  0  0  0  0  0  0  0
  139.9010   73.3080  222.6680 N   0  0  0  0  0  0  0  0  0  0  0  0
  140.1030   77.7100  222.6090 C   0  0  0  0  0  0  0  0  0  0  0  0
  141.0810   78.8180  222.9020 C   0  0  0  0  0  0  0  0  0  0  0  0
  142.1390   80.8980  222.4810 H   0  0  0  0  0  0  0  0  0  0  0  0
  143.3220   80.5100  221.3750 H   0  0  0  0  0  0  0  0  0  0  0  0
  143.0645   78.4573  222.3234 H   0  0  0  0  0  0  0  0  0  0  0  0
  142.8112   78.2979  219.9868 H   0  0  0  0  0  0  0  0  0  0  0  0
  141.0506   78.8017  220.1387 H   0  0  0  0  0  0  0  0  0  0  0  0
  142.3550   76.1817  220.6216 H   0  0  0  0  0  0  0  0  0  0  0  0
  140.7424   76.6327  219.8943 H   0  0  0  0  0  0  0  0  0  0  0  0
  141.5454   76.1426  222.6825 H   0  0  0  0  0  0  0  0  0  0  0  0
  138.7260   75.7780  221.5990 H   0  0  0  0  0  0  0  0  0  0  0  0
  141.3130   70.9980  218.8520 H   0  0  0  0  0  0  0  0  0  0  0  0
  142.8771   72.2281  217.5774 H   0  0  0  0  0  0  0  0  0  0  0  0
  141.9512   73.6886  218.0977 H   0  0  0  0  0  0  0  0  0  0  0  0
  143.0865   75.3130  219.3839 H   0  0  0  0  0  0  0  0  0  0  0  0
  145.0303   75.9333  220.7887 H   0  0  0  0  0  0  0  0  0  0  0  0
  146.6960   74.2334  221.4990 H   0  0  0  0  0  0  0  0  0  0  0  0
  146.4067   71.8611  220.7862 H   0  0  0  0  0  0  0  0  0  0  0  0
  144.4721   71.2400  219.3834 H   0  0  0  0  0  0  0  0  0  0  0  0
  139.0593   69.7279  222.4193 H   0  0  0  0  0  0  0  0  0  0  0  0
  140.4236   69.0615  223.3399 H   0  0  0  0  0  0  0  0  0  0  0  0
  137.8320   70.1656  224.6265 H   0  0  0  0  0  0  0  0  0  0  0  0
  138.1005   68.4479  224.3413 H   0  0  0  0  0  0  0  0  0  0  0  0
  138.7551   67.4137  226.3924 H   0  0  0  0  0  0  0  0  0  0  0  0
  140.2400   67.4535  228.4099 H   0  0  0  0  0  0  0  0  0  0  0  0
  141.7172   69.3699  228.8331 H   0  0  0  0  0  0  0  0  0  0  0  0
  141.7895   71.3111  227.2861 H   0  0  0  0  0  0  0  0  0  0  0  0
  139.5118   72.2868  225.2958 H   0  0  0  0  0  0  0  0  0  0  0  0
  141.2872   72.0516  225.0286 H   0  0  0  0  0  0  0  0  0  0  0  0
  139.6243   77.4016  223.5501 H   0  0  0  0  0  0  0  0  0  0  0  0
  139.3628   78.0930  221.8911 H   0  0  0  0  0  0  0  0  0  0  0  0
  141.5358   78.6292  223.8856 H   0  0  0  0  0  0  0  0  0  0  0  0
  140.5162   79.7616  222.8760 H   0  0  0  0  0  0  0  0  0  0  0  0
  1  2  1  0
  2  3  1  0
  3  4  1  0
  4  5  1  0
  5  6  1  0
  6  7  1  0
  7  8  2  0
  8  9  1  0
  9 10  1  0
 10 11  1  0
 11 12  1  0
 12 13  2  0
 13 14  1  0
 14 15  2  0
 15 16  1  0
 16 17  2  0
  9 18  2  0
 18 19  1  0
 19 20  1  0
 20 21  1  0
 21 22  1  0
 22 23  1  0
 23 24  2  0
 24 25  1  0
 25 26  2  0
 26 27  1  0
 27 28  2  0
 28 29  1  0
 19 30  2  0
  5 31  1  0
 31 32  1  0
 32  2  1  0
 30  7  1  0
 17 12  1  0
 29 20  1  0
 28 23  1  0
  1 33  1  0
  1 34  1  0
  2 35  1  1
  3 36  1  0
  3 37  1  0
  4 38  1  0
  4 39  1  0
  5 40  1  1
  6 41  1  0
 10 42  1  0
 11 43  1  0
 11 44  1  0
 13 45  1  0
 14 46  1  0
 15 47  1  0
 16 48  1  0
 17 49  1  0
 21 50  1  0
 21 51  1  0
 22 52  1  0
 22 53  1  0
 24 54  1  0
 25 55  1  0
 26 56  1  0
 27 57  1  0
 29 58  1  0
 29 59  1  0
 31 60  1  0
 31 61  1  0
 32 62  1  0
 32 63  1  0
M  END
>  <smiles>  (44) 
NC1CCC(Nc2nc(NCc3ccccc3)nc(N3CCc4ccccc4C3)n2)CC1

>  <score_type>  (44) 
oracle

>  <origin>  (44) 
autodockgpu

>  <m_score__min__energy>  (44) 
-9.7599999999999998

>  <m_primary>  (44) 
energy

>  <rmsd>  (44) 
3.8869016604898716

>  <m_score__min__rmsd>  (44) 
3.8869016604898716

>  <meeko>  (44) 
{"free_energy": -8.98, "intermolecular_energy": -11.06, "internal_energy": -1.48, "cluster_size": 7, "cluster_id": 4, "rank_in_cluster": 4}

>  <energy>  (44) 
-8.79

>  <cluster_rmsd>  (44) 
0.0

>  <cluster>  (44) 
7

$$$$

     RDKit          3D

 63 67  0  0  0  0  0  0  0  0999 V2000
  134.1940   74.0890  226.4630 N   0  0  0  0  0  0  0  0  0  0  0  0
  134.0910   73.9250  225.0040 C   0  0  2  0  0  0  0  0  0  0  0  0
  134.8590   72.6900  224.6740 C   0  0  0  0  0  0  0  0  0  0  0  0
  135.1170   72.4790  223.2030 C   0  0  0  0  0  0  0  0  0  0  0  0
  135.1710   73.7480  222.4250 C   0  0  2  0  0  0  0  0  0  0  0  0
  136.1610   73.6040  221.3750 N   0  0  0  0  0  0  0  0  0  0  0  0
  137.5300   73.7980  221.6980 C   0  0  0  0  0  0  0  0  0  0  0  0
  138.2810   72.7870  222.1370 N   0  0  0  0  0  0  0  0  0  0  0  0
  139.5920   72.9520  222.4510 C   0  0  0  0  0  0  0  0  0  0  0  0
  140.2730   71.7880  222.9070 N   0  0  0  0  0  0  0  0  0  0  0  0
  139.6290   70.7270  223.6510 C   0  0  0  0  0  0  0  0  0  0  0  0
  140.0110   70.7860  225.1010 C   0  0  0  0  0  0  0  0  0  0  0  0
  139.5980   69.8310  226.0080 C   0  0  0  0  0  0  0  0  0  0  0  0
  139.9850   69.9410  227.3340 C   0  0  0  0  0  0  0  0  0  0  0  0
  140.7820   70.9920  227.7770 C   0  0  0  0  0  0  0  0  0  0  0  0
  141.1970   71.9490  226.8730 C   0  0  0  0  0  0  0  0  0  0  0  0
  140.8110   71.8390  225.5530 C   0  0  0  0  0  0  0  0  0  0  0  0
  140.1830   74.1530  222.3300 N   0  0  0  0  0  0  0  0  0  0  0  0
  139.4190   75.1650  221.8870 C   0  0  0  0  0  0  0  0  0  0  0  0
  140.0480   76.4350  221.7590 N   0  0  0  0  0  0  0  0  0  0  0  0
  139.6640   77.3210  220.6800 C   0  0  0  0  0  0  0  0  0  0  0  0
  140.9460   78.0260  220.2150 C   0  0  0  0  0  0  0  0  0  0  0  0
  141.3540   78.8730  221.3790 C   0  0  0  0  0  0  0  0  0  0  0  0
  141.6540   80.2090  221.1910 C   0  0  0  0  0  0  0  0  0  0  0  0
  142.0230   80.9280  222.3160 C   0  0  0  0  0  0  0  0  0  0  0  0
  142.0820   80.3240  223.5540 C   0  0  0  0  0  0  0  0  0  0  0  0
  141.7780   78.9870  223.7290 C   0  0  0  0  0  0  0  0  0  0  0  0
  141.4080   78.2550  222.6130 C   0  0  0  0  0  0  0  0  0  0  0  0
  141.0670   76.8130  222.7220 C   0  0  0  0  0  0  0  0  0  0  0  0
  138.1220   75.0010  221.5770 N   0  0  0  0  0  0  0  0  0  0  0  0
  135.5800   74.9400  223.2610 C   0  0  0  0  0  0  0  0  0  0  0  0
  134.6360   75.1770  224.4120 C   0  0  0  0  0  0  0  0  0  0  0  0
  133.4370   74.7440  226.7660 H   0  0  0  0  0  0  0  0  0  0  0  0
  133.9000   73.1470  226.8580 H   0  0  0  0  0  0  0  0  0  0  0  0
  133.0742   73.7919  224.6061 H   0  0  0  0  0  0  0  0  0  0  0  0
  134.2932   71.8247  225.0496 H   0  0  0  0  0  0  0  0  0  0  0  0
  135.8452   72.8030  225.1480 H   0  0  0  0  0  0  0  0  0  0  0  0
  134.3106   71.8528  222.7936 H   0  0  0  0  0  0  0  0  0  0  0  0
  136.1025   71.9991  223.1113 H   0  0  0  0  0  0  0  0  0  0  0  0
  134.1576   73.9282  222.0369 H   0  0  0  0  0  0  0  0  0  0  0  0
  135.9180   73.3610  220.3820 H   0  0  0  0  0  0  0  0  0  0  0  0
  141.3020   71.7420  222.6650 H   0  0  0  0  0  0  0  0  0  0  0  0
  138.5379   70.8339  223.5607 H   0  0  0  0  0  0  0  0  0  0  0  0
  139.9540   69.7600  223.2396 H   0  0  0  0  0  0  0  0  0  0  0  0
  138.9678   68.9907  225.6813 H   0  0  0  0  0  0  0  0  0  0  0  0
  139.6539   69.1785  228.0543 H   0  0  0  0  0  0  0  0  0  0  0  0
  141.0776   71.0594  228.8344 H   0  0  0  0  0  0  0  0  0  0  0  0
  141.8275   72.7887  227.2008 H   0  0  0  0  0  0  0  0  0  0  0  0
  141.1429   72.6031  224.8347 H   0  0  0  0  0  0  0  0  0  0  0  0
  139.2266   76.7437  219.8521 H   0  0  0  0  0  0  0  0  0  0  0  0
  138.9094   78.0486  221.0133 H   0  0  0  0  0  0  0  0  0  0  0  0
  141.7287   77.2909  219.9763 H   0  0  0  0  0  0  0  0  0  0  0  0
  140.7884   78.6192  219.3022 H   0  0  0  0  0  0  0  0  0  0  0  0
  141.6023   80.6780  220.1973 H   0  0  0  0  0  0  0  0  0  0  0  0
  142.2723   81.9951  222.2204 H   0  0  0  0  0  0  0  0  0  0  0  0
  142.3795   80.9231  224.4273 H   0  0  0  0  0  0  0  0  0  0  0  0
  141.8283   78.5191  224.7233 H   0  0  0  0  0  0  0  0  0  0  0  0
  141.9725   76.2162  222.5377 H   0  0  0  0  0  0  0  0  0  0  0  0
  140.6748   76.6256  223.7325 H   0  0  0  0  0  0  0  0  0  0  0  0
  135.5908   75.8348  222.6213 H   0  0  0  0  0  0  0  0  0  0  0  0
  136.5771   74.7349  223.6778 H   0  0  0  0  0  0  0  0  0  0  0  0
  133.7941   75.7862  224.0513 H   0  0  0  0  0  0  0  0  0  0  0  0
  135.2110   75.6831  225.2015 H   0  0  0  0  0  0  0  0  0  0  0  0
  1  2  1  0
  2  3  1  0
  3  4  1  0
  4  5  1  0
  5  6  1  0
  6  7  1  0
  7  8  2  0
  8  9  1  0
  9 10  1  0
 10 11  1  0
 11 12  1  0
 12 13  2  0
 13 14  1  0
 14 15  2  0
 15 16  1  0
 16 17  2  0
  9 18  2  0
 18 19  1  0
 19 20  1  0
 20 21  1  0
 21 22  1  0
 22 23  1  0
 23 24  2  0
 24 25  1  0
 25 26  2  0
 26 27  1  0
 27 28  2  0
 28 29  1  0
 19 30  2  0
  5 31  1  0
 31 32  1  0
 32  2  1  0
 30  7  1  0
 17 12  1  0
 29 20  1  0
 28 23  1  0
  1 33  1  0
  1 34  1  0
  2 35  1  1
  3 36  1  0
  3 37  1  0
  4 38  1  0
  4 39  1  0
  5 40  1  6
  6 41  1  0
 10 42  1  0
 11 43  1  0
 11 44  1  0
 13 45  1  0
 14 46  1  0
 15 47  1  0
 16 48  1  0
 17 49  1  0
 21 50  1  0
 21 51  1  0
 22 52  1  0
 22 53  1  0
 24 54  1  0
 25 55  1  0
 26 56  1  0
 27 57  1  0
 29 58  1  0
 29 59  1  0
 31 60  1  0
 31 61  1  0
 32 62  1  0
 32 63  1  0
M  END
>  <smiles>  (45) 
NC1CCC(Nc2nc(NCc3ccccc3)nc(N3CCc4ccccc4C3)n2)CC1

>  <score_type>  (45) 
oracle

>  <origin>  (45) 
autodockgpu

>  <m_score__min__energy>  (45) 
-9.7599999999999998

>  <m_primary>  (45) 
energy

>  <rmsd>  (45) 
10.37583438639704

>  <m_score__min__rmsd>  (45) 
10.37583438639704

>  <meeko>  (45) 
{"free_energy": -8.74, "intermolecular_energy": -10.83, "internal_energy": -1.23, "cluster_size": 7, "cluster_id": 7, "rank_in_cluster": 5}

>  <energy>  (45) 
-8.75

>  <cluster_rmsd>  (45) 
0.32

>  <cluster>  (45) 
7

$$$$

     RDKit          3D

 63 67  0  0  0  0  0  0  0  0999 V2000
  142.5640   79.6220  216.9260 N   0  0  0  0  0  0  0  0  0  0  0  0
  141.7970   78.6760  217.7530 C   0  0  2  0  0  0  0  0  0  0  0  0
  141.6800   79.3070  219.0990 C   0  0  0  0  0  0  0  0  0  0  0  0
  141.1680   78.3940  220.1850 C   0  0  0  0  0  0  0  0  0  0  0  0
  141.4750   76.9580  219.9420 C   0  0  2  0  0  0  0  0  0  0  0  0
  141.7400   76.3210  221.2190 N   0  0  0  0  0  0  0  0  0  0  0  0
  141.5950   74.9130  221.3210 C   0  0  0  0  0  0  0  0  0  0  0  0
  140.5410   74.3740  221.9350 N   0  0  0  0  0  0  0  0  0  0  0  0
  140.3850   73.0290  222.0440 C   0  0  0  0  0  0  0  0  0  0  0  0
  139.2130   72.5920  222.7230 N   0  0  0  0  0  0  0  0  0  0  0  0
  138.9210   71.2010  222.9960 C   0  0  0  0  0  0  0  0  0  0  0  0
  139.5840   70.7570  224.2660 C   0  0  0  0  0  0  0  0  0  0  0  0
  140.5060   71.5450  224.9260 C   0  0  0  0  0  0  0  0  0  0  0  0
  141.0840   71.0790  226.0960 C   0  0  0  0  0  0  0  0  0  0  0  0
  140.7590   69.8340  226.6250 C   0  0  0  0  0  0  0  0  0  0  0  0
  139.8370   69.0440  225.9690 C   0  0  0  0  0  0  0  0  0  0  0  0
  139.2630   69.5080  224.8040 C   0  0  0  0  0  0  0  0  0  0  0  0
  141.2980   72.1860  221.5310 N   0  0  0  0  0  0  0  0  0  0  0  0
  142.3570   72.7380  220.9140 C   0  0  0  0  0  0  0  0  0  0  0  0
  143.3210   71.8430  220.3730 N   0  0  0  0  0  0  0  0  0  0  0  0
  144.7210   72.2140  220.3670 C   0  0  0  0  0  0  0  0  0  0  0  0
  145.3110   71.6760  219.0570 C   0  0  0  0  0  0  0  0  0  0  0  0
  145.2340   70.1880  219.1900 C   0  0  0  0  0  0  0  0  0  0  0  0
  146.3460   69.4110  218.9320 C   0  0  0  0  0  0  0  0  0  0  0  0
  146.1970   68.0420  219.0780 C   0  0  0  0  0  0  0  0  0  0  0  0
  144.9890   67.4990  219.4630 C   0  0  0  0  0  0  0  0  0  0  0  0
  143.8830   68.2870  219.7190 C   0  0  0  0  0  0  0  0  0  0  0  0
  144.0180   69.6580  219.5770 C   0  0  0  0  0  0  0  0  0  0  0  0
  142.8740   70.5710  219.8350 C   0  0  0  0  0  0  0  0  0  0  0  0
  142.5100   74.0690  220.8080 N   0  0  0  0  0  0  0  0  0  0  0  0
  142.7000   76.7510  219.0800 C   0  0  0  0  0  0  0  0  0  0  0  0
  142.5570   77.3970  217.7260 C   0  0  0  0  0  0  0  0  0  0  0  0
  143.3790   79.9520  217.4920 H   0  0  0  0  0  0  0  0  0  0  0  0
  142.9980   79.0200  216.1660 H   0  0  0  0  0  0  0  0  0  0  0  0
  140.7763   78.4552  217.4075 H   0  0  0  0  0  0  0  0  0  0  0  0
  140.9915   80.1610  219.0175 H   0  0  0  0  0  0  0  0  0  0  0  0
  142.6993   79.5967  219.3940 H   0  0  0  0  0  0  0  0  0  0  0  0
  140.0763   78.5107  220.2530 H   0  0  0  0  0  0  0  0  0  0  0  0
  141.6752   78.6817  221.1177 H   0  0  0  0  0  0  0  0  0  0  0  0
  140.6071   76.5287  219.4200 H   0  0  0  0  0  0  0  0  0  0  0  0
  142.0360   76.8500  222.0770 H   0  0  0  0  0  0  0  0  0  0  0  0
  138.5520   73.3610  223.0250 H   0  0  0  0  0  0  0  0  0  0  0  0
  137.8328   71.0733  223.0935 H   0  0  0  0  0  0  0  0  0  0  0  0
  139.3052   70.5905  222.1656 H   0  0  0  0  0  0  0  0  0  0  0  0
  140.7790   72.5330  224.5269 H   0  0  0  0  0  0  0  0  0  0  0  0
  141.8181   71.7091  226.6195 H   0  0  0  0  0  0  0  0  0  0  0  0
  141.2311   69.4836  227.5547 H   0  0  0  0  0  0  0  0  0  0  0  0
  139.5635   68.0570  226.3701 H   0  0  0  0  0  0  0  0  0  0  0  0
  138.5299   68.8753  224.2822 H   0  0  0  0  0  0  0  0  0  0  0  0
  144.8239   73.3084  220.4085 H   0  0  0  0  0  0  0  0  0  0  0  0
  145.2457   71.7971  221.2393 H   0  0  0  0  0  0  0  0  0  0  0  0
  144.7201   72.0197  218.1952 H   0  0  0  0  0  0  0  0  0  0  0  0
  146.3400   72.0265  218.8886 H   0  0  0  0  0  0  0  0  0  0  0  0
  147.3034   69.8577  218.6255 H   0  0  0  0  0  0  0  0  0  0  0  0
  147.0532   67.3790  218.8844 H   0  0  0  0  0  0  0  0  0  0  0  0
  144.9035   66.4075  219.5693 H   0  0  0  0  0  0  0  0  0  0  0  0
  142.9260   67.8396  220.0257 H   0  0  0  0  0  0  0  0  0  0  0  0
  142.3393   70.7502  218.8906 H   0  0  0  0  0  0  0  0  0  0  0  0
  142.2126   70.0961  220.5746 H   0  0  0  0  0  0  0  0  0  0  0  0
  142.8586   75.6712  218.9427 H   0  0  0  0  0  0  0  0  0  0  0  0
  143.5553   77.2188  219.5895 H   0  0  0  0  0  0  0  0  0  0  0  0
  142.0336   76.6956  217.0596 H   0  0  0  0  0  0  0  0  0  0  0  0
  143.5717   77.6323  217.3723 H   0  0  0  0  0  0  0  0  0  0  0  0
  1  2  1  0
  2  3  1  0
  3  4  1  0
  4  5  1  0
  5  6  1  0
  6  7  1  0
  7  8  2  0
  8  9  1  0
  9 10  1  0
 10 11  1  0
 11 12  1  0
 12 13  2  0
 13 14  1  0
 14 15  2  0
 15 16  1  0
 16 17  2  0
  9 18  2  0
 18 19  1  0
 19 20  1  0
 20 21  1  0
 21 22  1  0
 22 23  1  0
 23 24  2  0
 24 25  1  0
 25 26  2  0
 26 27  1  0
 27 28  2  0
 28 29  1  0
 19 30  2  0
  5 31  1  0
 31 32  1  0
 32  2  1  0
 30  7  1  0
 17 12  1  0
 29 20  1  0
 28 23  1  0
  1 33  1  0
  1 34  1  0
  2 35  1  6
  3 36  1  0
  3 37  1  0
  4 38  1  0
  4 39  1  0
  5 40  1  6
  6 41  1  0
 10 42  1  0
 11 43  1  0
 11 44  1  0
 13 45  1  0
 14 46  1  0
 15 47  1  0
 16 48  1  0
 17 49  1  0
 21 50  1  0
 21 51  1  0
 22 52  1  0
 22 53  1  0
 24 54  1  0
 25 55  1  0
 26 56  1  0
 27 57  1  0
 29 58  1  0
 29 59  1  0
 31 60  1  0
 31 61  1  0
 32 62  1  0
 32 63  1  0
M  END
>  <smiles>  (46) 
NC1CCC(Nc2nc(NCc3ccccc3)nc(N3CCc4ccccc4C3)n2)CC1

>  <score_type>  (46) 
oracle

>  <origin>  (46) 
autodockgpu

>  <m_score__min__energy>  (46) 
-9.7599999999999998

>  <m_primary>  (46) 
energy

>  <rmsd>  (46) 
7.990984378031508

>  <m_score__min__rmsd>  (46) 
7.990984378031508

>  <meeko>  (46) 
{"free_energy": -9.4, "intermolecular_energy": -11.49, "internal_energy": -1.06, "cluster_size": 6, "cluster_id": 2, "rank_in_cluster": 4}

>  <energy>  (46) 
-8.75

>  <cluster_rmsd>  (46) 
0.41

>  <cluster>  (46) 
7

$$$$

     RDKit          3D

 63 67  0  0  0  0  0  0  0  0999 V2000
  139.7950   67.8830  227.3980 N   0  0  0  0  0  0  0  0  0  0  0  0
  140.2120   68.5130  226.1350 C   0  0  2  0  0  0  0  0  0  0  0  0
  140.6510   69.8930  226.4900 C   0  0  0  0  0  0  0  0  0  0  0  0
  140.8640   70.8130  225.3140 C   0  0  0  0  0  0  0  0  0  0  0  0
  140.0270   70.4640  224.1330 C   0  0  2  0  0  0  0  0  0  0  0  0
  139.6360   71.6910  223.4650 N   0  0  0  0  0  0  0  0  0  0  0  0
  140.5510   72.2980  222.5650 C   0  0  0  0  0  0  0  0  0  0  0  0
  140.5360   73.6150  222.3560 N   0  0  0  0  0  0  0  0  0  0  0  0
  141.4030   74.2140  221.4980 C   0  0  0  0  0  0  0  0  0  0  0  0
  141.2760   75.6260  221.3720 N   0  0  0  0  0  0  0  0  0  0  0  0
  140.0110   76.3250  221.4630 C   0  0  0  0  0  0  0  0  0  0  0  0
  140.1530   77.5770  222.2770 C   0  0  0  0  0  0  0  0  0  0  0  0
  139.0580   78.3100  222.6930 C   0  0  0  0  0  0  0  0  0  0  0  0
  139.2550   79.4570  223.4430 C   0  0  0  0  0  0  0  0  0  0  0  0
  140.5290   79.8930  223.7920 C   0  0  0  0  0  0  0  0  0  0  0  0
  141.6260   79.1620  223.3790 C   0  0  0  0  0  0  0  0  0  0  0  0
  141.4300   78.0200  222.6310 C   0  0  0  0  0  0  0  0  0  0  0  0
  142.3130   73.4920  220.8220 N   0  0  0  0  0  0  0  0  0  0  0  0
  142.3200   72.1660  221.0400 C   0  0  0  0  0  0  0  0  0  0  0  0
  143.2850   71.4040  220.3230 N   0  0  0  0  0  0  0  0  0  0  0  0
  144.6220   71.9280  220.1420 C   0  0  0  0  0  0  0  0  0  0  0  0
  145.0710   71.5080  218.7360 C   0  0  0  0  0  0  0  0  0  0  0  0
  145.1700   70.0160  218.8020 C   0  0  0  0  0  0  0  0  0  0  0  0
  146.3100   69.3780  218.3500 C   0  0  0  0  0  0  0  0  0  0  0  0
  146.3270   67.9960  218.4440 C   0  0  0  0  0  0  0  0  0  0  0  0
  145.2510   67.3090  218.9650 C   0  0  0  0  0  0  0  0  0  0  0  0
  144.1180   67.9590  219.4130 C   0  0  0  0  0  0  0  0  0  0  0  0
  144.0850   69.3410  219.3260 C   0  0  0  0  0  0  0  0  0  0  0  0
  142.9010   70.1100  219.7870 C   0  0  0  0  0  0  0  0  0  0  0  0
  141.4620   71.5750  221.8880 N   0  0  0  0  0  0  0  0  0  0  0  0
  138.7540   69.7360  224.5020 C   0  0  0  0  0  0  0  0  0  0  0  0
  139.0300   68.4460  225.2330 C   0  0  0  0  0  0  0  0  0  0  0  0
  139.2410   67.0280  227.1610 H   0  0  0  0  0  0  0  0  0  0  0  0
  140.6950   67.5050  227.8180 H   0  0  0  0  0  0  0  0  0  0  0  0
  141.0493   68.0292  225.6108 H   0  0  0  0  0  0  0  0  0  0  0  0
  141.5995   69.8186  227.0420 H   0  0  0  0  0  0  0  0  0  0  0  0
  139.8360   70.3334  227.0831 H   0  0  0  0  0  0  0  0  0  0  0  0
  141.9224   70.7627  225.0187 H   0  0  0  0  0  0  0  0  0  0  0  0
  140.5701   71.8236  225.6340 H   0  0  0  0  0  0  0  0  0  0  0  0
  140.6333   69.8030  223.4963 H   0  0  0  0  0  0  0  0  0  0  0  0
  138.7070   72.1580  223.6130 H   0  0  0  0  0  0  0  0  0  0  0  0
  142.1800   76.1490  221.2040 H   0  0  0  0  0  0  0  0  0  0  0  0
  139.6711   76.5893  220.4508 H   0  0  0  0  0  0  0  0  0  0  0  0
  139.2782   75.6667  221.9526 H   0  0  0  0  0  0  0  0  0  0  0  0
  138.0401   77.9855  222.4310 H   0  0  0  0  0  0  0  0  0  0  0  0
  138.3811   80.0388  223.7715 H   0  0  0  0  0  0  0  0  0  0  0  0
  140.6612   80.8075  224.3888 H   0  0  0  0  0  0  0  0  0  0  0  0
  142.6432   79.4867  223.6434 H   0  0  0  0  0  0  0  0  0  0  0  0
  142.3055   77.4403  222.3032 H   0  0  0  0  0  0  0  0  0  0  0  0
  144.6144   73.0247  220.2262 H   0  0  0  0  0  0  0  0  0  0  0  0
  145.3075   71.5398  220.9098 H   0  0  0  0  0  0  0  0  0  0  0  0
  144.3298   71.8152  217.9835 H   0  0  0  0  0  0  0  0  0  0  0  0
  146.0222   71.9770  218.4441 H   0  0  0  0  0  0  0  0  0  0  0  0
  147.1608   69.9394  217.9365 H   0  0  0  0  0  0  0  0  0  0  0  0
  147.2106   67.4393  218.0984 H   0  0  0  0  0  0  0  0  0  0  0  0
  145.2964   66.2116  219.0255 H   0  0  0  0  0  0  0  0  0  0  0  0
  143.2678   67.3965  219.8262 H   0  0  0  0  0  0  0  0  0  0  0  0
  142.2202   70.2627  218.9366 H   0  0  0  0  0  0  0  0  0  0  0  0
  142.4062   69.5377  220.5855 H   0  0  0  0  0  0  0  0  0  0  0  0
  138.1953   69.5098  223.5819 H   0  0  0  0  0  0  0  0  0  0  0  0
  138.1731   70.3873  225.1716 H   0  0  0  0  0  0  0  0  0  0  0  0
  139.2050   67.6552  224.4887 H   0  0  0  0  0  0  0  0  0  0  0  0
  138.1536   68.2396  225.8648 H   0  0  0  0  0  0  0  0  0  0  0  0
  1  2  1  0
  2  3  1  0
  3  4  1  0
  4  5  1  0
  5  6  1  0
  6  7  1  0
  7  8  2  0
  8  9  1  0
  9 10  1  0
 10 11  1  0
 11 12  1  0
 12 13  2  0
 13 14  1  0
 14 15  2  0
 15 16  1  0
 16 17  2  0
  9 18  2  0
 18 19  1  0
 19 20  1  0
 20 21  1  0
 21 22  1  0
 22 23  1  0
 23 24  2  0
 24 25  1  0
 25 26  2  0
 26 27  1  0
 27 28  2  0
 28 29  1  0
 19 30  2  0
  5 31  1  0
 31 32  1  0
 32  2  1  0
 30  7  1  0
 17 12  1  0
 29 20  1  0
 28 23  1  0
  1 33  1  0
  1 34  1  0
  2 35  1  6
  3 36  1  0
  3 37  1  0
  4 38  1  0
  4 39  1  0
  5 40  1  6
  6 41  1  0
 10 42  1  0
 11 43  1  0
 11 44  1  0
 13 45  1  0
 14 46  1  0
 15 47  1  0
 16 48  1  0
 17 49  1  0
 21 50  1  0
 21 51  1  0
 22 52  1  0
 22 53  1  0
 24 54  1  0
 25 55  1  0
 26 56  1  0
 27 57  1  0
 29 58  1  0
 29 59  1  0
 31 60  1  0
 31 61  1  0
 32 62  1  0
 32 63  1  0
M  END
>  <smiles>  (47) 
NC1CCC(Nc2nc(NCc3ccccc3)nc(N3CCc4ccccc4C3)n2)CC1

>  <score_type>  (47) 
oracle

>  <origin>  (47) 
autodockgpu

>  <m_score__min__energy>  (47) 
-9.7599999999999998

>  <m_primary>  (47) 
energy

>  <rmsd>  (47) 
8.291295936333922

>  <m_score__min__rmsd>  (47) 
8.291295936333922

>  <meeko>  (47) 
{"free_energy": -9.63, "intermolecular_energy": -11.72, "internal_energy": -0.86, "cluster_size": 12, "cluster_id": 3, "rank_in_cluster": 4}

>  <energy>  (47) 
-8.75

>  <cluster_rmsd>  (47) 
0.47

>  <cluster>  (47) 
7

$$$$

     RDKit          3D

 63 67  0  0  0  0  0  0  0  0999 V2000
  142.2500   80.1180  221.6970 N   0  0  0  0  0  0  0  0  0  0  0  0
  142.1510   78.6660  221.9110 C   0  0  2  0  0  0  0  0  0  0  0  0
  141.8470   78.0730  220.5760 C   0  0  0  0  0  0  0  0  0  0  0  0
  141.4330   76.6230  220.6060 C   0  0  0  0  0  0  0  0  0  0  0  0
  140.7820   76.2210  221.8830 C   0  0  2  0  0  0  0  0  0  0  0  0
  139.7480   75.2470  221.5870 N   0  0  0  0  0  0  0  0  0  0  0  0
  140.0850   73.8680  221.6070 C   0  0  0  0  0  0  0  0  0  0  0  0
  140.5790   73.2670  220.5230 N   0  0  0  0  0  0  0  0  0  0  0  0
  140.9070   71.9490  220.5220 C   0  0  0  0  0  0  0  0  0  0  0  0
  141.4240   71.4390  219.2980 N   0  0  0  0  0  0  0  0  0  0  0  0
  142.8370   71.2630  219.0410 C   0  0  0  0  0  0  0  0  0  0  0  0
  143.6350   72.3620  219.6790 C   0  0  0  0  0  0  0  0  0  0  0  0
  144.5780   72.1120  220.6560 C   0  0  0  0  0  0  0  0  0  0  0  0
  145.2830   73.1710  221.2060 C   0  0  0  0  0  0  0  0  0  0  0  0
  145.0650   74.4830  220.7990 C   0  0  0  0  0  0  0  0  0  0  0  0
  144.1230   74.7370  219.8220 C   0  0  0  0  0  0  0  0  0  0  0  0
  143.4220   73.6830  219.2750 C   0  0  0  0  0  0  0  0  0  0  0  0
  140.7420   71.1970  221.6230 N   0  0  0  0  0  0  0  0  0  0  0  0
  140.2430   71.8120  222.7100 C   0  0  0  0  0  0  0  0  0  0  0  0
  140.0700   71.0130  223.8750 N   0  0  0  0  0  0  0  0  0  0  0  0
  139.6560   69.6320  223.7440 C   0  0  0  0  0  0  0  0  0  0  0  0
  138.7090   69.3450  224.9160 C   0  0  0  0  0  0  0  0  0  0  0  0
  139.5740   69.4480  226.1330 C   0  0  0  0  0  0  0  0  0  0  0  0
  139.5600   68.4420  227.0800 C   0  0  0  0  0  0  0  0  0  0  0  0
  140.3880   68.6080  228.1780 C   0  0  0  0  0  0  0  0  0  0  0  0
  141.1800   69.7310  228.3030 C   0  0  0  0  0  0  0  0  0  0  0  0
  141.1850   70.7300  227.3490 C   0  0  0  0  0  0  0  0  0  0  0  0
  140.3630   70.5770  226.2450 C   0  0  0  0  0  0  0  0  0  0  0  0
  140.3140   71.6090  225.1770 C   0  0  0  0  0  0  0  0  0  0  0  0
  139.9190   73.1160  222.7100 N   0  0  0  0  0  0  0  0  0  0  0  0
  140.1140   77.3750  222.5970 C   0  0  0  0  0  0  0  0  0  0  0  0
  141.0880   78.4740  222.9350 C   0  0  0  0  0  0  0  0  0  0  0  0
  143.1560   80.3090  221.2100 H   0  0  0  0  0  0  0  0  0  0  0  0
  141.5090   80.3310  220.9660 H   0  0  0  0  0  0  0  0  0  0  0  0
  143.0599   78.1738  222.2873 H   0  0  0  0  0  0  0  0  0  0  0  0
  142.7479   78.1585  219.9507 H   0  0  0  0  0  0  0  0  0  0  0  0
  140.9870   78.6318  220.1782 H   0  0  0  0  0  0  0  0  0  0  0  0
  142.3288   76.0014  220.4604 H   0  0  0  0  0  0  0  0  0  0  0  0
  140.6931   76.4796  219.8048 H   0  0  0  0  0  0  0  0  0  0  0  0
  141.5735   75.8216  222.5341 H   0  0  0  0  0  0  0  0  0  0  0  0
  138.7570   75.5100  221.3590 H   0  0  0  0  0  0  0  0  0  0  0  0
  140.6980   71.1890  218.5690 H   0  0  0  0  0  0  0  0  0  0  0  0
  143.1609   70.2960  219.4532 H   0  0  0  0  0  0  0  0  0  0  0  0
  143.0041   71.2909  217.9541 H   0  0  0  0  0  0  0  0  0  0  0  0
  144.7679   71.0827  220.9945 H   0  0  0  0  0  0  0  0  0  0  0  0
  146.0339   72.9687  221.9840 H   0  0  0  0  0  0  0  0  0  0  0  0
  145.6360   75.3080  221.2499 H   0  0  0  0  0  0  0  0  0  0  0  0
  143.9342   75.7667  219.4844 H   0  0  0  0  0  0  0  0  0  0  0  0
  142.6721   73.8881  218.4968 H   0  0  0  0  0  0  0  0  0  0  0  0
  139.1331   69.4816  222.7880 H   0  0  0  0  0  0  0  0  0  0  0  0
  140.5228   68.9550  223.7596 H   0  0  0  0  0  0  0  0  0  0  0  0
  137.8985   70.0879  224.9515 H   0  0  0  0  0  0  0  0  0  0  0  0
  138.2246   68.3612  224.8301 H   0  0  0  0  0  0  0  0  0  0  0  0
  138.9224   67.5527  226.9675 H   0  0  0  0  0  0  0  0  0  0  0  0
  140.4145   67.8349  228.9601 H   0  0  0  0  0  0  0  0  0  0  0  0
  141.8258   69.8336  229.1875 H   0  0  0  0  0  0  0  0  0  0  0  0
  141.8221   71.6195  227.4627 H   0  0  0  0  0  0  0  0  0  0  0  0
  139.5051   72.3195  225.4027 H   0  0  0  0  0  0  0  0  0  0  0  0
  141.2866   72.1219  225.1462 H   0  0  0  0  0  0  0  0  0  0  0  0
  139.6629   77.0022  223.5284 H   0  0  0  0  0  0  0  0  0  0  0  0
  139.3518   77.7938  221.9235 H   0  0  0  0  0  0  0  0  0  0  0  0
  141.5690   78.2293  223.8935 H   0  0  0  0  0  0  0  0  0  0  0  0
  140.5130   79.4106  222.9816 H   0  0  0  0  0  0  0  0  0  0  0  0
  1  2  1  0
  2  3  1  0
  3  4  1  0
  4  5  1  0
  5  6  1  0
  6  7  1  0
  7  8  2  0
  8  9  1  0
  9 10  1  0
 10 11  1  0
 11 12  1  0
 12 13  2  0
 13 14  1  0
 14 15  2  0
 15 16  1  0
 16 17  2  0
  9 18  2  0
 18 19  1  0
 19 20  1  0
 20 21  1  0
 21 22  1  0
 22 23  1  0
 23 24  2  0
 24 25  1  0
 25 26  2  0
 26 27  1  0
 27 28  2  0
 28 29  1  0
 19 30  2  0
  5 31  1  0
 31 32  1  0
 32  2  1  0
 30  7  1  0
 17 12  1  0
 29 20  1  0
 28 23  1  0
  1 33  1  0
  1 34  1  0
  2 35  1  1
  3 36  1  0
  3 37  1  0
  4 38  1  0
  4 39  1  0
  5 40  1  1
  6 41  1  0
 10 42  1  0
 11 43  1  0
 11 44  1  0
 13 45  1  0
 14 46  1  0
 15 47  1  0
 16 48  1  0
 17 49  1  0
 21 50  1  0
 21 51  1  0
 22 52  1  0
 22 53  1  0
 24 54  1  0
 25 55  1  0
 26 56  1  0
 27 57  1  0
 29 58  1  0
 29 59  1  0
 31 60  1  0
 31 61  1  0
 32 62  1  0
 32 63  1  0
M  END
>  <smiles>  (48) 
NC1CCC(Nc2nc(NCc3ccccc3)nc(N3CCc4ccccc4C3)n2)CC1

>  <score_type>  (48) 
oracle

>  <origin>  (48) 
autodockgpu

>  <m_score__min__energy>  (48) 
-9.7599999999999998

>  <m_primary>  (48) 
energy

>  <rmsd>  (48) 
3.986359999502216

>  <m_score__min__rmsd>  (48) 
3.986359999502216

>  <meeko>  (48) 
{"free_energy": -8.62, "intermolecular_energy": -10.71, "internal_energy": -1.61, "cluster_size": 7, "cluster_id": 4, "rank_in_cluster": 5}

>  <energy>  (48) 
-8.74

>  <cluster_rmsd>  (48) 
0.53

>  <cluster>  (48) 
7

$$$$

     RDKit          3D

 63 67  0  0  0  0  0  0  0  0999 V2000
  146.3260   72.1660  220.3320 N   0  0  0  0  0  0  0  0  0  0  0  0
  145.2640   72.3850  219.3370 C   0  0  2  0  0  0  0  0  0  0  0  0
  144.8190   73.7970  219.5140 C   0  0  0  0  0  0  0  0  0  0  0  0
  143.5500   74.1580  218.7840 C   0  0  0  0  0  0  0  0  0  0  0  0
  142.6390   72.9990  218.5750 C   0  0  2  0  0  0  0  0  0  0  0  0
  141.2690   73.4650  218.6780 N   0  0  0  0  0  0  0  0  0  0  0  0
  140.7800   73.8680  219.9490 C   0  0  0  0  0  0  0  0  0  0  0  0
  140.2810   72.9770  220.8070 N   0  0  0  0  0  0  0  0  0  0  0  0
  139.8080   73.3440  222.0260 C   0  0  0  0  0  0  0  0  0  0  0  0
  139.3050   72.2900  222.8400 N   0  0  0  0  0  0  0  0  0  0  0  0
  140.0480   71.0820  223.1300 C   0  0  0  0  0  0  0  0  0  0  0  0
  140.1490   70.8630  224.6110 C   0  0  0  0  0  0  0  0  0  0  0  0
  139.5180   69.8080  225.2410 C   0  0  0  0  0  0  0  0  0  0  0  0
  139.6500   69.6600  226.6120 C   0  0  0  0  0  0  0  0  0  0  0  0
  140.4040   70.5460  227.3740 C   0  0  0  0  0  0  0  0  0  0  0  0
  141.0370   71.6010  226.7470 C   0  0  0  0  0  0  0  0  0  0  0  0
  140.9050   71.7490  225.3820 C   0  0  0  0  0  0  0  0  0  0  0  0
  139.8260   74.6300  222.4140 N   0  0  0  0  0  0  0  0  0  0  0  0
  140.3310   75.5210  221.5430 C   0  0  0  0  0  0  0  0  0  0  0  0
  140.3490   76.8820  221.9560 N   0  0  0  0  0  0  0  0  0  0  0  0
  139.2290   77.4230  222.6970 C   0  0  0  0  0  0  0  0  0  0  0  0
  139.0370   78.8650  222.2110 C   0  0  0  0  0  0  0  0  0  0  0  0
  140.2710   79.5820  222.6620 C   0  0  0  0  0  0  0  0  0  0  0  0
  140.1660   80.7780  223.3460 C   0  0  0  0  0  0  0  0  0  0  0  0
  141.3510   81.3820  223.7300 C   0  0  0  0  0  0  0  0  0  0  0  0
  142.5680   80.8030  223.4360 C   0  0  0  0  0  0  0  0  0  0  0  0
  142.6600   79.6060  222.7510 C   0  0  0  0  0  0  0  0  0  0  0  0
  141.4820   78.9910  222.3600 C   0  0  0  0  0  0  0  0  0  0  0  0
  141.5000   77.7020  221.6210 C   0  0  0  0  0  0  0  0  0  0  0  0
  140.7980   75.1570  220.3360 N   0  0  0  0  0  0  0  0  0  0  0  0
  142.8170   71.9100  219.6090 C   0  0  0  0  0  0  0  0  0  0  0  0
  144.2210   71.3610  219.6190 C   0  0  0  0  0  0  0  0  0  0  0  0
  145.8960   72.2490  221.2820 H   0  0  0  0  0  0  0  0  0  0  0  0
  146.5680   71.1360  220.2410 H   0  0  0  0  0  0  0  0  0  0  0  0
  145.5608   72.2670  218.2844 H   0  0  0  0  0  0  0  0  0  0  0  0
  145.6214   74.4563  219.1514 H   0  0  0  0  0  0  0  0  0  0  0  0
  144.6049   73.9214  220.5858 H   0  0  0  0  0  0  0  0  0  0  0  0
  143.8188   74.5722  217.8010 H   0  0  0  0  0  0  0  0  0  0  0  0
  143.0117   74.8862  219.4084 H   0  0  0  0  0  0  0  0  0  0  0  0
  142.8763   72.5798  217.5861 H   0  0  0  0  0  0  0  0  0  0  0  0
  140.6150   73.5210  217.8580 H   0  0  0  0  0  0  0  0  0  0  0  0
  138.3340   72.4430  223.2300 H   0  0  0  0  0  0  0  0  0  0  0  0
  139.5343   70.2237  222.6724 H   0  0  0  0  0  0  0  0  0  0  0  0
  141.0628   71.1840  222.7180 H   0  0  0  0  0  0  0  0  0  0  0  0
  138.9170   69.0929  224.6601 H   0  0  0  0  0  0  0  0  0  0  0  0
  139.1452   68.8197  227.1111 H   0  0  0  0  0  0  0  0  0  0  0  0
  140.4949   70.4082  228.4615 H   0  0  0  0  0  0  0  0  0  0  0  0
  141.6390   72.3145  227.3288 H   0  0  0  0  0  0  0  0  0  0  0  0
  141.4105   72.5904  224.8855 H   0  0  0  0  0  0  0  0  0  0  0  0
  138.3224   76.8321  222.4996 H   0  0  0  0  0  0  0  0  0  0  0  0
  139.4179   77.3915  223.7802 H   0  0  0  0  0  0  0  0  0  0  0  0
  138.9478   78.8969  221.1151 H   0  0  0  0  0  0  0  0  0  0  0  0
  138.1194   79.3215  222.6105 H   0  0  0  0  0  0  0  0  0  0  0  0
  139.1886   81.2282  223.5742 H   0  0  0  0  0  0  0  0  0  0  0  0
  141.3217   82.3361  224.2767 H   0  0  0  0  0  0  0  0  0  0  0  0
  143.4913   81.3082  223.7557 H   0  0  0  0  0  0  0  0  0  0  0  0
  143.6377   79.1560  222.5236 H   0  0  0  0  0  0  0  0  0  0  0  0
  141.4896   77.9088  220.5407 H   0  0  0  0  0  0  0  0  0  0  0  0
  142.4100   77.1532  221.9051 H   0  0  0  0  0  0  0  0  0  0  0  0
  142.1176   71.0910  219.3854 H   0  0  0  0  0  0  0  0  0  0  0  0
  142.6172   72.3468  220.5986 H   0  0  0  0  0  0  0  0  0  0  0  0
  144.2916   70.5732  218.8546 H   0  0  0  0  0  0  0  0  0  0  0  0
  144.4104   70.9788  220.6329 H   0  0  0  0  0  0  0  0  0  0  0  0
  1  2  1  0
  2  3  1  0
  3  4  1  0
  4  5  1  0
  5  6  1  0
  6  7  1  0
  7  8  2  0
  8  9  1  0
  9 10  1  0
 10 11  1  0
 11 12  1  0
 12 13  2  0
 13 14  1  0
 14 15  2  0
 15 16  1  0
 16 17  2  0
  9 18  2  0
 18 19  1  0
 19 20  1  0
 20 21  1  0
 21 22  1  0
 22 23  1  0
 23 24  2  0
 24 25  1  0
 25 26  2  0
 26 27  1  0
 27 28  2  0
 28 29  1  0
 19 30  2  0
  5 31  1  0
 31 32  1  0
 32  2  1  0
 30  7  1  0
 17 12  1  0
 29 20  1  0
 28 23  1  0
  1 33  1  0
  1 34  1  0
  2 35  1  6
  3 36  1  0
  3 37  1  0
  4 38  1  0
  4 39  1  0
  5 40  1  6
  6 41  1  0
 10 42  1  0
 11 43  1  0
 11 44  1  0
 13 45  1  0
 14 46  1  0
 15 47  1  0
 16 48  1  0
 17 49  1  0
 21 50  1  0
 21 51  1  0
 22 52  1  0
 22 53  1  0
 24 54  1  0
 25 55  1  0
 26 56  1  0
 27 57  1  0
 29 58  1  0
 29 59  1  0
 31 60  1  0
 31 61  1  0
 32 62  1  0
 32 63  1  0
M  END
>  <smiles>  (49) 
NC1CCC(Nc2nc(NCc3ccccc3)nc(N3CCc4ccccc4C3)n2)CC1

>  <score_type>  (49) 
oracle

>  <origin>  (49) 
autodockgpu

>  <m_score__min__energy>  (49) 
-9.7599999999999998

>  <m_primary>  (49) 
energy

>  <rmsd>  (49) 
10.495032211640188

>  <m_score__min__rmsd>  (49) 
10.495032211640188

>  <meeko>  (49) 
{"free_energy": -9.44, "intermolecular_energy": -11.53, "internal_energy": -1.1, "cluster_size": 15, "cluster_id": 1, "rank_in_cluster": 10}

>  <energy>  (49) 
-8.74

>  <cluster_rmsd>  (49) 
0.59

>  <cluster>  (49) 
7

$$$$

     RDKit          3D

 63 67  0  0  0  0  0  0  0  0999 V2000
  134.1870   74.5520  226.4650 N   0  0  0  0  0  0  0  0  0  0  0  0
  134.0760   74.2110  225.0380 C   0  0  2  0  0  0  0  0  0  0  0  0
  134.9460   73.0170  224.8310 C   0  0  0  0  0  0  0  0  0  0  0  0
  135.1990   72.6590  223.3880 C   0  0  0  0  0  0  0  0  0  0  0  0
  135.1270   73.8290  222.4690 C   0  0  2  0  0  0  0  0  0  0  0  0
  136.1090   73.6490  221.4170 N   0  0  0  0  0  0  0  0  0  0  0  0
  137.4810   73.8550  221.7230 C   0  0  0  0  0  0  0  0  0  0  0  0
  138.2610   72.8380  222.0940 N   0  0  0  0  0  0  0  0  0  0  0  0
  139.5740   73.0150  222.3910 C   0  0  0  0  0  0  0  0  0  0  0  0
  140.2870   71.8440  222.7710 N   0  0  0  0  0  0  0  0  0  0  0  0
  139.6940   70.7560  223.5200 C   0  0  0  0  0  0  0  0  0  0  0  0
  140.0640   70.8460  224.9710 C   0  0  0  0  0  0  0  0  0  0  0  0
  140.8180   71.8880  225.4730 C   0  0  0  0  0  0  0  0  0  0  0  0
  141.1260   71.9150  226.8240 C   0  0  0  0  0  0  0  0  0  0  0  0
  140.6940   70.9170  227.6910 C   0  0  0  0  0  0  0  0  0  0  0  0
  139.9390   69.8740  227.1930 C   0  0  0  0  0  0  0  0  0  0  0  0
  139.6330   69.8470  225.8490 C   0  0  0  0  0  0  0  0  0  0  0  0
  140.1390   74.2320  222.3210 N   0  0  0  0  0  0  0  0  0  0  0  0
  139.3450   75.2500  221.9460 C   0  0  0  0  0  0  0  0  0  0  0  0
  139.9460   76.5380  221.8730 N   0  0  0  0  0  0  0  0  0  0  0  0
  139.4200   77.5240  220.9530 C   0  0  0  0  0  0  0  0  0  0  0  0
  140.6260   78.2970  220.4030 C   0  0  0  0  0  0  0  0  0  0  0  0
  141.1790   79.0270  221.5880 C   0  0  0  0  0  0  0  0  0  0  0  0
  141.4450   80.3800  221.5040 C   0  0  0  0  0  0  0  0  0  0  0  0
  141.9540   80.9850  222.6410 C   0  0  0  0  0  0  0  0  0  0  0  0
  142.1780   80.2560  223.7910 C   0  0  0  0  0  0  0  0  0  0  0  0
  141.9070   78.9030  223.8610 C   0  0  0  0  0  0  0  0  0  0  0  0
  141.3970   78.2840  222.7320 C   0  0  0  0  0  0  0  0  0  0  0  0
  141.0800   76.8320  222.7310 C   0  0  0  0  0  0  0  0  0  0  0  0
  138.0450   75.0740  221.6530 N   0  0  0  0  0  0  0  0  0  0  0  0
  135.4420   75.1400  223.1520 C   0  0  0  0  0  0  0  0  0  0  0  0
  134.4980   75.4280  224.2920 C   0  0  0  0  0  0  0  0  0  0  0  0
  134.9680   75.2390  226.5700 H   0  0  0  0  0  0  0  0  0  0  0  0
  133.3110   75.1150  226.6740 H   0  0  0  0  0  0  0  0  0  0  0  0
  133.0687   73.9448  224.6852 H   0  0  0  0  0  0  0  0  0  0  0  0
  134.4656   72.1555  225.3177 H   0  0  0  0  0  0  0  0  0  0  0  0
  135.9256   73.2701  225.2627 H   0  0  0  0  0  0  0  0  0  0  0  0
  134.4456   71.9216  223.0740 H   0  0  0  0  0  0  0  0  0  0  0  0
  136.2218   72.2589  223.3263 H   0  0  0  0  0  0  0  0  0  0  0  0
  134.0956   73.8756  222.0896 H   0  0  0  0  0  0  0  0  0  0  0  0
  135.8590   73.3730  220.4350 H   0  0  0  0  0  0  0  0  0  0  0  0
  141.3010   71.8120  222.4690 H   0  0  0  0  0  0  0  0  0  0  0  0
  138.5994   70.8055  223.4230 H   0  0  0  0  0  0  0  0  0  0  0  0
  140.0707   69.8039  223.1179 H   0  0  0  0  0  0  0  0  0  0  0  0
  141.1709   72.6892  224.8070 H   0  0  0  0  0  0  0  0  0  0  0  0
  141.7272   72.7465  227.2205 H   0  0  0  0  0  0  0  0  0  0  0  0
  140.9506   70.9582  228.7598 H   0  0  0  0  0  0  0  0  0  0  0  0
  139.5858   69.0742  227.8605 H   0  0  0  0  0  0  0  0  0  0  0  0
  139.0315   69.0143  225.4556 H   0  0  0  0  0  0  0  0  0  0  0  0
  138.8807   77.0281  220.1325 H   0  0  0  0  0  0  0  0  0  0  0  0
  138.7121   78.1988  221.4565 H   0  0  0  0  0  0  0  0  0  0  0  0
  141.3745   77.6054  219.9889 H   0  0  0  0  0  0  0  0  0  0  0  0
  140.3473   78.9786  219.5859 H   0  0  0  0  0  0  0  0  0  0  0  0
  141.2617   80.9483  220.5802 H   0  0  0  0  0  0  0  0  0  0  0  0
  142.1827   82.0609  222.6272 H   0  0  0  0  0  0  0  0  0  0  0  0
  142.5837   80.7664  224.6769 H   0  0  0  0  0  0  0  0  0  0  0  0
  142.0907   78.3350  224.7849 H   0  0  0  0  0  0  0  0  0  0  0  0
  141.9566   76.2745  222.3692 H   0  0  0  0  0  0  0  0  0  0  0  0
  140.8238   76.5328  223.7581 H   0  0  0  0  0  0  0  0  0  0  0  0
  135.3645   75.9519  222.4138 H   0  0  0  0  0  0  0  0  0  0  0  0
  136.4594   75.0707  223.5645 H   0  0  0  0  0  0  0  0  0  0  0  0
  133.5998   75.9154  223.8851 H   0  0  0  0  0  0  0  0  0  0  0  0
  135.0373   76.0713  225.0028 H   0  0  0  0  0  0  0  0  0  0  0  0
  1  2  1  0
  2  3  1  0
  3  4  1  0
  4  5  1  0
  5  6  1  0
  6  7  1  0
  7  8  2  0
  8  9  1  0
  9 10  1  0
 10 11  1  0
 11 12  1  0
 12 13  2  0
 13 14  1  0
 14 15  2  0
 15 16  1  0
 16 17  2  0
  9 18  2  0
 18 19  1  0
 19 20  1  0
 20 21  1  0
 21 22  1  0
 22 23  1  0
 23 24  2  0
 24 25  1  0
 25 26  2  0
 26 27  1  0
 27 28  2  0
 28 29  1  0
 19 30  2  0
  5 31  1  0
 31 32  1  0
 32  2  1  0
 30  7  1  0
 17 12  1  0
 29 20  1  0
 28 23  1  0
  1 33  1  0
  1 34  1  0
  2 35  1  6
  3 36  1  0
  3 37  1  0
  4 38  1  0
  4 39  1  0
  5 40  1  6
  6 41  1  0
 10 42  1  0
 11 43  1  0
 11 44  1  0
 13 45  1  0
 14 46  1  0
 15 47  1  0
 16 48  1  0
 17 49  1  0
 21 50  1  0
 21 51  1  0
 22 52  1  0
 22 53  1  0
 24 54  1  0
 25 55  1  0
 26 56  1  0
 27 57  1  0
 29 58  1  0
 29 59  1  0
 31 60  1  0
 31 61  1  0
 32 62  1  0
 32 63  1  0
M  END
>  <smiles>  (50) 
NC1CCC(Nc2nc(NCc3ccccc3)nc(N3CCc4ccccc4C3)n2)CC1

>  <score_type>  (50) 
oracle

>  <origin>  (50) 
autodockgpu

>  <m_score__min__energy>  (50) 
-9.7599999999999998

>  <m_primary>  (50) 
energy

>  <rmsd>  (50) 
10.378448469635789

>  <m_score__min__rmsd>  (50) 
10.378448469635789

>  <meeko>  (50) 
{"free_energy": -8.69, "intermolecular_energy": -10.78, "internal_energy": -1.23, "cluster_size": 7, "cluster_id": 7, "rank_in_cluster": 7}

>  <energy>  (50) 
-8.69

>  <cluster_rmsd>  (50) 
0.36

>  <cluster>  (50) 
7

$$$$

     RDKit          3D

 63 67  0  0  0  0  0  0  0  0999 V2000
  146.7120   73.4430  219.0460 N   0  0  0  0  0  0  0  0  0  0  0  0
  145.5840   73.1070  219.9070 C   0  0  1  0  0  0  0  0  0  0  0  0
  144.3610   73.9020  219.5860 C   0  0  0  0  0  0  0  0  0  0  0  0
  143.5470   73.3240  218.4390 C   0  0  0  0  0  0  0  0  0  0  0  0
  143.0260   71.9520  218.7700 C   0  0  2  0  0  0  0  0  0  0  0  0
  141.6030   72.0430  219.0200 N   0  0  0  0  0  0  0  0  0  0  0  0
  141.1220   72.6920  220.1670 C   0  0  0  0  0  0  0  0  0  0  0  0
  140.4990   72.0530  221.1700 N   0  0  0  0  0  0  0  0  0  0  0  0
  140.0400   72.7010  222.2700 C   0  0  0  0  0  0  0  0  0  0  0  0
  139.3760   71.9900  223.3330 N   0  0  0  0  0  0  0  0  0  0  0  0
  139.9720   70.7560  223.8100 C   0  0  0  0  0  0  0  0  0  0  0  0
  140.2620   70.8780  225.2570 C   0  0  0  0  0  0  0  0  0  0  0  0
  139.7320   69.9370  226.1070 C   0  0  0  0  0  0  0  0  0  0  0  0
  139.9380   69.9530  227.4800 C   0  0  0  0  0  0  0  0  0  0  0  0
  140.7170   70.9730  227.9920 C   0  0  0  0  0  0  0  0  0  0  0  0
  141.2580   71.9240  227.1600 C   0  0  0  0  0  0  0  0  0  0  0  0
  141.0390   71.8910  225.7870 C   0  0  0  0  0  0  0  0  0  0  0  0
  140.2260   74.0360  222.3420 N   0  0  0  0  0  0  0  0  0  0  0  0
  140.8420   74.7270  221.3670 C   0  0  0  0  0  0  0  0  0  0  0  0
  141.0430   76.1350  221.4350 N   0  0  0  0  0  0  0  0  0  0  0  0
  141.5770   76.8650  220.3010 C   0  0  0  0  0  0  0  0  0  0  0  0
  140.8160   78.1970  220.3070 C   0  0  0  0  0  0  0  0  0  0  0  0
  141.3340   78.9010  221.5240 C   0  0  0  0  0  0  0  0  0  0  0  0
  141.8470   80.1790  221.4630 C   0  0  0  0  0  0  0  0  0  0  0  0
  142.2970   80.7380  222.6380 C   0  0  0  0  0  0  0  0  0  0  0  0
  142.2350   80.0390  223.8310 C   0  0  0  0  0  0  0  0  0  0  0  0
  141.7230   78.7590  223.9000 C   0  0  0  0  0  0  0  0  0  0  0  0
  141.2660   78.1890  222.7130 C   0  0  0  0  0  0  0  0  0  0  0  0
  140.6940   76.8140  222.6690 C   0  0  0  0  0  0  0  0  0  0  0  0
  141.2730   74.0300  220.3050 N   0  0  0  0  0  0  0  0  0  0  0  0
  143.7820   71.4320  219.9550 C   0  0  0  0  0  0  0  0  0  0  0  0
  145.2630   71.6350  219.7160 C   0  0  0  0  0  0  0  0  0  0  0  0
  146.3010   73.7710  218.1440 H   0  0  0  0  0  0  0  0  0  0  0  0
  147.3400   74.1370  219.5080 H   0  0  0  0  0  0  0  0  0  0  0  0
  145.8699   73.3371  220.9440 H   0  0  0  0  0  0  0  0  0  0  0  0
  144.6699   74.9222  219.3145 H   0  0  0  0  0  0  0  0  0  0  0  0
  143.7196   73.8849  220.4795 H   0  0  0  0  0  0  0  0  0  0  0  0
  144.1850   73.2582  217.5454 H   0  0  0  0  0  0  0  0  0  0  0  0
  142.6871   73.9856  218.2579 H   0  0  0  0  0  0  0  0  0  0  0  0
  143.1741   71.2487  217.9373 H   0  0  0  0  0  0  0  0  0  0  0  0
  140.9620   71.6230  218.3400 H   0  0  0  0  0  0  0  0  0  0  0  0
  138.5020   72.3990  223.7040 H   0  0  0  0  0  0  0  0  0  0  0  0
  139.2731   69.9228  223.6446 H   0  0  0  0  0  0  0  0  0  0  0  0
  140.9065   70.5633  223.2626 H   0  0  0  0  0  0  0  0  0  0  0  0
  139.1152   69.1329  225.6792 H   0  0  0  0  0  0  0  0  0  0  0  0
  139.4989   69.1849  228.1336 H   0  0  0  0  0  0  0  0  0  0  0  0
  140.9057   71.0243  229.0745 H   0  0  0  0  0  0  0  0  0  0  0  0
  141.8761   72.7267  227.5884 H   0  0  0  0  0  0  0  0  0  0  0  0
  141.4773   72.6591  225.1329 H   0  0  0  0  0  0  0  0  0  0  0  0
  142.6572   77.0341  220.4215 H   0  0  0  0  0  0  0  0  0  0  0  0
  141.4525   76.3171  219.3553 H   0  0  0  0  0  0  0  0  0  0  0  0
  141.0332   78.7762  219.3974 H   0  0  0  0  0  0  0  0  0  0  0  0
  139.7244   78.0624  220.3265 H   0  0  0  0  0  0  0  0  0  0  0  0
  141.8950   80.7307  220.5126 H   0  0  0  0  0  0  0  0  0  0  0  0
  142.7125   81.7565  222.6285 H   0  0  0  0  0  0  0  0  0  0  0  0
  142.6042   80.5171  224.7503 H   0  0  0  0  0  0  0  0  0  0  0  0
  141.6775   78.2112  224.8528 H   0  0  0  0  0  0  0  0  0  0  0  0
  141.0859   76.2359  223.5189 H   0  0  0  0  0  0  0  0  0  0  0  0
  139.5982   76.8929  222.7230 H   0  0  0  0  0  0  0  0  0  0  0  0
  143.5721   70.3602  220.0862 H   0  0  0  0  0  0  0  0  0  0  0  0
  143.4723   71.9716  220.8622 H   0  0  0  0  0  0  0  0  0  0  0  0
  145.5188   71.3293  218.6908 H   0  0  0  0  0  0  0  0  0  0  0  0
  145.8460   71.0270  220.4234 H   0  0  0  0  0  0  0  0  0  0  0  0
  1  2  1  0
  2  3  1  0
  3  4  1  0
  4  5  1  0
  5  6  1  0
  6  7  1  0
  7  8  2  0
  8  9  1  0
  9 10  1  0
 10 11  1  0
 11 12  1  0
 12 13  2  0
 13 14  1  0
 14 15  2  0
 15 16  1  0
 16 17  2  0
  9 18  2  0
 18 19  1  0
 19 20  1  0
 20 21  1  0
 21 22  1  0
 22 23  1  0
 23 24  2  0
 24 25  1  0
 25 26  2  0
 26 27  1  0
 27 28  2  0
 28 29  1  0
 19 30  2  0
  5 31  1  0
 31 32  1  0
 32  2  1  0
 30  7  1  0
 17 12  1  0
 29 20  1  0
 28 23  1  0
  1 33  1  0
  1 34  1  0
  2 35  1  1
  3 36  1  0
  3 37  1  0
  4 38  1  0
  4 39  1  0
  5 40  1  6
  6 41  1  0
 10 42  1  0
 11 43  1  0
 11 44  1  0
 13 45  1  0
 14 46  1  0
 15 47  1  0
 16 48  1  0
 17 49  1  0
 21 50  1  0
 21 51  1  0
 22 52  1  0
 22 53  1  0
 24 54  1  0
 25 55  1  0
 26 56  1  0
 27 57  1  0
 29 58  1  0
 29 59  1  0
 31 60  1  0
 31 61  1  0
 32 62  1  0
 32 63  1  0
M  END
>  <smiles>  (51) 
NC1CCC(Nc2nc(NCc3ccccc3)nc(N3CCc4ccccc4C3)n2)CC1

>  <score_type>  (51) 
oracle

>  <origin>  (51) 
autodockgpu

>  <m_score__min__energy>  (51) 
-10.94

>  <m_primary>  (51) 
energy

>  <rmsd>  (51) 
10.353677025625164

>  <m_score__min__rmsd>  (51) 
10.353677025625164

>  <meeko>  (51) 
{"free_energy": -10.79, "intermolecular_energy": -12.88, "internal_energy": -1.24, "cluster_size": 32, "cluster_id": 1, "rank_in_cluster": 6}

>  <energy>  (51) 
-10.94

>  <cluster_rmsd>  (51) 
0.0

>  <cluster>  (51) 
1

$$$$

     RDKit          3D

 63 67  0  0  0  0  0  0  0  0999 V2000
  146.3670   73.3930  218.7610 N   0  0  0  0  0  0  0  0  0  0  0  0
  145.5450   73.1560  219.9430 C   0  0  1  0  0  0  0  0  0  0  0  0
  145.2040   74.4180  220.6670 C   0  0  0  0  0  0  0  0  0  0  0  0
  144.0040   75.1450  220.0820 C   0  0  0  0  0  0  0  0  0  0  0  0
  142.7550   74.3110  220.1760 C   0  0  2  0  0  0  0  0  0  0  0  0
  141.9040   74.8620  221.2100 N   0  0  0  0  0  0  0  0  0  0  0  0
  140.6940   74.2350  221.5430 C   0  0  0  0  0  0  0  0  0  0  0  0
  139.5090   74.5970  221.0250 N   0  0  0  0  0  0  0  0  0  0  0  0
  138.3500   73.9780  221.3620 C   0  0  0  0  0  0  0  0  0  0  0  0
  137.0920   74.3860  220.7910 N   0  0  0  0  0  0  0  0  0  0  0  0
  135.8800   73.7590  221.2830 C   0  0  0  0  0  0  0  0  0  0  0  0
  135.6170   74.2150  222.6670 C   0  0  0  0  0  0  0  0  0  0  0  0
  135.2570   73.2760  223.6030 C   0  0  0  0  0  0  0  0  0  0  0  0
  134.9880   73.5900  224.9290 C   0  0  0  0  0  0  0  0  0  0  0  0
  135.0940   74.9160  225.3000 C   0  0  0  0  0  0  0  0  0  0  0  0
  135.4530   75.8720  224.3800 C   0  0  0  0  0  0  0  0  0  0  0  0
  135.7190   75.5370  223.0560 C   0  0  0  0  0  0  0  0  0  0  0  0
  138.4090   72.9650  222.2520 N   0  0  0  0  0  0  0  0  0  0  0  0
  139.5670   72.5610  222.8030 C   0  0  0  0  0  0  0  0  0  0  0  0
  139.6390   71.4930  223.7410 N   0  0  0  0  0  0  0  0  0  0  0  0
  138.6270   70.4540  223.7640 C   0  0  0  0  0  0  0  0  0  0  0  0
  139.4020   69.1680  224.0760 C   0  0  0  0  0  0  0  0  0  0  0  0
  139.8330   69.3450  225.5000 C   0  0  0  0  0  0  0  0  0  0  0  0
  139.5660   68.3990  226.4650 C   0  0  0  0  0  0  0  0  0  0  0  0
  140.0060   68.6570  227.7440 C   0  0  0  0  0  0  0  0  0  0  0  0
  140.6890   69.8210  228.0430 C   0  0  0  0  0  0  0  0  0  0  0  0
  140.9600   70.7740  227.0820 C   0  0  0  0  0  0  0  0  0  0  0  0
  140.5170   70.5180  225.7860 C   0  0  0  0  0  0  0  0  0  0  0  0
  140.7550   71.4750  224.6690 C   0  0  0  0  0  0  0  0  0  0  0  0
  140.6790   73.2130  222.4290 N   0  0  0  0  0  0  0  0  0  0  0  0
  143.1540   72.8950  220.4590 C   0  0  0  0  0  0  0  0  0  0  0  0
  144.2530   72.4950  219.4980 C   0  0  0  0  0  0  0  0  0  0  0  0
  145.7450   73.8560  218.0630 H   0  0  0  0  0  0  0  0  0  0  0  0
  147.2210   73.9400  219.0050 H   0  0  0  0  0  0  0  0  0  0  0  0
  146.1196   72.5196  220.6320 H   0  0  0  0  0  0  0  0  0  0  0  0
  146.0736   75.0902  220.6243 H   0  0  0  0  0  0  0  0  0  0  0  0
  144.9434   74.1398  221.6988 H   0  0  0  0  0  0  0  0  0  0  0  0
  144.2039   75.3715  219.0243 H   0  0  0  0  0  0  0  0  0  0  0  0
  143.8462   76.0693  220.6571 H   0  0  0  0  0  0  0  0  0  0  0  0
  142.1855   74.3227  219.2350 H   0  0  0  0  0  0  0  0  0  0  0  0
  142.2090   75.7140  221.6870 H   0  0  0  0  0  0  0  0  0  0  0  0
  137.1180   75.1110  220.0540 H   0  0  0  0  0  0  0  0  0  0  0  0
  135.0342   74.0385  220.6376 H   0  0  0  0  0  0  0  0  0  0  0  0
  136.0020   72.6658  221.2734 H   0  0  0  0  0  0  0  0  0  0  0  0
  135.1780   72.2253  223.2872 H   0  0  0  0  0  0  0  0  0  0  0  0
  134.7021   72.8139  225.6542 H   0  0  0  0  0  0  0  0  0  0  0  0
  134.8894   75.2095  226.3402 H   0  0  0  0  0  0  0  0  0  0  0  0
  135.5316   76.9225  224.6967 H   0  0  0  0  0  0  0  0  0  0  0  0
  136.0059   76.3123  222.3304 H   0  0  0  0  0  0  0  0  0  0  0  0
  137.8798   70.6566  224.5454 H   0  0  0  0  0  0  0  0  0  0  0  0
  138.0738   70.3886  222.8155 H   0  0  0  0  0  0  0  0  0  0  0  0
  138.7546   68.2851  223.9697 H   0  0  0  0  0  0  0  0  0  0  0  0
  140.2489   69.0062  223.3929 H   0  0  0  0  0  0  0  0  0  0  0  0
  139.0225   67.4737  226.2233 H   0  0  0  0  0  0  0  0  0  0  0  0
  139.8107   67.9246  228.5411 H   0  0  0  0  0  0  0  0  0  0  0  0
  141.0260   69.9926  229.0759 H   0  0  0  0  0  0  0  0  0  0  0  0
  141.5035   71.6978  227.3292 H   0  0  0  0  0  0  0  0  0  0  0  0
  140.8910   72.4842  225.0850 H   0  0  0  0  0  0  0  0  0  0  0  0
  141.6544   71.1537  224.1232 H   0  0  0  0  0  0  0  0  0  0  0  0
  142.2862   72.2326  220.3242 H   0  0  0  0  0  0  0  0  0  0  0  0
  143.5143   72.8088  221.4947 H   0  0  0  0  0  0  0  0  0  0  0  0
  143.9966   72.8281  218.4815 H   0  0  0  0  0  0  0  0  0  0  0  0
  144.3708   71.4013  219.4937 H   0  0  0  0  0  0  0  0  0  0  0  0
  1  2  1  0
  2  3  1  0
  3  4  1  0
  4  5  1  0
  5  6  1  0
  6  7  1  0
  7  8  2  0
  8  9  1  0
  9 10  1  0
 10 11  1  0
 11 12  1  0
 12 13  2  0
 13 14  1  0
 14 15  2  0
 15 16  1  0
 16 17  2  0
  9 18  2  0
 18 19  1  0
 19 20  1  0
 20 21  1  0
 21 22  1  0
 22 23  1  0
 23 24  2  0
 24 25  1  0
 25 26  2  0
 26 27  1  0
 27 28  2  0
 28 29  1  0
 19 30  2  0
  5 31  1  0
 31 32  1  0
 32  2  1  0
 30  7  1  0
 17 12  1  0
 29 20  1  0
 28 23  1  0
  1 33  1  0
  1 34  1  0
  2 35  1  1
  3 36  1  0
  3 37  1  0
  4 38  1  0
  4 39  1  0
  5 40  1  6
  6 41  1  0
 10 42  1  0
 11 43  1  0
 11 44  1  0
 13 45  1  0
 14 46  1  0
 15 47  1  0
 16 48  1  0
 17 49  1  0
 21 50  1  0
 21 51  1  0
 22 52  1  0
 22 53  1  0
 24 54  1  0
 25 55  1  0
 26 56  1  0
 27 57  1  0
 29 58  1  0
 29 59  1  0
 31 60  1  0
 31 61  1  0
 32 62  1  0
 32 63  1  0
M  END
>  <smiles>  (52) 
NC1CCC(Nc2nc(NCc3ccccc3)nc(N3CCc4ccccc4C3)n2)CC1

>  <score_type>  (52) 
oracle

>  <origin>  (52) 
autodockgpu

>  <m_score__min__energy>  (52) 
-10.94

>  <m_primary>  (52) 
energy

>  <rmsd>  (52) 
3.824957380997506

>  <m_score__min__rmsd>  (52) 
3.824957380997506

>  <meeko>  (52) 
{"free_energy": -9.59, "intermolecular_energy": -11.68, "internal_energy": -1.31, "cluster_size": 11, "cluster_id": 2, "rank_in_cluster": 5}

>  <energy>  (52) 
-10.91

>  <cluster_rmsd>  (52) 
0.12

>  <cluster>  (52) 
1

$$$$

     RDKit          3D

 63 67  0  0  0  0  0  0  0  0999 V2000
  142.5650   79.9720  222.1720 N   0  0  0  0  0  0  0  0  0  0  0  0
  141.2140   79.5080  221.8790 C   0  0  1  0  0  0  0  0  0  0  0  0
  141.1730   78.5420  220.7400 C   0  0  0  0  0  0  0  0  0  0  0  0
  141.4840   77.1110  221.1500 C   0  0  0  0  0  0  0  0  0  0  0  0
  140.4650   76.5840  222.1240 C   0  0  2  0  0  0  0  0  0  0  0  0
  139.6160   75.6320  221.4400 N   0  0  0  0  0  0  0  0  0  0  0  0
  139.9730   74.2770  221.3760 C   0  0  0  0  0  0  0  0  0  0  0  0
  140.4480   73.6920  220.2640 N   0  0  0  0  0  0  0  0  0  0  0  0
  140.7870   72.3790  220.2230 C   0  0  0  0  0  0  0  0  0  0  0  0
  141.2950   71.7770  219.0170 N   0  0  0  0  0  0  0  0  0  0  0  0
  142.7050   71.4380  218.9610 C   0  0  0  0  0  0  0  0  0  0  0  0
  143.4980   72.5230  219.5830 C   0  0  0  0  0  0  0  0  0  0  0  0
  144.4420   72.1830  220.5210 C   0  0  0  0  0  0  0  0  0  0  0  0
  145.2410   73.1170  221.1670 C   0  0  0  0  0  0  0  0  0  0  0  0
  145.0600   74.4450  220.8330 C   0  0  0  0  0  0  0  0  0  0  0  0
  144.1210   74.8080  219.8970 C   0  0  0  0  0  0  0  0  0  0  0  0
  143.3290   73.8570  219.2610 C   0  0  0  0  0  0  0  0  0  0  0  0
  140.6360   71.6510  221.3490 N   0  0  0  0  0  0  0  0  0  0  0  0
  140.1640   72.1840  222.4900 C   0  0  0  0  0  0  0  0  0  0  0  0
  140.0010   71.4230  223.6820 N   0  0  0  0  0  0  0  0  0  0  0  0
  138.8330   70.5860  223.8760 C   0  0  0  0  0  0  0  0  0  0  0  0
  139.3660   69.3430  224.6010 C   0  0  0  0  0  0  0  0  0  0  0  0
  139.7320   69.8510  225.9620 C   0  0  0  0  0  0  0  0  0  0  0  0
  139.2530   69.2610  227.1130 C   0  0  0  0  0  0  0  0  0  0  0  0
  139.6490   69.8040  228.3140 C   0  0  0  0  0  0  0  0  0  0  0  0
  140.4950   70.8970  228.3600 C   0  0  0  0  0  0  0  0  0  0  0  0
  140.9770   71.4940  227.2130 C   0  0  0  0  0  0  0  0  0  0  0  0
  140.5800   70.9490  225.9940 C   0  0  0  0  0  0  0  0  0  0  0  0
  141.0400   71.5110  224.6920 C   0  0  0  0  0  0  0  0  0  0  0  0
  139.8460   73.4870  222.4670 N   0  0  0  0  0  0  0  0  0  0  0  0
  139.6950   77.7450  222.6760 C   0  0  0  0  0  0  0  0  0  0  0  0
  140.6710   78.8150  223.1160 C   0  0  0  0  0  0  0  0  0  0  0  0
  142.6930   79.8620  223.2020 H   0  0  0  0  0  0  0  0  0  0  0  0
  143.2680   79.4610  221.5950 H   0  0  0  0  0  0  0  0  0  0  0  0
  140.6103   80.3831  221.5966 H   0  0  0  0  0  0  0  0  0  0  0  0
  141.9115   78.8577  219.9884 H   0  0  0  0  0  0  0  0  0  0  0  0
  140.1468   78.5505  220.3439 H   0  0  0  0  0  0  0  0  0  0  0  0
  142.4776   77.0818  221.6210 H   0  0  0  0  0  0  0  0  0  0  0  0
  141.4598   76.4802  220.2491 H   0  0  0  0  0  0  0  0  0  0  0  0
  140.9397   76.0600  222.9667 H   0  0  0  0  0  0  0  0  0  0  0  0
  138.7520   75.9740  221.0100 H   0  0  0  0  0  0  0  0  0  0  0  0
  140.6240   71.6150  218.2470 H   0  0  0  0  0  0  0  0  0  0  0  0
  142.8782   70.4983  219.5060 H   0  0  0  0  0  0  0  0  0  0  0  0
  143.0114   71.3148  217.9117 H   0  0  0  0  0  0  0  0  0  0  0  0
  144.5712   71.1200  220.7725 H   0  0  0  0  0  0  0  0  0  0  0  0
  145.9879   72.8117  221.9146 H   0  0  0  0  0  0  0  0  0  0  0  0
  145.6722   75.2184  221.3199 H   0  0  0  0  0  0  0  0  0  0  0  0
  143.9932   75.8713  219.6458 H   0  0  0  0  0  0  0  0  0  0  0  0
  142.5808   74.1615  218.5144 H   0  0  0  0  0  0  0  0  0  0  0  0
  138.0823   71.1030  224.4917 H   0  0  0  0  0  0  0  0  0  0  0  0
  138.3362   70.3354  222.9271 H   0  0  0  0  0  0  0  0  0  0  0  0
  138.5901   68.5662  224.6685 H   0  0  0  0  0  0  0  0  0  0  0  0
  140.2150   68.8779  224.0786 H   0  0  0  0  0  0  0  0  0  0  0  0
  138.5811   68.3910  227.0726 H   0  0  0  0  0  0  0  0  0  0  0  0
  139.2864   69.3611  229.2533 H   0  0  0  0  0  0  0  0  0  0  0  0
  140.7921   71.3020  229.3386 H   0  0  0  0  0  0  0  0  0  0  0  0
  141.6475   72.3648  227.2594 H   0  0  0  0  0  0  0  0  0  0  0  0
  141.3128   72.5671  224.8341 H   0  0  0  0  0  0  0  0  0  0  0  0
  141.9071   70.9273  224.3493 H   0  0  0  0  0  0  0  0  0  0  0  0
  139.0958   77.4148  223.5374 H   0  0  0  0  0  0  0  0  0  0  0  0
  139.0230   78.1478  221.9039 H   0  0  0  0  0  0  0  0  0  0  0  0
  141.4979   78.3552  223.6771 H   0  0  0  0  0  0  0  0  0  0  0  0
  140.1643   79.5441  223.7653 H   0  0  0  0  0  0  0  0  0  0  0  0
  1  2  1  0
  2  3  1  0
  3  4  1  0
  4  5  1  0
  5  6  1  0
  6  7  1  0
  7  8  2  0
  8  9  1  0
  9 10  1  0
 10 11  1  0
 11 12  1  0
 12 13  2  0
 13 14  1  0
 14 15  2  0
 15 16  1  0
 16 17  2  0
  9 18  2  0
 18 19  1  0
 19 20  1  0
 20 21  1  0
 21 22  1  0
 22 23  1  0
 23 24  2  0
 24 25  1  0
 25 26  2  0
 26 27  1  0
 27 28  2  0
 28 29  1  0
 19 30  2  0
  5 31  1  0
 31 32  1  0
 32  2  1  0
 30  7  1  0
 17 12  1  0
 29 20  1  0
 28 23  1  0
  1 33  1  0
  1 34  1  0
  2 35  1  6
  3 36  1  0
  3 37  1  0
  4 38  1  0
  4 39  1  0
  5 40  1  1
  6 41  1  0
 10 42  1  0
 11 43  1  0
 11 44  1  0
 13 45  1  0
 14 46  1  0
 15 47  1  0
 16 48  1  0
 17 49  1  0
 21 50  1  0
 21 51  1  0
 22 52  1  0
 22 53  1  0
 24 54  1  0
 25 55  1  0
 26 56  1  0
 27 57  1  0
 29 58  1  0
 29 59  1  0
 31 60  1  0
 31 61  1  0
 32 62  1  0
 32 63  1  0
M  END
>  <smiles>  (53) 
NC1CCC(Nc2nc(NCc3ccccc3)nc(N3CCc4ccccc4C3)n2)CC1

>  <score_type>  (53) 
oracle

>  <origin>  (53) 
autodockgpu

>  <m_score__min__energy>  (53) 
-10.94

>  <m_primary>  (53) 
energy

>  <rmsd>  (53) 
3.9810311565553147

>  <m_score__min__rmsd>  (53) 
3.9810311565553147

>  <meeko>  (53) 
{"free_energy": -8.97, "intermolecular_energy": -11.05, "internal_energy": -1.46, "cluster_size": 3, "cluster_id": 4, "rank_in_cluster": 1}

>  <energy>  (53) 
-10.84

>  <cluster_rmsd>  (53) 
0.16

>  <cluster>  (53) 
1

$$$$

     RDKit          3D

 63 67  0  0  0  0  0  0  0  0999 V2000
  146.3940   73.4730  219.2190 N   0  0  0  0  0  0  0  0  0  0  0  0
  145.1170   73.1290  219.8340 C   0  0  1  0  0  0  0  0  0  0  0  0
  144.1800   74.2900  219.9000 C   0  0  0  0  0  0  0  0  0  0  0  0
  143.4020   74.5130  218.6120 C   0  0  0  0  0  0  0  0  0  0  0  0
  142.5200   73.3380  218.2920 C   0  0  2  0  0  0  0  0  0  0  0  0
  141.1430   73.7050  218.5520 N   0  0  0  0  0  0  0  0  0  0  0  0
  140.7200   74.0030  219.8550 C   0  0  0  0  0  0  0  0  0  0  0  0
  140.3230   73.0670  220.7340 N   0  0  0  0  0  0  0  0  0  0  0  0
  139.9160   73.3770  221.9900 C   0  0  0  0  0  0  0  0  0  0  0  0
  139.4950   72.3530  222.9120 N   0  0  0  0  0  0  0  0  0  0  0  0
  140.4410   71.3070  223.2530 C   0  0  0  0  0  0  0  0  0  0  0  0
  140.3740   71.0370  224.7070 C   0  0  0  0  0  0  0  0  0  0  0  0
  141.0880   71.8510  225.5530 C   0  0  0  0  0  0  0  0  0  0  0  0
  141.0970   71.6900  226.9320 C   0  0  0  0  0  0  0  0  0  0  0  0
  140.3450   70.6560  227.4550 C   0  0  0  0  0  0  0  0  0  0  0  0
  139.6220   69.8300  226.6270 C   0  0  0  0  0  0  0  0  0  0  0  0
  139.6260   70.0070  225.2470 C   0  0  0  0  0  0  0  0  0  0  0  0
  139.9180   74.6770  222.3530 N   0  0  0  0  0  0  0  0  0  0  0  0
  140.3040   75.6550  221.5160 C   0  0  0  0  0  0  0  0  0  0  0  0
  140.3090   77.0280  221.8910 N   0  0  0  0  0  0  0  0  0  0  0  0
  139.4330   77.9810  221.2360 C   0  0  0  0  0  0  0  0  0  0  0  0
  138.9910   78.9310  222.3570 C   0  0  0  0  0  0  0  0  0  0  0  0
  140.2370   79.6910  222.6950 C   0  0  0  0  0  0  0  0  0  0  0  0
  140.2690   81.0690  222.7090 C   0  0  0  0  0  0  0  0  0  0  0  0
  141.4630   81.6720  223.0340 C   0  0  0  0  0  0  0  0  0  0  0  0
  142.5850   80.9210  223.3320 C   0  0  0  0  0  0  0  0  0  0  0  0
  142.5620   79.5410  223.3190 C   0  0  0  0  0  0  0  0  0  0  0  0
  141.3550   78.9250  222.9920 C   0  0  0  0  0  0  0  0  0  0  0  0
  141.2140   77.4420  222.9470 C   0  0  0  0  0  0  0  0  0  0  0  0
  140.6950   75.2850  220.2870 N   0  0  0  0  0  0  0  0  0  0  0  0
  142.9660   72.1720  219.1210 C   0  0  0  0  0  0  0  0  0  0  0  0
  144.4690   72.0360  219.0040 C   0  0  0  0  0  0  0  0  0  0  0  0
  146.1750   73.7710  218.2430 H   0  0  0  0  0  0  0  0  0  0  0  0
  146.8980   74.1910  219.7840 H   0  0  0  0  0  0  0  0  0  0  0  0
  145.3165   72.8020  220.8652 H   0  0  0  0  0  0  0  0  0  0  0  0
  144.7635   75.1970  220.1163 H   0  0  0  0  0  0  0  0  0  0  0  0
  143.4456   74.0699  220.6888 H   0  0  0  0  0  0  0  0  0  0  0  0
  144.1129   74.6620  217.7859 H   0  0  0  0  0  0  0  0  0  0  0  0
  142.7634   75.3991  218.7429 H   0  0  0  0  0  0  0  0  0  0  0  0
  142.5944   73.0504  217.2329 H   0  0  0  0  0  0  0  0  0  0  0  0
  140.4940   73.7420  217.7610 H   0  0  0  0  0  0  0  0  0  0  0  0
  138.5340   72.4170  223.2870 H   0  0  0  0  0  0  0  0  0  0  0  0
  140.1908   70.3909  222.6979 H   0  0  0  0  0  0  0  0  0  0  0  0
  141.4579   71.6307  222.9863 H   0  0  0  0  0  0  0  0  0  0  0  0
  141.6805   72.6689  225.1171 H   0  0  0  0  0  0  0  0  0  0  0  0
  141.6797   72.3591  227.5822 H   0  0  0  0  0  0  0  0  0  0  0  0
  140.3244   70.4921  228.5425 H   0  0  0  0  0  0  0  0  0  0  0  0
  139.0288   69.0133  227.0642 H   0  0  0  0  0  0  0  0  0  0  0  0
  139.0436   69.3384  224.5961 H   0  0  0  0  0  0  0  0  0  0  0  0
  139.9738   78.5306  220.4514 H   0  0  0  0  0  0  0  0  0  0  0  0
  138.5803   77.4933  220.7409 H   0  0  0  0  0  0  0  0  0  0  0  0
  138.2008   79.6108  222.0055 H   0  0  0  0  0  0  0  0  0  0  0  0
  138.5694   78.3995  223.2229 H   0  0  0  0  0  0  0  0  0  0  0  0
  139.3751   81.6637  222.4697 H   0  0  0  0  0  0  0  0  0  0  0  0
  141.5255   82.7700  223.0570 H   0  0  0  0  0  0  0  0  0  0  0  0
  143.5221   81.4377  223.5865 H   0  0  0  0  0  0  0  0  0  0  0  0
  143.4596   78.9513  223.5570 H   0  0  0  0  0  0  0  0  0  0  0  0
  142.2024   76.9938  222.7674 H   0  0  0  0  0  0  0  0  0  0  0  0
  140.8011   77.1042  223.9090 H   0  0  0  0  0  0  0  0  0  0  0  0
  142.4824   71.2534  218.7573 H   0  0  0  0  0  0  0  0  0  0  0  0
  142.6863   72.3327  220.1726 H   0  0  0  0  0  0  0  0  0  0  0  0
  144.7704   72.1413  217.9513 H   0  0  0  0  0  0  0  0  0  0  0  0
  144.7876   71.0477  219.3671 H   0  0  0  0  0  0  0  0  0  0  0  0
  1  2  1  0
  2  3  1  0
  3  4  1  0
  4  5  1  0
  5  6  1  0
  6  7  1  0
  7  8  2  0
  8  9  1  0
  9 10  1  0
 10 11  1  0
 11 12  1  0
 12 13  2  0
 13 14  1  0
 14 15  2  0
 15 16  1  0
 16 17  2  0
  9 18  2  0
 18 19  1  0
 19 20  1  0
 20 21  1  0
 21 22  1  0
 22 23  1  0
 23 24  2  0
 24 25  1  0
 25 26  2  0
 26 27  1  0
 27 28  2  0
 28 29  1  0
 19 30  2  0
  5 31  1  0
 31 32  1  0
 32  2  1  0
 30  7  1  0
 17 12  1  0
 29 20  1  0
 28 23  1  0
  1 33  1  0
  1 34  1  0
  2 35  1  1
  3 36  1  0
  3 37  1  0
  4 38  1  0
  4 39  1  0
  5 40  1  6
  6 41  1  0
 10 42  1  0
 11 43  1  0
 11 44  1  0
 13 45  1  0
 14 46  1  0
 15 47  1  0
 16 48  1  0
 17 49  1  0
 21 50  1  0
 21 51  1  0
 22 52  1  0
 22 53  1  0
 24 54  1  0
 25 55  1  0
 26 56  1  0
 27 57  1  0
 29 58  1  0
 29 59  1  0
 31 60  1  0
 31 61  1  0
 32 62  1  0
 32 63  1  0
M  END
>  <smiles>  (54) 
NC1CCC(Nc2nc(NCc3ccccc3)nc(N3CCc4ccccc4C3)n2)CC1

>  <score_type>  (54) 
oracle

>  <origin>  (54) 
autodockgpu

>  <m_score__min__energy>  (54) 
-10.94

>  <m_primary>  (54) 
energy

>  <rmsd>  (54) 
10.779481893933058

>  <m_score__min__rmsd>  (54) 
10.779481893933058

>  <meeko>  (54) 
{"free_energy": -9.91, "intermolecular_energy": -12.0, "internal_energy": -1.17, "cluster_size": 32, "cluster_id": 1, "rank_in_cluster": 20}

>  <energy>  (54) 
-10.8

>  <cluster_rmsd>  (54) 
0.25

>  <cluster>  (54) 
1

$$$$

     RDKit          3D

 63 67  0  0  0  0  0  0  0  0999 V2000
  146.6480   73.6960  219.5670 N   0  0  0  0  0  0  0  0  0  0  0  0
  145.7320   72.5930  219.8350 C   0  0  1  0  0  0  0  0  0  0  0  0
  144.5440   73.0160  220.6350 C   0  0  0  0  0  0  0  0  0  0  0  0
  143.4320   73.6220  219.7920 C   0  0  0  0  0  0  0  0  0  0  0  0
  142.8840   72.6270  218.8070 C   0  0  2  0  0  0  0  0  0  0  0  0
  141.5750   72.1990  219.2550 N   0  0  0  0  0  0  0  0  0  0  0  0
  141.0040   72.7510  220.4110 C   0  0  0  0  0  0  0  0  0  0  0  0
  140.6460   74.0420  220.5130 N   0  0  0  0  0  0  0  0  0  0  0  0
  140.0950   74.5560  221.6410 C   0  0  0  0  0  0  0  0  0  0  0  0
  139.7190   75.9440  221.7230 N   0  0  0  0  0  0  0  0  0  0  0  0
  140.4800   76.9070  220.9490 C   0  0  0  0  0  0  0  0  0  0  0  0
  140.9440   77.9960  221.8390 C   0  0  0  0  0  0  0  0  0  0  0  0
  140.1840   78.3030  222.9410 C   0  0  0  0  0  0  0  0  0  0  0  0
  140.5230   79.3040  223.8420 C   0  0  0  0  0  0  0  0  0  0  0  0
  141.6850   80.0110  223.5970 C   0  0  0  0  0  0  0  0  0  0  0  0
  142.4610   79.7200  222.5000 C   0  0  0  0  0  0  0  0  0  0  0  0
  142.1030   78.7130  221.6080 C   0  0  0  0  0  0  0  0  0  0  0  0
  139.9080   73.7250  222.6890 N   0  0  0  0  0  0  0  0  0  0  0  0
  140.2490   72.4250  222.6430 C   0  0  0  0  0  0  0  0  0  0  0  0
  140.0540   71.5430  223.7430 N   0  0  0  0  0  0  0  0  0  0  0  0
  138.8790   70.6960  223.8190 C   0  0  0  0  0  0  0  0  0  0  0  0
  139.3900   69.3800  224.4190 C   0  0  0  0  0  0  0  0  0  0  0  0
  139.7240   69.7380  225.8350 C   0  0  0  0  0  0  0  0  0  0  0  0
  139.2160   69.0310  226.9040 C   0  0  0  0  0  0  0  0  0  0  0  0
  139.5850   69.4400  228.1660 C   0  0  0  0  0  0  0  0  0  0  0  0
  140.4320   70.5170  228.3490 C   0  0  0  0  0  0  0  0  0  0  0  0
  140.9450   71.2300  227.2840 C   0  0  0  0  0  0  0  0  0  0  0  0
  140.5750   70.8210  226.0040 C   0  0  0  0  0  0  0  0  0  0  0  0
  141.0680   71.5160  224.7810 C   0  0  0  0  0  0  0  0  0  0  0  0
  140.7890   71.9770  221.4990 N   0  0  0  0  0  0  0  0  0  0  0  0
  143.8510   71.4880  218.6980 C   0  0  0  0  0  0  0  0  0  0  0  0
  145.2450   72.0460  218.5050 C   0  0  0  0  0  0  0  0  0  0  0  0
  146.6390   73.8360  218.5320 H   0  0  0  0  0  0  0  0  0  0  0  0
  146.3840   74.5420  220.1170 H   0  0  0  0  0  0  0  0  0  0  0  0
  146.2761   71.8361  220.4190 H   0  0  0  0  0  0  0  0  0  0  0  0
  144.8691   73.7641  221.3730 H   0  0  0  0  0  0  0  0  0  0  0  0
  144.1349   72.1126  221.1109 H   0  0  0  0  0  0  0  0  0  0  0  0
  143.8311   74.4870  219.2420 H   0  0  0  0  0  0  0  0  0  0  0  0
  142.6166   73.9281  220.4640 H   0  0  0  0  0  0  0  0  0  0  0  0
  142.7650   73.0690  217.8068 H   0  0  0  0  0  0  0  0  0  0  0  0
  141.0830   71.4890  218.7070 H   0  0  0  0  0  0  0  0  0  0  0  0
  138.9200   76.1840  222.3330 H   0  0  0  0  0  0  0  0  0  0  0  0
  141.3491   76.4085  220.4950 H   0  0  0  0  0  0  0  0  0  0  0  0
  139.8436   77.3264  220.1558 H   0  0  0  0  0  0  0  0  0  0  0  0
  139.2628   77.7286  223.1184 H   0  0  0  0  0  0  0  0  0  0  0  0
  139.8920   79.5252  224.7155 H   0  0  0  0  0  0  0  0  0  0  0  0
  141.9914   80.8127  224.2850 H   0  0  0  0  0  0  0  0  0  0  0  0
  143.3826   80.2940  222.3237 H   0  0  0  0  0  0  0  0  0  0  0  0
  142.7323   78.4914  220.7334 H   0  0  0  0  0  0  0  0  0  0  0  0
  138.1153   71.1485  224.4686 H   0  0  0  0  0  0  0  0  0  0  0  0
  138.4047   70.5509  222.8372 H   0  0  0  0  0  0  0  0  0  0  0  0
  138.6103   68.6048  224.3844 H   0  0  0  0  0  0  0  0  0  0  0  0
  140.2499   68.9682  223.8704 H   0  0  0  0  0  0  0  0  0  0  0  0
  138.5426   68.1741  226.7547 H   0  0  0  0  0  0  0  0  0  0  0  0
  139.1992   68.9005  229.0435 H   0  0  0  0  0  0  0  0  0  0  0  0
  140.7050   70.8143  229.3723 H   0  0  0  0  0  0  0  0  0  0  0  0
  141.6183   72.0859  227.4393 H   0  0  0  0  0  0  0  0  0  0  0  0
  141.3409   72.5492  225.0418 H   0  0  0  0  0  0  0  0  0  0  0  0
  141.9409   70.9667  224.3985 H   0  0  0  0  0  0  0  0  0  0  0  0
  143.5832   70.8572  217.8376 H   0  0  0  0  0  0  0  0  0  0  0  0
  143.8161   70.8801  219.6141 H   0  0  0  0  0  0  0  0  0  0  0  0
  145.2217   72.8529  217.7578 H   0  0  0  0  0  0  0  0  0  0  0  0
  145.9226   71.2549  218.1514 H   0  0  0  0  0  0  0  0  0  0  0  0
  1  2  1  0
  2  3  1  0
  3  4  1  0
  4  5  1  0
  5  6  1  0
  6  7  1  0
  7  8  2  0
  8  9  1  0
  9 10  1  0
 10 11  1  0
 11 12  1  0
 12 13  2  0
 13 14  1  0
 14 15  2  0
 15 16  1  0
 16 17  2  0
  9 18  2  0
 18 19  1  0
 19 20  1  0
 20 21  1  0
 21 22  1  0
 22 23  1  0
 23 24  2  0
 24 25  1  0
 25 26  2  0
 26 27  1  0
 27 28  2  0
 28 29  1  0
 19 30  2  0
  5 31  1  0
 31 32  1  0
 32  2  1  0
 30  7  1  0
 17 12  1  0
 29 20  1  0
 28 23  1  0
  1 33  1  0
  1 34  1  0
  2 35  1  1
  3 36  1  0
  3 37  1  0
  4 38  1  0
  4 39  1  0
  5 40  1  6
  6 41  1  0
 10 42  1  0
 11 43  1  0
 11 44  1  0
 13 45  1  0
 14 46  1  0
 15 47  1  0
 16 48  1  0
 17 49  1  0
 21 50  1  0
 21 51  1  0
 22 52  1  0
 22 53  1  0
 24 54  1  0
 25 55  1  0
 26 56  1  0
 27 57  1  0
 29 58  1  0
 29 59  1  0
 31 60  1  0
 31 61  1  0
 32 62  1  0
 32 63  1  0
M  END
>  <smiles>  (55) 
NC1CCC(Nc2nc(NCc3ccccc3)nc(N3CCc4ccccc4C3)n2)CC1

>  <score_type>  (55) 
oracle

>  <origin>  (55) 
autodockgpu

>  <m_score__min__energy>  (55) 
-10.94

>  <m_primary>  (55) 
energy

>  <rmsd>  (55) 
3.946445989813055

>  <m_score__min__rmsd>  (55) 
3.946445989813055

>  <meeko>  (55) 
{"free_energy": -9.75, "intermolecular_energy": -11.83, "internal_energy": -1.03, "cluster_size": 32, "cluster_id": 1, "rank_in_cluster": 22}

>  <energy>  (55) 
-10.8

>  <cluster_rmsd>  (55) 
0.22

>  <cluster>  (55) 
1

$$$$

     RDKit          3D

 63 67  0  0  0  0  0  0  0  0999 V2000
  146.4650   73.3860  218.8420 N   0  0  0  0  0  0  0  0  0  0  0  0
  145.6930   73.1570  220.0580 C   0  0  1  0  0  0  0  0  0  0  0  0
  145.2340   74.4290  220.6940 C   0  0  0  0  0  0  0  0  0  0  0  0
  143.9540   74.9810  220.0870 C   0  0  0  0  0  0  0  0  0  0  0  0
  142.8020   74.0320  220.2760 C   0  0  2  0  0  0  0  0  0  0  0  0
  141.9160   74.5690  221.2860 N   0  0  0  0  0  0  0  0  0  0  0  0
  140.7150   73.9150  221.6010 C   0  0  0  0  0  0  0  0  0  0  0  0
  139.5450   74.1940  221.0030 N   0  0  0  0  0  0  0  0  0  0  0  0
  138.3950   73.5500  221.3230 C   0  0  0  0  0  0  0  0  0  0  0  0
  137.1540   73.8690  220.6660 N   0  0  0  0  0  0  0  0  0  0  0  0
  136.3710   74.9780  221.1770 C   0  0  0  0  0  0  0  0  0  0  0  0
  135.9170   74.6680  222.5520 C   0  0  0  0  0  0  0  0  0  0  0  0
  135.4080   73.4160  222.8010 C   0  0  0  0  0  0  0  0  0  0  0  0
  134.9540   73.0170  224.0510 C   0  0  0  0  0  0  0  0  0  0  0  0
  135.0280   73.9390  225.0770 C   0  0  0  0  0  0  0  0  0  0  0  0
  135.5340   75.1970  224.8500 C   0  0  0  0  0  0  0  0  0  0  0  0
  135.9840   75.5780  223.5900 C   0  0  0  0  0  0  0  0  0  0  0  0
  138.4480   72.5980  222.2780 N   0  0  0  0  0  0  0  0  0  0  0  0
  139.5910   72.2780  222.9100 C   0  0  0  0  0  0  0  0  0  0  0  0
  139.6550   71.2750  223.9170 N   0  0  0  0  0  0  0  0  0  0  0  0
  138.6030   70.2840  224.0490 C   0  0  0  0  0  0  0  0  0  0  0  0
  139.3370   68.9910  224.4240 C   0  0  0  0  0  0  0  0  0  0  0  0
  139.8300   69.2470  225.8150 C   0  0  0  0  0  0  0  0  0  0  0  0
  139.5620   68.3810  226.8540 C   0  0  0  0  0  0  0  0  0  0  0  0
  140.0610   68.7080  228.0950 C   0  0  0  0  0  0  0  0  0  0  0  0
  140.8010   69.8600  228.2870 C   0  0  0  0  0  0  0  0  0  0  0  0
  141.0740   70.7320  227.2520 C   0  0  0  0  0  0  0  0  0  0  0  0
  140.5710   70.4070  225.9940 C   0  0  0  0  0  0  0  0  0  0  0  0
  140.8040   71.2740  224.8040 C   0  0  0  0  0  0  0  0  0  0  0  0
  140.6940   72.9510  222.5490 N   0  0  0  0  0  0  0  0  0  0  0  0
  143.3520   72.6900  220.6530 C   0  0  0  0  0  0  0  0  0  0  0  0
  144.4700   72.3330  219.6970 C   0  0  0  0  0  0  0  0  0  0  0  0
  145.8010   73.8000  218.1500 H   0  0  0  0  0  0  0  0  0  0  0  0
  147.3030   73.9750  219.0380 H   0  0  0  0  0  0  0  0  0  0  0  0
  146.3431   72.6382  220.7779 H   0  0  0  0  0  0  0  0  0  0  0  0
  146.0273   75.1822  220.5790 H   0  0  0  0  0  0  0  0  0  0  0  0
  145.0221   74.2056  221.7500 H   0  0  0  0  0  0  0  0  0  0  0  0
  144.1100   75.1443  219.0104 H   0  0  0  0  0  0  0  0  0  0  0  0
  143.7103   75.9261  220.5943 H   0  0  0  0  0  0  0  0  0  0  0  0
  142.2181   73.9126  219.3514 H   0  0  0  0  0  0  0  0  0  0  0  0
  142.1900   75.4330  221.7630 H   0  0  0  0  0  0  0  0  0  0  0  0
  136.8820   73.2860  219.8560 H   0  0  0  0  0  0  0  0  0  0  0  0
  136.9891   75.8878  221.1911 H   0  0  0  0  0  0  0  0  0  0  0  0
  135.4967   75.1394  220.5293 H   0  0  0  0  0  0  0  0  0  0  0  0
  135.3579   72.6960  221.9709 H   0  0  0  0  0  0  0  0  0  0  0  0
  134.5514   72.0070  224.2177 H   0  0  0  0  0  0  0  0  0  0  0  0
  134.6793   73.6645  226.0835 H   0  0  0  0  0  0  0  0  0  0  0  0
  135.5840   75.9162  225.6808 H   0  0  0  0  0  0  0  0  0  0  0  0
  136.3868   76.5878  223.4225 H   0  0  0  0  0  0  0  0  0  0  0  0
  137.8947   70.5721  224.8397 H   0  0  0  0  0  0  0  0  0  0  0  0
  138.0119   70.1768  223.1275 H   0  0  0  0  0  0  0  0  0  0  0  0
  138.6508   68.1315  224.4040 H   0  0  0  0  0  0  0  0  0  0  0  0
  140.1497   68.7463  223.7242 H   0  0  0  0  0  0  0  0  0  0  0  0
  138.9729   67.4653  226.6977 H   0  0  0  0  0  0  0  0  0  0  0  0
  139.8676   68.0413  228.9483 H   0  0  0  0  0  0  0  0  0  0  0  0
  141.1831   70.0883  229.2929 H   0  0  0  0  0  0  0  0  0  0  0  0
  141.6644   71.6459  227.4139 H   0  0  0  0  0  0  0  0  0  0  0  0
  140.9957   72.3029  225.1427 H   0  0  0  0  0  0  0  0  0  0  0  0
  141.6684   70.8780  224.2508 H   0  0  0  0  0  0  0  0  0  0  0  0
  142.5560   71.9335  220.5895 H   0  0  0  0  0  0  0  0  0  0  0  0
  143.7374   72.7207  221.6828 H   0  0  0  0  0  0  0  0  0  0  0  0
  144.1621   72.5580  218.6652 H   0  0  0  0  0  0  0  0  0  0  0  0
  144.7023   71.2604  219.7719 H   0  0  0  0  0  0  0  0  0  0  0  0
  1  2  1  0
  2  3  1  0
  3  4  1  0
  4  5  1  0
  5  6  1  0
  6  7  1  0
  7  8  2  0
  8  9  1  0
  9 10  1  0
 10 11  1  0
 11 12  1  0
 12 13  2  0
 13 14  1  0
 14 15  2  0
 15 16  1  0
 16 17  2  0
  9 18  2  0
 18 19  1  0
 19 20  1  0
 20 21  1  0
 21 22  1  0
 22 23  1  0
 23 24  2  0
 24 25  1  0
 25 26  2  0
 26 27  1  0
 27 28  2  0
 28 29  1  0
 19 30  2  0
  5 31  1  0
 31 32  1  0
 32  2  1  0
 30  7  1  0
 17 12  1  0
 29 20  1  0
 28 23  1  0
  1 33  1  0
  1 34  1  0
  2 35  1  1
  3 36  1  0
  3 37  1  0
  4 38  1  0
  4 39  1  0
  5 40  1  6
  6 41  1  0
 10 42  1  0
 11 43  1  0
 11 44  1  0
 13 45  1  0
 14 46  1  0
 15 47  1  0
 16 48  1  0
 17 49  1  0
 21 50  1  0
 21 51  1  0
 22 52  1  0
 22 53  1  0
 24 54  1  0
 25 55  1  0
 26 56  1  0
 27 57  1  0
 29 58  1  0
 29 59  1  0
 31 60  1  0
 31 61  1  0
 32 62  1  0
 32 63  1  0
M  END
>  <smiles>  (56) 
NC1CCC(Nc2nc(NCc3ccccc3)nc(N3CCc4ccccc4C3)n2)CC1

>  <score_type>  (56) 
oracle

>  <origin>  (56) 
autodockgpu

>  <m_score__min__energy>  (56) 
-10.94

>  <m_primary>  (56) 
energy

>  <rmsd>  (56) 
3.885360909314195

>  <m_score__min__rmsd>  (56) 
3.885360909314195

>  <meeko>  (56) 
{"free_energy": -9.55, "intermolecular_energy": -11.64, "internal_energy": -1.32, "cluster_size": 11, "cluster_id": 2, "rank_in_cluster": 7}

>  <energy>  (56) 
-10.79

>  <cluster_rmsd>  (56) 
0.2

>  <cluster>  (56) 
1

$$$$

     RDKit          3D

 63 67  0  0  0  0  0  0  0  0999 V2000
  146.3200   73.3760  218.7100 N   0  0  0  0  0  0  0  0  0  0  0  0
  145.5280   73.1310  219.9100 C   0  0  1  0  0  0  0  0  0  0  0  0
  145.1800   74.3900  220.6350 C   0  0  0  0  0  0  0  0  0  0  0  0
  143.9540   75.0920  220.0740 C   0  0  0  0  0  0  0  0  0  0  0  0
  142.7240   74.2350  220.2000 C   0  0  2  0  0  0  0  0  0  0  0  0
  141.8850   74.7760  221.2490 N   0  0  0  0  0  0  0  0  0  0  0  0
  140.6810   74.1450  221.5930 C   0  0  0  0  0  0  0  0  0  0  0  0
  139.4940   74.4810  221.0610 N   0  0  0  0  0  0  0  0  0  0  0  0
  138.3400   73.8590  221.4080 C   0  0  0  0  0  0  0  0  0  0  0  0
  137.0810   74.2390  220.8210 N   0  0  0  0  0  0  0  0  0  0  0  0
  136.3110   75.2860  221.4670 C   0  0  0  0  0  0  0  0  0  0  0  0
  135.7680   74.7800  222.7470 C   0  0  0  0  0  0  0  0  0  0  0  0
  135.6920   75.6480  223.8100 C   0  0  0  0  0  0  0  0  0  0  0  0
  135.2000   75.2810  225.0550 C   0  0  0  0  0  0  0  0  0  0  0  0
  134.7700   73.9770  225.2090 C   0  0  0  0  0  0  0  0  0  0  0  0
  134.8360   73.0920  224.1590 C   0  0  0  0  0  0  0  0  0  0  0  0
  135.3340   73.4780  222.9180 C   0  0  0  0  0  0  0  0  0  0  0  0
  138.4060   72.8680  222.3230 N   0  0  0  0  0  0  0  0  0  0  0  0
  139.5660   72.4900  222.8890 C   0  0  0  0  0  0  0  0  0  0  0  0
  139.6440   71.4470  223.8530 N   0  0  0  0  0  0  0  0  0  0  0  0
  138.6780   70.3650  223.8590 C   0  0  0  0  0  0  0  0  0  0  0  0
  139.4940   69.1210  224.2320 C   0  0  0  0  0  0  0  0  0  0  0  0
  139.8580   69.3480  225.6680 C   0  0  0  0  0  0  0  0  0  0  0  0
  139.5910   68.4110  226.6430 C   0  0  0  0  0  0  0  0  0  0  0  0
  139.9660   68.7150  227.9330 C   0  0  0  0  0  0  0  0  0  0  0  0
  140.5850   69.9150  228.2320 C   0  0  0  0  0  0  0  0  0  0  0  0
  140.8550   70.8580  227.2620 C   0  0  0  0  0  0  0  0  0  0  0  0
  140.4780   70.5560  225.9540 C   0  0  0  0  0  0  0  0  0  0  0  0
  140.7200   71.4980  224.8260 C   0  0  0  0  0  0  0  0  0  0  0  0
  140.6720   73.1450  222.5040 N   0  0  0  0  0  0  0  0  0  0  0  0
  143.1540   72.8280  220.4810 C   0  0  0  0  0  0  0  0  0  0  0  0
  144.2390   72.4430  219.4980 C   0  0  0  0  0  0  0  0  0  0  0  0
  145.6670   73.7990  218.0140 H   0  0  0  0  0  0  0  0  0  0  0  0
  147.1540   73.9630  218.9280 H   0  0  0  0  0  0  0  0  0  0  0  0
  146.1294   72.5090  220.5893 H   0  0  0  0  0  0  0  0  0  0  0  0
  146.0359   75.0778  220.5693 H   0  0  0  0  0  0  0  0  0  0  0  0
  144.9476   74.1123  221.6737 H   0  0  0  0  0  0  0  0  0  0  0  0
  144.1258   75.3172  219.0111 H   0  0  0  0  0  0  0  0  0  0  0  0
  143.7918   76.0162  220.6480 H   0  0  0  0  0  0  0  0  0  0  0  0
  142.1349   74.2306  219.2711 H   0  0  0  0  0  0  0  0  0  0  0  0
  142.1960   75.6250  221.7300 H   0  0  0  0  0  0  0  0  0  0  0  0
  136.7870   73.7420  219.9630 H   0  0  0  0  0  0  0  0  0  0  0  0
  136.9605   76.1523  221.6610 H   0  0  0  0  0  0  0  0  0  0  0  0
  135.4817   75.5894  220.8111 H   0  0  0  0  0  0  0  0  0  0  0  0
  136.0374   76.6826  223.6674 H   0  0  0  0  0  0  0  0  0  0  0  0
  135.1542   76.0000  225.8862 H   0  0  0  0  0  0  0  0  0  0  0  0
  134.3719   73.6444  226.1790 H   0  0  0  0  0  0  0  0  0  0  0  0
  134.4883   72.0583  224.3025 H   0  0  0  0  0  0  0  0  0  0  0  0
  135.3816   72.7592  222.0867 H   0  0  0  0  0  0  0  0  0  0  0  0
  137.8908   70.5511  224.6045 H   0  0  0  0  0  0  0  0  0  0  0  0
  138.1683   70.2550  222.8904 H   0  0  0  0  0  0  0  0  0  0  0  0
  138.8899   68.2085  224.1206 H   0  0  0  0  0  0  0  0  0  0  0  0
  140.3744   68.9814  223.5875 H   0  0  0  0  0  0  0  0  0  0  0  0
  139.0979   67.4581  226.4005 H   0  0  0  0  0  0  0  0  0  0  0  0
  139.7700   67.9917  228.7383 H   0  0  0  0  0  0  0  0  0  0  0  0
  140.8704   70.1236  229.2736 H   0  0  0  0  0  0  0  0  0  0  0  0
  141.3477   71.8096  227.5103 H   0  0  0  0  0  0  0  0  0  0  0  0
  140.7946   72.5209  225.2237 H   0  0  0  0  0  0  0  0  0  0  0  0
  141.6542   71.2049  224.3246 H   0  0  0  0  0  0  0  0  0  0  0  0
  142.2954   72.1497  220.3681 H   0  0  0  0  0  0  0  0  0  0  0  0
  143.5380   72.7532  221.5091 H   0  0  0  0  0  0  0  0  0  0  0  0
  143.9537   72.7649  218.4856 H   0  0  0  0  0  0  0  0  0  0  0  0
  144.3775   71.3518  219.4976 H   0  0  0  0  0  0  0  0  0  0  0  0
  1  2  1  0
  2  3  1  0
  3  4  1  0
  4  5  1  0
  5  6  1  0
  6  7  1  0
  7  8  2  0
  8  9  1  0
  9 10  1  0
 10 11  1  0
 11 12  1  0
 12 13  2  0
 13 14  1  0
 14 15  2  0
 15 16  1  0
 16 17  2  0
  9 18  2  0
 18 19  1  0
 19 20  1  0
 20 21  1  0
 21 22  1  0
 22 23  1  0
 23 24  2  0
 24 25  1  0
 25 26  2  0
 26 27  1  0
 27 28  2  0
 28 29  1  0
 19 30  2  0
  5 31  1  0
 31 32  1  0
 32  2  1  0
 30  7  1  0
 17 12  1  0
 29 20  1  0
 28 23  1  0
  1 33  1  0
  1 34  1  0
  2 35  1  1
  3 36  1  0
  3 37  1  0
  4 38  1  0
  4 39  1  0
  5 40  1  6
  6 41  1  0
 10 42  1  0
 11 43  1  0
 11 44  1  0
 13 45  1  0
 14 46  1  0
 15 47  1  0
 16 48  1  0
 17 49  1  0
 21 50  1  0
 21 51  1  0
 22 52  1  0
 22 53  1  0
 24 54  1  0
 25 55  1  0
 26 56  1  0
 27 57  1  0
 29 58  1  0
 29 59  1  0
 31 60  1  0
 31 61  1  0
 32 62  1  0
 32 63  1  0
M  END
>  <smiles>  (57) 
NC1CCC(Nc2nc(NCc3ccccc3)nc(N3CCc4ccccc4C3)n2)CC1

>  <score_type>  (57) 
oracle

>  <origin>  (57) 
autodockgpu

>  <m_score__min__energy>  (57) 
-10.94

>  <m_primary>  (57) 
energy

>  <rmsd>  (57) 
3.864692548986199

>  <m_score__min__rmsd>  (57) 
3.864692548986199

>  <meeko>  (57) 
{"free_energy": -9.66, "intermolecular_energy": -11.75, "internal_energy": -1.28, "cluster_size": 11, "cluster_id": 2, "rank_in_cluster": 1}

>  <energy>  (57) 
-10.56

>  <cluster_rmsd>  (57) 
0.42

>  <cluster>  (57) 
1

$$$$

     RDKit          3D

 63 67  0  0  0  0  0  0  0  0999 V2000
  146.3240   73.0490  218.5950 N   0  0  0  0  0  0  0  0  0  0  0  0
  145.2010   72.8400  219.5040 C   0  0  1  0  0  0  0  0  0  0  0  0
  144.0830   73.8010  219.2640 C   0  0  0  0  0  0  0  0  0  0  0  0
  143.1460   73.3720  218.1450 C   0  0  0  0  0  0  0  0  0  0  0  0
  142.4610   72.0730  218.4690 C   0  0  2  0  0  0  0  0  0  0  0  0
  141.0760   72.3460  218.7930 N   0  0  0  0  0  0  0  0  0  0  0  0
  140.7350   72.9400  220.0170 C   0  0  0  0  0  0  0  0  0  0  0  0
  140.2450   72.2500  221.0610 N   0  0  0  0  0  0  0  0  0  0  0  0
  139.9210   72.8450  222.2360 C   0  0  0  0  0  0  0  0  0  0  0  0
  139.3980   72.0810  223.3400 N   0  0  0  0  0  0  0  0  0  0  0  0
  140.0920   70.8660  223.7230 C   0  0  0  0  0  0  0  0  0  0  0  0
  140.2700   70.8440  225.1930 C   0  0  0  0  0  0  0  0  0  0  0  0
  141.0050   71.8490  225.7740 C   0  0  0  0  0  0  0  0  0  0  0  0
  141.2350   71.9270  227.1410 C   0  0  0  0  0  0  0  0  0  0  0  0
  140.6890   70.9370  227.9340 C   0  0  0  0  0  0  0  0  0  0  0  0
  139.9500   69.9220  227.3740 C   0  0  0  0  0  0  0  0  0  0  0  0
  139.7310   69.8600  226.0010 C   0  0  0  0  0  0  0  0  0  0  0  0
  140.1040   74.1780  222.3420 N   0  0  0  0  0  0  0  0  0  0  0  0
  140.5900   74.9180  221.3310 C   0  0  0  0  0  0  0  0  0  0  0  0
  140.7870   76.3240  221.4340 N   0  0  0  0  0  0  0  0  0  0  0  0
  141.1410   77.1140  220.2700 C   0  0  0  0  0  0  0  0  0  0  0  0
  140.3780   78.4320  220.4520 C   0  0  0  0  0  0  0  0  0  0  0  0
  141.0650   79.0870  221.6110 C   0  0  0  0  0  0  0  0  0  0  0  0
  141.5520   80.3740  221.5360 C   0  0  0  0  0  0  0  0  0  0  0  0
  142.1670   80.8850  222.6570 C   0  0  0  0  0  0  0  0  0  0  0  0
  142.2880   80.1330  223.8110 C   0  0  0  0  0  0  0  0  0  0  0  0
  141.8030   78.8430  223.8940 C   0  0  0  0  0  0  0  0  0  0  0  0
  141.1800   78.3210  222.7620 C   0  0  0  0  0  0  0  0  0  0  0  0
  140.6190   76.9400  222.7380 C   0  0  0  0  0  0  0  0  0  0  0  0
  140.8920   74.2720  220.1940 N   0  0  0  0  0  0  0  0  0  0  0  0
  143.1940   71.4210  219.6010 C   0  0  0  0  0  0  0  0  0  0  0  0
  144.6760   71.4310  219.2940 C   0  0  0  0  0  0  0  0  0  0  0  0
  145.9780   72.7920  217.6440 H   0  0  0  0  0  0  0  0  0  0  0  0
  146.6870   74.0240  218.6710 H   0  0  0  0  0  0  0  0  0  0  0  0
  145.5631   72.9976  220.5307 H   0  0  0  0  0  0  0  0  0  0  0  0
  144.5139   74.7786  219.0021 H   0  0  0  0  0  0  0  0  0  0  0  0
  143.4872   73.8427  220.1878 H   0  0  0  0  0  0  0  0  0  0  0  0
  143.7273   73.2487  217.2193 H   0  0  0  0  0  0  0  0  0  0  0  0
  142.3758   74.1478  218.0226 H   0  0  0  0  0  0  0  0  0  0  0  0
  142.4738   71.3819  217.6133 H   0  0  0  0  0  0  0  0  0  0  0  0
  140.3590   72.0950  218.1070 H   0  0  0  0  0  0  0  0  0  0  0  0
  138.5480   72.4410  223.8060 H   0  0  0  0  0  0  0  0  0  0  0  0
  139.5010   69.9920  223.4118 H   0  0  0  0  0  0  0  0  0  0  0  0
  141.0764   70.8350  223.2331 H   0  0  0  0  0  0  0  0  0  0  0  0
  141.4313   72.6286  225.1255 H   0  0  0  0  0  0  0  0  0  0  0  0
  141.8286   72.7450  227.5752 H   0  0  0  0  0  0  0  0  0  0  0  0
  140.8466   70.9607  229.0224 H   0  0  0  0  0  0  0  0  0  0  0  0
  139.5235   69.1436  228.0238 H   0  0  0  0  0  0  0  0  0  0  0  0
  139.1388   69.0415  225.5658 H   0  0  0  0  0  0  0  0  0  0  0  0
  142.2257   77.2942  220.2379 H   0  0  0  0  0  0  0  0  0  0  0  0
  140.8827   76.6085  219.3278 H   0  0  0  0  0  0  0  0  0  0  0  0
  140.4527   79.0557  219.5490 H   0  0  0  0  0  0  0  0  0  0  0  0
  139.3026   78.2798  220.6262 H   0  0  0  0  0  0  0  0  0  0  0  0
  141.4533   80.9698  220.6166 H   0  0  0  0  0  0  0  0  0  0  0  0
  142.5688   81.9087  222.6341 H   0  0  0  0  0  0  0  0  0  0  0  0
  142.7845   80.5749  224.6875 H   0  0  0  0  0  0  0  0  0  0  0  0
  141.9042   78.2515  224.8159 H   0  0  0  0  0  0  0  0  0  0  0  0
  141.1376   76.3296  223.4920 H   0  0  0  0  0  0  0  0  0  0  0  0
  139.5428   76.9990  222.9576 H   0  0  0  0  0  0  0  0  0  0  0  0
  142.8476   70.3834  219.7166 H   0  0  0  0  0  0  0  0  0  0  0  0
  143.0026   71.9697  220.5349 H   0  0  0  0  0  0  0  0  0  0  0  0
  144.8410   71.1251  218.2504 H   0  0  0  0  0  0  0  0  0  0  0  0
  145.2033   70.7292  219.9569 H   0  0  0  0  0  0  0  0  0  0  0  0
  1  2  1  0
  2  3  1  0
  3  4  1  0
  4  5  1  0
  5  6  1  0
  6  7  1  0
  7  8  2  0
  8  9  1  0
  9 10  1  0
 10 11  1  0
 11 12  1  0
 12 13  2  0
 13 14  1  0
 14 15  2  0
 15 16  1  0
 16 17  2  0
  9 18  2  0
 18 19  1  0
 19 20  1  0
 20 21  1  0
 21 22  1  0
 22 23  1  0
 23 24  2  0
 24 25  1  0
 25 26  2  0
 26 27  1  0
 27 28  2  0
 28 29  1  0
 19 30  2  0
  5 31  1  0
 31 32  1  0
 32  2  1  0
 30  7  1  0
 17 12  1  0
 29 20  1  0
 28 23  1  0
  1 33  1  0
  1 34  1  0
  2 35  1  1
  3 36  1  0
  3 37  1  0
  4 38  1  0
  4 39  1  0
  5 40  1  6
  6 41  1  0
 10 42  1  0
 11 43  1  0
 11 44  1  0
 13 45  1  0
 14 46  1  0
 15 47  1  0
 16 48  1  0
 17 49  1  0
 21 50  1  0
 21 51  1  0
 22 52  1  0
 22 53  1  0
 24 54  1  0
 25 55  1  0
 26 56  1  0
 27 57  1  0
 29 58  1  0
 29 59  1  0
 31 60  1  0
 31 61  1  0
 32 62  1  0
 32 63  1  0
M  END
>  <smiles>  (58) 
NC1CCC(Nc2nc(NCc3ccccc3)nc(N3CCc4ccccc4C3)n2)CC1

>  <score_type>  (58) 
oracle

>  <origin>  (58) 
autodockgpu

>  <m_score__min__energy>  (58) 
-10.94

>  <m_primary>  (58) 
energy

>  <rmsd>  (58) 
10.453507321202363

>  <m_score__min__rmsd>  (58) 
10.453507321202363

>  <meeko>  (58) 
{"free_energy": -10.08, "intermolecular_energy": -12.17, "internal_energy": -1.22, "cluster_size": 32, "cluster_id": 1, "rank_in_cluster": 15}

>  <energy>  (58) 
-10.33

>  <cluster_rmsd>  (58) 
0.49

>  <cluster>  (58) 
1

$$$$

     RDKit          3D

 63 67  0  0  0  0  0  0  0  0999 V2000
  145.9600   68.1240  219.8670 N   0  0  0  0  0  0  0  0  0  0  0  0
  145.4520   69.1170  218.9270 C   0  0  1  0  0  0  0  0  0  0  0  0
  143.9660   69.2580  218.9900 C   0  0  0  0  0  0  0  0  0  0  0  0
  143.4920   70.1880  220.0960 C   0  0  0  0  0  0  0  0  0  0  0  0
  143.9920   71.5910  219.8860 C   0  0  2  0  0  0  0  0  0  0  0  0
  142.8860   72.4200  219.4560 N   0  0  0  0  0  0  0  0  0  0  0  0
  142.0620   73.0520  220.3980 C   0  0  0  0  0  0  0  0  0  0  0  0
  141.2390   72.3840  221.2240 N   0  0  0  0  0  0  0  0  0  0  0  0
  140.4490   73.0150  222.1280 C   0  0  0  0  0  0  0  0  0  0  0  0
  139.5760   72.2740  223.0020 N   0  0  0  0  0  0  0  0  0  0  0  0
  139.9790   70.9380  223.4020 C   0  0  0  0  0  0  0  0  0  0  0  0
  140.1760   70.9020  224.8690 C   0  0  0  0  0  0  0  0  0  0  0  0
  140.9480   71.8820  225.4460 C   0  0  0  0  0  0  0  0  0  0  0  0
  141.1990   71.9450  226.8100 C   0  0  0  0  0  0  0  0  0  0  0  0
  140.6350   70.9660  227.6040 C   0  0  0  0  0  0  0  0  0  0  0  0
  139.8600   69.9760  227.0490 C   0  0  0  0  0  0  0  0  0  0  0  0
  139.6200   69.9290  225.6790 C   0  0  0  0  0  0  0  0  0  0  0  0
  140.5040   74.3620  222.1860 N   0  0  0  0  0  0  0  0  0  0  0  0
  141.3080   75.0820  221.3830 C   0  0  0  0  0  0  0  0  0  0  0  0
  141.3730   76.5030  221.4380 N   0  0  0  0  0  0  0  0  0  0  0  0
  141.8300   77.2710  220.2950 C   0  0  0  0  0  0  0  0  0  0  0  0
  140.9440   78.5240  220.2940 C   0  0  0  0  0  0  0  0  0  0  0  0
  141.3980   79.2850  221.5020 C   0  0  0  0  0  0  0  0  0  0  0  0
  141.7850   80.6060  221.4270 C   0  0  0  0  0  0  0  0  0  0  0  0
  142.1850   81.2150  222.5950 C   0  0  0  0  0  0  0  0  0  0  0  0
  142.1950   80.5250  223.7940 C   0  0  0  0  0  0  0  0  0  0  0  0
  141.8090   79.2030  223.8770 C   0  0  0  0  0  0  0  0  0  0  0  0
  141.4040   78.5800  222.6970 C   0  0  0  0  0  0  0  0  0  0  0  0
  140.9660   77.1560  222.6680 C   0  0  0  0  0  0  0  0  0  0  0  0
  142.0650   74.4000  220.5100 N   0  0  0  0  0  0  0  0  0  0  0  0
  145.1030   71.5520  218.8810 C   0  0  0  0  0  0  0  0  0  0  0  0
  146.0750   70.4590  219.2690 C   0  0  0  0  0  0  0  0  0  0  0  0
  145.1300   67.5770  220.1880 H   0  0  0  0  0  0  0  0  0  0  0  0
  146.7110   67.5470  219.4300 H   0  0  0  0  0  0  0  0  0  0  0  0
  145.7150   68.7858  217.9115 H   0  0  0  0  0  0  0  0  0  0  0  0
  143.5286   68.2631  219.1602 H   0  0  0  0  0  0  0  0  0  0  0  0
  143.6417   69.6982  218.0355 H   0  0  0  0  0  0  0  0  0  0  0  0
  143.8658   69.8157  221.0612 H   0  0  0  0  0  0  0  0  0  0  0  0
  142.3922   70.2073  220.0841 H   0  0  0  0  0  0  0  0  0  0  0  0
  144.3905   72.0243  220.8152 H   0  0  0  0  0  0  0  0  0  0  0  0
  142.7260   72.5320  218.4510 H   0  0  0  0  0  0  0  0  0  0  0  0
  138.7020   72.7350  223.3040 H   0  0  0  0  0  0  0  0  0  0  0  0
  139.1965   70.2185  223.1191 H   0  0  0  0  0  0  0  0  0  0  0  0
  140.9201   70.6720  222.8984 H   0  0  0  0  0  0  0  0  0  0  0  0
  141.3878   72.6529  224.7962 H   0  0  0  0  0  0  0  0  0  0  0  0
  141.8220   72.7426  227.2409 H   0  0  0  0  0  0  0  0  0  0  0  0
  140.8076   70.9787  228.6903 H   0  0  0  0  0  0  0  0  0  0  0  0
  139.4209   69.2059  227.7002 H   0  0  0  0  0  0  0  0  0  0  0  0
  138.9981   69.1308  225.2475 H   0  0  0  0  0  0  0  0  0  0  0  0
  142.8894   77.5442  220.4088 H   0  0  0  0  0  0  0  0  0  0  0  0
  141.7552   76.7054  219.3545 H   0  0  0  0  0  0  0  0  0  0  0  0
  141.1000   79.1133  219.3784 H   0  0  0  0  0  0  0  0  0  0  0  0
  139.8705   78.2854  220.3207 H   0  0  0  0  0  0  0  0  0  0  0  0
  141.7746   81.1517  220.4720 H   0  0  0  0  0  0  0  0  0  0  0  0
  142.5020   82.2681  222.5746 H   0  0  0  0  0  0  0  0  0  0  0  0
  142.5200   81.0451  224.7072 H   0  0  0  0  0  0  0  0  0  0  0  0
  141.8203   78.6625  224.8350 H   0  0  0  0  0  0  0  0  0  0  0  0
  141.4153   76.6257  223.5206 H   0  0  0  0  0  0  0  0  0  0  0  0
  139.8679   77.1298  222.7275 H   0  0  0  0  0  0  0  0  0  0  0  0
  145.6231   72.5212  218.8673 H   0  0  0  0  0  0  0  0  0  0  0  0
  144.6940   71.3497  217.8801 H   0  0  0  0  0  0  0  0  0  0  0  0
  146.2783   70.5094  220.3489 H   0  0  0  0  0  0  0  0  0  0  0  0
  147.0218   70.5852  218.7234 H   0  0  0  0  0  0  0  0  0  0  0  0
  1  2  1  0
  2  3  1  0
  3  4  1  0
  4  5  1  0
  5  6  1  0
  6  7  1  0
  7  8  2  0
  8  9  1  0
  9 10  1  0
 10 11  1  0
 11 12  1  0
 12 13  2  0
 13 14  1  0
 14 15  2  0
 15 16  1  0
 16 17  2  0
  9 18  2  0
 18 19  1  0
 19 20  1  0
 20 21  1  0
 21 22  1  0
 22 23  1  0
 23 24  2  0
 24 25  1  0
 25 26  2  0
 26 27  1  0
 27 28  2  0
 28 29  1  0
 19 30  2  0
  5 31  1  0
 31 32  1  0
 32  2  1  0
 30  7  1  0
 17 12  1  0
 29 20  1  0
 28 23  1  0
  1 33  1  0
  1 34  1  0
  2 35  1  6
  3 36  1  0
  3 37  1  0
  4 38  1  0
  4 39  1  0
  5 40  1  1
  6 41  1  0
 10 42  1  0
 11 43  1  0
 11 44  1  0
 13 45  1  0
 14 46  1  0
 15 47  1  0
 16 48  1  0
 17 49  1  0
 21 50  1  0
 21 51  1  0
 22 52  1  0
 22 53  1  0
 24 54  1  0
 25 55  1  0
 26 56  1  0
 27 57  1  0
 29 58  1  0
 29 59  1  0
 31 60  1  0
 31 61  1  0
 32 62  1  0
 32 63  1  0
M  END
>  <smiles>  (59) 
NC1CCC(Nc2nc(NCc3ccccc3)nc(N3CCc4ccccc4C3)n2)CC1

>  <score_type>  (59) 
oracle

>  <origin>  (59) 
autodockgpu

>  <m_score__min__energy>  (59) 
-10.94

>  <m_primary>  (59) 
energy

>  <rmsd>  (59) 
10.726751087100974

>  <m_score__min__rmsd>  (59) 
10.726751087100974

>  <meeko>  (59) 
{"free_energy": -9.83, "intermolecular_energy": -11.92, "internal_energy": -0.93, "cluster_size": 32, "cluster_id": 1, "rank_in_cluster": 21}

>  <energy>  (59) 
-10.29

>  <cluster_rmsd>  (59) 
0.5

>  <cluster>  (59) 
1

$$$$

     RDKit          3D

 63 67  0  0  0  0  0  0  0  0999 V2000
  146.3730   73.3520  218.8910 N   0  0  0  0  0  0  0  0  0  0  0  0
  145.5530   73.1770  220.0850 C   0  0  1  0  0  0  0  0  0  0  0  0
  145.0440   74.4730  220.6260 C   0  0  0  0  0  0  0  0  0  0  0  0
  143.7810   74.9630  219.9350 C   0  0  0  0  0  0  0  0  0  0  0  0
  142.6400   74.0030  220.1300 C   0  0  2  0  0  0  0  0  0  0  0  0
  141.7010   74.5790  221.0690 N   0  0  0  0  0  0  0  0  0  0  0  0
  140.5250   73.8940  221.4090 C   0  0  0  0  0  0  0  0  0  0  0  0
  139.3560   74.0740  220.7720 N   0  0  0  0  0  0  0  0  0  0  0  0
  138.2290   73.4030  221.1180 C   0  0  0  0  0  0  0  0  0  0  0  0
  136.9890   73.6150  220.4160 N   0  0  0  0  0  0  0  0  0  0  0  0
  136.1610   74.7390  220.8110 C   0  0  0  0  0  0  0  0  0  0  0  0
  135.8420   74.6330  222.2520 C   0  0  0  0  0  0  0  0  0  0  0  0
  135.2730   73.4680  222.7080 C   0  0  0  0  0  0  0  0  0  0  0  0
  134.9330   73.2590  224.0380 C   0  0  0  0  0  0  0  0  0  0  0  0
  135.1870   74.2860  224.9260 C   0  0  0  0  0  0  0  0  0  0  0  0
  135.7560   75.4600  224.4930 C   0  0  0  0  0  0  0  0  0  0  0  0
  136.0900   75.6500  223.1550 C   0  0  0  0  0  0  0  0  0  0  0  0
  138.3050   72.5260  222.1410 N   0  0  0  0  0  0  0  0  0  0  0  0
  139.4470   72.3070  222.8150 C   0  0  0  0  0  0  0  0  0  0  0  0
  139.5350   71.3840  223.8950 N   0  0  0  0  0  0  0  0  0  0  0  0
  138.4870   70.4060  224.1250 C   0  0  0  0  0  0  0  0  0  0  0  0
  139.2310   69.1450  224.5820 C   0  0  0  0  0  0  0  0  0  0  0  0
  139.7540   69.5070  225.9380 C   0  0  0  0  0  0  0  0  0  0  0  0
  139.5090   68.7240  227.0460 C   0  0  0  0  0  0  0  0  0  0  0  0
  140.0350   69.1440  228.2470 C   0  0  0  0  0  0  0  0  0  0  0  0
  140.7780   70.3070  228.3340 C   0  0  0  0  0  0  0  0  0  0  0  0
  141.0260   71.0970  227.2300 C   0  0  0  0  0  0  0  0  0  0  0  0
  140.4970   70.6770  226.0110 C   0  0  0  0  0  0  0  0  0  0  0  0
  140.7030   71.4500  224.7540 C   0  0  0  0  0  0  0  0  0  0  0  0
  140.5270   73.0020  222.4260 N   0  0  0  0  0  0  0  0  0  0  0  0
  143.1970   72.6960  220.6070 C   0  0  0  0  0  0  0  0  0  0  0  0
  144.3620   72.3090  219.7210 C   0  0  0  0  0  0  0  0  0  0  0  0
  145.7600   73.8170  218.1850 H   0  0  0  0  0  0  0  0  0  0  0  0
  147.2460   73.8770  219.1130 H   0  0  0  0  0  0  0  0  0  0  0  0
  146.1806   72.7137  220.8605 H   0  0  0  0  0  0  0  0  0  0  0  0
  145.8277   75.2347  220.5007 H   0  0  0  0  0  0  0  0  0  0  0  0
  144.7910   74.3059  221.6834 H   0  0  0  0  0  0  0  0  0  0  0  0
  143.9801   75.0680  218.8583 H   0  0  0  0  0  0  0  0  0  0  0  0
  143.4984   75.9301  220.3763 H   0  0  0  0  0  0  0  0  0  0  0  0
  142.0992   73.8187  219.1900 H   0  0  0  0  0  0  0  0  0  0  0  0
  141.9200   75.4920  221.4770 H   0  0  0  0  0  0  0  0  0  0  0  0
  136.7510   72.9500  219.6610 H   0  0  0  0  0  0  0  0  0  0  0  0
  136.7029   75.6777  220.6233 H   0  0  0  0  0  0  0  0  0  0  0  0
  135.2288   74.7313  220.2271 H   0  0  0  0  0  0  0  0  0  0  0  0
  135.0776   72.6626  221.9847 H   0  0  0  0  0  0  0  0  0  0  0  0
  134.4797   72.3137  224.3710 H   0  0  0  0  0  0  0  0  0  0  0  0
  134.9317   74.1634  225.9889 H   0  0  0  0  0  0  0  0  0  0  0  0
  135.9511   76.2645  225.2174 H   0  0  0  0  0  0  0  0  0  0  0  0
  136.5442   76.5947  222.8214 H   0  0  0  0  0  0  0  0  0  0  0  0
  137.7954   70.7539  224.9064 H   0  0  0  0  0  0  0  0  0  0  0  0
  137.8764   70.2288  223.2274 H   0  0  0  0  0  0  0  0  0  0  0  0
  138.5457   68.2868  224.6431 H   0  0  0  0  0  0  0  0  0  0  0  0
  140.0284   68.8470  223.8854 H   0  0  0  0  0  0  0  0  0  0  0  0
  138.9166   67.8000  226.9733 H   0  0  0  0  0  0  0  0  0  0  0  0
  139.8613   68.5443  229.1526 H   0  0  0  0  0  0  0  0  0  0  0  0
  141.1827   70.6110  229.3106 H   0  0  0  0  0  0  0  0  0  0  0  0
  141.6175   72.0211  227.3090 H   0  0  0  0  0  0  0  0  0  0  0  0
  140.9011   72.5016  225.0088 H   0  0  0  0  0  0  0  0  0  0  0  0
  141.5555   71.0123  224.2139 H   0  0  0  0  0  0  0  0  0  0  0  0
  142.4184   71.9208  220.5533 H   0  0  0  0  0  0  0  0  0  0  0  0
  143.5362   72.7925  221.6489 H   0  0  0  0  0  0  0  0  0  0  0  0
  144.0950   72.4689  218.6660 H   0  0  0  0  0  0  0  0  0  0  0  0
  144.6105   71.2475  219.8673 H   0  0  0  0  0  0  0  0  0  0  0  0
  1  2  1  0
  2  3  1  0
  3  4  1  0
  4  5  1  0
  5  6  1  0
  6  7  1  0
  7  8  2  0
  8  9  1  0
  9 10  1  0
 10 11  1  0
 11 12  1  0
 12 13  2  0
 13 14  1  0
 14 15  2  0
 15 16  1  0
 16 17  2  0
  9 18  2  0
 18 19  1  0
 19 20  1  0
 20 21  1  0
 21 22  1  0
 22 23  1  0
 23 24  2  0
 24 25  1  0
 25 26  2  0
 26 27  1  0
 27 28  2  0
 28 29  1  0
 19 30  2  0
  5 31  1  0
 31 32  1  0
 32  2  1  0
 30  7  1  0
 17 12  1  0
 29 20  1  0
 28 23  1  0
  1 33  1  0
  1 34  1  0
  2 35  1  1
  3 36  1  0
  3 37  1  0
  4 38  1  0
  4 39  1  0
  5 40  1  6
  6 41  1  0
 10 42  1  0
 11 43  1  0
 11 44  1  0
 13 45  1  0
 14 46  1  0
 15 47  1  0
 16 48  1  0
 17 49  1  0
 21 50  1  0
 21 51  1  0
 22 52  1  0
 22 53  1  0
 24 54  1  0
 25 55  1  0
 26 56  1  0
 27 57  1  0
 29 58  1  0
 29 59  1  0
 31 60  1  0
 31 61  1  0
 32 62  1  0
 32 63  1  0
M  END
>  <smiles>  (60) 
NC1CCC(Nc2nc(NCc3ccccc3)nc(N3CCc4ccccc4C3)n2)CC1

>  <score_type>  (60) 
oracle

>  <origin>  (60) 
autodockgpu

>  <m_score__min__energy>  (60) 
-10.94

>  <m_primary>  (60) 
energy

>  <rmsd>  (60) 
3.8990549939716215

>  <m_score__min__rmsd>  (60) 
3.8990549939716215

>  <meeko>  (60) 
{"free_energy": -9.21, "intermolecular_energy": -11.3, "internal_energy": -1.38, "cluster_size": 11, "cluster_id": 2, "rank_in_cluster": 10}

>  <energy>  (60) 
-10.28

>  <cluster_rmsd>  (60) 
0.48

>  <cluster>  (60) 
1

$$$$

     RDKit          3D

 63 67  0  0  0  0  0  0  0  0999 V2000
  146.7430   73.6390  219.3830 N   0  0  0  0  0  0  0  0  0  0  0  0
  145.6600   73.0760  220.1830 C   0  0  1  0  0  0  0  0  0  0  0  0
  144.3760   73.8220  220.0150 C   0  0  0  0  0  0  0  0  0  0  0  0
  143.5820   73.3900  218.7920 C   0  0  0  0  0  0  0  0  0  0  0  0
  143.1670   71.9470  218.8870 C   0  0  2  0  0  0  0  0  0  0  0  0
  141.7470   71.8880  219.1610 N   0  0  0  0  0  0  0  0  0  0  0  0
  141.2050   72.5740  220.2580 C   0  0  0  0  0  0  0  0  0  0  0  0
  140.4990   71.9730  221.2290 N   0  0  0  0  0  0  0  0  0  0  0  0
  139.9830   72.6560  222.2810 C   0  0  0  0  0  0  0  0  0  0  0  0
  139.2300   71.9850  223.3100 N   0  0  0  0  0  0  0  0  0  0  0  0
  139.7070   70.6980  223.7800 C   0  0  0  0  0  0  0  0  0  0  0  0
  140.0750   70.8020  225.2110 C   0  0  0  0  0  0  0  0  0  0  0  0
  139.6970   69.7850  226.0550 C   0  0  0  0  0  0  0  0  0  0  0  0
  139.9880   69.7790  227.4120 C   0  0  0  0  0  0  0  0  0  0  0  0
  140.6920   70.8560  227.9150 C   0  0  0  0  0  0  0  0  0  0  0  0
  141.0800   71.8840  227.0890 C   0  0  0  0  0  0  0  0  0  0  0  0
  140.7780   71.8720  225.7310 C   0  0  0  0  0  0  0  0  0  0  0  0
  140.1960   73.9870  222.3370 N   0  0  0  0  0  0  0  0  0  0  0  0
  140.8940   74.6420  221.3930 C   0  0  0  0  0  0  0  0  0  0  0  0
  141.1240   76.0450  221.4440 N   0  0  0  0  0  0  0  0  0  0  0  0
  141.7810   76.7320  220.3480 C   0  0  0  0  0  0  0  0  0  0  0  0
  141.0570   78.0810  220.2500 C   0  0  0  0  0  0  0  0  0  0  0  0
  141.4780   78.8050  221.4920 C   0  0  0  0  0  0  0  0  0  0  0  0
  142.0270   80.0690  221.4480 C   0  0  0  0  0  0  0  0  0  0  0  0
  142.3810   80.6480  222.6460 C   0  0  0  0  0  0  0  0  0  0  0  0
  142.1900   79.9840  223.8440 C   0  0  0  0  0  0  0  0  0  0  0  0
  141.6410   78.7190  223.8970 C   0  0  0  0  0  0  0  0  0  0  0  0
  141.2820   78.1270  222.6870 C   0  0  0  0  0  0  0  0  0  0  0  0
  140.6800   76.7650  222.6230 C   0  0  0  0  0  0  0  0  0  0  0  0
  141.3790   73.9110  220.3770 N   0  0  0  0  0  0  0  0  0  0  0  0
  143.9840   71.2900  219.9570 C   0  0  0  0  0  0  0  0  0  0  0  0
  145.4410   71.6400  219.7440 C   0  0  0  0  0  0  0  0  0  0  0  0
  146.3470   73.7940  218.4290 H   0  0  0  0  0  0  0  0  0  0  0  0
  147.1300   74.4970  219.8310 H   0  0  0  0  0  0  0  0  0  0  0  0
  145.9513   73.1444  221.2415 H   0  0  0  0  0  0  0  0  0  0  0  0
  144.6052   74.8938  219.9212 H   0  0  0  0  0  0  0  0  0  0  0  0
  143.7565   73.6049  220.8977 H   0  0  0  0  0  0  0  0  0  0  0  0
  144.2048   73.5248  217.8953 H   0  0  0  0  0  0  0  0  0  0  0  0
  142.6737   74.0077  218.7337 H   0  0  0  0  0  0  0  0  0  0  0  0
  143.3463   71.4089  217.9445 H   0  0  0  0  0  0  0  0  0  0  0  0
  141.1540   71.3350  218.5350 H   0  0  0  0  0  0  0  0  0  0  0  0
  138.3820   72.4590  223.6640 H   0  0  0  0  0  0  0  0  0  0  0  0
  138.9134   69.9460  223.6589 H   0  0  0  0  0  0  0  0  0  0  0  0
  140.5886   70.3971  223.1950 H   0  0  0  0  0  0  0  0  0  0  0  0
  139.1376   68.9360  225.6351 H   0  0  0  0  0  0  0  0  0  0  0  0
  139.6707   68.9497  228.0612 H   0  0  0  0  0  0  0  0  0  0  0  0
  140.9441   70.8912  228.9851 H   0  0  0  0  0  0  0  0  0  0  0  0
  141.6399   72.7322  227.5098 H   0  0  0  0  0  0  0  0  0  0  0  0
  141.0940   72.7015  225.0812 H   0  0  0  0  0  0  0  0  0  0  0  0
  142.8491   76.8791  220.5660 H   0  0  0  0  0  0  0  0  0  0  0  0
  141.7322   76.1622  219.4083 H   0  0  0  0  0  0  0  0  0  0  0  0
  141.3723   78.6303  219.3506 H   0  0  0  0  0  0  0  0  0  0  0  0
  139.9652   77.9725  220.1709 H   0  0  0  0  0  0  0  0  0  0  0  0
  142.1763   80.5943  220.4931 H   0  0  0  0  0  0  0  0  0  0  0  0
  142.8230   81.6553  222.6503 H   0  0  0  0  0  0  0  0  0  0  0  0
  142.4841   80.4784  224.7816 H   0  0  0  0  0  0  0  0  0  0  0  0
  141.4927   78.1990  224.8549 H   0  0  0  0  0  0  0  0  0  0  0  0
  140.9757   76.2005  223.5196 H   0  0  0  0  0  0  0  0  0  0  0  0
  139.5864   76.8718  222.5721 H   0  0  0  0  0  0  0  0  0  0  0  0
  143.8544   70.1990  219.9033 H   0  0  0  0  0  0  0  0  0  0  0  0
  143.6562   71.6424  220.9461 H   0  0  0  0  0  0  0  0  0  0  0  0
  145.6962   71.5344  218.6792 H   0  0  0  0  0  0  0  0  0  0  0  0
  146.0807   70.9646  220.3310 H   0  0  0  0  0  0  0  0  0  0  0  0
  1  2  1  0
  2  3  1  0
  3  4  1  0
  4  5  1  0
  5  6  1  0
  6  7  1  0
  7  8  2  0
  8  9  1  0
  9 10  1  0
 10 11  1  0
 11 12  1  0
 12 13  2  0
 13 14  1  0
 14 15  2  0
 15 16  1  0
 16 17  2  0
  9 18  2  0
 18 19  1  0
 19 20  1  0
 20 21  1  0
 21 22  1  0
 22 23  1  0
 23 24  2  0
 24 25  1  0
 25 26  2  0
 26 27  1  0
 27 28  2  0
 28 29  1  0
 19 30  2  0
  5 31  1  0
 31 32  1  0
 32  2  1  0
 30  7  1  0
 17 12  1  0
 29 20  1  0
 28 23  1  0
  1 33  1  0
  1 34  1  0
  2 35  1  1
  3 36  1  0
  3 37  1  0
  4 38  1  0
  4 39  1  0
  5 40  1  6
  6 41  1  0
 10 42  1  0
 11 43  1  0
 11 44  1  0
 13 45  1  0
 14 46  1  0
 15 47  1  0
 16 48  1  0
 17 49  1  0
 21 50  1  0
 21 51  1  0
 22 52  1  0
 22 53  1  0
 24 54  1  0
 25 55  1  0
 26 56  1  0
 27 57  1  0
 29 58  1  0
 29 59  1  0
 31 60  1  0
 31 61  1  0
 32 62  1  0
 32 63  1  0
M  END
>  <smiles>  (61) 
NC1CCC(Nc2nc(NCc3ccccc3)nc(N3CCc4ccccc4C3)n2)CC1

>  <score_type>  (61) 
oracle

>  <origin>  (61) 
autodockgpu

>  <m_score__min__energy>  (61) 
-10.94

>  <m_primary>  (61) 
energy

>  <rmsd>  (61) 
10.290681939462054

>  <m_score__min__rmsd>  (61) 
10.290681939462054

>  <meeko>  (61) 
{"free_energy": -10.91, "intermolecular_energy": -13.0, "internal_energy": -1.1, "cluster_size": 32, "cluster_id": 1, "rank_in_cluster": 2}

>  <energy>  (61) 
-10.21

>  <cluster_rmsd>  (61) 
0.95

>  <cluster>  (61) 
1

$$$$

     RDKit          3D

 63 67  0  0  0  0  0  0  0  0999 V2000
  146.6950   73.6870  219.0890 N   0  0  0  0  0  0  0  0  0  0  0  0
  145.4990   73.6620  219.9230 C   0  0  1  0  0  0  0  0  0  0  0  0
  144.2580   73.9830  219.1550 C   0  0  0  0  0  0  0  0  0  0  0  0
  143.6710   72.7840  218.4260 C   0  0  0  0  0  0  0  0  0  0  0  0
  143.2480   71.7080  219.3890 C   0  0  2  0  0  0  0  0  0  0  0  0
  141.8020   71.6900  219.4610 N   0  0  0  0  0  0  0  0  0  0  0  0
  141.1280   72.4550  220.4240 C   0  0  0  0  0  0  0  0  0  0  0  0
  140.2380   71.9380  221.2870 N   0  0  0  0  0  0  0  0  0  0  0  0
  139.5960   72.6970  222.2100 C   0  0  0  0  0  0  0  0  0  0  0  0
  138.6470   72.1160  223.1240 N   0  0  0  0  0  0  0  0  0  0  0  0
  138.8730   70.7550  223.5740 C   0  0  0  0  0  0  0  0  0  0  0  0
  139.6440   70.7750  224.8380 C   0  0  0  0  0  0  0  0  0  0  0  0
  139.3370   69.8450  225.8020 C   0  0  0  0  0  0  0  0  0  0  0  0
  139.9950   69.7720  227.0220 C   0  0  0  0  0  0  0  0  0  0  0  0
  141.0030   70.6880  227.2550 C   0  0  0  0  0  0  0  0  0  0  0  0
  141.3260   71.6270  226.3050 C   0  0  0  0  0  0  0  0  0  0  0  0
  140.6550   71.6840  225.0870 C   0  0  0  0  0  0  0  0  0  0  0  0
  139.8750   74.0170  222.2480 N   0  0  0  0  0  0  0  0  0  0  0  0
  140.7550   74.5890  221.4080 C   0  0  0  0  0  0  0  0  0  0  0  0
  141.0550   75.9800  221.4420 N   0  0  0  0  0  0  0  0  0  0  0  0
  141.8380   76.5980  220.3880 C   0  0  0  0  0  0  0  0  0  0  0  0
  141.1990   77.9780  220.1930 C   0  0  0  0  0  0  0  0  0  0  0  0
  141.5510   78.7180  221.4470 C   0  0  0  0  0  0  0  0  0  0  0  0
  142.1680   79.9500  221.4170 C   0  0  0  0  0  0  0  0  0  0  0  0
  142.4490   80.5470  222.6250 C   0  0  0  0  0  0  0  0  0  0  0  0
  142.1230   79.9310  223.8200 C   0  0  0  0  0  0  0  0  0  0  0  0
  141.5050   78.6980  223.8580 C   0  0  0  0  0  0  0  0  0  0  0  0
  141.2180   78.0890  222.6380 C   0  0  0  0  0  0  0  0  0  0  0  0
  140.5520   76.7580  222.5590 C   0  0  0  0  0  0  0  0  0  0  0  0
  141.3570   73.7850  220.5180 N   0  0  0  0  0  0  0  0  0  0  0  0
  143.8830   71.9860  220.7180 C   0  0  0  0  0  0  0  0  0  0  0  0
  145.3550   72.2680  220.5070 C   0  0  0  0  0  0  0  0  0  0  0  0
  146.3720   73.9260  218.1250 H   0  0  0  0  0  0  0  0  0  0  0  0
  147.4070   74.3440  219.4780 H   0  0  0  0  0  0  0  0  0  0  0  0
  145.6163   74.4270  220.7047 H   0  0  0  0  0  0  0  0  0  0  0  0
  144.4981   74.7588  218.4130 H   0  0  0  0  0  0  0  0  0  0  0  0
  143.5049   74.3214  219.8819 H   0  0  0  0  0  0  0  0  0  0  0  0
  144.4294   72.3744  217.7426 H   0  0  0  0  0  0  0  0  0  0  0  0
  142.7832   73.1184  217.8693 H   0  0  0  0  0  0  0  0  0  0  0  0
  143.5775   70.7125  219.0568 H   0  0  0  0  0  0  0  0  0  0  0  0
  141.2900   71.1070  218.7930 H   0  0  0  0  0  0  0  0  0  0  0  0
  137.8480   72.7030  223.4170 H   0  0  0  0  0  0  0  0  0  0  0  0
  137.9057   70.2590  223.7423 H   0  0  0  0  0  0  0  0  0  0  0  0
  139.4388   70.2045  222.8079 H   0  0  0  0  0  0  0  0  0  0  0  0
  138.5317   69.1243  225.5971 H   0  0  0  0  0  0  0  0  0  0  0  0
  139.7248   69.0153  227.7733 H   0  0  0  0  0  0  0  0  0  0  0  0
  141.5512   70.6654  228.2084 H   0  0  0  0  0  0  0  0  0  0  0  0
  142.1309   72.3479  226.5113 H   0  0  0  0  0  0  0  0  0  0  0  0
  140.9248   72.4400  224.3349 H   0  0  0  0  0  0  0  0  0  0  0  0
  142.8904   76.6965  220.6924 H   0  0  0  0  0  0  0  0  0  0  0  0
  141.8375   76.0026  219.4630 H   0  0  0  0  0  0  0  0  0  0  0  0
  141.6185   78.4824  219.3100 H   0  0  0  0  0  0  0  0  0  0  0  0
  140.1136   77.9229  220.0232 H   0  0  0  0  0  0  0  0  0  0  0  0
  142.4258   80.4371  220.4650 H   0  0  0  0  0  0  0  0  0  0  0  0
  142.9412   81.5306  222.6404 H   0  0  0  0  0  0  0  0  0  0  0  0
  142.3631   80.4382  224.7661 H   0  0  0  0  0  0  0  0  0  0  0  0
  141.2492   78.2153  224.8128 H   0  0  0  0  0  0  0  0  0  0  0  0
  140.7406   76.2074  223.4924 H   0  0  0  0  0  0  0  0  0  0  0  0
  139.4738   76.9185  222.4117 H   0  0  0  0  0  0  0  0  0  0  0  0
  143.7647   71.1112  221.3743 H   0  0  0  0  0  0  0  0  0  0  0  0
  143.4000   72.8554  221.1880 H   0  0  0  0  0  0  0  0  0  0  0  0
  145.7786   71.5286  219.8114 H   0  0  0  0  0  0  0  0  0  0  0  0
  145.8925   72.2029  221.4645 H   0  0  0  0  0  0  0  0  0  0  0  0
  1  2  1  0
  2  3  1  0
  3  4  1  0
  4  5  1  0
  5  6  1  0
  6  7  1  0
  7  8  2  0
  8  9  1  0
  9 10  1  0
 10 11  1  0
 11 12  1  0
 12 13  2  0
 13 14  1  0
 14 15  2  0
 15 16  1  0
 16 17  2  0
  9 18  2  0
 18 19  1  0
 19 20  1  0
 20 21  1  0
 21 22  1  0
 22 23  1  0
 23 24  2  0
 24 25  1  0
 25 26  2  0
 26 27  1  0
 27 28  2  0
 28 29  1  0
 19 30  2  0
  5 31  1  0
 31 32  1  0
 32  2  1  0
 30  7  1  0
 17 12  1  0
 29 20  1  0
 28 23  1  0
  1 33  1  0
  1 34  1  0
  2 35  1  1
  3 36  1  0
  3 37  1  0
  4 38  1  0
  4 39  1  0
  5 40  1  6
  6 41  1  0
 10 42  1  0
 11 43  1  0
 11 44  1  0
 13 45  1  0
 14 46  1  0
 15 47  1  0
 16 48  1  0
 17 49  1  0
 21 50  1  0
 21 51  1  0
 22 52  1  0
 22 53  1  0
 24 54  1  0
 25 55  1  0
 26 56  1  0
 27 57  1  0
 29 58  1  0
 29 59  1  0
 31 60  1  0
 31 61  1  0
 32 62  1  0
 32 63  1  0
M  END
>  <smiles>  (62) 
NC1CCC(Nc2nc(NCc3ccccc3)nc(N3CCc4ccccc4C3)n2)CC1

>  <score_type>  (62) 
oracle

>  <origin>  (62) 
autodockgpu

>  <m_score__min__energy>  (62) 
-10.94

>  <m_primary>  (62) 
energy

>  <rmsd>  (62) 
10.221112548078203

>  <m_score__min__rmsd>  (62) 
10.221112548078203

>  <meeko>  (62) 
{"free_energy": -10.13, "intermolecular_energy": -12.22, "internal_energy": -1.4, "cluster_size": 32, "cluster_id": 1, "rank_in_cluster": 12}

>  <energy>  (62) 
-10.13

>  <cluster_rmsd>  (62) 
0.55

>  <cluster>  (62) 
1

$$$$

     RDKit          3D

 63 67  0  0  0  0  0  0  0  0999 V2000
  146.3640   73.4740  218.7290 N   0  0  0  0  0  0  0  0  0  0  0  0
  145.2820   73.3310  219.6960 C   0  0  1  0  0  0  0  0  0  0  0  0
  143.9590   73.7530  219.1430 C   0  0  0  0  0  0  0  0  0  0  0  0
  143.2670   72.6660  218.3360 C   0  0  0  0  0  0  0  0  0  0  0  0
  142.9510   71.4660  219.1870 C   0  0  2  0  0  0  0  0  0  0  0  0
  141.5260   71.4350  219.4380 N   0  0  0  0  0  0  0  0  0  0  0  0
  140.9710   72.1870  220.4850 C   0  0  0  0  0  0  0  0  0  0  0  0
  140.2600   71.6440  221.4860 N   0  0  0  0  0  0  0  0  0  0  0  0
  139.7310   72.3900  222.4890 C   0  0  0  0  0  0  0  0  0  0  0  0
  138.9730   71.7810  223.5510 N   0  0  0  0  0  0  0  0  0  0  0  0
  139.4680   70.5440  224.1260 C   0  0  0  0  0  0  0  0  0  0  0  0
  140.0380   70.8170  225.4650 C   0  0  0  0  0  0  0  0  0  0  0  0
  139.6720   69.9990  226.5060 C   0  0  0  0  0  0  0  0  0  0  0  0
  140.1450   70.1620  227.8020 C   0  0  0  0  0  0  0  0  0  0  0  0
  141.0240   71.2020  228.0290 C   0  0  0  0  0  0  0  0  0  0  0  0
  141.4040   72.0330  227.0020 C   0  0  0  0  0  0  0  0  0  0  0  0
  140.9190   71.8530  225.7100 C   0  0  0  0  0  0  0  0  0  0  0  0
  139.9390   73.7230  222.4620 N   0  0  0  0  0  0  0  0  0  0  0  0
  140.6420   74.3200  221.4840 C   0  0  0  0  0  0  0  0  0  0  0  0
  140.8650   75.7260  221.4480 N   0  0  0  0  0  0  0  0  0  0  0  0
  140.0820   76.6250  222.2750 C   0  0  0  0  0  0  0  0  0  0  0  0
  141.0770   77.7030  222.7210 C   0  0  0  0  0  0  0  0  0  0  0  0
  141.3710   78.4620  221.4640 C   0  0  0  0  0  0  0  0  0  0  0  0
  141.2370   79.8320  221.3910 C   0  0  0  0  0  0  0  0  0  0  0  0
  141.5330   80.4350  220.1890 C   0  0  0  0  0  0  0  0  0  0  0  0
  141.9480   79.6900  219.1000 C   0  0  0  0  0  0  0  0  0  0  0  0
  142.0850   78.3190  219.1640 C   0  0  0  0  0  0  0  0  0  0  0  0
  141.7870   77.7030  220.3790 C   0  0  0  0  0  0  0  0  0  0  0  0
  141.8990   76.2290  220.5630 C   0  0  0  0  0  0  0  0  0  0  0  0
  141.1380   73.5290  220.5210 N   0  0  0  0  0  0  0  0  0  0  0  0
  143.7520   71.5580  220.4500 C   0  0  0  0  0  0  0  0  0  0  0  0
  145.1900   71.8700  220.0950 C   0  0  0  0  0  0  0  0  0  0  0  0
  145.9410   73.9200  217.8840 H   0  0  0  0  0  0  0  0  0  0  0  0
  147.1630   74.0050  219.1390 H   0  0  0  0  0  0  0  0  0  0  0  0
  145.5091   73.9803  220.5544 H   0  0  0  0  0  0  0  0  0  0  0  0
  144.1158   74.6249  218.4909 H   0  0  0  0  0  0  0  0  0  0  0  0
  143.3086   73.9854  219.9991 H   0  0  0  0  0  0  0  0  0  0  0  0
  143.9274   72.3566  217.5125 H   0  0  0  0  0  0  0  0  0  0  0  0
  142.3218   73.0727  217.9473 H   0  0  0  0  0  0  0  0  0  0  0  0
  143.2202   70.5268  218.6815 H   0  0  0  0  0  0  0  0  0  0  0  0
  140.9390   70.8540  218.8330 H   0  0  0  0  0  0  0  0  0  0  0  0
  138.1090   72.2610  223.8530 H   0  0  0  0  0  0  0  0  0  0  0  0
  138.6402   69.8256  224.2191 H   0  0  0  0  0  0  0  0  0  0  0  0
  140.2472   70.1221  223.4743 H   0  0  0  0  0  0  0  0  0  0  0  0
  138.9710   69.1757  226.3038 H   0  0  0  0  0  0  0  0  0  0  0  0
  139.8318   69.4897  228.6143 H   0  0  0  0  0  0  0  0  0  0  0  0
  141.4238   71.3672  229.0404 H   0  0  0  0  0  0  0  0  0  0  0  0
  142.1049   72.8561  227.2053 H   0  0  0  0  0  0  0  0  0  0  0  0
  141.2319   72.5246  224.8970 H   0  0  0  0  0  0  0  0  0  0  0  0
  139.2606   77.0705  221.6947 H   0  0  0  0  0  0  0  0  0  0  0  0
  139.6153   76.1090  223.1270 H   0  0  0  0  0  0  0  0  0  0  0  0
  140.6278   78.3608  223.4796 H   0  0  0  0  0  0  0  0  0  0  0  0
  141.9813   77.2810  223.1838 H   0  0  0  0  0  0  0  0  0  0  0  0
  140.9064   80.4208  222.2594 H   0  0  0  0  0  0  0  0  0  0  0  0
  141.4379   81.5267  220.0933 H   0  0  0  0  0  0  0  0  0  0  0  0
  142.1754   80.2059  218.1555 H   0  0  0  0  0  0  0  0  0  0  0  0
  142.4158   77.7354  218.2922 H   0  0  0  0  0  0  0  0  0  0  0  0
  141.8020   75.7377  219.5836 H   0  0  0  0  0  0  0  0  0  0  0  0
  142.8779   76.0098  221.0144 H   0  0  0  0  0  0  0  0  0  0  0  0
  143.7038   70.6002  220.9887 H   0  0  0  0  0  0  0  0  0  0  0  0
  143.3453   72.3524  221.0930 H   0  0  0  0  0  0  0  0  0  0  0  0
  145.5110   71.2354  219.2558 H   0  0  0  0  0  0  0  0  0  0  0  0
  145.8422   71.6737  220.9587 H   0  0  0  0  0  0  0  0  0  0  0  0
  1  2  1  0
  2  3  1  0
  3  4  1  0
  4  5  1  0
  5  6  1  0
  6  7  1  0
  7  8  2  0
  8  9  1  0
  9 10  1  0
 10 11  1  0
 11 12  1  0
 12 13  2  0
 13 14  1  0
 14 15  2  0
 15 16  1  0
 16 17  2  0
  9 18  2  0
 18 19  1  0
 19 20  1  0
 20 21  1  0
 21 22  1  0
 22 23  1  0
 23 24  2  0
 24 25  1  0
 25 26  2  0
 26 27  1  0
 27 28  2  0
 28 29  1  0
 19 30  2  0
  5 31  1  0
 31 32  1  0
 32  2  1  0
 30  7  1  0
 17 12  1  0
 29 20  1  0
 28 23  1  0
  1 33  1  0
  1 34  1  0
  2 35  1  1
  3 36  1  0
  3 37  1  0
  4 38  1  0
  4 39  1  0
  5 40  1  6
  6 41  1  0
 10 42  1  0
 11 43  1  0
 11 44  1  0
 13 45  1  0
 14 46  1  0
 15 47  1  0
 16 48  1  0
 17 49  1  0
 21 50  1  0
 21 51  1  0
 22 52  1  0
 22 53  1  0
 24 54  1  0
 25 55  1  0
 26 56  1  0
 27 57  1  0
 29 58  1  0
 29 59  1  0
 31 60  1  0
 31 61  1  0
 32 62  1  0
 32 63  1  0
M  END
>  <smiles>  (63) 
NC1CCC(Nc2nc(NCc3ccccc3)nc(N3CCc4ccccc4C3)n2)CC1

>  <score_type>  (63) 
oracle

>  <origin>  (63) 
autodockgpu

>  <m_score__min__energy>  (63) 
-10.94

>  <m_primary>  (63) 
energy

>  <rmsd>  (63) 
10.007829258814715

>  <m_score__min__rmsd>  (63) 
10.007829258814715

>  <meeko>  (63) 
{"free_energy": -9.68, "intermolecular_energy": -11.77, "internal_energy": -1.42, "cluster_size": 32, "cluster_id": 1, "rank_in_cluster": 23}

>  <energy>  (63) 
-10.1

>  <cluster_rmsd>  (63) 
1.02

>  <cluster>  (63) 
1

$$$$

     RDKit          3D

 63 67  0  0  0  0  0  0  0  0999 V2000
  146.4540   73.4180  218.6950 N   0  0  0  0  0  0  0  0  0  0  0  0
  145.4060   73.1150  219.6630 C   0  0  1  0  0  0  0  0  0  0  0  0
  144.0930   73.7270  219.2980 C   0  0  0  0  0  0  0  0  0  0  0  0
  143.2950   72.8970  218.3040 C   0  0  0  0  0  0  0  0  0  0  0  0
  142.9350   71.5520  218.8730 C   0  0  2  0  0  0  0  0  0  0  0  0
  141.5230   71.5440  219.1910 N   0  0  0  0  0  0  0  0  0  0  0  0
  141.0340   72.2810  220.2800 C   0  0  0  0  0  0  0  0  0  0  0  0
  140.3570   71.7290  221.3000 N   0  0  0  0  0  0  0  0  0  0  0  0
  139.8920   72.4610  222.3430 C   0  0  0  0  0  0  0  0  0  0  0  0
  139.1680   71.8430  223.4250 N   0  0  0  0  0  0  0  0  0  0  0  0
  139.6700   70.5890  223.9580 C   0  0  0  0  0  0  0  0  0  0  0  0
  140.1060   70.7900  225.3580 C   0  0  0  0  0  0  0  0  0  0  0  0
  140.9290   71.8550  225.6370 C   0  0  0  0  0  0  0  0  0  0  0  0
  141.3980   72.1370  226.9130 C   0  0  0  0  0  0  0  0  0  0  0  0
  141.0060   71.2940  227.9340 C   0  0  0  0  0  0  0  0  0  0  0  0
  140.1840   70.2230  227.6780 C   0  0  0  0  0  0  0  0  0  0  0  0
  139.7240   69.9560  226.3920 C   0  0  0  0  0  0  0  0  0  0  0  0
  140.1280   73.7900  222.3400 N   0  0  0  0  0  0  0  0  0  0  0  0
  140.8000   74.3950  221.3450 C   0  0  0  0  0  0  0  0  0  0  0  0
  141.0540   75.7960  221.3330 N   0  0  0  0  0  0  0  0  0  0  0  0
  141.8060   76.4060  220.2530 C   0  0  0  0  0  0  0  0  0  0  0  0
  141.1200   77.7590  220.0230 C   0  0  0  0  0  0  0  0  0  0  0  0
  141.4600   78.5480  221.2500 C   0  0  0  0  0  0  0  0  0  0  0  0
  142.0370   79.7980  221.1760 C   0  0  0  0  0  0  0  0  0  0  0  0
  142.3090   80.4400  222.3630 C   0  0  0  0  0  0  0  0  0  0  0  0
  142.0140   79.8510  223.5790 C   0  0  0  0  0  0  0  0  0  0  0  0
  141.4370   78.6000  223.6610 C   0  0  0  0  0  0  0  0  0  0  0  0
  141.1590   77.9440  222.4630 C   0  0  0  0  0  0  0  0  0  0  0  0
  140.5360   76.5910  222.4310 C   0  0  0  0  0  0  0  0  0  0  0  0
  141.2340   73.6180  220.3410 N   0  0  0  0  0  0  0  0  0  0  0  0
  143.7930   71.3040  220.0760 C   0  0  0  0  0  0  0  0  0  0  0  0
  145.2330   71.6080  219.7220 C   0  0  0  0  0  0  0  0  0  0  0  0
  145.9830   73.9100  217.9030 H   0  0  0  0  0  0  0  0  0  0  0  0
  147.2260   73.9600  219.1390 H   0  0  0  0  0  0  0  0  0  0  0  0
  145.7121   73.5338  220.6330 H   0  0  0  0  0  0  0  0  0  0  0  0
  144.2805   74.7162  218.8550 H   0  0  0  0  0  0  0  0  0  0  0  0
  143.4969   73.7906  220.2203 H   0  0  0  0  0  0  0  0  0  0  0  0
  143.8973   72.7511  217.3952 H   0  0  0  0  0  0  0  0  0  0  0  0
  142.3636   73.4351  218.0741 H   0  0  0  0  0  0  0  0  0  0  0  0
  143.1182   70.7422  218.1515 H   0  0  0  0  0  0  0  0  0  0  0  0
  140.8960   70.9890  218.6020 H   0  0  0  0  0  0  0  0  0  0  0  0
  138.3230   72.3280  223.7700 H   0  0  0  0  0  0  0  0  0  0  0  0
  138.8729   69.8316  223.9269 H   0  0  0  0  0  0  0  0  0  0  0  0
  140.5227   70.2473  223.3528 H   0  0  0  0  0  0  0  0  0  0  0  0
  141.2303   72.5151  224.8102 H   0  0  0  0  0  0  0  0  0  0  0  0
  142.0558   72.9979  227.1031 H   0  0  0  0  0  0  0  0  0  0  0  0
  141.3545   71.4813  228.9604 H   0  0  0  0  0  0  0  0  0  0  0  0
  139.8837   69.5638  228.5058 H   0  0  0  0  0  0  0  0  0  0  0  0
  139.0667   69.0948  226.2014 H   0  0  0  0  0  0  0  0  0  0  0  0
  142.8576   76.5476  220.5431 H   0  0  0  0  0  0  0  0  0  0  0  0
  141.8161   75.7829  219.3466 H   0  0  0  0  0  0  0  0  0  0  0  0
  141.5141   78.2493  219.1206 H   0  0  0  0  0  0  0  0  0  0  0  0
  140.0353   77.6638  219.8667 H   0  0  0  0  0  0  0  0  0  0  0  0
  142.2707   80.2637  220.2072 H   0  0  0  0  0  0  0  0  0  0  0  0
  142.7691   81.4390  222.3440 H   0  0  0  0  0  0  0  0  0  0  0  0
  142.2457   80.3948  224.5067 H   0  0  0  0  0  0  0  0  0  0  0  0
  141.2058   78.1391  224.6327 H   0  0  0  0  0  0  0  0  0  0  0  0
  140.7507   76.0755  223.3787 H   0  0  0  0  0  0  0  0  0  0  0  0
  139.4518   76.7121  222.2898 H   0  0  0  0  0  0  0  0  0  0  0  0
  143.7025   70.2517  220.3835 H   0  0  0  0  0  0  0  0  0  0  0  0
  143.4685   71.9502  220.9050 H   0  0  0  0  0  0  0  0  0  0  0  0
  145.4755   71.1680  218.7435 H   0  0  0  0  0  0  0  0  0  0  0  0
  145.9060   71.1805  220.4798 H   0  0  0  0  0  0  0  0  0  0  0  0
  1  2  1  0
  2  3  1  0
  3  4  1  0
  4  5  1  0
  5  6  1  0
  6  7  1  0
  7  8  2  0
  8  9  1  0
  9 10  1  0
 10 11  1  0
 11 12  1  0
 12 13  2  0
 13 14  1  0
 14 15  2  0
 15 16  1  0
 16 17  2  0
  9 18  2  0
 18 19  1  0
 19 20  1  0
 20 21  1  0
 21 22  1  0
 22 23  1  0
 23 24  2  0
 24 25  1  0
 25 26  2  0
 26 27  1  0
 27 28  2  0
 28 29  1  0
 19 30  2  0
  5 31  1  0
 31 32  1  0
 32  2  1  0
 30  7  1  0
 17 12  1  0
 29 20  1  0
 28 23  1  0
  1 33  1  0
  1 34  1  0
  2 35  1  1
  3 36  1  0
  3 37  1  0
  4 38  1  0
  4 39  1  0
  5 40  1  6
  6 41  1  0
 10 42  1  0
 11 43  1  0
 11 44  1  0
 13 45  1  0
 14 46  1  0
 15 47  1  0
 16 48  1  0
 17 49  1  0
 21 50  1  0
 21 51  1  0
 22 52  1  0
 22 53  1  0
 24 54  1  0
 25 55  1  0
 26 56  1  0
 27 57  1  0
 29 58  1  0
 29 59  1  0
 31 60  1  0
 31 61  1  0
 32 62  1  0
 32 63  1  0
M  END
>  <smiles>  (64) 
NC1CCC(Nc2nc(NCc3ccccc3)nc(N3CCc4ccccc4C3)n2)CC1

>  <score_type>  (64) 
oracle

>  <origin>  (64) 
autodockgpu

>  <m_score__min__energy>  (64) 
-10.94

>  <m_primary>  (64) 
energy

>  <rmsd>  (64) 
10.156840416614578

>  <m_score__min__rmsd>  (64) 
10.156840416614578

>  <meeko>  (64) 
{"free_energy": -10.56, "intermolecular_energy": -12.65, "internal_energy": -1.29, "cluster_size": 32, "cluster_id": 1, "rank_in_cluster": 7}

>  <energy>  (64) 
-10.08

>  <cluster_rmsd>  (64) 
0.56

>  <cluster>  (64) 
1

$$$$

     RDKit          3D

 63 67  0  0  0  0  0  0  0  0999 V2000
  146.6640   73.6910  219.6980 N   0  0  0  0  0  0  0  0  0  0  0  0
  145.8270   72.5300  219.9820 C   0  0  1  0  0  0  0  0  0  0  0  0
  144.5790   72.8900  220.7200 C   0  0  0  0  0  0  0  0  0  0  0  0
  143.4560   73.3690  219.8120 C   0  0  0  0  0  0  0  0  0  0  0  0
  143.0270   72.2930  218.8530 C   0  0  2  0  0  0  0  0  0  0  0  0
  141.7400   71.7810  219.2730 N   0  0  0  0  0  0  0  0  0  0  0  0
  141.0260   72.4100  220.3040 C   0  0  0  0  0  0  0  0  0  0  0  0
  140.5220   73.6510  220.2010 N   0  0  0  0  0  0  0  0  0  0  0  0
  139.8360   74.2420  221.2110 C   0  0  0  0  0  0  0  0  0  0  0  0
  139.3050   75.5740  221.0740 N   0  0  0  0  0  0  0  0  0  0  0  0
  138.6490   76.1720  222.2220 C   0  0  0  0  0  0  0  0  0  0  0  0
  139.4160   77.3590  222.6630 C   0  0  0  0  0  0  0  0  0  0  0  0
  140.7880   77.2930  222.6370 C   0  0  0  0  0  0  0  0  0  0  0  0
  141.6060   78.3450  223.0280 C   0  0  0  0  0  0  0  0  0  0  0  0
  140.9880   79.5030  223.4590 C   0  0  0  0  0  0  0  0  0  0  0  0
  139.6160   79.5910  223.4930 C   0  0  0  0  0  0  0  0  0  0  0  0
  138.8140   78.5250  223.0980 C   0  0  0  0  0  0  0  0  0  0  0  0
  139.6620   73.5420  222.3520 N   0  0  0  0  0  0  0  0  0  0  0  0
  140.1440   72.2970  222.5100 C   0  0  0  0  0  0  0  0  0  0  0  0
  139.9650   71.5520  223.7100 N   0  0  0  0  0  0  0  0  0  0  0  0
  138.7450   70.8030  223.9450 C   0  0  0  0  0  0  0  0  0  0  0  0
  139.2080   69.5260  224.6570 C   0  0  0  0  0  0  0  0  0  0  0  0
  139.6550   70.0070  226.0030 C   0  0  0  0  0  0  0  0  0  0  0  0
  139.1720   69.4550  227.1710 C   0  0  0  0  0  0  0  0  0  0  0  0
  139.6470   69.9680  228.3570 C   0  0  0  0  0  0  0  0  0  0  0  0
  140.5720   70.9970  228.3720 C   0  0  0  0  0  0  0  0  0  0  0  0
  141.0590   71.5550  227.2070 C   0  0  0  0  0  0  0  0  0  0  0  0
  140.5820   71.0390  226.0030 C   0  0  0  0  0  0  0  0  0  0  0  0
  141.0390   71.5640  224.6860 C   0  0  0  0  0  0  0  0  0  0  0  0
  140.8150   71.7680  221.4760 N   0  0  0  0  0  0  0  0  0  0  0  0
  144.0840   71.2310  218.8300 C   0  0  0  0  0  0  0  0  0  0  0  0
  145.4360   71.8910  218.6620 C   0  0  0  0  0  0  0  0  0  0  0  0
  146.6600   73.8040  218.6600 H   0  0  0  0  0  0  0  0  0  0  0  0
  146.3290   74.5280  220.2220 H   0  0  0  0  0  0  0  0  0  0  0  0
  146.4059   71.8438  220.6177 H   0  0  0  0  0  0  0  0  0  0  0  0
  144.8157   73.6922  221.4345 H   0  0  0  0  0  0  0  0  0  0  0  0
  144.2239   71.9775  221.2213 H   0  0  0  0  0  0  0  0  0  0  0  0
  143.8065   74.2400  219.2388 H   0  0  0  0  0  0  0  0  0  0  0  0
  142.5935   73.6357  220.4404 H   0  0  0  0  0  0  0  0  0  0  0  0
  142.9133   72.6818  217.8303 H   0  0  0  0  0  0  0  0  0  0  0  0
  141.3680   70.9530  218.7980 H   0  0  0  0  0  0  0  0  0  0  0  0
  139.4210   76.0390  220.1580 H   0  0  0  0  0  0  0  0  0  0  0  0
  137.6290   76.4763  221.9446 H   0  0  0  0  0  0  0  0  0  0  0  0
  138.6019   75.4395  223.0413 H   0  0  0  0  0  0  0  0  0  0  0  0
  141.2612   76.3626  222.2899 H   0  0  0  0  0  0  0  0  0  0  0  0
  142.7022   78.2596  222.9958 H   0  0  0  0  0  0  0  0  0  0  0  0
  141.5980   80.3612  223.7774 H   0  0  0  0  0  0  0  0  0  0  0  0
  139.1436   80.5221  223.8391 H   0  0  0  0  0  0  0  0  0  0  0  0
  137.7177   78.6086  223.1313 H   0  0  0  0  0  0  0  0  0  0  0  0
  138.0546   71.3748  224.5825 H   0  0  0  0  0  0  0  0  0  0  0  0
  138.2007   70.5881  223.0136 H   0  0  0  0  0  0  0  0  0  0  0  0
  138.3794   68.8088  224.7528 H   0  0  0  0  0  0  0  0  0  0  0  0
  140.0028   68.9988  224.1090 H   0  0  0  0  0  0  0  0  0  0  0  0
  138.4364   68.6373  227.1556 H   0  0  0  0  0  0  0  0  0  0  0  0
  139.2850   69.5527  229.3091 H   0  0  0  0  0  0  0  0  0  0  0  0
  140.9292   71.3810  229.3389 H   0  0  0  0  0  0  0  0  0  0  0  0
  141.7936   72.3735  227.2279 H   0  0  0  0  0  0  0  0  0  0  0  0
  141.3931   72.5973  224.8159 H   0  0  0  0  0  0  0  0  0  0  0  0
  141.8490   70.9174  224.3176 H   0  0  0  0  0  0  0  0  0  0  0  0
  143.9006   70.5451  217.9898 H   0  0  0  0  0  0  0  0  0  0  0  0
  144.0610   70.6608  219.7704 H   0  0  0  0  0  0  0  0  0  0  0  0
  145.3780   72.6618  217.8794 H   0  0  0  0  0  0  0  0  0  0  0  0
  146.1869   71.1428  218.3683 H   0  0  0  0  0  0  0  0  0  0  0  0
  1  2  1  0
  2  3  1  0
  3  4  1  0
  4  5  1  0
  5  6  1  0
  6  7  1  0
  7  8  2  0
  8  9  1  0
  9 10  1  0
 10 11  1  0
 11 12  1  0
 12 13  2  0
 13 14  1  0
 14 15  2  0
 15 16  1  0
 16 17  2  0
  9 18  2  0
 18 19  1  0
 19 20  1  0
 20 21  1  0
 21 22  1  0
 22 23  1  0
 23 24  2  0
 24 25  1  0
 25 26  2  0
 26 27  1  0
 27 28  2  0
 28 29  1  0
 19 30  2  0
  5 31  1  0
 31 32  1  0
 32  2  1  0
 30  7  1  0
 17 12  1  0
 29 20  1  0
 28 23  1  0
  1 33  1  0
  1 34  1  0
  2 35  1  1
  3 36  1  0
  3 37  1  0
  4 38  1  0
  4 39  1  0
  5 40  1  6
  6 41  1  0
 10 42  1  0
 11 43  1  0
 11 44  1  0
 13 45  1  0
 14 46  1  0
 15 47  1  0
 16 48  1  0
 17 49  1  0
 21 50  1  0
 21 51  1  0
 22 52  1  0
 22 53  1  0
 24 54  1  0
 25 55  1  0
 26 56  1  0
 27 57  1  0
 29 58  1  0
 29 59  1  0
 31 60  1  0
 31 61  1  0
 32 62  1  0
 32 63  1  0
M  END
>  <smiles>  (65) 
NC1CCC(Nc2nc(NCc3ccccc3)nc(N3CCc4ccccc4C3)n2)CC1

>  <score_type>  (65) 
oracle

>  <origin>  (65) 
autodockgpu

>  <m_score__min__energy>  (65) 
-10.94

>  <m_primary>  (65) 
energy

>  <rmsd>  (65) 
4.005347116682614

>  <m_score__min__rmsd>  (65) 
4.005347116682614

>  <meeko>  (65) 
{"free_energy": -9.38, "intermolecular_energy": -11.46, "internal_energy": -1.08, "cluster_size": 32, "cluster_id": 1, "rank_in_cluster": 27}

>  <energy>  (65) 
-10.08

>  <cluster_rmsd>  (65) 
0.58

>  <cluster>  (65) 
1

$$$$

     RDKit          3D

 63 67  0  0  0  0  0  0  0  0999 V2000
  146.3120   73.2520  218.6410 N   0  0  0  0  0  0  0  0  0  0  0  0
  145.4660   72.9080  219.7780 C   0  0  1  0  0  0  0  0  0  0  0  0
  145.1470   74.0900  220.6340 C   0  0  0  0  0  0  0  0  0  0  0  0
  143.9750   74.9110  220.1190 C   0  0  0  0  0  0  0  0  0  0  0  0
  142.7040   74.1060  220.1050 C   0  0  2  0  0  0  0  0  0  0  0  0
  141.8520   74.5610  221.1830 N   0  0  0  0  0  0  0  0  0  0  0  0
  140.7540   73.7910  221.5960 C   0  0  0  0  0  0  0  0  0  0  0  0
  139.5750   73.7850  220.9540 N   0  0  0  0  0  0  0  0  0  0  0  0
  138.5250   73.0340  221.3700 C   0  0  0  0  0  0  0  0  0  0  0  0
  137.2710   73.0460  220.6620 N   0  0  0  0  0  0  0  0  0  0  0  0
  136.3110   74.0850  220.9830 C   0  0  0  0  0  0  0  0  0  0  0  0
  137.0320   75.3010  221.4240 C   0  0  0  0  0  0  0  0  0  0  0  0
  137.6040   76.1010  220.4640 C   0  0  0  0  0  0  0  0  0  0  0  0
  138.3020   77.2640  220.7630 C   0  0  0  0  0  0  0  0  0  0  0  0
  138.4130   77.6120  222.0950 C   0  0  0  0  0  0  0  0  0  0  0  0
  137.8480   76.8270  223.0720 C   0  0  0  0  0  0  0  0  0  0  0  0
  137.1520   75.6650  222.7520 C   0  0  0  0  0  0  0  0  0  0  0  0
  138.6910   72.2710  222.4710 N   0  0  0  0  0  0  0  0  0  0  0  0
  139.8480   72.2390  223.1540 C   0  0  0  0  0  0  0  0  0  0  0  0
  140.0310   71.4370  224.3160 N   0  0  0  0  0  0  0  0  0  0  0  0
  141.0580   71.7610  225.2890 C   0  0  0  0  0  0  0  0  0  0  0  0
  140.4210   71.4320  226.6450 C   0  0  0  0  0  0  0  0  0  0  0  0
  140.3210   69.9370  226.6420 C   0  0  0  0  0  0  0  0  0  0  0  0
  140.8370   69.1710  227.6650 C   0  0  0  0  0  0  0  0  0  0  0  0
  140.6930   67.8050  227.5680 C   0  0  0  0  0  0  0  0  0  0  0  0
  140.0560   67.2290  226.4840 C   0  0  0  0  0  0  0  0  0  0  0  0
  139.5380   67.9890  225.4550 C   0  0  0  0  0  0  0  0  0  0  0  0
  139.6800   69.3730  225.5480 C   0  0  0  0  0  0  0  0  0  0  0  0
  139.1600   70.2910  224.4960 C   0  0  0  0  0  0  0  0  0  0  0  0
  140.8490   73.0040  222.6920 N   0  0  0  0  0  0  0  0  0  0  0  0
  143.0620   72.6560  220.2320 C   0  0  0  0  0  0  0  0  0  0  0  0
  144.1640   72.3360  219.2460 C   0  0  0  0  0  0  0  0  0  0  0  0
  145.6800   73.2880  217.8100 H   0  0  0  0  0  0  0  0  0  0  0  0
  146.8360   74.1360  218.8200 H   0  0  0  0  0  0  0  0  0  0  0  0
  146.0131   72.1832  220.3987 H   0  0  0  0  0  0  0  0  0  0  0  0
  146.0344   74.7385  220.6775 H   0  0  0  0  0  0  0  0  0  0  0  0
  144.8633   73.7058  221.6249 H   0  0  0  0  0  0  0  0  0  0  0  0
  144.1965   75.2478  219.0955 H   0  0  0  0  0  0  0  0  0  0  0  0
  143.8328   75.7702  220.7909 H   0  0  0  0  0  0  0  0  0  0  0  0
  142.1490   74.2383  219.1645 H   0  0  0  0  0  0  0  0  0  0  0  0
  142.0730   75.4540  221.6330 H   0  0  0  0  0  0  0  0  0  0  0  0
  137.1180   72.3070  219.9550 H   0  0  0  0  0  0  0  0  0  0  0  0
  135.7100   74.3176  220.0915 H   0  0  0  0  0  0  0  0  0  0  0  0
  135.6489   73.7373  221.7897 H   0  0  0  0  0  0  0  0  0  0  0  0
  137.5043   75.8063  219.4089 H   0  0  0  0  0  0  0  0  0  0  0  0
  138.7484   77.8830  219.9708 H   0  0  0  0  0  0  0  0  0  0  0  0
  138.9581   78.5250  222.3765 H   0  0  0  0  0  0  0  0  0  0  0  0
  137.9479   77.1229  224.1267 H   0  0  0  0  0  0  0  0  0  0  0  0
  136.7044   75.0460  223.5435 H   0  0  0  0  0  0  0  0  0  0  0  0
  141.9572   71.1494  225.1234 H   0  0  0  0  0  0  0  0  0  0  0  0
  141.3806   72.8105  225.2224 H   0  0  0  0  0  0  0  0  0  0  0  0
  141.0579   71.7801  227.4715 H   0  0  0  0  0  0  0  0  0  0  0  0
  139.4466   71.9224  226.7865 H   0  0  0  0  0  0  0  0  0  0  0  0
  141.3439   69.6327  228.5251 H   0  0  0  0  0  0  0  0  0  0  0  0
  141.0913   67.1612  228.3660 H   0  0  0  0  0  0  0  0  0  0  0  0
  139.9595   66.1341  226.4407 H   0  0  0  0  0  0  0  0  0  0  0  0
  139.0336   67.5219  224.5963 H   0  0  0  0  0  0  0  0  0  0  0  0
  139.0893   69.7423  223.5452 H   0  0  0  0  0  0  0  0  0  0  0  0
  138.1708   70.6541  224.8115 H   0  0  0  0  0  0  0  0  0  0  0  0
  142.1794   72.0370  220.0132 H   0  0  0  0  0  0  0  0  0  0  0  0
  143.4044   72.4446  221.2557 H   0  0  0  0  0  0  0  0  0  0  0  0
  143.9316   72.7872  218.2701 H   0  0  0  0  0  0  0  0  0  0  0  0
  144.2536   71.2468  219.1207 H   0  0  0  0  0  0  0  0  0  0  0  0
  1  2  1  0
  2  3  1  0
  3  4  1  0
  4  5  1  0
  5  6  1  0
  6  7  1  0
  7  8  2  0
  8  9  1  0
  9 10  1  0
 10 11  1  0
 11 12  1  0
 12 13  2  0
 13 14  1  0
 14 15  2  0
 15 16  1  0
 16 17  2  0
  9 18  2  0
 18 19  1  0
 19 20  1  0
 20 21  1  0
 21 22  1  0
 22 23  1  0
 23 24  2  0
 24 25  1  0
 25 26  2  0
 26 27  1  0
 27 28  2  0
 28 29  1  0
 19 30  2  0
  5 31  1  0
 31 32  1  0
 32  2  1  0
 30  7  1  0
 17 12  1  0
 29 20  1  0
 28 23  1  0
  1 33  1  0
  1 34  1  0
  2 35  1  1
  3 36  1  0
  3 37  1  0
  4 38  1  0
  4 39  1  0
  5 40  1  6
  6 41  1  0
 10 42  1  0
 11 43  1  0
 11 44  1  0
 13 45  1  0
 14 46  1  0
 15 47  1  0
 16 48  1  0
 17 49  1  0
 21 50  1  0
 21 51  1  0
 22 52  1  0
 22 53  1  0
 24 54  1  0
 25 55  1  0
 26 56  1  0
 27 57  1  0
 29 58  1  0
 29 59  1  0
 31 60  1  0
 31 61  1  0
 32 62  1  0
 32 63  1  0
M  END
>  <smiles>  (66) 
NC1CCC(Nc2nc(NCc3ccccc3)nc(N3CCc4ccccc4C3)n2)CC1

>  <score_type>  (66) 
oracle

>  <origin>  (66) 
autodockgpu

>  <m_score__min__energy>  (66) 
-10.94

>  <m_primary>  (66) 
energy

>  <rmsd>  (66) 
2.3891712939474443

>  <m_score__min__rmsd>  (66) 
2.3891712939474443

>  <meeko>  (66) 
{"free_energy": -8.83, "intermolecular_energy": -10.92, "internal_energy": -1.41, "cluster_size": 11, "cluster_id": 2, "rank_in_cluster": 11}

>  <energy>  (66) 
-10.0

>  <cluster_rmsd>  (66) 
0.7

>  <cluster>  (66) 
1

$$$$

     RDKit          3D

 63 67  0  0  0  0  0  0  0  0999 V2000
  146.7180   73.6620  219.5110 N   0  0  0  0  0  0  0  0  0  0  0  0
  145.5700   73.1060  220.2180 C   0  0  1  0  0  0  0  0  0  0  0  0
  144.3380   73.9360  220.0540 C   0  0  0  0  0  0  0  0  0  0  0  0
  143.5790   73.6440  218.7690 C   0  0  0  0  0  0  0  0  0  0  0  0
  143.0810   72.2250  218.7340 C   0  0  2  0  0  0  0  0  0  0  0  0
  141.6490   72.2290  218.9430 N   0  0  0  0  0  0  0  0  0  0  0  0
  141.0980   72.8230  220.0880 C   0  0  0  0  0  0  0  0  0  0  0  0
  140.8280   74.1360  220.1810 N   0  0  0  0  0  0  0  0  0  0  0  0
  140.2960   74.6910  221.2980 C   0  0  0  0  0  0  0  0  0  0  0  0
  140.0150   76.1020  221.3700 N   0  0  0  0  0  0  0  0  0  0  0  0
  140.9380   77.0190  220.7270 C   0  0  0  0  0  0  0  0  0  0  0  0
  141.3710   78.0450  221.7020 C   0  0  0  0  0  0  0  0  0  0  0  0
  141.7650   79.2710  221.2230 C   0  0  0  0  0  0  0  0  0  0  0  0
  142.1900   80.3060  222.0460 C   0  0  0  0  0  0  0  0  0  0  0  0
  142.2070   80.0680  223.4070 C   0  0  0  0  0  0  0  0  0  0  0  0
  141.8170   78.8490  223.9080 C   0  0  0  0  0  0  0  0  0  0  0  0
  141.3960   77.8240  223.0660 C   0  0  0  0  0  0  0  0  0  0  0  0
  140.0360   73.8800  222.3450 N   0  0  0  0  0  0  0  0  0  0  0  0
  140.2870   72.5590  222.3090 C   0  0  0  0  0  0  0  0  0  0  0  0
  140.0160   71.6970  223.4090 N   0  0  0  0  0  0  0  0  0  0  0  0
  138.7430   71.0100  223.5180 C   0  0  0  0  0  0  0  0  0  0  0  0
  139.0970   69.6320  224.0920 C   0  0  0  0  0  0  0  0  0  0  0  0
  139.5220   69.9260  225.4980 C   0  0  0  0  0  0  0  0  0  0  0  0
  138.9610   69.2800  226.5780 C   0  0  0  0  0  0  0  0  0  0  0  0
  139.4210   69.6220  227.8300 C   0  0  0  0  0  0  0  0  0  0  0  0
  140.4080   70.5780  227.9910 C   0  0  0  0  0  0  0  0  0  0  0  0
  140.9740   71.2300  226.9150 C   0  0  0  0  0  0  0  0  0  0  0  0
  140.5120   70.8880  225.6450 C   0  0  0  0  0  0  0  0  0  0  0  0
  141.0510   71.5260  224.4120 C   0  0  0  0  0  0  0  0  0  0  0  0
  140.8140   72.0700  221.1760 N   0  0  0  0  0  0  0  0  0  0  0  0
  143.8100   71.4430  219.7840 C   0  0  0  0  0  0  0  0  0  0  0  0
  145.2930   71.7210  219.6610 C   0  0  0  0  0  0  0  0  0  0  0  0
  146.4040   73.8200  218.5270 H   0  0  0  0  0  0  0  0  0  0  0  0
  147.0720   74.5180  219.9900 H   0  0  0  0  0  0  0  0  0  0  0  0
  145.8149   73.0788  221.2900 H   0  0  0  0  0  0  0  0  0  0  0  0
  144.6298   74.9966  220.0532 H   0  0  0  0  0  0  0  0  0  0  0  0
  143.6671   73.6897  220.8902 H   0  0  0  0  0  0  0  0  0  0  0  0
  144.2492   73.8090  217.9125 H   0  0  0  0  0  0  0  0  0  0  0  0
  142.7098   74.3164  218.7208 H   0  0  0  0  0  0  0  0  0  0  0  0
  143.2737   71.7496  217.7609 H   0  0  0  0  0  0  0  0  0  0  0  0
  141.0540   71.7890  218.2360 H   0  0  0  0  0  0  0  0  0  0  0  0
  139.1630   76.3910  221.8780 H   0  0  0  0  0  0  0  0  0  0  0  0
  141.8155   76.4630  220.3653 H   0  0  0  0  0  0  0  0  0  0  0  0
  140.4386   77.5073  219.8772 H   0  0  0  0  0  0  0  0  0  0  0  0
  141.7428   79.4409  220.1364 H   0  0  0  0  0  0  0  0  0  0  0  0
  142.5006   81.2762  221.6310 H   0  0  0  0  0  0  0  0  0  0  0  0
  142.5354   80.8608  224.0953 H   0  0  0  0  0  0  0  0  0  0  0  0
  141.8380   78.6804  224.9948 H   0  0  0  0  0  0  0  0  0  0  0  0
  141.0878   76.8526  223.4799 H   0  0  0  0  0  0  0  0  0  0  0  0
  138.0661   71.5511  224.1956 H   0  0  0  0  0  0  0  0  0  0  0  0
  138.2223   70.9390  222.5516 H   0  0  0  0  0  0  0  0  0  0  0  0
  138.2217   68.9659  224.0789 H   0  0  0  0  0  0  0  0  0  0  0  0
  139.8774   69.1183  223.5115 H   0  0  0  0  0  0  0  0  0  0  0  0
  138.1763   68.5207  226.4452 H   0  0  0  0  0  0  0  0  0  0  0  0
  138.9970   69.1272  228.7162 H   0  0  0  0  0  0  0  0  0  0  0  0
  140.7514   70.8254  229.0063 H   0  0  0  0  0  0  0  0  0  0  0  0
  141.7581   71.9890  227.0536 H   0  0  0  0  0  0  0  0  0  0  0  0
  141.4651   72.5117  224.6707 H   0  0  0  0  0  0  0  0  0  0  0  0
  141.8315   70.8718  223.9963 H   0  0  0  0  0  0  0  0  0  0  0  0
  143.6226   70.3686  219.6409 H   0  0  0  0  0  0  0  0  0  0  0  0
  143.4566   71.7400  220.7825 H   0  0  0  0  0  0  0  0  0  0  0  0
  145.5920   71.6796  218.6032 H   0  0  0  0  0  0  0  0  0  0  0  0
  145.8660   70.9674  220.2211 H   0  0  0  0  0  0  0  0  0  0  0  0
  1  2  1  0
  2  3  1  0
  3  4  1  0
  4  5  1  0
  5  6  1  0
  6  7  1  0
  7  8  2  0
  8  9  1  0
  9 10  1  0
 10 11  1  0
 11 12  1  0
 12 13  2  0
 13 14  1  0
 14 15  2  0
 15 16  1  0
 16 17  2  0
  9 18  2  0
 18 19  1  0
 19 20  1  0
 20 21  1  0
 21 22  1  0
 22 23  1  0
 23 24  2  0
 24 25  1  0
 25 26  2  0
 26 27  1  0
 27 28  2  0
 28 29  1  0
 19 30  2  0
  5 31  1  0
 31 32  1  0
 32  2  1  0
 30  7  1  0
 17 12  1  0
 29 20  1  0
 28 23  1  0
  1 33  1  0
  1 34  1  0
  2 35  1  1
  3 36  1  0
  3 37  1  0
  4 38  1  0
  4 39  1  0
  5 40  1  6
  6 41  1  0
 10 42  1  0
 11 43  1  0
 11 44  1  0
 13 45  1  0
 14 46  1  0
 15 47  1  0
 16 48  1  0
 17 49  1  0
 21 50  1  0
 21 51  1  0
 22 52  1  0
 22 53  1  0
 24 54  1  0
 25 55  1  0
 26 56  1  0
 27 57  1  0
 29 58  1  0
 29 59  1  0
 31 60  1  0
 31 61  1  0
 32 62  1  0
 32 63  1  0
M  END
>  <smiles>  (67) 
NC1CCC(Nc2nc(NCc3ccccc3)nc(N3CCc4ccccc4C3)n2)CC1

>  <score_type>  (67) 
oracle

>  <origin>  (67) 
autodockgpu

>  <m_score__min__energy>  (67) 
-10.94

>  <m_primary>  (67) 
energy

>  <rmsd>  (67) 
3.893369804894099

>  <m_score__min__rmsd>  (67) 
3.893369804894099

>  <meeko>  (67) 
{"free_energy": -9.97, "intermolecular_energy": -12.05, "internal_energy": -1.21, "cluster_size": 32, "cluster_id": 1, "rank_in_cluster": 18}

>  <energy>  (67) 
-9.98

>  <cluster_rmsd>  (67) 
1.09

>  <cluster>  (67) 
1

$$$$

     RDKit          3D

 63 67  0  0  0  0  0  0  0  0999 V2000
  146.7460   73.6600  219.3620 N   0  0  0  0  0  0  0  0  0  0  0  0
  145.6600   73.0980  220.1580 C   0  0  1  0  0  0  0  0  0  0  0  0
  144.3800   73.8510  219.9930 C   0  0  0  0  0  0  0  0  0  0  0  0
  143.5850   73.4310  218.7660 C   0  0  0  0  0  0  0  0  0  0  0  0
  143.1630   71.9900  218.8520 C   0  0  2  0  0  0  0  0  0  0  0  0
  141.7420   71.9360  219.1250 N   0  0  0  0  0  0  0  0  0  0  0  0
  141.2050   72.6040  220.2350 C   0  0  0  0  0  0  0  0  0  0  0  0
  140.5350   71.9800  221.2190 N   0  0  0  0  0  0  0  0  0  0  0  0
  140.0230   72.6450  222.2840 C   0  0  0  0  0  0  0  0  0  0  0  0
  139.3100   71.9510  223.3250 N   0  0  0  0  0  0  0  0  0  0  0  0
  139.8550   70.6970  223.8120 C   0  0  0  0  0  0  0  0  0  0  0  0
  140.1250   70.8080  225.2630 C   0  0  0  0  0  0  0  0  0  0  0  0
  140.8830   71.8670  225.7040 C   0  0  0  0  0  0  0  0  0  0  0  0
  141.1970   72.0690  227.0420 C   0  0  0  0  0  0  0  0  0  0  0  0
  140.7140   71.1500  227.9530 C   0  0  0  0  0  0  0  0  0  0  0  0
  139.9540   70.0840  227.5340 C   0  0  0  0  0  0  0  0  0  0  0  0
  139.6500   69.8980  226.1890 C   0  0  0  0  0  0  0  0  0  0  0  0
  140.2030   73.9820  222.3410 N   0  0  0  0  0  0  0  0  0  0  0  0
  140.8630   74.6580  221.3850 C   0  0  0  0  0  0  0  0  0  0  0  0
  141.0570   76.0670  221.4380 N   0  0  0  0  0  0  0  0  0  0  0  0
  141.6290   76.7820  220.3130 C   0  0  0  0  0  0  0  0  0  0  0  0
  140.8640   78.1110  220.2720 C   0  0  0  0  0  0  0  0  0  0  0  0
  141.3370   78.8350  221.4950 C   0  0  0  0  0  0  0  0  0  0  0  0
  141.8480   80.1140  221.4320 C   0  0  0  0  0  0  0  0  0  0  0  0
  142.2550   80.6920  222.6140 C   0  0  0  0  0  0  0  0  0  0  0  0
  142.1540   80.0120  223.8140 C   0  0  0  0  0  0  0  0  0  0  0  0
  141.6440   78.7310  223.8850 C   0  0  0  0  0  0  0  0  0  0  0  0
  141.2300   78.1410  222.6920 C   0  0  0  0  0  0  0  0  0  0  0  0
  140.6640   76.7640  222.6490 C   0  0  0  0  0  0  0  0  0  0  0  0
  141.3460   73.9440  220.3570 N   0  0  0  0  0  0  0  0  0  0  0  0
  143.9750   71.3220  219.9190 C   0  0  0  0  0  0  0  0  0  0  0  0
  145.4340   71.6650  219.7100 C   0  0  0  0  0  0  0  0  0  0  0  0
  146.3510   73.8290  218.4110 H   0  0  0  0  0  0  0  0  0  0  0  0
  147.1430   74.5090  219.8200 H   0  0  0  0  0  0  0  0  0  0  0  0
  145.9509   73.1589  221.2171 H   0  0  0  0  0  0  0  0  0  0  0  0
  144.6145   74.9222  219.9065 H   0  0  0  0  0  0  0  0  0  0  0  0
  143.7583   73.6308  220.8733 H   0  0  0  0  0  0  0  0  0  0  0  0
  144.2094   73.5682  217.8709 H   0  0  0  0  0  0  0  0  0  0  0  0
  142.6801   74.0539  218.7101 H   0  0  0  0  0  0  0  0  0  0  0  0
  143.3409   71.4575  217.9061 H   0  0  0  0  0  0  0  0  0  0  0  0
  141.1450   71.4010  218.4880 H   0  0  0  0  0  0  0  0  0  0  0  0
  138.4390   72.3850  223.6760 H   0  0  0  0  0  0  0  0  0  0  0  0
  139.1305   69.8886  223.6344 H   0  0  0  0  0  0  0  0  0  0  0  0
  140.7915   70.4727  223.2804 H   0  0  0  0  0  0  0  0  0  0  0  0
  141.2583   72.5879  224.9627 H   0  0  0  0  0  0  0  0  0  0  0  0
  141.8061   72.9268  227.3633 H   0  0  0  0  0  0  0  0  0  0  0  0
  140.9394   71.2722  229.0227 H   0  0  0  0  0  0  0  0  0  0  0  0
  139.5789   69.3641  228.2763 H   0  0  0  0  0  0  0  0  0  0  0  0
  139.0411   69.0402  225.8675 H   0  0  0  0  0  0  0  0  0  0  0  0
  142.7037   76.9569  220.4695 H   0  0  0  0  0  0  0  0  0  0  0  0
  141.5403   76.2196  219.3718 H   0  0  0  0  0  0  0  0  0  0  0  0
  141.1109   78.6771  219.3617 H   0  0  0  0  0  0  0  0  0  0  0  0
  139.7728   77.9728  220.2555 H   0  0  0  0  0  0  0  0  0  0  0  0
  141.9275   80.6515  220.4756 H   0  0  0  0  0  0  0  0  0  0  0  0
  142.6674   81.7117  222.6034 H   0  0  0  0  0  0  0  0  0  0  0  0
  142.4895   80.5057  224.7380 H   0  0  0  0  0  0  0  0  0  0  0  0
  141.5675   78.1977  224.8440 H   0  0  0  0  0  0  0  0  0  0  0  0
  141.0280   76.2001  223.5205 H   0  0  0  0  0  0  0  0  0  0  0  0
  139.5667   76.8403  222.6637 H   0  0  0  0  0  0  0  0  0  0  0  0
  143.8394   70.2321  219.8586 H   0  0  0  0  0  0  0  0  0  0  0  0
  143.6480   71.6703  220.9098 H   0  0  0  0  0  0  0  0  0  0  0  0
  145.6902   71.5642  218.6450 H   0  0  0  0  0  0  0  0  0  0  0  0
  146.0694   70.9826  220.2937 H   0  0  0  0  0  0  0  0  0  0  0  0
  1  2  1  0
  2  3  1  0
  3  4  1  0
  4  5  1  0
  5  6  1  0
  6  7  1  0
  7  8  2  0
  8  9  1  0
  9 10  1  0
 10 11  1  0
 11 12  1  0
 12 13  2  0
 13 14  1  0
 14 15  2  0
 15 16  1  0
 16 17  2  0
  9 18  2  0
 18 19  1  0
 19 20  1  0
 20 21  1  0
 21 22  1  0
 22 23  1  0
 23 24  2  0
 24 25  1  0
 25 26  2  0
 26 27  1  0
 27 28  2  0
 28 29  1  0
 19 30  2  0
  5 31  1  0
 31 32  1  0
 32  2  1  0
 30  7  1  0
 17 12  1  0
 29 20  1  0
 28 23  1  0
  1 33  1  0
  1 34  1  0
  2 35  1  1
  3 36  1  0
  3 37  1  0
  4 38  1  0
  4 39  1  0
  5 40  1  6
  6 41  1  0
 10 42  1  0
 11 43  1  0
 11 44  1  0
 13 45  1  0
 14 46  1  0
 15 47  1  0
 16 48  1  0
 17 49  1  0
 21 50  1  0
 21 51  1  0
 22 52  1  0
 22 53  1  0
 24 54  1  0
 25 55  1  0
 26 56  1  0
 27 57  1  0
 29 58  1  0
 29 59  1  0
 31 60  1  0
 31 61  1  0
 32 62  1  0
 32 63  1  0
M  END
>  <smiles>  (68) 
NC1CCC(Nc2nc(NCc3ccccc3)nc(N3CCc4ccccc4C3)n2)CC1

>  <score_type>  (68) 
oracle

>  <origin>  (68) 
autodockgpu

>  <m_score__min__energy>  (68) 
-10.94

>  <m_primary>  (68) 
energy

>  <rmsd>  (68) 
10.30900787772058

>  <m_score__min__rmsd>  (68) 
10.30900787772058

>  <meeko>  (68) 
{"free_energy": -10.94, "intermolecular_energy": -13.02, "internal_energy": -1.13, "cluster_size": 32, "cluster_id": 1, "rank_in_cluster": 1}

>  <energy>  (68) 
-9.97

>  <cluster_rmsd>  (68) 
0.99

>  <cluster>  (68) 
1

$$$$

     RDKit          3D

 63 67  0  0  0  0  0  0  0  0999 V2000
  146.6930   73.6950  219.6140 N   0  0  0  0  0  0  0  0  0  0  0  0
  145.3930   73.2630  220.1170 C   0  0  1  0  0  0  0  0  0  0  0  0
  144.4140   74.3870  220.2140 C   0  0  0  0  0  0  0  0  0  0  0  0
  143.7090   74.6900  218.9000 C   0  0  0  0  0  0  0  0  0  0  0  0
  142.8900   73.5180  218.4330 C   0  0  2  0  0  0  0  0  0  0  0  0
  141.4880   73.8210  218.6310 N   0  0  0  0  0  0  0  0  0  0  0  0
  141.0060   74.1560  219.9050 C   0  0  0  0  0  0  0  0  0  0  0  0
  140.5890   73.2450  220.8000 N   0  0  0  0  0  0  0  0  0  0  0  0
  140.1250   73.5910  222.0270 C   0  0  0  0  0  0  0  0  0  0  0  0
  139.6850   72.5930  222.9670 N   0  0  0  0  0  0  0  0  0  0  0  0
  140.5960   71.5140  223.2990 C   0  0  0  0  0  0  0  0  0  0  0  0
  140.4380   71.1580  224.7270 C   0  0  0  0  0  0  0  0  0  0  0  0
  139.6570   70.0730  225.0450 C   0  0  0  0  0  0  0  0  0  0  0  0
  139.4410   69.6500  226.3500 C   0  0  0  0  0  0  0  0  0  0  0  0
  140.0500   70.3700  227.3590 C   0  0  0  0  0  0  0  0  0  0  0  0
  140.8360   71.4590  227.0640 C   0  0  0  0  0  0  0  0  0  0  0  0
  141.0400   71.8670  225.7500 C   0  0  0  0  0  0  0  0  0  0  0  0
  140.0900   74.9030  222.3430 N   0  0  0  0  0  0  0  0  0  0  0  0
  140.4940   75.8580  221.4870 C   0  0  0  0  0  0  0  0  0  0  0  0
  140.4610   77.2430  221.8120 N   0  0  0  0  0  0  0  0  0  0  0  0
  139.3170   77.8200  222.4930 C   0  0  0  0  0  0  0  0  0  0  0  0
  139.9210   78.8520  223.4540 C   0  0  0  0  0  0  0  0  0  0  0  0
  140.4370   79.9270  222.5470 C   0  0  0  0  0  0  0  0  0  0  0  0
  140.0860   81.2500  222.7120 C   0  0  0  0  0  0  0  0  0  0  0  0
  140.6160   82.1610  221.8250 C   0  0  0  0  0  0  0  0  0  0  0  0
  141.4660   81.7600  220.8110 C   0  0  0  0  0  0  0  0  0  0  0  0
  141.8220   80.4370  220.6390 C   0  0  0  0  0  0  0  0  0  0  0  0
  141.2890   79.5110  221.5340 C   0  0  0  0  0  0  0  0  0  0  0  0
  141.6050   78.0570  221.4440 C   0  0  0  0  0  0  0  0  0  0  0  0
  140.9420   75.4520  220.2890 N   0  0  0  0  0  0  0  0  0  0  0  0
  143.3250   72.3030  219.1940 C   0  0  0  0  0  0  0  0  0  0  0  0
  144.8360   72.2220  219.1630 C   0  0  0  0  0  0  0  0  0  0  0  0
  146.5800   73.8150  218.5830 H   0  0  0  0  0  0  0  0  0  0  0  0
  147.0190   74.5520  220.1120 H   0  0  0  0  0  0  0  0  0  0  0  0
  145.5396   72.8587  221.1294 H   0  0  0  0  0  0  0  0  0  0  0  0
  144.9515   75.2905  220.5376 H   0  0  0  0  0  0  0  0  0  0  0  0
  143.6406   74.0825  220.9346 H   0  0  0  0  0  0  0  0  0  0  0  0
  144.4636   74.9266  218.1354 H   0  0  0  0  0  0  0  0  0  0  0  0
  143.0330   75.5431  219.0588 H   0  0  0  0  0  0  0  0  0  0  0  0
  143.0396   73.3189  217.3616 H   0  0  0  0  0  0  0  0  0  0  0  0
  140.8640   73.7850  217.8210 H   0  0  0  0  0  0  0  0  0  0  0  0
  138.7350   72.6980  223.3610 H   0  0  0  0  0  0  0  0  0  0  0  0
  140.3689   70.6370  222.6750 H   0  0  0  0  0  0  0  0  0  0  0  0
  141.6310   71.8372  223.1136 H   0  0  0  0  0  0  0  0  0  0  0  0
  139.1803   69.5129  224.2270 H   0  0  0  0  0  0  0  0  0  0  0  0
  138.8101   68.7765  226.5712 H   0  0  0  0  0  0  0  0  0  0  0  0
  139.9051   70.0698  228.4073 H   0  0  0  0  0  0  0  0  0  0  0  0
  141.3125   72.0181  227.8827 H   0  0  0  0  0  0  0  0  0  0  0  0
  141.6707   72.7405  225.5281 H   0  0  0  0  0  0  0  0  0  0  0  0
  138.6417   78.3070  221.7741 H   0  0  0  0  0  0  0  0  0  0  0  0
  138.7168   77.0619  223.0174 H   0  0  0  0  0  0  0  0  0  0  0  0
  139.1539   79.2490  224.1352 H   0  0  0  0  0  0  0  0  0  0  0  0
  140.7051   78.4260  224.0973 H   0  0  0  0  0  0  0  0  0  0  0  0
  139.4095   81.5656  223.5200 H   0  0  0  0  0  0  0  0  0  0  0  0
  140.3585   83.2257  221.9252 H   0  0  0  0  0  0  0  0  0  0  0  0
  141.8701   82.5162  220.1219 H   0  0  0  0  0  0  0  0  0  0  0  0
  142.4984   80.1267  219.8290 H   0  0  0  0  0  0  0  0  0  0  0  0
  141.8973   77.8175  220.4109 H   0  0  0  0  0  0  0  0  0  0  0  0
  142.4257   77.8370  222.1426 H   0  0  0  0  0  0  0  0  0  0  0  0
  142.8970   71.4027  218.7288 H   0  0  0  0  0  0  0  0  0  0  0  0
  142.9760   72.3697  220.2350 H   0  0  0  0  0  0  0  0  0  0  0  0
  145.1976   72.4216  218.1435 H   0  0  0  0  0  0  0  0  0  0  0  0
  145.1662   71.2175  219.4661 H   0  0  0  0  0  0  0  0  0  0  0  0
  1  2  1  0
  2  3  1  0
  3  4  1  0
  4  5  1  0
  5  6  1  0
  6  7  1  0
  7  8  2  0
  8  9  1  0
  9 10  1  0
 10 11  1  0
 11 12  1  0
 12 13  2  0
 13 14  1  0
 14 15  2  0
 15 16  1  0
 16 17  2  0
  9 18  2  0
 18 19  1  0
 19 20  1  0
 20 21  1  0
 21 22  1  0
 22 23  1  0
 23 24  2  0
 24 25  1  0
 25 26  2  0
 26 27  1  0
 27 28  2  0
 28 29  1  0
 19 30  2  0
  5 31  1  0
 31 32  1  0
 32  2  1  0
 30  7  1  0
 17 12  1  0
 29 20  1  0
 28 23  1  0
  1 33  1  0
  1 34  1  0
  2 35  1  1
  3 36  1  0
  3 37  1  0
  4 38  1  0
  4 39  1  0
  5 40  1  6
  6 41  1  0
 10 42  1  0
 11 43  1  0
 11 44  1  0
 13 45  1  0
 14 46  1  0
 15 47  1  0
 16 48  1  0
 17 49  1  0
 21 50  1  0
 21 51  1  0
 22 52  1  0
 22 53  1  0
 24 54  1  0
 25 55  1  0
 26 56  1  0
 27 57  1  0
 29 58  1  0
 29 59  1  0
 31 60  1  0
 31 61  1  0
 32 62  1  0
 32 63  1  0
M  END
>  <smiles>  (69) 
NC1CCC(Nc2nc(NCc3ccccc3)nc(N3CCc4ccccc4C3)n2)CC1

>  <score_type>  (69) 
oracle

>  <origin>  (69) 
autodockgpu

>  <m_score__min__energy>  (69) 
-10.94

>  <m_primary>  (69) 
energy

>  <rmsd>  (69) 
10.993693650284728

>  <m_score__min__rmsd>  (69) 
10.993693650284728

>  <meeko>  (69) 
{"free_energy": -9.44, "intermolecular_energy": -11.53, "internal_energy": -1.18, "cluster_size": 32, "cluster_id": 1, "rank_in_cluster": 26}

>  <energy>  (69) 
-9.93

>  <cluster_rmsd>  (69) 
0.8

>  <cluster>  (69) 
1

$$$$

     RDKit          3D

 63 67  0  0  0  0  0  0  0  0999 V2000
  141.0590   68.0350  227.4990 N   0  0  0  0  0  0  0  0  0  0  0  0
  139.9550   68.8870  227.0730 C   0  0  1  0  0  0  0  0  0  0  0  0
  140.3700   70.3090  226.8770 C   0  0  0  0  0  0  0  0  0  0  0  0
  140.9890   70.5760  225.5140 C   0  0  0  0  0  0  0  0  0  0  0  0
  140.0080   70.3170  224.4040 C   0  0  2  0  0  0  0  0  0  0  0  0
  139.5780   71.5860  223.8570 N   0  0  0  0  0  0  0  0  0  0  0  0
  140.1320   72.0700  222.6630 C   0  0  0  0  0  0  0  0  0  0  0  0
  140.4840   71.2770  221.6370 N   0  0  0  0  0  0  0  0  0  0  0  0
  141.0200   71.7660  220.4910 C   0  0  0  0  0  0  0  0  0  0  0  0
  141.3870   70.8930  219.4070 N   0  0  0  0  0  0  0  0  0  0  0  0
  142.7980   70.6500  219.1690 C   0  0  0  0  0  0  0  0  0  0  0  0
  143.5800   71.8320  219.5980 C   0  0  0  0  0  0  0  0  0  0  0  0
  143.6840   72.8930  218.7300 C   0  0  0  0  0  0  0  0  0  0  0  0
  144.3910   74.0500  219.0290 C   0  0  0  0  0  0  0  0  0  0  0  0
  145.0090   74.1160  220.2620 C   0  0  0  0  0  0  0  0  0  0  0  0
  144.9180   73.0670  221.1450 C   0  0  0  0  0  0  0  0  0  0  0  0
  144.2050   71.9150  220.8280 C   0  0  0  0  0  0  0  0  0  0  0  0
  141.1980   73.1010  220.3960 N   0  0  0  0  0  0  0  0  0  0  0  0
  140.8660   73.9420  221.3910 C   0  0  0  0  0  0  0  0  0  0  0  0
  141.0500   75.3500  221.2980 N   0  0  0  0  0  0  0  0  0  0  0  0
  141.7760   75.9340  220.1860 C   0  0  0  0  0  0  0  0  0  0  0  0
  141.0250   77.2350  219.8760 C   0  0  0  0  0  0  0  0  0  0  0  0
  141.3200   78.1090  221.0560 C   0  0  0  0  0  0  0  0  0  0  0  0
  141.8350   79.3800  220.9100 C   0  0  0  0  0  0  0  0  0  0  0  0
  142.0700   80.1030  222.0580 C   0  0  0  0  0  0  0  0  0  0  0  0
  141.7990   79.5710  223.3060 C   0  0  0  0  0  0  0  0  0  0  0  0
  141.2840   78.3000  223.4600 C   0  0  0  0  0  0  0  0  0  0  0  0
  141.0440   77.5630  222.3010 C   0  0  0  0  0  0  0  0  0  0  0  0
  140.4890   76.1810  222.3470 C   0  0  0  0  0  0  0  0  0  0  0  0
  140.3400   73.3970  222.4990 N   0  0  0  0  0  0  0  0  0  0  0  0
  138.8680   69.5170  224.9580 C   0  0  0  0  0  0  0  0  0  0  0  0
  139.4260   68.3560  225.7530 C   0  0  0  0  0  0  0  0  0  0  0  0
  140.6610   67.0750  227.6050 H   0  0  0  0  0  0  0  0  0  0  0  0
  141.8570   68.0970  226.8310 H   0  0  0  0  0  0  0  0  0  0  0  0
  139.1898   68.8674  227.8630 H   0  0  0  0  0  0  0  0  0  0  0  0
  141.1076   70.5667  227.6513 H   0  0  0  0  0  0  0  0  0  0  0  0
  139.4611   70.9247  226.9466 H   0  0  0  0  0  0  0  0  0  0  0  0
  141.8605   69.9179  225.3819 H   0  0  0  0  0  0  0  0  0  0  0  0
  141.2877   71.6338  225.4714 H   0  0  0  0  0  0  0  0  0  0  0  0
  140.4625   69.7392  223.5858 H   0  0  0  0  0  0  0  0  0  0  0  0
  138.8610   72.1150  224.3620 H   0  0  0  0  0  0  0  0  0  0  0  0
  140.6210   70.4790  218.8490 H   0  0  0  0  0  0  0  0  0  0  0  0
  143.1205   69.7687  219.7428 H   0  0  0  0  0  0  0  0  0  0  0  0
  142.9639   70.4692  218.0967 H   0  0  0  0  0  0  0  0  0  0  0  0
  143.1837   72.8220  217.7529 H   0  0  0  0  0  0  0  0  0  0  0  0
  144.4562   74.8814  218.3117 H   0  0  0  0  0  0  0  0  0  0  0  0
  145.5786   75.0152  220.5396 H   0  0  0  0  0  0  0  0  0  0  0  0
  145.4187   73.1395  222.1217 H   0  0  0  0  0  0  0  0  0  0  0  0
  144.1398   71.0834  221.5450 H   0  0  0  0  0  0  0  0  0  0  0  0
  142.8176   76.1448  220.4698 H   0  0  0  0  0  0  0  0  0  0  0  0
  141.8215   75.2608  219.3172 H   0  0  0  0  0  0  0  0  0  0  0  0
  141.3987   77.6913  218.9475 H   0  0  0  0  0  0  0  0  0  0  0  0
  139.9472   77.0773  219.7229 H   0  0  0  0  0  0  0  0  0  0  0  0
  142.0495   79.7995  219.9160 H   0  0  0  0  0  0  0  0  0  0  0  0
  142.4802   81.1208  221.9815 H   0  0  0  0  0  0  0  0  0  0  0  0
  141.9997   80.1783  224.2009 H   0  0  0  0  0  0  0  0  0  0  0  0
  141.0715   77.8853  224.4564 H   0  0  0  0  0  0  0  0  0  0  0  0
  140.7251   75.7328  223.3234 H   0  0  0  0  0  0  0  0  0  0  0  0
  139.4008   76.2398  222.1974 H   0  0  0  0  0  0  0  0  0  0  0  0
  138.2486   69.1359  224.1327 H   0  0  0  0  0  0  0  0  0  0  0  0
  138.2484   70.1514  225.6088 H   0  0  0  0  0  0  0  0  0  0  0  0
  140.2425   67.8794  225.1907 H   0  0  0  0  0  0  0  0  0  0  0  0
  138.6381   67.6102  225.9350 H   0  0  0  0  0  0  0  0  0  0  0  0
  1  2  1  0
  2  3  1  0
  3  4  1  0
  4  5  1  0
  5  6  1  0
  6  7  1  0
  7  8  2  0
  8  9  1  0
  9 10  1  0
 10 11  1  0
 11 12  1  0
 12 13  2  0
 13 14  1  0
 14 15  2  0
 15 16  1  0
 16 17  2  0
  9 18  2  0
 18 19  1  0
 19 20  1  0
 20 21  1  0
 21 22  1  0
 22 23  1  0
 23 24  2  0
 24 25  1  0
 25 26  2  0
 26 27  1  0
 27 28  2  0
 28 29  1  0
 19 30  2  0
  5 31  1  0
 31 32  1  0
 32  2  1  0
 30  7  1  0
 17 12  1  0
 29 20  1  0
 28 23  1  0
  1 33  1  0
  1 34  1  0
  2 35  1  1
  3 36  1  0
  3 37  1  0
  4 38  1  0
  4 39  1  0
  5 40  1  6
  6 41  1  0
 10 42  1  0
 11 43  1  0
 11 44  1  0
 13 45  1  0
 14 46  1  0
 15 47  1  0
 16 48  1  0
 17 49  1  0
 21 50  1  0
 21 51  1  0
 22 52  1  0
 22 53  1  0
 24 54  1  0
 25 55  1  0
 26 56  1  0
 27 57  1  0
 29 58  1  0
 29 59  1  0
 31 60  1  0
 31 61  1  0
 32 62  1  0
 32 63  1  0
M  END
>  <smiles>  (70) 
NC1CCC(Nc2nc(NCc3ccccc3)nc(N3CCc4ccccc4C3)n2)CC1

>  <score_type>  (70) 
oracle

>  <origin>  (70) 
autodockgpu

>  <m_score__min__energy>  (70) 
-10.94

>  <m_primary>  (70) 
energy

>  <rmsd>  (70) 
9.896314328590556

>  <m_score__min__rmsd>  (70) 
9.896314328590556

>  <meeko>  (70) 
{"free_energy": -9.03, "intermolecular_energy": -11.11, "internal_energy": -1.48, "cluster_size": 4, "cluster_id": 3, "rank_in_cluster": 3}

>  <energy>  (70) 
-9.91

>  <cluster_rmsd>  (70) 
1.21

>  <cluster>  (70) 
1

$$$$

     RDKit          3D

 63 67  0  0  0  0  0  0  0  0999 V2000
  140.7490   68.1330  226.8020 N   0  0  0  0  0  0  0  0  0  0  0  0
  139.6860   69.0430  226.3900 C   0  0  1  0  0  0  0  0  0  0  0  0
  140.1360   70.4660  226.3410 C   0  0  0  0  0  0  0  0  0  0  0  0
  140.8380   70.8340  225.0430 C   0  0  0  0  0  0  0  0  0  0  0  0
  139.9180   70.6920  223.8620 C   0  0  2  0  0  0  0  0  0  0  0  0
  139.5420   72.0130  223.4030 N   0  0  0  0  0  0  0  0  0  0  0  0
  140.2450   72.6300  222.3570 C   0  0  0  0  0  0  0  0  0  0  0  0
  140.7980   71.9510  221.3390 N   0  0  0  0  0  0  0  0  0  0  0  0
  141.4750   72.5670  220.3380 C   0  0  0  0  0  0  0  0  0  0  0  0
  142.0580   71.8140  219.2570 N   0  0  0  0  0  0  0  0  0  0  0  0
  143.0840   72.4510  218.4530 C   0  0  0  0  0  0  0  0  0  0  0  0
  144.1930   72.8930  219.3290 C   0  0  0  0  0  0  0  0  0  0  0  0
  145.1800   71.9870  219.6350 C   0  0  0  0  0  0  0  0  0  0  0  0
  146.2650   72.2920  220.4450 C   0  0  0  0  0  0  0  0  0  0  0  0
  146.3340   73.5740  220.9560 C   0  0  0  0  0  0  0  0  0  0  0  0
  145.3580   74.4960  220.6630 C   0  0  0  0  0  0  0  0  0  0  0  0
  144.2780   74.1710  219.8490 C   0  0  0  0  0  0  0  0  0  0  0  0
  141.5870   73.9110  220.3840 N   0  0  0  0  0  0  0  0  0  0  0  0
  141.0540   74.6420  221.3790 C   0  0  0  0  0  0  0  0  0  0  0  0
  141.1670   76.0590  221.4350 N   0  0  0  0  0  0  0  0  0  0  0  0
  141.7030   76.8080  220.3130 C   0  0  0  0  0  0  0  0  0  0  0  0
  140.8640   78.0910  220.2700 C   0  0  0  0  0  0  0  0  0  0  0  0
  141.2880   78.8390  221.4970 C   0  0  0  0  0  0  0  0  0  0  0  0
  141.7250   80.1450  221.4390 C   0  0  0  0  0  0  0  0  0  0  0  0
  142.0920   80.7430  222.6240 C   0  0  0  0  0  0  0  0  0  0  0  0
  142.0230   80.0570  223.8220 C   0  0  0  0  0  0  0  0  0  0  0  0
  141.5870   78.7490  223.8880 C   0  0  0  0  0  0  0  0  0  0  0  0
  141.2140   78.1380  222.6920 C   0  0  0  0  0  0  0  0  0  0  0  0
  140.7280   76.7300  222.6450 C   0  0  0  0  0  0  0  0  0  0  0  0
  140.3970   73.9740  222.3400 N   0  0  0  0  0  0  0  0  0  0  0  0
  138.7340   69.8740  224.2800 C   0  0  0  0  0  0  0  0  0  0  0  0
  139.2250   68.6380  225.0020 C   0  0  0  0  0  0  0  0  0  0  0  0
  141.4870   68.7280  227.2390 H   0  0  0  0  0  0  0  0  0  0  0  0
  140.3770   67.3840  227.4260 H   0  0  0  0  0  0  0  0  0  0  0  0
  138.8763   68.9736  227.1313 H   0  0  0  0  0  0  0  0  0  0  0  0
  140.8316   70.6405  227.1751 H   0  0  0  0  0  0  0  0  0  0  0  0
  139.2354   71.0936  226.4119 H   0  0  0  0  0  0  0  0  0  0  0  0
  141.7040   70.1701  224.9039 H   0  0  0  0  0  0  0  0  0  0  0  0
  141.1578   71.8845  225.1083 H   0  0  0  0  0  0  0  0  0  0  0  0
  140.4090   70.1754  223.0241 H   0  0  0  0  0  0  0  0  0  0  0  0
  138.7530   72.4790  223.8590 H   0  0  0  0  0  0  0  0  0  0  0  0
  141.7130   70.8510  219.1090 H   0  0  0  0  0  0  0  0  0  0  0  0
  143.4660   71.7345  217.7109 H   0  0  0  0  0  0  0  0  0  0  0  0
  142.6562   73.3219  217.9349 H   0  0  0  0  0  0  0  0  0  0  0  0
  145.1066   70.9717  219.2181 H   0  0  0  0  0  0  0  0  0  0  0  0
  147.0387   71.5435  220.6711 H   0  0  0  0  0  0  0  0  0  0  0  0
  147.1771   73.8589  221.6026 H   0  0  0  0  0  0  0  0  0  0  0  0
  145.4323   75.5110  221.0804 H   0  0  0  0  0  0  0  0  0  0  0  0
  143.5039   74.9190  219.6227 H   0  0  0  0  0  0  0  0  0  0  0  0
  142.7652   77.0436  220.4750 H   0  0  0  0  0  0  0  0  0  0  0  0
  141.6509   76.2431  219.3706 H   0  0  0  0  0  0  0  0  0  0  0  0
  141.0832   78.6719  219.3620 H   0  0  0  0  0  0  0  0  0  0  0  0
  139.7826   77.8906  220.2474 H   0  0  0  0  0  0  0  0  0  0  0  0
  141.7785   80.6881  220.4839 H   0  0  0  0  0  0  0  0  0  0  0  0
  142.4461   81.7844  222.6170 H   0  0  0  0  0  0  0  0  0  0  0  0
  142.3239   80.5677  224.7486 H   0  0  0  0  0  0  0  0  0  0  0  0
  141.5360   78.2105  224.8458 H   0  0  0  0  0  0  0  0  0  0  0  0
  141.1195   76.1868  223.5178 H   0  0  0  0  0  0  0  0  0  0  0  0
  139.6281   76.7426  222.6546 H   0  0  0  0  0  0  0  0  0  0  0  0
  138.1568   69.5783  223.3915 H   0  0  0  0  0  0  0  0  0  0  0  0
  138.0886   70.4646  224.9469 H   0  0  0  0  0  0  0  0  0  0  0  0
  140.0642   68.1930  224.4473 H   0  0  0  0  0  0  0  0  0  0  0  0
  138.4152   67.8971  225.0748 H   0  0  0  0  0  0  0  0  0  0  0  0
  1  2  1  0
  2  3  1  0
  3  4  1  0
  4  5  1  0
  5  6  1  0
  6  7  1  0
  7  8  2  0
  8  9  1  0
  9 10  1  0
 10 11  1  0
 11 12  1  0
 12 13  2  0
 13 14  1  0
 14 15  2  0
 15 16  1  0
 16 17  2  0
  9 18  2  0
 18 19  1  0
 19 20  1  0
 20 21  1  0
 21 22  1  0
 22 23  1  0
 23 24  2  0
 24 25  1  0
 25 26  2  0
 26 27  1  0
 27 28  2  0
 28 29  1  0
 19 30  2  0
  5 31  1  0
 31 32  1  0
 32  2  1  0
 30  7  1  0
 17 12  1  0
 29 20  1  0
 28 23  1  0
  1 33  1  0
  1 34  1  0
  2 35  1  1
  3 36  1  0
  3 37  1  0
  4 38  1  0
  4 39  1  0
  5 40  1  6
  6 41  1  0
 10 42  1  0
 11 43  1  0
 11 44  1  0
 13 45  1  0
 14 46  1  0
 15 47  1  0
 16 48  1  0
 17 49  1  0
 21 50  1  0
 21 51  1  0
 22 52  1  0
 22 53  1  0
 24 54  1  0
 25 55  1  0
 26 56  1  0
 27 57  1  0
 29 58  1  0
 29 59  1  0
 31 60  1  0
 31 61  1  0
 32 62  1  0
 32 63  1  0
M  END
>  <smiles>  (71) 
NC1CCC(Nc2nc(NCc3ccccc3)nc(N3CCc4ccccc4C3)n2)CC1

>  <score_type>  (71) 
oracle

>  <origin>  (71) 
autodockgpu

>  <m_score__min__energy>  (71) 
-10.94

>  <m_primary>  (71) 
energy

>  <rmsd>  (71) 
10.320553790163563

>  <m_score__min__rmsd>  (71) 
10.320553790163563

>  <meeko>  (71) 
{"free_energy": -9.5, "intermolecular_energy": -11.59, "internal_energy": -1.1, "cluster_size": 4, "cluster_id": 3, "rank_in_cluster": 1}

>  <energy>  (71) 
-9.83

>  <cluster_rmsd>  (71) 
1.94

>  <cluster>  (71) 
1

$$$$

     RDKit          3D

 63 67  0  0  0  0  0  0  0  0999 V2000
  142.1810   78.8770  221.7400 N   0  0  0  0  0  0  0  0  0  0  0  0
  141.4430   78.0560  220.7870 C   0  0  1  0  0  0  0  0  0  0  0  0
  141.4360   76.6100  221.1610 C   0  0  0  0  0  0  0  0  0  0  0  0
  140.3580   76.2530  222.1730 C   0  0  0  0  0  0  0  0  0  0  0  0
  138.9810   76.5030  221.6220 C   0  0  2  0  0  0  0  0  0  0  0  0
  138.3610   75.2300  221.3210 N   0  0  0  0  0  0  0  0  0  0  0  0
  139.1210   74.0510  221.3180 C   0  0  0  0  0  0  0  0  0  0  0  0
  139.8330   73.6350  220.2580 N   0  0  0  0  0  0  0  0  0  0  0  0
  140.5610   72.4910  220.2760 C   0  0  0  0  0  0  0  0  0  0  0  0
  141.3170   72.0680  219.1250 N   0  0  0  0  0  0  0  0  0  0  0  0
  142.6260   71.4810  219.3420 C   0  0  0  0  0  0  0  0  0  0  0  0
  143.5500   72.5160  219.8570 C   0  0  0  0  0  0  0  0  0  0  0  0
  143.2920   73.8300  219.5500 C   0  0  0  0  0  0  0  0  0  0  0  0
  144.0910   74.8810  219.9800 C   0  0  0  0  0  0  0  0  0  0  0  0
  145.1920   74.5660  220.7520 C   0  0  0  0  0  0  0  0  0  0  0  0
  145.4690   73.2580  221.0720 C   0  0  0  0  0  0  0  0  0  0  0  0
  144.6560   72.2180  220.6310 C   0  0  0  0  0  0  0  0  0  0  0  0
  140.5590   71.7570  221.4100 N   0  0  0  0  0  0  0  0  0  0  0  0
  139.8640   72.1250  222.5000 C   0  0  0  0  0  0  0  0  0  0  0  0
  139.8560   71.3580  223.6990 N   0  0  0  0  0  0  0  0  0  0  0  0
  138.8030   70.3950  223.9590 C   0  0  0  0  0  0  0  0  0  0  0  0
  139.5130   69.2250  224.6520 C   0  0  0  0  0  0  0  0  0  0  0  0
  139.8950   69.7780  225.9900 C   0  0  0  0  0  0  0  0  0  0  0  0
  139.5520   69.1450  227.1650 C   0  0  0  0  0  0  0  0  0  0  0  0
  139.9520   69.7350  228.3430 C   0  0  0  0  0  0  0  0  0  0  0  0
  140.6690   70.9180  228.3420 C   0  0  0  0  0  0  0  0  0  0  0  0
  141.0160   71.5580  227.1700 C   0  0  0  0  0  0  0  0  0  0  0  0
  140.6140   70.9650  225.9740 C   0  0  0  0  0  0  0  0  0  0  0  0
  140.9330   71.5680  224.6490 C   0  0  0  0  0  0  0  0  0  0  0  0
  139.1630   73.2670  222.4200 N   0  0  0  0  0  0  0  0  0  0  0  0
  139.1080   77.3770  220.4120 C   0  0  0  0  0  0  0  0  0  0  0  0
  140.0080   78.5480  220.7460 C   0  0  0  0  0  0  0  0  0  0  0  0
  142.5750   78.2180  222.4470 H   0  0  0  0  0  0  0  0  0  0  0  0
  142.8960   79.4610  221.2530 H   0  0  0  0  0  0  0  0  0  0  0  0
  141.9385   78.1463  219.8091 H   0  0  0  0  0  0  0  0  0  0  0  0
  142.4160   76.3564  221.5914 H   0  0  0  0  0  0  0  0  0  0  0  0
  141.2237   76.0388  220.2452 H   0  0  0  0  0  0  0  0  0  0  0  0
  140.4984   76.8653  223.0760 H   0  0  0  0  0  0  0  0  0  0  0  0
  140.4465   75.1822  222.4087 H   0  0  0  0  0  0  0  0  0  0  0  0
  138.3396   77.0212  222.3501 H   0  0  0  0  0  0  0  0  0  0  0  0
  137.3590   75.2150  221.1130 H   0  0  0  0  0  0  0  0  0  0  0  0
  140.8840   72.2050  218.1960 H   0  0  0  0  0  0  0  0  0  0  0  0
  142.5450   70.6642  220.0743 H   0  0  0  0  0  0  0  0  0  0  0  0
  143.0124   71.0837  218.3918 H   0  0  0  0  0  0  0  0  0  0  0  0
  142.4102   74.0605  218.9341 H   0  0  0  0  0  0  0  0  0  0  0  0
  143.8565   75.9229  219.7163 H   0  0  0  0  0  0  0  0  0  0  0  0
  145.8524   75.3679  221.1136 H   0  0  0  0  0  0  0  0  0  0  0  0
  146.3505   73.0289  221.6888 H   0  0  0  0  0  0  0  0  0  0  0  0
  144.8897   71.1758  220.8941 H   0  0  0  0  0  0  0  0  0  0  0  0
  138.0345   70.8276  224.6165 H   0  0  0  0  0  0  0  0  0  0  0  0
  138.2852   70.0839  223.0397 H   0  0  0  0  0  0  0  0  0  0  0  0
  138.8351   68.3658  224.7626 H   0  0  0  0  0  0  0  0  0  0  0  0
  140.3787   68.8563  224.0822 H   0  0  0  0  0  0  0  0  0  0  0  0
  138.9809   68.2049  227.1619 H   0  0  0  0  0  0  0  0  0  0  0  0
  139.6972   69.2578  229.3008 H   0  0  0  0  0  0  0  0  0  0  0  0
  140.9710   71.3609  229.3026 H   0  0  0  0  0  0  0  0  0  0  0  0
  141.5868   72.4982  227.1789 H   0  0  0  0  0  0  0  0  0  0  0  0
  141.0921   72.6489  224.7766 H   0  0  0  0  0  0  0  0  0  0  0  0
  141.8397   71.0838  224.2573 H   0  0  0  0  0  0  0  0  0  0  0  0
  138.1147   77.7467  220.1175 H   0  0  0  0  0  0  0  0  0  0  0  0
  139.5386   76.8012  219.5795 H   0  0  0  0  0  0  0  0  0  0  0  0
  139.7296   78.9622  221.7263 H   0  0  0  0  0  0  0  0  0  0  0  0
  139.9009   79.3348  219.9848 H   0  0  0  0  0  0  0  0  0  0  0  0
  1  2  1  0
  2  3  1  0
  3  4  1  0
  4  5  1  0
  5  6  1  0
  6  7  1  0
  7  8  2  0
  8  9  1  0
  9 10  1  0
 10 11  1  0
 11 12  1  0
 12 13  2  0
 13 14  1  0
 14 15  2  0
 15 16  1  0
 16 17  2  0
  9 18  2  0
 18 19  1  0
 19 20  1  0
 20 21  1  0
 21 22  1  0
 22 23  1  0
 23 24  2  0
 24 25  1  0
 25 26  2  0
 26 27  1  0
 27 28  2  0
 28 29  1  0
 19 30  2  0
  5 31  1  0
 31 32  1  0
 32  2  1  0
 30  7  1  0
 17 12  1  0
 29 20  1  0
 28 23  1  0
  1 33  1  0
  1 34  1  0
  2 35  1  6
  3 36  1  0
  3 37  1  0
  4 38  1  0
  4 39  1  0
  5 40  1  1
  6 41  1  0
 10 42  1  0
 11 43  1  0
 11 44  1  0
 13 45  1  0
 14 46  1  0
 15 47  1  0
 16 48  1  0
 17 49  1  0
 21 50  1  0
 21 51  1  0
 22 52  1  0
 22 53  1  0
 24 54  1  0
 25 55  1  0
 26 56  1  0
 27 57  1  0
 29 58  1  0
 29 59  1  0
 31 60  1  0
 31 61  1  0
 32 62  1  0
 32 63  1  0
M  END
>  <smiles>  (72) 
NC1CCC(Nc2nc(NCc3ccccc3)nc(N3CCc4ccccc4C3)n2)CC1

>  <score_type>  (72) 
oracle

>  <origin>  (72) 
autodockgpu

>  <m_score__min__energy>  (72) 
-10.94

>  <m_primary>  (72) 
energy

>  <rmsd>  (72) 
3.955932439176395

>  <m_score__min__rmsd>  (72) 
3.955932439176395

>  <meeko>  (72) 
{"free_energy": -8.32, "intermolecular_energy": -10.41, "internal_energy": -1.65, "cluster_size": 3, "cluster_id": 4, "rank_in_cluster": 3}

>  <energy>  (72) 
-9.75

>  <cluster_rmsd>  (72) 
1.12

>  <cluster>  (72) 
1

$$$$

     RDKit          3D

 63 67  0  0  0  0  0  0  0  0999 V2000
  146.4320   73.4120  219.2430 N   0  0  0  0  0  0  0  0  0  0  0  0
  145.3150   72.9770  220.0750 C   0  0  1  0  0  0  0  0  0  0  0  0
  144.0910   73.8080  219.8710 C   0  0  0  0  0  0  0  0  0  0  0  0
  143.2570   73.3730  218.6760 C   0  0  0  0  0  0  0  0  0  0  0  0
  142.7350   71.9730  218.8500 C   0  0  2  0  0  0  0  0  0  0  0  0
  141.3160   72.0360  219.1320 N   0  0  0  0  0  0  0  0  0  0  0  0
  140.8510   72.6380  220.3110 C   0  0  0  0  0  0  0  0  0  0  0  0
  140.5900   73.9510  220.4160 N   0  0  0  0  0  0  0  0  0  0  0  0
  140.1420   74.5120  221.5660 C   0  0  0  0  0  0  0  0  0  0  0  0
  139.8680   75.9240  221.6510 N   0  0  0  0  0  0  0  0  0  0  0  0
  140.6680   76.8270  220.8450 C   0  0  0  0  0  0  0  0  0  0  0  0
  141.2030   77.9090  221.7020 C   0  0  0  0  0  0  0  0  0  0  0  0
  141.7010   79.0350  221.0930 C   0  0  0  0  0  0  0  0  0  0  0  0
  142.2270   80.1100  221.7990 C   0  0  0  0  0  0  0  0  0  0  0  0
  142.2390   80.0190  223.1770 C   0  0  0  0  0  0  0  0  0  0  0  0
  141.7450   78.9010  223.8070 C   0  0  0  0  0  0  0  0  0  0  0  0
  141.2230   77.8340  223.0830 C   0  0  0  0  0  0  0  0  0  0  0  0
  139.9580   73.7070  222.6340 N   0  0  0  0  0  0  0  0  0  0  0  0
  140.2050   72.3860  222.5860 C   0  0  0  0  0  0  0  0  0  0  0  0
  140.0130   71.5300  223.7070 N   0  0  0  0  0  0  0  0  0  0  0  0
  138.8410   70.6800  223.8030 C   0  0  0  0  0  0  0  0  0  0  0  0
  139.3570   69.3810  224.4350 C   0  0  0  0  0  0  0  0  0  0  0  0
  139.6890   69.7740  225.8420 C   0  0  0  0  0  0  0  0  0  0  0  0
  139.1830   69.0920  226.9270 C   0  0  0  0  0  0  0  0  0  0  0  0
  139.5490   69.5320  228.1790 C   0  0  0  0  0  0  0  0  0  0  0  0
  140.3920   70.6170  228.3360 C   0  0  0  0  0  0  0  0  0  0  0  0
  140.9030   71.3060  227.2550 C   0  0  0  0  0  0  0  0  0  0  0  0
  140.5350   70.8650  225.9850 C   0  0  0  0  0  0  0  0  0  0  0  0
  141.0260   71.5310  224.7460 C   0  0  0  0  0  0  0  0  0  0  0  0
  140.6460   71.8910  221.4200 N   0  0  0  0  0  0  0  0  0  0  0  0
  143.5080   71.3140  219.9520 C   0  0  0  0  0  0  0  0  0  0  0  0
  144.9850   71.5400  219.7160 C   0  0  0  0  0  0  0  0  0  0  0  0
  146.0130   73.7440  218.3460 H   0  0  0  0  0  0  0  0  0  0  0  0
  147.0100   74.1260  219.7370 H   0  0  0  0  0  0  0  0  0  0  0  0
  145.6179   73.0801  221.1274 H   0  0  0  0  0  0  0  0  0  0  0  0
  144.4003   74.8525  219.7185 H   0  0  0  0  0  0  0  0  0  0  0  0
  143.4634   73.6863  220.7662 H   0  0  0  0  0  0  0  0  0  0  0  0
  143.8811   73.4121  217.7710 H   0  0  0  0  0  0  0  0  0  0  0  0
  142.3976   74.0539  218.5880 H   0  0  0  0  0  0  0  0  0  0  0  0
  142.8663   71.3737  217.9370 H   0  0  0  0  0  0  0  0  0  0  0  0
  140.6670   71.6340  218.4500 H   0  0  0  0  0  0  0  0  0  0  0  0
  139.1090   76.2240  222.2860 H   0  0  0  0  0  0  0  0  0  0  0  0
  141.5023   76.2721  220.3910 H   0  0  0  0  0  0  0  0  0  0  0  0
  140.0429   77.2623  220.0514 H   0  0  0  0  0  0  0  0  0  0  0  0
  141.6825   79.0882  219.9944 H   0  0  0  0  0  0  0  0  0  0  0  0
  142.6182   80.9980  221.2810 H   0  0  0  0  0  0  0  0  0  0  0  0
  142.6468   80.8472  223.7752 H   0  0  0  0  0  0  0  0  0  0  0  0
  141.7629   78.8493  224.9056 H   0  0  0  0  0  0  0  0  0  0  0  0
  140.8326   76.9452  223.6003 H   0  0  0  0  0  0  0  0  0  0  0  0
  138.0751   71.1450  224.4411 H   0  0  0  0  0  0  0  0  0  0  0  0
  138.3679   70.5092  222.8247 H   0  0  0  0  0  0  0  0  0  0  0  0
  138.5804   68.6021  224.4188 H   0  0  0  0  0  0  0  0  0  0  0  0
  140.2189   68.9598  223.8968 H   0  0  0  0  0  0  0  0  0  0  0  0
  138.5126   68.2295  226.7978 H   0  0  0  0  0  0  0  0  0  0  0  0
  139.1647   69.0121  229.0690 H   0  0  0  0  0  0  0  0  0  0  0  0
  140.6630   70.9402  229.3519 H   0  0  0  0  0  0  0  0  0  0  0  0
  141.5732   72.1678  227.3900 H   0  0  0  0  0  0  0  0  0  0  0  0
  141.2958   72.5710  224.9817 H   0  0  0  0  0  0  0  0  0  0  0  0
  141.9004   70.9747  224.3773 H   0  0  0  0  0  0  0  0  0  0  0  0
  143.2957   70.2347  219.9579 H   0  0  0  0  0  0  0  0  0  0  0  0
  143.2151   71.7431  220.9216 H   0  0  0  0  0  0  0  0  0  0  0  0
  145.2240   71.3575  218.6579 H   0  0  0  0  0  0  0  0  0  0  0  0
  145.5760   70.8508  220.3372 H   0  0  0  0  0  0  0  0  0  0  0  0
  1  2  1  0
  2  3  1  0
  3  4  1  0
  4  5  1  0
  5  6  1  0
  6  7  1  0
  7  8  2  0
  8  9  1  0
  9 10  1  0
 10 11  1  0
 11 12  1  0
 12 13  2  0
 13 14  1  0
 14 15  2  0
 15 16  1  0
 16 17  2  0
  9 18  2  0
 18 19  1  0
 19 20  1  0
 20 21  1  0
 21 22  1  0
 22 23  1  0
 23 24  2  0
 24 25  1  0
 25 26  2  0
 26 27  1  0
 27 28  2  0
 28 29  1  0
 19 30  2  0
  5 31  1  0
 31 32  1  0
 32  2  1  0
 30  7  1  0
 17 12  1  0
 29 20  1  0
 28 23  1  0
  1 33  1  0
  1 34  1  0
  2 35  1  1
  3 36  1  0
  3 37  1  0
  4 38  1  0
  4 39  1  0
  5 40  1  6
  6 41  1  0
 10 42  1  0
 11 43  1  0
 11 44  1  0
 13 45  1  0
 14 46  1  0
 15 47  1  0
 16 48  1  0
 17 49  1  0
 21 50  1  0
 21 51  1  0
 22 52  1  0
 22 53  1  0
 24 54  1  0
 25 55  1  0
 26 56  1  0
 27 57  1  0
 29 58  1  0
 29 59  1  0
 31 60  1  0
 31 61  1  0
 32 62  1  0
 32 63  1  0
M  END
>  <smiles>  (73) 
NC1CCC(Nc2nc(NCc3ccccc3)nc(N3CCc4ccccc4C3)n2)CC1

>  <score_type>  (73) 
oracle

>  <origin>  (73) 
autodockgpu

>  <m_score__min__energy>  (73) 
-10.94

>  <m_primary>  (73) 
energy

>  <rmsd>  (73) 
3.9491776909454397

>  <m_score__min__rmsd>  (73) 
3.9491776909454397

>  <meeko>  (73) 
{"free_energy": -10.1, "intermolecular_energy": -12.19, "internal_energy": -1.21, "cluster_size": 32, "cluster_id": 1, "rank_in_cluster": 13}

>  <energy>  (73) 
-9.68

>  <cluster_rmsd>  (73) 
0.86

>  <cluster>  (73) 
1

$$$$

     RDKit          3D

 63 67  0  0  0  0  0  0  0  0999 V2000
  146.6880   73.4380  218.9300 N   0  0  0  0  0  0  0  0  0  0  0  0
  145.5870   73.1000  219.8250 C   0  0  1  0  0  0  0  0  0  0  0  0
  144.3340   73.8450  219.4990 C   0  0  0  0  0  0  0  0  0  0  0  0
  143.5180   73.2010  218.3890 C   0  0  0  0  0  0  0  0  0  0  0  0
  143.0450   71.8280  218.7810 C   0  0  2  0  0  0  0  0  0  0  0  0
  141.6240   71.8850  219.0550 N   0  0  0  0  0  0  0  0  0  0  0  0
  141.1450   72.5590  220.1880 C   0  0  0  0  0  0  0  0  0  0  0  0
  140.5050   71.9460  221.1970 N   0  0  0  0  0  0  0  0  0  0  0  0
  140.0490   72.6170  222.2830 C   0  0  0  0  0  0  0  0  0  0  0  0
  139.3660   71.9340  223.3510 N   0  0  0  0  0  0  0  0  0  0  0  0
  139.9340   70.6920  223.8430 C   0  0  0  0  0  0  0  0  0  0  0  0
  140.2060   70.8150  225.2930 C   0  0  0  0  0  0  0  0  0  0  0  0
  140.9710   71.8730  225.7230 C   0  0  0  0  0  0  0  0  0  0  0  0
  141.2880   72.0860  227.0580 C   0  0  0  0  0  0  0  0  0  0  0  0
  140.8000   71.1800  227.9790 C   0  0  0  0  0  0  0  0  0  0  0  0
  140.0320   70.1150  227.5710 C   0  0  0  0  0  0  0  0  0  0  0  0
  139.7260   69.9170  226.2280 C   0  0  0  0  0  0  0  0  0  0  0  0
  140.2540   73.9510  222.3340 N   0  0  0  0  0  0  0  0  0  0  0  0
  140.8870   74.6170  221.3530 C   0  0  0  0  0  0  0  0  0  0  0  0
  141.1080   76.0220  221.4000 N   0  0  0  0  0  0  0  0  0  0  0  0
  141.7930   76.7040  220.3180 C   0  0  0  0  0  0  0  0  0  0  0  0
  141.0660   78.0480  220.1880 C   0  0  0  0  0  0  0  0  0  0  0  0
  141.4450   78.7850  221.4360 C   0  0  0  0  0  0  0  0  0  0  0  0
  141.9890   80.0510  221.3980 C   0  0  0  0  0  0  0  0  0  0  0  0
  142.3030   80.6420  222.6010 C   0  0  0  0  0  0  0  0  0  0  0  0
  142.0790   79.9860  223.7990 C   0  0  0  0  0  0  0  0  0  0  0  0
  141.5370   78.7180  223.8450 C   0  0  0  0  0  0  0  0  0  0  0  0
  141.2170   78.1150  222.6300 C   0  0  0  0  0  0  0  0  0  0  0  0
  140.6250   76.7500  222.5600 C   0  0  0  0  0  0  0  0  0  0  0  0
  141.3150   73.8970  220.3050 N   0  0  0  0  0  0  0  0  0  0  0  0
  143.8380   71.3750  219.9690 C   0  0  0  0  0  0  0  0  0  0  0  0
  145.3080   71.6130  219.6950 C   0  0  0  0  0  0  0  0  0  0  0  0
  146.2490   73.7790  218.0460 H   0  0  0  0  0  0  0  0  0  0  0  0
  147.3360   74.1210  219.3790 H   0  0  0  0  0  0  0  0  0  0  0  0
  145.8852   73.3771  220.8469 H   0  0  0  0  0  0  0  0  0  0  0  0
  144.6060   74.8637  219.1853 H   0  0  0  0  0  0  0  0  0  0  0  0
  143.7095   73.8406  220.4045 H   0  0  0  0  0  0  0  0  0  0  0  0
  144.1420   73.1204  217.4867 H   0  0  0  0  0  0  0  0  0  0  0  0
  142.6357   73.8297  218.1987 H   0  0  0  0  0  0  0  0  0  0  0  0
  143.1992   71.0990  217.9718 H   0  0  0  0  0  0  0  0  0  0  0  0
  140.9850   71.4230  218.4030 H   0  0  0  0  0  0  0  0  0  0  0  0
  138.5010   72.3660  223.7170 H   0  0  0  0  0  0  0  0  0  0  0  0
  139.2232   69.8702  223.6715 H   0  0  0  0  0  0  0  0  0  0  0  0
  140.8729   70.4813  223.3100 H   0  0  0  0  0  0  0  0  0  0  0  0
  141.3498   72.5843  224.9744 H   0  0  0  0  0  0  0  0  0  0  0  0
  141.9036   72.9427  227.3697 H   0  0  0  0  0  0  0  0  0  0  0  0
  141.0275   71.3114  229.0472 H   0  0  0  0  0  0  0  0  0  0  0  0
  139.6520   69.4056  228.3209 H   0  0  0  0  0  0  0  0  0  0  0  0
  139.1119   69.0596  225.9154 H   0  0  0  0  0  0  0  0  0  0  0  0
  142.8536   76.8583  220.5657 H   0  0  0  0  0  0  0  0  0  0  0  0
  141.7740   76.1266  219.3819 H   0  0  0  0  0  0  0  0  0  0  0  0
  141.4055   78.5917  219.2941 H   0  0  0  0  0  0  0  0  0  0  0  0
  139.9777   77.9326  220.0775 H   0  0  0  0  0  0  0  0  0  0  0  0
  142.1653   80.5688  220.4436 H   0  0  0  0  0  0  0  0  0  0  0  0
  142.7389   81.6519  222.6103 H   0  0  0  0  0  0  0  0  0  0  0  0
  142.3405   80.4899  224.7412 H   0  0  0  0  0  0  0  0  0  0  0  0
  141.3645   78.2038  224.8020 H   0  0  0  0  0  0  0  0  0  0  0  0
  140.8971   76.1948  223.4698 H   0  0  0  0  0  0  0  0  0  0  0  0
  139.5328   76.8502  222.4759 H   0  0  0  0  0  0  0  0  0  0  0  0
  143.6633   70.3030  220.1429 H   0  0  0  0  0  0  0  0  0  0  0  0
  143.5285   71.9386  220.8615 H   0  0  0  0  0  0  0  0  0  0  0  0
  145.5551   71.2765  218.6773 H   0  0  0  0  0  0  0  0  0  0  0  0
  145.9216   71.0498  220.4136 H   0  0  0  0  0  0  0  0  0  0  0  0
  1  2  1  0
  2  3  1  0
  3  4  1  0
  4  5  1  0
  5  6  1  0
  6  7  1  0
  7  8  2  0
  8  9  1  0
  9 10  1  0
 10 11  1  0
 11 12  1  0
 12 13  2  0
 13 14  1  0
 14 15  2  0
 15 16  1  0
 16 17  2  0
  9 18  2  0
 18 19  1  0
 19 20  1  0
 20 21  1  0
 21 22  1  0
 22 23  1  0
 23 24  2  0
 24 25  1  0
 25 26  2  0
 26 27  1  0
 27 28  2  0
 28 29  1  0
 19 30  2  0
  5 31  1  0
 31 32  1  0
 32  2  1  0
 30  7  1  0
 17 12  1  0
 29 20  1  0
 28 23  1  0
  1 33  1  0
  1 34  1  0
  2 35  1  1
  3 36  1  0
  3 37  1  0
  4 38  1  0
  4 39  1  0
  5 40  1  6
  6 41  1  0
 10 42  1  0
 11 43  1  0
 11 44  1  0
 13 45  1  0
 14 46  1  0
 15 47  1  0
 16 48  1  0
 17 49  1  0
 21 50  1  0
 21 51  1  0
 22 52  1  0
 22 53  1  0
 24 54  1  0
 25 55  1  0
 26 56  1  0
 27 57  1  0
 29 58  1  0
 29 59  1  0
 31 60  1  0
 31 61  1  0
 32 62  1  0
 32 63  1  0
M  END
>  <smiles>  (74) 
NC1CCC(Nc2nc(NCc3ccccc3)nc(N3CCc4ccccc4C3)n2)CC1

>  <score_type>  (74) 
oracle

>  <origin>  (74) 
autodockgpu

>  <m_score__min__energy>  (74) 
-10.94

>  <m_primary>  (74) 
energy

>  <rmsd>  (74) 
10.280510616985158

>  <m_score__min__rmsd>  (74) 
10.280510616985158

>  <meeko>  (74) 
{"free_energy": -10.8, "intermolecular_energy": -12.89, "internal_energy": -1.25, "cluster_size": 32, "cluster_id": 1, "rank_in_cluster": 5}

>  <energy>  (74) 
-9.67

>  <cluster_rmsd>  (74) 
1.21

>  <cluster>  (74) 
1

$$$$

     RDKit          3D

 63 67  0  0  0  0  0  0  0  0999 V2000
  146.1660   73.4500  218.2620 N   0  0  0  0  0  0  0  0  0  0  0  0
  145.1060   73.4670  219.2640 C   0  0  1  0  0  0  0  0  0  0  0  0
  143.7530   73.2380  218.6730 C   0  0  0  0  0  0  0  0  0  0  0  0
  143.4220   71.7680  218.4710 C   0  0  0  0  0  0  0  0  0  0  0  0
  143.3870   71.0280  219.7800 C   0  0  2  0  0  0  0  0  0  0  0  0
  142.0090   70.7360  220.1150 N   0  0  0  0  0  0  0  0  0  0  0  0
  141.2660   71.6250  220.9050 C   0  0  0  0  0  0  0  0  0  0  0  0
  140.3770   71.2250  221.8290 N   0  0  0  0  0  0  0  0  0  0  0  0
  139.6670   72.1020  222.5830 C   0  0  0  0  0  0  0  0  0  0  0  0
  138.7210   71.6450  223.5670 N   0  0  0  0  0  0  0  0  0  0  0  0
  138.9270   70.3370  224.1620 C   0  0  0  0  0  0  0  0  0  0  0  0
  139.6790   70.4850  225.4280 C   0  0  0  0  0  0  0  0  0  0  0  0
  139.5440   69.5060  226.3830 C   0  0  0  0  0  0  0  0  0  0  0  0
  140.2010   69.5430  227.6060 C   0  0  0  0  0  0  0  0  0  0  0  0
  141.0250   70.6240  227.8510 C   0  0  0  0  0  0  0  0  0  0  0  0
  141.1760   71.6150  226.9100 C   0  0  0  0  0  0  0  0  0  0  0  0
  140.5080   71.5610  225.6900 C   0  0  0  0  0  0  0  0  0  0  0  0
  139.8760   73.4200  222.3830 N   0  0  0  0  0  0  0  0  0  0  0  0
  140.7520   73.8780  221.4720 C   0  0  0  0  0  0  0  0  0  0  0  0
  140.9780   75.2660  221.2550 N   0  0  0  0  0  0  0  0  0  0  0  0
  140.1000   76.2630  221.8390 C   0  0  0  0  0  0  0  0  0  0  0  0
  141.0330   77.4140  222.2360 C   0  0  0  0  0  0  0  0  0  0  0  0
  141.4790   77.9840  220.9240 C   0  0  0  0  0  0  0  0  0  0  0  0
  141.3540   79.3260  220.6330 C   0  0  0  0  0  0  0  0  0  0  0  0
  141.7940   79.7500  219.3990 C   0  0  0  0  0  0  0  0  0  0  0  0
  142.3390   78.8610  218.4910 C   0  0  0  0  0  0  0  0  0  0  0  0
  142.4660   77.5160  218.7740 C   0  0  0  0  0  0  0  0  0  0  0  0
  142.0230   77.0810  220.0220 C   0  0  0  0  0  0  0  0  0  0  0  0
  142.1120   75.6520  220.4360 C   0  0  0  0  0  0  0  0  0  0  0  0
  141.4230   72.9610  220.7580 N   0  0  0  0  0  0  0  0  0  0  0  0
  144.0610   71.8720  220.8190 C   0  0  0  0  0  0  0  0  0  0  0  0
  145.3830   72.3620  220.2680 C   0  0  0  0  0  0  0  0  0  0  0  0
  145.8350   74.0570  217.4800 H   0  0  0  0  0  0  0  0  0  0  0  0
  147.0760   73.7430  218.6770 H   0  0  0  0  0  0  0  0  0  0  0  0
  145.1021   74.4618  219.7335 H   0  0  0  0  0  0  0  0  0  0  0  0
  143.7094   73.7424  217.6964 H   0  0  0  0  0  0  0  0  0  0  0  0
  143.0164   73.6415  219.3833 H   0  0  0  0  0  0  0  0  0  0  0  0
  144.1873   71.3145  217.8240 H   0  0  0  0  0  0  0  0  0  0  0  0
  142.4270   71.6979  218.0072 H   0  0  0  0  0  0  0  0  0  0  0  0
  143.9243   70.0701  219.7190 H   0  0  0  0  0  0  0  0  0  0  0  0
  141.5960   69.8700  219.7590 H   0  0  0  0  0  0  0  0  0  0  0  0
  137.9370   72.2770  223.8030 H   0  0  0  0  0  0  0  0  0  0  0  0
  137.9526   69.8695  224.3666 H   0  0  0  0  0  0  0  0  0  0  0  0
  139.4984   69.7036  223.4675 H   0  0  0  0  0  0  0  0  0  0  0  0
  138.8842   68.6524  226.1685 H   0  0  0  0  0  0  0  0  0  0  0  0
  140.0703   68.7433  228.3499 H   0  0  0  0  0  0  0  0  0  0  0  0
  141.5649   70.6927  228.8069 H   0  0  0  0  0  0  0  0  0  0  0  0
  141.8375   72.4670  227.1254 H   0  0  0  0  0  0  0  0  0  0  0  0
  140.6372   72.3610  224.9462 H   0  0  0  0  0  0  0  0  0  0  0  0
  139.3549   76.6026  221.1045 H   0  0  0  0  0  0  0  0  0  0  0  0
  139.5338   75.8699  222.6963 H   0  0  0  0  0  0  0  0  0  0  0  0
  140.4940   78.1686  222.8277 H   0  0  0  0  0  0  0  0  0  0  0  0
  141.8740   77.0821  222.8626 H   0  0  0  0  0  0  0  0  0  0  0  0
  140.9199   80.0301  221.3581 H   0  0  0  0  0  0  0  0  0  0  0  0
  141.7105   80.8136  219.1312 H   0  0  0  0  0  0  0  0  0  0  0  0
  142.6811   79.2363  217.5153 H   0  0  0  0  0  0  0  0  0  0  0  0
  142.8992   76.8159  218.0444 H   0  0  0  0  0  0  0  0  0  0  0  0
  142.1353   75.0196  219.5363 H   0  0  0  0  0  0  0  0  0  0  0  0
  143.0285   75.5203  221.0299 H   0  0  0  0  0  0  0  0  0  0  0  0
  144.2373   71.2728  221.7245 H   0  0  0  0  0  0  0  0  0  0  0  0
  143.4221   72.7300  221.0752 H   0  0  0  0  0  0  0  0  0  0  0  0
  145.9085   71.5328  219.7717 H   0  0  0  0  0  0  0  0  0  0  0  0
  146.0137   72.7437  221.0845 H   0  0  0  0  0  0  0  0  0  0  0  0
  1  2  1  0
  2  3  1  0
  3  4  1  0
  4  5  1  0
  5  6  1  0
  6  7  1  0
  7  8  2  0
  8  9  1  0
  9 10  1  0
 10 11  1  0
 11 12  1  0
 12 13  2  0
 13 14  1  0
 14 15  2  0
 15 16  1  0
 16 17  2  0
  9 18  2  0
 18 19  1  0
 19 20  1  0
 20 21  1  0
 21 22  1  0
 22 23  1  0
 23 24  2  0
 24 25  1  0
 25 26  2  0
 26 27  1  0
 27 28  2  0
 28 29  1  0
 19 30  2  0
  5 31  1  0
 31 32  1  0
 32  2  1  0
 30  7  1  0
 17 12  1  0
 29 20  1  0
 28 23  1  0
  1 33  1  0
  1 34  1  0
  2 35  1  1
  3 36  1  0
  3 37  1  0
  4 38  1  0
  4 39  1  0
  5 40  1  6
  6 41  1  0
 10 42  1  0
 11 43  1  0
 11 44  1  0
 13 45  1  0
 14 46  1  0
 15 47  1  0
 16 48  1  0
 17 49  1  0
 21 50  1  0
 21 51  1  0
 22 52  1  0
 22 53  1  0
 24 54  1  0
 25 55  1  0
 26 56  1  0
 27 57  1  0
 29 58  1  0
 29 59  1  0
 31 60  1  0
 31 61  1  0
 32 62  1  0
 32 63  1  0
M  END
>  <smiles>  (75) 
NC1CCC(Nc2nc(NCc3ccccc3)nc(N3CCc4ccccc4C3)n2)CC1

>  <score_type>  (75) 
oracle

>  <origin>  (75) 
autodockgpu

>  <m_score__min__energy>  (75) 
-10.94

>  <m_primary>  (75) 
energy

>  <rmsd>  (75) 
9.847870015480725

>  <m_score__min__rmsd>  (75) 
9.847870015480725

>  <meeko>  (75) 
{"free_energy": -9.49, "intermolecular_energy": -11.58, "internal_energy": -1.43, "cluster_size": 32, "cluster_id": 1, "rank_in_cluster": 25}

>  <energy>  (75) 
-9.49

>  <cluster_rmsd>  (75) 
1.28

>  <cluster>  (75) 
1

$$$$

     RDKit          3D

 63 67  0  0  0  0  0  0  0  0999 V2000
  146.3530   73.3760  218.7580 N   0  0  0  0  0  0  0  0  0  0  0  0
  145.5590   73.1340  219.9570 C   0  0  1  0  0  0  0  0  0  0  0  0
  145.1930   74.3960  220.6670 C   0  0  0  0  0  0  0  0  0  0  0  0
  143.9610   75.0780  220.0930 C   0  0  0  0  0  0  0  0  0  0  0  0
  142.7400   74.2090  220.2220 C   0  0  2  0  0  0  0  0  0  0  0  0
  141.8910   74.7500  221.2620 N   0  0  0  0  0  0  0  0  0  0  0  0
  140.6870   74.1150  221.6000 C   0  0  0  0  0  0  0  0  0  0  0  0
  139.5050   74.4300  221.0460 N   0  0  0  0  0  0  0  0  0  0  0  0
  138.3520   73.8030  221.3880 C   0  0  0  0  0  0  0  0  0  0  0  0
  137.0980   74.1610  220.7770 N   0  0  0  0  0  0  0  0  0  0  0  0
  136.3470   75.2640  221.3470 C   0  0  0  0  0  0  0  0  0  0  0  0
  135.8560   74.8830  222.6900 C   0  0  0  0  0  0  0  0  0  0  0  0
  135.3310   73.6240  222.8580 C   0  0  0  0  0  0  0  0  0  0  0  0
  134.8430   73.1610  224.0730 C   0  0  0  0  0  0  0  0  0  0  0  0
  134.8970   74.0250  225.1490 C   0  0  0  0  0  0  0  0  0  0  0  0
  135.4180   75.2890  225.0040 C   0  0  0  0  0  0  0  0  0  0  0  0
  135.9030   75.7350  223.7780 C   0  0  0  0  0  0  0  0  0  0  0  0
  138.4140   72.8290  222.3210 N   0  0  0  0  0  0  0  0  0  0  0  0
  139.5690   72.4730  222.9100 C   0  0  0  0  0  0  0  0  0  0  0  0
  139.6430   71.4480  223.8940 N   0  0  0  0  0  0  0  0  0  0  0  0
  138.6330   70.4090  223.9640 C   0  0  0  0  0  0  0  0  0  0  0  0
  139.4110   69.1390  224.3320 C   0  0  0  0  0  0  0  0  0  0  0  0
  139.8430   69.3800  225.7460 C   0  0  0  0  0  0  0  0  0  0  0  0
  139.5780   68.4770  226.7530 C   0  0  0  0  0  0  0  0  0  0  0  0
  140.0190   68.7920  228.0190 C   0  0  0  0  0  0  0  0  0  0  0  0
  140.7010   69.9700  228.2650 C   0  0  0  0  0  0  0  0  0  0  0  0
  140.9690   70.8800  227.2630 C   0  0  0  0  0  0  0  0  0  0  0  0
  140.5260   70.5660  225.9800 C   0  0  0  0  0  0  0  0  0  0  0  0
  140.7600   71.4730  224.8210 C   0  0  0  0  0  0  0  0  0  0  0  0
  140.6750   73.1310  222.5290 N   0  0  0  0  0  0  0  0  0  0  0  0
  143.1860   72.8090  220.5200 C   0  0  0  0  0  0  0  0  0  0  0  0
  144.2800   72.4270  219.5460 C   0  0  0  0  0  0  0  0  0  0  0  0
  145.7040   73.8040  218.0620 H   0  0  0  0  0  0  0  0  0  0  0  0
  147.1910   73.9570  218.9770 H   0  0  0  0  0  0  0  0  0  0  0  0
  146.1645   72.5262  220.6455 H   0  0  0  0  0  0  0  0  0  0  0  0
  146.0411   75.0931  220.5980 H   0  0  0  0  0  0  0  0  0  0  0  0
  144.9590   74.1264  221.7075 H   0  0  0  0  0  0  0  0  0  0  0  0
  144.1352   75.2941  219.0286 H   0  0  0  0  0  0  0  0  0  0  0  0
  143.7856   76.0059  220.6571 H   0  0  0  0  0  0  0  0  0  0  0  0
  142.1547   74.1892  219.2908 H   0  0  0  0  0  0  0  0  0  0  0  0
  142.1930   75.6040  221.7410 H   0  0  0  0  0  0  0  0  0  0  0  0
  136.7950   73.6090  219.9560 H   0  0  0  0  0  0  0  0  0  0  0  0
  136.9982   76.1465  221.4312 H   0  0  0  0  0  0  0  0  0  0  0  0
  135.4918   75.5007  220.6969 H   0  0  0  0  0  0  0  0  0  0  0  0
  135.2956   72.9510  221.9886 H   0  0  0  0  0  0  0  0  0  0  0  0
  134.4299   72.1465  224.1743 H   0  0  0  0  0  0  0  0  0  0  0  0
  134.5202   73.6993  226.1298 H   0  0  0  0  0  0  0  0  0  0  0  0
  135.4522   75.9611  225.8741 H   0  0  0  0  0  0  0  0  0  0  0  0
  136.3170   76.7490  223.6763 H   0  0  0  0  0  0  0  0  0  0  0  0
  137.8861   70.6446  224.7364 H   0  0  0  0  0  0  0  0  0  0  0  0
  138.0791   70.3006  223.0198 H   0  0  0  0  0  0  0  0  0  0  0  0
  138.7651   68.2511  224.2658 H   0  0  0  0  0  0  0  0  0  0  0  0
  140.2574   68.9484  223.6558 H   0  0  0  0  0  0  0  0  0  0  0  0
  139.0354   67.5412  226.5532 H   0  0  0  0  0  0  0  0  0  0  0  0
  139.8257   68.0955  228.8481 H   0  0  0  0  0  0  0  0  0  0  0  0
  141.0394   70.1876  229.2888 H   0  0  0  0  0  0  0  0  0  0  0  0
  141.5103   71.8152  227.4688 H   0  0  0  0  0  0  0  0  0  0  0  0
  140.8943   72.4999  225.1917 H   0  0  0  0  0  0  0  0  0  0  0  0
  141.6591   71.1291  224.2886 H   0  0  0  0  0  0  0  0  0  0  0  0
  142.3362   72.1192  220.4104 H   0  0  0  0  0  0  0  0  0  0  0  0
  143.5660   72.7495  221.5506 H   0  0  0  0  0  0  0  0  0  0  0  0
  143.9958   72.7355  218.5291 H   0  0  0  0  0  0  0  0  0  0  0  0
  144.4312   71.3375  219.5572 H   0  0  0  0  0  0  0  0  0  0  0  0
  1  2  1  0
  2  3  1  0
  3  4  1  0
  4  5  1  0
  5  6  1  0
  6  7  1  0
  7  8  2  0
  8  9  1  0
  9 10  1  0
 10 11  1  0
 11 12  1  0
 12 13  2  0
 13 14  1  0
 14 15  2  0
 15 16  1  0
 16 17  2  0
  9 18  2  0
 18 19  1  0
 19 20  1  0
 20 21  1  0
 21 22  1  0
 22 23  1  0
 23 24  2  0
 24 25  1  0
 25 26  2  0
 26 27  1  0
 27 28  2  0
 28 29  1  0
 19 30  2  0
  5 31  1  0
 31 32  1  0
 32  2  1  0
 30  7  1  0
 17 12  1  0
 29 20  1  0
 28 23  1  0
  1 33  1  0
  1 34  1  0
  2 35  1  1
  3 36  1  0
  3 37  1  0
  4 38  1  0
  4 39  1  0
  5 40  1  6
  6 41  1  0
 10 42  1  0
 11 43  1  0
 11 44  1  0
 13 45  1  0
 14 46  1  0
 15 47  1  0
 16 48  1  0
 17 49  1  0
 21 50  1  0
 21 51  1  0
 22 52  1  0
 22 53  1  0
 24 54  1  0
 25 55  1  0
 26 56  1  0
 27 57  1  0
 29 58  1  0
 29 59  1  0
 31 60  1  0
 31 61  1  0
 32 62  1  0
 32 63  1  0
M  END
>  <smiles>  (76) 
NC1CCC(Nc2nc(NCc3ccccc3)nc(N3CCc4ccccc4C3)n2)CC1

>  <score_type>  (76) 
oracle

>  <origin>  (76) 
autodockgpu

>  <m_score__min__energy>  (76) 
-10.94

>  <m_primary>  (76) 
energy

>  <rmsd>  (76) 
3.875120824637185

>  <m_score__min__rmsd>  (76) 
3.875120824637185

>  <meeko>  (76) 
{"free_energy": -9.62, "intermolecular_energy": -11.71, "internal_energy": -1.31, "cluster_size": 11, "cluster_id": 2, "rank_in_cluster": 4}

>  <energy>  (76) 
-9.44

>  <cluster_rmsd>  (76) 
1.28

>  <cluster>  (76) 
1

$$$$

     RDKit          3D

 63 67  0  0  0  0  0  0  0  0999 V2000
  146.8340   73.7560  219.2660 N   0  0  0  0  0  0  0  0  0  0  0  0
  145.7030   73.3080  220.0710 C   0  0  1  0  0  0  0  0  0  0  0  0
  144.4660   74.1050  219.8160 C   0  0  0  0  0  0  0  0  0  0  0  0
  143.6790   73.6320  218.6030 C   0  0  0  0  0  0  0  0  0  0  0  0
  143.1850   72.2220  218.7850 C   0  0  2  0  0  0  0  0  0  0  0  0
  141.7580   72.2560  219.0220 N   0  0  0  0  0  0  0  0  0  0  0  0
  141.2410   72.8870  220.1640 C   0  0  0  0  0  0  0  0  0  0  0  0
  140.6210   72.2250  221.1550 N   0  0  0  0  0  0  0  0  0  0  0  0
  140.1270   72.8550  222.2510 C   0  0  0  0  0  0  0  0  0  0  0  0
  139.4670   72.1210  223.2990 N   0  0  0  0  0  0  0  0  0  0  0  0
  140.0460   70.8590  223.7230 C   0  0  0  0  0  0  0  0  0  0  0  0
  140.2510   70.8790  225.1890 C   0  0  0  0  0  0  0  0  0  0  0  0
  141.0040   71.8960  225.7260 C   0  0  0  0  0  0  0  0  0  0  0  0
  141.2600   72.0130  227.0850 C   0  0  0  0  0  0  0  0  0  0  0  0
  140.7220   71.0500  227.9180 C   0  0  0  0  0  0  0  0  0  0  0  0
  139.9660   70.0250  227.4020 C   0  0  0  0  0  0  0  0  0  0  0  0
  139.7210   69.9240  226.0360 C   0  0  0  0  0  0  0  0  0  0  0  0
  140.2750   74.1940  222.3310 N   0  0  0  0  0  0  0  0  0  0  0  0
  140.8860   74.9070  221.3690 C   0  0  0  0  0  0  0  0  0  0  0  0
  141.0460   76.3190  221.4460 N   0  0  0  0  0  0  0  0  0  0  0  0
  141.5290   77.0770  220.3060 C   0  0  0  0  0  0  0  0  0  0  0  0
  140.7280   78.3840  220.3460 C   0  0  0  0  0  0  0  0  0  0  0  0
  141.2570   79.0920  221.5560 C   0  0  0  0  0  0  0  0  0  0  0  0
  141.7290   80.3860  221.4950 C   0  0  0  0  0  0  0  0  0  0  0  0
  142.1930   80.9460  222.6640 C   0  0  0  0  0  0  0  0  0  0  0  0
  142.1840   80.2350  223.8500 C   0  0  0  0  0  0  0  0  0  0  0  0
  141.7130   78.9390  223.9190 C   0  0  0  0  0  0  0  0  0  0  0  0
  141.2420   78.3670  222.7390 C   0  0  0  0  0  0  0  0  0  0  0  0
  140.7100   76.9760  222.6960 C   0  0  0  0  0  0  0  0  0  0  0  0
  141.3520   74.2270  220.3100 N   0  0  0  0  0  0  0  0  0  0  0  0
  143.9390   71.6000  219.9210 C   0  0  0  0  0  0  0  0  0  0  0  0
  145.4180   71.8570  219.7260 C   0  0  0  0  0  0  0  0  0  0  0  0
  146.4530   73.9470  218.3120 H   0  0  0  0  0  0  0  0  0  0  0  0
  147.3080   74.5710  219.7100 H   0  0  0  0  0  0  0  0  0  0  0  0
  145.9713   73.4360  221.1301 H   0  0  0  0  0  0  0  0  0  0  0  0
  144.7546   75.1544  219.6563 H   0  0  0  0  0  0  0  0  0  0  0  0
  143.8142   73.9806  220.6933 H   0  0  0  0  0  0  0  0  0  0  0  0
  144.3292   73.6719  217.7166 H   0  0  0  0  0  0  0  0  0  0  0  0
  142.8072   74.2909  218.4773 H   0  0  0  0  0  0  0  0  0  0  0  0
  143.3586   71.6107  217.8871 H   0  0  0  0  0  0  0  0  0  0  0  0
  141.1410   71.8110  218.3370 H   0  0  0  0  0  0  0  0  0  0  0  0
  138.6080   72.5340  223.7000 H   0  0  0  0  0  0  0  0  0  0  0  0
  139.3655   70.0361  223.4589 H   0  0  0  0  0  0  0  0  0  0  0  0
  141.0126   70.7109  223.2192 H   0  0  0  0  0  0  0  0  0  0  0  0
  141.4234   72.6527  225.0466 H   0  0  0  0  0  0  0  0  0  0  0  0
  141.8670   72.8393  227.4835 H   0  0  0  0  0  0  0  0  0  0  0  0
  140.9004   71.1045  229.0021 H   0  0  0  0  0  0  0  0  0  0  0  0
  139.5462   69.2694  228.0823 H   0  0  0  0  0  0  0  0  0  0  0  0
  139.1151   69.0973  225.6366 H   0  0  0  0  0  0  0  0  0  0  0  0
  142.6062   77.2782  220.4012 H   0  0  0  0  0  0  0  0  0  0  0  0
  141.3978   76.5351  219.3578 H   0  0  0  0  0  0  0  0  0  0  0  0
  140.9025   78.9783  219.4370 H   0  0  0  0  0  0  0  0  0  0  0  0
  139.6420   78.2155  220.3932 H   0  0  0  0  0  0  0  0  0  0  0  0
  141.7346   80.9486  220.5498 H   0  0  0  0  0  0  0  0  0  0  0  0
  142.5774   81.9766  222.6544 H   0  0  0  0  0  0  0  0  0  0  0  0
  142.5628   80.7155  224.7642 H   0  0  0  0  0  0  0  0  0  0  0  0
  141.7097   78.3808  224.8669 H   0  0  0  0  0  0  0  0  0  0  0  0
  141.1413   76.4019  223.5293 H   0  0  0  0  0  0  0  0  0  0  0  0
  139.6141   77.0217  222.7795 H   0  0  0  0  0  0  0  0  0  0  0  0
  143.7517   70.5162  219.9392 H   0  0  0  0  0  0  0  0  0  0  0  0
  143.6067   72.0383  220.8736 H   0  0  0  0  0  0  0  0  0  0  0  0
  145.6936   71.6633  218.6789 H   0  0  0  0  0  0  0  0  0  0  0  0
  146.0056   71.1920  220.3760 H   0  0  0  0  0  0  0  0  0  0  0  0
  1  2  1  0
  2  3  1  0
  3  4  1  0
  4  5  1  0
  5  6  1  0
  6  7  1  0
  7  8  2  0
  8  9  1  0
  9 10  1  0
 10 11  1  0
 11 12  1  0
 12 13  2  0
 13 14  1  0
 14 15  2  0
 15 16  1  0
 16 17  2  0
  9 18  2  0
 18 19  1  0
 19 20  1  0
 20 21  1  0
 21 22  1  0
 22 23  1  0
 23 24  2  0
 24 25  1  0
 25 26  2  0
 26 27  1  0
 27 28  2  0
 28 29  1  0
 19 30  2  0
  5 31  1  0
 31 32  1  0
 32  2  1  0
 30  7  1  0
 17 12  1  0
 29 20  1  0
 28 23  1  0
  1 33  1  0
  1 34  1  0
  2 35  1  1
  3 36  1  0
  3 37  1  0
  4 38  1  0
  4 39  1  0
  5 40  1  6
  6 41  1  0
 10 42  1  0
 11 43  1  0
 11 44  1  0
 13 45  1  0
 14 46  1  0
 15 47  1  0
 16 48  1  0
 17 49  1  0
 21 50  1  0
 21 51  1  0
 22 52  1  0
 22 53  1  0
 24 54  1  0
 25 55  1  0
 26 56  1  0
 27 57  1  0
 29 58  1  0
 29 59  1  0
 31 60  1  0
 31 61  1  0
 32 62  1  0
 32 63  1  0
M  END
>  <smiles>  (77) 
NC1CCC(Nc2nc(NCc3ccccc3)nc(N3CCc4ccccc4C3)n2)CC1

>  <score_type>  (77) 
oracle

>  <origin>  (77) 
autodockgpu

>  <m_score__min__energy>  (77) 
-10.94

>  <m_primary>  (77) 
energy

>  <rmsd>  (77) 
10.49885778307447

>  <m_score__min__rmsd>  (77) 
10.49885778307447

>  <meeko>  (77) 
{"free_energy": -10.8, "intermolecular_energy": -12.89, "internal_energy": -1.21, "cluster_size": 32, "cluster_id": 1, "rank_in_cluster": 4}

>  <energy>  (77) 
-9.38

>  <cluster_rmsd>  (77) 
1.42

>  <cluster>  (77) 
1

$$$$

     RDKit          3D

 63 67  0  0  0  0  0  0  0  0999 V2000
  146.6040   73.7090  219.6790 N   0  0  0  0  0  0  0  0  0  0  0  0
  145.3360   73.4250  220.3420 C   0  0  1  0  0  0  0  0  0  0  0  0
  144.2740   74.4170  219.9950 C   0  0  0  0  0  0  0  0  0  0  0  0
  143.5610   74.1080  218.6880 C   0  0  0  0  0  0  0  0  0  0  0  0
  142.8370   72.7910  218.7540 C   0  0  2  0  0  0  0  0  0  0  0  0
  141.4140   73.0460  218.8430 N   0  0  0  0  0  0  0  0  0  0  0  0
  140.8430   73.4720  220.0510 C   0  0  0  0  0  0  0  0  0  0  0  0
  140.3150   72.6310  220.9550 N   0  0  0  0  0  0  0  0  0  0  0  0
  139.7650   73.0640  222.1170 C   0  0  0  0  0  0  0  0  0  0  0  0
  139.2070   72.1400  223.0690 N   0  0  0  0  0  0  0  0  0  0  0  0
  139.9610   70.9400  223.3840 C   0  0  0  0  0  0  0  0  0  0  0  0
  140.1510   70.8490  224.8490 C   0  0  0  0  0  0  0  0  0  0  0  0
  140.8280   71.8630  225.4820 C   0  0  0  0  0  0  0  0  0  0  0  0
  141.0630   71.8810  226.8500 C   0  0  0  0  0  0  0  0  0  0  0  0
  140.5830   70.8170  227.5900 C   0  0  0  0  0  0  0  0  0  0  0  0
  139.9030   69.7910  226.9780 C   0  0  0  0  0  0  0  0  0  0  0  0
  139.6780   69.7920  225.6050 C   0  0  0  0  0  0  0  0  0  0  0  0
  139.7580   74.3930  222.3560 N   0  0  0  0  0  0  0  0  0  0  0  0
  140.2710   75.2810  221.4870 C   0  0  0  0  0  0  0  0  0  0  0  0
  140.2680   76.6830  221.7320 N   0  0  0  0  0  0  0  0  0  0  0  0
  139.4790   77.5800  220.9090 C   0  0  0  0  0  0  0  0  0  0  0  0
  138.9500   78.6360  221.8870 C   0  0  0  0  0  0  0  0  0  0  0  0
  140.1730   79.4110  222.2740 C   0  0  0  0  0  0  0  0  0  0  0  0
  140.2300   80.7840  222.1640 C   0  0  0  0  0  0  0  0  0  0  0  0
  141.4000   81.4010  222.5460 C   0  0  0  0  0  0  0  0  0  0  0  0
  142.4720   80.6690  223.0210 C   0  0  0  0  0  0  0  0  0  0  0  0
  142.4230   79.2940  223.1340 C   0  0  0  0  0  0  0  0  0  0  0  0
  141.2410   78.6630  222.7490 C   0  0  0  0  0  0  0  0  0  0  0  0
  141.0750   77.1850  222.8280 C   0  0  0  0  0  0  0  0  0  0  0  0
  140.8000   74.7900  220.3550 N   0  0  0  0  0  0  0  0  0  0  0  0
  143.3550   72.0250  219.9330 C   0  0  0  0  0  0  0  0  0  0  0  0
  144.8680   72.0490  219.9040 C   0  0  0  0  0  0  0  0  0  0  0  0
  146.3840   73.8120  218.6630 H   0  0  0  0  0  0  0  0  0  0  0  0
  147.0690   74.5400  220.1040 H   0  0  0  0  0  0  0  0  0  0  0  0
  145.5029   73.4783  221.4280 H   0  0  0  0  0  0  0  0  0  0  0  0
  144.7389   75.4104  219.9119 H   0  0  0  0  0  0  0  0  0  0  0  0
  143.5188   74.3761  220.7937 H   0  0  0  0  0  0  0  0  0  0  0  0
  144.3028   74.0680  217.8767 H   0  0  0  0  0  0  0  0  0  0  0  0
  142.8208   74.9003  218.5025 H   0  0  0  0  0  0  0  0  0  0  0  0
  143.0113   72.1854  217.8524 H   0  0  0  0  0  0  0  0  0  0  0  0
  140.8430   72.9090  218.0050 H   0  0  0  0  0  0  0  0  0  0  0  0
  138.2910   72.3800  223.4840 H   0  0  0  0  0  0  0  0  0  0  0  0
  139.4095   70.0566  223.0299 H   0  0  0  0  0  0  0  0  0  0  0  0
  140.9420   70.9818  222.8882 H   0  0  0  0  0  0  0  0  0  0  0  0
  141.2019   72.7011  224.8756 H   0  0  0  0  0  0  0  0  0  0  0  0
  141.6092   72.7087  227.3259 H   0  0  0  0  0  0  0  0  0  0  0  0
  140.7464   70.7910  228.6775 H   0  0  0  0  0  0  0  0  0  0  0  0
  139.5297   68.9533  227.5853 H   0  0  0  0  0  0  0  0  0  0  0  0
  139.1322   68.9646  225.1280 H   0  0  0  0  0  0  0  0  0  0  0  0
  140.1043   78.0470  220.1338 H   0  0  0  0  0  0  0  0  0  0  0  0
  138.6683   77.0572  220.3804 H   0  0  0  0  0  0  0  0  0  0  0  0
  138.2116   79.2881  221.3976 H   0  0  0  0  0  0  0  0  0  0  0  0
  138.4356   78.1935  222.7528 H   0  0  0  0  0  0  0  0  0  0  0  0
  139.3748   81.3635  221.7861 H   0  0  0  0  0  0  0  0  0  0  0  0
  141.4831   82.4954  222.4719 H   0  0  0  0  0  0  0  0  0  0  0  0
  143.3903   81.1971  223.3174 H   0  0  0  0  0  0  0  0  0  0  0  0
  143.2815   78.7197  223.5124 H   0  0  0  0  0  0  0  0  0  0  0  0
  142.0668   76.7110  222.7884 H   0  0  0  0  0  0  0  0  0  0  0  0
  140.5644   76.9443  223.7721 H   0  0  0  0  0  0  0  0  0  0  0  0
  143.0008   70.9848  219.8826 H   0  0  0  0  0  0  0  0  0  0  0  0
  142.9918   72.4829  220.8649 H   0  0  0  0  0  0  0  0  0  0  0  0
  145.2229   71.8438  218.8833 H   0  0  0  0  0  0  0  0  0  0  0  0
  145.2703   71.2808  220.5808 H   0  0  0  0  0  0  0  0  0  0  0  0
  1  2  1  0
  2  3  1  0
  3  4  1  0
  4  5  1  0
  5  6  1  0
  6  7  1  0
  7  8  2  0
  8  9  1  0
  9 10  1  0
 10 11  1  0
 11 12  1  0
 12 13  2  0
 13 14  1  0
 14 15  2  0
 15 16  1  0
 16 17  2  0
  9 18  2  0
 18 19  1  0
 19 20  1  0
 20 21  1  0
 21 22  1  0
 22 23  1  0
 23 24  2  0
 24 25  1  0
 25 26  2  0
 26 27  1  0
 27 28  2  0
 28 29  1  0
 19 30  2  0
  5 31  1  0
 31 32  1  0
 32  2  1  0
 30  7  1  0
 17 12  1  0
 29 20  1  0
 28 23  1  0
  1 33  1  0
  1 34  1  0
  2 35  1  1
  3 36  1  0
  3 37  1  0
  4 38  1  0
  4 39  1  0
  5 40  1  6
  6 41  1  0
 10 42  1  0
 11 43  1  0
 11 44  1  0
 13 45  1  0
 14 46  1  0
 15 47  1  0
 16 48  1  0
 17 49  1  0
 21 50  1  0
 21 51  1  0
 22 52  1  0
 22 53  1  0
 24 54  1  0
 25 55  1  0
 26 56  1  0
 27 57  1  0
 29 58  1  0
 29 59  1  0
 31 60  1  0
 31 61  1  0
 32 62  1  0
 32 63  1  0
M  END
>  <smiles>  (78) 
NC1CCC(Nc2nc(NCc3ccccc3)nc(N3CCc4ccccc4C3)n2)CC1

>  <score_type>  (78) 
oracle

>  <origin>  (78) 
autodockgpu

>  <m_score__min__energy>  (78) 
-10.94

>  <m_primary>  (78) 
energy

>  <rmsd>  (78) 
10.634102600621398

>  <m_score__min__rmsd>  (78) 
10.634102600621398

>  <meeko>  (78) 
{"free_energy": -10.21, "intermolecular_energy": -12.3, "internal_energy": -1.24, "cluster_size": 32, "cluster_id": 1, "rank_in_cluster": 11}

>  <energy>  (78) 
-9.36

>  <cluster_rmsd>  (78) 
1.23

>  <cluster>  (78) 
1

$$$$

     RDKit          3D

 63 67  0  0  0  0  0  0  0  0999 V2000
  146.6160   73.7680  219.7460 N   0  0  0  0  0  0  0  0  0  0  0  0
  145.3520   73.7220  220.4730 C   0  0  1  0  0  0  0  0  0  0  0  0
  144.3030   74.5880  219.8550 C   0  0  0  0  0  0  0  0  0  0  0  0
  143.5670   73.9180  218.7040 C   0  0  0  0  0  0  0  0  0  0  0  0
  142.8200   72.6970  219.1660 C   0  0  2  0  0  0  0  0  0  0  0  0
  141.4030   72.9970  219.1860 N   0  0  0  0  0  0  0  0  0  0  0  0
  140.7720   73.3670  220.3830 C   0  0  0  0  0  0  0  0  0  0  0  0
  140.2160   72.4840  221.2280 N   0  0  0  0  0  0  0  0  0  0  0  0
  139.6090   72.8630  222.3790 C   0  0  0  0  0  0  0  0  0  0  0  0
  139.0220   71.8930  223.2680 N   0  0  0  0  0  0  0  0  0  0  0  0
  139.8170   70.7410  223.6480 C   0  0  0  0  0  0  0  0  0  0  0  0
  140.1470   70.8230  225.0890 C   0  0  0  0  0  0  0  0  0  0  0  0
  139.7530   69.7910  225.9060 C   0  0  0  0  0  0  0  0  0  0  0  0
  140.0090   69.7640  227.2710 C   0  0  0  0  0  0  0  0  0  0  0  0
  140.6930   70.8360  227.8090 C   0  0  0  0  0  0  0  0  0  0  0  0
  141.0970   71.8800  227.0110 C   0  0  0  0  0  0  0  0  0  0  0  0
  140.8310   71.8890  225.6450 C   0  0  0  0  0  0  0  0  0  0  0  0
  139.5720   74.1800  222.6710 N   0  0  0  0  0  0  0  0  0  0  0  0
  140.1100   75.1090  221.8620 C   0  0  0  0  0  0  0  0  0  0  0  0
  140.0750   76.5000  222.1620 N   0  0  0  0  0  0  0  0  0  0  0  0
  141.2320   77.1690  222.7270 C   0  0  0  0  0  0  0  0  0  0  0  0
  141.2420   78.5500  222.0610 C   0  0  0  0  0  0  0  0  0  0  0  0
  140.0490   79.2400  222.6470 C   0  0  0  0  0  0  0  0  0  0  0  0
  140.1450   80.4780  223.2470 C   0  0  0  0  0  0  0  0  0  0  0  0
  138.9880   81.0260  223.7550 C   0  0  0  0  0  0  0  0  0  0  0  0
  137.7810   80.3580  223.6640 C   0  0  0  0  0  0  0  0  0  0  0  0
  137.6770   79.1190  223.0660 C   0  0  0  0  0  0  0  0  0  0  0  0
  138.8440   78.5590  222.5500 C   0  0  0  0  0  0  0  0  0  0  0  0
  138.8500   77.2260  221.8820 C   0  0  0  0  0  0  0  0  0  0  0  0
  140.6960   74.6710  220.7370 N   0  0  0  0  0  0  0  0  0  0  0  0
  143.3400   72.3060  220.5150 C   0  0  0  0  0  0  0  0  0  0  0  0
  144.8530   72.2880  220.4700 C   0  0  0  0  0  0  0  0  0  0  0  0
  146.3660   73.8470  218.7350 H   0  0  0  0  0  0  0  0  0  0  0  0
  147.2210   74.5390  220.1000 H   0  0  0  0  0  0  0  0  0  0  0  0
  145.5352   74.0936  221.4920 H   0  0  0  0  0  0  0  0  0  0  0  0
  144.7840   75.5019  219.4763 H   0  0  0  0  0  0  0  0  0  0  0  0
  143.5581   74.8028  220.6354 H   0  0  0  0  0  0  0  0  0  0  0  0
  144.2973   73.6216  217.9366 H   0  0  0  0  0  0  0  0  0  0  0  0
  142.8394   74.6344  218.2949 H   0  0  0  0  0  0  0  0  0  0  0  0
  142.9708   71.8468  218.4846 H   0  0  0  0  0  0  0  0  0  0  0  0
  140.8810   72.9340  218.3080 H   0  0  0  0  0  0  0  0  0  0  0  0
  138.0560   72.0700  223.5930 H   0  0  0  0  0  0  0  0  0  0  0  0
  139.2457   69.8212  223.4544 H   0  0  0  0  0  0  0  0  0  0  0  0
  140.7461   70.7262  223.0592 H   0  0  0  0  0  0  0  0  0  0  0  0
  139.2092   68.9463  225.4580 H   0  0  0  0  0  0  0  0  0  0  0  0
  139.6800   68.9223  227.8982 H   0  0  0  0  0  0  0  0  0  0  0  0
  140.9167   70.8548  228.8859 H   0  0  0  0  0  0  0  0  0  0  0  0
  141.6407   72.7240  227.4606 H   0  0  0  0  0  0  0  0  0  0  0  0
  141.1595   72.7305  225.0174 H   0  0  0  0  0  0  0  0  0  0  0  0
  141.1312   77.2646  223.8182 H   0  0  0  0  0  0  0  0  0  0  0  0
  142.1642   76.6128  222.5493 H   0  0  0  0  0  0  0  0  0  0  0  0
  142.1669   79.0944  222.3023 H   0  0  0  0  0  0  0  0  0  0  0  0
  141.2024   78.4923  220.9632 H   0  0  0  0  0  0  0  0  0  0  0  0
  141.1071   81.0066  223.3170 H   0  0  0  0  0  0  0  0  0  0  0  0
  139.0249   82.0119  224.2414 H   0  0  0  0  0  0  0  0  0  0  0  0
  136.8777   80.8278  224.0803 H   0  0  0  0  0  0  0  0  0  0  0  0
  136.7123   78.5947  222.9993 H   0  0  0  0  0  0  0  0  0  0  0  0
  137.9944   76.6388  222.2468 H   0  0  0  0  0  0  0  0  0  0  0  0
  138.7805   77.3825  220.7954 H   0  0  0  0  0  0  0  0  0  0  0  0
  142.9664   71.3057  220.7792 H   0  0  0  0  0  0  0  0  0  0  0  0
  142.9978   73.0286  221.2705 H   0  0  0  0  0  0  0  0  0  0  0  0
  145.1910   71.7794  219.5551 H   0  0  0  0  0  0  0  0  0  0  0  0
  145.2497   71.7490  221.3430 H   0  0  0  0  0  0  0  0  0  0  0  0
  1  2  1  0
  2  3  1  0
  3  4  1  0
  4  5  1  0
  5  6  1  0
  6  7  1  0
  7  8  2  0
  8  9  1  0
  9 10  1  0
 10 11  1  0
 11 12  1  0
 12 13  2  0
 13 14  1  0
 14 15  2  0
 15 16  1  0
 16 17  2  0
  9 18  2  0
 18 19  1  0
 19 20  1  0
 20 21  1  0
 21 22  1  0
 22 23  1  0
 23 24  2  0
 24 25  1  0
 25 26  2  0
 26 27  1  0
 27 28  2  0
 28 29  1  0
 19 30  2  0
  5 31  1  0
 31 32  1  0
 32  2  1  0
 30  7  1  0
 17 12  1  0
 29 20  1  0
 28 23  1  0
  1 33  1  0
  1 34  1  0
  2 35  1  1
  3 36  1  0
  3 37  1  0
  4 38  1  0
  4 39  1  0
  5 40  1  6
  6 41  1  0
 10 42  1  0
 11 43  1  0
 11 44  1  0
 13 45  1  0
 14 46  1  0
 15 47  1  0
 16 48  1  0
 17 49  1  0
 21 50  1  0
 21 51  1  0
 22 52  1  0
 22 53  1  0
 24 54  1  0
 25 55  1  0
 26 56  1  0
 27 57  1  0
 29 58  1  0
 29 59  1  0
 31 60  1  0
 31 61  1  0
 32 62  1  0
 32 63  1  0
M  END
>  <smiles>  (79) 
NC1CCC(Nc2nc(NCc3ccccc3)nc(N3CCc4ccccc4C3)n2)CC1

>  <score_type>  (79) 
oracle

>  <origin>  (79) 
autodockgpu

>  <m_score__min__energy>  (79) 
-10.94

>  <m_primary>  (79) 
energy

>  <rmsd>  (79) 
9.856617766894479

>  <m_score__min__rmsd>  (79) 
9.856617766894479

>  <meeko>  (79) 
{"free_energy": -9.28, "intermolecular_energy": -11.37, "internal_energy": -1.24, "cluster_size": 32, "cluster_id": 1, "rank_in_cluster": 29}

>  <energy>  (79) 
-9.28

>  <cluster_rmsd>  (79) 
1.48

>  <cluster>  (79) 
1

$$$$

     RDKit          3D

 63 67  0  0  0  0  0  0  0  0999 V2000
  146.3270   73.0410  218.8270 N   0  0  0  0  0  0  0  0  0  0  0  0
  145.5200   72.8620  220.0290 C   0  0  1  0  0  0  0  0  0  0  0  0
  145.1600   74.1600  220.6760 C   0  0  0  0  0  0  0  0  0  0  0  0
  143.9390   74.8250  220.0590 C   0  0  0  0  0  0  0  0  0  0  0  0
  142.7100   73.9740  220.2190 C   0  0  2  0  0  0  0  0  0  0  0  0
  141.8570   74.5710  221.2250 N   0  0  0  0  0  0  0  0  0  0  0  0
  140.6530   73.9530  221.5950 C   0  0  0  0  0  0  0  0  0  0  0  0
  139.4590   74.2970  221.0840 N   0  0  0  0  0  0  0  0  0  0  0  0
  138.3070   73.6870  221.4570 C   0  0  0  0  0  0  0  0  0  0  0  0
  137.0400   74.0750  220.8920 N   0  0  0  0  0  0  0  0  0  0  0  0
  136.3440   75.2040  221.4810 C   0  0  0  0  0  0  0  0  0  0  0  0
  135.8190   74.8190  222.8110 C   0  0  0  0  0  0  0  0  0  0  0  0
  135.2890   73.5600  222.9610 C   0  0  0  0  0  0  0  0  0  0  0  0
  134.7700   73.0940  224.1620 C   0  0  0  0  0  0  0  0  0  0  0  0
  134.7980   73.9550  225.2420 C   0  0  0  0  0  0  0  0  0  0  0  0
  135.3240   75.2190  225.1140 C   0  0  0  0  0  0  0  0  0  0  0  0
  135.8390   75.6680  223.9020 C   0  0  0  0  0  0  0  0  0  0  0  0
  138.3820   72.7000  222.3750 N   0  0  0  0  0  0  0  0  0  0  0  0
  139.5490   72.3150  222.9200 C   0  0  0  0  0  0  0  0  0  0  0  0
  139.6360   71.2750  223.8890 N   0  0  0  0  0  0  0  0  0  0  0  0
  138.6080   70.2560  223.9810 C   0  0  0  0  0  0  0  0  0  0  0  0
  139.3720   68.9660  224.3060 C   0  0  0  0  0  0  0  0  0  0  0  0
  139.8590   69.1800  225.7070 C   0  0  0  0  0  0  0  0  0  0  0  0
  139.6110   68.2690  226.7110 C   0  0  0  0  0  0  0  0  0  0  0  0
  140.1010   68.5590  227.9650 C   0  0  0  0  0  0  0  0  0  0  0  0
  140.8150   69.7200  228.2020 C   0  0  0  0  0  0  0  0  0  0  0  0
  141.0670   70.6370  227.2020 C   0  0  0  0  0  0  0  0  0  0  0  0
  140.5720   70.3490  225.9310 C   0  0  0  0  0  0  0  0  0  0  0  0
  140.7850   71.2670  224.7760 C   0  0  0  0  0  0  0  0  0  0  0  0
  140.6530   72.9570  222.5110 N   0  0  0  0  0  0  0  0  0  0  0  0
  143.1400   72.5860  220.5850 C   0  0  0  0  0  0  0  0  0  0  0  0
  144.2380   72.1480  219.6400 C   0  0  0  0  0  0  0  0  0  0  0  0
  145.7330   72.7210  218.0290 H   0  0  0  0  0  0  0  0  0  0  0  0
  146.6610   74.0250  218.7450 H   0  0  0  0  0  0  0  0  0  0  0  0
  146.1133   72.2812  220.7506 H   0  0  0  0  0  0  0  0  0  0  0  0
  146.0152   74.8454  220.5818 H   0  0  0  0  0  0  0  0  0  0  0  0
  144.9150   73.9422  221.7260 H   0  0  0  0  0  0  0  0  0  0  0  0
  144.1240   74.9882  218.9870 H   0  0  0  0  0  0  0  0  0  0  0  0
  143.7675   75.7806  220.5760 H   0  0  0  0  0  0  0  0  0  0  0  0
  142.1320   73.9155  219.2849 H   0  0  0  0  0  0  0  0  0  0  0  0
  142.1560   75.4500  221.6550 H   0  0  0  0  0  0  0  0  0  0  0  0
  136.6890   73.5260  220.0890 H   0  0  0  0  0  0  0  0  0  0  0  0
  137.0411   76.0476  221.5918 H   0  0  0  0  0  0  0  0  0  0  0  0
  135.5097   75.5020  220.8290 H   0  0  0  0  0  0  0  0  0  0  0  0
  135.2752   72.8898  222.0888 H   0  0  0  0  0  0  0  0  0  0  0  0
  134.3533   72.0798  224.2498 H   0  0  0  0  0  0  0  0  0  0  0  0
  134.3963   73.6268  226.2120 H   0  0  0  0  0  0  0  0  0  0  0  0
  135.3379   75.8883  225.9869 H   0  0  0  0  0  0  0  0  0  0  0  0
  136.2554   76.6823  223.8132 H   0  0  0  0  0  0  0  0  0  0  0  0
  137.8931   70.4964  224.7817 H   0  0  0  0  0  0  0  0  0  0  0  0
  138.0198   70.1712  223.0554 H   0  0  0  0  0  0  0  0  0  0  0  0
  138.7058   68.0923  224.2522 H   0  0  0  0  0  0  0  0  0  0  0  0
  140.1899   68.7670  223.5979 H   0  0  0  0  0  0  0  0  0  0  0  0
  139.0439   67.3464  226.5183 H   0  0  0  0  0  0  0  0  0  0  0  0
  139.9217   67.8559  228.7918 H   0  0  0  0  0  0  0  0  0  0  0  0
  141.1925   69.9178  229.2161 H   0  0  0  0  0  0  0  0  0  0  0  0
  141.6354   71.5578  227.3998 H   0  0  0  0  0  0  0  0  0  0  0  0
  140.9524   72.2861  225.1546 H   0  0  0  0  0  0  0  0  0  0  0  0
  141.6588   70.9138  224.2087 H   0  0  0  0  0  0  0  0  0  0  0  0
  142.2844   71.8999  220.5003 H   0  0  0  0  0  0  0  0  0  0  0  0
  143.5114   72.5716  221.6203 H   0  0  0  0  0  0  0  0  0  0  0  0
  143.9655   72.4106  218.6071 H   0  0  0  0  0  0  0  0  0  0  0  0
  144.3784   71.0589  219.7036 H   0  0  0  0  0  0  0  0  0  0  0  0
  1  2  1  0
  2  3  1  0
  3  4  1  0
  4  5  1  0
  5  6  1  0
  6  7  1  0
  7  8  2  0
  8  9  1  0
  9 10  1  0
 10 11  1  0
 11 12  1  0
 12 13  2  0
 13 14  1  0
 14 15  2  0
 15 16  1  0
 16 17  2  0
  9 18  2  0
 18 19  1  0
 19 20  1  0
 20 21  1  0
 21 22  1  0
 22 23  1  0
 23 24  2  0
 24 25  1  0
 25 26  2  0
 26 27  1  0
 27 28  2  0
 28 29  1  0
 19 30  2  0
  5 31  1  0
 31 32  1  0
 32  2  1  0
 30  7  1  0
 17 12  1  0
 29 20  1  0
 28 23  1  0
  1 33  1  0
  1 34  1  0
  2 35  1  1
  3 36  1  0
  3 37  1  0
  4 38  1  0
  4 39  1  0
  5 40  1  6
  6 41  1  0
 10 42  1  0
 11 43  1  0
 11 44  1  0
 13 45  1  0
 14 46  1  0
 15 47  1  0
 16 48  1  0
 17 49  1  0
 21 50  1  0
 21 51  1  0
 22 52  1  0
 22 53  1  0
 24 54  1  0
 25 55  1  0
 26 56  1  0
 27 57  1  0
 29 58  1  0
 29 59  1  0
 31 60  1  0
 31 61  1  0
 32 62  1  0
 32 63  1  0
M  END
>  <smiles>  (80) 
NC1CCC(Nc2nc(NCc3ccccc3)nc(N3CCc4ccccc4C3)n2)CC1

>  <score_type>  (80) 
oracle

>  <origin>  (80) 
autodockgpu

>  <m_score__min__energy>  (80) 
-10.94

>  <m_primary>  (80) 
energy

>  <rmsd>  (80) 
3.8671961405504898

>  <m_score__min__rmsd>  (80) 
3.8671961405504898

>  <meeko>  (80) 
{"free_energy": -9.56, "intermolecular_energy": -11.64, "internal_energy": -1.28, "cluster_size": 11, "cluster_id": 2, "rank_in_cluster": 6}

>  <energy>  (80) 
-9.25

>  <cluster_rmsd>  (80) 
1.1

>  <cluster>  (80) 
1

$$$$

     RDKit          3D

 63 67  0  0  0  0  0  0  0  0999 V2000
  141.2120   68.4200  226.8720 N   0  0  0  0  0  0  0  0  0  0  0  0
  140.0630   69.2450  226.5120 C   0  0  1  0  0  0  0  0  0  0  0  0
  140.4120   70.6920  226.3870 C   0  0  0  0  0  0  0  0  0  0  0  0
  140.9920   71.0590  225.0300 C   0  0  0  0  0  0  0  0  0  0  0  0
  140.0000   70.8160  223.9250 C   0  0  2  0  0  0  0  0  0  0  0  0
  139.5040   72.0920  223.4550 N   0  0  0  0  0  0  0  0  0  0  0  0
  140.0470   72.6880  222.3070 C   0  0  0  0  0  0  0  0  0  0  0  0
  140.3080   72.0100  221.1780 N   0  0  0  0  0  0  0  0  0  0  0  0
  140.8350   72.6060  220.0790 C   0  0  0  0  0  0  0  0  0  0  0  0
  141.1040   71.8550  218.8790 N   0  0  0  0  0  0  0  0  0  0  0  0
  142.4760   71.4700  218.6040 C   0  0  0  0  0  0  0  0  0  0  0  0
  143.3940   72.3330  219.3810 C   0  0  0  0  0  0  0  0  0  0  0  0
  143.6170   73.6140  218.9340 C   0  0  0  0  0  0  0  0  0  0  0  0
  144.4580   74.5080  219.5840 C   0  0  0  0  0  0  0  0  0  0  0  0
  145.0880   74.0680  220.7320 C   0  0  0  0  0  0  0  0  0  0  0  0
  144.8790   72.7910  221.1970 C   0  0  0  0  0  0  0  0  0  0  0  0
  144.0330   71.9090  220.5310 C   0  0  0  0  0  0  0  0  0  0  0  0
  141.1000   73.9280  220.1410 N   0  0  0  0  0  0  0  0  0  0  0  0
  140.8600   74.6560  221.2450 C   0  0  0  0  0  0  0  0  0  0  0  0
  141.1350   76.0500  221.3200 N   0  0  0  0  0  0  0  0  0  0  0  0
  141.8820   76.7180  220.2700 C   0  0  0  0  0  0  0  0  0  0  0  0
  141.2140   78.0920  220.1360 C   0  0  0  0  0  0  0  0  0  0  0  0
  141.5830   78.7960  221.4070 C   0  0  0  0  0  0  0  0  0  0  0  0
  142.1780   80.0390  221.4040 C   0  0  0  0  0  0  0  0  0  0  0  0
  142.4770   80.6000  222.6250 C   0  0  0  0  0  0  0  0  0  0  0  0
  142.1900   79.9380  223.8050 C   0  0  0  0  0  0  0  0  0  0  0  0
  141.5950   78.6930  223.8160 C   0  0  0  0  0  0  0  0  0  0  0  0
  141.2890   78.1200  222.5830 C   0  0  0  0  0  0  0  0  0  0  0  0
  140.6460   76.7810  222.4740 C   0  0  0  0  0  0  0  0  0  0  0  0
  140.3390   74.0090  222.2990 N   0  0  0  0  0  0  0  0  0  0  0  0
  138.9080   69.9380  224.4540 C   0  0  0  0  0  0  0  0  0  0  0  0
  139.5310   68.7620  225.1750 C   0  0  0  0  0  0  0  0  0  0  0  0
  141.3970   67.8060  226.0480 H   0  0  0  0  0  0  0  0  0  0  0  0
  142.0220   69.0130  227.1550 H   0  0  0  0  0  0  0  0  0  0  0  0
  139.3151   69.1499  227.3130 H   0  0  0  0  0  0  0  0  0  0  0  0
  141.1529   70.9400  227.1613 H   0  0  0  0  0  0  0  0  0  0  0  0
  139.4789   71.2622  226.5060 H   0  0  0  0  0  0  0  0  0  0  0  0
  141.8884   70.4483  224.8469 H   0  0  0  0  0  0  0  0  0  0  0  0
  141.2443   72.1296  225.0394 H   0  0  0  0  0  0  0  0  0  0  0  0
  140.4629   70.3033  223.0689 H   0  0  0  0  0  0  0  0  0  0  0  0
  138.7500   72.5430  223.9810 H   0  0  0  0  0  0  0  0  0  0  0  0
  140.3000   71.6250  218.2720 H   0  0  0  0  0  0  0  0  0  0  0  0
  142.6273   70.4195  218.8929 H   0  0  0  0  0  0  0  0  0  0  0  0
  142.6823   71.5874  217.5299 H   0  0  0  0  0  0  0  0  0  0  0  0
  143.1054   73.9464  218.0187 H   0  0  0  0  0  0  0  0  0  0  0  0
  144.6162   75.5265  219.1998 H   0  0  0  0  0  0  0  0  0  0  0  0
  145.7619   74.7443  221.2782 H   0  0  0  0  0  0  0  0  0  0  0  0
  145.3903   72.4601  222.1130 H   0  0  0  0  0  0  0  0  0  0  0  0
  143.8753   70.8900  220.9140 H   0  0  0  0  0  0  0  0  0  0  0  0
  142.9393   76.8260  220.5538 H   0  0  0  0  0  0  0  0  0  0  0  0
  141.8705   76.1541  219.3256 H   0  0  0  0  0  0  0  0  0  0  0  0
  141.6036   78.6332  219.2612 H   0  0  0  0  0  0  0  0  0  0  0  0
  140.1261   78.0230  219.9890 H   0  0  0  0  0  0  0  0  0  0  0  0
  142.4050   80.5621  220.4633 H   0  0  0  0  0  0  0  0  0  0  0  0
  142.9521   81.5914  222.6629 H   0  0  0  0  0  0  0  0  0  0  0  0
  142.4433   80.4176  224.7620 H   0  0  0  0  0  0  0  0  0  0  0  0
  141.3713   78.1739  224.7597 H   0  0  0  0  0  0  0  0  0  0  0  0
  140.8670   76.2030  223.3835 H   0  0  0  0  0  0  0  0  0  0  0  0
  139.5620   76.9266  222.3570 H   0  0  0  0  0  0  0  0  0  0  0  0
  138.2897   69.5745  223.6200 H   0  0  0  0  0  0  0  0  0  0  0  0
  138.2746   70.5086  225.1492 H   0  0  0  0  0  0  0  0  0  0  0  0
  140.3557   68.3523  224.5734 H   0  0  0  0  0  0  0  0  0  0  0  0
  138.7798   67.9736  225.3304 H   0  0  0  0  0  0  0  0  0  0  0  0
  1  2  1  0
  2  3  1  0
  3  4  1  0
  4  5  1  0
  5  6  1  0
  6  7  1  0
  7  8  2  0
  8  9  1  0
  9 10  1  0
 10 11  1  0
 11 12  1  0
 12 13  2  0
 13 14  1  0
 14 15  2  0
 15 16  1  0
 16 17  2  0
  9 18  2  0
 18 19  1  0
 19 20  1  0
 20 21  1  0
 21 22  1  0
 22 23  1  0
 23 24  2  0
 24 25  1  0
 25 26  2  0
 26 27  1  0
 27 28  2  0
 28 29  1  0
 19 30  2  0
  5 31  1  0
 31 32  1  0
 32  2  1  0
 30  7  1  0
 17 12  1  0
 29 20  1  0
 28 23  1  0
  1 33  1  0
  1 34  1  0
  2 35  1  1
  3 36  1  0
  3 37  1  0
  4 38  1  0
  4 39  1  0
  5 40  1  6
  6 41  1  0
 10 42  1  0
 11 43  1  0
 11 44  1  0
 13 45  1  0
 14 46  1  0
 15 47  1  0
 16 48  1  0
 17 49  1  0
 21 50  1  0
 21 51  1  0
 22 52  1  0
 22 53  1  0
 24 54  1  0
 25 55  1  0
 26 56  1  0
 27 57  1  0
 29 58  1  0
 29 59  1  0
 31 60  1  0
 31 61  1  0
 32 62  1  0
 32 63  1  0
M  END
>  <smiles>  (81) 
NC1CCC(Nc2nc(NCc3ccccc3)nc(N3CCc4ccccc4C3)n2)CC1

>  <score_type>  (81) 
oracle

>  <origin>  (81) 
autodockgpu

>  <m_score__min__energy>  (81) 
-10.94

>  <m_primary>  (81) 
energy

>  <rmsd>  (81) 
10.29408160613694

>  <m_score__min__rmsd>  (81) 
10.29408160613694

>  <meeko>  (81) 
{"free_energy": -8.75, "intermolecular_energy": -10.84, "internal_energy": -1.43, "cluster_size": 4, "cluster_id": 3, "rank_in_cluster": 4}

>  <energy>  (81) 
-9.11

>  <cluster_rmsd>  (81) 
1.34

>  <cluster>  (81) 
1

$$$$

     RDKit          3D

 63 67  0  0  0  0  0  0  0  0999 V2000
  146.3250   73.3720  218.7820 N   0  0  0  0  0  0  0  0  0  0  0  0
  145.5130   73.1550  219.9740 C   0  0  1  0  0  0  0  0  0  0  0  0
  145.1780   74.4290  220.6790 C   0  0  0  0  0  0  0  0  0  0  0  0
  143.9720   75.1460  220.0930 C   0  0  0  0  0  0  0  0  0  0  0  0
  142.7250   74.3140  220.2120 C   0  0  2  0  0  0  0  0  0  0  0  0
  141.8830   74.8820  221.2440 N   0  0  0  0  0  0  0  0  0  0  0  0
  140.6710   74.2670  221.5910 C   0  0  0  0  0  0  0  0  0  0  0  0
  139.4800   74.6610  221.1110 N   0  0  0  0  0  0  0  0  0  0  0  0
  138.3190   74.0530  221.4600 C   0  0  0  0  0  0  0  0  0  0  0  0
  137.0550   74.4960  220.9300 N   0  0  0  0  0  0  0  0  0  0  0  0
  136.3220   75.5120  221.6620 C   0  0  0  0  0  0  0  0  0  0  0  0
  135.7640   74.9210  222.9000 C   0  0  0  0  0  0  0  0  0  0  0  0
  135.6240   75.7300  224.0010 C   0  0  0  0  0  0  0  0  0  0  0  0
  135.1130   75.2820  225.2120 C   0  0  0  0  0  0  0  0  0  0  0  0
  134.7340   73.9560  225.2880 C   0  0  0  0  0  0  0  0  0  0  0  0
  134.8650   73.1280  224.1990 C   0  0  0  0  0  0  0  0  0  0  0  0
  135.3800   73.5960  222.9940 C   0  0  0  0  0  0  0  0  0  0  0  0
  138.3820   73.0160  222.3220 N   0  0  0  0  0  0  0  0  0  0  0  0
  139.5460   72.5790  222.8350 C   0  0  0  0  0  0  0  0  0  0  0  0
  139.6220   71.4870  223.7430 N   0  0  0  0  0  0  0  0  0  0  0  0
  138.6160   70.4410  223.7350 C   0  0  0  0  0  0  0  0  0  0  0  0
  139.3990   69.1520  224.0150 C   0  0  0  0  0  0  0  0  0  0  0  0
  139.8250   69.2930  225.4440 C   0  0  0  0  0  0  0  0  0  0  0  0
  139.5600   68.3190  226.3830 C   0  0  0  0  0  0  0  0  0  0  0  0
  139.9940   68.5450  227.6700 C   0  0  0  0  0  0  0  0  0  0  0  0
  140.6680   69.7060  228.0030 C   0  0  0  0  0  0  0  0  0  0  0  0
  140.9360   70.6860  227.0690 C   0  0  0  0  0  0  0  0  0  0  0  0
  140.4990   70.4630  225.7650 C   0  0  0  0  0  0  0  0  0  0  0  0
  140.7340   71.4520  224.6750 C   0  0  0  0  0  0  0  0  0  0  0  0
  140.6590   73.2220  222.4510 N   0  0  0  0  0  0  0  0  0  0  0  0
  143.1260   72.9020  220.5150 C   0  0  0  0  0  0  0  0  0  0  0  0
  144.2170   72.4860  219.5520 C   0  0  0  0  0  0  0  0  0  0  0  0
  145.6940   73.8160  218.0780 H   0  0  0  0  0  0  0  0  0  0  0  0
  147.1770   73.9300  219.0080 H   0  0  0  0  0  0  0  0  0  0  0  0
  146.0936   72.5301  220.6685 H   0  0  0  0  0  0  0  0  0  0  0  0
  146.0469   75.1006  220.6166 H   0  0  0  0  0  0  0  0  0  0  0  0
  144.9269   74.1682  221.7177 H   0  0  0  0  0  0  0  0  0  0  0  0
  144.1621   75.3551  219.0299 H   0  0  0  0  0  0  0  0  0  0  0  0
  143.8190   76.0796  220.6543 H   0  0  0  0  0  0  0  0  0  0  0  0
  142.1477   74.3101  219.2757 H   0  0  0  0  0  0  0  0  0  0  0  0
  142.1960   75.7380  221.7100 H   0  0  0  0  0  0  0  0  0  0  0  0
  136.7330   74.0650  220.0470 H   0  0  0  0  0  0  0  0  0  0  0  0
  137.0006   76.3374  221.9231 H   0  0  0  0  0  0  0  0  0  0  0  0
  135.5025   75.8956  221.0366 H   0  0  0  0  0  0  0  0  0  0  0  0
  135.9313   76.7831  223.9197 H   0  0  0  0  0  0  0  0  0  0  0  0
  135.0141   75.9559  226.0758 H   0  0  0  0  0  0  0  0  0  0  0  0
  134.3237   73.5593  226.2283 H   0  0  0  0  0  0  0  0  0  0  0  0
  134.5569   72.0753  224.2815 H   0  0  0  0  0  0  0  0  0  0  0  0
  135.4800   72.9226  222.1300 H   0  0  0  0  0  0  0  0  0  0  0  0
  137.8652   70.6178  224.5192 H   0  0  0  0  0  0  0  0  0  0  0  0
  138.0657   70.3975  222.7835 H   0  0  0  0  0  0  0  0  0  0  0  0
  138.7578   68.2680  223.8831 H   0  0  0  0  0  0  0  0  0  0  0  0
  140.2489   69.0145  223.3304 H   0  0  0  0  0  0  0  0  0  0  0  0
  139.0228   67.3974  226.1145 H   0  0  0  0  0  0  0  0  0  0  0  0
  139.8015   67.7897  228.4462 H   0  0  0  0  0  0  0  0  0  0  0  0
  140.9997   69.8523  229.0415 H   0  0  0  0  0  0  0  0  0  0  0  0
  141.4730   71.6061  227.3430 H   0  0  0  0  0  0  0  0  0  0  0  0
  140.8605   72.4505  225.1189 H   0  0  0  0  0  0  0  0  0  0  0  0
  141.6379   71.1522  224.1244 H   0  0  0  0  0  0  0  0  0  0  0  0
  142.2569   72.2379  220.3979 H   0  0  0  0  0  0  0  0  0  0  0  0
  143.4946   72.8325  221.5491 H   0  0  0  0  0  0  0  0  0  0  0  0
  143.9517   72.8013  218.5321 H   0  0  0  0  0  0  0  0  0  0  0  0
  144.3353   71.3925  219.5662 H   0  0  0  0  0  0  0  0  0  0  0  0
  1  2  1  0
  2  3  1  0
  3  4  1  0
  4  5  1  0
  5  6  1  0
  6  7  1  0
  7  8  2  0
  8  9  1  0
  9 10  1  0
 10 11  1  0
 11 12  1  0
 12 13  2  0
 13 14  1  0
 14 15  2  0
 15 16  1  0
 16 17  2  0
  9 18  2  0
 18 19  1  0
 19 20  1  0
 20 21  1  0
 21 22  1  0
 22 23  1  0
 23 24  2  0
 24 25  1  0
 25 26  2  0
 26 27  1  0
 27 28  2  0
 28 29  1  0
 19 30  2  0
  5 31  1  0
 31 32  1  0
 32  2  1  0
 30  7  1  0
 17 12  1  0
 29 20  1  0
 28 23  1  0
  1 33  1  0
  1 34  1  0
  2 35  1  1
  3 36  1  0
  3 37  1  0
  4 38  1  0
  4 39  1  0
  5 40  1  6
  6 41  1  0
 10 42  1  0
 11 43  1  0
 11 44  1  0
 13 45  1  0
 14 46  1  0
 15 47  1  0
 16 48  1  0
 17 49  1  0
 21 50  1  0
 21 51  1  0
 22 52  1  0
 22 53  1  0
 24 54  1  0
 25 55  1  0
 26 56  1  0
 27 57  1  0
 29 58  1  0
 29 59  1  0
 31 60  1  0
 31 61  1  0
 32 62  1  0
 32 63  1  0
M  END
>  <smiles>  (82) 
NC1CCC(Nc2nc(NCc3ccccc3)nc(N3CCc4ccccc4C3)n2)CC1

>  <score_type>  (82) 
oracle

>  <origin>  (82) 
autodockgpu

>  <m_score__min__energy>  (82) 
-10.94

>  <m_primary>  (82) 
energy

>  <rmsd>  (82) 
3.818295637179131

>  <m_score__min__rmsd>  (82) 
3.818295637179131

>  <meeko>  (82) 
{"free_energy": -9.65, "intermolecular_energy": -11.74, "internal_energy": -1.27, "cluster_size": 11, "cluster_id": 2, "rank_in_cluster": 2}

>  <energy>  (82) 
-9.03

>  <cluster_rmsd>  (82) 
1.22

>  <cluster>  (82) 
1

$$$$

     RDKit          3D

 63 67  0  0  0  0  0  0  0  0999 V2000
  146.6680   73.6150  218.9060 N   0  0  0  0  0  0  0  0  0  0  0  0
  145.5090   73.6050  219.7920 C   0  0  1  0  0  0  0  0  0  0  0  0
  144.2270   73.8420  219.0630 C   0  0  0  0  0  0  0  0  0  0  0  0
  143.6490   72.5840  218.4330 C   0  0  0  0  0  0  0  0  0  0  0  0
  143.3020   71.5570  219.4760 C   0  0  2  0  0  0  0  0  0  0  0  0
  141.8620   71.5000  219.6130 N   0  0  0  0  0  0  0  0  0  0  0  0
  141.2110   72.2540  220.6000 C   0  0  0  0  0  0  0  0  0  0  0  0
  140.4250   71.7120  221.5450 N   0  0  0  0  0  0  0  0  0  0  0  0
  139.8040   72.4610  222.4900 C   0  0  0  0  0  0  0  0  0  0  0  0
  138.9670   71.8530  223.4930 N   0  0  0  0  0  0  0  0  0  0  0  0
  139.3800   70.5780  224.0500 C   0  0  0  0  0  0  0  0  0  0  0  0
  139.9080   70.7870  225.4180 C   0  0  0  0  0  0  0  0  0  0  0  0
  140.7510   71.8500  225.6330 C   0  0  0  0  0  0  0  0  0  0  0  0
  141.3040   72.1410  226.8740 C   0  0  0  0  0  0  0  0  0  0  0  0
  140.9750   71.3070  227.9250 C   0  0  0  0  0  0  0  0  0  0  0  0
  140.1330   70.2380  227.7320 C   0  0  0  0  0  0  0  0  0  0  0  0
  139.5900   69.9630  226.4810 C   0  0  0  0  0  0  0  0  0  0  0  0
  139.9940   73.7970  222.4650 N   0  0  0  0  0  0  0  0  0  0  0  0
  140.7690   74.3940  221.5430 C   0  0  0  0  0  0  0  0  0  0  0  0
  140.9750   75.8010  221.5090 N   0  0  0  0  0  0  0  0  0  0  0  0
  141.6060   76.4340  220.3660 C   0  0  0  0  0  0  0  0  0  0  0  0
  140.8580   77.7630  220.2000 C   0  0  0  0  0  0  0  0  0  0  0  0
  141.2810   78.5650  221.3920 C   0  0  0  0  0  0  0  0  0  0  0  0
  141.8080   79.8330  221.2680 C   0  0  0  0  0  0  0  0  0  0  0  0
  142.1660   80.4870  222.4250 C   0  0  0  0  0  0  0  0  0  0  0  0
  142.0010   79.8910  223.6620 C   0  0  0  0  0  0  0  0  0  0  0  0
  141.4750   78.6210  223.7950 C   0  0  0  0  0  0  0  0  0  0  0  0
  141.1110   77.9550  222.6270 C   0  0  0  0  0  0  0  0  0  0  0  0
  140.5330   76.5820  222.6510 C   0  0  0  0  0  0  0  0  0  0  0  0
  141.3560   73.5990  220.6340 N   0  0  0  0  0  0  0  0  0  0  0  0
  143.9830   71.9340  220.7560 C   0  0  0  0  0  0  0  0  0  0  0  0
  145.4350   72.2460  220.4640 C   0  0  0  0  0  0  0  0  0  0  0  0
  146.3250   73.9680  217.9850 H   0  0  0  0  0  0  0  0  0  0  0  0
  147.4470   74.1730  219.3170 H   0  0  0  0  0  0  0  0  0  0  0  0
  145.6347   74.4196  220.5205 H   0  0  0  0  0  0  0  0  0  0  0  0
  144.4097   74.5785  218.2666 H   0  0  0  0  0  0  0  0  0  0  0  0
  143.4951   74.2012  219.8014 H   0  0  0  0  0  0  0  0  0  0  0  0
  144.3909   72.1563  217.7426 H   0  0  0  0  0  0  0  0  0  0  0  0
  142.7283   72.8572  217.8967 H   0  0  0  0  0  0  0  0  0  0  0  0
  143.6491   70.5534  219.1892 H   0  0  0  0  0  0  0  0  0  0  0  0
  141.3360   70.8990  218.9720 H   0  0  0  0  0  0  0  0  0  0  0  0
  138.1080   72.3600  223.7660 H   0  0  0  0  0  0  0  0  0  0  0  0
  138.5164   69.8978  224.0898 H   0  0  0  0  0  0  0  0  0  0  0  0
  140.1639   70.1369  223.4168 H   0  0  0  0  0  0  0  0  0  0  0  0
  141.0001   72.5017  224.7825 H   0  0  0  0  0  0  0  0  0  0  0  0
  141.9763   73.0003  227.0139 H   0  0  0  0  0  0  0  0  0  0  0  0
  141.3905   71.5002  228.9250 H   0  0  0  0  0  0  0  0  0  0  0  0
  139.8836   69.5873  228.5831 H   0  0  0  0  0  0  0  0  0  0  0  0
  138.9182   69.1034  226.3402 H   0  0  0  0  0  0  0  0  0  0  0  0
  142.6742   76.6109  220.5603 H   0  0  0  0  0  0  0  0  0  0  0  0
  141.5547   75.8099  219.4616 H   0  0  0  0  0  0  0  0  0  0  0  0
  141.1529   78.2642  219.2663 H   0  0  0  0  0  0  0  0  0  0  0  0
  139.7674   77.6319  220.1419 H   0  0  0  0  0  0  0  0  0  0  0  0
  141.9374   80.3039  220.2823 H   0  0  0  0  0  0  0  0  0  0  0  0
  142.5902   81.5001  222.3648 H   0  0  0  0  0  0  0  0  0  0  0  0
  142.2971   80.4441  224.5655 H   0  0  0  0  0  0  0  0  0  0  0  0
  141.3486   78.1544  224.7831 H   0  0  0  0  0  0  0  0  0  0  0  0
  140.8503   76.0762  223.5749 H   0  0  0  0  0  0  0  0  0  0  0  0
  139.4371   76.6669  222.6091 H   0  0  0  0  0  0  0  0  0  0  0  0
  143.9207   71.0977  221.4679 H   0  0  0  0  0  0  0  0  0  0  0  0
  143.4926   72.8158  221.1940 H   0  0  0  0  0  0  0  0  0  0  0  0
  145.8526   71.4783  219.7959 H   0  0  0  0  0  0  0  0  0  0  0  0
  146.0142   72.2555  221.3991 H   0  0  0  0  0  0  0  0  0  0  0  0
  1  2  1  0
  2  3  1  0
  3  4  1  0
  4  5  1  0
  5  6  1  0
  6  7  1  0
  7  8  2  0
  8  9  1  0
  9 10  1  0
 10 11  1  0
 11 12  1  0
 12 13  2  0
 13 14  1  0
 14 15  2  0
 15 16  1  0
 16 17  2  0
  9 18  2  0
 18 19  1  0
 19 20  1  0
 20 21  1  0
 21 22  1  0
 22 23  1  0
 23 24  2  0
 24 25  1  0
 25 26  2  0
 26 27  1  0
 27 28  2  0
 28 29  1  0
 19 30  2  0
  5 31  1  0
 31 32  1  0
 32  2  1  0
 30  7  1  0
 17 12  1  0
 29 20  1  0
 28 23  1  0
  1 33  1  0
  1 34  1  0
  2 35  1  1
  3 36  1  0
  3 37  1  0
  4 38  1  0
  4 39  1  0
  5 40  1  6
  6 41  1  0
 10 42  1  0
 11 43  1  0
 11 44  1  0
 13 45  1  0
 14 46  1  0
 15 47  1  0
 16 48  1  0
 17 49  1  0
 21 50  1  0
 21 51  1  0
 22 52  1  0
 22 53  1  0
 24 54  1  0
 25 55  1  0
 26 56  1  0
 27 57  1  0
 29 58  1  0
 29 59  1  0
 31 60  1  0
 31 61  1  0
 32 62  1  0
 32 63  1  0
M  END
>  <smiles>  (83) 
NC1CCC(Nc2nc(NCc3ccccc3)nc(N3CCc4ccccc4C3)n2)CC1

>  <score_type>  (83) 
oracle

>  <origin>  (83) 
autodockgpu

>  <m_score__min__energy>  (83) 
-10.94

>  <m_primary>  (83) 
energy

>  <rmsd>  (83) 
10.134189923859381

>  <m_score__min__rmsd>  (83) 
10.134189923859381

>  <meeko>  (83) 
{"free_energy": -10.29, "intermolecular_energy": -12.37, "internal_energy": -1.36, "cluster_size": 32, "cluster_id": 1, "rank_in_cluster": 9}

>  <energy>  (83) 
-9.66

>  <cluster_rmsd>  (83) 
0.0

>  <cluster>  (83) 
2

$$$$

     RDKit          3D

 63 67  0  0  0  0  0  0  0  0999 V2000
  146.5200   73.4800  219.7230 N   0  0  0  0  0  0  0  0  0  0  0  0
  145.3640   72.9110  220.4070 C   0  0  1  0  0  0  0  0  0  0  0  0
  144.1670   73.8030  220.3480 C   0  0  0  0  0  0  0  0  0  0  0  0
  143.3690   73.6590  219.0620 C   0  0  0  0  0  0  0  0  0  0  0  0
  142.8080   72.2710  218.9140 C   0  0  2  0  0  0  0  0  0  0  0  0
  141.3820   72.3160  219.1580 N   0  0  0  0  0  0  0  0  0  0  0  0
  140.8820   72.8410  220.3590 C   0  0  0  0  0  0  0  0  0  0  0  0
  140.5760   74.1380  220.5260 N   0  0  0  0  0  0  0  0  0  0  0  0
  140.0950   74.6260  221.6970 C   0  0  0  0  0  0  0  0  0  0  0  0
  139.7740   76.0220  221.8480 N   0  0  0  0  0  0  0  0  0  0  0  0
  140.5150   76.9860  221.0560 C   0  0  0  0  0  0  0  0  0  0  0  0
  140.8780   78.1440  221.9040 C   0  0  0  0  0  0  0  0  0  0  0  0
  141.4350   77.8990  223.1360 C   0  0  0  0  0  0  0  0  0  0  0  0
  141.8130   78.9080  224.0110 C   0  0  0  0  0  0  0  0  0  0  0  0
  141.6110   80.2120  223.6020 C   0  0  0  0  0  0  0  0  0  0  0  0
  141.0560   80.4800  222.3740 C   0  0  0  0  0  0  0  0  0  0  0  0
  140.6830   79.4550  221.5100 C   0  0  0  0  0  0  0  0  0  0  0  0
  139.9230   73.7610  222.7190 N   0  0  0  0  0  0  0  0  0  0  0  0
  140.2130   72.4540  222.6090 C   0  0  0  0  0  0  0  0  0  0  0  0
  140.0350   71.5350  223.6820 N   0  0  0  0  0  0  0  0  0  0  0  0
  138.8800   70.6590  223.7270 C   0  0  0  0  0  0  0  0  0  0  0  0
  139.4200   69.3390  224.2920 C   0  0  0  0  0  0  0  0  0  0  0  0
  139.7380   69.6640  225.7200 C   0  0  0  0  0  0  0  0  0  0  0  0
  139.2420   68.9150  226.7650 C   0  0  0  0  0  0  0  0  0  0  0  0
  139.5940   69.2960  228.0410 C   0  0  0  0  0  0  0  0  0  0  0  0
  140.4140   70.3880  228.2590 C   0  0  0  0  0  0  0  0  0  0  0  0
  140.9140   71.1430  227.2180 C   0  0  0  0  0  0  0  0  0  0  0  0
  140.5610   70.7620  225.9250 C   0  0  0  0  0  0  0  0  0  0  0  0
  141.0440   71.5030  224.7250 C   0  0  0  0  0  0  0  0  0  0  0  0
  140.6870   72.0320  221.4260 N   0  0  0  0  0  0  0  0  0  0  0  0
  143.5240   71.3680  219.8720 C   0  0  0  0  0  0  0  0  0  0  0  0
  145.0150   71.5950  219.7370 C   0  0  0  0  0  0  0  0  0  0  0  0
  147.0770   72.6690  219.3720 H   0  0  0  0  0  0  0  0  0  0  0  0
  146.2220   74.1490  218.9800 H   0  0  0  0  0  0  0  0  0  0  0  0
  145.6301   72.7774  221.4659 H   0  0  0  0  0  0  0  0  0  0  0  0
  144.5051   74.8462  220.4335 H   0  0  0  0  0  0  0  0  0  0  0  0
  143.5039   73.5115  221.1758 H   0  0  0  0  0  0  0  0  0  0  0  0
  144.0276   73.8714  218.2069 H   0  0  0  0  0  0  0  0  0  0  0  0
  142.5294   74.3689  219.0954 H   0  0  0  0  0  0  0  0  0  0  0  0
  142.9588   71.8773  217.8980 H   0  0  0  0  0  0  0  0  0  0  0  0
  140.7540   71.9570  218.4340 H   0  0  0  0  0  0  0  0  0  0  0  0
  139.0260   76.2680  222.5190 H   0  0  0  0  0  0  0  0  0  0  0  0
  141.4297   76.5153  220.6665 H   0  0  0  0  0  0  0  0  0  0  0  0
  139.8926   77.3269  220.2155 H   0  0  0  0  0  0  0  0  0  0  0  0
  141.5886   76.8540  223.4433 H   0  0  0  0  0  0  0  0  0  0  0  0
  142.2559   78.6784  224.9914 H   0  0  0  0  0  0  0  0  0  0  0  0
  141.8967   81.0422  224.2646 H   0  0  0  0  0  0  0  0  0  0  0  0
  140.9035   81.5255  222.0678 H   0  0  0  0  0  0  0  0  0  0  0  0
  140.2402   79.6839  220.5294 H   0  0  0  0  0  0  0  0  0  0  0  0
  138.1025   71.0743  224.3851 H   0  0  0  0  0  0  0  0  0  0  0  0
  138.4136   70.5311  222.7390 H   0  0  0  0  0  0  0  0  0  0  0  0
  138.6597   68.5464  224.2306 H   0  0  0  0  0  0  0  0  0  0  0  0
  140.2926   68.9643  223.7368 H   0  0  0  0  0  0  0  0  0  0  0  0
  138.5904   68.0468  226.5871 H   0  0  0  0  0  0  0  0  0  0  0  0
  139.2168   68.7224  228.9005 H   0  0  0  0  0  0  0  0  0  0  0  0
  140.6751   70.6625  229.2917 H   0  0  0  0  0  0  0  0  0  0  0  0
  141.5649   72.0106  227.4014 H   0  0  0  0  0  0  0  0  0  0  0  0
  141.2906   72.5346  225.0164 H   0  0  0  0  0  0  0  0  0  0  0  0
  141.9320   70.9860  224.3325 H   0  0  0  0  0  0  0  0  0  0  0  0
  143.2873   70.3194  219.6385 H   0  0  0  0  0  0  0  0  0  0  0  0
  143.2048   71.5877  220.9015 H   0  0  0  0  0  0  0  0  0  0  0  0
  145.2892   71.6363  218.6725 H   0  0  0  0  0  0  0  0  0  0  0  0
  145.5665   70.7713  220.2138 H   0  0  0  0  0  0  0  0  0  0  0  0
  1  2  1  0
  2  3  1  0
  3  4  1  0
  4  5  1  0
  5  6  1  0
  6  7  1  0
  7  8  2  0
  8  9  1  0
  9 10  1  0
 10 11  1  0
 11 12  1  0
 12 13  2  0
 13 14  1  0
 14 15  2  0
 15 16  1  0
 16 17  2  0
  9 18  2  0
 18 19  1  0
 19 20  1  0
 20 21  1  0
 21 22  1  0
 22 23  1  0
 23 24  2  0
 24 25  1  0
 25 26  2  0
 26 27  1  0
 27 28  2  0
 28 29  1  0
 19 30  2  0
  5 31  1  0
 31 32  1  0
 32  2  1  0
 30  7  1  0
 17 12  1  0
 29 20  1  0
 28 23  1  0
  1 33  1  0
  1 34  1  0
  2 35  1  1
  3 36  1  0
  3 37  1  0
  4 38  1  0
  4 39  1  0
  5 40  1  6
  6 41  1  0
 10 42  1  0
 11 43  1  0
 11 44  1  0
 13 45  1  0
 14 46  1  0
 15 47  1  0
 16 48  1  0
 17 49  1  0
 21 50  1  0
 21 51  1  0
 22 52  1  0
 22 53  1  0
 24 54  1  0
 25 55  1  0
 26 56  1  0
 27 57  1  0
 29 58  1  0
 29 59  1  0
 31 60  1  0
 31 61  1  0
 32 62  1  0
 32 63  1  0
M  END
>  <smiles>  (84) 
NC1CCC(Nc2nc(NCc3ccccc3)nc(N3CCc4ccccc4C3)n2)CC1

>  <score_type>  (84) 
oracle

>  <origin>  (84) 
autodockgpu

>  <m_score__min__energy>  (84) 
-10.94

>  <m_primary>  (84) 
energy

>  <rmsd>  (84) 
3.9121605015319787

>  <m_score__min__rmsd>  (84) 
3.9121605015319787

>  <meeko>  (84) 
{"free_energy": -9.25, "intermolecular_energy": -11.34, "internal_energy": -1.2, "cluster_size": 32, "cluster_id": 1, "rank_in_cluster": 30}

>  <energy>  (84) 
-9.65

>  <cluster_rmsd>  (84) 
0.18

>  <cluster>  (84) 
2

$$$$

     RDKit          3D

 63 67  0  0  0  0  0  0  0  0999 V2000
  146.3190   73.0710  218.5740 N   0  0  0  0  0  0  0  0  0  0  0  0
  145.2530   72.7430  219.5150 C   0  0  1  0  0  0  0  0  0  0  0  0
  144.0410   73.5970  219.3290 C   0  0  0  0  0  0  0  0  0  0  0  0
  143.1110   73.0960  218.2350 C   0  0  0  0  0  0  0  0  0  0  0  0
  142.5630   71.7340  218.5590 C   0  0  2  0  0  0  0  0  0  0  0  0
  141.1710   71.8680  218.9330 N   0  0  0  0  0  0  0  0  0  0  0  0
  140.8130   72.5380  220.1120 C   0  0  0  0  0  0  0  0  0  0  0  0
  140.2290   71.9300  221.1580 N   0  0  0  0  0  0  0  0  0  0  0  0
  139.8900   72.5970  222.2890 C   0  0  0  0  0  0  0  0  0  0  0  0
  139.2660   71.9200  223.3970 N   0  0  0  0  0  0  0  0  0  0  0  0
  139.8830   70.7040  223.8930 C   0  0  0  0  0  0  0  0  0  0  0  0
  140.2100   70.8690  225.3280 C   0  0  0  0  0  0  0  0  0  0  0  0
  139.6810   69.9700  226.2230 C   0  0  0  0  0  0  0  0  0  0  0  0
  139.9210   70.0290  227.5890 C   0  0  0  0  0  0  0  0  0  0  0  0
  140.7340   71.0480  228.0470 C   0  0  0  0  0  0  0  0  0  0  0  0
  141.2740   71.9580  227.1700 C   0  0  0  0  0  0  0  0  0  0  0  0
  141.0210   71.8830  225.8030 C   0  0  0  0  0  0  0  0  0  0  0  0
  140.1560   73.9190  222.3480 N   0  0  0  0  0  0  0  0  0  0  0  0
  140.7370   74.5800  221.3310 C   0  0  0  0  0  0  0  0  0  0  0  0
  141.0210   75.9730  221.3850 N   0  0  0  0  0  0  0  0  0  0  0  0
  141.7870   76.6180  220.3350 C   0  0  0  0  0  0  0  0  0  0  0  0
  141.1310   77.9940  220.1680 C   0  0  0  0  0  0  0  0  0  0  0  0
  141.4860   78.7170  221.4310 C   0  0  0  0  0  0  0  0  0  0  0  0
  142.0900   79.9560  221.4150 C   0  0  0  0  0  0  0  0  0  0  0  0
  142.3750   80.5370  222.6310 C   0  0  0  0  0  0  0  0  0  0  0  0
  142.0660   79.8980  223.8180 C   0  0  0  0  0  0  0  0  0  0  0  0
  141.4620   78.6570  223.8420 C   0  0  0  0  0  0  0  0  0  0  0  0
  141.1710   78.0640  222.6140 C   0  0  0  0  0  0  0  0  0  0  0  0
  140.5200   76.7270  222.5200 C   0  0  0  0  0  0  0  0  0  0  0  0
  141.0490   73.8640  220.2400 N   0  0  0  0  0  0  0  0  0  0  0  0
  143.3940   71.1390  219.6550 C   0  0  0  0  0  0  0  0  0  0  0  0
  144.8570   71.2940  219.2990 C   0  0  0  0  0  0  0  0  0  0  0  0
  146.0050   72.7120  217.6450 H   0  0  0  0  0  0  0  0  0  0  0  0
  146.5290   74.0920  218.5900 H   0  0  0  0  0  0  0  0  0  0  0  0
  145.6339   72.9198  220.5317 H   0  0  0  0  0  0  0  0  0  0  0  0
  144.3681   74.6147  219.0695 H   0  0  0  0  0  0  0  0  0  0  0  0
  143.4765   73.5695  220.2727 H   0  0  0  0  0  0  0  0  0  0  0  0
  143.6692   73.0409  217.2888 H   0  0  0  0  0  0  0  0  0  0  0  0
  142.2672   73.7967  218.1515 H   0  0  0  0  0  0  0  0  0  0  0  0
  142.6108   71.0598  217.6912 H   0  0  0  0  0  0  0  0  0  0  0  0
  140.4610   71.4650  218.3160 H   0  0  0  0  0  0  0  0  0  0  0  0
  138.4030   72.3380  223.7850 H   0  0  0  0  0  0  0  0  0  0  0  0
  139.1859   69.8620  223.7698 H   0  0  0  0  0  0  0  0  0  0  0  0
  140.8042   70.5017  223.3269 H   0  0  0  0  0  0  0  0  0  0  0  0
  139.0368   69.1655  225.8386 H   0  0  0  0  0  0  0  0  0  0  0  0
  139.4815   69.2939  228.2792 H   0  0  0  0  0  0  0  0  0  0  0  0
  140.9508   71.1316  229.1222 H   0  0  0  0  0  0  0  0  0  0  0  0
  141.9188   72.7614  227.5557 H   0  0  0  0  0  0  0  0  0  0  0  0
  141.4591   72.6184  225.1122 H   0  0  0  0  0  0  0  0  0  0  0  0
  142.8409   76.7236  220.6320 H   0  0  0  0  0  0  0  0  0  0  0  0
  141.7845   76.0382  219.4002 H   0  0  0  0  0  0  0  0  0  0  0  0
  141.5371   78.5174  219.2899 H   0  0  0  0  0  0  0  0  0  0  0  0
  140.0448   77.9298  220.0065 H   0  0  0  0  0  0  0  0  0  0  0  0
  142.3347   80.4607  220.4687 H   0  0  0  0  0  0  0  0  0  0  0  0
  142.8564   81.5257  222.6584 H   0  0  0  0  0  0  0  0  0  0  0  0
  142.3084   80.3928  224.7701 H   0  0  0  0  0  0  0  0  0  0  0  0
  141.2201   78.1563  224.7911 H   0  0  0  0  0  0  0  0  0  0  0  0
  140.7245   76.1636  223.4424 H   0  0  0  0  0  0  0  0  0  0  0  0
  139.4385   76.8769  222.3861 H   0  0  0  0  0  0  0  0  0  0  0  0
  143.1515   70.0717  219.7645 H   0  0  0  0  0  0  0  0  0  0  0  0
  143.1843   71.6544  220.6039 H   0  0  0  0  0  0  0  0  0  0  0  0
  145.0138   71.0193  218.2454 H   0  0  0  0  0  0  0  0  0  0  0  0
  145.4711   70.6365  219.9319 H   0  0  0  0  0  0  0  0  0  0  0  0
  1  2  1  0
  2  3  1  0
  3  4  1  0
  4  5  1  0
  5  6  1  0
  6  7  1  0
  7  8  2  0
  8  9  1  0
  9 10  1  0
 10 11  1  0
 11 12  1  0
 12 13  2  0
 13 14  1  0
 14 15  2  0
 15 16  1  0
 16 17  2  0
  9 18  2  0
 18 19  1  0
 19 20  1  0
 20 21  1  0
 21 22  1  0
 22 23  1  0
 23 24  2  0
 24 25  1  0
 25 26  2  0
 26 27  1  0
 27 28  2  0
 28 29  1  0
 19 30  2  0
  5 31  1  0
 31 32  1  0
 32  2  1  0
 30  7  1  0
 17 12  1  0
 29 20  1  0
 28 23  1  0
  1 33  1  0
  1 34  1  0
  2 35  1  1
  3 36  1  0
  3 37  1  0
  4 38  1  0
  4 39  1  0
  5 40  1  6
  6 41  1  0
 10 42  1  0
 11 43  1  0
 11 44  1  0
 13 45  1  0
 14 46  1  0
 15 47  1  0
 16 48  1  0
 17 49  1  0
 21 50  1  0
 21 51  1  0
 22 52  1  0
 22 53  1  0
 24 54  1  0
 25 55  1  0
 26 56  1  0
 27 57  1  0
 29 58  1  0
 29 59  1  0
 31 60  1  0
 31 61  1  0
 32 62  1  0
 32 63  1  0
M  END
>  <smiles>  (85) 
NC1CCC(Nc2nc(NCc3ccccc3)nc(N3CCc4ccccc4C3)n2)CC1

>  <score_type>  (85) 
oracle

>  <origin>  (85) 
autodockgpu

>  <m_score__min__energy>  (85) 
-10.94

>  <m_primary>  (85) 
energy

>  <rmsd>  (85) 
10.20862374951417

>  <m_score__min__rmsd>  (85) 
10.20862374951417

>  <meeko>  (85) 
{"free_energy": -10.33, "intermolecular_energy": -12.42, "internal_energy": -1.24, "cluster_size": 32, "cluster_id": 1, "rank_in_cluster": 8}

>  <energy>  (85) 
-9.62

>  <cluster_rmsd>  (85) 
0.17

>  <cluster>  (85) 
2

$$$$

     RDKit          3D

 63 67  0  0  0  0  0  0  0  0999 V2000
  146.5890   73.6400  219.6170 N   0  0  0  0  0  0  0  0  0  0  0  0
  145.4640   73.0250  220.3120 C   0  0  1  0  0  0  0  0  0  0  0  0
  144.2050   73.8190  220.1790 C   0  0  0  0  0  0  0  0  0  0  0  0
  143.4490   73.5420  218.8890 C   0  0  0  0  0  0  0  0  0  0  0  0
  142.9980   72.1090  218.8130 C   0  0  2  0  0  0  0  0  0  0  0  0
  141.5670   72.0590  219.0290 N   0  0  0  0  0  0  0  0  0  0  0  0
  140.9960   72.6660  220.1570 C   0  0  0  0  0  0  0  0  0  0  0  0
  140.6420   73.9610  220.1990 N   0  0  0  0  0  0  0  0  0  0  0  0
  140.0930   74.5290  221.3010 C   0  0  0  0  0  0  0  0  0  0  0  0
  139.7220   75.9210  221.3180 N   0  0  0  0  0  0  0  0  0  0  0  0
  139.4430   76.5400  222.6000 C   0  0  0  0  0  0  0  0  0  0  0  0
  140.1990   77.8080  222.7100 C   0  0  0  0  0  0  0  0  0  0  0  0
  141.3980   77.9090  222.0450 C   0  0  0  0  0  0  0  0  0  0  0  0
  142.1890   79.0500  222.0780 C   0  0  0  0  0  0  0  0  0  0  0  0
  141.7290   80.1200  222.8190 C   0  0  0  0  0  0  0  0  0  0  0  0
  140.5320   80.0410  223.4920 C   0  0  0  0  0  0  0  0  0  0  0  0
  139.7530   78.8890  223.4470 C   0  0  0  0  0  0  0  0  0  0  0  0
  139.9000   73.7480  222.3860 N   0  0  0  0  0  0  0  0  0  0  0  0
  140.2360   72.4460  222.4010 C   0  0  0  0  0  0  0  0  0  0  0  0
  140.0360   71.6160  223.5390 N   0  0  0  0  0  0  0  0  0  0  0  0
  138.8300   70.8220  223.6790 C   0  0  0  0  0  0  0  0  0  0  0  0
  139.3040   69.5110  224.3190 C   0  0  0  0  0  0  0  0  0  0  0  0
  139.6910   69.9100  225.7100 C   0  0  0  0  0  0  0  0  0  0  0  0
  139.1840   69.2670  226.8190 C   0  0  0  0  0  0  0  0  0  0  0  0
  139.6030   69.7090  228.0540 C   0  0  0  0  0  0  0  0  0  0  0  0
  140.4970   70.7570  228.1720 C   0  0  0  0  0  0  0  0  0  0  0  0
  141.0090   71.4060  227.0660 C   0  0  0  0  0  0  0  0  0  0  0  0
  140.5880   70.9630  225.8140 C   0  0  0  0  0  0  0  0  0  0  0  0
  141.0760   71.5880  224.5520 C   0  0  0  0  0  0  0  0  0  0  0  0
  140.7760   71.9440  221.2800 N   0  0  0  0  0  0  0  0  0  0  0  0
  143.7570   71.3190  219.8350 C   0  0  0  0  0  0  0  0  0  0  0  0
  145.2290   71.6500  219.7140 C   0  0  0  0  0  0  0  0  0  0  0  0
  146.2860   73.7620  218.6250 H   0  0  0  0  0  0  0  0  0  0  0  0
  146.8810   74.5240  220.0880 H   0  0  0  0  0  0  0  0  0  0  0  0
  145.7158   72.9726  221.3815 H   0  0  0  0  0  0  0  0  0  0  0  0
  144.4623   74.8881  220.2096 H   0  0  0  0  0  0  0  0  0  0  0  0
  143.5470   73.5254  221.0101 H   0  0  0  0  0  0  0  0  0  0  0  0
  144.1087   73.7552  218.0350 H   0  0  0  0  0  0  0  0  0  0  0  0
  142.5580   74.1867  218.8651 H   0  0  0  0  0  0  0  0  0  0  0  0
  143.2017   71.6710  217.8247 H   0  0  0  0  0  0  0  0  0  0  0  0
  140.9880   71.5730  218.3380 H   0  0  0  0  0  0  0  0  0  0  0  0
  139.6750   76.4110  220.4090 H   0  0  0  0  0  0  0  0  0  0  0  0
  138.3657   76.7471  222.6806 H   0  0  0  0  0  0  0  0  0  0  0  0
  139.7469   75.8602  223.4096 H   0  0  0  0  0  0  0  0  0  0  0  0
  141.7471   77.0457  221.4594 H   0  0  0  0  0  0  0  0  0  0  0  0
  143.1444   79.0992  221.5351 H   0  0  0  0  0  0  0  0  0  0  0  0
  142.3246   81.0433  222.8717 H   0  0  0  0  0  0  0  0  0  0  0  0
  140.1839   80.9051  224.0770 H   0  0  0  0  0  0  0  0  0  0  0  0
  138.7973   78.8393  223.9894 H   0  0  0  0  0  0  0  0  0  0  0  0
  138.1029   71.3310  224.3288 H   0  0  0  0  0  0  0  0  0  0  0  0
  138.3237   70.6579  222.7163 H   0  0  0  0  0  0  0  0  0  0  0  0
  138.4931   68.7679  224.3360 H   0  0  0  0  0  0  0  0  0  0  0  0
  140.1315   69.0431  223.7656 H   0  0  0  0  0  0  0  0  0  0  0  0
  138.4727   68.4336  226.7212 H   0  0  0  0  0  0  0  0  0  0  0  0
  139.2200   69.2201  228.9619 H   0  0  0  0  0  0  0  0  0  0  0  0
  140.8092   71.0830  229.1751 H   0  0  0  0  0  0  0  0  0  0  0  0
  141.7202   72.2388  227.1692 H   0  0  0  0  0  0  0  0  0  0  0  0
  141.3974   72.6185  224.7638 H   0  0  0  0  0  0  0  0  0  0  0  0
  141.9155   70.9884  224.1703 H   0  0  0  0  0  0  0  0  0  0  0  0
  143.6043   70.2439  219.6591 H   0  0  0  0  0  0  0  0  0  0  0  0
  143.3991   71.5722  220.8439 H   0  0  0  0  0  0  0  0  0  0  0  0
  145.5232   71.6511  218.6541 H   0  0  0  0  0  0  0  0  0  0  0  0
  145.8294   70.8990  220.2483 H   0  0  0  0  0  0  0  0  0  0  0  0
  1  2  1  0
  2  3  1  0
  3  4  1  0
  4  5  1  0
  5  6  1  0
  6  7  1  0
  7  8  2  0
  8  9  1  0
  9 10  1  0
 10 11  1  0
 11 12  1  0
 12 13  2  0
 13 14  1  0
 14 15  2  0
 15 16  1  0
 16 17  2  0
  9 18  2  0
 18 19  1  0
 19 20  1  0
 20 21  1  0
 21 22  1  0
 22 23  1  0
 23 24  2  0
 24 25  1  0
 25 26  2  0
 26 27  1  0
 27 28  2  0
 28 29  1  0
 19 30  2  0
  5 31  1  0
 31 32  1  0
 32  2  1  0
 30  7  1  0
 17 12  1  0
 29 20  1  0
 28 23  1  0
  1 33  1  0
  1 34  1  0
  2 35  1  1
  3 36  1  0
  3 37  1  0
  4 38  1  0
  4 39  1  0
  5 40  1  6
  6 41  1  0
 10 42  1  0
 11 43  1  0
 11 44  1  0
 13 45  1  0
 14 46  1  0
 15 47  1  0
 16 48  1  0
 17 49  1  0
 21 50  1  0
 21 51  1  0
 22 52  1  0
 22 53  1  0
 24 54  1  0
 25 55  1  0
 26 56  1  0
 27 57  1  0
 29 58  1  0
 29 59  1  0
 31 60  1  0
 31 61  1  0
 32 62  1  0
 32 63  1  0
M  END
>  <smiles>  (86) 
NC1CCC(Nc2nc(NCc3ccccc3)nc(N3CCc4ccccc4C3)n2)CC1

>  <score_type>  (86) 
oracle

>  <origin>  (86) 
autodockgpu

>  <m_score__min__energy>  (86) 
-10.94

>  <m_primary>  (86) 
energy

>  <rmsd>  (86) 
3.9323045098161598

>  <m_score__min__rmsd>  (86) 
3.9323045098161598

>  <meeko>  (86) 
{"free_energy": -9.67, "intermolecular_energy": -11.76, "internal_energy": -1.19, "cluster_size": 32, "cluster_id": 1, "rank_in_cluster": 24}

>  <energy>  (86) 
-9.62

>  <cluster_rmsd>  (86) 
0.1

>  <cluster>  (86) 
2

$$$$

     RDKit          3D

 63 67  0  0  0  0  0  0  0  0999 V2000
  146.7790   73.7690  219.2770 N   0  0  0  0  0  0  0  0  0  0  0  0
  145.5720   73.6960  220.0940 C   0  0  1  0  0  0  0  0  0  0  0  0
  144.3500   74.1310  219.3520 C   0  0  0  0  0  0  0  0  0  0  0  0
  143.7370   73.0320  218.4980 C   0  0  0  0  0  0  0  0  0  0  0  0
  143.2700   71.8770  219.3420 C   0  0  2  0  0  0  0  0  0  0  0  0
  141.8240   71.8960  219.3990 N   0  0  0  0  0  0  0  0  0  0  0  0
  141.1610   72.6370  220.3870 C   0  0  0  0  0  0  0  0  0  0  0  0
  140.2870   72.0970  221.2530 N   0  0  0  0  0  0  0  0  0  0  0  0
  139.6550   72.8330  222.2010 C   0  0  0  0  0  0  0  0  0  0  0  0
  138.7230   72.2280  223.1180 N   0  0  0  0  0  0  0  0  0  0  0  0
  138.9880   70.8760  223.5720 C   0  0  0  0  0  0  0  0  0  0  0  0
  139.6890   70.9230  224.8750 C   0  0  0  0  0  0  0  0  0  0  0  0
  139.3540   69.9920  225.8280 C   0  0  0  0  0  0  0  0  0  0  0  0
  139.9470   69.9430  227.0830 C   0  0  0  0  0  0  0  0  0  0  0  0
  140.9170   70.8860  227.3630 C   0  0  0  0  0  0  0  0  0  0  0  0
  141.2680   71.8270  226.4250 C   0  0  0  0  0  0  0  0  0  0  0  0
  140.6620   71.8600  225.1730 C   0  0  0  0  0  0  0  0  0  0  0  0
  139.9270   74.1540  222.2620 N   0  0  0  0  0  0  0  0  0  0  0  0
  140.7910   74.7480  221.4210 C   0  0  0  0  0  0  0  0  0  0  0  0
  141.0840   76.1400  221.4790 N   0  0  0  0  0  0  0  0  0  0  0  0
  141.8310   76.7870  220.4170 C   0  0  0  0  0  0  0  0  0  0  0  0
  141.1790   78.1680  220.2740 C   0  0  0  0  0  0  0  0  0  0  0  0
  141.5640   78.8800  221.5340 C   0  0  0  0  0  0  0  0  0  0  0  0
  142.1740   80.1170  221.5150 C   0  0  0  0  0  0  0  0  0  0  0  0
  142.4870   80.6870  222.7280 C   0  0  0  0  0  0  0  0  0  0  0  0
  142.2000   80.0410  223.9170 C   0  0  0  0  0  0  0  0  0  0  0  0
  141.5910   78.8030  223.9440 C   0  0  0  0  0  0  0  0  0  0  0  0
  141.2710   78.2210  222.7190 C   0  0  0  0  0  0  0  0  0  0  0  0
  140.6100   76.8880  222.6290 C   0  0  0  0  0  0  0  0  0  0  0  0
  141.3840   73.9660  220.5050 N   0  0  0  0  0  0  0  0  0  0  0  0
  143.8970   71.9980  220.6970 C   0  0  0  0  0  0  0  0  0  0  0  0
  145.3790   72.2540  220.5300 C   0  0  0  0  0  0  0  0  0  0  0  0
  146.4550   73.9040  218.2940 H   0  0  0  0  0  0  0  0  0  0  0  0
  147.4190   74.5160  219.6250 H   0  0  0  0  0  0  0  0  0  0  0  0
  145.7031   74.3734  220.9507 H   0  0  0  0  0  0  0  0  0  0  0  0
  144.6213   74.9714  218.6962 H   0  0  0  0  0  0  0  0  0  0  0  0
  143.5985   74.4148  220.1034 H   0  0  0  0  0  0  0  0  0  0  0  0
  144.4915   72.6711  217.7835 H   0  0  0  0  0  0  0  0  0  0  0  0
  142.8669   73.4488  217.9696 H   0  0  0  0  0  0  0  0  0  0  0  0
  143.5731   70.9108  218.9123 H   0  0  0  0  0  0  0  0  0  0  0  0
  141.3030   71.3570  218.7010 H   0  0  0  0  0  0  0  0  0  0  0  0
  137.9070   72.7930  223.4080 H   0  0  0  0  0  0  0  0  0  0  0  0
  138.0375   70.3343  223.6861 H   0  0  0  0  0  0  0  0  0  0  0  0
  139.6183   70.3578  222.8343 H   0  0  0  0  0  0  0  0  0  0  0  0
  138.5791   69.2499  225.5856 H   0  0  0  0  0  0  0  0  0  0  0  0
  139.6561   69.1840  227.8241 H   0  0  0  0  0  0  0  0  0  0  0  0
  141.4126   70.8836  228.3451 H   0  0  0  0  0  0  0  0  0  0  0  0
  142.0431   72.5685  226.6687 H   0  0  0  0  0  0  0  0  0  0  0  0
  140.9521   72.6193  224.4318 H   0  0  0  0  0  0  0  0  0  0  0  0
  142.8917   76.8845  220.6916 H   0  0  0  0  0  0  0  0  0  0  0  0
  141.8054   76.2135  219.4787 H   0  0  0  0  0  0  0  0  0  0  0  0
  141.5694   78.6957  219.3913 H   0  0  0  0  0  0  0  0  0  0  0  0
  140.0893   78.1104  220.1352 H   0  0  0  0  0  0  0  0  0  0  0  0
  142.4013   80.6278  220.5677 H   0  0  0  0  0  0  0  0  0  0  0  0
  142.9737   81.6732  222.7524 H   0  0  0  0  0  0  0  0  0  0  0  0
  142.4646   80.5276  224.8674 H   0  0  0  0  0  0  0  0  0  0  0  0
  141.3672   78.2960  224.8942 H   0  0  0  0  0  0  0  0  0  0  0  0
  140.8296   76.3169  223.5431 H   0  0  0  0  0  0  0  0  0  0  0  0
  139.5269   77.0447  222.5184 H   0  0  0  0  0  0  0  0  0  0  0  0
  143.7445   71.0649  221.2592 H   0  0  0  0  0  0  0  0  0  0  0  0
  143.4348   72.8299  221.2487 H   0  0  0  0  0  0  0  0  0  0  0  0
  145.7888   71.5771  219.7659 H   0  0  0  0  0  0  0  0  0  0  0  0
  145.9024   72.0741  221.4806 H   0  0  0  0  0  0  0  0  0  0  0  0
  1  2  1  0
  2  3  1  0
  3  4  1  0
  4  5  1  0
  5  6  1  0
  6  7  1  0
  7  8  2  0
  8  9  1  0
  9 10  1  0
 10 11  1  0
 11 12  1  0
 12 13  2  0
 13 14  1  0
 14 15  2  0
 15 16  1  0
 16 17  2  0
  9 18  2  0
 18 19  1  0
 19 20  1  0
 20 21  1  0
 21 22  1  0
 22 23  1  0
 23 24  2  0
 24 25  1  0
 25 26  2  0
 26 27  1  0
 27 28  2  0
 28 29  1  0
 19 30  2  0
  5 31  1  0
 31 32  1  0
 32  2  1  0
 30  7  1  0
 17 12  1  0
 29 20  1  0
 28 23  1  0
  1 33  1  0
  1 34  1  0
  2 35  1  1
  3 36  1  0
  3 37  1  0
  4 38  1  0
  4 39  1  0
  5 40  1  6
  6 41  1  0
 10 42  1  0
 11 43  1  0
 11 44  1  0
 13 45  1  0
 14 46  1  0
 15 47  1  0
 16 48  1  0
 17 49  1  0
 21 50  1  0
 21 51  1  0
 22 52  1  0
 22 53  1  0
 24 54  1  0
 25 55  1  0
 26 56  1  0
 27 57  1  0
 29 58  1  0
 29 59  1  0
 31 60  1  0
 31 61  1  0
 32 62  1  0
 32 63  1  0
M  END
>  <smiles>  (87) 
NC1CCC(Nc2nc(NCc3ccccc3)nc(N3CCc4ccccc4C3)n2)CC1

>  <score_type>  (87) 
oracle

>  <origin>  (87) 
autodockgpu

>  <m_score__min__energy>  (87) 
-10.94

>  <m_primary>  (87) 
energy

>  <rmsd>  (87) 
10.326967467234786

>  <m_score__min__rmsd>  (87) 
10.326967467234786

>  <meeko>  (87) 
{"free_energy": -10.28, "intermolecular_energy": -12.37, "internal_energy": -1.39, "cluster_size": 32, "cluster_id": 1, "rank_in_cluster": 10}

>  <energy>  (87) 
-9.59

>  <cluster_rmsd>  (87) 
0.45

>  <cluster>  (87) 
2

$$$$

     RDKit          3D

 63 67  0  0  0  0  0  0  0  0999 V2000
  146.6750   73.7540  219.5630 N   0  0  0  0  0  0  0  0  0  0  0  0
  145.4150   73.6830  220.2940 C   0  0  1  0  0  0  0  0  0  0  0  0
  144.3160   74.4360  219.6180 C   0  0  0  0  0  0  0  0  0  0  0  0
  143.6240   73.6420  218.5210 C   0  0  0  0  0  0  0  0  0  0  0  0
  142.9530   72.4140  219.0710 C   0  0  2  0  0  0  0  0  0  0  0  0
  141.5210   72.6280  219.0740 N   0  0  0  0  0  0  0  0  0  0  0  0
  140.8830   73.1670  220.2010 C   0  0  0  0  0  0  0  0  0  0  0  0
  140.2410   72.4190  221.1130 N   0  0  0  0  0  0  0  0  0  0  0  0
  139.6300   72.9610  222.1960 C   0  0  0  0  0  0  0  0  0  0  0  0
  138.9480   72.1350  223.1600 N   0  0  0  0  0  0  0  0  0  0  0  0
  139.5210   70.8420  223.4830 C   0  0  0  0  0  0  0  0  0  0  0  0
  139.9870   70.8470  224.8880 C   0  0  0  0  0  0  0  0  0  0  0  0
  139.6770   69.7680  225.6800 C   0  0  0  0  0  0  0  0  0  0  0  0
  140.0620   69.6670  227.0100 C   0  0  0  0  0  0  0  0  0  0  0  0
  140.7920   70.7130  227.5400 C   0  0  0  0  0  0  0  0  0  0  0  0
  141.1140   71.8020  226.7660 C   0  0  0  0  0  0  0  0  0  0  0  0
  140.7180   71.8850  225.4350 C   0  0  0  0  0  0  0  0  0  0  0  0
  139.6810   74.3020  222.3460 N   0  0  0  0  0  0  0  0  0  0  0  0
  140.3090   75.0990  221.4650 C   0  0  0  0  0  0  0  0  0  0  0  0
  140.3670   76.5130  221.6160 N   0  0  0  0  0  0  0  0  0  0  0  0
  139.7530   77.3910  220.6380 C   0  0  0  0  0  0  0  0  0  0  0  0
  139.1740   78.5450  221.4670 C   0  0  0  0  0  0  0  0  0  0  0  0
  140.3850   79.2740  221.9630 C   0  0  0  0  0  0  0  0  0  0  0  0
  140.5480   80.6290  221.7730 C   0  0  0  0  0  0  0  0  0  0  0  0
  141.6960   81.2050  222.2680 C   0  0  0  0  0  0  0  0  0  0  0  0
  142.6470   80.4480  222.9300 C   0  0  0  0  0  0  0  0  0  0  0  0
  142.4910   79.0910  223.1230 C   0  0  0  0  0  0  0  0  0  0  0  0
  141.3300   78.5030  222.6240 C   0  0  0  0  0  0  0  0  0  0  0  0
  141.0570   77.0460  222.7760 C   0  0  0  0  0  0  0  0  0  0  0  0
  140.8930   74.5030  220.4140 N   0  0  0  0  0  0  0  0  0  0  0  0
  143.4940   72.1540  220.4440 C   0  0  0  0  0  0  0  0  0  0  0  0
  145.0050   72.2250  220.3960 C   0  0  0  0  0  0  0  0  0  0  0  0
  146.4190   73.8550  218.5550 H   0  0  0  0  0  0  0  0  0  0  0  0
  147.2780   74.5210  219.9320 H   0  0  0  0  0  0  0  0  0  0  0  0
  145.5732   74.1379  221.2830 H   0  0  0  0  0  0  0  0  0  0  0  0
  144.7408   75.3479  219.1730 H   0  0  0  0  0  0  0  0  0  0  0  0
  143.5582   74.6601  220.3832 H   0  0  0  0  0  0  0  0  0  0  0  0
  144.3718   73.3369  217.7743 H   0  0  0  0  0  0  0  0  0  0  0  0
  142.8541   74.2815  218.0645 H   0  0  0  0  0  0  0  0  0  0  0  0
  143.1566   71.5278  218.4520 H   0  0  0  0  0  0  0  0  0  0  0  0
  140.9910   72.3770  218.2340 H   0  0  0  0  0  0  0  0  0  0  0  0
  138.0790   72.5100  223.5760 H   0  0  0  0  0  0  0  0  0  0  0  0
  138.7587   70.0599  223.3521 H   0  0  0  0  0  0  0  0  0  0  0  0
  140.3712   70.6400  222.8150 H   0  0  0  0  0  0  0  0  0  0  0  0
  139.0959   68.9446  225.2391 H   0  0  0  0  0  0  0  0  0  0  0  0
  139.7964   68.7892  227.6174 H   0  0  0  0  0  0  0  0  0  0  0  0
  141.1182   70.6740  228.5898 H   0  0  0  0  0  0  0  0  0  0  0  0
  141.6963   72.6242  227.2076 H   0  0  0  0  0  0  0  0  0  0  0  0
  140.9824   72.7629  224.8273 H   0  0  0  0  0  0  0  0  0  0  0  0
  140.5030   77.7630  219.9245 H   0  0  0  0  0  0  0  0  0  0  0  0
  138.9845   76.8788  220.0405 H   0  0  0  0  0  0  0  0  0  0  0  0
  138.5504   79.2014  220.8423 H   0  0  0  0  0  0  0  0  0  0  0  0
  138.5239   78.1970  222.2833 H   0  0  0  0  0  0  0  0  0  0  0  0
  139.7900   81.2272  221.2461 H   0  0  0  0  0  0  0  0  0  0  0  0
  141.8603   82.2845  222.1353 H   0  0  0  0  0  0  0  0  0  0  0  0
  143.5522   80.9421  223.3128 H   0  0  0  0  0  0  0  0  0  0  0  0
  143.2523   78.4968  223.6496 H   0  0  0  0  0  0  0  0  0  0  0  0
  142.0117   76.5140  222.9003 H   0  0  0  0  0  0  0  0  0  0  0  0
  140.4137   76.9043  223.6570 H   0  0  0  0  0  0  0  0  0  0  0  0
  143.1816   71.1546  220.7810 H   0  0  0  0  0  0  0  0  0  0  0  0
  143.1072   72.9072  221.1462 H   0  0  0  0  0  0  0  0  0  0  0  0
  145.3748   71.6732  219.5192 H   0  0  0  0  0  0  0  0  0  0  0  0
  145.4328   71.7756  221.3043 H   0  0  0  0  0  0  0  0  0  0  0  0
  1  2  1  0
  2  3  1  0
  3  4  1  0
  4  5  1  0
  5  6  1  0
  6  7  1  0
  7  8  2  0
  8  9  1  0
  9 10  1  0
 10 11  1  0
 11 12  1  0
 12 13  2  0
 13 14  1  0
 14 15  2  0
 15 16  1  0
 16 17  2  0
  9 18  2  0
 18 19  1  0
 19 20  1  0
 20 21  1  0
 21 22  1  0
 22 23  1  0
 23 24  2  0
 24 25  1  0
 25 26  2  0
 26 27  1  0
 27 28  2  0
 28 29  1  0
 19 30  2  0
  5 31  1  0
 31 32  1  0
 32  2  1  0
 30  7  1  0
 17 12  1  0
 29 20  1  0
 28 23  1  0
  1 33  1  0
  1 34  1  0
  2 35  1  1
  3 36  1  0
  3 37  1  0
  4 38  1  0
  4 39  1  0
  5 40  1  6
  6 41  1  0
 10 42  1  0
 11 43  1  0
 11 44  1  0
 13 45  1  0
 14 46  1  0
 15 47  1  0
 16 48  1  0
 17 49  1  0
 21 50  1  0
 21 51  1  0
 22 52  1  0
 22 53  1  0
 24 54  1  0
 25 55  1  0
 26 56  1  0
 27 57  1  0
 29 58  1  0
 29 59  1  0
 31 60  1  0
 31 61  1  0
 32 62  1  0
 32 63  1  0
M  END
>  <smiles>  (88) 
NC1CCC(Nc2nc(NCc3ccccc3)nc(N3CCc4ccccc4C3)n2)CC1

>  <score_type>  (88) 
oracle

>  <origin>  (88) 
autodockgpu

>  <m_score__min__energy>  (88) 
-10.94

>  <m_primary>  (88) 
energy

>  <rmsd>  (88) 
10.590038321090674

>  <m_score__min__rmsd>  (88) 
10.590038321090674

>  <meeko>  (88) 
{"free_energy": -9.93, "intermolecular_energy": -12.02, "internal_energy": -1.27, "cluster_size": 32, "cluster_id": 1, "rank_in_cluster": 19}

>  <energy>  (88) 
-9.56

>  <cluster_rmsd>  (88) 
0.29

>  <cluster>  (88) 
2

$$$$

     RDKit          3D

 63 67  0  0  0  0  0  0  0  0999 V2000
  146.1980   72.4510  220.1940 N   0  0  0  0  0  0  0  0  0  0  0  0
  144.8170   72.3100  220.6420 C   0  0  1  0  0  0  0  0  0  0  0  0
  144.0700   73.6040  220.6130 C   0  0  0  0  0  0  0  0  0  0  0  0
  143.5000   73.9430  219.2440 C   0  0  0  0  0  0  0  0  0  0  0  0
  142.4930   72.9190  218.7980 C   0  0  2  0  0  0  0  0  0  0  0  0
  141.1690   73.4960  218.8940 N   0  0  0  0  0  0  0  0  0  0  0  0
  140.6220   73.8180  220.1450 C   0  0  0  0  0  0  0  0  0  0  0  0
  140.1090   72.9030  220.9840 N   0  0  0  0  0  0  0  0  0  0  0  0
  139.5840   73.2370  222.1890 C   0  0  0  0  0  0  0  0  0  0  0  0
  139.0420   72.2350  223.0700 N   0  0  0  0  0  0  0  0  0  0  0  0
  139.8380   71.0510  223.3350 C   0  0  0  0  0  0  0  0  0  0  0  0
  140.0370   70.9080  224.7960 C   0  0  0  0  0  0  0  0  0  0  0  0
  140.7930   71.8540  225.4440 C   0  0  0  0  0  0  0  0  0  0  0  0
  141.0440   71.8200  226.8100 C   0  0  0  0  0  0  0  0  0  0  0  0
  140.4960   70.7750  227.5290 C   0  0  0  0  0  0  0  0  0  0  0  0
  139.7350   69.8180  226.9000 C   0  0  0  0  0  0  0  0  0  0  0  0
  139.4960   69.8700  225.5310 C   0  0  0  0  0  0  0  0  0  0  0  0
  139.5860   74.5400  222.5410 N   0  0  0  0  0  0  0  0  0  0  0  0
  140.0850   75.4980  221.7410 C   0  0  0  0  0  0  0  0  0  0  0  0
  140.0910   76.8740  222.1040 N   0  0  0  0  0  0  0  0  0  0  0  0
  139.0900   77.7860  221.5830 C   0  0  0  0  0  0  0  0  0  0  0  0
  138.7820   78.7300  222.7520 C   0  0  0  0  0  0  0  0  0  0  0  0
  140.0330   79.5410  222.8970 C   0  0  0  0  0  0  0  0  0  0  0  0
  140.0110   80.9200  222.9000 C   0  0  0  0  0  0  0  0  0  0  0  0
  141.2150   81.5720  223.0400 C   0  0  0  0  0  0  0  0  0  0  0  0
  142.3980   80.8670  223.1720 C   0  0  0  0  0  0  0  0  0  0  0  0
  142.4280   79.4880  223.1690 C   0  0  0  0  0  0  0  0  0  0  0  0
  141.2120   78.8220  223.0280 C   0  0  0  0  0  0  0  0  0  0  0  0
  141.1250   77.3340  223.0120 C   0  0  0  0  0  0  0  0  0  0  0  0
  140.5890   75.1050  220.5610 N   0  0  0  0  0  0  0  0  0  0  0  0
  142.6480   71.6990  219.6540 C   0  0  0  0  0  0  0  0  0  0  0  0
  144.1150   71.3300  219.7190 C   0  0  0  0  0  0  0  0  0  0  0  0
  146.7750   71.8770  220.8480 H   0  0  0  0  0  0  0  0  0  0  0  0
  146.2930   72.1840  219.1900 H   0  0  0  0  0  0  0  0  0  0  0  0
  144.8343   71.9566  221.6835 H   0  0  0  0  0  0  0  0  0  0  0  0
  144.7562   74.4093  220.9140 H   0  0  0  0  0  0  0  0  0  0  0  0
  143.2190   73.5028  221.3026 H   0  0  0  0  0  0  0  0  0  0  0  0
  144.3216   73.9784  218.5134 H   0  0  0  0  0  0  0  0  0  0  0  0
  142.9946   74.9177  219.3120 H   0  0  0  0  0  0  0  0  0  0  0  0
  142.6518   72.6216  217.7509 H   0  0  0  0  0  0  0  0  0  0  0  0
  140.6470   73.6610  218.0280 H   0  0  0  0  0  0  0  0  0  0  0  0
  138.1060   72.4120  223.4720 H   0  0  0  0  0  0  0  0  0  0  0  0
  139.3161   70.1637  222.9472 H   0  0  0  0  0  0  0  0  0  0  0  0
  140.8151   71.1469  222.8390 H   0  0  0  0  0  0  0  0  0  0  0  0
  141.2201   72.6778  224.8533 H   0  0  0  0  0  0  0  0  0  0  0  0
  141.6542   72.5935  227.2993 H   0  0  0  0  0  0  0  0  0  0  0  0
  140.6699   70.7082  228.6131 H   0  0  0  0  0  0  0  0  0  0  0  0
  139.3068   68.9951  227.4912 H   0  0  0  0  0  0  0  0  0  0  0  0
  138.8859   69.0971  225.0407 H   0  0  0  0  0  0  0  0  0  0  0  0
  139.4858   78.3477  220.7240 H   0  0  0  0  0  0  0  0  0  0  0  0
  138.1931   77.2604  221.2234 H   0  0  0  0  0  0  0  0  0  0  0  0
  137.9220   79.3749  222.5185 H   0  0  0  0  0  0  0  0  0  0  0  0
  138.5151   78.1921  223.6736 H   0  0  0  0  0  0  0  0  0  0  0  0
  139.0682   81.4769  222.7946 H   0  0  0  0  0  0  0  0  0  0  0  0
  141.2370   82.6718  223.0470 H   0  0  0  0  0  0  0  0  0  0  0  0
  143.3414   81.4219  223.2825 H   0  0  0  0  0  0  0  0  0  0  0  0
  143.3738   78.9361  223.2737 H   0  0  0  0  0  0  0  0  0  0  0  0
  142.0930   76.9223  222.6902 H   0  0  0  0  0  0  0  0  0  0  0  0
  140.8728   76.9910  224.0263 H   0  0  0  0  0  0  0  0  0  0  0  0
  142.0766   70.8665  219.2176 H   0  0  0  0  0  0  0  0  0  0  0  0
  142.2693   71.9029  220.6664 H   0  0  0  0  0  0  0  0  0  0  0  0
  144.5567   71.3859  218.7131 H   0  0  0  0  0  0  0  0  0  0  0  0
  144.2295   70.3045  220.1002 H   0  0  0  0  0  0  0  0  0  0  0  0
  1  2  1  0
  2  3  1  0
  3  4  1  0
  4  5  1  0
  5  6  1  0
  6  7  1  0
  7  8  2  0
  8  9  1  0
  9 10  1  0
 10 11  1  0
 11 12  1  0
 12 13  2  0
 13 14  1  0
 14 15  2  0
 15 16  1  0
 16 17  2  0
  9 18  2  0
 18 19  1  0
 19 20  1  0
 20 21  1  0
 21 22  1  0
 22 23  1  0
 23 24  2  0
 24 25  1  0
 25 26  2  0
 26 27  1  0
 27 28  2  0
 28 29  1  0
 19 30  2  0
  5 31  1  0
 31 32  1  0
 32  2  1  0
 30  7  1  0
 17 12  1  0
 29 20  1  0
 28 23  1  0
  1 33  1  0
  1 34  1  0
  2 35  1  1
  3 36  1  0
  3 37  1  0
  4 38  1  0
  4 39  1  0
  5 40  1  6
  6 41  1  0
 10 42  1  0
 11 43  1  0
 11 44  1  0
 13 45  1  0
 14 46  1  0
 15 47  1  0
 16 48  1  0
 17 49  1  0
 21 50  1  0
 21 51  1  0
 22 52  1  0
 22 53  1  0
 24 54  1  0
 25 55  1  0
 26 56  1  0
 27 57  1  0
 29 58  1  0
 29 59  1  0
 31 60  1  0
 31 61  1  0
 32 62  1  0
 32 63  1  0
M  END
>  <smiles>  (89) 
NC1CCC(Nc2nc(NCc3ccccc3)nc(N3CCc4ccccc4C3)n2)CC1

>  <score_type>  (89) 
oracle

>  <origin>  (89) 
autodockgpu

>  <m_score__min__energy>  (89) 
-10.94

>  <m_primary>  (89) 
energy

>  <rmsd>  (89) 
10.602546153576046

>  <m_score__min__rmsd>  (89) 
10.602546153576046

>  <meeko>  (89) 
{"free_energy": -9.11, "intermolecular_energy": -11.2, "internal_energy": -1.24, "cluster_size": 32, "cluster_id": 1, "rank_in_cluster": 31}

>  <energy>  (89) 
-9.55

>  <cluster_rmsd>  (89) 
0.26

>  <cluster>  (89) 
2

$$$$

     RDKit          3D

 63 67  0  0  0  0  0  0  0  0999 V2000
  146.7010   73.4600  219.0900 N   0  0  0  0  0  0  0  0  0  0  0  0
  145.5920   73.0480  219.9440 C   0  0  1  0  0  0  0  0  0  0  0  0
  144.3460   73.8300  219.6840 C   0  0  0  0  0  0  0  0  0  0  0  0
  143.5310   73.2980  218.5150 C   0  0  0  0  0  0  0  0  0  0  0  0
  143.0460   71.8980  218.7760 C   0  0  2  0  0  0  0  0  0  0  0  0
  141.6250   71.9400  219.0480 N   0  0  0  0  0  0  0  0  0  0  0  0
  141.1380   72.6040  220.1830 C   0  0  0  0  0  0  0  0  0  0  0  0
  140.4990   71.9800  221.1860 N   0  0  0  0  0  0  0  0  0  0  0  0
  140.0340   72.6410  222.2750 C   0  0  0  0  0  0  0  0  0  0  0  0
  139.3520   71.9460  223.3360 N   0  0  0  0  0  0  0  0  0  0  0  0
  139.9340   70.7120  223.8330 C   0  0  0  0  0  0  0  0  0  0  0  0
  140.2500   70.8610  225.2710 C   0  0  0  0  0  0  0  0  0  0  0  0
  139.7310   69.9400  226.1490 C   0  0  0  0  0  0  0  0  0  0  0  0
  139.9620   69.9830  227.5180 C   0  0  0  0  0  0  0  0  0  0  0  0
  140.7550   71.0080  227.9950 C   0  0  0  0  0  0  0  0  0  0  0  0
  141.2850   71.9400  227.1350 C   0  0  0  0  0  0  0  0  0  0  0  0
  141.0410   71.8810  225.7660 C   0  0  0  0  0  0  0  0  0  0  0  0
  140.2310   73.9750  222.3360 N   0  0  0  0  0  0  0  0  0  0  0  0
  140.8630   74.6520  221.3620 C   0  0  0  0  0  0  0  0  0  0  0  0
  141.0750   76.0590  221.4190 N   0  0  0  0  0  0  0  0  0  0  0  0
  141.6790   76.7660  220.3050 C   0  0  0  0  0  0  0  0  0  0  0  0
  140.9330   78.1050  220.2490 C   0  0  0  0  0  0  0  0  0  0  0  0
  141.3910   78.8230  221.4820 C   0  0  0  0  0  0  0  0  0  0  0  0
  141.9200   80.0950  221.4300 C   0  0  0  0  0  0  0  0  0  0  0  0
  142.3110   80.6670  222.6190 C   0  0  0  0  0  0  0  0  0  0  0  0
  142.1760   79.9890  223.8170 C   0  0  0  0  0  0  0  0  0  0  0  0
  141.6480   78.7150  223.8770 C   0  0  0  0  0  0  0  0  0  0  0  0
  141.2500   78.1310  222.6760 C   0  0  0  0  0  0  0  0  0  0  0  0
  140.6660   76.7610  222.6220 C   0  0  0  0  0  0  0  0  0  0  0  0
  141.2990   73.9420  220.3110 N   0  0  0  0  0  0  0  0  0  0  0  0
  143.8310   71.3310  219.9190 C   0  0  0  0  0  0  0  0  0  0  0  0
  145.3030   71.5830  219.6750 C   0  0  0  0  0  0  0  0  0  0  0  0
  146.2720   73.7800  218.1920 H   0  0  0  0  0  0  0  0  0  0  0  0
  147.2890   74.1790  219.5640 H   0  0  0  0  0  0  0  0  0  0  0  0
  145.8870   73.2261  220.9886 H   0  0  0  0  0  0  0  0  0  0  0  0
  144.6268   74.8714  219.4679 H   0  0  0  0  0  0  0  0  0  0  0  0
  143.7171   73.7465  220.5826 H   0  0  0  0  0  0  0  0  0  0  0  0
  144.1592   73.2966  217.6120 H   0  0  0  0  0  0  0  0  0  0  0  0
  142.6543   73.9485  218.3797 H   0  0  0  0  0  0  0  0  0  0  0  0
  143.1979   71.2457  217.9034 H   0  0  0  0  0  0  0  0  0  0  0  0
  140.9910   71.4760  218.3920 H   0  0  0  0  0  0  0  0  0  0  0  0
  138.4770   72.3650  223.6940 H   0  0  0  0  0  0  0  0  0  0  0  0
  139.2177   69.8882  223.6982 H   0  0  0  0  0  0  0  0  0  0  0  0
  140.8560   70.4903  223.2755 H   0  0  0  0  0  0  0  0  0  0  0  0
  139.1029   69.1305  225.7487 H   0  0  0  0  0  0  0  0  0  0  0  0
  139.5306   69.2309  228.1949 H   0  0  0  0  0  0  0  0  0  0  0  0
  140.9643   71.0792  229.0725 H   0  0  0  0  0  0  0  0  0  0  0  0
  141.9141   72.7481  227.5364 H   0  0  0  0  0  0  0  0  0  0  0  0
  141.4706   72.6339  225.0888 H   0  0  0  0  0  0  0  0  0  0  0  0
  142.7527   76.9264  220.4826 H   0  0  0  0  0  0  0  0  0  0  0  0
  141.6014   76.2046  219.3622 H   0  0  0  0  0  0  0  0  0  0  0  0
  141.2058   78.6677  219.3440 H   0  0  0  0  0  0  0  0  0  0  0  0
  139.8406   77.9814  220.2105 H   0  0  0  0  0  0  0  0  0  0  0  0
  142.0254   80.6317  220.4756 H   0  0  0  0  0  0  0  0  0  0  0  0
  142.7382   81.6807  222.6166 H   0  0  0  0  0  0  0  0  0  0  0  0
  142.4983   80.4786  224.7478 H   0  0  0  0  0  0  0  0  0  0  0  0
  141.5456   78.1824  224.8340 H   0  0  0  0  0  0  0  0  0  0  0  0
  141.0044   76.1926  223.5008 H   0  0  0  0  0  0  0  0  0  0  0  0
  139.5698   76.8515  222.6148 H   0  0  0  0  0  0  0  0  0  0  0  0
  143.6486   70.2486  219.9914 H   0  0  0  0  0  0  0  0  0  0  0  0
  143.5212   71.8115  220.8588 H   0  0  0  0  0  0  0  0  0  0  0  0
  145.5528   71.3411  218.6314 H   0  0  0  0  0  0  0  0  0  0  0  0
  145.9089   70.9510  220.3409 H   0  0  0  0  0  0  0  0  0  0  0  0
  1  2  1  0
  2  3  1  0
  3  4  1  0
  4  5  1  0
  5  6  1  0
  6  7  1  0
  7  8  2  0
  8  9  1  0
  9 10  1  0
 10 11  1  0
 11 12  1  0
 12 13  2  0
 13 14  1  0
 14 15  2  0
 15 16  1  0
 16 17  2  0
  9 18  2  0
 18 19  1  0
 19 20  1  0
 20 21  1  0
 21 22  1  0
 22 23  1  0
 23 24  2  0
 24 25  1  0
 25 26  2  0
 26 27  1  0
 27 28  2  0
 28 29  1  0
 19 30  2  0
  5 31  1  0
 31 32  1  0
 32  2  1  0
 30  7  1  0
 17 12  1  0
 29 20  1  0
 28 23  1  0
  1 33  1  0
  1 34  1  0
  2 35  1  1
  3 36  1  0
  3 37  1  0
  4 38  1  0
  4 39  1  0
  5 40  1  6
  6 41  1  0
 10 42  1  0
 11 43  1  0
 11 44  1  0
 13 45  1  0
 14 46  1  0
 15 47  1  0
 16 48  1  0
 17 49  1  0
 21 50  1  0
 21 51  1  0
 22 52  1  0
 22 53  1  0
 24 54  1  0
 25 55  1  0
 26 56  1  0
 27 57  1  0
 29 58  1  0
 29 59  1  0
 31 60  1  0
 31 61  1  0
 32 62  1  0
 32 63  1  0
M  END
>  <smiles>  (90) 
NC1CCC(Nc2nc(NCc3ccccc3)nc(N3CCc4ccccc4C3)n2)CC1

>  <score_type>  (90) 
oracle

>  <origin>  (90) 
autodockgpu

>  <m_score__min__energy>  (90) 
-10.94

>  <m_primary>  (90) 
energy

>  <rmsd>  (90) 
10.302178867812742

>  <m_score__min__rmsd>  (90) 
10.302178867812742

>  <meeko>  (90) 
{"free_energy": -10.84, "intermolecular_energy": -12.93, "internal_energy": -1.22, "cluster_size": 32, "cluster_id": 1, "rank_in_cluster": 3}

>  <energy>  (90) 
-9.53

>  <cluster_rmsd>  (90) 
0.24

>  <cluster>  (90) 
2

$$$$

     RDKit          3D

 63 67  0  0  0  0  0  0  0  0999 V2000
  146.6440   73.6420  219.3680 N   0  0  0  0  0  0  0  0  0  0  0  0
  145.4620   73.4040  220.1900 C   0  0  1  0  0  0  0  0  0  0  0  0
  144.2780   74.1920  219.7320 C   0  0  0  0  0  0  0  0  0  0  0  0
  143.5140   73.5310  218.5950 C   0  0  0  0  0  0  0  0  0  0  0  0
  142.9420   72.2050  219.0150 C   0  0  2  0  0  0  0  0  0  0  0  0
  141.5100   72.3450  219.1760 N   0  0  0  0  0  0  0  0  0  0  0  0
  140.9750   72.8570  220.3670 C   0  0  0  0  0  0  0  0  0  0  0  0
  140.6390   74.1470  220.5310 N   0  0  0  0  0  0  0  0  0  0  0  0
  140.1240   74.6220  221.6920 C   0  0  0  0  0  0  0  0  0  0  0  0
  139.7720   76.0110  221.8400 N   0  0  0  0  0  0  0  0  0  0  0  0
  140.5650   76.9990  221.1320 C   0  0  0  0  0  0  0  0  0  0  0  0
  140.9060   78.1070  222.0530 C   0  0  0  0  0  0  0  0  0  0  0  0
  142.1330   78.7110  221.9180 C   0  0  0  0  0  0  0  0  0  0  0  0
  142.5560   79.7590  222.7250 C   0  0  0  0  0  0  0  0  0  0  0  0
  141.6840   80.1980  223.7020 C   0  0  0  0  0  0  0  0  0  0  0  0
  140.4510   79.6090  223.8550 C   0  0  0  0  0  0  0  0  0  0  0  0
  140.0460   78.5590  223.0360 C   0  0  0  0  0  0  0  0  0  0  0  0
  139.9480   73.7520  222.7090 N   0  0  0  0  0  0  0  0  0  0  0  0
  140.2670   72.4500  222.6020 C   0  0  0  0  0  0  0  0  0  0  0  0
  140.0850   71.5260  223.6690 N   0  0  0  0  0  0  0  0  0  0  0  0
  138.9490   70.6230  223.6850 C   0  0  0  0  0  0  0  0  0  0  0  0
  139.5060   69.3150  224.2610 C   0  0  0  0  0  0  0  0  0  0  0  0
  139.7840   69.6430  225.6960 C   0  0  0  0  0  0  0  0  0  0  0  0
  139.2800   68.8810  226.7290 C   0  0  0  0  0  0  0  0  0  0  0  0
  139.5940   69.2670  228.0120 C   0  0  0  0  0  0  0  0  0  0  0  0
  140.3840   70.3770  228.2510 C   0  0  0  0  0  0  0  0  0  0  0  0
  140.8910   71.1460  227.2230 C   0  0  0  0  0  0  0  0  0  0  0  0
  140.5770   70.7600  225.9220 C   0  0  0  0  0  0  0  0  0  0  0  0
  141.0700   71.5140  224.7350 C   0  0  0  0  0  0  0  0  0  0  0  0
  140.7730   72.0420  221.4280 N   0  0  0  0  0  0  0  0  0  0  0  0
  143.6200   71.7770  220.2810 C   0  0  0  0  0  0  0  0  0  0  0  0
  145.1160   71.9280  220.1100 C   0  0  0  0  0  0  0  0  0  0  0  0
  146.2930   73.8110  218.3980 H   0  0  0  0  0  0  0  0  0  0  0  0
  147.2190   74.4190  219.7580 H   0  0  0  0  0  0  0  0  0  0  0  0
  145.6964   73.7180  221.2179 H   0  0  0  0  0  0  0  0  0  0  0  0
  144.6265   75.1780  219.3908 H   0  0  0  0  0  0  0  0  0  0  0  0
  143.5883   74.2666  220.5857 H   0  0  0  0  0  0  0  0  0  0  0  0
  144.1983   73.3734  217.7483 H   0  0  0  0  0  0  0  0  0  0  0  0
  142.6822   74.1910  218.3076 H   0  0  0  0  0  0  0  0  0  0  0  0
  143.1173   71.4282  218.2561 H   0  0  0  0  0  0  0  0  0  0  0  0
  140.9040   72.0630  218.4000 H   0  0  0  0  0  0  0  0  0  0  0  0
  138.9650   76.2350  222.4460 H   0  0  0  0  0  0  0  0  0  0  0  0
  141.4894   76.5313  220.7623 H   0  0  0  0  0  0  0  0  0  0  0  0
  139.9887   77.3921  220.2815 H   0  0  0  0  0  0  0  0  0  0  0  0
  142.8125   78.3470  221.1333 H   0  0  0  0  0  0  0  0  0  0  0  0
  143.5454   80.2208  222.5915 H   0  0  0  0  0  0  0  0  0  0  0  0
  141.9785   81.0261  224.3635 H   0  0  0  0  0  0  0  0  0  0  0  0
  139.7719   79.9745  224.6394 H   0  0  0  0  0  0  0  0  0  0  0  0
  139.0570   78.0962  223.1690 H   0  0  0  0  0  0  0  0  0  0  0  0
  138.1466   71.0190  224.3248 H   0  0  0  0  0  0  0  0  0  0  0  0
  138.5093   70.4863  222.6860 H   0  0  0  0  0  0  0  0  0  0  0  0
  138.7656   68.5054  224.1809 H   0  0  0  0  0  0  0  0  0  0  0  0
  140.3998   68.9623  223.7256 H   0  0  0  0  0  0  0  0  0  0  0  0
  138.6516   67.9992  226.5350 H   0  0  0  0  0  0  0  0  0  0  0  0
  139.2104   68.6831  228.8616 H   0  0  0  0  0  0  0  0  0  0  0  0
  140.6148   70.6548  229.2900 H   0  0  0  0  0  0  0  0  0  0  0  0
  141.5175   72.0278  227.4230 H   0  0  0  0  0  0  0  0  0  0  0  0
  141.2867   72.5502  225.0338 H   0  0  0  0  0  0  0  0  0  0  0  0
  141.9780   71.0175  224.3620 H   0  0  0  0  0  0  0  0  0  0  0  0
  143.3767   70.7254  220.4931 H   0  0  0  0  0  0  0  0  0  0  0  0
  143.2753   72.4015  221.1184 H   0  0  0  0  0  0  0  0  0  0  0  0
  145.4201   71.5278  219.1315 H   0  0  0  0  0  0  0  0  0  0  0  0
  145.6441   71.3732  220.8995 H   0  0  0  0  0  0  0  0  0  0  0  0
  1  2  1  0
  2  3  1  0
  3  4  1  0
  4  5  1  0
  5  6  1  0
  6  7  1  0
  7  8  2  0
  8  9  1  0
  9 10  1  0
 10 11  1  0
 11 12  1  0
 12 13  2  0
 13 14  1  0
 14 15  2  0
 15 16  1  0
 16 17  2  0
  9 18  2  0
 18 19  1  0
 19 20  1  0
 20 21  1  0
 21 22  1  0
 22 23  1  0
 23 24  2  0
 24 25  1  0
 25 26  2  0
 26 27  1  0
 27 28  2  0
 28 29  1  0
 19 30  2  0
  5 31  1  0
 31 32  1  0
 32  2  1  0
 30  7  1  0
 17 12  1  0
 29 20  1  0
 28 23  1  0
  1 33  1  0
  1 34  1  0
  2 35  1  1
  3 36  1  0
  3 37  1  0
  4 38  1  0
  4 39  1  0
  5 40  1  6
  6 41  1  0
 10 42  1  0
 11 43  1  0
 11 44  1  0
 13 45  1  0
 14 46  1  0
 15 47  1  0
 16 48  1  0
 17 49  1  0
 21 50  1  0
 21 51  1  0
 22 52  1  0
 22 53  1  0
 24 54  1  0
 25 55  1  0
 26 56  1  0
 27 57  1  0
 29 58  1  0
 29 59  1  0
 31 60  1  0
 31 61  1  0
 32 62  1  0
 32 63  1  0
M  END
>  <smiles>  (91) 
NC1CCC(Nc2nc(NCc3ccccc3)nc(N3CCc4ccccc4C3)n2)CC1

>  <score_type>  (91) 
oracle

>  <origin>  (91) 
autodockgpu

>  <m_score__min__energy>  (91) 
-10.94

>  <m_primary>  (91) 
energy

>  <rmsd>  (91) 
3.9114334790242755

>  <m_score__min__rmsd>  (91) 
3.9114334790242755

>  <meeko>  (91) 
{"free_energy": -9.98, "intermolecular_energy": -12.07, "internal_energy": -1.15, "cluster_size": 32, "cluster_id": 1, "rank_in_cluster": 17}

>  <energy>  (91) 
-9.37

>  <cluster_rmsd>  (91) 
0.37

>  <cluster>  (91) 
2

$$$$

     RDKit          3D

 63 67  0  0  0  0  0  0  0  0999 V2000
  146.3320   73.3780  218.6560 N   0  0  0  0  0  0  0  0  0  0  0  0
  145.4780   73.0510  219.7930 C   0  0  1  0  0  0  0  0  0  0  0  0
  145.1830   74.2390  220.6490 C   0  0  0  0  0  0  0  0  0  0  0  0
  144.0280   75.0840  220.1340 C   0  0  0  0  0  0  0  0  0  0  0  0
  142.7420   74.3050  220.1190 C   0  0  2  0  0  0  0  0  0  0  0  0
  141.8980   74.7780  221.1970 N   0  0  0  0  0  0  0  0  0  0  0  0
  140.7050   74.1100  221.5120 C   0  0  0  0  0  0  0  0  0  0  0  0
  139.5360   74.3620  220.9000 N   0  0  0  0  0  0  0  0  0  0  0  0
  138.3930   73.7060  221.2200 C   0  0  0  0  0  0  0  0  0  0  0  0
  137.1530   73.9950  220.5480 N   0  0  0  0  0  0  0  0  0  0  0  0
  136.2920   75.0210  221.1070 C   0  0  0  0  0  0  0  0  0  0  0  0
  135.8540   74.6120  222.4600 C   0  0  0  0  0  0  0  0  0  0  0  0
  135.8850   75.5490  223.4650 C   0  0  0  0  0  0  0  0  0  0  0  0
  135.4970   75.2760  224.7700 C   0  0  0  0  0  0  0  0  0  0  0  0
  135.0620   73.9950  225.0470 C   0  0  0  0  0  0  0  0  0  0  0  0
  135.0220   73.0420  224.0570 C   0  0  0  0  0  0  0  0  0  0  0  0
  135.4150   73.3350  222.7550 C   0  0  0  0  0  0  0  0  0  0  0  0
  138.4520   72.7690  222.1910 N   0  0  0  0  0  0  0  0  0  0  0  0
  139.5940   72.4770  222.8370 C   0  0  0  0  0  0  0  0  0  0  0  0
  139.6650   71.4900  223.8600 N   0  0  0  0  0  0  0  0  0  0  0  0
  138.6580   70.4510  223.9630 C   0  0  0  0  0  0  0  0  0  0  0  0
  139.4370   69.2000  224.3860 C   0  0  0  0  0  0  0  0  0  0  0  0
  139.8590   69.4970  225.7920 C   0  0  0  0  0  0  0  0  0  0  0  0
  139.5890   68.6320  226.8320 C   0  0  0  0  0  0  0  0  0  0  0  0
  140.0190   68.9980  228.0870 C   0  0  0  0  0  0  0  0  0  0  0  0
  140.6950   70.1870  228.2930 C   0  0  0  0  0  0  0  0  0  0  0  0
  140.9670   71.0580  227.2580 C   0  0  0  0  0  0  0  0  0  0  0  0
  140.5350   70.6930  225.9850 C   0  0  0  0  0  0  0  0  0  0  0  0
  140.7740   71.5560  224.7940 C   0  0  0  0  0  0  0  0  0  0  0  0
  140.6900   73.1600  222.4750 N   0  0  0  0  0  0  0  0  0  0  0  0
  143.0690   72.8490  220.2460 C   0  0  0  0  0  0  0  0  0  0  0  0
  144.1650   72.5060  219.2600 C   0  0  0  0  0  0  0  0  0  0  0  0
  145.7090   73.8230  217.9450 H   0  0  0  0  0  0  0  0  0  0  0  0
  147.1370   73.9710  218.9520 H   0  0  0  0  0  0  0  0  0  0  0  0
  146.0096   72.3149  220.4140 H   0  0  0  0  0  0  0  0  0  0  0  0
  146.0835   74.8692  220.6927 H   0  0  0  0  0  0  0  0  0  0  0  0
  144.8913   73.8604  221.6397 H   0  0  0  0  0  0  0  0  0  0  0  0
  144.2566   75.4170  219.1108 H   0  0  0  0  0  0  0  0  0  0  0  0
  143.9029   75.9456  220.8063 H   0  0  0  0  0  0  0  0  0  0  0  0
  142.1912   74.4481  219.1777 H   0  0  0  0  0  0  0  0  0  0  0  0
  142.1970   75.6050  221.7200 H   0  0  0  0  0  0  0  0  0  0  0  0
  136.9370   73.4530  219.6940 H   0  0  0  0  0  0  0  0  0  0  0  0
  136.8455   75.9694  221.1716 H   0  0  0  0  0  0  0  0  0  0  0  0
  135.4120   75.1542  220.4607 H   0  0  0  0  0  0  0  0  0  0  0  0
  136.2339   76.5640  223.2240 H   0  0  0  0  0  0  0  0  0  0  0  0
  135.5346   76.0490  225.5517 H   0  0  0  0  0  0  0  0  0  0  0  0
  134.7450   73.7351  226.0678 H   0  0  0  0  0  0  0  0  0  0  0  0
  134.6723   72.0276  224.2991 H   0  0  0  0  0  0  0  0  0  0  0  0
  135.3769   72.5626  221.9727 H   0  0  0  0  0  0  0  0  0  0  0  0
  137.9044   70.7139  224.7199 H   0  0  0  0  0  0  0  0  0  0  0  0
  138.1117   70.3038  223.0197 H   0  0  0  0  0  0  0  0  0  0  0  0
  138.7943   68.3080  224.3504 H   0  0  0  0  0  0  0  0  0  0  0  0
  140.2887   68.9863  223.7235 H   0  0  0  0  0  0  0  0  0  0  0  0
  139.0513   67.6871  226.6648 H   0  0  0  0  0  0  0  0  0  0  0  0
  139.8217   68.3335  228.9411 H   0  0  0  0  0  0  0  0  0  0  0  0
  141.0249   70.4453  229.3101 H   0  0  0  0  0  0  0  0  0  0  0  0
  141.5034   72.0026  227.4312 H   0  0  0  0  0  0  0  0  0  0  0  0
  140.9005   72.5970  225.1261 H   0  0  0  0  0  0  0  0  0  0  0  0
  141.6789   71.1963  224.2823 H   0  0  0  0  0  0  0  0  0  0  0  0
  142.1737   72.2488  220.0267 H   0  0  0  0  0  0  0  0  0  0  0  0
  143.4063   72.6302  221.2699 H   0  0  0  0  0  0  0  0  0  0  0  0
  143.9425   72.9620  218.2840 H   0  0  0  0  0  0  0  0  0  0  0  0
  144.2321   71.4153  219.1343 H   0  0  0  0  0  0  0  0  0  0  0  0
  1  2  1  0
  2  3  1  0
  3  4  1  0
  4  5  1  0
  5  6  1  0
  6  7  1  0
  7  8  2  0
  8  9  1  0
  9 10  1  0
 10 11  1  0
 11 12  1  0
 12 13  2  0
 13 14  1  0
 14 15  2  0
 15 16  1  0
 16 17  2  0
  9 18  2  0
 18 19  1  0
 19 20  1  0
 20 21  1  0
 21 22  1  0
 22 23  1  0
 23 24  2  0
 24 25  1  0
 25 26  2  0
 26 27  1  0
 27 28  2  0
 28 29  1  0
 19 30  2  0
  5 31  1  0
 31 32  1  0
 32  2  1  0
 30  7  1  0
 17 12  1  0
 29 20  1  0
 28 23  1  0
  1 33  1  0
  1 34  1  0
  2 35  1  1
  3 36  1  0
  3 37  1  0
  4 38  1  0
  4 39  1  0
  5 40  1  6
  6 41  1  0
 10 42  1  0
 11 43  1  0
 11 44  1  0
 13 45  1  0
 14 46  1  0
 15 47  1  0
 16 48  1  0
 17 49  1  0
 21 50  1  0
 21 51  1  0
 22 52  1  0
 22 53  1  0
 24 54  1  0
 25 55  1  0
 26 56  1  0
 27 57  1  0
 29 58  1  0
 29 59  1  0
 31 60  1  0
 31 61  1  0
 32 62  1  0
 32 63  1  0
M  END
>  <smiles>  (92) 
NC1CCC(Nc2nc(NCc3ccccc3)nc(N3CCc4ccccc4C3)n2)CC1

>  <score_type>  (92) 
oracle

>  <origin>  (92) 
autodockgpu

>  <m_score__min__energy>  (92) 
-10.94

>  <m_primary>  (92) 
energy

>  <rmsd>  (92) 
3.885532680755081

>  <m_score__min__rmsd>  (92) 
3.885532680755081

>  <meeko>  (92) 
{"free_energy": -9.53, "intermolecular_energy": -11.62, "internal_energy": -1.36, "cluster_size": 11, "cluster_id": 2, "rank_in_cluster": 8}

>  <energy>  (92) 
-9.21

>  <cluster_rmsd>  (92) 
0.43

>  <cluster>  (92) 
2

$$$$

     RDKit          3D

 63 67  0  0  0  0  0  0  0  0999 V2000
  146.7030   73.6590  219.6360 N   0  0  0  0  0  0  0  0  0  0  0  0
  145.4820   73.1820  220.2780 C   0  0  1  0  0  0  0  0  0  0  0  0
  144.3520   74.1500  220.1480 C   0  0  0  0  0  0  0  0  0  0  0  0
  143.6030   74.0320  218.8290 C   0  0  0  0  0  0  0  0  0  0  0  0
  142.9580   72.6810  218.6820 C   0  0  2  0  0  0  0  0  0  0  0  0
  141.5280   72.8250  218.8610 N   0  0  0  0  0  0  0  0  0  0  0  0
  140.9970   73.1380  220.1210 C   0  0  0  0  0  0  0  0  0  0  0  0
  140.6700   72.2090  221.0340 N   0  0  0  0  0  0  0  0  0  0  0  0
  140.1560   72.5320  222.2470 C   0  0  0  0  0  0  0  0  0  0  0  0
  139.8150   71.5160  223.2090 N   0  0  0  0  0  0  0  0  0  0  0  0
  140.4050   71.5980  224.5320 C   0  0  0  0  0  0  0  0  0  0  0  0
  140.2670   70.2910  225.2140 C   0  0  0  0  0  0  0  0  0  0  0  0
  139.4370   69.3500  224.6550 C   0  0  0  0  0  0  0  0  0  0  0  0
  139.2340   68.0930  225.2080 C   0  0  0  0  0  0  0  0  0  0  0  0
  139.9090   67.7980  226.3770 C   0  0  0  0  0  0  0  0  0  0  0  0
  140.7440   68.7240  226.9540 C   0  0  0  0  0  0  0  0  0  0  0  0
  140.9350   69.9790  226.3840 C   0  0  0  0  0  0  0  0  0  0  0  0
  139.9730   73.8400  222.5280 N   0  0  0  0  0  0  0  0  0  0  0  0
  140.2810   74.8120  221.6520 C   0  0  0  0  0  0  0  0  0  0  0  0
  140.0920   76.1920  221.9400 N   0  0  0  0  0  0  0  0  0  0  0  0
  138.9670   76.9220  221.3840 C   0  0  0  0  0  0  0  0  0  0  0  0
  138.5340   77.8750  222.5050 C   0  0  0  0  0  0  0  0  0  0  0  0
  139.6570   78.8640  222.5890 C   0  0  0  0  0  0  0  0  0  0  0  0
  139.4380   80.2230  222.5180 C   0  0  0  0  0  0  0  0  0  0  0  0
  140.5370   81.0470  222.6060 C   0  0  0  0  0  0  0  0  0  0  0  0
  141.8090   80.5270  222.7590 C   0  0  0  0  0  0  0  0  0  0  0  0
  142.0370   79.1680  222.8300 C   0  0  0  0  0  0  0  0  0  0  0  0
  140.9280   78.3280  222.7420 C   0  0  0  0  0  0  0  0  0  0  0  0
  141.0550   76.8450  222.8080 C   0  0  0  0  0  0  0  0  0  0  0  0
  140.7860   74.4280  220.4690 N   0  0  0  0  0  0  0  0  0  0  0  0
  143.5690   71.7540  219.6880 C   0  0  0  0  0  0  0  0  0  0  0  0
  145.0750   71.8780  219.6170 C   0  0  0  0  0  0  0  0  0  0  0  0
  146.4710   73.7790  218.6250 H   0  0  0  0  0  0  0  0  0  0  0  0
  147.0560   74.5230  220.1010 H   0  0  0  0  0  0  0  0  0  0  0  0
  145.6917   73.0532  221.3501 H   0  0  0  0  0  0  0  0  0  0  0  0
  144.7557   75.1700  220.2295 H   0  0  0  0  0  0  0  0  0  0  0  0
  143.6348   73.9210  220.9499 H   0  0  0  0  0  0  0  0  0  0  0  0
  144.3112   74.1823  218.0008 H   0  0  0  0  0  0  0  0  0  0  0  0
  142.8123   74.7965  218.8107 H   0  0  0  0  0  0  0  0  0  0  0  0
  143.1269   72.2564  217.6814 H   0  0  0  0  0  0  0  0  0  0  0  0
  140.9220   72.6950  218.0460 H   0  0  0  0  0  0  0  0  0  0  0  0
  139.1620   70.7740  222.9050 H   0  0  0  0  0  0  0  0  0  0  0  0
  141.4709   71.8549  224.4432 H   0  0  0  0  0  0  0  0  0  0  0  0
  139.8892   72.3738  225.1168 H   0  0  0  0  0  0  0  0  0  0  0  0
  138.9080   69.6046  223.7248 H   0  0  0  0  0  0  0  0  0  0  0  0
  138.5628   67.3613  224.7346 H   0  0  0  0  0  0  0  0  0  0  0  0
  139.7767   66.8135  226.8496 H   0  0  0  0  0  0  0  0  0  0  0  0
  141.2718   68.4684  227.8846 H   0  0  0  0  0  0  0  0  0  0  0  0
  141.6065   70.7111  226.8564 H   0  0  0  0  0  0  0  0  0  0  0  0
  139.2732   77.4864  220.4908 H   0  0  0  0  0  0  0  0  0  0  0  0
  138.1526   76.2548  221.0651 H   0  0  0  0  0  0  0  0  0  0  0  0
  137.5888   78.3764  222.2495 H   0  0  0  0  0  0  0  0  0  0  0  0
  138.3530   77.3558  223.4577 H   0  0  0  0  0  0  0  0  0  0  0  0
  138.4246   80.6330  222.3958 H   0  0  0  0  0  0  0  0  0  0  0  0
  140.4011   82.1373  222.5537 H   0  0  0  0  0  0  0  0  0  0  0  0
  142.6636   81.2164  222.8260 H   0  0  0  0  0  0  0  0  0  0  0  0
  143.0528   78.7638  222.9511 H   0  0  0  0  0  0  0  0  0  0  0  0
  142.0701   76.5585  222.4959 H   0  0  0  0  0  0  0  0  0  0  0  0
  140.8603   76.5265  223.8427 H   0  0  0  0  0  0  0  0  0  0  0  0
  143.2727   70.7186  219.4639 H   0  0  0  0  0  0  0  0  0  0  0  0
  143.2205   72.0173  220.6975 H   0  0  0  0  0  0  0  0  0  0  0  0
  145.3982   71.8782  218.5656 H   0  0  0  0  0  0  0  0  0  0  0  0
  145.5480   71.0297  220.1335 H   0  0  0  0  0  0  0  0  0  0  0  0
  1  2  1  0
  2  3  1  0
  3  4  1  0
  4  5  1  0
  5  6  1  0
  6  7  1  0
  7  8  2  0
  8  9  1  0
  9 10  1  0
 10 11  1  0
 11 12  1  0
 12 13  2  0
 13 14  1  0
 14 15  2  0
 15 16  1  0
 16 17  2  0
  9 18  2  0
 18 19  1  0
 19 20  1  0
 20 21  1  0
 21 22  1  0
 22 23  1  0
 23 24  2  0
 24 25  1  0
 25 26  2  0
 26 27  1  0
 27 28  2  0
 28 29  1  0
 19 30  2  0
  5 31  1  0
 31 32  1  0
 32  2  1  0
 30  7  1  0
 17 12  1  0
 29 20  1  0
 28 23  1  0
  1 33  1  0
  1 34  1  0
  2 35  1  1
  3 36  1  0
  3 37  1  0
  4 38  1  0
  4 39  1  0
  5 40  1  6
  6 41  1  0
 10 42  1  0
 11 43  1  0
 11 44  1  0
 13 45  1  0
 14 46  1  0
 15 47  1  0
 16 48  1  0
 17 49  1  0
 21 50  1  0
 21 51  1  0
 22 52  1  0
 22 53  1  0
 24 54  1  0
 25 55  1  0
 26 56  1  0
 27 57  1  0
 29 58  1  0
 29 59  1  0
 31 60  1  0
 31 61  1  0
 32 62  1  0
 32 63  1  0
M  END
>  <smiles>  (93) 
NC1CCC(Nc2nc(NCc3ccccc3)nc(N3CCc4ccccc4C3)n2)CC1

>  <score_type>  (93) 
oracle

>  <origin>  (93) 
autodockgpu

>  <m_score__min__energy>  (93) 
-10.94

>  <m_primary>  (93) 
energy

>  <rmsd>  (93) 
10.16165153050276

>  <m_score__min__rmsd>  (93) 
10.16165153050276

>  <meeko>  (93) 
{"free_energy": -9.36, "intermolecular_energy": -11.45, "internal_energy": -1.08, "cluster_size": 32, "cluster_id": 1, "rank_in_cluster": 28}

>  <energy>  (93) 
-8.83

>  <cluster_rmsd>  (93) 
1.35

>  <cluster>  (93) 
2

$$$$

     RDKit          3D

 63 67  0  0  0  0  0  0  0  0999 V2000
  146.2960   73.0800  218.7780 N   0  0  0  0  0  0  0  0  0  0  0  0
  145.4120   72.8500  219.9150 C   0  0  1  0  0  0  0  0  0  0  0  0
  145.1530   74.0940  220.7010 C   0  0  0  0  0  0  0  0  0  0  0  0
  144.0420   74.9560  220.1210 C   0  0  0  0  0  0  0  0  0  0  0  0
  142.7250   74.2300  220.1240 C   0  0  2  0  0  0  0  0  0  0  0  0
  141.8850   74.7940  221.1600 N   0  0  0  0  0  0  0  0  0  0  0  0
  140.6510   74.2050  221.4750 C   0  0  0  0  0  0  0  0  0  0  0  0
  139.4880   74.5910  220.9260 N   0  0  0  0  0  0  0  0  0  0  0  0
  138.3050   74.0080  221.2450 C   0  0  0  0  0  0  0  0  0  0  0  0
  137.0720   74.4420  220.6410 N   0  0  0  0  0  0  0  0  0  0  0  0
  136.3200   75.4950  221.2970 C   0  0  0  0  0  0  0  0  0  0  0  0
  135.8440   75.0140  222.6130 C   0  0  0  0  0  0  0  0  0  0  0  0
  135.3170   73.7470  222.6900 C   0  0  0  0  0  0  0  0  0  0  0  0
  134.8420   73.1940  223.8720 C   0  0  0  0  0  0  0  0  0  0  0  0
  134.9120   73.9730  225.0100 C   0  0  0  0  0  0  0  0  0  0  0  0
  135.4350   75.2430  224.9560 C   0  0  0  0  0  0  0  0  0  0  0  0
  135.9060   75.7800  223.7620 C   0  0  0  0  0  0  0  0  0  0  0  0
  138.3180   73.0050  222.1490 N   0  0  0  0  0  0  0  0  0  0  0  0
  139.4530   72.5780  222.7300 C   0  0  0  0  0  0  0  0  0  0  0  0
  139.4750   71.5220  223.6830 N   0  0  0  0  0  0  0  0  0  0  0  0
  138.3100   70.6820  223.8910 C   0  0  0  0  0  0  0  0  0  0  0  0
  138.8830   69.2800  224.1290 C   0  0  0  0  0  0  0  0  0  0  0  0
  139.5490   69.3870  225.4670 C   0  0  0  0  0  0  0  0  0  0  0  0
  139.2670   68.5110  226.4930 C   0  0  0  0  0  0  0  0  0  0  0  0
  139.9350   68.6940  227.6830 C   0  0  0  0  0  0  0  0  0  0  0  0
  140.8510   69.7180  227.8380 C   0  0  0  0  0  0  0  0  0  0  0  0
  141.1380   70.6000  226.8160 C   0  0  0  0  0  0  0  0  0  0  0  0
  140.4660   70.4190  225.6080 C   0  0  0  0  0  0  0  0  0  0  0  0
  140.6970   71.3100  224.4370 C   0  0  0  0  0  0  0  0  0  0  0  0
  140.5900   73.1950  222.3730 N   0  0  0  0  0  0  0  0  0  0  0  0
  142.9890   72.7710  220.3340 C   0  0  0  0  0  0  0  0  0  0  0  0
  144.0860   72.3310  219.3880 C   0  0  0  0  0  0  0  0  0  0  0  0
  145.8010   72.6960  217.9420 H   0  0  0  0  0  0  0  0  0  0  0  0
  146.5490   74.0890  218.7000 H   0  0  0  0  0  0  0  0  0  0  0  0
  145.9027   72.1277  220.5840 H   0  0  0  0  0  0  0  0  0  0  0  0
  146.0780   74.6887  220.7270 H   0  0  0  0  0  0  0  0  0  0  0  0
  144.8304   73.7818  221.7052 H   0  0  0  0  0  0  0  0  0  0  0  0
  144.3005   75.2240  219.0859 H   0  0  0  0  0  0  0  0  0  0  0  0
  143.9419   75.8568  220.7444 H   0  0  0  0  0  0  0  0  0  0  0  0
  142.1957   74.3445  219.1666 H   0  0  0  0  0  0  0  0  0  0  0  0
  142.2160   75.6280  221.6530 H   0  0  0  0  0  0  0  0  0  0  0  0
  136.7840   73.9770  219.7630 H   0  0  0  0  0  0  0  0  0  0  0  0
  136.9667   76.3734  221.4395 H   0  0  0  0  0  0  0  0  0  0  0  0
  135.4571   75.7726  220.6738 H   0  0  0  0  0  0  0  0  0  0  0  0
  135.2692   73.1425  221.7722 H   0  0  0  0  0  0  0  0  0  0  0  0
  134.4265   72.1759  223.9006 H   0  0  0  0  0  0  0  0  0  0  0  0
  134.5462   73.5739  225.9676 H   0  0  0  0  0  0  0  0  0  0  0  0
  135.4821   75.8464  225.8745 H   0  0  0  0  0  0  0  0  0  0  0  0
  136.3212   76.7982  223.7328 H   0  0  0  0  0  0  0  0  0  0  0  0
  137.7376   71.0216  224.7668 H   0  0  0  0  0  0  0  0  0  0  0  0
  137.6169   70.7105  223.0373 H   0  0  0  0  0  0  0  0  0  0  0  0
  138.0810   68.5275  224.1498 H   0  0  0  0  0  0  0  0  0  0  0  0
  139.5745   68.9631  223.3344 H   0  0  0  0  0  0  0  0  0  0  0  0
  138.5371   67.6978  226.3662 H   0  0  0  0  0  0  0  0  0  0  0  0
  139.7366   68.0140  228.5246 H   0  0  0  0  0  0  0  0  0  0  0  0
  141.3657   69.8330  228.8033 H   0  0  0  0  0  0  0  0  0  0  0  0
  141.8673   71.4127  226.9491 H   0  0  0  0  0  0  0  0  0  0  0  0
  141.0699   72.2812  224.7944 H   0  0  0  0  0  0  0  0  0  0  0  0
  141.4324   70.8285  223.7757 H   0  0  0  0  0  0  0  0  0  0  0  0
  142.0732   72.1968  220.1302 H   0  0  0  0  0  0  0  0  0  0  0  0
  143.3001   72.5941  221.3741 H   0  0  0  0  0  0  0  0  0  0  0  0
  143.8985   72.7423  218.3852 H   0  0  0  0  0  0  0  0  0  0  0  0
  144.1097   71.2332  219.3222 H   0  0  0  0  0  0  0  0  0  0  0  0
  1  2  1  0
  2  3  1  0
  3  4  1  0
  4  5  1  0
  5  6  1  0
  6  7  1  0
  7  8  2  0
  8  9  1  0
  9 10  1  0
 10 11  1  0
 11 12  1  0
 12 13  2  0
 13 14  1  0
 14 15  2  0
 15 16  1  0
 16 17  2  0
  9 18  2  0
 18 19  1  0
 19 20  1  0
 20 21  1  0
 21 22  1  0
 22 23  1  0
 23 24  2  0
 24 25  1  0
 25 26  2  0
 26 27  1  0
 27 28  2  0
 28 29  1  0
 19 30  2  0
  5 31  1  0
 31 32  1  0
 32  2  1  0
 30  7  1  0
 17 12  1  0
 29 20  1  0
 28 23  1  0
  1 33  1  0
  1 34  1  0
  2 35  1  1
  3 36  1  0
  3 37  1  0
  4 38  1  0
  4 39  1  0
  5 40  1  6
  6 41  1  0
 10 42  1  0
 11 43  1  0
 11 44  1  0
 13 45  1  0
 14 46  1  0
 15 47  1  0
 16 48  1  0
 17 49  1  0
 21 50  1  0
 21 51  1  0
 22 52  1  0
 22 53  1  0
 24 54  1  0
 25 55  1  0
 26 56  1  0
 27 57  1  0
 29 58  1  0
 29 59  1  0
 31 60  1  0
 31 61  1  0
 32 62  1  0
 32 63  1  0
M  END
>  <smiles>  (94) 
NC1CCC(Nc2nc(NCc3ccccc3)nc(N3CCc4ccccc4C3)n2)CC1

>  <score_type>  (94) 
oracle

>  <origin>  (94) 
autodockgpu

>  <m_score__min__energy>  (94) 
-10.94

>  <m_primary>  (94) 
energy

>  <rmsd>  (94) 
3.7620495744015927

>  <m_score__min__rmsd>  (94) 
3.7620495744015927

>  <meeko>  (94) 
{"free_energy": -9.37, "intermolecular_energy": -11.46, "internal_energy": -1.37, "cluster_size": 11, "cluster_id": 2, "rank_in_cluster": 9}

>  <energy>  (94) 
-9.5

>  <cluster_rmsd>  (94) 
0.0

>  <cluster>  (94) 
3

$$$$

     RDKit          3D

 63 67  0  0  0  0  0  0  0  0999 V2000
  146.3310   73.3950  218.7670 N   0  0  0  0  0  0  0  0  0  0  0  0
  145.5280   73.1740  219.9650 C   0  0  1  0  0  0  0  0  0  0  0  0
  145.1820   74.4470  220.6660 C   0  0  0  0  0  0  0  0  0  0  0  0
  143.9640   75.1470  220.0820 C   0  0  0  0  0  0  0  0  0  0  0  0
  142.7280   74.3000  220.2130 C   0  0  2  0  0  0  0  0  0  0  0  0
  141.8840   74.8630  221.2460 N   0  0  0  0  0  0  0  0  0  0  0  0
  140.6740   74.2440  221.5910 C   0  0  0  0  0  0  0  0  0  0  0  0
  139.4830   74.6290  221.1030 N   0  0  0  0  0  0  0  0  0  0  0  0
  138.3230   74.0180  221.4500 C   0  0  0  0  0  0  0  0  0  0  0  0
  137.0600   74.4510  220.9110 N   0  0  0  0  0  0  0  0  0  0  0  0
  136.3550   75.5220  221.5890 C   0  0  0  0  0  0  0  0  0  0  0  0
  135.8090   75.0180  222.8700 C   0  0  0  0  0  0  0  0  0  0  0  0
  135.3630   73.7200  222.9200 C   0  0  0  0  0  0  0  0  0  0  0  0
  134.8330   73.1440  224.0670 C   0  0  0  0  0  0  0  0  0  0  0  0
  134.7610   73.9330  225.1980 C   0  0  0  0  0  0  0  0  0  0  0  0
  135.2010   75.2350  225.1700 C   0  0  0  0  0  0  0  0  0  0  0  0
  135.7290   75.7950  224.0110 C   0  0  0  0  0  0  0  0  0  0  0  0
  138.3880   72.9870  222.3200 N   0  0  0  0  0  0  0  0  0  0  0  0
  139.5510   72.5600  222.8410 C   0  0  0  0  0  0  0  0  0  0  0  0
  139.6280   71.4740  223.7570 N   0  0  0  0  0  0  0  0  0  0  0  0
  138.6090   70.4410  223.7740 C   0  0  0  0  0  0  0  0  0  0  0  0
  139.3790   69.1440  224.0520 C   0  0  0  0  0  0  0  0  0  0  0  0
  139.8310   69.2920  225.4730 C   0  0  0  0  0  0  0  0  0  0  0  0
  139.5690   68.3290  226.4240 C   0  0  0  0  0  0  0  0  0  0  0  0
  140.0280   68.5600  227.7010 C   0  0  0  0  0  0  0  0  0  0  0  0
  140.7230   69.7140  228.0130 C   0  0  0  0  0  0  0  0  0  0  0  0
  140.9880   70.6830  227.0670 C   0  0  0  0  0  0  0  0  0  0  0  0
  140.5260   70.4550  225.7720 C   0  0  0  0  0  0  0  0  0  0  0  0
  140.7550   71.4310  224.6700 C   0  0  0  0  0  0  0  0  0  0  0  0
  140.6630   73.2060  222.4580 N   0  0  0  0  0  0  0  0  0  0  0  0
  143.1480   72.8950  220.5200 C   0  0  0  0  0  0  0  0  0  0  0  0
  144.2380   72.4870  219.5530 C   0  0  0  0  0  0  0  0  0  0  0  0
  145.6890   73.8220  218.0630 H   0  0  0  0  0  0  0  0  0  0  0  0
  147.1740   73.9690  218.9840 H   0  0  0  0  0  0  0  0  0  0  0  0
  146.1196   72.5596  220.6596 H   0  0  0  0  0  0  0  0  0  0  0  0
  146.0426   75.1285  220.5961 H   0  0  0  0  0  0  0  0  0  0  0  0
  144.9396   74.1885  221.7074 H   0  0  0  0  0  0  0  0  0  0  0  0
  144.1458   75.3522  219.0167 H   0  0  0  0  0  0  0  0  0  0  0  0
  143.8029   76.0823  220.6381 H   0  0  0  0  0  0  0  0  0  0  0  0
  142.1454   74.2841  219.2801 H   0  0  0  0  0  0  0  0  0  0  0  0
  142.1960   75.7180  221.7150 H   0  0  0  0  0  0  0  0  0  0  0  0
  136.7180   73.9720  220.0600 H   0  0  0  0  0  0  0  0  0  0  0  0
  137.0502   76.3511  221.7873 H   0  0  0  0  0  0  0  0  0  0  0  0
  135.5311   75.8793  220.9538 H   0  0  0  0  0  0  0  0  0  0  0  0
  135.4287   73.1078  222.0085 H   0  0  0  0  0  0  0  0  0  0  0  0
  134.4844   72.1007  224.0744 H   0  0  0  0  0  0  0  0  0  0  0  0
  134.3483   73.5164  226.1286 H   0  0  0  0  0  0  0  0  0  0  0  0
  135.1343   75.8463  226.0821 H   0  0  0  0  0  0  0  0  0  0  0  0
  136.0770   76.8385  224.0025 H   0  0  0  0  0  0  0  0  0  0  0  0
  137.8733   70.6340  224.5687 H   0  0  0  0  0  0  0  0  0  0  0  0
  138.0433   70.3970  222.8316 H   0  0  0  0  0  0  0  0  0  0  0  0
  138.7238   68.2677  223.9388 H   0  0  0  0  0  0  0  0  0  0  0  0
  140.2152   68.9888  223.3544 H   0  0  0  0  0  0  0  0  0  0  0  0
  139.0152   67.4125  226.1724 H   0  0  0  0  0  0  0  0  0  0  0  0
  139.8387   67.8138  228.4867 H   0  0  0  0  0  0  0  0  0  0  0  0
  141.0746   69.8638  229.0445 H   0  0  0  0  0  0  0  0  0  0  0  0
  141.5414   71.5981  227.3245 H   0  0  0  0  0  0  0  0  0  0  0  0
  140.9029   72.4313  225.1031 H   0  0  0  0  0  0  0  0  0  0  0  0
  141.6447   71.1137  224.1064 H   0  0  0  0  0  0  0  0  0  0  0  0
  142.2863   72.2199  220.4114 H   0  0  0  0  0  0  0  0  0  0  0  0
  143.5239   72.8354  221.5521 H   0  0  0  0  0  0  0  0  0  0  0  0
  143.9633   72.7939  218.5330 H   0  0  0  0  0  0  0  0  0  0  0  0
  144.3695   71.3950  219.5714 H   0  0  0  0  0  0  0  0  0  0  0  0
  1  2  1  0
  2  3  1  0
  3  4  1  0
  4  5  1  0
  5  6  1  0
  6  7  1  0
  7  8  2  0
  8  9  1  0
  9 10  1  0
 10 11  1  0
 11 12  1  0
 12 13  2  0
 13 14  1  0
 14 15  2  0
 15 16  1  0
 16 17  2  0
  9 18  2  0
 18 19  1  0
 19 20  1  0
 20 21  1  0
 21 22  1  0
 22 23  1  0
 23 24  2  0
 24 25  1  0
 25 26  2  0
 26 27  1  0
 27 28  2  0
 28 29  1  0
 19 30  2  0
  5 31  1  0
 31 32  1  0
 32  2  1  0
 30  7  1  0
 17 12  1  0
 29 20  1  0
 28 23  1  0
  1 33  1  0
  1 34  1  0
  2 35  1  1
  3 36  1  0
  3 37  1  0
  4 38  1  0
  4 39  1  0
  5 40  1  6
  6 41  1  0
 10 42  1  0
 11 43  1  0
 11 44  1  0
 13 45  1  0
 14 46  1  0
 15 47  1  0
 16 48  1  0
 17 49  1  0
 21 50  1  0
 21 51  1  0
 22 52  1  0
 22 53  1  0
 24 54  1  0
 25 55  1  0
 26 56  1  0
 27 57  1  0
 29 58  1  0
 29 59  1  0
 31 60  1  0
 31 61  1  0
 32 62  1  0
 32 63  1  0
M  END
>  <smiles>  (95) 
NC1CCC(Nc2nc(NCc3ccccc3)nc(N3CCc4ccccc4C3)n2)CC1

>  <score_type>  (95) 
oracle

>  <origin>  (95) 
autodockgpu

>  <m_score__min__energy>  (95) 
-10.94

>  <m_primary>  (95) 
energy

>  <rmsd>  (95) 
3.8204928223193337

>  <m_score__min__rmsd>  (95) 
3.8204928223193337

>  <meeko>  (95) 
{"free_energy": -9.62, "intermolecular_energy": -11.71, "internal_energy": -1.28, "cluster_size": 11, "cluster_id": 2, "rank_in_cluster": 3}

>  <energy>  (95) 
-9.14

>  <cluster_rmsd>  (95) 
0.63

>  <cluster>  (95) 
3

$$$$

     RDKit          3D

 63 67  0  0  0  0  0  0  0  0999 V2000
  146.6490   74.1340  220.4480 N   0  0  0  0  0  0  0  0  0  0  0  0
  145.4930   73.3800  220.9230 C   0  0  1  0  0  0  0  0  0  0  0  0
  144.2160   74.1420  220.7840 C   0  0  0  0  0  0  0  0  0  0  0  0
  143.6010   74.0440  219.3960 C   0  0  0  0  0  0  0  0  0  0  0  0
  143.2300   72.6270  219.0580 C   0  0  2  0  0  0  0  0  0  0  0  0
  141.7890   72.4950  219.1150 N   0  0  0  0  0  0  0  0  0  0  0  0
  141.0740   72.9810  220.2200 C   0  0  0  0  0  0  0  0  0  0  0  0
  140.5810   74.2280  220.2900 N   0  0  0  0  0  0  0  0  0  0  0  0
  139.8930   74.6780  221.3690 C   0  0  0  0  0  0  0  0  0  0  0  0
  139.3740   76.0200  221.4170 N   0  0  0  0  0  0  0  0  0  0  0  0
  139.5640   76.7860  222.6350 C   0  0  0  0  0  0  0  0  0  0  0  0
  140.5610   77.8540  222.3940 C   0  0  0  0  0  0  0  0  0  0  0  0
  141.2160   78.3890  223.4770 C   0  0  0  0  0  0  0  0  0  0  0  0
  142.1690   79.3930  223.3680 C   0  0  0  0  0  0  0  0  0  0  0  0
  142.4550   79.8600  222.1000 C   0  0  0  0  0  0  0  0  0  0  0  0
  141.8120   79.3390  221.0020 C   0  0  0  0  0  0  0  0  0  0  0  0
  140.8600   78.3340  221.1320 C   0  0  0  0  0  0  0  0  0  0  0  0
  139.7080   73.8270  222.4010 N   0  0  0  0  0  0  0  0  0  0  0  0
  140.1800   72.5680  222.3860 C   0  0  0  0  0  0  0  0  0  0  0  0
  139.9890   71.6650  223.4690 N   0  0  0  0  0  0  0  0  0  0  0  0
  138.7610   70.9020  223.5930 C   0  0  0  0  0  0  0  0  0  0  0  0
  139.2100   69.5330  224.1210 C   0  0  0  0  0  0  0  0  0  0  0  0
  139.6550   69.8180  225.5230 C   0  0  0  0  0  0  0  0  0  0  0  0
  139.1620   69.1130  226.6010 C   0  0  0  0  0  0  0  0  0  0  0  0
  139.6350   69.4510  227.8490 C   0  0  0  0  0  0  0  0  0  0  0  0
  140.5690   70.4590  228.0100 C   0  0  0  0  0  0  0  0  0  0  0  0
  141.0660   71.1690  226.9360 C   0  0  0  0  0  0  0  0  0  0  0  0
  140.5910   70.8310  225.6700 C   0  0  0  0  0  0  0  0  0  0  0  0
  141.0590   71.5300  224.4400 C   0  0  0  0  0  0  0  0  0  0  0  0
  140.8520   72.1830  221.2900 N   0  0  0  0  0  0  0  0  0  0  0  0
  143.9260   71.7130  220.0200 C   0  0  0  0  0  0  0  0  0  0  0  0
  145.3850   72.1080  220.1020 C   0  0  0  0  0  0  0  0  0  0  0  0
  147.4900   73.6410  220.8220 H   0  0  0  0  0  0  0  0  0  0  0  0
  146.6320   74.2260  219.4090 H   0  0  0  0  0  0  0  0  0  0  0  0
  145.6425   73.1697  221.9923 H   0  0  0  0  0  0  0  0  0  0  0  0
  144.4167   75.2013  221.0023 H   0  0  0  0  0  0  0  0  0  0  0  0
  143.4965   73.7007  221.4894 H   0  0  0  0  0  0  0  0  0  0  0  0
  144.3281   74.4096  218.6560 H   0  0  0  0  0  0  0  0  0  0  0  0
  142.6859   74.6543  219.3795 H   0  0  0  0  0  0  0  0  0  0  0  0
  143.5486   72.3559  218.0406 H   0  0  0  0  0  0  0  0  0  0  0  0
  141.3110   72.0430  218.3310 H   0  0  0  0  0  0  0  0  0  0  0  0
  138.8890   76.3730  220.5740 H   0  0  0  0  0  0  0  0  0  0  0  0
  138.6078   77.2380  222.9371 H   0  0  0  0  0  0  0  0  0  0  0  0
  139.9234   76.1215  223.4346 H   0  0  0  0  0  0  0  0  0  0  0  0
  140.9738   78.0034  224.4783 H   0  0  0  0  0  0  0  0  0  0  0  0
  142.6757   79.7999  224.2555 H   0  0  0  0  0  0  0  0  0  0  0  0
  143.2033   80.6553  221.9675 H   0  0  0  0  0  0  0  0  0  0  0  0
  142.0555   79.7248  220.0011 H   0  0  0  0  0  0  0  0  0  0  0  0
  140.3526   77.9271  220.2449 H   0  0  0  0  0  0  0  0  0  0  0  0
  138.0729   71.3855  224.3021 H   0  0  0  0  0  0  0  0  0  0  0  0
  138.2188   70.8247  222.6390 H   0  0  0  0  0  0  0  0  0  0  0  0
  138.3750   68.8170  224.1130 H   0  0  0  0  0  0  0  0  0  0  0  0
  140.0026   69.0799  223.5074 H   0  0  0  0  0  0  0  0  0  0  0  0
  138.4199   68.3119  226.4688 H   0  0  0  0  0  0  0  0  0  0  0  0
  139.2643   68.9108  228.7326 H   0  0  0  0  0  0  0  0  0  0  0  0
  140.9253   70.7012  229.0221 H   0  0  0  0  0  0  0  0  0  0  0  0
  141.8075   71.9698  227.0736 H   0  0  0  0  0  0  0  0  0  0  0  0
  141.4226   72.5315  224.7137 H   0  0  0  0  0  0  0  0  0  0  0  0
  141.8644   70.9330  223.9874 H   0  0  0  0  0  0  0  0  0  0  0  0
  143.8438   70.6741  219.6679 H   0  0  0  0  0  0  0  0  0  0  0  0
  143.4613   71.7934  221.0138 H   0  0  0  0  0  0  0  0  0  0  0  0
  145.7792   72.2845  219.0904 H   0  0  0  0  0  0  0  0  0  0  0  0
  145.9678   71.3034  220.5743 H   0  0  0  0  0  0  0  0  0  0  0  0
  1  2  1  0
  2  3  1  0
  3  4  1  0
  4  5  1  0
  5  6  1  0
  6  7  1  0
  7  8  2  0
  8  9  1  0
  9 10  1  0
 10 11  1  0
 11 12  1  0
 12 13  2  0
 13 14  1  0
 14 15  2  0
 15 16  1  0
 16 17  2  0
  9 18  2  0
 18 19  1  0
 19 20  1  0
 20 21  1  0
 21 22  1  0
 22 23  1  0
 23 24  2  0
 24 25  1  0
 25 26  2  0
 26 27  1  0
 27 28  2  0
 28 29  1  0
 19 30  2  0
  5 31  1  0
 31 32  1  0
 32  2  1  0
 30  7  1  0
 17 12  1  0
 29 20  1  0
 28 23  1  0
  1 33  1  0
  1 34  1  0
  2 35  1  1
  3 36  1  0
  3 37  1  0
  4 38  1  0
  4 39  1  0
  5 40  1  6
  6 41  1  0
 10 42  1  0
 11 43  1  0
 11 44  1  0
 13 45  1  0
 14 46  1  0
 15 47  1  0
 16 48  1  0
 17 49  1  0
 21 50  1  0
 21 51  1  0
 22 52  1  0
 22 53  1  0
 24 54  1  0
 25 55  1  0
 26 56  1  0
 27 57  1  0
 29 58  1  0
 29 59  1  0
 31 60  1  0
 31 61  1  0
 32 62  1  0
 32 63  1  0
M  END
>  <smiles>  (96) 
NC1CCC(Nc2nc(NCc3ccccc3)nc(N3CCc4ccccc4C3)n2)CC1

>  <score_type>  (96) 
oracle

>  <origin>  (96) 
autodockgpu

>  <m_score__min__energy>  (96) 
-10.94

>  <m_primary>  (96) 
energy

>  <rmsd>  (96) 
3.8699234615237277

>  <m_score__min__rmsd>  (96) 
3.8699234615237277

>  <meeko>  (96) 
{"free_energy": -9.03, "intermolecular_energy": -11.12, "internal_energy": -1.31, "cluster_size": 32, "cluster_id": 1, "rank_in_cluster": 32}

>  <energy>  (96) 
-9.03

>  <cluster_rmsd>  (96) 
0.91

>  <cluster>  (96) 
3

$$$$

     RDKit          3D

 63 67  0  0  0  0  0  0  0  0999 V2000
  146.5730   73.4440  219.1470 N   0  0  0  0  0  0  0  0  0  0  0  0
  145.4620   73.0140  219.9890 C   0  0  1  0  0  0  0  0  0  0  0  0
  144.2160   73.7990  219.7390 C   0  0  0  0  0  0  0  0  0  0  0  0
  143.4060   73.2880  218.5570 C   0  0  0  0  0  0  0  0  0  0  0  0
  142.9230   71.8830  218.7880 C   0  0  2  0  0  0  0  0  0  0  0  0
  141.5010   71.9170  219.0560 N   0  0  0  0  0  0  0  0  0  0  0  0
  141.0060   72.5780  220.1900 C   0  0  0  0  0  0  0  0  0  0  0  0
  140.3820   71.9470  221.1980 N   0  0  0  0  0  0  0  0  0  0  0  0
  139.9100   72.6060  222.2860 C   0  0  0  0  0  0  0  0  0  0  0  0
  139.2450   71.9030  223.3530 N   0  0  0  0  0  0  0  0  0  0  0  0
  139.8210   70.6540  223.8150 C   0  0  0  0  0  0  0  0  0  0  0  0
  140.1690   70.7740  225.2490 C   0  0  0  0  0  0  0  0  0  0  0  0
  139.8360   69.7380  226.0880 C   0  0  0  0  0  0  0  0  0  0  0  0
  140.1150   69.7430  227.4490 C   0  0  0  0  0  0  0  0  0  0  0  0
  140.7580   70.8540  227.9600 C   0  0  0  0  0  0  0  0  0  0  0  0
  141.1010   71.9020  227.1390 C   0  0  0  0  0  0  0  0  0  0  0  0
  140.8130   71.8780  225.7780 C   0  0  0  0  0  0  0  0  0  0  0  0
  140.0830   73.9430  222.3390 N   0  0  0  0  0  0  0  0  0  0  0  0
  140.6980   74.6270  221.3590 C   0  0  0  0  0  0  0  0  0  0  0  0
  140.8850   76.0370  221.4080 N   0  0  0  0  0  0  0  0  0  0  0  0
  140.1290   76.8560  222.3380 C   0  0  0  0  0  0  0  0  0  0  0  0
  141.1220   77.9290  222.8010 C   0  0  0  0  0  0  0  0  0  0  0  0
  141.3250   78.7790  221.5840 C   0  0  0  0  0  0  0  0  0  0  0  0
  141.1530   80.1470  221.6130 C   0  0  0  0  0  0  0  0  0  0  0  0
  141.3640   80.8370  220.4410 C   0  0  0  0  0  0  0  0  0  0  0  0
  141.7340   80.1800  219.2820 C   0  0  0  0  0  0  0  0  0  0  0  0
  141.9070   78.8120  219.2440 C   0  0  0  0  0  0  0  0  0  0  0  0
  141.6950   78.1070  220.4270 C   0  0  0  0  0  0  0  0  0  0  0  0
  141.8540   76.6280  220.5030 C   0  0  0  0  0  0  0  0  0  0  0  0
  141.1430   73.9190  220.3100 N   0  0  0  0  0  0  0  0  0  0  0  0
  143.7040   71.2950  219.9240 C   0  0  0  0  0  0  0  0  0  0  0  0
  145.1770   71.5540  219.6900 C   0  0  0  0  0  0  0  0  0  0  0  0
  146.1500   73.7570  218.2450 H   0  0  0  0  0  0  0  0  0  0  0  0
  147.1450   74.1730  219.6280 H   0  0  0  0  0  0  0  0  0  0  0  0
  145.7522   73.1722  221.0382 H   0  0  0  0  0  0  0  0  0  0  0  0
  144.4961   74.8446  219.5436 H   0  0  0  0  0  0  0  0  0  0  0  0
  143.5838   73.6977  220.6335 H   0  0  0  0  0  0  0  0  0  0  0  0
  144.0373   73.3057  217.6564 H   0  0  0  0  0  0  0  0  0  0  0  0
  142.5283   73.9392  218.4320 H   0  0  0  0  0  0  0  0  0  0  0  0
  143.0800   71.2489  217.9029 H   0  0  0  0  0  0  0  0  0  0  0  0
  140.8710   71.4500  218.3970 H   0  0  0  0  0  0  0  0  0  0  0  0
  138.3850   72.3290  223.7390 H   0  0  0  0  0  0  0  0  0  0  0  0
  139.0915   69.8416  223.6811 H   0  0  0  0  0  0  0  0  0  0  0  0
  140.7280   70.4304  223.2341 H   0  0  0  0  0  0  0  0  0  0  0  0
  139.3240   68.8628  225.6616 H   0  0  0  0  0  0  0  0  0  0  0  0
  139.8353   68.8967  228.0936 H   0  0  0  0  0  0  0  0  0  0  0  0
  140.9975   70.9004  229.0326 H   0  0  0  0  0  0  0  0  0  0  0  0
  141.6132   72.7766  227.5665 H   0  0  0  0  0  0  0  0  0  0  0  0
  141.0931   72.7237  225.1328 H   0  0  0  0  0  0  0  0  0  0  0  0
  139.2649   77.3165  221.8367 H   0  0  0  0  0  0  0  0  0  0  0  0
  139.7247   76.2708  223.1771 H   0  0  0  0  0  0  0  0  0  0  0  0
  140.7015   78.5215  223.6269 H   0  0  0  0  0  0  0  0  0  0  0  0
  142.0613   77.5023  223.1827 H   0  0  0  0  0  0  0  0  0  0  0  0
  140.8586   80.6665  222.5369 H   0  0  0  0  0  0  0  0  0  0  0  0
  141.2361   81.9294  220.4261 H   0  0  0  0  0  0  0  0  0  0  0  0
  141.8949   80.7648  218.3643 H   0  0  0  0  0  0  0  0  0  0  0  0
  142.2006   78.2982  218.3168 H   0  0  0  0  0  0  0  0  0  0  0  0
  141.7132   76.2008  219.4992 H   0  0  0  0  0  0  0  0  0  0  0  0
  142.8623   76.4073  220.8832 H   0  0  0  0  0  0  0  0  0  0  0  0
  143.5229   70.2112  219.9751 H   0  0  0  0  0  0  0  0  0  0  0  0
  143.3896   71.7566  220.8717 H   0  0  0  0  0  0  0  0  0  0  0  0
  145.4309   71.3332  218.6427 H   0  0  0  0  0  0  0  0  0  0  0  0
  145.7819   70.9098  220.3451 H   0  0  0  0  0  0  0  0  0  0  0  0
  1  2  1  0
  2  3  1  0
  3  4  1  0
  4  5  1  0
  5  6  1  0
  6  7  1  0
  7  8  2  0
  8  9  1  0
  9 10  1  0
 10 11  1  0
 11 12  1  0
 12 13  2  0
 13 14  1  0
 14 15  2  0
 15 16  1  0
 16 17  2  0
  9 18  2  0
 18 19  1  0
 19 20  1  0
 20 21  1  0
 21 22  1  0
 22 23  1  0
 23 24  2  0
 24 25  1  0
 25 26  2  0
 26 27  1  0
 27 28  2  0
 28 29  1  0
 19 30  2  0
  5 31  1  0
 31 32  1  0
 32  2  1  0
 30  7  1  0
 17 12  1  0
 29 20  1  0
 28 23  1  0
  1 33  1  0
  1 34  1  0
  2 35  1  1
  3 36  1  0
  3 37  1  0
  4 38  1  0
  4 39  1  0
  5 40  1  6
  6 41  1  0
 10 42  1  0
 11 43  1  0
 11 44  1  0
 13 45  1  0
 14 46  1  0
 15 47  1  0
 16 48  1  0
 17 49  1  0
 21 50  1  0
 21 51  1  0
 22 52  1  0
 22 53  1  0
 24 54  1  0
 25 55  1  0
 26 56  1  0
 27 57  1  0
 29 58  1  0
 29 59  1  0
 31 60  1  0
 31 61  1  0
 32 62  1  0
 32 63  1  0
M  END
>  <smiles>  (97) 
NC1CCC(Nc2nc(NCc3ccccc3)nc(N3CCc4ccccc4C3)n2)CC1

>  <score_type>  (97) 
oracle

>  <origin>  (97) 
autodockgpu

>  <m_score__min__energy>  (97) 
-10.94

>  <m_primary>  (97) 
energy

>  <rmsd>  (97) 
10.229160457504378

>  <m_score__min__rmsd>  (97) 
10.229160457504378

>  <meeko>  (97) 
{"free_energy": -10.0, "intermolecular_energy": -12.09, "internal_energy": -1.25, "cluster_size": 32, "cluster_id": 1, "rank_in_cluster": 16}

>  <energy>  (97) 
-8.75

>  <cluster_rmsd>  (97) 
0.72

>  <cluster>  (97) 
3

$$$$

     RDKit          3D

 63 67  0  0  0  0  0  0  0  0999 V2000
  142.5560   80.0630  221.5250 N   0  0  0  0  0  0  0  0  0  0  0  0
  141.2460   79.4570  221.7450 C   0  0  1  0  0  0  0  0  0  0  0  0
  140.7680   78.6810  220.5620 C   0  0  0  0  0  0  0  0  0  0  0  0
  141.3180   77.2640  220.5050 C   0  0  0  0  0  0  0  0  0  0  0  0
  140.8710   76.4530  221.6900 C   0  0  2  0  0  0  0  0  0  0  0  0
  139.8690   75.5040  221.2540 N   0  0  0  0  0  0  0  0  0  0  0  0
  140.1520   74.1300  221.2350 C   0  0  0  0  0  0  0  0  0  0  0  0
  140.5860   73.4810  220.1430 N   0  0  0  0  0  0  0  0  0  0  0  0
  140.8520   72.1510  220.1450 C   0  0  0  0  0  0  0  0  0  0  0  0
  141.3180   71.4800  218.9590 N   0  0  0  0  0  0  0  0  0  0  0  0
  142.7390   71.2190  218.8320 C   0  0  0  0  0  0  0  0  0  0  0  0
  143.5010   72.3270  219.4520 C   0  0  0  0  0  0  0  0  0  0  0  0
  143.3730   73.5840  218.9130 C   0  0  0  0  0  0  0  0  0  0  0  0
  144.0400   74.6950  219.4140 C   0  0  0  0  0  0  0  0  0  0  0  0
  144.8640   74.5010  220.5060 C   0  0  0  0  0  0  0  0  0  0  0  0
  145.0060   73.2520  221.0610 C   0  0  0  0  0  0  0  0  0  0  0  0
  144.3300   72.1510  220.5440 C   0  0  0  0  0  0  0  0  0  0  0  0
  140.6690   71.4720  221.2970 N   0  0  0  0  0  0  0  0  0  0  0  0
  140.2350   72.0690  222.4210 C   0  0  0  0  0  0  0  0  0  0  0  0
  140.0400   71.3600  223.6390 N   0  0  0  0  0  0  0  0  0  0  0  0
  138.8710   70.5220  223.8340 C   0  0  0  0  0  0  0  0  0  0  0  0
  139.3890   69.3170  224.6290 C   0  0  0  0  0  0  0  0  0  0  0  0
  139.7080   69.8870  225.9770 C   0  0  0  0  0  0  0  0  0  0  0  0
  139.1960   69.3450  227.1370 C   0  0  0  0  0  0  0  0  0  0  0  0
  139.5500   69.9430  228.3260 C   0  0  0  0  0  0  0  0  0  0  0  0
  140.3860   71.0440  228.3500 C   0  0  0  0  0  0  0  0  0  0  0  0
  140.9020   71.5940  227.1940 C   0  0  0  0  0  0  0  0  0  0  0  0
  140.5470   70.9920  225.9870 C   0  0  0  0  0  0  0  0  0  0  0  0
  141.0440   71.5000  224.6780 C   0  0  0  0  0  0  0  0  0  0  0  0
  139.9890   73.3860  222.3540 N   0  0  0  0  0  0  0  0  0  0  0  0
  140.3530   77.3920  222.7370 C   0  0  0  0  0  0  0  0  0  0  0  0
  141.3520   78.5120  222.9280 C   0  0  0  0  0  0  0  0  0  0  0  0
  142.5340   80.9850  222.0140 H   0  0  0  0  0  0  0  0  0  0  0  0
  143.3180   79.4260  221.8430 H   0  0  0  0  0  0  0  0  0  0  0  0
  140.5249   80.2675  221.9272 H   0  0  0  0  0  0  0  0  0  0  0  0
  141.0769   79.2116  219.6493 H   0  0  0  0  0  0  0  0  0  0  0  0
  139.6742   78.6010  220.6473 H   0  0  0  0  0  0  0  0  0  0  0  0
  142.4171   77.3070  220.4950 H   0  0  0  0  0  0  0  0  0  0  0  0
  140.9375   76.7818  219.5925 H   0  0  0  0  0  0  0  0  0  0  0  0
  141.7020   75.8808  222.1282 H   0  0  0  0  0  0  0  0  0  0  0  0
  138.9550   75.8610  220.9640 H   0  0  0  0  0  0  0  0  0  0  0  0
  140.6090   71.2170  218.2530 H   0  0  0  0  0  0  0  0  0  0  0  0
  142.9854   70.2750  219.3401 H   0  0  0  0  0  0  0  0  0  0  0  0
  143.0042   71.1420  217.7672 H   0  0  0  0  0  0  0  0  0  0  0  0
  142.7116   73.7171  218.0442 H   0  0  0  0  0  0  0  0  0  0  0  0
  143.9170   75.6892  218.9596 H   0  0  0  0  0  0  0  0  0  0  0  0
  145.4110   75.3536  220.9347 H   0  0  0  0  0  0  0  0  0  0  0  0
  145.6666   73.1200  221.9306 H   0  0  0  0  0  0  0  0  0  0  0  0
  144.4534   71.1563  220.9972 H   0  0  0  0  0  0  0  0  0  0  0  0
  138.0980   71.0596  224.4028 H   0  0  0  0  0  0  0  0  0  0  0  0
  138.4058   70.2258  222.8822 H   0  0  0  0  0  0  0  0  0  0  0  0
  138.6168   68.5375  224.7062 H   0  0  0  0  0  0  0  0  0  0  0  0
  140.2574   68.8365  224.1546 H   0  0  0  0  0  0  0  0  0  0  0  0
  138.5308   68.4692  227.1136 H   0  0  0  0  0  0  0  0  0  0  0  0
  139.1613   69.5381  229.2720 H   0  0  0  0  0  0  0  0  0  0  0  0
  140.6475   71.4948  229.3187 H   0  0  0  0  0  0  0  0  0  0  0  0
  141.5657   72.4707  227.2234 H   0  0  0  0  0  0  0  0  0  0  0  0
  141.3047   72.5635  224.7826 H   0  0  0  0  0  0  0  0  0  0  0  0
  141.9252   70.9083  224.3894 H   0  0  0  0  0  0  0  0  0  0  0  0
  140.2195   76.8506  223.6852 H   0  0  0  0  0  0  0  0  0  0  0  0
  139.3846   77.8063  222.4199 H   0  0  0  0  0  0  0  0  0  0  0  0
  142.3693   78.0970  222.9817 H   0  0  0  0  0  0  0  0  0  0  0  0
  141.1397   79.0519  223.8626 H   0  0  0  0  0  0  0  0  0  0  0  0
  1  2  1  0
  2  3  1  0
  3  4  1  0
  4  5  1  0
  5  6  1  0
  6  7  1  0
  7  8  2  0
  8  9  1  0
  9 10  1  0
 10 11  1  0
 11 12  1  0
 12 13  2  0
 13 14  1  0
 14 15  2  0
 15 16  1  0
 16 17  2  0
  9 18  2  0
 18 19  1  0
 19 20  1  0
 20 21  1  0
 21 22  1  0
 22 23  1  0
 23 24  2  0
 24 25  1  0
 25 26  2  0
 26 27  1  0
 27 28  2  0
 28 29  1  0
 19 30  2  0
  5 31  1  0
 31 32  1  0
 32  2  1  0
 30  7  1  0
 17 12  1  0
 29 20  1  0
 28 23  1  0
  1 33  1  0
  1 34  1  0
  2 35  1  1
  3 36  1  0
  3 37  1  0
  4 38  1  0
  4 39  1  0
  5 40  1  1
  6 41  1  0
 10 42  1  0
 11 43  1  0
 11 44  1  0
 13 45  1  0
 14 46  1  0
 15 47  1  0
 16 48  1  0
 17 49  1  0
 21 50  1  0
 21 51  1  0
 22 52  1  0
 22 53  1  0
 24 54  1  0
 25 55  1  0
 26 56  1  0
 27 57  1  0
 29 58  1  0
 29 59  1  0
 31 60  1  0
 31 61  1  0
 32 62  1  0
 32 63  1  0
M  END
>  <smiles>  (98) 
NC1CCC(Nc2nc(NCc3ccccc3)nc(N3CCc4ccccc4C3)n2)CC1

>  <score_type>  (98) 
oracle

>  <origin>  (98) 
autodockgpu

>  <m_score__min__energy>  (98) 
-10.94

>  <m_primary>  (98) 
energy

>  <rmsd>  (98) 
3.999649305768227

>  <m_score__min__rmsd>  (98) 
3.999649305768227

>  <meeko>  (98) 
{"free_energy": -8.7, "intermolecular_energy": -10.79, "internal_energy": -1.55, "cluster_size": 3, "cluster_id": 4, "rank_in_cluster": 2}

>  <energy>  (98) 
-8.97

>  <cluster_rmsd>  (98) 
0.0

>  <cluster>  (98) 
4

$$$$

     RDKit          3D

 63 67  0  0  0  0  0  0  0  0999 V2000
  140.7410   68.2050  227.1170 N   0  0  0  0  0  0  0  0  0  0  0  0
  139.6570   69.0940  226.7130 C   0  0  1  0  0  0  0  0  0  0  0  0
  140.1060   70.5090  226.5530 C   0  0  0  0  0  0  0  0  0  0  0  0
  140.7310   70.7960  225.1960 C   0  0  0  0  0  0  0  0  0  0  0  0
  139.7440   70.5880  224.0810 C   0  0  2  0  0  0  0  0  0  0  0  0
  139.3440   71.8810  223.5660 N   0  0  0  0  0  0  0  0  0  0  0  0
  139.9670   72.4180  222.4300 C   0  0  0  0  0  0  0  0  0  0  0  0
  140.3650   71.6740  221.3850 N   0  0  0  0  0  0  0  0  0  0  0  0
  140.9670   72.2130  220.2960 C   0  0  0  0  0  0  0  0  0  0  0  0
  141.3830   71.3910  219.1890 N   0  0  0  0  0  0  0  0  0  0  0  0
  142.7890   71.0510  219.0770 C   0  0  0  0  0  0  0  0  0  0  0  0
  143.6100   72.1870  219.5540 C   0  0  0  0  0  0  0  0  0  0  0  0
  144.3780   72.0080  220.6790 C   0  0  0  0  0  0  0  0  0  0  0  0
  145.1850   73.0040  221.2140 C   0  0  0  0  0  0  0  0  0  0  0  0
  145.2000   74.2240  220.5660 C   0  0  0  0  0  0  0  0  0  0  0  0
  144.4390   74.4250  219.4390 C   0  0  0  0  0  0  0  0  0  0  0  0
  143.6370   73.4150  218.9190 C   0  0  0  0  0  0  0  0  0  0  0  0
  141.1650   73.5480  220.2790 N   0  0  0  0  0  0  0  0  0  0  0  0
  140.7880   74.3420  221.2960 C   0  0  0  0  0  0  0  0  0  0  0  0
  140.9920   75.7510  221.2860 N   0  0  0  0  0  0  0  0  0  0  0  0
  141.6690   76.3960  220.1770 C   0  0  0  0  0  0  0  0  0  0  0  0
  140.9260   77.7260  219.9940 C   0  0  0  0  0  0  0  0  0  0  0  0
  141.2980   78.5160  221.2110 C   0  0  0  0  0  0  0  0  0  0  0  0
  141.8260   79.7860  221.1220 C   0  0  0  0  0  0  0  0  0  0  0  0
  142.1340   80.4280  222.3000 C   0  0  0  0  0  0  0  0  0  0  0  0
  141.9200   79.8180  223.5230 C   0  0  0  0  0  0  0  0  0  0  0  0
  141.3920   78.5470  223.6210 C   0  0  0  0  0  0  0  0  0  0  0  0
  141.0780   77.8920  222.4310 C   0  0  0  0  0  0  0  0  0  0  0  0
  140.5020   76.5180  222.4170 C   0  0  0  0  0  0  0  0  0  0  0  0
  140.1980   73.7490  222.3450 N   0  0  0  0  0  0  0  0  0  0  0  0
  138.5860   69.8020  224.6140 C   0  0  0  0  0  0  0  0  0  0  0  0
  139.1160   68.6090  225.3800 C   0  0  0  0  0  0  0  0  0  0  0  0
  141.4220   68.7980  227.6390 H   0  0  0  0  0  0  0  0  0  0  0  0
  140.3740   67.3930  227.6590 H   0  0  0  0  0  0  0  0  0  0  0  0
  138.8911   69.0730  227.5023 H   0  0  0  0  0  0  0  0  0  0  0  0
  140.8500   70.7288  227.3328 H   0  0  0  0  0  0  0  0  0  0  0  0
  139.2123   71.1445  226.6392 H   0  0  0  0  0  0  0  0  0  0  0  0
  141.5869   70.1213  225.0465 H   0  0  0  0  0  0  0  0  0  0  0  0
  141.0543   71.8473  225.1798 H   0  0  0  0  0  0  0  0  0  0  0  0
  140.1849   70.0199  223.2487 H   0  0  0  0  0  0  0  0  0  0  0  0
  138.5980   72.3870  224.0510 H   0  0  0  0  0  0  0  0  0  0  0  0
  140.6530   71.0820  218.5250 H   0  0  0  0  0  0  0  0  0  0  0  0
  143.0014   70.1622  219.6894 H   0  0  0  0  0  0  0  0  0  0  0  0
  143.0325   70.8380  218.0256 H   0  0  0  0  0  0  0  0  0  0  0  0
  144.3526   71.0291  221.1801 H   0  0  0  0  0  0  0  0  0  0  0  0
  145.7878   72.8284  222.1172 H   0  0  0  0  0  0  0  0  0  0  0  0
  145.8257   75.0409  220.9549 H   0  0  0  0  0  0  0  0  0  0  0  0
  144.4650   75.4042  218.9386 H   0  0  0  0  0  0  0  0  0  0  0  0
  143.0333   73.5903  218.0163 H   0  0  0  0  0  0  0  0  0  0  0  0
  142.7279   76.5721  220.4173 H   0  0  0  0  0  0  0  0  0  0  0  0
  141.6567   75.7812  219.2649 H   0  0  0  0  0  0  0  0  0  0  0  0
  141.2584   78.2374  219.0786 H   0  0  0  0  0  0  0  0  0  0  0  0
  139.8390   77.5941  219.8894 H   0  0  0  0  0  0  0  0  0  0  0  0
  141.9947   80.2678  220.1476 H   0  0  0  0  0  0  0  0  0  0  0  0
  142.5573   81.4428  222.2684 H   0  0  0  0  0  0  0  0  0  0  0  0
  142.1781   80.3618  224.4437 H   0  0  0  0  0  0  0  0  0  0  0  0
  141.2256   78.0700  224.5981 H   0  0  0  0  0  0  0  0  0  0  0  0
  140.7823   76.0027  223.3476 H   0  0  0  0  0  0  0  0  0  0  0  0
  139.4085   76.6013  222.3318 H   0  0  0  0  0  0  0  0  0  0  0  0
  137.9587   69.4561  223.7792 H   0  0  0  0  0  0  0  0  0  0  0  0
  137.9807   70.4343  225.2801 H   0  0  0  0  0  0  0  0  0  0  0  0
  139.9212   68.1273  224.8059 H   0  0  0  0  0  0  0  0  0  0  0  0
  138.3104   67.8781  225.5437 H   0  0  0  0  0  0  0  0  0  0  0  0
  1  2  1  0
  2  3  1  0
  3  4  1  0
  4  5  1  0
  5  6  1  0
  6  7  1  0
  7  8  2  0
  8  9  1  0
  9 10  1  0
 10 11  1  0
 11 12  1  0
 12 13  2  0
 13 14  1  0
 14 15  2  0
 15 16  1  0
 16 17  2  0
  9 18  2  0
 18 19  1  0
 19 20  1  0
 20 21  1  0
 21 22  1  0
 22 23  1  0
 23 24  2  0
 24 25  1  0
 25 26  2  0
 26 27  1  0
 27 28  2  0
 28 29  1  0
 19 30  2  0
  5 31  1  0
 31 32  1  0
 32  2  1  0
 30  7  1  0
 17 12  1  0
 29 20  1  0
 28 23  1  0
  1 33  1  0
  1 34  1  0
  2 35  1  1
  3 36  1  0
  3 37  1  0
  4 38  1  0
  4 39  1  0
  5 40  1  6
  6 41  1  0
 10 42  1  0
 11 43  1  0
 11 44  1  0
 13 45  1  0
 14 46  1  0
 15 47  1  0
 16 48  1  0
 17 49  1  0
 21 50  1  0
 21 51  1  0
 22 52  1  0
 22 53  1  0
 24 54  1  0
 25 55  1  0
 26 56  1  0
 27 57  1  0
 29 58  1  0
 29 59  1  0
 31 60  1  0
 31 61  1  0
 32 62  1  0
 32 63  1  0
M  END
>  <smiles>  (99) 
NC1CCC(Nc2nc(NCc3ccccc3)nc(N3CCc4ccccc4C3)n2)CC1

>  <score_type>  (99) 
oracle

>  <origin>  (99) 
autodockgpu

>  <m_score__min__energy>  (99) 
-10.94

>  <m_primary>  (99) 
energy

>  <rmsd>  (99) 
10.134157267632645

>  <m_score__min__rmsd>  (99) 
10.134157267632645

>  <meeko>  (99) 
{"free_energy": -9.14, "intermolecular_energy": -11.23, "internal_energy": -1.38, "cluster_size": 4, "cluster_id": 3, "rank_in_cluster": 2}

>  <energy>  (99) 
-8.7

>  <cluster_rmsd>  (99) 
0.44

>  <cluster>  (99) 
4

$$$$

     RDKit          3D

 63 67  0  0  0  0  0  0  0  0999 V2000
  146.3070   73.3640  218.1830 N   0  0  0  0  0  0  0  0  0  0  0  0
  145.2700   73.2840  219.2060 C   0  0  1  0  0  0  0  0  0  0  0  0
  143.9360   73.7320  218.7050 C   0  0  0  0  0  0  0  0  0  0  0  0
  143.1700   72.6450  217.9670 C   0  0  0  0  0  0  0  0  0  0  0  0
  142.8610   71.4820  218.8680 C   0  0  2  0  0  0  0  0  0  0  0  0
  141.4490   71.5040  219.1890 N   0  0  0  0  0  0  0  0  0  0  0  0
  140.9790   72.2580  220.2750 C   0  0  0  0  0  0  0  0  0  0  0  0
  140.3030   71.7250  221.3060 N   0  0  0  0  0  0  0  0  0  0  0  0
  139.8550   72.4730  222.3450 C   0  0  0  0  0  0  0  0  0  0  0  0
  139.1340   71.8750  223.4390 N   0  0  0  0  0  0  0  0  0  0  0  0
  139.5910   70.5940  223.9440 C   0  0  0  0  0  0  0  0  0  0  0  0
  140.0530   70.7520  225.3420 C   0  0  0  0  0  0  0  0  0  0  0  0
  139.7980   69.7360  226.2300 C   0  0  0  0  0  0  0  0  0  0  0  0
  140.1850   69.7780  227.5630 C   0  0  0  0  0  0  0  0  0  0  0  0
  140.8580   70.9050  227.9920 C   0  0  0  0  0  0  0  0  0  0  0  0
  141.1240   71.9340  227.1210 C   0  0  0  0  0  0  0  0  0  0  0  0
  140.7270   71.8740  225.7890 C   0  0  0  0  0  0  0  0  0  0  0  0
  140.1080   73.7990  222.3250 N   0  0  0  0  0  0  0  0  0  0  0  0
  140.7790   74.3860  221.3190 C   0  0  0  0  0  0  0  0  0  0  0  0
  141.0490   75.7830  221.2900 N   0  0  0  0  0  0  0  0  0  0  0  0
  141.8190   76.3700  220.2100 C   0  0  0  0  0  0  0  0  0  0  0  0
  141.1510   77.7270  219.9540 C   0  0  0  0  0  0  0  0  0  0  0  0
  141.4880   78.5290  221.1730 C   0  0  0  0  0  0  0  0  0  0  0  0
  142.0810   79.7710  221.0880 C   0  0  0  0  0  0  0  0  0  0  0  0
  142.3490   80.4270  222.2680 C   0  0  0  0  0  0  0  0  0  0  0  0
  142.0350   79.8580  223.4890 C   0  0  0  0  0  0  0  0  0  0  0  0
  141.4430   78.6150  223.5830 C   0  0  0  0  0  0  0  0  0  0  0  0
  141.1690   77.9460  222.3910 C   0  0  0  0  0  0  0  0  0  0  0  0
  140.5300   76.6000  222.3720 C   0  0  0  0  0  0  0  0  0  0  0  0
  141.1950   73.5930  220.3200 N   0  0  0  0  0  0  0  0  0  0  0  0
  143.7260   71.5850  220.0870 C   0  0  0  0  0  0  0  0  0  0  0  0
  145.1530   71.8390  219.6540 C   0  0  0  0  0  0  0  0  0  0  0  0
  146.0160   72.7090  217.4230 H   0  0  0  0  0  0  0  0  0  0  0  0
  146.4470   74.3490  217.8700 H   0  0  0  0  0  0  0  0  0  0  0  0
  145.5591   73.9500  220.0323 H   0  0  0  0  0  0  0  0  0  0  0  0
  144.0878   74.5783  218.0189 H   0  0  0  0  0  0  0  0  0  0  0  0
  143.3366   74.0108  219.5842 H   0  0  0  0  0  0  0  0  0  0  0  0
  143.7775   72.2907  217.1212 H   0  0  0  0  0  0  0  0  0  0  0  0
  142.2192   73.0710  217.6140 H   0  0  0  0  0  0  0  0  0  0  0  0
  143.0764   70.5204  218.3792 H   0  0  0  0  0  0  0  0  0  0  0  0
  140.8090   70.9590  218.6050 H   0  0  0  0  0  0  0  0  0  0  0  0
  138.3210   72.3940  223.8120 H   0  0  0  0  0  0  0  0  0  0  0  0
  138.7634   69.8702  223.9107 H   0  0  0  0  0  0  0  0  0  0  0  0
  140.4217   70.2293  223.3219 H   0  0  0  0  0  0  0  0  0  0  0  0
  139.2616   68.8464  225.8681 H   0  0  0  0  0  0  0  0  0  0  0  0
  139.9644   68.9472  228.2494 H   0  0  0  0  0  0  0  0  0  0  0  0
  141.1839   70.9796  229.0400 H   0  0  0  0  0  0  0  0  0  0  0  0
  141.6613   72.8225  227.4841 H   0  0  0  0  0  0  0  0  0  0  0  0
  140.9456   72.7053  225.1026 H   0  0  0  0  0  0  0  0  0  0  0  0
  142.8689   76.5040  220.5095 H   0  0  0  0  0  0  0  0  0  0  0  0
  141.8315   75.7344  219.3123 H   0  0  0  0  0  0  0  0  0  0  0  0
  141.5596   78.2000  219.0488 H   0  0  0  0  0  0  0  0  0  0  0  0
  140.0669   77.6420  219.7880 H   0  0  0  0  0  0  0  0  0  0  0  0
  142.3301   80.2200  220.1152 H   0  0  0  0  0  0  0  0  0  0  0  0
  142.8207   81.4203  222.2395 H   0  0  0  0  0  0  0  0  0  0  0  0
  142.2637   80.4121  224.4113 H   0  0  0  0  0  0  0  0  0  0  0  0
  141.1973   78.1702  224.5586 H   0  0  0  0  0  0  0  0  0  0  0  0
  140.7294   76.0955  223.3289 H   0  0  0  0  0  0  0  0  0  0  0  0
  139.4488   76.7320  222.2185 H   0  0  0  0  0  0  0  0  0  0  0  0
  143.6745   70.6456  220.6570 H   0  0  0  0  0  0  0  0  0  0  0  0
  143.3766   72.4112  220.7237 H   0  0  0  0  0  0  0  0  0  0  0  0
  145.4125   71.1699  218.8204 H   0  0  0  0  0  0  0  0  0  0  0  0
  145.8407   71.6469  220.4907 H   0  0  0  0  0  0  0  0  0  0  0  0
  1  2  1  0
  2  3  1  0
  3  4  1  0
  4  5  1  0
  5  6  1  0
  6  7  1  0
  7  8  2  0
  8  9  1  0
  9 10  1  0
 10 11  1  0
 11 12  1  0
 12 13  2  0
 13 14  1  0
 14 15  2  0
 15 16  1  0
 16 17  2  0
  9 18  2  0
 18 19  1  0
 19 20  1  0
 20 21  1  0
 21 22  1  0
 22 23  1  0
 23 24  2  0
 24 25  1  0
 25 26  2  0
 26 27  1  0
 27 28  2  0
 28 29  1  0
 19 30  2  0
  5 31  1  0
 31 32  1  0
 32  2  1  0
 30  7  1  0
 17 12  1  0
 29 20  1  0
 28 23  1  0
  1 33  1  0
  1 34  1  0
  2 35  1  1
  3 36  1  0
  3 37  1  0
  4 38  1  0
  4 39  1  0
  5 40  1  6
  6 41  1  0
 10 42  1  0
 11 43  1  0
 11 44  1  0
 13 45  1  0
 14 46  1  0
 15 47  1  0
 16 48  1  0
 17 49  1  0
 21 50  1  0
 21 51  1  0
 22 52  1  0
 22 53  1  0
 24 54  1  0
 25 55  1  0
 26 56  1  0
 27 57  1  0
 29 58  1  0
 29 59  1  0
 31 60  1  0
 31 61  1  0
 32 62  1  0
 32 63  1  0
M  END
>  <smiles>  (100) 
NC1CCC(Nc2nc(NCc3ccccc3)nc(N3CCc4ccccc4C3)n2)CC1

>  <score_type>  (100) 
oracle

>  <origin>  (100) 
autodockgpu

>  <m_score__min__energy>  (100) 
-10.94

>  <m_primary>  (100) 
energy

>  <rmsd>  (100) 
10.172896453288057

>  <m_score__min__rmsd>  (100) 
10.172896453288057

>  <meeko>  (100) 
{"free_energy": -10.08, "intermolecular_energy": -12.17, "internal_energy": -1.32, "cluster_size": 32, "cluster_id": 1, "rank_in_cluster": 14}

>  <energy>  (100) 
-8.32

>  <cluster_rmsd>  (100) 
0.78

>  <cluster>  (100) 
4

$$$$
