
     RDKit          3D

 50 53  0  0  0  0  0  0  0  0999 V2000
  139.3890   74.3090  221.7940 O   0  0  0  0  0  0  0  0  0  0  0  0
  140.5240   74.8340  221.6240 C   0  0  0  0  0  0  0  0  0  0  0  0
  140.6900   76.2420  221.8370 N   0  0  0  0  0  0  0  0  0  0  0  0
  139.6430   77.1280  222.2260 C   0  0  0  0  0  0  0  0  0  0  0  0
  140.0350   78.3760  222.8820 C   0  0  0  0  0  0  0  0  0  0  0  0
  139.0200   78.9780  223.4500 O   0  0  0  0  0  0  0  0  0  0  0  0
  141.2600   79.0080  223.0120 N   0  0  0  0  0  0  0  0  0  0  0  0
  142.0480   79.3830  224.2020 C   0  0  0  0  0  0  0  0  0  0  0  0
  142.9690   80.5180  223.7790 C   0  0  0  0  0  0  0  0  0  0  0  0
  142.3620   80.9020  222.4580 C   0  0  0  0  0  0  0  0  0  0  0  0
  142.0810   79.4890  221.9190 C   0  0  2  0  0  0  0  0  0  0  0  0
  141.5310   79.5470  220.5710 C   0  0  0  0  0  0  0  0  0  0  0  0
  142.0280   78.5910  219.5780 C   0  0  0  0  0  0  0  0  0  0  0  0
  142.1530   79.0730  218.2630 C   0  0  0  0  0  0  0  0  0  0  0  0
  142.6100   78.2490  217.2670 C   0  0  0  0  0  0  0  0  0  0  0  0
  142.9570   76.9410  217.5120 C   0  0  0  0  0  0  0  0  0  0  0  0
  142.8250   76.4910  218.8100 C   0  0  0  0  0  0  0  0  0  0  0  0
  142.3760   77.3210  219.7610 N   0  0  0  0  0  0  0  0  0  0  0  0
  141.6690   74.0000  221.2060 C   0  0  0  0  0  0  0  0  0  0  0  0
  141.4710   72.6600  220.9930 C   0  0  0  0  0  0  0  0  0  0  0  0
  142.5300   71.8730  220.6030 C   0  0  0  0  0  0  0  0  0  0  0  0
  143.7810   72.4330  220.4300 C   0  0  0  0  0  0  0  0  0  0  0  0
  144.8330   71.6200  220.0380 C   0  0  0  0  0  0  0  0  0  0  0  0
  146.0610   72.1880  219.8730 C   0  0  0  0  0  0  0  0  0  0  0  0
  146.2060   73.5330  220.0980 C   0  0  0  0  0  0  0  0  0  0  0  0
  145.1780   74.3650  220.4890 C   0  0  0  0  0  0  0  0  0  0  0  0
  143.9330   73.7780  220.6560 C   0  0  0  0  0  0  0  0  0  0  0  0
  142.8900   74.5380  221.0360 N   0  0  0  0  0  0  0  0  0  0  0  0
  141.6870   76.5840  221.6790 H   0  0  0  0  0  0  0  0  0  0  0  0
  139.0793   77.3931  221.3194 H   0  0  0  0  0  0  0  0  0  0  0  0
  139.0699   76.5754  222.9851 H   0  0  0  0  0  0  0  0  0  0  0  0
  141.3796   79.7183  225.0087 H   0  0  0  0  0  0  0  0  0  0  0  0
  142.6251   78.5260  224.5796 H   0  0  0  0  0  0  0  0  0  0  0  0
  142.9380   81.3520  224.4956 H   0  0  0  0  0  0  0  0  0  0  0  0
  144.0329   80.2435  223.7268 H   0  0  0  0  0  0  0  0  0  0  0  0
  141.4405   81.4901  222.5803 H   0  0  0  0  0  0  0  0  0  0  0  0
  142.9819   81.5446  221.8154 H   0  0  0  0  0  0  0  0  0  0  0  0
  142.9166   78.8013  221.7220 H   0  0  0  0  0  0  0  0  0  0  0  0
  140.4449   79.3946  220.6552 H   0  0  0  0  0  0  0  0  0  0  0  0
  141.8506   80.5276  220.1886 H   0  0  0  0  0  0  0  0  0  0  0  0
  141.8833   80.1143  218.0327 H   0  0  0  0  0  0  0  0  0  0  0  0
  142.7015   78.6447  216.2447 H   0  0  0  0  0  0  0  0  0  0  0  0
  143.3231   76.2833  216.7099 H   0  0  0  0  0  0  0  0  0  0  0  0
  143.0878   75.4533  219.0631 H   0  0  0  0  0  0  0  0  0  0  0  0
  140.4735   72.2178  221.1328 H   0  0  0  0  0  0  0  0  0  0  0  0
  142.3805   70.7972  220.4288 H   0  0  0  0  0  0  0  0  0  0  0  0
  144.6808   70.5445  219.8646 H   0  0  0  0  0  0  0  0  0  0  0  0
  146.9222   71.5772  219.5642 H   0  0  0  0  0  0  0  0  0  0  0  0
  147.2034   73.9753  219.9580 H   0  0  0  0  0  0  0  0  0  0  0  0
  145.3377   75.4399  220.6597 H   0  0  0  0  0  0  0  0  0  0  0  0
  1  2  2  0
  2  3  1  0
  3  4  1  0
  4  5  1  0
  5  6  2  0
  5  7  1  0
  7  8  1  0
  8  9  1  0
  9 10  1  0
 10 11  1  0
 11 12  1  0
 12 13  1  0
 13 14  2  0
 14 15  1  0
 15 16  2  0
 16 17  1  0
 17 18  2  0
  2 19  1  0
 19 20  2  0
 20 21  1  0
 21 22  2  0
 22 23  1  0
 23 24  2  0
 24 25  1  0
 25 26  2  0
 26 27  1  0
 27 28  2  0
 11  7  1  0
 18 13  1  0
 28 19  1  0
 27 22  1  0
  3 29  1  0
  4 30  1  0
  4 31  1  0
  8 32  1  0
  8 33  1  0
  9 34  1  0
  9 35  1  0
 10 36  1  0
 10 37  1  0
 11 38  1  6
 12 39  1  0
 12 40  1  0
 14 41  1  0
 15 42  1  0
 16 43  1  0
 17 44  1  0
 20 45  1  0
 21 46  1  0
 23 47  1  0
 24 48  1  0
 25 49  1  0
 26 50  1  0
M  END
>  <smiles>  (1) 
O=C(NCC(=O)N1CCCC1Cc1ccccn1)c1ccc2ccccc2n1

>  <score_type>  (1) 
oracle

>  <origin>  (1) 
autodockgpu

>  <m_score__min__energy>  (1) 
-8.8499999999999996

>  <m_primary>  (1) 
energy

>  <rmsd>  (1) 
6.566812756935214

>  <m_score__min__rmsd>  (1) 
6.566812756935214

>  <meeko>  (1) 
{"free_energy": -7.13, "intermolecular_energy": -8.92, "internal_energy": -2.85, "cluster_size": 6, "cluster_id": 5, "rank_in_cluster": 2}

>  <energy>  (1) 
-8.85

>  <cluster_rmsd>  (1) 
0.0

>  <cluster>  (1) 
1

$$$$

     RDKit          3D

 50 53  0  0  0  0  0  0  0  0999 V2000
  139.6560   70.8760  221.3620 O   0  0  0  0  0  0  0  0  0  0  0  0
  139.6570   71.5060  222.4550 C   0  0  0  0  0  0  0  0  0  0  0  0
  139.5760   72.9370  222.4460 N   0  0  0  0  0  0  0  0  0  0  0  0
  139.5070   73.7330  221.2650 C   0  0  0  0  0  0  0  0  0  0  0  0
  140.3230   74.9480  221.2320 C   0  0  0  0  0  0  0  0  0  0  0  0
  140.2850   75.6030  222.3650 O   0  0  0  0  0  0  0  0  0  0  0  0
  141.1140   75.5050  220.2400 N   0  0  0  0  0  0  0  0  0  0  0  0
  142.1690   74.9250  219.3880 C   0  0  0  0  0  0  0  0  0  0  0  0
  143.0480   76.0790  218.9300 C   0  0  0  0  0  0  0  0  0  0  0  0
  142.5890   77.1720  219.8560 C   0  0  0  0  0  0  0  0  0  0  0  0
  141.0780   76.8880  219.8100 C   0  0  2  0  0  0  0  0  0  0  0  0
  140.3410   77.8710  220.5930 C   0  0  0  0  0  0  0  0  0  0  0  0
  141.0410   78.5550  221.6830 C   0  0  0  0  0  0  0  0  0  0  0  0
  141.6420   79.7840  221.3590 C   0  0  0  0  0  0  0  0  0  0  0  0
  142.3190   80.4940  222.3150 C   0  0  0  0  0  0  0  0  0  0  0  0
  142.4350   80.0400  223.6080 C   0  0  0  0  0  0  0  0  0  0  0  0
  141.8370   78.8320  223.9020 C   0  0  0  0  0  0  0  0  0  0  0  0
  141.1830   78.1610  222.9450 N   0  0  0  0  0  0  0  0  0  0  0  0
  139.7410   70.7690  223.7330 C   0  0  0  0  0  0  0  0  0  0  0  0
  139.2710   69.4830  223.7890 C   0  0  0  0  0  0  0  0  0  0  0  0
  139.3450   68.7860  224.9730 C   0  0  0  0  0  0  0  0  0  0  0  0
  139.8880   69.3840  226.0940 C   0  0  0  0  0  0  0  0  0  0  0  0
  139.9510   68.6620  227.2760 C   0  0  0  0  0  0  0  0  0  0  0  0
  140.4890   69.2670  228.3730 C   0  0  0  0  0  0  0  0  0  0  0  0
  140.9450   70.5560  228.2640 C   0  0  0  0  0  0  0  0  0  0  0  0
  140.8940   71.2960  227.1020 C   0  0  0  0  0  0  0  0  0  0  0  0
  140.3440   70.6730  225.9920 C   0  0  0  0  0  0  0  0  0  0  0  0
  140.2680   71.3450  224.8290 N   0  0  0  0  0  0  0  0  0  0  0  0
  139.5720   73.3720  223.4190 H   0  0  0  0  0  0  0  0  0  0  0  0
  139.8191   73.1010  220.4205 H   0  0  0  0  0  0  0  0  0  0  0  0
  138.4666   74.0873  221.2205 H   0  0  0  0  0  0  0  0  0  0  0  0
  142.7644   74.2005  219.9629 H   0  0  0  0  0  0  0  0  0  0  0  0
  141.7345   74.3943  218.5280 H   0  0  0  0  0  0  0  0  0  0  0  0
  144.1157   75.8536  219.0685 H   0  0  0  0  0  0  0  0  0  0  0  0
  142.9581   76.3219  217.8609 H   0  0  0  0  0  0  0  0  0  0  0  0
  143.0018   77.0577  220.8692 H   0  0  0  0  0  0  0  0  0  0  0  0
  142.8925   78.1924  219.5790 H   0  0  0  0  0  0  0  0  0  0  0  0
  140.5285   76.9924  218.8628 H   0  0  0  0  0  0  0  0  0  0  0  0
  139.9883   78.6452  219.8956 H   0  0  0  0  0  0  0  0  0  0  0  0
  139.5582   77.2855  221.0975 H   0  0  0  0  0  0  0  0  0  0  0  0
  141.5683   80.1768  220.3342 H   0  0  0  0  0  0  0  0  0  0  0  0
  142.7824   81.4533  222.0411 H   0  0  0  0  0  0  0  0  0  0  0  0
  142.9795   80.6136  224.3725 H   0  0  0  0  0  0  0  0  0  0  0  0
  141.8972   78.4207  224.9204 H   0  0  0  0  0  0  0  0  0  0  0  0
  138.8380   69.0116  222.8944 H   0  0  0  0  0  0  0  0  0  0  0  0
  138.9719   67.7526  225.0271 H   0  0  0  0  0  0  0  0  0  0  0  0
  139.5770   67.6288  227.3273 H   0  0  0  0  0  0  0  0  0  0  0  0
  140.5563   68.7298  229.3305 H   0  0  0  0  0  0  0  0  0  0  0  0
  141.3778   71.0281  229.1583 H   0  0  0  0  0  0  0  0  0  0  0  0
  141.2706   72.3286  227.0576 H   0  0  0  0  0  0  0  0  0  0  0  0
  1  2  2  0
  2  3  1  0
  3  4  1  0
  4  5  1  0
  5  6  2  0
  5  7  1  0
  7  8  1  0
  8  9  1  0
  9 10  1  0
 10 11  1  0
 11 12  1  0
 12 13  1  0
 13 14  2  0
 14 15  1  0
 15 16  2  0
 16 17  1  0
 17 18  2  0
  2 19  1  0
 19 20  2  0
 20 21  1  0
 21 22  2  0
 22 23  1  0
 23 24  2  0
 24 25  1  0
 25 26  2  0
 26 27  1  0
 27 28  2  0
 11  7  1  0
 18 13  1  0
 28 19  1  0
 27 22  1  0
  3 29  1  0
  4 30  1  0
  4 31  1  0
  8 32  1  0
  8 33  1  0
  9 34  1  0
  9 35  1  0
 10 36  1  0
 10 37  1  0
 11 38  1  6
 12 39  1  0
 12 40  1  0
 14 41  1  0
 15 42  1  0
 16 43  1  0
 17 44  1  0
 20 45  1  0
 21 46  1  0
 23 47  1  0
 24 48  1  0
 25 49  1  0
 26 50  1  0
M  END
>  <smiles>  (2) 
O=C(NCC(=O)N1CCCC1Cc1ccccn1)c1ccc2ccccc2n1

>  <score_type>  (2) 
oracle

>  <origin>  (2) 
autodockgpu

>  <m_score__min__energy>  (2) 
-8.8499999999999996

>  <m_primary>  (2) 
energy

>  <rmsd>  (2) 
1.7852207994228664

>  <m_score__min__rmsd>  (2) 
1.7852207994228664

>  <meeko>  (2) 
{"free_energy": -8.71, "intermolecular_energy": -10.5, "internal_energy": -1.55, "cluster_size": 18, "cluster_id": 1, "rank_in_cluster": 9}

>  <energy>  (2) 
-8.84

>  <cluster_rmsd>  (2) 
0.31

>  <cluster>  (2) 
1

$$$$

     RDKit          3D

 50 53  0  0  0  0  0  0  0  0999 V2000
  141.3720   71.6340  221.5370 O   0  0  0  0  0  0  0  0  0  0  0  0
  140.6640   72.1180  222.4610 C   0  0  0  0  0  0  0  0  0  0  0  0
  140.1500   73.4500  222.3340 N   0  0  0  0  0  0  0  0  0  0  0  0
  140.3920   74.3050  221.2200 C   0  0  0  0  0  0  0  0  0  0  0  0
  140.4360   75.7440  221.4810 C   0  0  0  0  0  0  0  0  0  0  0  0
  139.5860   76.1070  222.4090 O   0  0  0  0  0  0  0  0  0  0  0  0
  141.2060   76.7600  220.9390 N   0  0  0  0  0  0  0  0  0  0  0  0
  141.1240   78.2280  221.0700 C   0  0  0  0  0  0  0  0  0  0  0  0
  141.8130   78.8170  219.8490 C   0  0  0  0  0  0  0  0  0  0  0  0
  141.9240   77.6020  218.9690 C   0  0  0  0  0  0  0  0  0  0  0  0
  142.3310   76.5810  220.0440 C   0  0  2  0  0  0  0  0  0  0  0  0
  142.5830   75.2740  219.4500 C   0  0  0  0  0  0  0  0  0  0  0  0
  143.6980   74.4790  219.9720 C   0  0  0  0  0  0  0  0  0  0  0  0
  143.5260   73.0840  219.9510 C   0  0  0  0  0  0  0  0  0  0  0  0
  144.5170   72.2600  220.4190 C   0  0  0  0  0  0  0  0  0  0  0  0
  145.6970   72.7590  220.9190 C   0  0  0  0  0  0  0  0  0  0  0  0
  145.8420   74.1310  220.9290 C   0  0  0  0  0  0  0  0  0  0  0  0
  144.8550   74.9090  220.4650 N   0  0  0  0  0  0  0  0  0  0  0  0
  140.3700   71.3130  223.6650 C   0  0  0  0  0  0  0  0  0  0  0  0
  139.7130   70.1190  223.5210 C   0  0  0  0  0  0  0  0  0  0  0  0
  139.4340   69.3610  224.6350 C   0  0  0  0  0  0  0  0  0  0  0  0
  139.8150   69.8050  225.8860 C   0  0  0  0  0  0  0  0  0  0  0  0
  139.5220   69.0240  226.9940 C   0  0  0  0  0  0  0  0  0  0  0  0
  139.9040   69.4780  228.2210 C   0  0  0  0  0  0  0  0  0  0  0  0
  140.5590   70.6790  228.3120 C   0  0  0  0  0  0  0  0  0  0  0  0
  140.8620   71.4760  227.2270 C   0  0  0  0  0  0  0  0  0  0  0  0
  140.4690   71.0070  225.9830 C   0  0  0  0  0  0  0  0  0  0  0  0
  140.7370   71.7400  224.8870 N   0  0  0  0  0  0  0  0  0  0  0  0
  139.5540   73.7590  223.1620 H   0  0  0  0  0  0  0  0  0  0  0  0
  141.3609   74.0173  220.7859 H   0  0  0  0  0  0  0  0  0  0  0  0
  139.5249   74.1623  220.5583 H   0  0  0  0  0  0  0  0  0  0  0  0
  140.0718   78.5472  221.1019 H   0  0  0  0  0  0  0  0  0  0  0  0
  141.6059   78.5691  221.9982 H   0  0  0  0  0  0  0  0  0  0  0  0
  141.2017   79.6017  219.3793 H   0  0  0  0  0  0  0  0  0  0  0  0
  142.7721   79.3111  220.0635 H   0  0  0  0  0  0  0  0  0  0  0  0
  140.9656   77.3447  218.4943 H   0  0  0  0  0  0  0  0  0  0  0  0
  142.6077   77.6927  218.1121 H   0  0  0  0  0  0  0  0  0  0  0  0
  143.2838   76.7006  220.5805 H   0  0  0  0  0  0  0  0  0  0  0  0
  141.6685   74.6761  219.5774 H   0  0  0  0  0  0  0  0  0  0  0  0
  142.8703   75.4974  218.4119 H   0  0  0  0  0  0  0  0  0  0  0  0
  142.5937   72.6522  219.5580 H   0  0  0  0  0  0  0  0  0  0  0  0
  144.3642   71.1710  220.3939 H   0  0  0  0  0  0  0  0  0  0  0  0
  146.4893   72.0944  221.2939 H   0  0  0  0  0  0  0  0  0  0  0  0
  146.7658   74.5850  221.3170 H   0  0  0  0  0  0  0  0  0  0  0  0
  139.4110   69.7693  222.5227 H   0  0  0  0  0  0  0  0  0  0  0  0
  138.9073   68.4011  224.5291 H   0  0  0  0  0  0  0  0  0  0  0  0
  138.9956   68.0642  226.8855 H   0  0  0  0  0  0  0  0  0  0  0  0
  139.6899   68.8893  229.1252 H   0  0  0  0  0  0  0  0  0  0  0  0
  140.8613   71.0284  229.3103 H   0  0  0  0  0  0  0  0  0  0  0  0
  141.3886   72.4347  227.3433 H   0  0  0  0  0  0  0  0  0  0  0  0
  1  2  2  0
  2  3  1  0
  3  4  1  0
  4  5  1  0
  5  6  2  0
  5  7  1  0
  7  8  1  0
  8  9  1  0
  9 10  1  0
 10 11  1  0
 11 12  1  0
 12 13  1  0
 13 14  2  0
 14 15  1  0
 15 16  2  0
 16 17  1  0
 17 18  2  0
  2 19  1  0
 19 20  2  0
 20 21  1  0
 21 22  2  0
 22 23  1  0
 23 24  2  0
 24 25  1  0
 25 26  2  0
 26 27  1  0
 27 28  2  0
 11  7  1  0
 18 13  1  0
 28 19  1  0
 27 22  1  0
  3 29  1  0
  4 30  1  0
  4 31  1  0
  8 32  1  0
  8 33  1  0
  9 34  1  0
  9 35  1  0
 10 36  1  0
 10 37  1  0
 11 38  1  1
 12 39  1  0
 12 40  1  0
 14 41  1  0
 15 42  1  0
 16 43  1  0
 17 44  1  0
 20 45  1  0
 21 46  1  0
 23 47  1  0
 24 48  1  0
 25 49  1  0
 26 50  1  0
M  END
>  <smiles>  (3) 
O=C(NCC(=O)N1CCCC1Cc1ccccn1)c1ccc2ccccc2n1

>  <score_type>  (3) 
oracle

>  <origin>  (3) 
autodockgpu

>  <m_score__min__energy>  (3) 
-8.8499999999999996

>  <m_primary>  (3) 
energy

>  <rmsd>  (3) 
2.347920563102766

>  <m_score__min__rmsd>  (3) 
2.347920563102766

>  <meeko>  (3) 
{"free_energy": -8.49, "intermolecular_energy": -10.28, "internal_energy": -1.64, "cluster_size": 9, "cluster_id": 4, "rank_in_cluster": 1}

>  <energy>  (3) 
-8.84

>  <cluster_rmsd>  (3) 
1.09

>  <cluster>  (3) 
1

$$$$

     RDKit          3D

 50 53  0  0  0  0  0  0  0  0999 V2000
  139.4600   74.2650  221.9310 O   0  0  0  0  0  0  0  0  0  0  0  0
  140.5790   74.7920  221.6840 C   0  0  0  0  0  0  0  0  0  0  0  0
  140.7480   76.2050  221.8540 N   0  0  0  0  0  0  0  0  0  0  0  0
  139.7180   77.0950  222.2800 C   0  0  0  0  0  0  0  0  0  0  0  0
  140.1370   78.3310  222.9410 C   0  0  0  0  0  0  0  0  0  0  0  0
  139.1950   78.8320  223.6990 O   0  0  0  0  0  0  0  0  0  0  0  0
  141.3280   79.0400  222.9110 N   0  0  0  0  0  0  0  0  0  0  0  0
  142.1560   79.6070  223.9920 C   0  0  0  0  0  0  0  0  0  0  0  0
  142.9810   80.7250  223.3720 C   0  0  0  0  0  0  0  0  0  0  0  0
  142.2800   80.9000  222.0530 C   0  0  0  0  0  0  0  0  0  0  0  0
  142.0560   79.4160  221.7170 C   0  0  2  0  0  0  0  0  0  0  0  0
  141.4290   79.2680  220.4100 C   0  0  0  0  0  0  0  0  0  0  0  0
  142.0400   78.3450  219.4490 C   0  0  0  0  0  0  0  0  0  0  0  0
  142.3660   78.8850  218.1930 C   0  0  0  0  0  0  0  0  0  0  0  0
  142.9400   78.0960  217.2310 C   0  0  0  0  0  0  0  0  0  0  0  0
  143.2140   76.7670  217.4540 C   0  0  0  0  0  0  0  0  0  0  0  0
  142.8850   76.2600  218.6940 C   0  0  0  0  0  0  0  0  0  0  0  0
  142.3240   77.0570  219.6130 N   0  0  0  0  0  0  0  0  0  0  0  0
  141.7040   73.9530  221.2230 C   0  0  0  0  0  0  0  0  0  0  0  0
  141.4690   72.6400  220.9100 C   0  0  0  0  0  0  0  0  0  0  0  0
  142.5090   71.8490  220.4790 C   0  0  0  0  0  0  0  0  0  0  0  0
  143.7790   72.3800  220.3650 C   0  0  0  0  0  0  0  0  0  0  0  0
  144.8120   71.5640  219.9280 C   0  0  0  0  0  0  0  0  0  0  0  0
  146.0590   72.1030  219.8230 C   0  0  0  0  0  0  0  0  0  0  0  0
  146.2420   73.4220  220.1480 C   0  0  0  0  0  0  0  0  0  0  0  0
  145.2340   74.2560  220.5840 C   0  0  0  0  0  0  0  0  0  0  0  0
  143.9690   73.6990  220.6900 C   0  0  0  0  0  0  0  0  0  0  0  0
  142.9450   74.4630  221.1100 N   0  0  0  0  0  0  0  0  0  0  0  0
  141.7320   76.5480  221.6320 H   0  0  0  0  0  0  0  0  0  0  0  0
  139.1342   77.3760  221.3911 H   0  0  0  0  0  0  0  0  0  0  0  0
  139.1591   76.5377  223.0462 H   0  0  0  0  0  0  0  0  0  0  0  0
  141.5142   80.0078  224.7904 H   0  0  0  0  0  0  0  0  0  0  0  0
  142.8042   78.8382  224.4379 H   0  0  0  0  0  0  0  0  0  0  0  0
  142.9380   81.6424  223.9774 H   0  0  0  0  0  0  0  0  0  0  0  0
  144.0554   80.5039  223.2891 H   0  0  0  0  0  0  0  0  0  0  0  0
  141.3326   81.4493  222.1565 H   0  0  0  0  0  0  0  0  0  0  0  0
  142.8236   81.4849  221.2964 H   0  0  0  0  0  0  0  0  0  0  0  0
  142.9196   78.7538  221.5568 H   0  0  0  0  0  0  0  0  0  0  0  0
  140.3974   78.9260  220.5800 H   0  0  0  0  0  0  0  0  0  0  0  0
  141.5360   80.2581  219.9428 H   0  0  0  0  0  0  0  0  0  0  0  0
  142.1596   79.9446  217.9816 H   0  0  0  0  0  0  0  0  0  0  0  0
  143.1882   78.5374  216.2545 H   0  0  0  0  0  0  0  0  0  0  0  0
  143.6746   76.1369  216.6789 H   0  0  0  0  0  0  0  0  0  0  0  0
  143.0829   75.2035  218.9277 H   0  0  0  0  0  0  0  0  0  0  0  0
  140.4561   72.2212  221.0026 H   0  0  0  0  0  0  0  0  0  0  0  0
  142.3291   70.7939  220.2253 H   0  0  0  0  0  0  0  0  0  0  0  0
  144.6293   70.5097  219.6729 H   0  0  0  0  0  0  0  0  0  0  0  0
  146.9059   71.4890  219.4826 H   0  0  0  0  0  0  0  0  0  0  0  0
  147.2549   73.8409  220.0554 H   0  0  0  0  0  0  0  0  0  0  0  0
  145.4241   75.3100  220.8350 H   0  0  0  0  0  0  0  0  0  0  0  0
  1  2  2  0
  2  3  1  0
  3  4  1  0
  4  5  1  0
  5  6  2  0
  5  7  1  0
  7  8  1  0
  8  9  1  0
  9 10  1  0
 10 11  1  0
 11 12  1  0
 12 13  1  0
 13 14  2  0
 14 15  1  0
 15 16  2  0
 16 17  1  0
 17 18  2  0
  2 19  1  0
 19 20  2  0
 20 21  1  0
 21 22  2  0
 22 23  1  0
 23 24  2  0
 24 25  1  0
 25 26  2  0
 26 27  1  0
 27 28  2  0
 11  7  1  0
 18 13  1  0
 28 19  1  0
 27 22  1  0
  3 29  1  0
  4 30  1  0
  4 31  1  0
  8 32  1  0
  8 33  1  0
  9 34  1  0
  9 35  1  0
 10 36  1  0
 10 37  1  0
 11 38  1  6
 12 39  1  0
 12 40  1  0
 14 41  1  0
 15 42  1  0
 16 43  1  0
 17 44  1  0
 20 45  1  0
 21 46  1  0
 23 47  1  0
 24 48  1  0
 25 49  1  0
 26 50  1  0
M  END
>  <smiles>  (4) 
O=C(NCC(=O)N1CCCC1Cc1ccccn1)c1ccc2ccccc2n1

>  <score_type>  (4) 
oracle

>  <origin>  (4) 
autodockgpu

>  <m_score__min__energy>  (4) 
-8.8499999999999996

>  <m_primary>  (4) 
energy

>  <rmsd>  (4) 
6.521770569215473

>  <m_score__min__rmsd>  (4) 
6.521770569215473

>  <meeko>  (4) 
{"free_energy": -7.08, "intermolecular_energy": -8.87, "internal_energy": -2.86, "cluster_size": 6, "cluster_id": 5, "rank_in_cluster": 4}

>  <energy>  (4) 
-8.82

>  <cluster_rmsd>  (4) 
0.54

>  <cluster>  (4) 
1

$$$$

     RDKit          3D

 50 53  0  0  0  0  0  0  0  0999 V2000
  141.3200   72.3260  221.5600 O   0  0  0  0  0  0  0  0  0  0  0  0
  140.4140   72.5440  222.4110 C   0  0  0  0  0  0  0  0  0  0  0  0
  139.5760   73.6990  222.2710 N   0  0  0  0  0  0  0  0  0  0  0  0
  139.6950   74.6590  221.2240 C   0  0  0  0  0  0  0  0  0  0  0  0
  140.6510   75.7480  221.4240 C   0  0  0  0  0  0  0  0  0  0  0  0
  140.7540   76.0940  222.6830 O   0  0  0  0  0  0  0  0  0  0  0  0
  141.4510   76.4530  220.5390 N   0  0  0  0  0  0  0  0  0  0  0  0
  141.5210   77.8900  220.2130 C   0  0  0  0  0  0  0  0  0  0  0  0
  142.1290   77.9960  218.8230 C   0  0  0  0  0  0  0  0  0  0  0  0
  142.0320   76.5680  218.3580 C   0  0  0  0  0  0  0  0  0  0  0  0
  142.4530   75.8770  219.6660 C   0  0  2  0  0  0  0  0  0  0  0  0
  142.5180   74.4310  219.4920 C   0  0  0  0  0  0  0  0  0  0  0  0
  143.7830   73.7530  219.7870 C   0  0  0  0  0  0  0  0  0  0  0  0
  144.7350   74.5020  220.5000 C   0  0  0  0  0  0  0  0  0  0  0  0
  145.9470   73.9490  220.8200 C   0  0  0  0  0  0  0  0  0  0  0  0
  146.2730   72.6620  220.4620 C   0  0  0  0  0  0  0  0  0  0  0  0
  145.3220   71.9470  219.7640 C   0  0  0  0  0  0  0  0  0  0  0  0
  144.1470   72.5160  219.4650 N   0  0  0  0  0  0  0  0  0  0  0  0
  140.2230   71.6130  223.5420 C   0  0  0  0  0  0  0  0  0  0  0  0
  139.5530   70.4370  223.3270 C   0  0  0  0  0  0  0  0  0  0  0  0
  139.3700   69.5610  224.3730 C   0  0  0  0  0  0  0  0  0  0  0  0
  139.8580   69.8710  225.6270 C   0  0  0  0  0  0  0  0  0  0  0  0
  139.6610   68.9740  226.6660 C   0  0  0  0  0  0  0  0  0  0  0  0
  140.1480   69.2960  227.8980 C   0  0  0  0  0  0  0  0  0  0  0  0
  140.8110   70.4850  228.0600 C   0  0  0  0  0  0  0  0  0  0  0  0
  141.0220   71.3950  227.0450 C   0  0  0  0  0  0  0  0  0  0  0  0
  140.5210   71.0600  225.7960 C   0  0  0  0  0  0  0  0  0  0  0  0
  140.6960   71.9080  224.7670 N   0  0  0  0  0  0  0  0  0  0  0  0
  138.8360   73.7850  223.0320 H   0  0  0  0  0  0  0  0  0  0  0  0
  139.9926   74.1200  220.3125 H   0  0  0  0  0  0  0  0  0  0  0  0
  138.7115   75.1492  221.1742 H   0  0  0  0  0  0  0  0  0  0  0  0
  140.5126   78.3294  220.2198 H   0  0  0  0  0  0  0  0  0  0  0  0
  142.1283   78.4333  220.9520 H   0  0  0  0  0  0  0  0  0  0  0  0
  141.5476   78.6713  218.1781 H   0  0  0  0  0  0  0  0  0  0  0  0
  143.1475   78.4111  218.8038 H   0  0  0  0  0  0  0  0  0  0  0  0
  141.0090   76.2982  218.0567 H   0  0  0  0  0  0  0  0  0  0  0  0
  142.6265   76.3125  217.4684 H   0  0  0  0  0  0  0  0  0  0  0  0
  143.4641   76.0361  220.0690 H   0  0  0  0  0  0  0  0  0  0  0  0
  141.7514   73.9893  220.1456 H   0  0  0  0  0  0  0  0  0  0  0  0
  142.3742   74.2803  218.4119 H   0  0  0  0  0  0  0  0  0  0  0  0
  144.5064   75.5348  220.8018 H   0  0  0  0  0  0  0  0  0  0  0  0
  146.6791   74.5508  221.3784 H   0  0  0  0  0  0  0  0  0  0  0  0
  147.2478   72.2226  220.7205 H   0  0  0  0  0  0  0  0  0  0  0  0
  145.5282   70.9120  219.4537 H   0  0  0  0  0  0  0  0  0  0  0  0
  139.1646   70.1950  222.3267 H   0  0  0  0  0  0  0  0  0  0  0  0
  138.8349   68.6139  224.2099 H   0  0  0  0  0  0  0  0  0  0  0  0
  139.1258   68.0274  226.5005 H   0  0  0  0  0  0  0  0  0  0  0  0
  140.0111   68.6124  228.7489 H   0  0  0  0  0  0  0  0  0  0  0  0
  141.1983   70.7282  229.0604 H   0  0  0  0  0  0  0  0  0  0  0  0
  141.5604   72.3386  227.2176 H   0  0  0  0  0  0  0  0  0  0  0  0
  1  2  2  0
  2  3  1  0
  3  4  1  0
  4  5  1  0
  5  6  2  0
  5  7  1  0
  7  8  1  0
  8  9  1  0
  9 10  1  0
 10 11  1  0
 11 12  1  0
 12 13  1  0
 13 14  2  0
 14 15  1  0
 15 16  2  0
 16 17  1  0
 17 18  2  0
  2 19  1  0
 19 20  2  0
 20 21  1  0
 21 22  2  0
 22 23  1  0
 23 24  2  0
 24 25  1  0
 25 26  2  0
 26 27  1  0
 27 28  2  0
 11  7  1  0
 18 13  1  0
 28 19  1  0
 27 22  1  0
  3 29  1  0
  4 30  1  0
  4 31  1  0
  8 32  1  0
  8 33  1  0
  9 34  1  0
  9 35  1  0
 10 36  1  0
 10 37  1  0
 11 38  1  1
 12 39  1  0
 12 40  1  0
 14 41  1  0
 15 42  1  0
 16 43  1  0
 17 44  1  0
 20 45  1  0
 21 46  1  0
 23 47  1  0
 24 48  1  0
 25 49  1  0
 26 50  1  0
M  END
>  <smiles>  (5) 
O=C(NCC(=O)N1CCCC1Cc1ccccn1)c1ccc2ccccc2n1

>  <score_type>  (5) 
oracle

>  <origin>  (5) 
autodockgpu

>  <m_score__min__energy>  (5) 
-8.8499999999999996

>  <m_primary>  (5) 
energy

>  <rmsd>  (5) 
2.1512335362625006

>  <m_score__min__rmsd>  (5) 
2.1512335362625006

>  <meeko>  (5) 
{"free_energy": -8.46, "intermolecular_energy": -10.25, "internal_energy": -1.52, "cluster_size": 9, "cluster_id": 4, "rank_in_cluster": 2}

>  <energy>  (5) 
-8.77

>  <cluster_rmsd>  (5) 
0.66

>  <cluster>  (5) 
1

$$$$

     RDKit          3D

 50 53  0  0  0  0  0  0  0  0999 V2000
  139.8870   70.9370  221.4120 O   0  0  0  0  0  0  0  0  0  0  0  0
  139.8120   71.5490  222.5130 C   0  0  0  0  0  0  0  0  0  0  0  0
  139.6730   72.9760  222.5200 N   0  0  0  0  0  0  0  0  0  0  0  0
  139.6240   73.7870  221.3490 C   0  0  0  0  0  0  0  0  0  0  0  0
  139.7490   75.2340  221.5350 C   0  0  0  0  0  0  0  0  0  0  0  0
  139.3190   75.6220  222.7090 O   0  0  0  0  0  0  0  0  0  0  0  0
  140.2380   76.2340  220.7110 N   0  0  0  0  0  0  0  0  0  0  0  0
  140.3680   76.3180  219.2440 C   0  0  0  0  0  0  0  0  0  0  0  0
  141.4570   77.3400  218.9570 C   0  0  0  0  0  0  0  0  0  0  0  0
  142.0760   77.4900  220.3200 C   0  0  0  0  0  0  0  0  0  0  0  0
  140.7830   77.5010  221.1540 C   0  0  2  0  0  0  0  0  0  0  0  0
  141.0790   77.7080  222.5660 C   0  0  0  0  0  0  0  0  0  0  0  0
  141.3810   79.0690  223.0180 C   0  0  0  0  0  0  0  0  0  0  0  0
  142.7430   79.4090  223.0900 C   0  0  0  0  0  0  0  0  0  0  0  0
  143.1200   80.6600  223.5040 C   0  0  0  0  0  0  0  0  0  0  0  0
  142.1950   81.6150  223.8580 C   0  0  0  0  0  0  0  0  0  0  0  0
  140.8650   81.2570  223.7790 C   0  0  0  0  0  0  0  0  0  0  0  0
  140.5290   80.0260  223.3720 N   0  0  0  0  0  0  0  0  0  0  0  0
  139.8690   70.7960  223.7820 C   0  0  0  0  0  0  0  0  0  0  0  0
  139.4140   69.5030  223.8080 C   0  0  0  0  0  0  0  0  0  0  0  0
  139.4620   68.7910  224.9840 C   0  0  0  0  0  0  0  0  0  0  0  0
  139.9660   69.3800  226.1280 C   0  0  0  0  0  0  0  0  0  0  0  0
  140.0040   68.6430  227.3020 C   0  0  0  0  0  0  0  0  0  0  0  0
  140.5040   69.2390  228.4210 C   0  0  0  0  0  0  0  0  0  0  0  0
  140.9470   70.5340  228.3430 C   0  0  0  0  0  0  0  0  0  0  0  0
  140.9200   71.2900  227.1900 C   0  0  0  0  0  0  0  0  0  0  0  0
  140.4100   70.6760  226.0560 C   0  0  0  0  0  0  0  0  0  0  0  0
  140.3580   71.3620  224.9000 N   0  0  0  0  0  0  0  0  0  0  0  0
  139.6070   73.3940  223.4980 H   0  0  0  0  0  0  0  0  0  0  0  0
  140.4430   73.4657  220.6887 H   0  0  0  0  0  0  0  0  0  0  0  0
  138.6131   73.6384  220.9416 H   0  0  0  0  0  0  0  0  0  0  0  0
  140.6505   75.3379  218.8322 H   0  0  0  0  0  0  0  0  0  0  0  0
  139.4159   76.6149  218.7798 H   0  0  0  0  0  0  0  0  0  0  0  0
  142.1833   76.9611  218.2229 H   0  0  0  0  0  0  0  0  0  0  0  0
  141.0921   78.2806  218.5186 H   0  0  0  0  0  0  0  0  0  0  0  0
  142.7275   76.6413  220.5756 H   0  0  0  0  0  0  0  0  0  0  0  0
  142.7386   78.3581  220.4522 H   0  0  0  0  0  0  0  0  0  0  0  0
  140.0516   78.3119  221.0214 H   0  0  0  0  0  0  0  0  0  0  0  0
  140.2049   77.3612  223.1367 H   0  0  0  0  0  0  0  0  0  0  0  0
  142.0132   77.1518  222.7330 H   0  0  0  0  0  0  0  0  0  0  0  0
  143.5084   78.6690  222.8133 H   0  0  0  0  0  0  0  0  0  0  0  0
  144.1907   80.9071  223.5546 H   0  0  0  0  0  0  0  0  0  0  0  0
  142.5019   82.6182  224.1889 H   0  0  0  0  0  0  0  0  0  0  0  0
  140.0823   81.9809  224.0497 H   0  0  0  0  0  0  0  0  0  0  0  0
  139.0134   69.0383  222.8950 H   0  0  0  0  0  0  0  0  0  0  0  0
  139.0993   67.7530  225.0138 H   0  0  0  0  0  0  0  0  0  0  0  0
  139.6403   67.6052  227.3294 H   0  0  0  0  0  0  0  0  0  0  0  0
  140.5514   68.6892  229.3726 H   0  0  0  0  0  0  0  0  0  0  0  0
  141.3485   70.9984  229.2558 H   0  0  0  0  0  0  0  0  0  0  0  0
  141.2846   72.3276  227.1708 H   0  0  0  0  0  0  0  0  0  0  0  0
  1  2  2  0
  2  3  1  0
  3  4  1  0
  4  5  1  0
  5  6  2  0
  5  7  1  0
  7  8  1  0
  8  9  1  0
  9 10  1  0
 10 11  1  0
 11 12  1  0
 12 13  1  0
 13 14  2  0
 14 15  1  0
 15 16  2  0
 16 17  1  0
 17 18  2  0
  2 19  1  0
 19 20  2  0
 20 21  1  0
 21 22  2  0
 22 23  1  0
 23 24  2  0
 24 25  1  0
 25 26  2  0
 26 27  1  0
 27 28  2  0
 11  7  1  0
 18 13  1  0
 28 19  1  0
 27 22  1  0
  3 29  1  0
  4 30  1  0
  4 31  1  0
  8 32  1  0
  8 33  1  0
  9 34  1  0
  9 35  1  0
 10 36  1  0
 10 37  1  0
 11 38  1  6
 12 39  1  0
 12 40  1  0
 14 41  1  0
 15 42  1  0
 16 43  1  0
 17 44  1  0
 20 45  1  0
 21 46  1  0
 23 47  1  0
 24 48  1  0
 25 49  1  0
 26 50  1  0
M  END
>  <smiles>  (6) 
O=C(NCC(=O)N1CCCC1Cc1ccccn1)c1ccc2ccccc2n1

>  <score_type>  (6) 
oracle

>  <origin>  (6) 
autodockgpu

>  <m_score__min__energy>  (6) 
-8.8499999999999996

>  <m_primary>  (6) 
energy

>  <rmsd>  (6) 
1.5877992706374304

>  <m_score__min__rmsd>  (6) 
1.5877992706374304

>  <meeko>  (6) 
{"free_energy": -8.84, "intermolecular_energy": -10.63, "internal_energy": -1.55, "cluster_size": 18, "cluster_id": 1, "rank_in_cluster": 3}

>  <energy>  (6) 
-8.75

>  <cluster_rmsd>  (6) 
0.47

>  <cluster>  (6) 
1

$$$$

     RDKit          3D

 50 53  0  0  0  0  0  0  0  0999 V2000
  139.9240   73.3800  222.3500 O   0  0  0  0  0  0  0  0  0  0  0  0
  140.4010   72.2160  222.4420 C   0  0  0  0  0  0  0  0  0  0  0  0
  141.1160   71.6550  221.3340 N   0  0  0  0  0  0  0  0  0  0  0  0
  141.3280   72.3200  220.0910 C   0  0  0  0  0  0  0  0  0  0  0  0
  142.5010   73.1900  219.9930 C   0  0  0  0  0  0  0  0  0  0  0  0
  142.2010   74.3770  219.5260 O   0  0  0  0  0  0  0  0  0  0  0  0
  143.8350   72.9860  220.3070 N   0  0  0  0  0  0  0  0  0  0  0  0
  144.8650   73.8960  220.8440 C   0  0  0  0  0  0  0  0  0  0  0  0
  146.2130   73.3170  220.4440 C   0  0  0  0  0  0  0  0  0  0  0  0
  145.7950   72.2990  219.4180 C   0  0  0  0  0  0  0  0  0  0  0  0
  144.5590   71.7420  220.1440 C   0  0  2  0  0  0  0  0  0  0  0  0
  143.9610   70.6500  219.3870 C   0  0  0  0  0  0  0  0  0  0  0  0
  144.7530   69.4350  219.1810 C   0  0  0  0  0  0  0  0  0  0  0  0
  145.1560   69.1750  217.8590 C   0  0  0  0  0  0  0  0  0  0  0  0
  145.9000   68.0600  217.5710 C   0  0  0  0  0  0  0  0  0  0  0  0
  146.2740   67.1670  218.5490 C   0  0  0  0  0  0  0  0  0  0  0  0
  145.8670   67.4440  219.8380 C   0  0  0  0  0  0  0  0  0  0  0  0
  145.1400   68.5420  220.0860 N   0  0  0  0  0  0  0  0  0  0  0  0
  140.2200   71.4400  223.6860 C   0  0  0  0  0  0  0  0  0  0  0  0
  139.5550   70.2430  223.6310 C   0  0  0  0  0  0  0  0  0  0  0  0
  139.3790   69.5110  224.7830 C   0  0  0  0  0  0  0  0  0  0  0  0
  139.8710   69.9850  225.9840 C   0  0  0  0  0  0  0  0  0  0  0  0
  139.6820   69.2310  227.1320 C   0  0  0  0  0  0  0  0  0  0  0  0
  140.1730   69.7130  228.3080 C   0  0  0  0  0  0  0  0  0  0  0  0
  140.8300   70.9160  228.3100 C   0  0  0  0  0  0  0  0  0  0  0  0
  141.0320   71.6870  227.1840 C   0  0  0  0  0  0  0  0  0  0  0  0
  140.5290   71.1890  225.9930 C   0  0  0  0  0  0  0  0  0  0  0  0
  140.6950   71.8950  224.8600 N   0  0  0  0  0  0  0  0  0  0  0  0
  141.4880   70.6730  221.5170 H   0  0  0  0  0  0  0  0  0  0  0  0
  141.4222   71.5476  219.3135 H   0  0  0  0  0  0  0  0  0  0  0  0
  140.4645   72.9917  219.9762 H   0  0  0  0  0  0  0  0  0  0  0  0
  144.7425   74.9017  220.4157 H   0  0  0  0  0  0  0  0  0  0  0  0
  144.7821   73.9854  221.9372 H   0  0  0  0  0  0  0  0  0  0  0  0
  146.8689   74.0846  220.0075 H   0  0  0  0  0  0  0  0  0  0  0  0
  146.7957   72.9046  221.2808 H   0  0  0  0  0  0  0  0  0  0  0  0
  145.5364   72.7629  218.4547 H   0  0  0  0  0  0  0  0  0  0  0  0
  146.5597   71.5594  219.1384 H   0  0  0  0  0  0  0  0  0  0  0  0
  144.6758   71.2250  221.1079 H   0  0  0  0  0  0  0  0  0  0  0  0
  143.0410   70.3544  219.9126 H   0  0  0  0  0  0  0  0  0  0  0  0
  143.8256   71.0616  218.3759 H   0  0  0  0  0  0  0  0  0  0  0  0
  144.8734   69.8685  217.0533 H   0  0  0  0  0  0  0  0  0  0  0  0
  146.2060   67.8743  216.5309 H   0  0  0  0  0  0  0  0  0  0  0  0
  146.8703   66.2731  218.3138 H   0  0  0  0  0  0  0  0  0  0  0  0
  146.1386   66.7652  220.6599 H   0  0  0  0  0  0  0  0  0  0  0  0
  139.1646   69.8699  222.6727 H   0  0  0  0  0  0  0  0  0  0  0  0
  138.8468   68.5489  224.7477 H   0  0  0  0  0  0  0  0  0  0  0  0
  139.1497   68.2691  227.0944 H   0  0  0  0  0  0  0  0  0  0  0  0
  140.0442   69.1455  229.2414 H   0  0  0  0  0  0  0  0  0  0  0  0
  141.2201   71.2896  229.2683 H   0  0  0  0  0  0  0  0  0  0  0  0
  141.5652   72.6481  227.2295 H   0  0  0  0  0  0  0  0  0  0  0  0
  1  2  2  0
  2  3  1  0
  3  4  1  0
  4  5  1  0
  5  6  2  0
  5  7  1  0
  7  8  1  0
  8  9  1  0
  9 10  1  0
 10 11  1  0
 11 12  1  0
 12 13  1  0
 13 14  2  0
 14 15  1  0
 15 16  2  0
 16 17  1  0
 17 18  2  0
  2 19  1  0
 19 20  2  0
 20 21  1  0
 21 22  2  0
 22 23  1  0
 23 24  2  0
 24 25  1  0
 25 26  2  0
 26 27  1  0
 27 28  2  0
 11  7  1  0
 18 13  1  0
 28 19  1  0
 27 22  1  0
  3 29  1  0
  4 30  1  0
  4 31  1  0
  8 32  1  0
  8 33  1  0
  9 34  1  0
  9 35  1  0
 10 36  1  0
 10 37  1  0
 11 38  1  1
 12 39  1  0
 12 40  1  0
 14 41  1  0
 15 42  1  0
 16 43  1  0
 17 44  1  0
 20 45  1  0
 21 46  1  0
 23 47  1  0
 24 48  1  0
 25 49  1  0
 26 50  1  0
M  END
>  <smiles>  (7) 
O=C(NCC(=O)N1CCCC1Cc1ccccn1)c1ccc2ccccc2n1

>  <score_type>  (7) 
oracle

>  <origin>  (7) 
autodockgpu

>  <m_score__min__energy>  (7) 
-8.8499999999999996

>  <m_primary>  (7) 
energy

>  <rmsd>  (7) 
4.306202559759331

>  <m_score__min__rmsd>  (7) 
4.306202559759331

>  <meeko>  (7) 
{"free_energy": -8.68, "intermolecular_energy": -10.47, "internal_energy": -1.17, "cluster_size": 2, "cluster_id": 3, "rank_in_cluster": 1}

>  <energy>  (7) 
-8.73

>  <cluster_rmsd>  (7) 
1.09

>  <cluster>  (7) 
1

$$$$

     RDKit          3D

 50 53  0  0  0  0  0  0  0  0999 V2000
  141.2240   72.1880  221.8430 O   0  0  0  0  0  0  0  0  0  0  0  0
  140.2350   72.3340  222.6140 C   0  0  0  0  0  0  0  0  0  0  0  0
  139.2560   73.3400  222.3240 N   0  0  0  0  0  0  0  0  0  0  0  0
  139.3160   74.2260  221.2090 C   0  0  0  0  0  0  0  0  0  0  0  0
  140.4340   75.1700  221.1670 C   0  0  0  0  0  0  0  0  0  0  0  0
  140.9820   75.3440  222.3430 O   0  0  0  0  0  0  0  0  0  0  0  0
  141.0030   75.8840  220.1250 N   0  0  0  0  0  0  0  0  0  0  0  0
  141.9750   75.4940  219.0860 C   0  0  0  0  0  0  0  0  0  0  0  0
  142.6470   76.7730  218.6110 C   0  0  0  0  0  0  0  0  0  0  0  0
  142.2190   77.7370  219.6830 C   0  0  0  0  0  0  0  0  0  0  0  0
  140.7570   77.2800  219.8260 C   0  0  2  0  0  0  0  0  0  0  0  0
  140.0440   78.1120  220.7870 C   0  0  0  0  0  0  0  0  0  0  0  0
  140.8090   78.7160  221.8810 C   0  0  0  0  0  0  0  0  0  0  0  0
  141.2740   80.0250  221.6630 C   0  0  0  0  0  0  0  0  0  0  0  0
  141.9980   80.6700  222.6310 C   0  0  0  0  0  0  0  0  0  0  0  0
  142.2930   80.0710  223.8340 C   0  0  0  0  0  0  0  0  0  0  0  0
  141.8250   78.7870  224.0250 C   0  0  0  0  0  0  0  0  0  0  0  0
  141.1210   78.1840  223.0590 N   0  0  0  0  0  0  0  0  0  0  0  0
  140.0940   71.4730  223.8050 C   0  0  0  0  0  0  0  0  0  0  0  0
  139.3850   70.3050  223.7000 C   0  0  0  0  0  0  0  0  0  0  0  0
  139.2470   69.4940  224.8030 C   0  0  0  0  0  0  0  0  0  0  0  0
  139.8200   69.8590  226.0050 C   0  0  0  0  0  0  0  0  0  0  0  0
  139.6670   69.0270  227.1030 C   0  0  0  0  0  0  0  0  0  0  0  0
  140.2380   69.4030  228.2820 C   0  0  0  0  0  0  0  0  0  0  0  0
  140.9380   70.5810  228.3360 C   0  0  0  0  0  0  0  0  0  0  0  0
  141.1060   71.4280  227.2600 C   0  0  0  0  0  0  0  0  0  0  0  0
  140.5200   71.0380  226.0650 C   0  0  0  0  0  0  0  0  0  0  0  0
  140.6500   71.8220  224.9800 N   0  0  0  0  0  0  0  0  0  0  0  0
  138.4570   73.3740  223.0280 H   0  0  0  0  0  0  0  0  0  0  0  0
  139.3677   73.6103  220.2989 H   0  0  0  0  0  0  0  0  0  0  0  0
  138.4167   74.8535  221.2954 H   0  0  0  0  0  0  0  0  0  0  0  0
  142.7236   74.8065  219.5067 H   0  0  0  0  0  0  0  0  0  0  0  0
  141.4763   74.9772  218.2528 H   0  0  0  0  0  0  0  0  0  0  0  0
  143.7413   76.6660  218.5774 H   0  0  0  0  0  0  0  0  0  0  0  0
  142.3717   77.0780  217.5906 H   0  0  0  0  0  0  0  0  0  0  0  0
  142.7889   77.6019  220.6141 H   0  0  0  0  0  0  0  0  0  0  0  0
  142.3673   78.8029  219.4553 H   0  0  0  0  0  0  0  0  0  0  0  0
  140.0645   77.3850  218.9778 H   0  0  0  0  0  0  0  0  0  0  0  0
  139.5762   78.9330  220.2239 H   0  0  0  0  0  0  0  0  0  0  0  0
  139.3526   77.4186  221.2880 H   0  0  0  0  0  0  0  0  0  0  0  0
  141.0557   80.5329  220.7120 H   0  0  0  0  0  0  0  0  0  0  0  0
  142.3528   81.6938  222.4414 H   0  0  0  0  0  0  0  0  0  0  0  0
  142.8754   80.5919  224.6083 H   0  0  0  0  0  0  0  0  0  0  0  0
  142.0299   78.2602  224.9687 H   0  0  0  0  0  0  0  0  0  0  0  0
  138.9295   70.0178  222.7408 H   0  0  0  0  0  0  0  0  0  0  0  0
  138.6799   68.5545  224.7271 H   0  0  0  0  0  0  0  0  0  0  0  0
  139.0996   68.0879  227.0248 H   0  0  0  0  0  0  0  0  0  0  0  0
  140.1389   68.7710  229.1769 H   0  0  0  0  0  0  0  0  0  0  0  0
  141.3932   70.8680  229.2954 H   0  0  0  0  0  0  0  0  0  0  0  0
  141.6758   72.3650  227.3455 H   0  0  0  0  0  0  0  0  0  0  0  0
  1  2  2  0
  2  3  1  0
  3  4  1  0
  4  5  1  0
  5  6  2  0
  5  7  1  0
  7  8  1  0
  8  9  1  0
  9 10  1  0
 10 11  1  0
 11 12  1  0
 12 13  1  0
 13 14  2  0
 14 15  1  0
 15 16  2  0
 16 17  1  0
 17 18  2  0
  2 19  1  0
 19 20  2  0
 20 21  1  0
 21 22  2  0
 22 23  1  0
 23 24  2  0
 24 25  1  0
 25 26  2  0
 26 27  1  0
 27 28  2  0
 11  7  1  0
 18 13  1  0
 28 19  1  0
 27 22  1  0
  3 29  1  0
  4 30  1  0
  4 31  1  0
  8 32  1  0
  8 33  1  0
  9 34  1  0
  9 35  1  0
 10 36  1  0
 10 37  1  0
 11 38  1  6
 12 39  1  0
 12 40  1  0
 14 41  1  0
 15 42  1  0
 16 43  1  0
 17 44  1  0
 20 45  1  0
 21 46  1  0
 23 47  1  0
 24 48  1  0
 25 49  1  0
 26 50  1  0
M  END
>  <smiles>  (8) 
O=C(NCC(=O)N1CCCC1Cc1ccccn1)c1ccc2ccccc2n1

>  <score_type>  (8) 
oracle

>  <origin>  (8) 
autodockgpu

>  <m_score__min__energy>  (8) 
-8.8499999999999996

>  <m_primary>  (8) 
energy

>  <rmsd>  (8) 
1.8157234827974376

>  <m_score__min__rmsd>  (8) 
1.8157234827974376

>  <meeko>  (8) 
{"free_energy": -8.77, "intermolecular_energy": -10.56, "internal_energy": -1.31, "cluster_size": 18, "cluster_id": 1, "rank_in_cluster": 5}

>  <energy>  (8) 
-8.72

>  <cluster_rmsd>  (8) 
0.69

>  <cluster>  (8) 
1

$$$$

     RDKit          3D

 50 53  0  0  0  0  0  0  0  0999 V2000
  138.9850   75.3730  221.3930 O   0  0  0  0  0  0  0  0  0  0  0  0
  140.1220   75.8600  221.6460 C   0  0  0  0  0  0  0  0  0  0  0  0
  141.2940   75.0640  221.4350 N   0  0  0  0  0  0  0  0  0  0  0  0
  141.2820   73.7200  220.9600 C   0  0  0  0  0  0  0  0  0  0  0  0
  140.5250   72.7430  221.7440 C   0  0  0  0  0  0  0  0  0  0  0  0
  139.8760   73.2980  222.7360 O   0  0  0  0  0  0  0  0  0  0  0  0
  140.3730   71.3710  221.6170 N   0  0  0  0  0  0  0  0  0  0  0  0
  140.6770   70.4520  220.5050 C   0  0  0  0  0  0  0  0  0  0  0  0
  139.8000   69.2240  220.6980 C   0  0  0  0  0  0  0  0  0  0  0  0
  138.8300   69.7250  221.7320 C   0  0  0  0  0  0  0  0  0  0  0  0
  139.8250   70.4870  222.6250 C   0  0  2  0  0  0  0  0  0  0  0  0
  139.1540   71.0450  223.7910 C   0  0  0  0  0  0  0  0  0  0  0  0
  139.8480   70.9930  225.0810 C   0  0  0  0  0  0  0  0  0  0  0  0
  139.5800   69.8700  225.8830 C   0  0  0  0  0  0  0  0  0  0  0  0
  140.1840   69.7370  227.1060 C   0  0  0  0  0  0  0  0  0  0  0  0
  141.0600   70.6820  227.5880 C   0  0  0  0  0  0  0  0  0  0  0  0
  141.3060   71.7750  226.7830 C   0  0  0  0  0  0  0  0  0  0  0  0
  140.7000   71.8760  225.5920 N   0  0  0  0  0  0  0  0  0  0  0  0
  140.2360   77.2410  222.1580 C   0  0  0  0  0  0  0  0  0  0  0  0
  139.0920   77.9540  222.4040 C   0  0  0  0  0  0  0  0  0  0  0  0
  139.1860   79.2420  222.8810 C   0  0  0  0  0  0  0  0  0  0  0  0
  140.4260   79.8060  223.1070 C   0  0  0  0  0  0  0  0  0  0  0  0
  140.4960   81.1050  223.5870 C   0  0  0  0  0  0  0  0  0  0  0  0
  141.7280   81.6470  223.8040 C   0  0  0  0  0  0  0  0  0  0  0  0
  142.8420   80.8910  223.5410 C   0  0  0  0  0  0  0  0  0  0  0  0
  142.8010   79.5980  223.0640 C   0  0  0  0  0  0  0  0  0  0  0  0
  141.5440   79.0560  222.8450 C   0  0  0  0  0  0  0  0  0  0  0  0
  141.4410   77.7980  222.3800 N   0  0  0  0  0  0  0  0  0  0  0  0
  142.2030   75.5700  221.6670 H   0  0  0  0  0  0  0  0  0  0  0  0
  140.8578   73.7309  219.9452 H   0  0  0  0  0  0  0  0  0  0  0  0
  142.3283   73.3864  221.0229 H   0  0  0  0  0  0  0  0  0  0  0  0
  140.4484   70.9332  219.5426 H   0  0  0  0  0  0  0  0  0  0  0  0
  141.7426   70.1791  220.4983 H   0  0  0  0  0  0  0  0  0  0  0  0
  139.2878   68.9427  219.7661 H   0  0  0  0  0  0  0  0  0  0  0  0
  140.3480   68.3166  220.9918 H   0  0  0  0  0  0  0  0  0  0  0  0
  138.0684   70.3899  221.2985 H   0  0  0  0  0  0  0  0  0  0  0  0
  138.2277   68.9547  222.2359 H   0  0  0  0  0  0  0  0  0  0  0  0
  140.6245   69.9405  223.1467 H   0  0  0  0  0  0  0  0  0  0  0  0
  138.9488   72.1036  223.5736 H   0  0  0  0  0  0  0  0  0  0  0  0
  138.2716   70.4032  223.9305 H   0  0  0  0  0  0  0  0  0  0  0  0
  138.8837   69.0960  225.5280 H   0  0  0  0  0  0  0  0  0  0  0  0
  139.9624   68.8508  227.7188 H   0  0  0  0  0  0  0  0  0  0  0  0
  141.5422   70.5711  228.5704 H   0  0  0  0  0  0  0  0  0  0  0  0
  141.9980   72.5618  227.1180 H   0  0  0  0  0  0  0  0  0  0  0  0
  138.1064   77.5009  222.2218 H   0  0  0  0  0  0  0  0  0  0  0  0
  138.2732   79.8219  223.0821 H   0  0  0  0  0  0  0  0  0  0  0  0
  139.5817   81.6829  223.7874 H   0  0  0  0  0  0  0  0  0  0  0  0
  141.8272   82.6745  224.1840 H   0  0  0  0  0  0  0  0  0  0  0  0
  143.8280   81.3439  223.7217 H   0  0  0  0  0  0  0  0  0  0  0  0
  143.7194   79.0254  222.8671 H   0  0  0  0  0  0  0  0  0  0  0  0
  1  2  2  0
  2  3  1  0
  3  4  1  0
  4  5  1  0
  5  6  2  0
  5  7  1  0
  7  8  1  0
  8  9  1  0
  9 10  1  0
 10 11  1  0
 11 12  1  0
 12 13  1  0
 13 14  2  0
 14 15  1  0
 15 16  2  0
 16 17  1  0
 17 18  2  0
  2 19  1  0
 19 20  2  0
 20 21  1  0
 21 22  2  0
 22 23  1  0
 23 24  2  0
 24 25  1  0
 25 26  2  0
 26 27  1  0
 27 28  2  0
 11  7  1  0
 18 13  1  0
 28 19  1  0
 27 22  1  0
  3 29  1  0
  4 30  1  0
  4 31  1  0
  8 32  1  0
  8 33  1  0
  9 34  1  0
  9 35  1  0
 10 36  1  0
 10 37  1  0
 11 38  1  1
 12 39  1  0
 12 40  1  0
 14 41  1  0
 15 42  1  0
 16 43  1  0
 17 44  1  0
 20 45  1  0
 21 46  1  0
 23 47  1  0
 24 48  1  0
 25 49  1  0
 26 50  1  0
M  END
>  <smiles>  (9) 
O=C(NCC(=O)N1CCCC1Cc1ccccn1)c1ccc2ccccc2n1

>  <score_type>  (9) 
oracle

>  <origin>  (9) 
autodockgpu

>  <m_score__min__energy>  (9) 
-8.8499999999999996

>  <m_primary>  (9) 
energy

>  <rmsd>  (9) 
8.189711522977086

>  <m_score__min__rmsd>  (9) 
8.189711522977086

>  <meeko>  (9) 
{"free_energy": -8.43, "intermolecular_energy": -10.22, "internal_energy": -1.17, "cluster_size": 18, "cluster_id": 1, "rank_in_cluster": 15}

>  <energy>  (9) 
-8.71

>  <cluster_rmsd>  (9) 
0.81

>  <cluster>  (9) 
1

$$$$

     RDKit          3D

 50 53  0  0  0  0  0  0  0  0999 V2000
  140.2990   71.1930  221.3740 O   0  0  0  0  0  0  0  0  0  0  0  0
  139.9520   71.7450  222.4540 C   0  0  0  0  0  0  0  0  0  0  0  0
  139.5510   73.1210  222.4470 N   0  0  0  0  0  0  0  0  0  0  0  0
  139.5240   73.9470  221.2860 C   0  0  0  0  0  0  0  0  0  0  0  0
  140.7900   74.5490  220.8670 C   0  0  0  0  0  0  0  0  0  0  0  0
  141.8270   73.8920  221.3230 O   0  0  0  0  0  0  0  0  0  0  0  0
  141.0750   75.6570  220.0860 N   0  0  0  0  0  0  0  0  0  0  0  0
  141.4590   75.7820  218.6670 C   0  0  0  0  0  0  0  0  0  0  0  0
  142.1830   77.1120  218.5240 C   0  0  0  0  0  0  0  0  0  0  0  0
  142.4340   77.4580  219.9660 C   0  0  0  0  0  0  0  0  0  0  0  0
  141.0720   77.0330  220.5400 C   0  0  2  0  0  0  0  0  0  0  0  0
  140.9950   77.3240  221.9660 C   0  0  0  0  0  0  0  0  0  0  0  0
  141.4320   78.6450  222.4270 C   0  0  0  0  0  0  0  0  0  0  0  0
  140.9750   79.7440  221.6800 C   0  0  0  0  0  0  0  0  0  0  0  0
  141.3330   81.0180  222.0380 C   0  0  0  0  0  0  0  0  0  0  0  0
  142.1410   81.2640  223.1240 C   0  0  0  0  0  0  0  0  0  0  0  0
  142.5760   80.1690  223.8410 C   0  0  0  0  0  0  0  0  0  0  0  0
  142.2090   78.9370  223.4650 N   0  0  0  0  0  0  0  0  0  0  0  0
  139.9620   70.9740  223.7130 C   0  0  0  0  0  0  0  0  0  0  0  0
  139.4630   69.6970  223.7140 C   0  0  0  0  0  0  0  0  0  0  0  0
  139.4670   68.9690  224.8820 C   0  0  0  0  0  0  0  0  0  0  0  0
  139.9700   69.5250  226.0410 C   0  0  0  0  0  0  0  0  0  0  0  0
  139.9640   68.7720  227.2060 C   0  0  0  0  0  0  0  0  0  0  0  0
  140.4630   69.3370  228.3420 C   0  0  0  0  0  0  0  0  0  0  0  0
  140.9510   70.6180  228.2880 C   0  0  0  0  0  0  0  0  0  0  0  0
  140.9690   71.3880  227.1450 C   0  0  0  0  0  0  0  0  0  0  0  0
  140.4580   70.8070  225.9950 C   0  0  0  0  0  0  0  0  0  0  0  0
  140.4500   71.5090  224.8470 N   0  0  0  0  0  0  0  0  0  0  0  0
  139.2650   73.4880  223.4060 H   0  0  0  0  0  0  0  0  0  0  0  0
  139.1567   73.3327  220.4507 H   0  0  0  0  0  0  0  0  0  0  0  0
  138.8803   74.7970  221.5563 H   0  0  0  0  0  0  0  0  0  0  0  0
  142.1256   74.9551  218.3807 H   0  0  0  0  0  0  0  0  0  0  0  0
  140.5751   75.7411  218.0135 H   0  0  0  0  0  0  0  0  0  0  0  0
  143.1241   77.0017  217.9652 H   0  0  0  0  0  0  0  0  0  0  0  0
  141.6225   77.8758  217.9651 H   0  0  0  0  0  0  0  0  0  0  0  0
  143.2641   76.8767  220.3937 H   0  0  0  0  0  0  0  0  0  0  0  0
  142.7333   78.4979  220.1636 H   0  0  0  0  0  0  0  0  0  0  0  0
  140.1566   77.5523  220.2200 H   0  0  0  0  0  0  0  0  0  0  0  0
  139.9438   77.2046  222.2671 H   0  0  0  0  0  0  0  0  0  0  0  0
  141.7083   76.6245  222.4263 H   0  0  0  0  0  0  0  0  0  0  0  0
  140.3281   79.5816  220.8053 H   0  0  0  0  0  0  0  0  0  0  0  0
  140.9646   81.8656  221.4414 H   0  0  0  0  0  0  0  0  0  0  0  0
  142.4271   82.2876  223.4076 H   0  0  0  0  0  0  0  0  0  0  0  0
  143.2230   80.3072  224.7198 H   0  0  0  0  0  0  0  0  0  0  0  0
  139.0625   69.2577  222.7885 H   0  0  0  0  0  0  0  0  0  0  0  0
  139.0691   67.9435  224.8919 H   0  0  0  0  0  0  0  0  0  0  0  0
  139.5671   67.7461  227.2131 H   0  0  0  0  0  0  0  0  0  0  0  0
  140.4741   68.7744  229.2872 H   0  0  0  0  0  0  0  0  0  0  0  0
  141.3523   71.0573  229.2132 H   0  0  0  0  0  0  0  0  0  0  0  0
  141.3690   72.4127  227.1454 H   0  0  0  0  0  0  0  0  0  0  0  0
  1  2  2  0
  2  3  1  0
  3  4  1  0
  4  5  1  0
  5  6  2  0
  5  7  1  0
  7  8  1  0
  8  9  1  0
  9 10  1  0
 10 11  1  0
 11 12  1  0
 12 13  1  0
 13 14  2  0
 14 15  1  0
 15 16  2  0
 16 17  1  0
 17 18  2  0
  2 19  1  0
 19 20  2  0
 20 21  1  0
 21 22  2  0
 22 23  1  0
 23 24  2  0
 24 25  1  0
 25 26  2  0
 26 27  1  0
 27 28  2  0
 11  7  1  0
 18 13  1  0
 28 19  1  0
 27 22  1  0
  3 29  1  0
  4 30  1  0
  4 31  1  0
  8 32  1  0
  8 33  1  0
  9 34  1  0
  9 35  1  0
 10 36  1  0
 10 37  1  0
 11 38  1  6
 12 39  1  0
 12 40  1  0
 14 41  1  0
 15 42  1  0
 16 43  1  0
 17 44  1  0
 20 45  1  0
 21 46  1  0
 23 47  1  0
 24 48  1  0
 25 49  1  0
 26 50  1  0
M  END
>  <smiles>  (10) 
O=C(NCC(=O)N1CCCC1Cc1ccccn1)c1ccc2ccccc2n1

>  <score_type>  (10) 
oracle

>  <origin>  (10) 
autodockgpu

>  <m_score__min__energy>  (10) 
-8.8499999999999996

>  <m_primary>  (10) 
energy

>  <rmsd>  (10) 
1.6497508532971847

>  <m_score__min__rmsd>  (10) 
1.6497508532971847

>  <meeko>  (10) 
{"free_energy": -8.46, "intermolecular_energy": -10.25, "internal_energy": -1.26, "cluster_size": 18, "cluster_id": 1, "rank_in_cluster": 13}

>  <energy>  (10) 
-8.68

>  <cluster_rmsd>  (10) 
0.7

>  <cluster>  (10) 
1

$$$$

     RDKit          3D

 50 53  0  0  0  0  0  0  0  0999 V2000
  137.4790   76.1490  222.0980 O   0  0  0  0  0  0  0  0  0  0  0  0
  138.7170   76.2360  222.3230 C   0  0  0  0  0  0  0  0  0  0  0  0
  139.5420   75.0710  222.1950 N   0  0  0  0  0  0  0  0  0  0  0  0
  139.0620   73.7780  221.8360 C   0  0  0  0  0  0  0  0  0  0  0  0
  139.9110   72.6340  222.1740 C   0  0  0  0  0  0  0  0  0  0  0  0
  141.0740   73.0030  222.6490 O   0  0  0  0  0  0  0  0  0  0  0  0
  139.7000   71.2680  222.0880 N   0  0  0  0  0  0  0  0  0  0  0  0
  139.7160   70.3450  220.9370 C   0  0  0  0  0  0  0  0  0  0  0  0
  138.8770   69.1390  221.3300 C   0  0  0  0  0  0  0  0  0  0  0  0
  138.1850   69.6600  222.5600 C   0  0  0  0  0  0  0  0  0  0  0  0
  139.3790   70.3930  223.1960 C   0  0  2  0  0  0  0  0  0  0  0  0
  139.0100   70.9630  224.4860 C   0  0  0  0  0  0  0  0  0  0  0  0
  139.6850   70.4600  225.6850 C   0  0  0  0  0  0  0  0  0  0  0  0
  140.4250   71.4030  226.4200 C   0  0  0  0  0  0  0  0  0  0  0  0
  141.0900   71.0230  227.5560 C   0  0  0  0  0  0  0  0  0  0  0  0
  141.0610   69.7250  228.0130 C   0  0  0  0  0  0  0  0  0  0  0  0
  140.3280   68.8190  227.2740 C   0  0  0  0  0  0  0  0  0  0  0  0
  139.6890   69.2220  226.1680 N   0  0  0  0  0  0  0  0  0  0  0  0
  139.3060   77.5320  222.7170 C   0  0  0  0  0  0  0  0  0  0  0  0
  138.4720   78.5570  223.0800 C   0  0  0  0  0  0  0  0  0  0  0  0
  139.0090   79.7690  223.4500 C   0  0  0  0  0  0  0  0  0  0  0  0
  140.3790   79.9460  223.4510 C   0  0  0  0  0  0  0  0  0  0  0  0
  140.8970   81.1760  223.8270 C   0  0  0  0  0  0  0  0  0  0  0  0
  142.2510   81.3340  223.8220 C   0  0  0  0  0  0  0  0  0  0  0  0
  143.0420   80.2770  223.4500 C   0  0  0  0  0  0  0  0  0  0  0  0
  142.5540   79.0440  223.0720 C   0  0  0  0  0  0  0  0  0  0  0  0
  141.1760   78.8930  223.0790 C   0  0  0  0  0  0  0  0  0  0  0  0
  140.6400   77.7120  222.7210 N   0  0  0  0  0  0  0  0  0  0  0  0
  140.5730   75.2530  222.3950 H   0  0  0  0  0  0  0  0  0  0  0  0
  138.0943   73.6325  222.3384 H   0  0  0  0  0  0  0  0  0  0  0  0
  139.0188   73.7855  220.7369 H   0  0  0  0  0  0  0  0  0  0  0  0
  139.2836   70.8352  220.0523 H   0  0  0  0  0  0  0  0  0  0  0  0
  140.7441   70.0457  220.6850 H   0  0  0  0  0  0  0  0  0  0  0  0
  138.1562   68.8743  220.5424 H   0  0  0  0  0  0  0  0  0  0  0  0
  139.4551   68.2171  221.4909 H   0  0  0  0  0  0  0  0  0  0  0  0
  137.3607   70.3454  222.3135 H   0  0  0  0  0  0  0  0  0  0  0  0
  137.6961   68.9033  223.1912 H   0  0  0  0  0  0  0  0  0  0  0  0
  140.2639   69.8243  223.5179 H   0  0  0  0  0  0  0  0  0  0  0  0
  139.2043   72.0444  224.4320 H   0  0  0  0  0  0  0  0  0  0  0  0
  137.9587   70.6694  224.6224 H   0  0  0  0  0  0  0  0  0  0  0  0
  140.4701   72.4488  226.0820 H   0  0  0  0  0  0  0  0  0  0  0  0
  141.6625   71.7756  228.1180 H   0  0  0  0  0  0  0  0  0  0  0  0
  141.5973   69.4238  228.9250 H   0  0  0  0  0  0  0  0  0  0  0  0
  140.2686   67.7678  227.5926 H   0  0  0  0  0  0  0  0  0  0  0  0
  137.3816   78.4122  223.0757 H   0  0  0  0  0  0  0  0  0  0  0  0
  138.3473   80.5967  223.7449 H   0  0  0  0  0  0  0  0  0  0  0  0
  140.2331   82.0022  224.1214 H   0  0  0  0  0  0  0  0  0  0  0  0
  142.7023   82.2944  224.1119 H   0  0  0  0  0  0  0  0  0  0  0  0
  144.1324   80.4218  223.4534 H   0  0  0  0  0  0  0  0  0  0  0  0
  143.2240   78.2220  222.7798 H   0  0  0  0  0  0  0  0  0  0  0  0
  1  2  2  0
  2  3  1  0
  3  4  1  0
  4  5  1  0
  5  6  2  0
  5  7  1  0
  7  8  1  0
  8  9  1  0
  9 10  1  0
 10 11  1  0
 11 12  1  0
 12 13  1  0
 13 14  2  0
 14 15  1  0
 15 16  2  0
 16 17  1  0
 17 18  2  0
  2 19  1  0
 19 20  2  0
 20 21  1  0
 21 22  2  0
 22 23  1  0
 23 24  2  0
 24 25  1  0
 25 26  2  0
 26 27  1  0
 27 28  2  0
 11  7  1  0
 18 13  1  0
 28 19  1  0
 27 22  1  0
  3 29  1  0
  4 30  1  0
  4 31  1  0
  8 32  1  0
  8 33  1  0
  9 34  1  0
  9 35  1  0
 10 36  1  0
 10 37  1  0
 11 38  1  1
 12 39  1  0
 12 40  1  0
 14 41  1  0
 15 42  1  0
 16 43  1  0
 17 44  1  0
 20 45  1  0
 21 46  1  0
 23 47  1  0
 24 48  1  0
 25 49  1  0
 26 50  1  0
M  END
>  <smiles>  (11) 
O=C(NCC(=O)N1CCCC1Cc1ccccn1)c1ccc2ccccc2n1

>  <score_type>  (11) 
oracle

>  <origin>  (11) 
autodockgpu

>  <m_score__min__energy>  (11) 
-8.8499999999999996

>  <m_primary>  (11) 
energy

>  <rmsd>  (11) 
8.261660927419337

>  <m_score__min__rmsd>  (11) 
8.261660927419337

>  <meeko>  (11) 
{"free_energy": -7.93, "intermolecular_energy": -9.72, "internal_energy": -1.87, "cluster_size": 11, "cluster_id": 2, "rank_in_cluster": 11}

>  <energy>  (11) 
-8.66

>  <cluster_rmsd>  (11) 
1.01

>  <cluster>  (11) 
1

$$$$

     RDKit          3D

 50 53  0  0  0  0  0  0  0  0999 V2000
  139.3730   70.7960  221.4620 O   0  0  0  0  0  0  0  0  0  0  0  0
  139.5400   71.4440  222.5320 C   0  0  0  0  0  0  0  0  0  0  0  0
  139.6130   72.8750  222.4870 N   0  0  0  0  0  0  0  0  0  0  0  0
  139.5220   73.6500  221.2940 C   0  0  0  0  0  0  0  0  0  0  0  0
  140.2670   74.9090  221.2590 C   0  0  0  0  0  0  0  0  0  0  0  0
  140.1260   75.6000  222.3630 O   0  0  0  0  0  0  0  0  0  0  0  0
  141.0790   75.4780  220.2920 N   0  0  0  0  0  0  0  0  0  0  0  0
  142.1330   74.9010  219.4360 C   0  0  0  0  0  0  0  0  0  0  0  0
  143.0380   76.0510  219.0190 C   0  0  0  0  0  0  0  0  0  0  0  0
  142.5890   77.1270  219.9700 C   0  0  0  0  0  0  0  0  0  0  0  0
  141.0740   76.8730  219.9000 C   0  0  2  0  0  0  0  0  0  0  0  0
  140.3460   77.8480  220.7010 C   0  0  0  0  0  0  0  0  0  0  0  0
  141.1090   78.6990  221.6190 C   0  0  0  0  0  0  0  0  0  0  0  0
  141.1230   78.2990  222.9670 C   0  0  0  0  0  0  0  0  0  0  0  0
  141.8110   79.0340  223.8960 C   0  0  0  0  0  0  0  0  0  0  0  0
  142.5020   80.1730  223.5520 C   0  0  0  0  0  0  0  0  0  0  0  0
  142.4730   80.5450  222.2240 C   0  0  0  0  0  0  0  0  0  0  0  0
  141.7910   79.8050  221.3390 N   0  0  0  0  0  0  0  0  0  0  0  0
  139.6620   70.7280  223.8180 C   0  0  0  0  0  0  0  0  0  0  0  0
  139.2120   69.4360  223.9030 C   0  0  0  0  0  0  0  0  0  0  0  0
  139.3200   68.7580  225.0960 C   0  0  0  0  0  0  0  0  0  0  0  0
  139.8770   69.3800  226.1960 C   0  0  0  0  0  0  0  0  0  0  0  0
  139.9750   68.6780  227.3870 C   0  0  0  0  0  0  0  0  0  0  0  0
  140.5270   69.3070  228.4630 C   0  0  0  0  0  0  0  0  0  0  0  0
  140.9610   70.6000  228.3260 C   0  0  0  0  0  0  0  0  0  0  0  0
  140.8760   71.3220  227.1540 C   0  0  0  0  0  0  0  0  0  0  0  0
  140.3130   70.6750  226.0650 C   0  0  0  0  0  0  0  0  0  0  0  0
  140.2030   71.3270  224.8940 N   0  0  0  0  0  0  0  0  0  0  0  0
  139.7430   73.3260  223.4430 H   0  0  0  0  0  0  0  0  0  0  0  0
  139.8866   73.0260  220.4648 H   0  0  0  0  0  0  0  0  0  0  0  0
  138.4640   73.9431  221.2249 H   0  0  0  0  0  0  0  0  0  0  0  0
  142.7085   74.1505  219.9976 H   0  0  0  0  0  0  0  0  0  0  0  0
  141.6989   74.4013  218.5574 H   0  0  0  0  0  0  0  0  0  0  0  0
  144.0999   75.8022  219.1623 H   0  0  0  0  0  0  0  0  0  0  0  0
  142.9640   76.3246  217.9561 H   0  0  0  0  0  0  0  0  0  0  0  0
  142.9882   76.9773  220.9840 H   0  0  0  0  0  0  0  0  0  0  0  0
  142.9146   78.1486  219.7245 H   0  0  0  0  0  0  0  0  0  0  0  0
  140.5376   77.0137  218.9500 H   0  0  0  0  0  0  0  0  0  0  0  0
  139.8169   78.5135  220.0031 H   0  0  0  0  0  0  0  0  0  0  0  0
  139.7096   77.2387  221.3597 H   0  0  0  0  0  0  0  0  0  0  0  0
  140.5802   77.3937  223.2763 H   0  0  0  0  0  0  0  0  0  0  0  0
  141.8110   78.7046  224.9455 H   0  0  0  0  0  0  0  0  0  0  0  0
  143.0525   80.7602  224.3018 H   0  0  0  0  0  0  0  0  0  0  0  0
  143.0084   81.4468  221.8922 H   0  0  0  0  0  0  0  0  0  0  0  0
  138.7680   68.9448  223.0246 H   0  0  0  0  0  0  0  0  0  0  0  0
  138.9626   67.7206  225.1732 H   0  0  0  0  0  0  0  0  0  0  0  0
  139.6168   67.6407  227.4620 H   0  0  0  0  0  0  0  0  0  0  0  0
  140.6227   68.7850  229.4265 H   0  0  0  0  0  0  0  0  0  0  0  0
  141.4041   71.0918  229.2045 H   0  0  0  0  0  0  0  0  0  0  0  0
  141.2368   72.3590  227.0868 H   0  0  0  0  0  0  0  0  0  0  0  0
  1  2  2  0
  2  3  1  0
  3  4  1  0
  4  5  1  0
  5  6  2  0
  5  7  1  0
  7  8  1  0
  8  9  1  0
  9 10  1  0
 10 11  1  0
 11 12  1  0
 12 13  1  0
 13 14  2  0
 14 15  1  0
 15 16  2  0
 16 17  1  0
 17 18  2  0
  2 19  1  0
 19 20  2  0
 20 21  1  0
 21 22  2  0
 22 23  1  0
 23 24  2  0
 24 25  1  0
 25 26  2  0
 26 27  1  0
 27 28  2  0
 11  7  1  0
 18 13  1  0
 28 19  1  0
 27 22  1  0
  3 29  1  0
  4 30  1  0
  4 31  1  0
  8 32  1  0
  8 33  1  0
  9 34  1  0
  9 35  1  0
 10 36  1  0
 10 37  1  0
 11 38  1  6
 12 39  1  0
 12 40  1  0
 14 41  1  0
 15 42  1  0
 16 43  1  0
 17 44  1  0
 20 45  1  0
 21 46  1  0
 23 47  1  0
 24 48  1  0
 25 49  1  0
 26 50  1  0
M  END
>  <smiles>  (12) 
O=C(NCC(=O)N1CCCC1Cc1ccccn1)c1ccc2ccccc2n1

>  <score_type>  (12) 
oracle

>  <origin>  (12) 
autodockgpu

>  <m_score__min__energy>  (12) 
-8.8499999999999996

>  <m_primary>  (12) 
energy

>  <rmsd>  (12) 
1.8073887704997296

>  <m_score__min__rmsd>  (12) 
1.8073887704997296

>  <meeko>  (12) 
{"free_energy": -8.72, "intermolecular_energy": -10.51, "internal_energy": -1.63, "cluster_size": 18, "cluster_id": 1, "rank_in_cluster": 8}

>  <energy>  (12) 
-8.61

>  <cluster_rmsd>  (12) 
0.88

>  <cluster>  (12) 
1

$$$$

     RDKit          3D

 50 53  0  0  0  0  0  0  0  0999 V2000
  137.2210   76.3880  222.2860 O   0  0  0  0  0  0  0  0  0  0  0  0
  138.4790   76.4360  222.3740 C   0  0  0  0  0  0  0  0  0  0  0  0
  139.2480   75.2440  222.1680 N   0  0  0  0  0  0  0  0  0  0  0  0
  138.6910   73.9650  221.8760 C   0  0  0  0  0  0  0  0  0  0  0  0
  139.4950   72.7930  222.2230 C   0  0  0  0  0  0  0  0  0  0  0  0
  140.7660   73.0820  222.3500 O   0  0  0  0  0  0  0  0  0  0  0  0
  139.1540   71.4680  222.4430 N   0  0  0  0  0  0  0  0  0  0  0  0
  138.2100   70.5720  221.7490 C   0  0  0  0  0  0  0  0  0  0  0  0
  137.8300   69.4820  222.7400 C   0  0  0  0  0  0  0  0  0  0  0  0
  138.3490   70.0690  224.0240 C   0  0  0  0  0  0  0  0  0  0  0  0
  139.6820   70.6250  223.4960 C   0  0  2  0  0  0  0  0  0  0  0  0
  140.4620   71.2160  224.5750 C   0  0  0  0  0  0  0  0  0  0  0  0
  140.5820   70.4720  225.8320 C   0  0  0  0  0  0  0  0  0  0  0  0
  140.7120   71.2450  226.9990 C   0  0  0  0  0  0  0  0  0  0  0  0
  140.8310   70.6350  228.2200 C   0  0  0  0  0  0  0  0  0  0  0  0
  140.8280   69.2650  228.3480 C   0  0  0  0  0  0  0  0  0  0  0  0
  140.6990   68.5290  227.1890 C   0  0  0  0  0  0  0  0  0  0  0  0
  140.5860   69.1550  226.0100 N   0  0  0  0  0  0  0  0  0  0  0  0
  139.1480   77.7150  222.6890 C   0  0  0  0  0  0  0  0  0  0  0  0
  138.3810   78.8100  222.9880 C   0  0  0  0  0  0  0  0  0  0  0  0
  138.9930   80.0060  223.2830 C   0  0  0  0  0  0  0  0  0  0  0  0
  140.3710   80.0970  223.2750 C   0  0  0  0  0  0  0  0  0  0  0  0
  140.9660   81.3130  223.5750 C   0  0  0  0  0  0  0  0  0  0  0  0
  142.3270   81.3860  223.5620 C   0  0  0  0  0  0  0  0  0  0  0  0
  143.0500   80.2620  223.2570 C   0  0  0  0  0  0  0  0  0  0  0  0
  142.4850   79.0400  222.9550 C   0  0  0  0  0  0  0  0  0  0  0  0
  141.1000   78.9760  222.9690 C   0  0  0  0  0  0  0  0  0  0  0  0
  140.4910   77.8110  222.6830 N   0  0  0  0  0  0  0  0  0  0  0  0
  140.3000   75.3940  222.2530 H   0  0  0  0  0  0  0  0  0  0  0  0
  137.7384   73.8863  222.4204 H   0  0  0  0  0  0  0  0  0  0  0  0
  138.6040   73.9360  220.7798 H   0  0  0  0  0  0  0  0  0  0  0  0
  137.3148   71.1313  221.4395 H   0  0  0  0  0  0  0  0  0  0  0  0
  138.6657   70.1422  220.8448 H   0  0  0  0  0  0  0  0  0  0  0  0
  136.7411   69.3304  222.7761 H   0  0  0  0  0  0  0  0  0  0  0  0
  138.2353   68.4882  222.4989 H   0  0  0  0  0  0  0  0  0  0  0  0
  137.6934   70.8624  224.4122 H   0  0  0  0  0  0  0  0  0  0  0  0
  138.4236   69.3729  224.8724 H   0  0  0  0  0  0  0  0  0  0  0  0
  140.4460   69.9376  223.1039 H   0  0  0  0  0  0  0  0  0  0  0  0
  141.4808   71.3747  224.1917 H   0  0  0  0  0  0  0  0  0  0  0  0
  139.9042   72.1238  224.8483 H   0  0  0  0  0  0  0  0  0  0  0  0
  140.7182   72.3429  226.9316 H   0  0  0  0  0  0  0  0  0  0  0  0
  140.9316   71.2569  229.1218 H   0  0  0  0  0  0  0  0  0  0  0  0
  140.9241   68.7790  229.3301 H   0  0  0  0  0  0  0  0  0  0  0  0
  140.6889   67.4299  227.2325 H   0  0  0  0  0  0  0  0  0  0  0  0
  137.2837   78.7333  222.9922 H   0  0  0  0  0  0  0  0  0  0  0  0
  138.3848   80.8900  223.5253 H   0  0  0  0  0  0  0  0  0  0  0  0
  140.3557   82.1956  223.8171 H   0  0  0  0  0  0  0  0  0  0  0  0
  142.8375   82.3326  223.7928 H   0  0  0  0  0  0  0  0  0  0  0  0
  144.1473   80.3390  223.2528 H   0  0  0  0  0  0  0  0  0  0  0  0
  143.1019   78.1613  222.7154 H   0  0  0  0  0  0  0  0  0  0  0  0
  1  2  2  0
  2  3  1  0
  3  4  1  0
  4  5  1  0
  5  6  2  0
  5  7  1  0
  7  8  1  0
  8  9  1  0
  9 10  1  0
 10 11  1  0
 11 12  1  0
 12 13  1  0
 13 14  2  0
 14 15  1  0
 15 16  2  0
 16 17  1  0
 17 18  2  0
  2 19  1  0
 19 20  2  0
 20 21  1  0
 21 22  2  0
 22 23  1  0
 23 24  2  0
 24 25  1  0
 25 26  2  0
 26 27  1  0
 27 28  2  0
 11  7  1  0
 18 13  1  0
 28 19  1  0
 27 22  1  0
  3 29  1  0
  4 30  1  0
  4 31  1  0
  8 32  1  0
  8 33  1  0
  9 34  1  0
  9 35  1  0
 10 36  1  0
 10 37  1  0
 11 38  1  6
 12 39  1  0
 12 40  1  0
 14 41  1  0
 15 42  1  0
 16 43  1  0
 17 44  1  0
 20 45  1  0
 21 46  1  0
 23 47  1  0
 24 48  1  0
 25 49  1  0
 26 50  1  0
M  END
>  <smiles>  (13) 
O=C(NCC(=O)N1CCCC1Cc1ccccn1)c1ccc2ccccc2n1

>  <score_type>  (13) 
oracle

>  <origin>  (13) 
autodockgpu

>  <m_score__min__energy>  (13) 
-8.8499999999999996

>  <m_primary>  (13) 
energy

>  <rmsd>  (13) 
8.453890320993759

>  <m_score__min__rmsd>  (13) 
8.453890320993759

>  <meeko>  (13) 
{"free_energy": -8.45, "intermolecular_energy": -10.24, "internal_energy": -1.8, "cluster_size": 11, "cluster_id": 2, "rank_in_cluster": 3}

>  <energy>  (13) 
-8.46

>  <cluster_rmsd>  (13) 
0.97

>  <cluster>  (13) 
1

$$$$

     RDKit          3D

 50 53  0  0  0  0  0  0  0  0999 V2000
  141.2570   71.6270  221.5160 O   0  0  0  0  0  0  0  0  0  0  0  0
  140.6050   72.1450  222.4640 C   0  0  0  0  0  0  0  0  0  0  0  0
  140.1300   73.4920  222.3430 N   0  0  0  0  0  0  0  0  0  0  0  0
  140.3510   74.3260  221.2080 C   0  0  0  0  0  0  0  0  0  0  0  0
  140.5800   75.7490  221.4610 C   0  0  0  0  0  0  0  0  0  0  0  0
  139.9860   76.1600  222.5540 O   0  0  0  0  0  0  0  0  0  0  0  0
  141.3010   76.7080  220.7700 N   0  0  0  0  0  0  0  0  0  0  0  0
  141.2680   78.1820  220.8190 C   0  0  0  0  0  0  0  0  0  0  0  0
  141.8190   78.6780  219.4910 C   0  0  0  0  0  0  0  0  0  0  0  0
  141.7960   77.4120  218.6800 C   0  0  0  0  0  0  0  0  0  0  0  0
  142.3060   76.4430  219.7610 C   0  0  2  0  0  0  0  0  0  0  0  0
  142.4550   75.0970  219.2230 C   0  0  0  0  0  0  0  0  0  0  0  0
  143.4820   74.2280  219.8040 C   0  0  0  0  0  0  0  0  0  0  0  0
  144.6140   74.8750  220.3320 C   0  0  0  0  0  0  0  0  0  0  0  0
  145.6260   74.1420  220.8950 C   0  0  0  0  0  0  0  0  0  0  0  0
  145.5750   72.7690  220.9640 C   0  0  0  0  0  0  0  0  0  0  0  0
  144.4540   72.1580  220.4390 C   0  0  0  0  0  0  0  0  0  0  0  0
  143.4830   72.9020  219.8950 N   0  0  0  0  0  0  0  0  0  0  0  0
  140.3390   71.3640  223.6890 C   0  0  0  0  0  0  0  0  0  0  0  0
  139.6890   70.1620  223.5830 C   0  0  0  0  0  0  0  0  0  0  0  0
  139.4350   69.4260  224.7170 C   0  0  0  0  0  0  0  0  0  0  0  0
  139.8340   69.9000  225.9510 C   0  0  0  0  0  0  0  0  0  0  0  0
  139.5670   69.1400  227.0810 C   0  0  0  0  0  0  0  0  0  0  0  0
  139.9660   69.6230  228.2920 C   0  0  0  0  0  0  0  0  0  0  0  0
  140.6130   70.8310  228.3450 C   0  0  0  0  0  0  0  0  0  0  0  0
  140.8910   71.6060  227.2390 C   0  0  0  0  0  0  0  0  0  0  0  0
  140.4800   71.1080  226.0120 C   0  0  0  0  0  0  0  0  0  0  0  0
  140.7240   71.8190  224.8960 N   0  0  0  0  0  0  0  0  0  0  0  0
  139.5830   73.8300  223.1920 H   0  0  0  0  0  0  0  0  0  0  0  0
  141.2331   73.9375  220.6780 H   0  0  0  0  0  0  0  0  0  0  0  0
  139.4110   74.2859  220.6380 H   0  0  0  0  0  0  0  0  0  0  0  0
  140.2346   78.5334  220.9552 H   0  0  0  0  0  0  0  0  0  0  0  0
  141.8650   78.5625  221.6609 H   0  0  0  0  0  0  0  0  0  0  0  0
  141.1739   79.4521  219.0498 H   0  0  0  0  0  0  0  0  0  0  0  0
  142.8081   79.1544  219.5600 H   0  0  0  0  0  0  0  0  0  0  0  0
  140.7821   77.1563  218.3385 H   0  0  0  0  0  0  0  0  0  0  0  0
  142.3737   77.4323  217.7441 H   0  0  0  0  0  0  0  0  0  0  0  0
  143.3188   76.5648  220.1727 H   0  0  0  0  0  0  0  0  0  0  0  0
  141.4882   74.5873  219.3474 H   0  0  0  0  0  0  0  0  0  0  0  0
  142.7859   75.2536  218.1857 H   0  0  0  0  0  0  0  0  0  0  0  0
  144.6871   75.9719  220.2929 H   0  0  0  0  0  0  0  0  0  0  0  0
  146.5030   74.6659  221.3029 H   0  0  0  0  0  0  0  0  0  0  0  0
  146.3899   72.1850  221.4166 H   0  0  0  0  0  0  0  0  0  0  0  0
  144.3588   71.0625  220.4675 H   0  0  0  0  0  0  0  0  0  0  0  0
  139.3726   69.7885  222.5979 H   0  0  0  0  0  0  0  0  0  0  0  0
  138.9142   68.4601  224.6408 H   0  0  0  0  0  0  0  0  0  0  0  0
  139.0473   68.1737  227.0018 H   0  0  0  0  0  0  0  0  0  0  0  0
  139.7719   69.0525  229.2123 H   0  0  0  0  0  0  0  0  0  0  0  0
  140.9295   71.2045  229.3300 H   0  0  0  0  0  0  0  0  0  0  0  0
  141.4125   72.5706  227.3257 H   0  0  0  0  0  0  0  0  0  0  0  0
  1  2  2  0
  2  3  1  0
  3  4  1  0
  4  5  1  0
  5  6  2  0
  5  7  1  0
  7  8  1  0
  8  9  1  0
  9 10  1  0
 10 11  1  0
 11 12  1  0
 12 13  1  0
 13 14  2  0
 14 15  1  0
 15 16  2  0
 16 17  1  0
 17 18  2  0
  2 19  1  0
 19 20  2  0
 20 21  1  0
 21 22  2  0
 22 23  1  0
 23 24  2  0
 24 25  1  0
 25 26  2  0
 26 27  1  0
 27 28  2  0
 11  7  1  0
 18 13  1  0
 28 19  1  0
 27 22  1  0
  3 29  1  0
  4 30  1  0
  4 31  1  0
  8 32  1  0
  8 33  1  0
  9 34  1  0
  9 35  1  0
 10 36  1  0
 10 37  1  0
 11 38  1  1
 12 39  1  0
 12 40  1  0
 14 41  1  0
 15 42  1  0
 16 43  1  0
 17 44  1  0
 20 45  1  0
 21 46  1  0
 23 47  1  0
 24 48  1  0
 25 49  1  0
 26 50  1  0
M  END
>  <smiles>  (14) 
O=C(NCC(=O)N1CCCC1Cc1ccccn1)c1ccc2ccccc2n1

>  <score_type>  (14) 
oracle

>  <origin>  (14) 
autodockgpu

>  <m_score__min__energy>  (14) 
-8.8499999999999996

>  <m_primary>  (14) 
energy

>  <rmsd>  (14) 
2.2967795359950665

>  <m_score__min__rmsd>  (14) 
2.2967795359950665

>  <meeko>  (14) 
{"free_energy": -8.46, "intermolecular_energy": -10.25, "internal_energy": -1.74, "cluster_size": 9, "cluster_id": 4, "rank_in_cluster": 3}

>  <energy>  (14) 
-8.45

>  <cluster_rmsd>  (14) 
1.36

>  <cluster>  (14) 
1

$$$$

     RDKit          3D

 50 53  0  0  0  0  0  0  0  0999 V2000
  140.3690   71.8110  221.1270 O   0  0  0  0  0  0  0  0  0  0  0  0
  140.0810   72.3260  222.2420 C   0  0  0  0  0  0  0  0  0  0  0  0
  139.7810   73.7250  222.3170 N   0  0  0  0  0  0  0  0  0  0  0  0
  139.7930   74.6140  221.2030 C   0  0  0  0  0  0  0  0  0  0  0  0
  140.7600   75.7120  221.2370 C   0  0  0  0  0  0  0  0  0  0  0  0
  140.9960   76.1280  222.4560 O   0  0  0  0  0  0  0  0  0  0  0  0
  141.4560   76.3650  220.2320 N   0  0  0  0  0  0  0  0  0  0  0  0
  141.4150   77.7630  219.7610 C   0  0  0  0  0  0  0  0  0  0  0  0
  141.9240   77.7580  218.3280 C   0  0  0  0  0  0  0  0  0  0  0  0
  141.8860   76.2870  218.0150 C   0  0  0  0  0  0  0  0  0  0  0  0
  142.4330   75.7580  219.3520 C   0  0  2  0  0  0  0  0  0  0  0  0
  142.5760   74.3080  219.3170 C   0  0  0  0  0  0  0  0  0  0  0  0
  143.8420   73.7250  219.7680 C   0  0  0  0  0  0  0  0  0  0  0  0
  144.6950   74.5790  220.4890 C   0  0  0  0  0  0  0  0  0  0  0  0
  145.9010   74.1200  220.9500 C   0  0  0  0  0  0  0  0  0  0  0  0
  146.3170   72.8270  220.7280 C   0  0  0  0  0  0  0  0  0  0  0  0
  145.4620   72.0090  220.0190 C   0  0  0  0  0  0  0  0  0  0  0  0
  144.2900   72.4880  219.5810 N   0  0  0  0  0  0  0  0  0  0  0  0
  140.0580   71.4880  223.4590 C   0  0  0  0  0  0  0  0  0  0  0  0
  139.5650   70.2120  223.3760 C   0  0  0  0  0  0  0  0  0  0  0  0
  139.5380   69.4220  224.5030 C   0  0  0  0  0  0  0  0  0  0  0  0
  140.0050   69.9170  225.7050 C   0  0  0  0  0  0  0  0  0  0  0  0
  139.9670   69.1030  226.8270 C   0  0  0  0  0  0  0  0  0  0  0  0
  140.4300   69.6080  228.0060 C   0  0  0  0  0  0  0  0  0  0  0  0
  140.9130   70.8910  228.0350 C   0  0  0  0  0  0  0  0  0  0  0  0
  140.9620   71.7220  226.9360 C   0  0  0  0  0  0  0  0  0  0  0  0
  140.4870   71.2010  225.7410 C   0  0  0  0  0  0  0  0  0  0  0  0
  140.5100   71.9640  224.6340 N   0  0  0  0  0  0  0  0  0  0  0  0
  139.5400   74.0590  223.3000 H   0  0  0  0  0  0  0  0  0  0  0  0
  140.0022   74.0158  220.3039 H   0  0  0  0  0  0  0  0  0  0  0  0
  138.8074   75.1021  221.2177 H   0  0  0  0  0  0  0  0  0  0  0  0
  140.3838   78.1443  219.7954 H   0  0  0  0  0  0  0  0  0  0  0  0
  142.0335   78.4127  220.3977 H   0  0  0  0  0  0  0  0  0  0  0  0
  141.2613   78.3300  217.6619 H   0  0  0  0  0  0  0  0  0  0  0  0
  142.9115   78.2243  218.1959 H   0  0  0  0  0  0  0  0  0  0  0  0
  140.8644   75.9316  217.8150 H   0  0  0  0  0  0  0  0  0  0  0  0
  142.4366   75.9746  217.1154 H   0  0  0  0  0  0  0  0  0  0  0  0
  143.4562   76.0126  219.6654 H   0  0  0  0  0  0  0  0  0  0  0  0
  141.7799   73.8867  219.9484 H   0  0  0  0  0  0  0  0  0  0  0  0
  142.5260   74.0555  218.2475 H   0  0  0  0  0  0  0  0  0  0  0  0
  144.3933   75.6188  220.6836 H   0  0  0  0  0  0  0  0  0  0  0  0
  146.5542   74.8033  221.5126 H   0  0  0  0  0  0  0  0  0  0  0  0
  147.2864   72.4627  221.0988 H   0  0  0  0  0  0  0  0  0  0  0  0
  145.7420   70.9653  219.8136 H   0  0  0  0  0  0  0  0  0  0  0  0
  139.1939   69.8223  222.4166 H   0  0  0  0  0  0  0  0  0  0  0  0
  139.1444   68.3964  224.4463 H   0  0  0  0  0  0  0  0  0  0  0  0
  139.5739   68.0774  226.7675 H   0  0  0  0  0  0  0  0  0  0  0  0
  140.4162   68.9956  228.9197 H   0  0  0  0  0  0  0  0  0  0  0  0
  141.2842   71.2812  228.9941 H   0  0  0  0  0  0  0  0  0  0  0  0
  141.3576   72.7462  227.0032 H   0  0  0  0  0  0  0  0  0  0  0  0
  1  2  2  0
  2  3  1  0
  3  4  1  0
  4  5  1  0
  5  6  2  0
  5  7  1  0
  7  8  1  0
  8  9  1  0
  9 10  1  0
 10 11  1  0
 11 12  1  0
 12 13  1  0
 13 14  2  0
 14 15  1  0
 15 16  2  0
 16 17  1  0
 17 18  2  0
  2 19  1  0
 19 20  2  0
 20 21  1  0
 21 22  2  0
 22 23  1  0
 23 24  2  0
 24 25  1  0
 25 26  2  0
 26 27  1  0
 27 28  2  0
 11  7  1  0
 18 13  1  0
 28 19  1  0
 27 22  1  0
  3 29  1  0
  4 30  1  0
  4 31  1  0
  8 32  1  0
  8 33  1  0
  9 34  1  0
  9 35  1  0
 10 36  1  0
 10 37  1  0
 11 38  1  1
 12 39  1  0
 12 40  1  0
 14 41  1  0
 15 42  1  0
 16 43  1  0
 17 44  1  0
 20 45  1  0
 21 46  1  0
 23 47  1  0
 24 48  1  0
 25 49  1  0
 26 50  1  0
M  END
>  <smiles>  (15) 
O=C(NCC(=O)N1CCCC1Cc1ccccn1)c1ccc2ccccc2n1

>  <score_type>  (15) 
oracle

>  <origin>  (15) 
autodockgpu

>  <m_score__min__energy>  (15) 
-8.8499999999999996

>  <m_primary>  (15) 
energy

>  <rmsd>  (15) 
2.0295536666074914

>  <m_score__min__rmsd>  (15) 
2.0295536666074914

>  <meeko>  (15) 
{"free_energy": -8.07, "intermolecular_energy": -9.86, "internal_energy": -1.69, "cluster_size": 9, "cluster_id": 4, "rank_in_cluster": 7}

>  <energy>  (15) 
-8.43

>  <cluster_rmsd>  (15) 
1.99

>  <cluster>  (15) 
1

$$$$

     RDKit          3D

 50 53  0  0  0  0  0  0  0  0999 V2000
  140.3300   71.6310  221.4300 O   0  0  0  0  0  0  0  0  0  0  0  0
  139.6070   71.9000  222.4290 C   0  0  0  0  0  0  0  0  0  0  0  0
  138.5610   72.8710  222.3040 N   0  0  0  0  0  0  0  0  0  0  0  0
  138.2690   73.5920  221.1090 C   0  0  0  0  0  0  0  0  0  0  0  0
  139.2490   74.5880  220.6740 C   0  0  0  0  0  0  0  0  0  0  0  0
  139.4050   74.5960  219.3740 O   0  0  0  0  0  0  0  0  0  0  0  0
  140.0130   75.5040  221.3790 N   0  0  0  0  0  0  0  0  0  0  0  0
  139.6490   76.4960  222.4090 C   0  0  0  0  0  0  0  0  0  0  0  0
  140.7290   77.5670  222.3880 C   0  0  0  0  0  0  0  0  0  0  0  0
  141.4300   77.2410  221.0980 C   0  0  0  0  0  0  0  0  0  0  0  0
  141.4380   75.7080  221.2270 C   0  0  2  0  0  0  0  0  0  0  0  0
  142.1420   75.0970  220.1060 C   0  0  0  0  0  0  0  0  0  0  0  0
  143.3860   74.3730  220.3810 C   0  0  0  0  0  0  0  0  0  0  0  0
  143.2670   72.9830  220.5570 C   0  0  0  0  0  0  0  0  0  0  0  0
  144.3770   72.2230  220.8180 C   0  0  0  0  0  0  0  0  0  0  0  0
  145.6300   72.7830  220.9160 C   0  0  0  0  0  0  0  0  0  0  0  0
  145.7210   74.1480  220.7390 C   0  0  0  0  0  0  0  0  0  0  0  0
  144.6170   74.8620  220.4860 N   0  0  0  0  0  0  0  0  0  0  0  0
  139.8430   71.2160  223.7170 C   0  0  0  0  0  0  0  0  0  0  0  0
  139.5550   69.8800  223.8220 C   0  0  0  0  0  0  0  0  0  0  0  0
  139.7710   69.2320  225.0160 C   0  0  0  0  0  0  0  0  0  0  0  0
  140.2740   69.9270  226.0980 C   0  0  0  0  0  0  0  0  0  0  0  0
  140.4840   69.2530  227.2920 C   0  0  0  0  0  0  0  0  0  0  0  0
  140.9800   69.9550  228.3500 C   0  0  0  0  0  0  0  0  0  0  0  0
  141.2520   71.2890  228.1930 C   0  0  0  0  0  0  0  0  0  0  0  0
  141.0540   71.9840  227.0190 C   0  0  0  0  0  0  0  0  0  0  0  0
  140.5480   71.2630  225.9480 C   0  0  0  0  0  0  0  0  0  0  0  0
  140.3330   71.8860  224.7760 N   0  0  0  0  0  0  0  0  0  0  0  0
  138.0030   73.0170  223.1990 H   0  0  0  0  0  0  0  0  0  0  0  0
  138.1605   72.8576  220.2973 H   0  0  0  0  0  0  0  0  0  0  0  0
  137.3611   74.1686  221.3397 H   0  0  0  0  0  0  0  0  0  0  0  0
  138.6700   76.9407  222.1773 H   0  0  0  0  0  0  0  0  0  0  0  0
  139.5773   76.0268  223.4013 H   0  0  0  0  0  0  0  0  0  0  0  0
  140.2955   78.5778  222.3681 H   0  0  0  0  0  0  0  0  0  0  0  0
  141.3834   77.5690  223.2722 H   0  0  0  0  0  0  0  0  0  0  0  0
  140.8615   77.5805  220.2196 H   0  0  0  0  0  0  0  0  0  0  0  0
  142.4125   77.7144  220.9542 H   0  0  0  0  0  0  0  0  0  0  0  0
  141.9937   75.2294  222.0469 H   0  0  0  0  0  0  0  0  0  0  0  0
  141.4483   74.3857  219.6339 H   0  0  0  0  0  0  0  0  0  0  0  0
  142.4543   75.9486  219.4836 H   0  0  0  0  0  0  0  0  0  0  0  0
  142.2794   72.5040  220.4849 H   0  0  0  0  0  0  0  0  0  0  0  0
  144.2634   71.1372  220.9526 H   0  0  0  0  0  0  0  0  0  0  0  0
  146.5189   72.1700  221.1260 H   0  0  0  0  0  0  0  0  0  0  0  0
  146.6982   74.6487  220.8056 H   0  0  0  0  0  0  0  0  0  0  0  0
  139.1541   69.3301  222.9578 H   0  0  0  0  0  0  0  0  0  0  0  0
  139.5430   68.1599  225.1089 H   0  0  0  0  0  0  0  0  0  0  0  0
  140.2564   68.1806  227.3827 H   0  0  0  0  0  0  0  0  0  0  0  0
  141.1592   69.4584  229.3150 H   0  0  0  0  0  0  0  0  0  0  0  0
  141.6530   71.8391  229.0570 H   0  0  0  0  0  0  0  0  0  0  0  0
  141.2857   73.0561  226.9360 H   0  0  0  0  0  0  0  0  0  0  0  0
  1  2  2  0
  2  3  1  0
  3  4  1  0
  4  5  1  0
  5  6  2  0
  5  7  1  0
  7  8  1  0
  8  9  1  0
  9 10  1  0
 10 11  1  0
 11 12  1  0
 12 13  1  0
 13 14  2  0
 14 15  1  0
 15 16  2  0
 16 17  1  0
 17 18  2  0
  2 19  1  0
 19 20  2  0
 20 21  1  0
 21 22  2  0
 22 23  1  0
 23 24  2  0
 24 25  1  0
 25 26  2  0
 26 27  1  0
 27 28  2  0
 11  7  1  0
 18 13  1  0
 28 19  1  0
 27 22  1  0
  3 29  1  0
  4 30  1  0
  4 31  1  0
  8 32  1  0
  8 33  1  0
  9 34  1  0
  9 35  1  0
 10 36  1  0
 10 37  1  0
 11 38  1  1
 12 39  1  0
 12 40  1  0
 14 41  1  0
 15 42  1  0
 16 43  1  0
 17 44  1  0
 20 45  1  0
 21 46  1  0
 23 47  1  0
 24 48  1  0
 25 49  1  0
 26 50  1  0
M  END
>  <smiles>  (16) 
O=C(NCC(=O)N1CCCC1Cc1ccccn1)c1ccc2ccccc2n1

>  <score_type>  (16) 
oracle

>  <origin>  (16) 
autodockgpu

>  <m_score__min__energy>  (16) 
-8.8499999999999996

>  <m_primary>  (16) 
energy

>  <rmsd>  (16) 
2.3671400028993443

>  <m_score__min__rmsd>  (16) 
2.3671400028993443

>  <meeko>  (16) 
{"free_energy": -8.16, "intermolecular_energy": -9.95, "internal_energy": -1.61, "cluster_size": 9, "cluster_id": 4, "rank_in_cluster": 5}

>  <energy>  (16) 
-8.01

>  <cluster_rmsd>  (16) 
1.17

>  <cluster>  (16) 
1

$$$$

     RDKit          3D

 50 53  0  0  0  0  0  0  0  0999 V2000
  137.3660   76.1860  222.2680 O   0  0  0  0  0  0  0  0  0  0  0  0
  138.6170   76.2770  222.4080 C   0  0  0  0  0  0  0  0  0  0  0  0
  139.4330   75.1100  222.2510 N   0  0  0  0  0  0  0  0  0  0  0  0
  138.9310   73.8100  221.9520 C   0  0  0  0  0  0  0  0  0  0  0  0
  139.8210   72.6770  222.2110 C   0  0  0  0  0  0  0  0  0  0  0  0
  141.0700   73.0460  222.3450 O   0  0  0  0  0  0  0  0  0  0  0  0
  139.5760   71.3190  222.3440 N   0  0  0  0  0  0  0  0  0  0  0  0
  139.1130   70.3080  221.3740 C   0  0  0  0  0  0  0  0  0  0  0  0
  138.4900   69.1800  222.1810 C   0  0  0  0  0  0  0  0  0  0  0  0
  138.3610   69.8300  223.5310 C   0  0  0  0  0  0  0  0  0  0  0  0
  139.7190   70.5520  223.5640 C   0  0  2  0  0  0  0  0  0  0  0  0
  139.9090   71.2410  224.8350 C   0  0  0  0  0  0  0  0  0  0  0  0
  140.2760   70.4420  226.0070 C   0  0  0  0  0  0  0  0  0  0  0  0
  140.7200   71.1610  227.1310 C   0  0  0  0  0  0  0  0  0  0  0  0
  141.0840   70.4980  228.2740 C   0  0  0  0  0  0  0  0  0  0  0  0
  141.0310   69.1260  228.3630 C   0  0  0  0  0  0  0  0  0  0  0  0
  140.5930   68.4430  227.2470 C   0  0  0  0  0  0  0  0  0  0  0  0
  140.2440   69.1210  226.1450 N   0  0  0  0  0  0  0  0  0  0  0  0
  139.2290   77.5810  222.7350 C   0  0  0  0  0  0  0  0  0  0  0  0
  138.4140   78.6480  223.0090 C   0  0  0  0  0  0  0  0  0  0  0  0
  138.9730   79.8680  223.3140 C   0  0  0  0  0  0  0  0  0  0  0  0
  140.3460   80.0110  223.3420 C   0  0  0  0  0  0  0  0  0  0  0  0
  140.8870   81.2490  223.6520 C   0  0  0  0  0  0  0  0  0  0  0  0
  142.2450   81.3730  223.6730 C   0  0  0  0  0  0  0  0  0  0  0  0
  143.0160   80.2750  223.3920 C   0  0  0  0  0  0  0  0  0  0  0  0
  142.5060   79.0330  223.0810 C   0  0  0  0  0  0  0  0  0  0  0  0
  141.1240   78.9160  223.0600 C   0  0  0  0  0  0  0  0  0  0  0  0
  140.5670   77.7290  222.7630 N   0  0  0  0  0  0  0  0  0  0  0  0
  140.4740   75.2960  222.3780 H   0  0  0  0  0  0  0  0  0  0  0  0
  138.0206   73.6602  222.5509 H   0  0  0  0  0  0  0  0  0  0  0  0
  138.7760   73.8077  220.8630 H   0  0  0  0  0  0  0  0  0  0  0  0
  138.3656   70.7470  220.6967 H   0  0  0  0  0  0  0  0  0  0  0  0
  139.9469   69.9398  220.7584 H   0  0  0  0  0  0  0  0  0  0  0  0
  137.5090   68.8887  221.7775 H   0  0  0  0  0  0  0  0  0  0  0  0
  139.0727   68.2470  222.1809 H   0  0  0  0  0  0  0  0  0  0  0  0
  137.5161   70.5331  223.5739 H   0  0  0  0  0  0  0  0  0  0  0  0
  138.1595   69.1505  224.3722 H   0  0  0  0  0  0  0  0  0  0  0  0
  140.6514   69.9684  223.5555 H   0  0  0  0  0  0  0  0  0  0  0  0
  140.7041   71.9864  224.6863 H   0  0  0  0  0  0  0  0  0  0  0  0
  138.9143   71.6424  225.0791 H   0  0  0  0  0  0  0  0  0  0  0  0
  140.7754   72.2589  227.0928 H   0  0  0  0  0  0  0  0  0  0  0  0
  141.4276   71.0781  229.1432 H   0  0  0  0  0  0  0  0  0  0  0  0
  141.3245   68.5976  229.2821 H   0  0  0  0  0  0  0  0  0  0  0  0
  140.5305   67.3449  227.2618 H   0  0  0  0  0  0  0  0  0  0  0  0
  137.3206   78.5302  222.9853 H   0  0  0  0  0  0  0  0  0  0  0  0
  138.3258   80.7294  223.5355 H   0  0  0  0  0  0  0  0  0  0  0  0
  140.2381   82.1087  223.8752 H   0  0  0  0  0  0  0  0  0  0  0  0
  142.7142   82.3389  223.9117 H   0  0  0  0  0  0  0  0  0  0  0  0
  144.1094   80.3925  223.4162 H   0  0  0  0  0  0  0  0  0  0  0  0
  143.1617   78.1777  222.8606 H   0  0  0  0  0  0  0  0  0  0  0  0
  1  2  2  0
  2  3  1  0
  3  4  1  0
  4  5  1  0
  5  6  2  0
  5  7  1  0
  7  8  1  0
  8  9  1  0
  9 10  1  0
 10 11  1  0
 11 12  1  0
 12 13  1  0
 13 14  2  0
 14 15  1  0
 15 16  2  0
 16 17  1  0
 17 18  2  0
  2 19  1  0
 19 20  2  0
 20 21  1  0
 21 22  2  0
 22 23  1  0
 23 24  2  0
 24 25  1  0
 25 26  2  0
 26 27  1  0
 27 28  2  0
 11  7  1  0
 18 13  1  0
 28 19  1  0
 27 22  1  0
  3 29  1  0
  4 30  1  0
  4 31  1  0
  8 32  1  0
  8 33  1  0
  9 34  1  0
  9 35  1  0
 10 36  1  0
 10 37  1  0
 11 38  1  6
 12 39  1  0
 12 40  1  0
 14 41  1  0
 15 42  1  0
 16 43  1  0
 17 44  1  0
 20 45  1  0
 21 46  1  0
 23 47  1  0
 24 48  1  0
 25 49  1  0
 26 50  1  0
M  END
>  <smiles>  (17) 
O=C(NCC(=O)N1CCCC1Cc1ccccn1)c1ccc2ccccc2n1

>  <score_type>  (17) 
oracle

>  <origin>  (17) 
autodockgpu

>  <m_score__min__energy>  (17) 
-8.8499999999999996

>  <m_primary>  (17) 
energy

>  <rmsd>  (17) 
8.367943638067453

>  <m_score__min__rmsd>  (17) 
8.367943638067453

>  <meeko>  (17) 
{"free_energy": -8.36, "intermolecular_energy": -10.15, "internal_energy": -1.84, "cluster_size": 11, "cluster_id": 2, "rank_in_cluster": 6}

>  <energy>  (17) 
-7.91

>  <cluster_rmsd>  (17) 
1.94

>  <cluster>  (17) 
1

$$$$

     RDKit          3D

 50 53  0  0  0  0  0  0  0  0999 V2000
  140.1840   71.3630  221.3310 O   0  0  0  0  0  0  0  0  0  0  0  0
  139.5490   71.7630  222.3460 C   0  0  0  0  0  0  0  0  0  0  0  0
  138.5720   72.8020  222.2040 N   0  0  0  0  0  0  0  0  0  0  0  0
  138.2580   73.4510  220.9740 C   0  0  0  0  0  0  0  0  0  0  0  0
  138.6300   74.8600  220.8500 C   0  0  0  0  0  0  0  0  0  0  0  0
  137.8730   75.5000  219.9940 O   0  0  0  0  0  0  0  0  0  0  0  0
  139.6120   75.6170  221.4690 N   0  0  0  0  0  0  0  0  0  0  0  0
  139.5270   76.7640  222.3930 C   0  0  0  0  0  0  0  0  0  0  0  0
  140.8430   77.5180  222.2790 C   0  0  0  0  0  0  0  0  0  0  0  0
  141.4200   76.9010  221.0340 C   0  0  0  0  0  0  0  0  0  0  0  0
  141.0400   75.4360  221.3130 C   0  0  2  0  0  0  0  0  0  0  0  0
  141.5490   74.5600  220.2650 C   0  0  0  0  0  0  0  0  0  0  0  0
  142.8810   73.9750  220.4370 C   0  0  0  0  0  0  0  0  0  0  0  0
  143.9650   74.8670  220.3560 C   0  0  0  0  0  0  0  0  0  0  0  0
  145.2480   74.4080  220.5040 C   0  0  0  0  0  0  0  0  0  0  0  0
  145.5200   73.0790  220.7330 C   0  0  0  0  0  0  0  0  0  0  0  0
  144.4400   72.2240  220.8090 C   0  0  0  0  0  0  0  0  0  0  0  0
  143.1980   72.7030  220.6590 N   0  0  0  0  0  0  0  0  0  0  0  0
  139.8170   71.1620  223.6680 C   0  0  0  0  0  0  0  0  0  0  0  0
  139.5370   69.8340  223.8630 C   0  0  0  0  0  0  0  0  0  0  0  0
  139.7830   69.2630  225.0910 C   0  0  0  0  0  0  0  0  0  0  0  0
  140.3060   70.0270  226.1160 C   0  0  0  0  0  0  0  0  0  0  0  0
  140.5440   69.4300  227.3450 C   0  0  0  0  0  0  0  0  0  0  0  0
  141.0590   70.1980  228.3460 C   0  0  0  0  0  0  0  0  0  0  0  0
  141.3210   71.5210  228.1000 C   0  0  0  0  0  0  0  0  0  0  0  0
  141.0940   72.1400  226.8890 C   0  0  0  0  0  0  0  0  0  0  0  0
  140.5690   71.3520  225.8770 C   0  0  0  0  0  0  0  0  0  0  0  0
  140.3260   71.8990  224.6720 N   0  0  0  0  0  0  0  0  0  0  0  0
  138.0850   73.0580  223.1160 H   0  0  0  0  0  0  0  0  0  0  0  0
  138.7688   72.9014  220.1696 H   0  0  0  0  0  0  0  0  0  0  0  0
  137.1594   73.4410  220.9194 H   0  0  0  0  0  0  0  0  0  0  0  0
  138.6897   77.4183  222.1086 H   0  0  0  0  0  0  0  0  0  0  0  0
  139.3530   76.4272  223.4256 H   0  0  0  0  0  0  0  0  0  0  0  0
  140.6800   78.5989  222.1561 H   0  0  0  0  0  0  0  0  0  0  0  0
  141.4892   77.4392  223.1657 H   0  0  0  0  0  0  0  0  0  0  0  0
  140.9437   77.2866  220.1205 H   0  0  0  0  0  0  0  0  0  0  0  0
  142.4882   77.0931  220.8548 H   0  0  0  0  0  0  0  0  0  0  0  0
  141.4677   74.9142  222.1818 H   0  0  0  0  0  0  0  0  0  0  0  0
  140.8379   73.7270  220.1625 H   0  0  0  0  0  0  0  0  0  0  0  0
  141.6510   75.2158  219.3878 H   0  0  0  0  0  0  0  0  0  0  0  0
  143.7828   75.9363  220.1733 H   0  0  0  0  0  0  0  0  0  0  0  0
  146.0826   75.1215  220.4379 H   0  0  0  0  0  0  0  0  0  0  0  0
  146.5513   72.7148  220.8501 H   0  0  0  0  0  0  0  0  0  0  0  0
  144.5984   71.1510  220.9924 H   0  0  0  0  0  0  0  0  0  0  0  0
  139.1190   69.2296  223.0444 H   0  0  0  0  0  0  0  0  0  0  0  0
  139.5630   68.1979  225.2561 H   0  0  0  0  0  0  0  0  0  0  0  0
  140.3229   68.3648  227.5075 H   0  0  0  0  0  0  0  0  0  0  0  0
  141.2613   69.7632  229.3359 H   0  0  0  0  0  0  0  0  0  0  0  0
  141.7378   72.1257  228.9189 H   0  0  0  0  0  0  0  0  0  0  0  0
  141.3183   73.2057  226.7339 H   0  0  0  0  0  0  0  0  0  0  0  0
  1  2  2  0
  2  3  1  0
  3  4  1  0
  4  5  1  0
  5  6  2  0
  5  7  1  0
  7  8  1  0
  8  9  1  0
  9 10  1  0
 10 11  1  0
 11 12  1  0
 12 13  1  0
 13 14  2  0
 14 15  1  0
 15 16  2  0
 16 17  1  0
 17 18  2  0
  2 19  1  0
 19 20  2  0
 20 21  1  0
 21 22  2  0
 22 23  1  0
 23 24  2  0
 24 25  1  0
 25 26  2  0
 26 27  1  0
 27 28  2  0
 11  7  1  0
 18 13  1  0
 28 19  1  0
 27 22  1  0
  3 29  1  0
  4 30  1  0
  4 31  1  0
  8 32  1  0
  8 33  1  0
  9 34  1  0
  9 35  1  0
 10 36  1  0
 10 37  1  0
 11 38  1  1
 12 39  1  0
 12 40  1  0
 14 41  1  0
 15 42  1  0
 16 43  1  0
 17 44  1  0
 20 45  1  0
 21 46  1  0
 23 47  1  0
 24 48  1  0
 25 49  1  0
 26 50  1  0
M  END
>  <smiles>  (18) 
O=C(NCC(=O)N1CCCC1Cc1ccccn1)c1ccc2ccccc2n1

>  <score_type>  (18) 
oracle

>  <origin>  (18) 
autodockgpu

>  <m_score__min__energy>  (18) 
-8.8499999999999996

>  <m_primary>  (18) 
energy

>  <rmsd>  (18) 
2.4220475991210932

>  <m_score__min__rmsd>  (18) 
2.4220475991210932

>  <meeko>  (18) 
{"free_energy": -8.05, "intermolecular_energy": -9.84, "internal_energy": -1.61, "cluster_size": 9, "cluster_id": 4, "rank_in_cluster": 8}

>  <energy>  (18) 
-7.85

>  <cluster_rmsd>  (18) 
1.02

>  <cluster>  (18) 
1

$$$$

     RDKit          3D

 50 53  0  0  0  0  0  0  0  0999 V2000
  141.2370   72.3700  222.0290 O   0  0  0  0  0  0  0  0  0  0  0  0
  140.1650   72.3000  222.6910 C   0  0  0  0  0  0  0  0  0  0  0  0
  139.0550   73.1320  222.3290 N   0  0  0  0  0  0  0  0  0  0  0  0
  139.0670   74.0710  221.2560 C   0  0  0  0  0  0  0  0  0  0  0  0
  140.0890   75.1180  221.2990 C   0  0  0  0  0  0  0  0  0  0  0  0
  140.1910   75.6640  222.4850 O   0  0  0  0  0  0  0  0  0  0  0  0
  140.9490   75.6130  220.3320 N   0  0  0  0  0  0  0  0  0  0  0  0
  141.9810   74.9520  219.5090 C   0  0  0  0  0  0  0  0  0  0  0  0
  142.9590   76.0350  219.0800 C   0  0  0  0  0  0  0  0  0  0  0  0
  142.5600   77.1610  219.9950 C   0  0  0  0  0  0  0  0  0  0  0  0
  141.0340   76.9940  219.9050 C   0  0  2  0  0  0  0  0  0  0  0  0
  140.3530   78.0310  220.6690 C   0  0  0  0  0  0  0  0  0  0  0  0
  141.1360   78.8120  221.6300 C   0  0  0  0  0  0  0  0  0  0  0  0
  141.1100   78.3620  222.9610 C   0  0  0  0  0  0  0  0  0  0  0  0
  141.8130   79.0300  223.9290 C   0  0  0  0  0  0  0  0  0  0  0  0
  142.5590   80.1490  223.6390 C   0  0  0  0  0  0  0  0  0  0  0  0
  142.5690   80.5710  222.3260 C   0  0  0  0  0  0  0  0  0  0  0  0
  141.8710   79.8960  221.4030 N   0  0  0  0  0  0  0  0  0  0  0  0
  140.0610   71.3670  223.8310 C   0  0  0  0  0  0  0  0  0  0  0  0
  139.4080   70.1750  223.6560 C   0  0  0  0  0  0  0  0  0  0  0  0
  139.3040   69.2970  224.7110 C   0  0  0  0  0  0  0  0  0  0  0  0
  139.8560   69.6210  225.9350 C   0  0  0  0  0  0  0  0  0  0  0  0
  139.7390   68.7210  226.9830 C   0  0  0  0  0  0  0  0  0  0  0  0
  140.2870   69.0570  228.1860 C   0  0  0  0  0  0  0  0  0  0  0  0
  140.9300   70.2620  228.3090 C   0  0  0  0  0  0  0  0  0  0  0  0
  141.0610   71.1750  227.2840 C   0  0  0  0  0  0  0  0  0  0  0  0
  140.4990   70.8260  226.0660 C   0  0  0  0  0  0  0  0  0  0  0  0
  140.5950   71.6760  225.0270 N   0  0  0  0  0  0  0  0  0  0  0  0
  138.1950   72.9890  222.9420 H   0  0  0  0  0  0  0  0  0  0  0  0
  139.2098   73.5064  220.3228 H   0  0  0  0  0  0  0  0  0  0  0  0
  138.1084   74.6050  221.3337 H   0  0  0  0  0  0  0  0  0  0  0  0
  142.5016   74.1835  220.0993 H   0  0  0  0  0  0  0  0  0  0  0  0
  141.5323   74.4560  218.6357 H   0  0  0  0  0  0  0  0  0  0  0  0
  144.0016   75.7276  219.2486 H   0  0  0  0  0  0  0  0  0  0  0  0
  142.9183   76.2845  218.0095 H   0  0  0  0  0  0  0  0  0  0  0  0
  142.9336   77.0155  221.0193 H   0  0  0  0  0  0  0  0  0  0  0  0
  142.9494   78.1548  219.7291 H   0  0  0  0  0  0  0  0  0  0  0  0
  140.5226   77.1403  218.9422 H   0  0  0  0  0  0  0  0  0  0  0  0
  139.9239   78.7400  219.9456 H   0  0  0  0  0  0  0  0  0  0  0  0
  139.6307   77.4810  221.2901 H   0  0  0  0  0  0  0  0  0  0  0  0
  140.5232   77.4703  223.2267 H   0  0  0  0  0  0  0  0  0  0  0  0
  141.7801   78.6619  224.9651 H   0  0  0  0  0  0  0  0  0  0  0  0
  143.1219   80.6828  224.4189 H   0  0  0  0  0  0  0  0  0  0  0  0
  143.1489   81.4600  222.0372 H   0  0  0  0  0  0  0  0  0  0  0  0
  138.9700   69.9216  222.6793 H   0  0  0  0  0  0  0  0  0  0  0  0
  138.7816   68.3379  224.5794 H   0  0  0  0  0  0  0  0  0  0  0  0
  139.2181   67.7616  226.8480 H   0  0  0  0  0  0  0  0  0  0  0  0
  140.2143   68.3723  229.0439 H   0  0  0  0  0  0  0  0  0  0  0  0
  141.3682   70.5159  229.2855 H   0  0  0  0  0  0  0  0  0  0  0  0
  141.5849   72.1318  227.4257 H   0  0  0  0  0  0  0  0  0  0  0  0
  1  2  2  0
  2  3  1  0
  3  4  1  0
  4  5  1  0
  5  6  2  0
  5  7  1  0
  7  8  1  0
  8  9  1  0
  9 10  1  0
 10 11  1  0
 11 12  1  0
 12 13  1  0
 13 14  2  0
 14 15  1  0
 15 16  2  0
 16 17  1  0
 17 18  2  0
  2 19  1  0
 19 20  2  0
 20 21  1  0
 21 22  2  0
 22 23  1  0
 23 24  2  0
 24 25  1  0
 25 26  2  0
 26 27  1  0
 27 28  2  0
 11  7  1  0
 18 13  1  0
 28 19  1  0
 27 22  1  0
  3 29  1  0
  4 30  1  0
  4 31  1  0
  8 32  1  0
  8 33  1  0
  9 34  1  0
  9 35  1  0
 10 36  1  0
 10 37  1  0
 11 38  1  6
 12 39  1  0
 12 40  1  0
 14 41  1  0
 15 42  1  0
 16 43  1  0
 17 44  1  0
 20 45  1  0
 21 46  1  0
 23 47  1  0
 24 48  1  0
 25 49  1  0
 26 50  1  0
M  END
>  <smiles>  (19) 
O=C(NCC(=O)N1CCCC1Cc1ccccn1)c1ccc2ccccc2n1

>  <score_type>  (19) 
oracle

>  <origin>  (19) 
autodockgpu

>  <m_score__min__energy>  (19) 
-8.8499999999999996

>  <m_primary>  (19) 
energy

>  <rmsd>  (19) 
1.858851733016738

>  <m_score__min__rmsd>  (19) 
1.858851733016738

>  <meeko>  (19) 
{"free_energy": -8.85, "intermolecular_energy": -10.64, "internal_energy": -1.35, "cluster_size": 18, "cluster_id": 1, "rank_in_cluster": 1}

>  <energy>  (19) 
-8.73

>  <cluster_rmsd>  (19) 
0.0

>  <cluster>  (19) 
2

$$$$

     RDKit          3D

 50 53  0  0  0  0  0  0  0  0999 V2000
  140.1020   70.9950  221.3910 O   0  0  0  0  0  0  0  0  0  0  0  0
  139.8470   71.5800  222.4800 C   0  0  0  0  0  0  0  0  0  0  0  0
  139.4880   72.9680  222.4690 N   0  0  0  0  0  0  0  0  0  0  0  0
  139.4050   73.7700  221.2940 C   0  0  0  0  0  0  0  0  0  0  0  0
  140.1890   75.0050  221.2730 C   0  0  0  0  0  0  0  0  0  0  0  0
  140.0280   75.7140  222.3620 O   0  0  0  0  0  0  0  0  0  0  0  0
  141.0560   75.5360  220.3310 N   0  0  0  0  0  0  0  0  0  0  0  0
  142.1180   74.9130  219.5170 C   0  0  0  0  0  0  0  0  0  0  0  0
  143.0790   76.0250  219.1260 C   0  0  0  0  0  0  0  0  0  0  0  0
  142.6380   77.1250  220.0520 C   0  0  0  0  0  0  0  0  0  0  0  0
  141.1170   76.9260  219.9300 C   0  0  2  0  0  0  0  0  0  0  0  0
  140.3980   77.9340  220.6980 C   0  0  0  0  0  0  0  0  0  0  0  0
  141.1560   78.7500  221.6510 C   0  0  0  0  0  0  0  0  0  0  0  0
  141.1480   78.3100  222.9860 C   0  0  0  0  0  0  0  0  0  0  0  0
  141.8290   79.0110  223.9470 C   0  0  0  0  0  0  0  0  0  0  0  0
  142.5340   80.1530  223.6470 C   0  0  0  0  0  0  0  0  0  0  0  0
  142.5270   80.5640  222.3300 C   0  0  0  0  0  0  0  0  0  0  0  0
  141.8510   79.8580  221.4140 N   0  0  0  0  0  0  0  0  0  0  0  0
  139.9220   70.8360  223.7530 C   0  0  0  0  0  0  0  0  0  0  0  0
  139.4770   69.5400  223.7920 C   0  0  0  0  0  0  0  0  0  0  0  0
  139.5420   68.8370  224.9730 C   0  0  0  0  0  0  0  0  0  0  0  0
  140.0520   69.4370  226.1080 C   0  0  0  0  0  0  0  0  0  0  0  0
  140.1070   68.7080  227.2860 C   0  0  0  0  0  0  0  0  0  0  0  0
  140.6120   69.3160  228.3970 C   0  0  0  0  0  0  0  0  0  0  0  0
  141.0450   70.6140  228.3060 C   0  0  0  0  0  0  0  0  0  0  0  0
  141.0020   71.3610  227.1480 C   0  0  0  0  0  0  0  0  0  0  0  0
  140.4850   70.7360  226.0230 C   0  0  0  0  0  0  0  0  0  0  0  0
  140.4170   71.4140  224.8630 N   0  0  0  0  0  0  0  0  0  0  0  0
  139.2820   73.3640  223.4360 H   0  0  0  0  0  0  0  0  0  0  0  0
  139.7375   73.1520  220.4469 H   0  0  0  0  0  0  0  0  0  0  0  0
  138.3561   74.0981  221.2471 H   0  0  0  0  0  0  0  0  0  0  0  0
  142.6446   74.1460  220.1039 H   0  0  0  0  0  0  0  0  0  0  0  0
  141.6974   74.4227  218.6267 H   0  0  0  0  0  0  0  0  0  0  0  0
  144.1249   75.7379  219.3093 H   0  0  0  0  0  0  0  0  0  0  0  0
  143.0526   76.2926  218.0594 H   0  0  0  0  0  0  0  0  0  0  0  0
  142.9956   76.9697  221.0806 H   0  0  0  0  0  0  0  0  0  0  0  0
  143.0099   78.1317  219.8107 H   0  0  0  0  0  0  0  0  0  0  0  0
  140.6201   77.0784  218.9605 H   0  0  0  0  0  0  0  0  0  0  0  0
  139.9324   78.6224  219.9773 H   0  0  0  0  0  0  0  0  0  0  0  0
  139.7049   77.3550  221.3260 H   0  0  0  0  0  0  0  0  0  0  0  0
  140.5936   77.4004  223.2603 H   0  0  0  0  0  0  0  0  0  0  0  0
  141.8111   78.6504  224.9861 H   0  0  0  0  0  0  0  0  0  0  0  0
  143.0785   80.7131  224.4215 H   0  0  0  0  0  0  0  0  0  0  0  0
  143.0756   81.4699  222.0326 H   0  0  0  0  0  0  0  0  0  0  0  0
  139.0711   69.0658  222.8863 H   0  0  0  0  0  0  0  0  0  0  0  0
  139.1876   67.7964  225.0134 H   0  0  0  0  0  0  0  0  0  0  0  0
  139.7528   67.6673  227.3233 H   0  0  0  0  0  0  0  0  0  0  0  0
  140.6712   68.7735  229.3521 H   0  0  0  0  0  0  0  0  0  0  0  0
  141.4512   71.0879  229.2118 H   0  0  0  0  0  0  0  0  0  0  0  0
  141.3599   72.4007  227.1179 H   0  0  0  0  0  0  0  0  0  0  0  0
  1  2  2  0
  2  3  1  0
  3  4  1  0
  4  5  1  0
  5  6  2  0
  5  7  1  0
  7  8  1  0
  8  9  1  0
  9 10  1  0
 10 11  1  0
 11 12  1  0
 12 13  1  0
 13 14  2  0
 14 15  1  0
 15 16  2  0
 16 17  1  0
 17 18  2  0
  2 19  1  0
 19 20  2  0
 20 21  1  0
 21 22  2  0
 22 23  1  0
 23 24  2  0
 24 25  1  0
 25 26  2  0
 26 27  1  0
 27 28  2  0
 11  7  1  0
 18 13  1  0
 28 19  1  0
 27 22  1  0
  3 29  1  0
  4 30  1  0
  4 31  1  0
  8 32  1  0
  8 33  1  0
  9 34  1  0
  9 35  1  0
 10 36  1  0
 10 37  1  0
 11 38  1  6
 12 39  1  0
 12 40  1  0
 14 41  1  0
 15 42  1  0
 16 43  1  0
 17 44  1  0
 20 45  1  0
 21 46  1  0
 23 47  1  0
 24 48  1  0
 25 49  1  0
 26 50  1  0
M  END
>  <smiles>  (20) 
O=C(NCC(=O)N1CCCC1Cc1ccccn1)c1ccc2ccccc2n1

>  <score_type>  (20) 
oracle

>  <origin>  (20) 
autodockgpu

>  <m_score__min__energy>  (20) 
-8.8499999999999996

>  <m_primary>  (20) 
energy

>  <rmsd>  (20) 
1.8313547351914532

>  <m_score__min__rmsd>  (20) 
1.8313547351914532

>  <meeko>  (20) 
{"free_energy": -8.82, "intermolecular_energy": -10.61, "internal_energy": -1.46, "cluster_size": 18, "cluster_id": 1, "rank_in_cluster": 4}

>  <energy>  (20) 
-8.54

>  <cluster_rmsd>  (20) 
1.2

>  <cluster>  (20) 
2

$$$$

     RDKit          3D

 50 53  0  0  0  0  0  0  0  0999 V2000
  137.3690   76.2950  222.1930 O   0  0  0  0  0  0  0  0  0  0  0  0
  138.6190   76.3540  222.3530 C   0  0  0  0  0  0  0  0  0  0  0  0
  139.4100   75.1710  222.1830 N   0  0  0  0  0  0  0  0  0  0  0  0
  138.8830   73.8900  221.8490 C   0  0  0  0  0  0  0  0  0  0  0  0
  139.6190   72.7190  222.3300 C   0  0  0  0  0  0  0  0  0  0  0  0
  140.8610   73.0040  222.6290 O   0  0  0  0  0  0  0  0  0  0  0  0
  139.2370   71.4020  222.5260 N   0  0  0  0  0  0  0  0  0  0  0  0
  138.2950   70.5360  221.7920 C   0  0  0  0  0  0  0  0  0  0  0  0
  137.8560   69.4470  222.7590 C   0  0  0  0  0  0  0  0  0  0  0  0
  138.3450   70.0100  224.0650 C   0  0  0  0  0  0  0  0  0  0  0  0
  139.7090   70.5370  223.5870 C   0  0  2  0  0  0  0  0  0  0  0  0
  140.4670   71.0990  224.6980 C   0  0  0  0  0  0  0  0  0  0  0  0
  140.4060   70.4180  225.9930 C   0  0  0  0  0  0  0  0  0  0  0  0
  140.8280   69.0770  226.0080 C   0  0  0  0  0  0  0  0  0  0  0  0
  140.8060   68.3600  227.1760 C   0  0  0  0  0  0  0  0  0  0  0  0
  140.3770   68.9150  228.3590 C   0  0  0  0  0  0  0  0  0  0  0  0
  139.9680   70.2320  228.3190 C   0  0  0  0  0  0  0  0  0  0  0  0
  140.0010   70.9060  227.1610 N   0  0  0  0  0  0  0  0  0  0  0  0
  139.2580   77.6360  222.7170 C   0  0  0  0  0  0  0  0  0  0  0  0
  138.4640   78.7010  223.0520 C   0  0  0  0  0  0  0  0  0  0  0  0
  139.0470   79.9000  223.3920 C   0  0  0  0  0  0  0  0  0  0  0  0
  140.4230   80.0240  223.3930 C   0  0  0  0  0  0  0  0  0  0  0  0
  140.9880   81.2420  223.7390 C   0  0  0  0  0  0  0  0  0  0  0  0
  142.3470   81.3470  223.7340 C   0  0  0  0  0  0  0  0  0  0  0  0
  143.0970   80.2510  223.3910 C   0  0  0  0  0  0  0  0  0  0  0  0
  142.5620   79.0290  223.0430 C   0  0  0  0  0  0  0  0  0  0  0  0
  141.1790   78.9310  223.0500 C   0  0  0  0  0  0  0  0  0  0  0  0
  140.5980   77.7640  222.7190 N   0  0  0  0  0  0  0  0  0  0  0  0
  140.4540   75.3290  222.3290 H   0  0  0  0  0  0  0  0  0  0  0  0
  137.8646   73.8332  222.2608 H   0  0  0  0  0  0  0  0  0  0  0  0
  138.9454   73.8341  220.7522 H   0  0  0  0  0  0  0  0  0  0  0  0
  137.4245   71.1201  221.4586 H   0  0  0  0  0  0  0  0  0  0  0  0
  138.7698   70.1035  220.8990 H   0  0  0  0  0  0  0  0  0  0  0  0
  136.7632   69.3213  222.7570 H   0  0  0  0  0  0  0  0  0  0  0  0
  138.2455   68.4459  222.5222 H   0  0  0  0  0  0  0  0  0  0  0  0
  137.6963   70.8163  224.4380 H   0  0  0  0  0  0  0  0  0  0  0  0
  138.3734   69.3053  224.9092 H   0  0  0  0  0  0  0  0  0  0  0  0
  140.4688   69.8345  223.2138 H   0  0  0  0  0  0  0  0  0  0  0  0
  141.5234   71.1241  224.3923 H   0  0  0  0  0  0  0  0  0  0  0  0
  139.9964   72.0761  224.8819 H   0  0  0  0  0  0  0  0  0  0  0  0
  141.1770   68.6017  225.0794 H   0  0  0  0  0  0  0  0  0  0  0  0
  141.1406   67.3122  227.1669 H   0  0  0  0  0  0  0  0  0  0  0  0
  140.3607   68.3356  229.2939 H   0  0  0  0  0  0  0  0  0  0  0  0
  139.6156   70.7278  229.2355 H   0  0  0  0  0  0  0  0  0  0  0  0
  137.3688   78.5983  223.0492 H   0  0  0  0  0  0  0  0  0  0  0  0
  138.4173   80.7602  223.6631 H   0  0  0  0  0  0  0  0  0  0  0  0
  140.3563   82.1007  224.0103 H   0  0  0  0  0  0  0  0  0  0  0  0
  142.8348   82.2961  224.0009 H   0  0  0  0  0  0  0  0  0  0  0  0
  144.1922   80.3533  223.3938 H   0  0  0  0  0  0  0  0  0  0  0  0
  143.2003   78.1747  222.7733 H   0  0  0  0  0  0  0  0  0  0  0  0
  1  2  2  0
  2  3  1  0
  3  4  1  0
  4  5  1  0
  5  6  2  0
  5  7  1  0
  7  8  1  0
  8  9  1  0
  9 10  1  0
 10 11  1  0
 11 12  1  0
 12 13  1  0
 13 14  2  0
 14 15  1  0
 15 16  2  0
 16 17  1  0
 17 18  2  0
  2 19  1  0
 19 20  2  0
 20 21  1  0
 21 22  2  0
 22 23  1  0
 23 24  2  0
 24 25  1  0
 25 26  2  0
 26 27  1  0
 27 28  2  0
 11  7  1  0
 18 13  1  0
 28 19  1  0
 27 22  1  0
  3 29  1  0
  4 30  1  0
  4 31  1  0
  8 32  1  0
  8 33  1  0
  9 34  1  0
  9 35  1  0
 10 36  1  0
 10 37  1  0
 11 38  1  6
 12 39  1  0
 12 40  1  0
 14 41  1  0
 15 42  1  0
 16 43  1  0
 17 44  1  0
 20 45  1  0
 21 46  1  0
 23 47  1  0
 24 48  1  0
 25 49  1  0
 26 50  1  0
M  END
>  <smiles>  (21) 
O=C(NCC(=O)N1CCCC1Cc1ccccn1)c1ccc2ccccc2n1

>  <score_type>  (21) 
oracle

>  <origin>  (21) 
autodockgpu

>  <m_score__min__energy>  (21) 
-8.8499999999999996

>  <m_primary>  (21) 
energy

>  <rmsd>  (21) 
8.42593295337534

>  <m_score__min__rmsd>  (21) 
8.42593295337534

>  <meeko>  (21) 
{"free_energy": -8.37, "intermolecular_energy": -10.16, "internal_energy": -1.75, "cluster_size": 11, "cluster_id": 2, "rank_in_cluster": 5}

>  <energy>  (21) 
-8.45

>  <cluster_rmsd>  (21) 
1.21

>  <cluster>  (21) 
2

$$$$

     RDKit          3D

 50 53  0  0  0  0  0  0  0  0999 V2000
  138.9850   71.1560  221.3680 O   0  0  0  0  0  0  0  0  0  0  0  0
  139.5910   71.7040  222.3300 C   0  0  0  0  0  0  0  0  0  0  0  0
  140.1730   73.0020  222.1510 N   0  0  0  0  0  0  0  0  0  0  0  0
  140.1320   73.7430  220.9340 C   0  0  0  0  0  0  0  0  0  0  0  0
  140.8630   75.0110  220.9010 C   0  0  0  0  0  0  0  0  0  0  0  0
  141.4400   75.2810  222.0450 O   0  0  0  0  0  0  0  0  0  0  0  0
  141.0520   75.9440  219.8950 N   0  0  0  0  0  0  0  0  0  0  0  0
  141.7710   75.8660  218.6090 C   0  0  0  0  0  0  0  0  0  0  0  0
  142.1290   77.2920  218.2190 C   0  0  0  0  0  0  0  0  0  0  0  0
  141.8650   78.0170  219.5100 C   0  0  0  0  0  0  0  0  0  0  0  0
  140.5590   77.3060  219.9050 C   0  0  2  0  0  0  0  0  0  0  0  0
  140.0120   77.8700  221.1330 C   0  0  0  0  0  0  0  0  0  0  0  0
  140.8450   78.7990  221.9000 C   0  0  0  0  0  0  0  0  0  0  0  0
  141.3850   78.3000  223.0990 C   0  0  0  0  0  0  0  0  0  0  0  0
  142.1770   79.0980  223.8830 C   0  0  0  0  0  0  0  0  0  0  0  0
  142.4680   80.3970  223.5330 C   0  0  0  0  0  0  0  0  0  0  0  0
  141.9270   80.8620  222.3520 C   0  0  0  0  0  0  0  0  0  0  0  0
  141.1560   80.0580  221.6090 N   0  0  0  0  0  0  0  0  0  0  0  0
  139.6990   71.0070  223.6280 C   0  0  0  0  0  0  0  0  0  0  0  0
  139.1910   69.7400  223.7450 C   0  0  0  0  0  0  0  0  0  0  0  0
  139.2860   69.0810  224.9490 C   0  0  0  0  0  0  0  0  0  0  0  0
  139.8890   69.6970  226.0290 C   0  0  0  0  0  0  0  0  0  0  0  0
  139.9720   69.0130  227.2320 C   0  0  0  0  0  0  0  0  0  0  0  0
  140.5690   69.6370  228.2880 C   0  0  0  0  0  0  0  0  0  0  0  0
  141.0610   70.9050  228.1190 C   0  0  0  0  0  0  0  0  0  0  0  0
  140.9920   71.6080  226.9340 C   0  0  0  0  0  0  0  0  0  0  0  0
  140.3820   70.9670  225.8660 C   0  0  0  0  0  0  0  0  0  0  0  0
  140.2840   71.6010  224.6840 N   0  0  0  0  0  0  0  0  0  0  0  0
  140.6500   73.3810  223.0250 H   0  0  0  0  0  0  0  0  0  0  0  0
  140.5448   73.1017  220.1414 H   0  0  0  0  0  0  0  0  0  0  0  0
  139.0753   74.0199  220.8046 H   0  0  0  0  0  0  0  0  0  0  0  0
  142.6844   75.2635  218.7216 H   0  0  0  0  0  0  0  0  0  0  0  0
  141.1487   75.3898  217.8369 H   0  0  0  0  0  0  0  0  0  0  0  0
  143.1834   77.3757  217.9169 H   0  0  0  0  0  0  0  0  0  0  0  0
  141.5672   77.6812  217.3571 H   0  0  0  0  0  0  0  0  0  0  0  0
  142.6648   77.8553  220.2476 H   0  0  0  0  0  0  0  0  0  0  0  0
  141.8109   79.1135  219.4407 H   0  0  0  0  0  0  0  0  0  0  0  0
  139.6662   77.4061  219.2703 H   0  0  0  0  0  0  0  0  0  0  0  0
  139.0899   78.4056  220.8632 H   0  0  0  0  0  0  0  0  0  0  0  0
  139.8873   77.0032  221.7986 H   0  0  0  0  0  0  0  0  0  0  0  0
  141.1711   77.2663  223.4084 H   0  0  0  0  0  0  0  0  0  0  0  0
  142.5910   78.6895  224.8166 H   0  0  0  0  0  0  0  0  0  0  0  0
  143.1026   81.0350  224.1657 H   0  0  0  0  0  0  0  0  0  0  0  0
  142.1287   81.8916  222.0214 H   0  0  0  0  0  0  0  0  0  0  0  0
  138.7110   69.2535  222.8831 H   0  0  0  0  0  0  0  0  0  0  0  0
  138.8817   68.0632  225.0520 H   0  0  0  0  0  0  0  0  0  0  0  0
  139.5675   67.9950  227.3323 H   0  0  0  0  0  0  0  0  0  0  0  0
  140.6542   69.1301  229.2605 H   0  0  0  0  0  0  0  0  0  0  0  0
  141.5403   71.3920  228.9811 H   0  0  0  0  0  0  0  0  0  0  0  0
  141.4001   72.6253  226.8409 H   0  0  0  0  0  0  0  0  0  0  0  0
  1  2  2  0
  2  3  1  0
  3  4  1  0
  4  5  1  0
  5  6  2  0
  5  7  1  0
  7  8  1  0
  8  9  1  0
  9 10  1  0
 10 11  1  0
 11 12  1  0
 12 13  1  0
 13 14  2  0
 14 15  1  0
 15 16  2  0
 16 17  1  0
 17 18  2  0
  2 19  1  0
 19 20  2  0
 20 21  1  0
 21 22  2  0
 22 23  1  0
 23 24  2  0
 24 25  1  0
 25 26  2  0
 26 27  1  0
 27 28  2  0
 11  7  1  0
 18 13  1  0
 28 19  1  0
 27 22  1  0
  3 29  1  0
  4 30  1  0
  4 31  1  0
  8 32  1  0
  8 33  1  0
  9 34  1  0
  9 35  1  0
 10 36  1  0
 10 37  1  0
 11 38  1  6
 12 39  1  0
 12 40  1  0
 14 41  1  0
 15 42  1  0
 16 43  1  0
 17 44  1  0
 20 45  1  0
 21 46  1  0
 23 47  1  0
 24 48  1  0
 25 49  1  0
 26 50  1  0
M  END
>  <smiles>  (22) 
O=C(NCC(=O)N1CCCC1Cc1ccccn1)c1ccc2ccccc2n1

>  <score_type>  (22) 
oracle

>  <origin>  (22) 
autodockgpu

>  <m_score__min__energy>  (22) 
-8.8499999999999996

>  <m_primary>  (22) 
energy

>  <rmsd>  (22) 
1.7118958034026042

>  <m_score__min__rmsd>  (22) 
1.7118958034026042

>  <meeko>  (22) 
{"free_energy": -7.85, "intermolecular_energy": -9.64, "internal_energy": -2.03, "cluster_size": 18, "cluster_id": 1, "rank_in_cluster": 18}

>  <energy>  (22) 
-8.39

>  <cluster_rmsd>  (22) 
1.1

>  <cluster>  (22) 
2

$$$$

     RDKit          3D

 50 53  0  0  0  0  0  0  0  0999 V2000
  140.0850   71.2490  221.2920 O   0  0  0  0  0  0  0  0  0  0  0  0
  139.9330   71.8900  222.3680 C   0  0  0  0  0  0  0  0  0  0  0  0
  139.7440   73.3100  222.3250 N   0  0  0  0  0  0  0  0  0  0  0  0
  139.7260   74.0850  221.1290 C   0  0  0  0  0  0  0  0  0  0  0  0
  140.4860   75.3350  221.1330 C   0  0  0  0  0  0  0  0  0  0  0  0
  140.7110   75.7750  222.3450 O   0  0  0  0  0  0  0  0  0  0  0  0
  141.0020   76.1080  220.1050 N   0  0  0  0  0  0  0  0  0  0  0  0
  141.9200   75.7790  218.9980 C   0  0  0  0  0  0  0  0  0  0  0  0
  142.5670   77.0850  218.5620 C   0  0  0  0  0  0  0  0  0  0  0  0
  142.1940   77.9860  219.7060 C   0  0  0  0  0  0  0  0  0  0  0  0
  140.7410   77.5180  219.8970 C   0  0  2  0  0  0  0  0  0  0  0  0
  140.0780   78.2930  220.9380 C   0  0  0  0  0  0  0  0  0  0  0  0
  140.9120   78.9800  221.9280 C   0  0  0  0  0  0  0  0  0  0  0  0
  141.2020   80.3300  221.6640 C   0  0  0  0  0  0  0  0  0  0  0  0
  141.9750   81.0520  222.5340 C   0  0  0  0  0  0  0  0  0  0  0  0
  142.4900   80.4930  223.6810 C   0  0  0  0  0  0  0  0  0  0  0  0
  142.1910   79.1670  223.9190 C   0  0  0  0  0  0  0  0  0  0  0  0
  141.4330   78.4880  223.0480 N   0  0  0  0  0  0  0  0  0  0  0  0
  139.9530   71.1760  223.6620 C   0  0  0  0  0  0  0  0  0  0  0  0
  139.4740   69.8940  223.7190 C   0  0  0  0  0  0  0  0  0  0  0  0
  139.4870   69.2180  224.9180 C   0  0  0  0  0  0  0  0  0  0  0  0
  139.9790   69.8340  226.0520 C   0  0  0  0  0  0  0  0  0  0  0  0
  139.9820   69.1350  227.2490 C   0  0  0  0  0  0  0  0  0  0  0  0
  140.4710   69.7570  228.3590 C   0  0  0  0  0  0  0  0  0  0  0  0
  140.9380   71.0420  228.2490 C   0  0  0  0  0  0  0  0  0  0  0  0
  140.9470   71.7610  227.0720 C   0  0  0  0  0  0  0  0  0  0  0  0
  140.4470   71.1200  225.9490 C   0  0  0  0  0  0  0  0  0  0  0  0
  140.4300   71.7700  224.7710 N   0  0  0  0  0  0  0  0  0  0  0  0
  139.6140   73.7540  223.2850 H   0  0  0  0  0  0  0  0  0  0  0  0
  140.1271   73.4560  220.3206 H   0  0  0  0  0  0  0  0  0  0  0  0
  138.6767   74.3905  221.0038 H   0  0  0  0  0  0  0  0  0  0  0  0
  142.6890   75.0713  219.3412 H   0  0  0  0  0  0  0  0  0  0  0  0
  141.3799   75.3078  218.1636 H   0  0  0  0  0  0  0  0  0  0  0  0
  143.6582   76.9833  218.4671 H   0  0  0  0  0  0  0  0  0  0  0  0
  142.2402   77.4457  217.5756 H   0  0  0  0  0  0  0  0  0  0  0  0
  142.8103   77.8006  220.5981 H   0  0  0  0  0  0  0  0  0  0  0  0
  142.3308   79.0633  219.5310 H   0  0  0  0  0  0  0  0  0  0  0  0
  140.0064   77.6684  219.0922 H   0  0  0  0  0  0  0  0  0  0  0  0
  139.4694   79.0596  220.4361 H   0  0  0  0  0  0  0  0  0  0  0  0
  139.5224   77.5448  221.5223 H   0  0  0  0  0  0  0  0  0  0  0  0
  140.8067   80.8081  220.7556 H   0  0  0  0  0  0  0  0  0  0  0  0
  142.1900   82.1072  222.3098 H   0  0  0  0  0  0  0  0  0  0  0  0
  143.1115   81.0763  224.3763 H   0  0  0  0  0  0  0  0  0  0  0  0
  142.5742   78.6688  224.8218 H   0  0  0  0  0  0  0  0  0  0  0  0
  139.0818   69.4083  222.8133 H   0  0  0  0  0  0  0  0  0  0  0  0
  139.1057   68.1877  224.9729 H   0  0  0  0  0  0  0  0  0  0  0  0
  139.5996   68.1049  227.3018 H   0  0  0  0  0  0  0  0  0  0  0  0
  140.4908   69.2365  229.3279 H   0  0  0  0  0  0  0  0  0  0  0  0
  141.3292   71.5287  229.1546 H   0  0  0  0  0  0  0  0  0  0  0  0
  141.3314   72.7907  227.0267 H   0  0  0  0  0  0  0  0  0  0  0  0
  1  2  2  0
  2  3  1  0
  3  4  1  0
  4  5  1  0
  5  6  2  0
  5  7  1  0
  7  8  1  0
  8  9  1  0
  9 10  1  0
 10 11  1  0
 11 12  1  0
 12 13  1  0
 13 14  2  0
 14 15  1  0
 15 16  2  0
 16 17  1  0
 17 18  2  0
  2 19  1  0
 19 20  2  0
 20 21  1  0
 21 22  2  0
 22 23  1  0
 23 24  2  0
 24 25  1  0
 25 26  2  0
 26 27  1  0
 27 28  2  0
 11  7  1  0
 18 13  1  0
 28 19  1  0
 27 22  1  0
  3 29  1  0
  4 30  1  0
  4 31  1  0
  8 32  1  0
  8 33  1  0
  9 34  1  0
  9 35  1  0
 10 36  1  0
 10 37  1  0
 11 38  1  6
 12 39  1  0
 12 40  1  0
 14 41  1  0
 15 42  1  0
 16 43  1  0
 17 44  1  0
 20 45  1  0
 21 46  1  0
 23 47  1  0
 24 48  1  0
 25 49  1  0
 26 50  1  0
M  END
>  <smiles>  (23) 
O=C(NCC(=O)N1CCCC1Cc1ccccn1)c1ccc2ccccc2n1

>  <score_type>  (23) 
oracle

>  <origin>  (23) 
autodockgpu

>  <m_score__min__energy>  (23) 
-8.8499999999999996

>  <m_primary>  (23) 
energy

>  <rmsd>  (23) 
1.789313258064809

>  <m_score__min__rmsd>  (23) 
1.789313258064809

>  <meeko>  (23) 
{"free_energy": -8.61, "intermolecular_energy": -10.4, "internal_energy": -1.64, "cluster_size": 18, "cluster_id": 1, "rank_in_cluster": 12}

>  <energy>  (23) 
-8.37

>  <cluster_rmsd>  (23) 
1.25

>  <cluster>  (23) 
2

$$$$

     RDKit          3D

 50 53  0  0  0  0  0  0  0  0999 V2000
  137.4330   76.0600  222.3500 O   0  0  0  0  0  0  0  0  0  0  0  0
  138.6850   76.2120  222.3460 C   0  0  0  0  0  0  0  0  0  0  0  0
  139.5300   75.1090  221.9910 N   0  0  0  0  0  0  0  0  0  0  0  0
  139.0560   73.8100  221.6430 C   0  0  0  0  0  0  0  0  0  0  0  0
  139.8820   72.6710  222.0450 C   0  0  0  0  0  0  0  0  0  0  0  0
  141.1010   73.0290  222.3630 O   0  0  0  0  0  0  0  0  0  0  0  0
  139.6040   71.3180  222.1520 N   0  0  0  0  0  0  0  0  0  0  0  0
  139.2690   70.3040  221.1340 C   0  0  0  0  0  0  0  0  0  0  0  0
  138.5240   69.1890  221.8530 C   0  0  0  0  0  0  0  0  0  0  0  0
  138.2160   69.8530  223.1670 C   0  0  0  0  0  0  0  0  0  0  0  0
  139.5650   70.5600  223.3850 C   0  0  2  0  0  0  0  0  0  0  0  0
  139.5840   71.2570  224.6650 C   0  0  0  0  0  0  0  0  0  0  0  0
  140.0650   70.5300  225.8430 C   0  0  0  0  0  0  0  0  0  0  0  0
  140.6240   71.3130  226.8680 C   0  0  0  0  0  0  0  0  0  0  0  0
  141.1000   70.7190  228.0080 C   0  0  0  0  0  0  0  0  0  0  0  0
  141.0500   69.3560  228.1890 C   0  0  0  0  0  0  0  0  0  0  0  0
  140.4960   68.6100  227.1690 C   0  0  0  0  0  0  0  0  0  0  0  0
  140.0400   69.2200  226.0680 N   0  0  0  0  0  0  0  0  0  0  0  0
  139.2720   77.5180  222.7070 C   0  0  0  0  0  0  0  0  0  0  0  0
  138.4360   78.5530  223.0380 C   0  0  0  0  0  0  0  0  0  0  0  0
  138.9710   79.7750  223.3770 C   0  0  0  0  0  0  0  0  0  0  0  0
  140.3400   79.9520  223.3790 C   0  0  0  0  0  0  0  0  0  0  0  0
  140.8560   81.1920  223.7230 C   0  0  0  0  0  0  0  0  0  0  0  0
  142.2100   81.3510  223.7200 C   0  0  0  0  0  0  0  0  0  0  0  0
  143.0030   80.2850  223.3810 C   0  0  0  0  0  0  0  0  0  0  0  0
  142.5170   79.0420  223.0350 C   0  0  0  0  0  0  0  0  0  0  0  0
  141.1390   78.8900  223.0390 C   0  0  0  0  0  0  0  0  0  0  0  0
  140.6050   77.6990  222.7110 N   0  0  0  0  0  0  0  0  0  0  0  0
  140.5690   75.3440  222.0070 H   0  0  0  0  0  0  0  0  0  0  0  0
  138.0668   73.6825  222.1070 H   0  0  0  0  0  0  0  0  0  0  0  0
  139.0587   73.7904  220.5432 H   0  0  0  0  0  0  0  0  0  0  0  0
  138.6298   70.7458  220.3554 H   0  0  0  0  0  0  0  0  0  0  0  0
  140.1767   69.9208  220.6448 H   0  0  0  0  0  0  0  0  0  0  0  0
  137.6055   68.9060  221.3180 H   0  0  0  0  0  0  0  0  0  0  0  0
  139.0881   68.2487  221.9405 H   0  0  0  0  0  0  0  0  0  0  0  0
  137.3824   70.5661  223.0860 H   0  0  0  0  0  0  0  0  0  0  0  0
  137.8906   69.1833  223.9767 H   0  0  0  0  0  0  0  0  0  0  0  0
  140.4821   69.9658  223.5111 H   0  0  0  0  0  0  0  0  0  0  0  0
  140.2249   72.1428  224.5444 H   0  0  0  0  0  0  0  0  0  0  0  0
  138.5243   71.4565  224.8821 H   0  0  0  0  0  0  0  0  0  0  0  0
  140.6796   72.4058  226.7549 H   0  0  0  0  0  0  0  0  0  0  0  0
  141.5334   71.3487  228.7990 H   0  0  0  0  0  0  0  0  0  0  0  0
  141.4340   68.8828  229.1047 H   0  0  0  0  0  0  0  0  0  0  0  0
  140.4291   67.5158  227.2604 H   0  0  0  0  0  0  0  0  0  0  0  0
  137.3456   78.4078  223.0327 H   0  0  0  0  0  0  0  0  0  0  0  0
  138.3078   80.6103  223.6463 H   0  0  0  0  0  0  0  0  0  0  0  0
  140.1904   82.0256  223.9913 H   0  0  0  0  0  0  0  0  0  0  0  0
  142.6593   82.3193  223.9854 H   0  0  0  0  0  0  0  0  0  0  0  0
  144.0933   80.4304  223.3853 H   0  0  0  0  0  0  0  0  0  0  0  0
  143.1889   78.2126  222.7691 H   0  0  0  0  0  0  0  0  0  0  0  0
  1  2  2  0
  2  3  1  0
  3  4  1  0
  4  5  1  0
  5  6  2  0
  5  7  1  0
  7  8  1  0
  8  9  1  0
  9 10  1  0
 10 11  1  0
 11 12  1  0
 12 13  1  0
 13 14  2  0
 14 15  1  0
 15 16  2  0
 16 17  1  0
 17 18  2  0
  2 19  1  0
 19 20  2  0
 20 21  1  0
 21 22  2  0
 22 23  1  0
 23 24  2  0
 24 25  1  0
 25 26  2  0
 26 27  1  0
 27 28  2  0
 11  7  1  0
 18 13  1  0
 28 19  1  0
 27 22  1  0
  3 29  1  0
  4 30  1  0
  4 31  1  0
  8 32  1  0
  8 33  1  0
  9 34  1  0
  9 35  1  0
 10 36  1  0
 10 37  1  0
 11 38  1  1
 12 39  1  0
 12 40  1  0
 14 41  1  0
 15 42  1  0
 16 43  1  0
 17 44  1  0
 20 45  1  0
 21 46  1  0
 23 47  1  0
 24 48  1  0
 25 49  1  0
 26 50  1  0
M  END
>  <smiles>  (24) 
O=C(NCC(=O)N1CCCC1Cc1ccccn1)c1ccc2ccccc2n1

>  <score_type>  (24) 
oracle

>  <origin>  (24) 
autodockgpu

>  <m_score__min__energy>  (24) 
-8.8499999999999996

>  <m_primary>  (24) 
energy

>  <rmsd>  (24) 
8.29628783213679

>  <m_score__min__rmsd>  (24) 
8.29628783213679

>  <meeko>  (24) 
{"free_energy": -8.29, "intermolecular_energy": -10.08, "internal_energy": -1.78, "cluster_size": 11, "cluster_id": 2, "rank_in_cluster": 10}

>  <energy>  (24) 
-8.36

>  <cluster_rmsd>  (24) 
1.11

>  <cluster>  (24) 
2

$$$$

     RDKit          3D

 50 53  0  0  0  0  0  0  0  0999 V2000
  141.3690   72.3760  221.8930 O   0  0  0  0  0  0  0  0  0  0  0  0
  140.3340   72.4100  222.6120 C   0  0  0  0  0  0  0  0  0  0  0  0
  139.2840   73.3340  222.2980 N   0  0  0  0  0  0  0  0  0  0  0  0
  139.3210   74.2570  221.2120 C   0  0  0  0  0  0  0  0  0  0  0  0
  140.4610   75.1730  221.1540 C   0  0  0  0  0  0  0  0  0  0  0  0
  140.8780   75.5210  222.3460 O   0  0  0  0  0  0  0  0  0  0  0  0
  141.1610   75.7130  220.0880 N   0  0  0  0  0  0  0  0  0  0  0  0
  142.1570   75.1260  219.1720 C   0  0  0  0  0  0  0  0  0  0  0  0
  142.9750   76.2800  218.6150 C   0  0  0  0  0  0  0  0  0  0  0  0
  142.5710   77.3930  219.5430 C   0  0  0  0  0  0  0  0  0  0  0  0
  141.0660   77.0820  219.6240 C   0  0  2  0  0  0  0  0  0  0  0  0
  140.3740   78.0760  220.4360 C   0  0  0  0  0  0  0  0  0  0  0  0
  141.1510   78.8220  221.4290 C   0  0  0  0  0  0  0  0  0  0  0  0
  141.1020   78.3350  222.7470 C   0  0  0  0  0  0  0  0  0  0  0  0
  141.7970   78.9700  223.7430 C   0  0  0  0  0  0  0  0  0  0  0  0
  142.5570   80.0900  223.4950 C   0  0  0  0  0  0  0  0  0  0  0  0
  142.5890   80.5480  222.1940 C   0  0  0  0  0  0  0  0  0  0  0  0
  141.8980   79.9060  221.2430 N   0  0  0  0  0  0  0  0  0  0  0  0
  140.2100   71.5020  223.7710 C   0  0  0  0  0  0  0  0  0  0  0  0
  139.5870   70.2920  223.6030 C   0  0  0  0  0  0  0  0  0  0  0  0
  139.4660   69.4370  224.6740 C   0  0  0  0  0  0  0  0  0  0  0  0
  139.9690   69.8010  225.9080 C   0  0  0  0  0  0  0  0  0  0  0  0
  139.8350   68.9240  226.9740 C   0  0  0  0  0  0  0  0  0  0  0  0
  140.3350   69.2990  228.1850 C   0  0  0  0  0  0  0  0  0  0  0  0
  140.9490   70.5200  228.3010 C   0  0  0  0  0  0  0  0  0  0  0  0
  141.0960   71.4110  227.2590 C   0  0  0  0  0  0  0  0  0  0  0  0
  140.5830   71.0220  226.0310 C   0  0  0  0  0  0  0  0  0  0  0  0
  140.6960   71.8490  224.9760 N   0  0  0  0  0  0  0  0  0  0  0  0
  138.4500   73.2740  222.9580 H   0  0  0  0  0  0  0  0  0  0  0  0
  139.3178   73.6725  220.2801 H   0  0  0  0  0  0  0  0  0  0  0  0
  138.4434   74.9039  221.3583 H   0  0  0  0  0  0  0  0  0  0  0  0
  142.8091   74.4285  219.7182 H   0  0  0  0  0  0  0  0  0  0  0  0
  141.6668   74.5633  218.3638 H   0  0  0  0  0  0  0  0  0  0  0  0
  144.0543   76.0759  218.6749 H   0  0  0  0  0  0  0  0  0  0  0  0
  142.7959   76.4901  217.5502 H   0  0  0  0  0  0  0  0  0  0  0  0
  143.0642   77.3158  220.5232 H   0  0  0  0  0  0  0  0  0  0  0  0
  142.8332   78.4096  219.2147 H   0  0  0  0  0  0  0  0  0  0  0  0
  140.4424   77.1492  218.7203 H   0  0  0  0  0  0  0  0  0  0  0  0
  139.9343   78.8116  219.7464 H   0  0  0  0  0  0  0  0  0  0  0  0
  139.6597   77.4903  221.0332 H   0  0  0  0  0  0  0  0  0  0  0  0
  140.5040   77.4415  222.9795 H   0  0  0  0  0  0  0  0  0  0  0  0
  141.7459   78.5738  224.7679 H   0  0  0  0  0  0  0  0  0  0  0  0
  143.1135   80.5968  224.2972 H   0  0  0  0  0  0  0  0  0  0  0  0
  143.1811   81.4390  221.9381 H   0  0  0  0  0  0  0  0  0  0  0  0
  139.1868   70.0070  222.6188 H   0  0  0  0  0  0  0  0  0  0  0  0
  138.9689   68.4639  224.5477 H   0  0  0  0  0  0  0  0  0  0  0  0
  139.3381   67.9511  226.8454 H   0  0  0  0  0  0  0  0  0  0  0  0
  140.2475   68.6328  229.0559 H   0  0  0  0  0  0  0  0  0  0  0  0
  141.3485   70.8058  229.2852 H   0  0  0  0  0  0  0  0  0  0  0  0
  141.5952   72.3817  227.3951 H   0  0  0  0  0  0  0  0  0  0  0  0
  1  2  2  0
  2  3  1  0
  3  4  1  0
  4  5  1  0
  5  6  2  0
  5  7  1  0
  7  8  1  0
  8  9  1  0
  9 10  1  0
 10 11  1  0
 11 12  1  0
 12 13  1  0
 13 14  2  0
 14 15  1  0
 15 16  2  0
 16 17  1  0
 17 18  2  0
  2 19  1  0
 19 20  2  0
 20 21  1  0
 21 22  2  0
 22 23  1  0
 23 24  2  0
 24 25  1  0
 25 26  2  0
 26 27  1  0
 27 28  2  0
 11  7  1  0
 18 13  1  0
 28 19  1  0
 27 22  1  0
  3 29  1  0
  4 30  1  0
  4 31  1  0
  8 32  1  0
  8 33  1  0
  9 34  1  0
  9 35  1  0
 10 36  1  0
 10 37  1  0
 11 38  1  6
 12 39  1  0
 12 40  1  0
 14 41  1  0
 15 42  1  0
 16 43  1  0
 17 44  1  0
 20 45  1  0
 21 46  1  0
 23 47  1  0
 24 48  1  0
 25 49  1  0
 26 50  1  0
M  END
>  <smiles>  (25) 
O=C(NCC(=O)N1CCCC1Cc1ccccn1)c1ccc2ccccc2n1

>  <score_type>  (25) 
oracle

>  <origin>  (25) 
autodockgpu

>  <m_score__min__energy>  (25) 
-8.8499999999999996

>  <m_primary>  (25) 
energy

>  <rmsd>  (25) 
1.8733025165556494

>  <m_score__min__rmsd>  (25) 
1.8733025165556494

>  <meeko>  (25) 
{"free_energy": -8.84, "intermolecular_energy": -10.63, "internal_energy": -1.36, "cluster_size": 18, "cluster_id": 1, "rank_in_cluster": 2}

>  <energy>  (25) 
-8.34

>  <cluster_rmsd>  (25) 
1.27

>  <cluster>  (25) 
2

$$$$

     RDKit          3D

 50 53  0  0  0  0  0  0  0  0999 V2000
  138.0310   70.9300  221.9140 O   0  0  0  0  0  0  0  0  0  0  0  0
  138.7920   71.3810  222.8140 C   0  0  0  0  0  0  0  0  0  0  0  0
  139.3140   72.7100  222.6980 N   0  0  0  0  0  0  0  0  0  0  0  0
  139.0470   73.5890  221.6080 C   0  0  0  0  0  0  0  0  0  0  0  0
  139.9990   74.6770  221.3800 C   0  0  0  0  0  0  0  0  0  0  0  0
  141.1490   74.4620  221.9670 O   0  0  0  0  0  0  0  0  0  0  0  0
  139.9000   75.8590  220.6640 N   0  0  0  0  0  0  0  0  0  0  0  0
  139.5630   76.1230  219.2520 C   0  0  0  0  0  0  0  0  0  0  0  0
  140.1600   77.4780  218.9040 C   0  0  0  0  0  0  0  0  0  0  0  0
  141.0760   77.6970  220.0770 C   0  0  0  0  0  0  0  0  0  0  0  0
  140.1440   77.1870  221.1890 C   0  0  2  0  0  0  0  0  0  0  0  0
  140.7630   77.3450  222.4990 C   0  0  0  0  0  0  0  0  0  0  0  0
  141.1270   78.6960  222.9340 C   0  0  0  0  0  0  0  0  0  0  0  0
  142.4830   79.0430  222.8050 C   0  0  0  0  0  0  0  0  0  0  0  0
  142.9160   80.2860  223.1880 C   0  0  0  0  0  0  0  0  0  0  0  0
  142.0540   81.2260  223.7040 C   0  0  0  0  0  0  0  0  0  0  0  0
  140.7290   80.8610  223.8200 C   0  0  0  0  0  0  0  0  0  0  0  0
  140.3370   79.6390  223.4380 N   0  0  0  0  0  0  0  0  0  0  0  0
  139.1400   70.5380  223.9770 C   0  0  0  0  0  0  0  0  0  0  0  0
  138.8110   69.2080  223.9550 C   0  0  0  0  0  0  0  0  0  0  0  0
  139.1300   68.4130  225.0320 C   0  0  0  0  0  0  0  0  0  0  0  0
  139.7770   68.9580  226.1240 C   0  0  0  0  0  0  0  0  0  0  0  0
  140.0880   68.1370  227.1980 C   0  0  0  0  0  0  0  0  0  0  0  0
  140.7250   68.6910  228.2690 C   0  0  0  0  0  0  0  0  0  0  0  0
  141.0320   70.0270  228.2420 C   0  0  0  0  0  0  0  0  0  0  0  0
  140.7350   70.8650  227.1880 C   0  0  0  0  0  0  0  0  0  0  0  0
  140.0860   70.2940  226.1040 C   0  0  0  0  0  0  0  0  0  0  0  0
  139.7690   71.0610  225.0450 N   0  0  0  0  0  0  0  0  0  0  0  0
  139.9360   72.9990  223.5140 H   0  0  0  0  0  0  0  0  0  0  0  0
  139.0137   72.9806  220.6922 H   0  0  0  0  0  0  0  0  0  0  0  0
  138.1022   74.0879  221.8697 H   0  0  0  0  0  0  0  0  0  0  0  0
  139.9937   75.3426  218.6075 H   0  0  0  0  0  0  0  0  0  0  0  0
  138.4737   76.1204  219.0989 H   0  0  0  0  0  0  0  0  0  0  0  0
  140.7180   77.4425  217.9567 H   0  0  0  0  0  0  0  0  0  0  0  0
  139.4177   78.2756  218.7529 H   0  0  0  0  0  0  0  0  0  0  0  0
  141.9969   77.1002  220.0013 H   0  0  0  0  0  0  0  0  0  0  0  0
  141.4556   78.7217  220.2031 H   0  0  0  0  0  0  0  0  0  0  0  0
  139.1981   77.7099  221.3937 H   0  0  0  0  0  0  0  0  0  0  0  0
  140.0603   76.9411  223.2427 H   0  0  0  0  0  0  0  0  0  0  0  0
  141.7247   76.8183  222.4115 H   0  0  0  0  0  0  0  0  0  0  0  0
  143.1988   78.3150  222.3955 H   0  0  0  0  0  0  0  0  0  0  0  0
  143.9811   80.5386  223.0799 H   0  0  0  0  0  0  0  0  0  0  0  0
  142.4053   82.2225  224.0099 H   0  0  0  0  0  0  0  0  0  0  0  0
  139.9952   81.5729  224.2259 H   0  0  0  0  0  0  0  0  0  0  0  0
  138.2958   68.7790  223.0829 H   0  0  0  0  0  0  0  0  0  0  0  0
  138.8699   67.3442  225.0233 H   0  0  0  0  0  0  0  0  0  0  0  0
  139.8279   67.0683  227.1861 H   0  0  0  0  0  0  0  0  0  0  0  0
  140.9886   68.0752  229.1415 H   0  0  0  0  0  0  0  0  0  0  0  0
  141.5465   70.4565  229.1142 H   0  0  0  0  0  0  0  0  0  0  0  0
  140.9996   71.9325  227.2063 H   0  0  0  0  0  0  0  0  0  0  0  0
  1  2  2  0
  2  3  1  0
  3  4  1  0
  4  5  1  0
  5  6  2  0
  5  7  1  0
  7  8  1  0
  8  9  1  0
  9 10  1  0
 10 11  1  0
 11 12  1  0
 12 13  1  0
 13 14  2  0
 14 15  1  0
 15 16  2  0
 16 17  1  0
 17 18  2  0
  2 19  1  0
 19 20  2  0
 20 21  1  0
 21 22  2  0
 22 23  1  0
 23 24  2  0
 24 25  1  0
 25 26  2  0
 26 27  1  0
 27 28  2  0
 11  7  1  0
 18 13  1  0
 28 19  1  0
 27 22  1  0
  3 29  1  0
  4 30  1  0
  4 31  1  0
  8 32  1  0
  8 33  1  0
  9 34  1  0
  9 35  1  0
 10 36  1  0
 10 37  1  0
 11 38  1  1
 12 39  1  0
 12 40  1  0
 14 41  1  0
 15 42  1  0
 16 43  1  0
 17 44  1  0
 20 45  1  0
 21 46  1  0
 23 47  1  0
 24 48  1  0
 25 49  1  0
 26 50  1  0
M  END
>  <smiles>  (26) 
O=C(NCC(=O)N1CCCC1Cc1ccccn1)c1ccc2ccccc2n1

>  <score_type>  (26) 
oracle

>  <origin>  (26) 
autodockgpu

>  <m_score__min__energy>  (26) 
-8.8499999999999996

>  <m_primary>  (26) 
energy

>  <rmsd>  (26) 
1.3525556660776172

>  <m_score__min__rmsd>  (26) 
1.3525556660776172

>  <meeko>  (26) 
{"free_energy": -8.45, "intermolecular_energy": -10.24, "internal_energy": -1.67, "cluster_size": 18, "cluster_id": 1, "rank_in_cluster": 14}

>  <energy>  (26) 
-8.34

>  <cluster_rmsd>  (26) 
1.33

>  <cluster>  (26) 
2

$$$$

     RDKit          3D

 50 53  0  0  0  0  0  0  0  0999 V2000
  139.1390   74.9150  222.1060 O   0  0  0  0  0  0  0  0  0  0  0  0
  140.2230   75.5510  222.0020 C   0  0  0  0  0  0  0  0  0  0  0  0
  141.3910   74.8820  221.5110 N   0  0  0  0  0  0  0  0  0  0  0  0
  141.4340   73.5080  221.1320 C   0  0  0  0  0  0  0  0  0  0  0  0
  142.0600   73.1900  219.8480 C   0  0  0  0  0  0  0  0  0  0  0  0
  141.1890   73.1350  218.8720 O   0  0  0  0  0  0  0  0  0  0  0  0
  143.3780   72.9530  219.4940 N   0  0  0  0  0  0  0  0  0  0  0  0
  144.0690   71.7240  219.0600 C   0  0  0  0  0  0  0  0  0  0  0  0
  145.5460   71.9190  219.3670 C   0  0  0  0  0  0  0  0  0  0  0  0
  145.4950   73.1250  220.2650 C   0  0  0  0  0  0  0  0  0  0  0  0
  144.4410   73.9370  219.4920 C   0  0  2  0  0  0  0  0  0  0  0  0
  144.2270   75.2360  220.1160 C   0  0  0  0  0  0  0  0  0  0  0  0
  143.3710   76.2040  219.4260 C   0  0  0  0  0  0  0  0  0  0  0  0
  143.4430   76.2040  218.0220 C   0  0  0  0  0  0  0  0  0  0  0  0
  142.6780   77.0760  217.2920 C   0  0  0  0  0  0  0  0  0  0  0  0
  141.8240   77.9700  217.8950 C   0  0  0  0  0  0  0  0  0  0  0  0
  141.7710   77.9510  219.2740 C   0  0  0  0  0  0  0  0  0  0  0  0
  142.5310   77.0870  219.9590 N   0  0  0  0  0  0  0  0  0  0  0  0
  140.2820   76.9770  222.3850 C   0  0  0  0  0  0  0  0  0  0  0  0
  139.1110   77.6670  222.5560 C   0  0  0  0  0  0  0  0  0  0  0  0
  139.1530   78.9950  222.9140 C   0  0  0  0  0  0  0  0  0  0  0  0
  140.3700   79.6230  223.0960 C   0  0  0  0  0  0  0  0  0  0  0  0
  140.3880   80.9620  223.4560 C   0  0  0  0  0  0  0  0  0  0  0  0
  141.5970   81.5660  223.6310 C   0  0  0  0  0  0  0  0  0  0  0  0
  142.7400   80.8310  223.4480 C   0  0  0  0  0  0  0  0  0  0  0  0
  142.7520   79.4990  223.0910 C   0  0  0  0  0  0  0  0  0  0  0  0
  141.5170   78.8930  222.9130 C   0  0  0  0  0  0  0  0  0  0  0  0
  141.4640   77.5950  222.5650 N   0  0  0  0  0  0  0  0  0  0  0  0
  142.2500   75.5090  221.4500 H   0  0  0  0  0  0  0  0  0  0  0  0
  141.9867   72.9658  221.9134 H   0  0  0  0  0  0  0  0  0  0  0  0
  140.3810   73.2116  221.0164 H   0  0  0  0  0  0  0  0  0  0  0  0
  143.6790   70.8555  219.6111 H   0  0  0  0  0  0  0  0  0  0  0  0
  143.9097   71.5392  217.9874 H   0  0  0  0  0  0  0  0  0  0  0  0
  145.9695   71.0464  219.8859 H   0  0  0  0  0  0  0  0  0  0  0  0
  146.1819   72.0419  218.4779 H   0  0  0  0  0  0  0  0  0  0  0  0
  145.1599   72.8715  221.2816 H   0  0  0  0  0  0  0  0  0  0  0  0
  146.4553   73.6318  220.4409 H   0  0  0  0  0  0  0  0  0  0  0  0
  144.6556   74.2828  218.4701 H   0  0  0  0  0  0  0  0  0  0  0  0
  143.7809   75.0531  221.1047 H   0  0  0  0  0  0  0  0  0  0  0  0
  145.2221   75.7047  220.1166 H   0  0  0  0  0  0  0  0  0  0  0  0
  144.1155   75.5018  217.5076 H   0  0  0  0  0  0  0  0  0  0  0  0
  142.7488   77.0605  216.1944 H   0  0  0  0  0  0  0  0  0  0  0  0
  141.2115   78.6679  217.3053 H   0  0  0  0  0  0  0  0  0  0  0  0
  141.1057   78.6443  219.8094 H   0  0  0  0  0  0  0  0  0  0  0  0
  138.1444   77.1632  222.4082 H   0  0  0  0  0  0  0  0  0  0  0  0
  138.2177   79.5565  223.0553 H   0  0  0  0  0  0  0  0  0  0  0  0
  139.4515   81.5216  223.5965 H   0  0  0  0  0  0  0  0  0  0  0  0
  141.6551   82.6272  223.9148 H   0  0  0  0  0  0  0  0  0  0  0  0
  143.7068   81.3348  223.5950 H   0  0  0  0  0  0  0  0  0  0  0  0
  143.6927   78.9455  222.9544 H   0  0  0  0  0  0  0  0  0  0  0  0
  1  2  2  0
  2  3  1  0
  3  4  1  0
  4  5  1  0
  5  6  2  0
  5  7  1  0
  7  8  1  0
  8  9  1  0
  9 10  1  0
 10 11  1  0
 11 12  1  0
 12 13  1  0
 13 14  2  0
 14 15  1  0
 15 16  2  0
 16 17  1  0
 17 18  2  0
  2 19  1  0
 19 20  2  0
 20 21  1  0
 21 22  2  0
 22 23  1  0
 23 24  2  0
 24 25  1  0
 25 26  2  0
 26 27  1  0
 27 28  2  0
 11  7  1  0
 18 13  1  0
 28 19  1  0
 27 22  1  0
  3 29  1  0
  4 30  1  0
  4 31  1  0
  8 32  1  0
  8 33  1  0
  9 34  1  0
  9 35  1  0
 10 36  1  0
 10 37  1  0
 11 38  1  6
 12 39  1  0
 12 40  1  0
 14 41  1  0
 15 42  1  0
 16 43  1  0
 17 44  1  0
 20 45  1  0
 21 46  1  0
 23 47  1  0
 24 48  1  0
 25 49  1  0
 26 50  1  0
M  END
>  <smiles>  (27) 
O=C(NCC(=O)N1CCCC1Cc1ccccn1)c1ccc2ccccc2n1

>  <score_type>  (27) 
oracle

>  <origin>  (27) 
autodockgpu

>  <m_score__min__energy>  (27) 
-8.8499999999999996

>  <m_primary>  (27) 
energy

>  <rmsd>  (27) 
7.852309624964604

>  <m_score__min__rmsd>  (27) 
7.852309624964604

>  <meeko>  (27) 
{"free_energy": -6.9, "intermolecular_energy": -8.69, "internal_energy": -3.01, "cluster_size": 4, "cluster_id": 6, "rank_in_cluster": 3}

>  <energy>  (27) 
-8.34

>  <cluster_rmsd>  (27) 
1.41

>  <cluster>  (27) 
2

$$$$

     RDKit          3D

 50 53  0  0  0  0  0  0  0  0999 V2000
  141.2830   71.8250  221.5650 O   0  0  0  0  0  0  0  0  0  0  0  0
  140.5110   72.2310  222.4760 C   0  0  0  0  0  0  0  0  0  0  0  0
  139.8760   73.5100  222.3470 N   0  0  0  0  0  0  0  0  0  0  0  0
  140.0620   74.3940  221.2440 C   0  0  0  0  0  0  0  0  0  0  0  0
  139.5320   75.7520  221.3830 C   0  0  0  0  0  0  0  0  0  0  0  0
  139.1090   75.9980  222.5970 O   0  0  0  0  0  0  0  0  0  0  0  0
  139.4120   76.7950  220.4790 N   0  0  0  0  0  0  0  0  0  0  0  0
  139.5880   76.8480  219.0150 C   0  0  0  0  0  0  0  0  0  0  0  0
  139.8970   78.2940  218.6620 C   0  0  0  0  0  0  0  0  0  0  0  0
  140.2010   78.8630  220.0210 C   0  0  0  0  0  0  0  0  0  0  0  0
  139.0800   78.1650  220.8120 C   0  0  2  0  0  0  0  0  0  0  0  0
  139.0840   78.5940  222.2050 C   0  0  0  0  0  0  0  0  0  0  0  0
  140.3080   79.1950  222.7420 C   0  0  0  0  0  0  0  0  0  0  0  0
  140.2430   80.5660  223.0440 C   0  0  0  0  0  0  0  0  0  0  0  0
  141.3400   81.2130  223.5510 C   0  0  0  0  0  0  0  0  0  0  0  0
  142.5270   80.5560  223.7780 C   0  0  0  0  0  0  0  0  0  0  0  0
  142.5650   79.2110  223.4740 C   0  0  0  0  0  0  0  0  0  0  0  0
  141.4760   78.6070  222.9800 N   0  0  0  0  0  0  0  0  0  0  0  0
  140.2680   71.3920  223.6670 C   0  0  0  0  0  0  0  0  0  0  0  0
  139.6010   70.2040  223.5170 C   0  0  0  0  0  0  0  0  0  0  0  0
  139.3680   69.4130  224.6190 C   0  0  0  0  0  0  0  0  0  0  0  0
  139.8060   69.8180  225.8650 C   0  0  0  0  0  0  0  0  0  0  0  0
  139.5600   69.0050  226.9610 C   0  0  0  0  0  0  0  0  0  0  0  0
  139.9970   69.4210  228.1830 C   0  0  0  0  0  0  0  0  0  0  0  0
  140.6600   70.6170  228.2800 C   0  0  0  0  0  0  0  0  0  0  0  0
  140.9180   71.4450  227.2080 C   0  0  0  0  0  0  0  0  0  0  0  0
  140.4680   71.0150  225.9690 C   0  0  0  0  0  0  0  0  0  0  0  0
  140.6900   71.7800  224.8840 N   0  0  0  0  0  0  0  0  0  0  0  0
  139.2360   73.7540  223.1630 H   0  0  0  0  0  0  0  0  0  0  0  0
  141.1440   74.4770  221.0642 H   0  0  0  0  0  0  0  0  0  0  0  0
  139.4876   73.9464  220.4196 H   0  0  0  0  0  0  0  0  0  0  0  0
  140.4208   76.1974  218.7099 H   0  0  0  0  0  0  0  0  0  0  0  0
  138.6830   76.4996  218.4957 H   0  0  0  0  0  0  0  0  0  0  0  0
  140.7642   78.3691  217.9895 H   0  0  0  0  0  0  0  0  0  0  0  0
  139.0892   78.8119  218.1241 H   0  0  0  0  0  0  0  0  0  0  0  0
  141.2013   78.5755  220.3771 H   0  0  0  0  0  0  0  0  0  0  0  0
  140.2221   79.9608  220.0871 H   0  0  0  0  0  0  0  0  0  0  0  0
  138.0270   78.3822  220.5796 H   0  0  0  0  0  0  0  0  0  0  0  0
  138.2793   79.3351  222.3201 H   0  0  0  0  0  0  0  0  0  0  0  0
  138.9648   77.6620  222.7771 H   0  0  0  0  0  0  0  0  0  0  0  0
  139.3091   81.1215  222.8731 H   0  0  0  0  0  0  0  0  0  0  0  0
  141.2692   82.2860  223.7824 H   0  0  0  0  0  0  0  0  0  0  0  0
  143.4056   81.0792  224.1834 H   0  0  0  0  0  0  0  0  0  0  0  0
  143.4880   78.6353  223.6369 H   0  0  0  0  0  0  0  0  0  0  0  0
  139.2544   69.8850  222.5230 H   0  0  0  0  0  0  0  0  0  0  0  0
  138.8330   68.4583  224.5076 H   0  0  0  0  0  0  0  0  0  0  0  0
  139.0264   68.0498  226.8472 H   0  0  0  0  0  0  0  0  0  0  0  0
  139.8204   68.8064  229.0780 H   0  0  0  0  0  0  0  0  0  0  0  0
  141.0074   70.9356  229.2739 H   0  0  0  0  0  0  0  0  0  0  0  0
  141.4535   72.3981  227.3296 H   0  0  0  0  0  0  0  0  0  0  0  0
  1  2  2  0
  2  3  1  0
  3  4  1  0
  4  5  1  0
  5  6  2  0
  5  7  1  0
  7  8  1  0
  8  9  1  0
  9 10  1  0
 10 11  1  0
 11 12  1  0
 12 13  1  0
 13 14  2  0
 14 15  1  0
 15 16  2  0
 16 17  1  0
 17 18  2  0
  2 19  1  0
 19 20  2  0
 20 21  1  0
 21 22  2  0
 22 23  1  0
 23 24  2  0
 24 25  1  0
 25 26  2  0
 26 27  1  0
 27 28  2  0
 11  7  1  0
 18 13  1  0
 28 19  1  0
 27 22  1  0
  3 29  1  0
  4 30  1  0
  4 31  1  0
  8 32  1  0
  8 33  1  0
  9 34  1  0
  9 35  1  0
 10 36  1  0
 10 37  1  0
 11 38  1  6
 12 39  1  0
 12 40  1  0
 14 41  1  0
 15 42  1  0
 16 43  1  0
 17 44  1  0
 20 45  1  0
 21 46  1  0
 23 47  1  0
 24 48  1  0
 25 49  1  0
 26 50  1  0
M  END
>  <smiles>  (28) 
O=C(NCC(=O)N1CCCC1Cc1ccccn1)c1ccc2ccccc2n1

>  <score_type>  (28) 
oracle

>  <origin>  (28) 
autodockgpu

>  <m_score__min__energy>  (28) 
-8.8499999999999996

>  <m_primary>  (28) 
energy

>  <rmsd>  (28) 
1.9377055498416544

>  <m_score__min__rmsd>  (28) 
1.9377055498416544

>  <meeko>  (28) 
{"free_energy": -8.01, "intermolecular_energy": -9.8, "internal_energy": -1.48, "cluster_size": 18, "cluster_id": 1, "rank_in_cluster": 16}

>  <energy>  (28) 
-8.29

>  <cluster_rmsd>  (28) 
1.13

>  <cluster>  (28) 
2

$$$$

     RDKit          3D

 50 53  0  0  0  0  0  0  0  0999 V2000
  139.0820   75.0200  222.0360 O   0  0  0  0  0  0  0  0  0  0  0  0
  140.1890   75.6250  222.0010 C   0  0  0  0  0  0  0  0  0  0  0  0
  141.3650   74.9250  221.5770 N   0  0  0  0  0  0  0  0  0  0  0  0
  141.3920   73.5520  221.1930 C   0  0  0  0  0  0  0  0  0  0  0  0
  142.0070   73.2330  219.9040 C   0  0  0  0  0  0  0  0  0  0  0  0
  141.1400   73.2450  218.9230 O   0  0  0  0  0  0  0  0  0  0  0  0
  143.3130   72.9370  219.5500 N   0  0  0  0  0  0  0  0  0  0  0  0
  143.9500   71.6770  219.1210 C   0  0  0  0  0  0  0  0  0  0  0  0
  145.4350   71.8100  219.4260 C   0  0  0  0  0  0  0  0  0  0  0  0
  145.4370   73.0220  220.3180 C   0  0  0  0  0  0  0  0  0  0  0  0
  144.4180   73.8740  219.5420 C   0  0  2  0  0  0  0  0  0  0  0  0
  144.2610   75.1850  220.1590 C   0  0  0  0  0  0  0  0  0  0  0  0
  143.4210   76.1750  219.4800 C   0  0  0  0  0  0  0  0  0  0  0  0
  143.5290   76.2220  218.0790 C   0  0  0  0  0  0  0  0  0  0  0  0
  142.7810   77.1170  217.3600 C   0  0  0  0  0  0  0  0  0  0  0  0
  141.9110   77.9900  217.9710 C   0  0  0  0  0  0  0  0  0  0  0  0
  141.8220   77.9240  219.3460 C   0  0  0  0  0  0  0  0  0  0  0  0
  142.5670   77.0380  220.0210 N   0  0  0  0  0  0  0  0  0  0  0  0
  140.2650   77.0470  222.3960 C   0  0  0  0  0  0  0  0  0  0  0  0
  139.1020   77.7440  222.5940 C   0  0  0  0  0  0  0  0  0  0  0  0
  139.1600   79.0680  222.9630 C   0  0  0  0  0  0  0  0  0  0  0  0
  140.3840   79.6860  223.1290 C   0  0  0  0  0  0  0  0  0  0  0  0
  140.4180   81.0210  223.5000 C   0  0  0  0  0  0  0  0  0  0  0  0
  141.6350   81.6160  223.6590 C   0  0  0  0  0  0  0  0  0  0  0  0
  142.7690   80.8740  223.4490 C   0  0  0  0  0  0  0  0  0  0  0  0
  142.7640   79.5460  223.0790 C   0  0  0  0  0  0  0  0  0  0  0  0
  141.5230   78.9500  222.9190 C   0  0  0  0  0  0  0  0  0  0  0  0
  141.4540   77.6550  222.5590 N   0  0  0  0  0  0  0  0  0  0  0  0
  142.2430   75.5280  221.5720 H   0  0  0  0  0  0  0  0  0  0  0  0
  141.9441   73.0015  221.9690 H   0  0  0  0  0  0  0  0  0  0  0  0
  140.3355   73.2661  221.0831 H   0  0  0  0  0  0  0  0  0  0  0  0
  143.5237   70.8287  219.6765 H   0  0  0  0  0  0  0  0  0  0  0  0
  143.7816   71.4941  218.0495 H   0  0  0  0  0  0  0  0  0  0  0  0
  145.8211   70.9227  219.9491 H   0  0  0  0  0  0  0  0  0  0  0  0
  146.0746   71.9009  218.5357 H   0  0  0  0  0  0  0  0  0  0  0  0
  145.0927   72.7884  221.3363 H   0  0  0  0  0  0  0  0  0  0  0  0
  146.4184   73.4881  220.4903 H   0  0  0  0  0  0  0  0  0  0  0  0
  144.6462   74.2043  218.5179 H   0  0  0  0  0  0  0  0  0  0  0  0
  143.8324   75.0252  221.1594 H   0  0  0  0  0  0  0  0  0  0  0  0
  145.2706   75.6208  220.1322 H   0  0  0  0  0  0  0  0  0  0  0  0
  144.2159   75.5384  217.5586 H   0  0  0  0  0  0  0  0  0  0  0  0
  142.8789   77.1380  216.2646 H   0  0  0  0  0  0  0  0  0  0  0  0
  141.3136   78.7078  217.3897 H   0  0  0  0  0  0  0  0  0  0  0  0
  141.1409   78.5972  219.8872 H   0  0  0  0  0  0  0  0  0  0  0  0
  138.1292   77.2486  222.4589 H   0  0  0  0  0  0  0  0  0  0  0  0
  138.2313   79.6346  223.1259 H   0  0  0  0  0  0  0  0  0  0  0  0
  139.4880   81.5858  223.6619 H   0  0  0  0  0  0  0  0  0  0  0  0
  141.7057   82.6742  223.9510 H   0  0  0  0  0  0  0  0  0  0  0  0
  143.7421   81.3687  223.5841 H   0  0  0  0  0  0  0  0  0  0  0  0
  143.6980   78.9875  222.9188 H   0  0  0  0  0  0  0  0  0  0  0  0
  1  2  2  0
  2  3  1  0
  3  4  1  0
  4  5  1  0
  5  6  2  0
  5  7  1  0
  7  8  1  0
  8  9  1  0
  9 10  1  0
 10 11  1  0
 11 12  1  0
 12 13  1  0
 13 14  2  0
 14 15  1  0
 15 16  2  0
 16 17  1  0
 17 18  2  0
  2 19  1  0
 19 20  2  0
 20 21  1  0
 21 22  2  0
 22 23  1  0
 23 24  2  0
 24 25  1  0
 25 26  2  0
 26 27  1  0
 27 28  2  0
 11  7  1  0
 18 13  1  0
 28 19  1  0
 27 22  1  0
  3 29  1  0
  4 30  1  0
  4 31  1  0
  8 32  1  0
  8 33  1  0
  9 34  1  0
  9 35  1  0
 10 36  1  0
 10 37  1  0
 11 38  1  6
 12 39  1  0
 12 40  1  0
 14 41  1  0
 15 42  1  0
 16 43  1  0
 17 44  1  0
 20 45  1  0
 21 46  1  0
 23 47  1  0
 24 48  1  0
 25 49  1  0
 26 50  1  0
M  END
>  <smiles>  (29) 
O=C(NCC(=O)N1CCCC1Cc1ccccn1)c1ccc2ccccc2n1

>  <score_type>  (29) 
oracle

>  <origin>  (29) 
autodockgpu

>  <m_score__min__energy>  (29) 
-8.8499999999999996

>  <m_primary>  (29) 
energy

>  <rmsd>  (29) 
7.878647202943236

>  <m_score__min__rmsd>  (29) 
7.878647202943236

>  <meeko>  (29) 
{"free_energy": -6.93, "intermolecular_energy": -8.72, "internal_energy": -3.03, "cluster_size": 4, "cluster_id": 6, "rank_in_cluster": 2}

>  <energy>  (29) 
-7.93

>  <cluster_rmsd>  (29) 
1.14

>  <cluster>  (29) 
2

$$$$

     RDKit          3D

 50 53  0  0  0  0  0  0  0  0999 V2000
  141.9720   75.7170  219.1310 O   0  0  0  0  0  0  0  0  0  0  0  0
  141.7130   76.1110  220.3010 C   0  0  0  0  0  0  0  0  0  0  0  0
  141.3910   75.1510  221.3150 N   0  0  0  0  0  0  0  0  0  0  0  0
  141.3230   73.7430  221.1010 C   0  0  0  0  0  0  0  0  0  0  0  0
  140.4150   72.9810  221.9590 C   0  0  0  0  0  0  0  0  0  0  0  0
  139.6660   73.7580  222.7020 O   0  0  0  0  0  0  0  0  0  0  0  0
  140.2090   71.6200  222.1120 N   0  0  0  0  0  0  0  0  0  0  0  0
  139.8380   70.5710  221.1430 C   0  0  0  0  0  0  0  0  0  0  0  0
  139.2080   69.4400  221.9400 C   0  0  0  0  0  0  0  0  0  0  0  0
  138.9780   70.1160  223.2640 C   0  0  0  0  0  0  0  0  0  0  0  0
  140.3060   70.8870  223.3570 C   0  0  2  0  0  0  0  0  0  0  0  0
  140.3990   71.6100  224.6190 C   0  0  0  0  0  0  0  0  0  0  0  0
  140.5790   70.8370  225.8500 C   0  0  0  0  0  0  0  0  0  0  0  0
  140.8400   71.5790  227.0150 C   0  0  0  0  0  0  0  0  0  0  0  0
  141.0220   70.9400  228.2130 C   0  0  0  0  0  0  0  0  0  0  0  0
  140.9580   69.5700  228.3200 C   0  0  0  0  0  0  0  0  0  0  0  0
  140.7000   68.8640  227.1640 C   0  0  0  0  0  0  0  0  0  0  0  0
  140.5270   69.5180  226.0080 N   0  0  0  0  0  0  0  0  0  0  0  0
  141.7430   77.5530  220.6170 C   0  0  0  0  0  0  0  0  0  0  0  0
  141.8750   78.4550  219.5930 C   0  0  0  0  0  0  0  0  0  0  0  0
  141.9040   79.8020  219.8760 C   0  0  0  0  0  0  0  0  0  0  0  0
  141.8010   80.2360  221.1830 C   0  0  0  0  0  0  0  0  0  0  0  0
  141.8330   81.5970  221.4430 C   0  0  0  0  0  0  0  0  0  0  0  0
  141.7310   82.0090  222.7390 C   0  0  0  0  0  0  0  0  0  0  0  0
  141.6010   81.0660  223.7270 C   0  0  0  0  0  0  0  0  0  0  0  0
  141.5670   79.7070  223.4970 C   0  0  0  0  0  0  0  0  0  0  0  0
  141.6720   79.2980  222.1760 C   0  0  0  0  0  0  0  0  0  0  0  0
  141.6440   77.9840  221.8880 N   0  0  0  0  0  0  0  0  0  0  0  0
  141.2010   75.5850  222.2700 H   0  0  0  0  0  0  0  0  0  0  0  0
  141.0086   73.5810  220.0594 H   0  0  0  0  0  0  0  0  0  0  0  0
  142.3278   73.3691  221.3473 H   0  0  0  0  0  0  0  0  0  0  0  0
  139.1168   70.9675  220.4132 H   0  0  0  0  0  0  0  0  0  0  0  0
  140.7188   70.2186  220.5862 H   0  0  0  0  0  0  0  0  0  0  0  0
  138.2629   69.1048  221.4879 H   0  0  0  0  0  0  0  0  0  0  0  0
  139.8211   68.5285  221.9965 H   0  0  0  0  0  0  0  0  0  0  0  0
  138.1082   70.7890  223.2407 H   0  0  0  0  0  0  0  0  0  0  0  0
  138.7515   69.4491  224.1090 H   0  0  0  0  0  0  0  0  0  0  0  0
  141.2568   70.3371  223.4166 H   0  0  0  0  0  0  0  0  0  0  0  0
  141.2537   72.2977  224.5382 H   0  0  0  0  0  0  0  0  0  0  0  0
  139.4117   72.0808  224.7358 H   0  0  0  0  0  0  0  0  0  0  0  0
  140.8983   72.6763  226.9645 H   0  0  0  0  0  0  0  0  0  0  0  0
  141.2248   71.5384  229.1135 H   0  0  0  0  0  0  0  0  0  0  0  0
  141.1059   69.0609  229.2838 H   0  0  0  0  0  0  0  0  0  0  0  0
  140.6364   67.7662  227.1911 H   0  0  0  0  0  0  0  0  0  0  0  0
  141.9571   78.1052  218.5533 H   0  0  0  0  0  0  0  0  0  0  0  0
  142.0093   80.5329  219.0607 H   0  0  0  0  0  0  0  0  0  0  0  0
  141.9379   82.3256  220.6256 H   0  0  0  0  0  0  0  0  0  0  0  0
  141.7526   83.0802  222.9882 H   0  0  0  0  0  0  0  0  0  0  0  0
  141.5188   81.4157  224.7667 H   0  0  0  0  0  0  0  0  0  0  0  0
  141.4620   78.9840  224.3193 H   0  0  0  0  0  0  0  0  0  0  0  0
  1  2  2  0
  2  3  1  0
  3  4  1  0
  4  5  1  0
  5  6  2  0
  5  7  1  0
  7  8  1  0
  8  9  1  0
  9 10  1  0
 10 11  1  0
 11 12  1  0
 12 13  1  0
 13 14  2  0
 14 15  1  0
 15 16  2  0
 16 17  1  0
 17 18  2  0
  2 19  1  0
 19 20  2  0
 20 21  1  0
 21 22  2  0
 22 23  1  0
 23 24  2  0
 24 25  1  0
 25 26  2  0
 26 27  1  0
 27 28  2  0
 11  7  1  0
 18 13  1  0
 28 19  1  0
 27 22  1  0
  3 29  1  0
  4 30  1  0
  4 31  1  0
  8 32  1  0
  8 33  1  0
  9 34  1  0
  9 35  1  0
 10 36  1  0
 10 37  1  0
 11 38  1  6
 12 39  1  0
 12 40  1  0
 14 41  1  0
 15 42  1  0
 16 43  1  0
 17 44  1  0
 20 45  1  0
 21 46  1  0
 23 47  1  0
 24 48  1  0
 25 49  1  0
 26 50  1  0
M  END
>  <smiles>  (30) 
O=C(NCC(=O)N1CCCC1Cc1ccccn1)c1ccc2ccccc2n1

>  <score_type>  (30) 
oracle

>  <origin>  (30) 
autodockgpu

>  <m_score__min__energy>  (30) 
-8.8499999999999996

>  <m_primary>  (30) 
energy

>  <rmsd>  (30) 
8.737576018350202

>  <m_score__min__rmsd>  (30) 
8.737576018350202

>  <meeko>  (30) 
{"free_energy": -7.91, "intermolecular_energy": -9.7, "internal_energy": -1.69, "cluster_size": 18, "cluster_id": 1, "rank_in_cluster": 17}

>  <energy>  (30) 
-8.68

>  <cluster_rmsd>  (30) 
0.0

>  <cluster>  (30) 
3

$$$$

     RDKit          3D

 50 53  0  0  0  0  0  0  0  0999 V2000
  139.7480   71.1230  221.2970 O   0  0  0  0  0  0  0  0  0  0  0  0
  139.6590   71.8020  222.3570 C   0  0  0  0  0  0  0  0  0  0  0  0
  139.3540   73.2000  222.2770 N   0  0  0  0  0  0  0  0  0  0  0  0
  139.1480   73.9120  221.0600 C   0  0  0  0  0  0  0  0  0  0  0  0
  139.1130   75.3730  221.1410 C   0  0  0  0  0  0  0  0  0  0  0  0
  137.9610   75.8640  220.7560 O   0  0  0  0  0  0  0  0  0  0  0  0
  140.0570   76.3010  221.5500 N   0  0  0  0  0  0  0  0  0  0  0  0
  139.9580   77.4680  222.4470 C   0  0  0  0  0  0  0  0  0  0  0  0
  141.0950   78.4060  222.0740 C   0  0  0  0  0  0  0  0  0  0  0  0
  141.5300   77.8200  220.7580 C   0  0  0  0  0  0  0  0  0  0  0  0
  141.4440   76.3310  221.1360 C   0  0  2  0  0  0  0  0  0  0  0  0
  141.8890   75.4900  220.0320 C   0  0  0  0  0  0  0  0  0  0  0  0
  142.9030   74.4680  220.3050 C   0  0  0  0  0  0  0  0  0  0  0  0
  144.2420   74.8940  220.2530 C   0  0  0  0  0  0  0  0  0  0  0  0
  145.2580   74.0070  220.4950 C   0  0  0  0  0  0  0  0  0  0  0  0
  145.0110   72.6860  220.7910 C   0  0  0  0  0  0  0  0  0  0  0  0
  143.6890   72.2920  220.8360 C   0  0  0  0  0  0  0  0  0  0  0  0
  142.7190   73.1840  220.5950 N   0  0  0  0  0  0  0  0  0  0  0  0
  139.8720   71.1550  223.6670 C   0  0  0  0  0  0  0  0  0  0  0  0
  139.5800   69.8220  223.8050 C   0  0  0  0  0  0  0  0  0  0  0  0
  139.7740   69.2090  225.0210 C   0  0  0  0  0  0  0  0  0  0  0  0
  140.2580   69.9350  226.0920 C   0  0  0  0  0  0  0  0  0  0  0  0
  140.4450   69.2950  227.3080 C   0  0  0  0  0  0  0  0  0  0  0  0
  140.9220   70.0260  228.3550 C   0  0  0  0  0  0  0  0  0  0  0  0
  141.1980   71.3560  228.1650 C   0  0  0  0  0  0  0  0  0  0  0  0
  141.0220   72.0170  226.9680 C   0  0  0  0  0  0  0  0  0  0  0  0
  140.5350   71.2660  225.9090 C   0  0  0  0  0  0  0  0  0  0  0  0
  140.3420   71.8550  224.7160 N   0  0  0  0  0  0  0  0  0  0  0  0
  139.2900   73.6780  223.2270 H   0  0  0  0  0  0  0  0  0  0  0  0
  139.9623   73.6374  220.3733 H   0  0  0  0  0  0  0  0  0  0  0  0
  138.1410   73.6209  220.7265 H   0  0  0  0  0  0  0  0  0  0  0  0
  138.9901   77.9718  222.3076 H   0  0  0  0  0  0  0  0  0  0  0  0
  140.0278   77.1626  223.5014 H   0  0  0  0  0  0  0  0  0  0  0  0
  140.7430   79.4417  221.9585 H   0  0  0  0  0  0  0  0  0  0  0  0
  141.8939   78.4724  222.8272 H   0  0  0  0  0  0  0  0  0  0  0  0
  140.8424   78.0809  219.9400 H   0  0  0  0  0  0  0  0  0  0  0  0
  142.5044   78.1627  220.3798 H   0  0  0  0  0  0  0  0  0  0  0  0
  142.0980   75.9255  221.9220 H   0  0  0  0  0  0  0  0  0  0  0  0
  141.0019   74.9723  219.6383 H   0  0  0  0  0  0  0  0  0  0  0  0
  142.3844   76.1875  219.3406 H   0  0  0  0  0  0  0  0  0  0  0  0
  144.4747   75.9429  220.0173 H   0  0  0  0  0  0  0  0  0  0  0  0
  146.2988   74.3603  220.4515 H   0  0  0  0  0  0  0  0  0  0  0  0
  145.8295   71.9767  220.9829 H   0  0  0  0  0  0  0  0  0  0  0  0
  143.4325   71.2481  221.0692 H   0  0  0  0  0  0  0  0  0  0  0  0
  139.1937   69.2477  222.9500 H   0  0  0  0  0  0  0  0  0  0  0  0
  139.5436   68.1401  225.1407 H   0  0  0  0  0  0  0  0  0  0  0  0
  140.2145   68.2257  227.4245 H   0  0  0  0  0  0  0  0  0  0  0  0
  141.0830   69.5567  229.3367 H   0  0  0  0  0  0  0  0  0  0  0  0
  141.5834   71.9305  229.0202 H   0  0  0  0  0  0  0  0  0  0  0  0
  141.2561   73.0862  226.8586 H   0  0  0  0  0  0  0  0  0  0  0  0
  1  2  2  0
  2  3  1  0
  3  4  1  0
  4  5  1  0
  5  6  2  0
  5  7  1  0
  7  8  1  0
  8  9  1  0
  9 10  1  0
 10 11  1  0
 11 12  1  0
 12 13  1  0
 13 14  2  0
 14 15  1  0
 15 16  2  0
 16 17  1  0
 17 18  2  0
  2 19  1  0
 19 20  2  0
 20 21  1  0
 21 22  2  0
 22 23  1  0
 23 24  2  0
 24 25  1  0
 25 26  2  0
 26 27  1  0
 27 28  2  0
 11  7  1  0
 18 13  1  0
 28 19  1  0
 27 22  1  0
  3 29  1  0
  4 30  1  0
  4 31  1  0
  8 32  1  0
  8 33  1  0
  9 34  1  0
  9 35  1  0
 10 36  1  0
 10 37  1  0
 11 38  1  1
 12 39  1  0
 12 40  1  0
 14 41  1  0
 15 42  1  0
 16 43  1  0
 17 44  1  0
 20 45  1  0
 21 46  1  0
 23 47  1  0
 24 48  1  0
 25 49  1  0
 26 50  1  0
M  END
>  <smiles>  (31) 
O=C(NCC(=O)N1CCCC1Cc1ccccn1)c1ccc2ccccc2n1

>  <score_type>  (31) 
oracle

>  <origin>  (31) 
autodockgpu

>  <m_score__min__energy>  (31) 
-8.8499999999999996

>  <m_primary>  (31) 
energy

>  <rmsd>  (31) 
2.461554651843203

>  <m_score__min__rmsd>  (31) 
2.461554651843203

>  <meeko>  (31) 
{"free_energy": -8.2, "intermolecular_energy": -9.99, "internal_energy": -1.68, "cluster_size": 9, "cluster_id": 4, "rank_in_cluster": 4}

>  <energy>  (31) 
-8.41

>  <cluster_rmsd>  (31) 
0.74

>  <cluster>  (31) 
3

$$$$

     RDKit          3D

 50 53  0  0  0  0  0  0  0  0999 V2000
  137.4080   76.2760  222.1250 O   0  0  0  0  0  0  0  0  0  0  0  0
  138.6450   76.3280  222.3670 C   0  0  0  0  0  0  0  0  0  0  0  0
  139.4330   75.1330  222.2850 N   0  0  0  0  0  0  0  0  0  0  0  0
  138.9140   73.8470  221.9550 C   0  0  0  0  0  0  0  0  0  0  0  0
  139.7790   72.6940  222.2110 C   0  0  0  0  0  0  0  0  0  0  0  0
  141.0410   73.0310  222.3010 O   0  0  0  0  0  0  0  0  0  0  0  0
  139.5000   71.3470  222.3780 N   0  0  0  0  0  0  0  0  0  0  0  0
  138.9270   70.3450  221.4600 C   0  0  0  0  0  0  0  0  0  0  0  0
  138.3330   69.2450  222.3270 C   0  0  0  0  0  0  0  0  0  0  0  0
  138.3360   69.9100  223.6760 C   0  0  0  0  0  0  0  0  0  0  0  0
  139.7160   70.5860  223.5910 C   0  0  2  0  0  0  0  0  0  0  0  0
  140.0320   71.2780  224.8340 C   0  0  0  0  0  0  0  0  0  0  0  0
  140.3640   70.4710  226.0110 C   0  0  0  0  0  0  0  0  0  0  0  0
  140.7350   71.1830  227.1650 C   0  0  0  0  0  0  0  0  0  0  0  0
  141.0630   70.5120  228.3140 C   0  0  0  0  0  0  0  0  0  0  0  0
  141.0420   69.1380  228.3810 C   0  0  0  0  0  0  0  0  0  0  0  0
  140.6750   68.4620  227.2360 C   0  0  0  0  0  0  0  0  0  0  0  0
  140.3610   69.1470  226.1280 N   0  0  0  0  0  0  0  0  0  0  0  0
  139.2720   77.6140  222.7350 C   0  0  0  0  0  0  0  0  0  0  0  0
  138.4690   78.6750  223.0630 C   0  0  0  0  0  0  0  0  0  0  0  0
  139.0410   79.8780  223.4070 C   0  0  0  0  0  0  0  0  0  0  0  0
  140.4160   80.0110  223.4180 C   0  0  0  0  0  0  0  0  0  0  0  0
  140.9700   81.2330  223.7670 C   0  0  0  0  0  0  0  0  0  0  0  0
  142.3280   81.3470  223.7720 C   0  0  0  0  0  0  0  0  0  0  0  0
  143.0880   80.2560  223.4360 C   0  0  0  0  0  0  0  0  0  0  0  0
  142.5640   79.0300  223.0850 C   0  0  0  0  0  0  0  0  0  0  0  0
  141.1820   78.9230  223.0810 C   0  0  0  0  0  0  0  0  0  0  0  0
  140.6110   77.7520  222.7470 N   0  0  0  0  0  0  0  0  0  0  0  0
  140.4660   75.2860  222.4970 H   0  0  0  0  0  0  0  0  0  0  0  0
  137.9902   73.7036  222.5346 H   0  0  0  0  0  0  0  0  0  0  0  0
  138.7794   73.8655  220.8634 H   0  0  0  0  0  0  0  0  0  0  0  0
  138.1427   70.8039  220.8400 H   0  0  0  0  0  0  0  0  0  0  0  0
  139.6960   69.9432  220.7838 H   0  0  0  0  0  0  0  0  0  0  0  0
  137.3132   68.9848  222.0071 H   0  0  0  0  0  0  0  0  0  0  0  0
  138.8815   68.2922  222.2898 H   0  0  0  0  0  0  0  0  0  0  0  0
  137.5212   70.6417  223.7797 H   0  0  0  0  0  0  0  0  0  0  0  0
  138.1813   69.2445  224.5381 H   0  0  0  0  0  0  0  0  0  0  0  0
  140.6247   69.9709  223.5137 H   0  0  0  0  0  0  0  0  0  0  0  0
  140.8936   71.9318  224.6333 H   0  0  0  0  0  0  0  0  0  0  0  0
  139.0961   71.7870  225.1079 H   0  0  0  0  0  0  0  0  0  0  0  0
  140.7621   72.2825  227.1456 H   0  0  0  0  0  0  0  0  0  0  0  0
  141.3507   71.0872  229.2064 H   0  0  0  0  0  0  0  0  0  0  0  0
  141.3058   68.6031  229.3053 H   0  0  0  0  0  0  0  0  0  0  0  0
  140.6402   67.3626  227.2325 H   0  0  0  0  0  0  0  0  0  0  0  0
  137.3745   78.5655  223.0513 H   0  0  0  0  0  0  0  0  0  0  0  0
  138.4035   80.7340  223.6733 H   0  0  0  0  0  0  0  0  0  0  0  0
  140.3306   82.0877  224.0328 H   0  0  0  0  0  0  0  0  0  0  0  0
  142.8073   82.2997  224.0415 H   0  0  0  0  0  0  0  0  0  0  0  0
  144.1824   80.3658  223.4472 H   0  0  0  0  0  0  0  0  0  0  0  0
  143.2101   78.1796  222.8214 H   0  0  0  0  0  0  0  0  0  0  0  0
  1  2  2  0
  2  3  1  0
  3  4  1  0
  4  5  1  0
  5  6  2  0
  5  7  1  0
  7  8  1  0
  8  9  1  0
  9 10  1  0
 10 11  1  0
 11 12  1  0
 12 13  1  0
 13 14  2  0
 14 15  1  0
 15 16  2  0
 16 17  1  0
 17 18  2  0
  2 19  1  0
 19 20  2  0
 20 21  1  0
 21 22  2  0
 22 23  1  0
 23 24  2  0
 24 25  1  0
 25 26  2  0
 26 27  1  0
 27 28  2  0
 11  7  1  0
 18 13  1  0
 28 19  1  0
 27 22  1  0
  3 29  1  0
  4 30  1  0
  4 31  1  0
  8 32  1  0
  8 33  1  0
  9 34  1  0
  9 35  1  0
 10 36  1  0
 10 37  1  0
 11 38  1  6
 12 39  1  0
 12 40  1  0
 14 41  1  0
 15 42  1  0
 16 43  1  0
 17 44  1  0
 20 45  1  0
 21 46  1  0
 23 47  1  0
 24 48  1  0
 25 49  1  0
 26 50  1  0
M  END
>  <smiles>  (32) 
O=C(NCC(=O)N1CCCC1Cc1ccccn1)c1ccc2ccccc2n1

>  <score_type>  (32) 
oracle

>  <origin>  (32) 
autodockgpu

>  <m_score__min__energy>  (32) 
-8.8499999999999996

>  <m_primary>  (32) 
energy

>  <rmsd>  (32) 
8.372418782933837

>  <m_score__min__rmsd>  (32) 
8.372418782933837

>  <meeko>  (32) 
{"free_energy": -8.39, "intermolecular_energy": -10.18, "internal_energy": -1.81, "cluster_size": 11, "cluster_id": 2, "rank_in_cluster": 4}

>  <energy>  (32) 
-8.49

>  <cluster_rmsd>  (32) 
0.0

>  <cluster>  (32) 
4

$$$$

     RDKit          3D

 50 53  0  0  0  0  0  0  0  0999 V2000
  140.2430   73.4150  222.3770 O   0  0  0  0  0  0  0  0  0  0  0  0
  140.3120   72.1560  222.3550 C   0  0  0  0  0  0  0  0  0  0  0  0
  140.4910   71.4790  221.1050 N   0  0  0  0  0  0  0  0  0  0  0  0
  140.5870   72.1320  219.8410 C   0  0  0  0  0  0  0  0  0  0  0  0
  141.9320   72.3790  219.3190 C   0  0  0  0  0  0  0  0  0  0  0  0
  141.9230   72.6750  218.0430 O   0  0  0  0  0  0  0  0  0  0  0  0
  143.1780   72.3640  219.9250 N   0  0  0  0  0  0  0  0  0  0  0  0
  143.8360   73.3210  220.8350 C   0  0  0  0  0  0  0  0  0  0  0  0
  145.3340   73.0900  220.7060 C   0  0  0  0  0  0  0  0  0  0  0  0
  145.3870   72.2380  219.4670 C   0  0  0  0  0  0  0  0  0  0  0  0
  144.1810   71.3310  219.7660 C   0  0  2  0  0  0  0  0  0  0  0  0
  144.0220   70.3210  218.7270 C   0  0  0  0  0  0  0  0  0  0  0  0
  144.7550   69.0610  218.8690 C   0  0  0  0  0  0  0  0  0  0  0  0
  144.8520   68.2670  217.7120 C   0  0  0  0  0  0  0  0  0  0  0  0
  145.5190   67.0710  217.7500 C   0  0  0  0  0  0  0  0  0  0  0  0
  146.1100   66.6080  218.9030 C   0  0  0  0  0  0  0  0  0  0  0  0
  146.0010   67.4040  220.0250 C   0  0  0  0  0  0  0  0  0  0  0  0
  145.3420   68.5680  219.9550 N   0  0  0  0  0  0  0  0  0  0  0  0
  140.2070   71.3890  223.6130 C   0  0  0  0  0  0  0  0  0  0  0  0
  139.6170   70.1520  223.5900 C   0  0  0  0  0  0  0  0  0  0  0  0
  139.5140   69.4280  224.7550 C   0  0  0  0  0  0  0  0  0  0  0  0
  140.0020   69.9490  225.9380 C   0  0  0  0  0  0  0  0  0  0  0  0
  139.8870   69.2020  227.1000 C   0  0  0  0  0  0  0  0  0  0  0  0
  140.3730   69.7310  228.2580 C   0  0  0  0  0  0  0  0  0  0  0  0
  140.9550   70.9720  228.2280 C   0  0  0  0  0  0  0  0  0  0  0  0
  141.0830   71.7370  227.0880 C   0  0  0  0  0  0  0  0  0  0  0  0
  140.5840   71.1910  225.9150 C   0  0  0  0  0  0  0  0  0  0  0  0
  140.6810   71.8900  224.7690 N   0  0  0  0  0  0  0  0  0  0  0  0
  140.5490   70.4190  221.1960 H   0  0  0  0  0  0  0  0  0  0  0  0
  140.0550   71.5105  219.1056 H   0  0  0  0  0  0  0  0  0  0  0  0
  140.1566   73.1312  220.0033 H   0  0  0  0  0  0  0  0  0  0  0  0
  143.5854   74.3523  220.5458 H   0  0  0  0  0  0  0  0  0  0  0  0
  143.5015   73.1735  221.8725 H   0  0  0  0  0  0  0  0  0  0  0  0
  145.8784   74.0360  220.5694 H   0  0  0  0  0  0  0  0  0  0  0  0
  145.8004   72.6329  221.5912 H   0  0  0  0  0  0  0  0  0  0  0  0
  145.2444   72.8292  218.5504 H   0  0  0  0  0  0  0  0  0  0  0  0
  146.3403   71.7214  219.2815 H   0  0  0  0  0  0  0  0  0  0  0  0
  144.2002   70.6629  220.6396 H   0  0  0  0  0  0  0  0  0  0  0  0
  142.9519   70.0718  218.6754 H   0  0  0  0  0  0  0  0  0  0  0  0
  144.4507   70.7859  217.8270 H   0  0  0  0  0  0  0  0  0  0  0  0
  144.3906   68.6076  216.7733 H   0  0  0  0  0  0  0  0  0  0  0  0
  145.5838   66.4648  216.8344 H   0  0  0  0  0  0  0  0  0  0  0  0
  146.6450   65.6472  218.9293 H   0  0  0  0  0  0  0  0  0  0  0  0
  146.4543   67.0833  220.9746 H   0  0  0  0  0  0  0  0  0  0  0  0
  139.2286   69.7411  222.6464 H   0  0  0  0  0  0  0  0  0  0  0  0
  139.0430   68.4340  224.7448 H   0  0  0  0  0  0  0  0  0  0  0  0
  139.4157   68.2081  227.0877 H   0  0  0  0  0  0  0  0  0  0  0  0
  140.2995   69.1711  229.2020 H   0  0  0  0  0  0  0  0  0  0  0  0
  141.3438   71.3827  229.1715 H   0  0  0  0  0  0  0  0  0  0  0  0
  141.5567   72.7296  227.1080 H   0  0  0  0  0  0  0  0  0  0  0  0
  1  2  2  0
  2  3  1  0
  3  4  1  0
  4  5  1  0
  5  6  2  0
  5  7  1  0
  7  8  1  0
  8  9  1  0
  9 10  1  0
 10 11  1  0
 11 12  1  0
 12 13  1  0
 13 14  2  0
 14 15  1  0
 15 16  2  0
 16 17  1  0
 17 18  2  0
  2 19  1  0
 19 20  2  0
 20 21  1  0
 21 22  2  0
 22 23  1  0
 23 24  2  0
 24 25  1  0
 25 26  2  0
 26 27  1  0
 27 28  2  0
 11  7  1  0
 18 13  1  0
 28 19  1  0
 27 22  1  0
  3 29  1  0
  4 30  1  0
  4 31  1  0
  8 32  1  0
  8 33  1  0
  9 34  1  0
  9 35  1  0
 10 36  1  0
 10 37  1  0
 11 38  1  1
 12 39  1  0
 12 40  1  0
 14 41  1  0
 15 42  1  0
 16 43  1  0
 17 44  1  0
 20 45  1  0
 21 46  1  0
 23 47  1  0
 24 48  1  0
 25 49  1  0
 26 50  1  0
M  END
>  <smiles>  (33) 
O=C(NCC(=O)N1CCCC1Cc1ccccn1)c1ccc2ccccc2n1

>  <score_type>  (33) 
oracle

>  <origin>  (33) 
autodockgpu

>  <m_score__min__energy>  (33) 
-8.8499999999999996

>  <m_primary>  (33) 
energy

>  <rmsd>  (33) 
4.143274366516193

>  <m_score__min__rmsd>  (33) 
4.143274366516193

>  <meeko>  (33) 
{"free_energy": -8.41, "intermolecular_energy": -10.2, "internal_energy": -1.25, "cluster_size": 2, "cluster_id": 3, "rank_in_cluster": 2}

>  <energy>  (33) 
-8.46

>  <cluster_rmsd>  (33) 
0.83

>  <cluster>  (33) 
4

$$$$

     RDKit          3D

 50 53  0  0  0  0  0  0  0  0999 V2000
  137.2450   76.5190  222.2030 O   0  0  0  0  0  0  0  0  0  0  0  0
  138.4970   76.5190  222.3570 C   0  0  0  0  0  0  0  0  0  0  0  0
  139.2330   75.3040  222.1650 N   0  0  0  0  0  0  0  0  0  0  0  0
  138.6460   74.0520  221.8160 C   0  0  0  0  0  0  0  0  0  0  0  0
  139.4280   72.8480  222.0990 C   0  0  0  0  0  0  0  0  0  0  0  0
  140.7140   73.0430  221.9430 O   0  0  0  0  0  0  0  0  0  0  0  0
  139.0560   71.5750  222.4990 N   0  0  0  0  0  0  0  0  0  0  0  0
  138.0220   70.6520  221.9930 C   0  0  0  0  0  0  0  0  0  0  0  0
  137.6870   69.7010  223.1320 C   0  0  0  0  0  0  0  0  0  0  0  0
  138.3350   70.4050  224.2930 C   0  0  0  0  0  0  0  0  0  0  0  0
  139.6390   70.8320  223.5980 C   0  0  2  0  0  0  0  0  0  0  0  0
  140.5300   71.5040  224.5350 C   0  0  0  0  0  0  0  0  0  0  0  0
  140.6720   70.9430  225.8810 C   0  0  0  0  0  0  0  0  0  0  0  0
  140.8430   69.5500  225.9560 C   0  0  0  0  0  0  0  0  0  0  0  0
  140.9840   68.9370  227.1730 C   0  0  0  0  0  0  0  0  0  0  0  0
  140.9620   69.6500  228.3500 C   0  0  0  0  0  0  0  0  0  0  0  0
  140.7930   71.0160  228.2500 C   0  0  0  0  0  0  0  0  0  0  0  0
  140.6580   71.5850  227.0450 N   0  0  0  0  0  0  0  0  0  0  0  0
  139.1950   77.7650  222.7340 C   0  0  0  0  0  0  0  0  0  0  0  0
  138.4520   78.8550  223.1050 C   0  0  0  0  0  0  0  0  0  0  0  0
  139.0910   80.0220  223.4580 C   0  0  0  0  0  0  0  0  0  0  0  0
  140.4700   80.0880  223.4370 C   0  0  0  0  0  0  0  0  0  0  0  0
  141.0910   81.2740  223.7960 C   0  0  0  0  0  0  0  0  0  0  0  0
  142.4540   81.3230  223.7680 C   0  0  0  0  0  0  0  0  0  0  0  0
  143.1510   80.2050  223.3900 C   0  0  0  0  0  0  0  0  0  0  0  0
  142.5590   79.0130  223.0270 C   0  0  0  0  0  0  0  0  0  0  0  0
  141.1730   78.9730  223.0570 C   0  0  0  0  0  0  0  0  0  0  0  0
  140.5390   77.8380  222.7150 N   0  0  0  0  0  0  0  0  0  0  0  0
  140.2830   75.4130  222.3070 H   0  0  0  0  0  0  0  0  0  0  0  0
  137.6962   73.9669  222.3643 H   0  0  0  0  0  0  0  0  0  0  0  0
  138.5495   74.0781  220.7205 H   0  0  0  0  0  0  0  0  0  0  0  0
  137.1256   71.2149  221.6935 H   0  0  0  0  0  0  0  0  0  0  0  0
  138.3817   70.1011  221.1114 H   0  0  0  0  0  0  0  0  0  0  0  0
  136.6002   69.6060  223.2726 H   0  0  0  0  0  0  0  0  0  0  0  0
  138.0328   68.6683  222.9773 H   0  0  0  0  0  0  0  0  0  0  0  0
  137.7458   71.2682  224.6361 H   0  0  0  0  0  0  0  0  0  0  0  0
  138.4541   69.8077  225.2090 H   0  0  0  0  0  0  0  0  0  0  0  0
  140.3395   70.0683  223.2290 H   0  0  0  0  0  0  0  0  0  0  0  0
  141.5314   71.5171  224.0801 H   0  0  0  0  0  0  0  0  0  0  0  0
  140.0626   72.4864  224.6978 H   0  0  0  0  0  0  0  0  0  0  0  0
  140.8637   68.9499  225.0343 H   0  0  0  0  0  0  0  0  0  0  0  0
  141.1184   67.8459  227.2105 H   0  0  0  0  0  0  0  0  0  0  0  0
  141.0740   69.1540  229.3254 H   0  0  0  0  0  0  0  0  0  0  0  0
  140.7692   71.6363  229.1581 H   0  0  0  0  0  0  0  0  0  0  0  0
  137.3536   78.7979  223.1206 H   0  0  0  0  0  0  0  0  0  0  0  0
  138.5029   80.9022  223.7569 H   0  0  0  0  0  0  0  0  0  0  0  0
  140.5005   82.1524  224.0955 H   0  0  0  0  0  0  0  0  0  0  0  0
  142.9855   82.2455  224.0445 H   0  0  0  0  0  0  0  0  0  0  0  0
  144.2494   80.2617  223.3752 H   0  0  0  0  0  0  0  0  0  0  0  0
  143.1560   78.1385  222.7288 H   0  0  0  0  0  0  0  0  0  0  0  0
  1  2  2  0
  2  3  1  0
  3  4  1  0
  4  5  1  0
  5  6  2  0
  5  7  1  0
  7  8  1  0
  8  9  1  0
  9 10  1  0
 10 11  1  0
 11 12  1  0
 12 13  1  0
 13 14  2  0
 14 15  1  0
 15 16  2  0
 16 17  1  0
 17 18  2  0
  2 19  1  0
 19 20  2  0
 20 21  1  0
 21 22  2  0
 22 23  1  0
 23 24  2  0
 24 25  1  0
 25 26  2  0
 26 27  1  0
 27 28  2  0
 11  7  1  0
 18 13  1  0
 28 19  1  0
 27 22  1  0
  3 29  1  0
  4 30  1  0
  4 31  1  0
  8 32  1  0
  8 33  1  0
  9 34  1  0
  9 35  1  0
 10 36  1  0
 10 37  1  0
 11 38  1  6
 12 39  1  0
 12 40  1  0
 14 41  1  0
 15 42  1  0
 16 43  1  0
 17 44  1  0
 20 45  1  0
 21 46  1  0
 23 47  1  0
 24 48  1  0
 25 49  1  0
 26 50  1  0
M  END
>  <smiles>  (34) 
O=C(NCC(=O)N1CCCC1Cc1ccccn1)c1ccc2ccccc2n1

>  <score_type>  (34) 
oracle

>  <origin>  (34) 
autodockgpu

>  <m_score__min__energy>  (34) 
-8.8499999999999996

>  <m_primary>  (34) 
energy

>  <rmsd>  (34) 
8.435543725309063

>  <m_score__min__rmsd>  (34) 
8.435543725309063

>  <meeko>  (34) 
{"free_energy": -8.34, "intermolecular_energy": -10.13, "internal_energy": -1.68, "cluster_size": 11, "cluster_id": 2, "rank_in_cluster": 9}

>  <energy>  (34) 
-8.46

>  <cluster_rmsd>  (34) 
0.54

>  <cluster>  (34) 
4

$$$$

     RDKit          3D

 50 53  0  0  0  0  0  0  0  0999 V2000
  140.6640   70.9720  221.3990 O   0  0  0  0  0  0  0  0  0  0  0  0
  140.2710   71.5870  222.4280 C   0  0  0  0  0  0  0  0  0  0  0  0
  139.9340   72.9770  222.3350 N   0  0  0  0  0  0  0  0  0  0  0  0
  140.0210   73.7490  221.1400 C   0  0  0  0  0  0  0  0  0  0  0  0
  139.9350   75.2040  221.2780 C   0  0  0  0  0  0  0  0  0  0  0  0
  139.2530   75.5620  222.3370 O   0  0  0  0  0  0  0  0  0  0  0  0
  140.4410   76.2390  220.5090 N   0  0  0  0  0  0  0  0  0  0  0  0
  140.8390   76.3000  219.0900 C   0  0  0  0  0  0  0  0  0  0  0  0
  141.8240   77.4520  218.9590 C   0  0  0  0  0  0  0  0  0  0  0  0
  142.1460   77.7190  220.4040 C   0  0  0  0  0  0  0  0  0  0  0  0
  140.7260   77.5780  220.9800 C   0  0  2  0  0  0  0  0  0  0  0  0
  140.7160   77.8610  222.4100 C   0  0  0  0  0  0  0  0  0  0  0  0
  141.1600   79.1830  222.8580 C   0  0  0  0  0  0  0  0  0  0  0  0
  142.4160   79.2340  223.4890 C   0  0  0  0  0  0  0  0  0  0  0  0
  142.9130   80.4280  223.9410 C   0  0  0  0  0  0  0  0  0  0  0  0
  142.2120   81.6040  223.7990 C   0  0  0  0  0  0  0  0  0  0  0  0
  140.9830   81.5280  223.1770 C   0  0  0  0  0  0  0  0  0  0  0  0
  140.5250   80.3460  222.7460 N   0  0  0  0  0  0  0  0  0  0  0  0
  140.1640   70.8760  223.7180 C   0  0  0  0  0  0  0  0  0  0  0  0
  139.5710   69.6400  223.7480 C   0  0  0  0  0  0  0  0  0  0  0  0
  139.4650   68.9670  224.9430 C   0  0  0  0  0  0  0  0  0  0  0  0
  139.9530   69.5380  226.1030 C   0  0  0  0  0  0  0  0  0  0  0  0
  139.8350   68.8420  227.2960 C   0  0  0  0  0  0  0  0  0  0  0  0
  140.3200   69.4200  228.4310 C   0  0  0  0  0  0  0  0  0  0  0  0
  140.9040   70.6580  228.3480 C   0  0  0  0  0  0  0  0  0  0  0  0
  141.0350   71.3720  227.1760 C   0  0  0  0  0  0  0  0  0  0  0  0
  140.5370   70.7770  226.0270 C   0  0  0  0  0  0  0  0  0  0  0  0
  140.6360   71.4250  224.8520 N   0  0  0  0  0  0  0  0  0  0  0  0
  139.6040   73.4000  223.2550 H   0  0  0  0  0  0  0  0  0  0  0  0
  140.9861   73.5177  220.6656 H   0  0  0  0  0  0  0  0  0  0  0  0
  139.1346   73.4660  220.5533 H   0  0  0  0  0  0  0  0  0  0  0  0
  141.3180   75.3563  218.7901 H   0  0  0  0  0  0  0  0  0  0  0  0
  139.9642   76.4529  218.4409 H   0  0  0  0  0  0  0  0  0  0  0  0
  142.7197   77.1555  218.3935 H   0  0  0  0  0  0  0  0  0  0  0  0
  141.4333   78.3232  218.4127 H   0  0  0  0  0  0  0  0  0  0  0  0
  142.8386   76.9723  220.8197 H   0  0  0  0  0  0  0  0  0  0  0  0
  142.6555   78.6712  220.6133 H   0  0  0  0  0  0  0  0  0  0  0  0
  139.9369   78.2794  220.6713 H   0  0  0  0  0  0  0  0  0  0  0  0
  139.6822   77.7280  222.7614 H   0  0  0  0  0  0  0  0  0  0  0  0
  141.4595   77.1675  222.8298 H   0  0  0  0  0  0  0  0  0  0  0  0
  143.0013   78.3119  223.6200 H   0  0  0  0  0  0  0  0  0  0  0  0
  143.8980   80.4474  224.4302 H   0  0  0  0  0  0  0  0  0  0  0  0
  142.6134   82.5606  224.1647 H   0  0  0  0  0  0  0  0  0  0  0  0
  140.3802   82.4372  223.0353 H   0  0  0  0  0  0  0  0  0  0  0  0
  139.1826   69.1896  222.8226 H   0  0  0  0  0  0  0  0  0  0  0  0
  138.9919   67.9745  224.9753 H   0  0  0  0  0  0  0  0  0  0  0  0
  139.3623   67.8492  227.3259 H   0  0  0  0  0  0  0  0  0  0  0  0
  140.2442   68.9017  229.3983 H   0  0  0  0  0  0  0  0  0  0  0  0
  141.2917   71.1090  229.2734 H   0  0  0  0  0  0  0  0  0  0  0  0
  141.5106   72.3636  227.1536 H   0  0  0  0  0  0  0  0  0  0  0  0
  1  2  2  0
  2  3  1  0
  3  4  1  0
  4  5  1  0
  5  6  2  0
  5  7  1  0
  7  8  1  0
  8  9  1  0
  9 10  1  0
 10 11  1  0
 11 12  1  0
 12 13  1  0
 13 14  2  0
 14 15  1  0
 15 16  2  0
 16 17  1  0
 17 18  2  0
  2 19  1  0
 19 20  2  0
 20 21  1  0
 21 22  2  0
 22 23  1  0
 23 24  2  0
 24 25  1  0
 25 26  2  0
 26 27  1  0
 27 28  2  0
 11  7  1  0
 18 13  1  0
 28 19  1  0
 27 22  1  0
  3 29  1  0
  4 30  1  0
  4 31  1  0
  8 32  1  0
  8 33  1  0
  9 34  1  0
  9 35  1  0
 10 36  1  0
 10 37  1  0
 11 38  1  6
 12 39  1  0
 12 40  1  0
 14 41  1  0
 15 42  1  0
 16 43  1  0
 17 44  1  0
 20 45  1  0
 21 46  1  0
 23 47  1  0
 24 48  1  0
 25 49  1  0
 26 50  1  0
M  END
>  <smiles>  (35) 
O=C(NCC(=O)N1CCCC1Cc1ccccn1)c1ccc2ccccc2n1

>  <score_type>  (35) 
oracle

>  <origin>  (35) 
autodockgpu

>  <m_score__min__energy>  (35) 
-8.8499999999999996

>  <m_primary>  (35) 
energy

>  <rmsd>  (35) 
1.7649362833339026

>  <m_score__min__rmsd>  (35) 
1.7649362833339026

>  <meeko>  (35) 
{"free_energy": -8.66, "intermolecular_energy": -10.45, "internal_energy": -1.49, "cluster_size": 18, "cluster_id": 1, "rank_in_cluster": 11}

>  <energy>  (35) 
-8.2

>  <cluster_rmsd>  (35) 
1.15

>  <cluster>  (35) 
4

$$$$

     RDKit          3D

 50 53  0  0  0  0  0  0  0  0999 V2000
  137.5620   76.0570  222.4830 O   0  0  0  0  0  0  0  0  0  0  0  0
  138.7960   76.2750  222.3310 C   0  0  0  0  0  0  0  0  0  0  0  0
  139.6320   75.2480  221.7840 N   0  0  0  0  0  0  0  0  0  0  0  0
  139.1740   73.9550  221.3960 C   0  0  0  0  0  0  0  0  0  0  0  0
  139.6490   72.8160  222.1820 C   0  0  0  0  0  0  0  0  0  0  0  0
  140.8270   73.0350  222.7110 O   0  0  0  0  0  0  0  0  0  0  0  0
  139.0820   71.5840  222.4630 N   0  0  0  0  0  0  0  0  0  0  0  0
  137.9710   70.8500  221.8290 C   0  0  0  0  0  0  0  0  0  0  0  0
  137.4320   69.8820  222.8710 C   0  0  0  0  0  0  0  0  0  0  0  0
  138.0880   70.4090  224.1180 C   0  0  0  0  0  0  0  0  0  0  0  0
  139.4830   70.6960  223.5350 C   0  0  2  0  0  0  0  0  0  0  0  0
  140.3900   71.1740  224.5710 C   0  0  0  0  0  0  0  0  0  0  0  0
  140.4720   70.4170  225.8230 C   0  0  0  0  0  0  0  0  0  0  0  0
  140.7130   71.1690  226.9860 C   0  0  0  0  0  0  0  0  0  0  0  0
  140.8060   70.5460  228.2030 C   0  0  0  0  0  0  0  0  0  0  0  0
  140.6710   69.1830  228.3310 C   0  0  0  0  0  0  0  0  0  0  0  0
  140.4350   68.4670  227.1750 C   0  0  0  0  0  0  0  0  0  0  0  0
  140.3490   69.1050  226.0010 N   0  0  0  0  0  0  0  0  0  0  0  0
  139.3680   77.5810  222.7180 C   0  0  0  0  0  0  0  0  0  0  0  0
  138.5220   78.5920  223.0930 C   0  0  0  0  0  0  0  0  0  0  0  0
  139.0440   79.8120  223.4560 C   0  0  0  0  0  0  0  0  0  0  0  0
  140.4100   80.0120  223.4400 C   0  0  0  0  0  0  0  0  0  0  0  0
  140.9130   81.2500  223.8090 C   0  0  0  0  0  0  0  0  0  0  0  0
  142.2640   81.4310  223.7870 C   0  0  0  0  0  0  0  0  0  0  0  0
  143.0670   80.3870  223.4040 C   0  0  0  0  0  0  0  0  0  0  0  0
  142.5950   79.1460  223.0320 C   0  0  0  0  0  0  0  0  0  0  0  0
  141.2200   78.9720  223.0570 C   0  0  0  0  0  0  0  0  0  0  0  0
  140.6990   77.7830  222.7050 N   0  0  0  0  0  0  0  0  0  0  0  0
  140.6540   75.5360  221.6850 H   0  0  0  0  0  0  0  0  0  0  0  0
  138.0755   73.9617  221.4528 H   0  0  0  0  0  0  0  0  0  0  0  0
  139.5867   73.7974  220.3886 H   0  0  0  0  0  0  0  0  0  0  0  0
  137.1819   71.5511  221.5195 H   0  0  0  0  0  0  0  0  0  0  0  0
  138.3137   70.3135  220.9319 H   0  0  0  0  0  0  0  0  0  0  0  0
  136.3353   69.9316  222.9395 H   0  0  0  0  0  0  0  0  0  0  0  0
  137.6439   68.8235  222.6595 H   0  0  0  0  0  0  0  0  0  0  0  0
  137.5985   71.3209  224.4906 H   0  0  0  0  0  0  0  0  0  0  0  0
  138.0625   69.7406  224.9913 H   0  0  0  0  0  0  0  0  0  0  0  0
  140.0982   69.8686  223.1516 H   0  0  0  0  0  0  0  0  0  0  0  0
  141.4000   71.1950  224.1358 H   0  0  0  0  0  0  0  0  0  0  0  0
  139.9747   72.1482  224.8684 H   0  0  0  0  0  0  0  0  0  0  0  0
  140.8273   72.2610  226.9189 H   0  0  0  0  0  0  0  0  0  0  0  0
  140.9936   71.1520  229.1016 H   0  0  0  0  0  0  0  0  0  0  0  0
  140.7476   68.6866  229.3096 H   0  0  0  0  0  0  0  0  0  0  0  0
  140.3178   67.3741  227.2181 H   0  0  0  0  0  0  0  0  0  0  0  0
  137.4342   78.4292  223.1037 H   0  0  0  0  0  0  0  0  0  0  0  0
  138.3725   80.6288  223.7592 H   0  0  0  0  0  0  0  0  0  0  0  0
  140.2394   82.0652  224.1117 H   0  0  0  0  0  0  0  0  0  0  0  0
  142.7030   82.3986  224.0718 H   0  0  0  0  0  0  0  0  0  0  0  0
  144.1548   80.5499  223.3930 H   0  0  0  0  0  0  0  0  0  0  0  0
  143.2749   78.3354  222.7308 H   0  0  0  0  0  0  0  0  0  0  0  0
  1  2  2  0
  2  3  1  0
  3  4  1  0
  4  5  1  0
  5  6  2  0
  5  7  1  0
  7  8  1  0
  8  9  1  0
  9 10  1  0
 10 11  1  0
 11 12  1  0
 12 13  1  0
 13 14  2  0
 14 15  1  0
 15 16  2  0
 16 17  1  0
 17 18  2  0
  2 19  1  0
 19 20  2  0
 20 21  1  0
 21 22  2  0
 22 23  1  0
 23 24  2  0
 24 25  1  0
 25 26  2  0
 26 27  1  0
 27 28  2  0
 11  7  1  0
 18 13  1  0
 28 19  1  0
 27 22  1  0
  3 29  1  0
  4 30  1  0
  4 31  1  0
  8 32  1  0
  8 33  1  0
  9 34  1  0
  9 35  1  0
 10 36  1  0
 10 37  1  0
 11 38  1  6
 12 39  1  0
 12 40  1  0
 14 41  1  0
 15 42  1  0
 16 43  1  0
 17 44  1  0
 20 45  1  0
 21 46  1  0
 23 47  1  0
 24 48  1  0
 25 49  1  0
 26 50  1  0
M  END
>  <smiles>  (36) 
O=C(NCC(=O)N1CCCC1Cc1ccccn1)c1ccc2ccccc2n1

>  <score_type>  (36) 
oracle

>  <origin>  (36) 
autodockgpu

>  <m_score__min__energy>  (36) 
-8.8499999999999996

>  <m_primary>  (36) 
energy

>  <rmsd>  (36) 
8.378811709079548

>  <m_score__min__rmsd>  (36) 
8.378811709079548

>  <meeko>  (36) 
{"free_energy": -8.54, "intermolecular_energy": -10.33, "internal_energy": -1.43, "cluster_size": 11, "cluster_id": 2, "rank_in_cluster": 2}

>  <energy>  (36) 
-8.16

>  <cluster_rmsd>  (36) 
1.2

>  <cluster>  (36) 
4

$$$$

     RDKit          3D

 50 53  0  0  0  0  0  0  0  0999 V2000
  141.2540   72.1290  221.7470 O   0  0  0  0  0  0  0  0  0  0  0  0
  140.3230   72.3500  222.5700 C   0  0  0  0  0  0  0  0  0  0  0  0
  139.4110   73.4290  222.3330 N   0  0  0  0  0  0  0  0  0  0  0  0
  139.4790   74.3110  221.2150 C   0  0  0  0  0  0  0  0  0  0  0  0
  140.6850   75.1300  221.0840 C   0  0  0  0  0  0  0  0  0  0  0  0
  141.3250   75.2550  222.2190 O   0  0  0  0  0  0  0  0  0  0  0  0
  141.2550   75.7720  219.9960 N   0  0  0  0  0  0  0  0  0  0  0  0
  142.2230   75.3090  218.9840 C   0  0  0  0  0  0  0  0  0  0  0  0
  142.8990   76.5510  218.4240 C   0  0  0  0  0  0  0  0  0  0  0  0
  142.4760   77.5860  219.4300 C   0  0  0  0  0  0  0  0  0  0  0  0
  141.0130   77.1450  219.6050 C   0  0  2  0  0  0  0  0  0  0  0  0
  140.3050   78.0420  220.5100 C   0  0  0  0  0  0  0  0  0  0  0  0
  141.0820   78.7570  221.5260 C   0  0  0  0  0  0  0  0  0  0  0  0
  141.0730   78.2000  222.8170 C   0  0  0  0  0  0  0  0  0  0  0  0
  141.7710   78.8000  223.8320 C   0  0  0  0  0  0  0  0  0  0  0  0
  142.4960   79.9520  223.6290 C   0  0  0  0  0  0  0  0  0  0  0  0
  142.4900   80.4790  222.3540 C   0  0  0  0  0  0  0  0  0  0  0  0
  141.7970   79.8690  221.3840 N   0  0  0  0  0  0  0  0  0  0  0  0
  140.1800   71.4980  223.7690 C   0  0  0  0  0  0  0  0  0  0  0  0
  139.5350   70.2950  223.6550 C   0  0  0  0  0  0  0  0  0  0  0  0
  139.3960   69.4930  224.7650 C   0  0  0  0  0  0  0  0  0  0  0  0
  139.9040   69.9040  225.9820 C   0  0  0  0  0  0  0  0  0  0  0  0
  139.7520   69.0790  227.0860 C   0  0  0  0  0  0  0  0  0  0  0  0
  140.2580   69.5000  228.2800 C   0  0  0  0  0  0  0  0  0  0  0  0
  140.8960   70.7130  228.3410 C   0  0  0  0  0  0  0  0  0  0  0  0
  141.0610   71.5520  227.2590 C   0  0  0  0  0  0  0  0  0  0  0  0
  140.5420   71.1170  226.0500 C   0  0  0  0  0  0  0  0  0  0  0  0
  140.6730   71.8920  224.9580 N   0  0  0  0  0  0  0  0  0  0  0  0
  138.6560   73.5240  223.0790 H   0  0  0  0  0  0  0  0  0  0  0  0
  139.3934   73.6993  220.3048 H   0  0  0  0  0  0  0  0  0  0  0  0
  138.6618   75.0308  221.3704 H   0  0  0  0  0  0  0  0  0  0  0  0
  142.9696   74.6480  219.4483 H   0  0  0  0  0  0  0  0  0  0  0  0
  141.7208   74.7394  218.1881 H   0  0  0  0  0  0  0  0  0  0  0  0
  143.9928   76.4379  218.3963 H   0  0  0  0  0  0  0  0  0  0  0  0
  142.6234   76.7883  217.3859 H   0  0  0  0  0  0  0  0  0  0  0  0
  143.0469   77.5112  220.3673 H   0  0  0  0  0  0  0  0  0  0  0  0
  142.6277   78.6338  219.1316 H   0  0  0  0  0  0  0  0  0  0  0  0
  140.3192   77.1956  218.7529 H   0  0  0  0  0  0  0  0  0  0  0  0
  139.8026   78.7998  219.8909 H   0  0  0  0  0  0  0  0  0  0  0  0
  139.6449   77.3792  221.0888 H   0  0  0  0  0  0  0  0  0  0  0  0
  140.5036   77.2794  223.0128 H   0  0  0  0  0  0  0  0  0  0  0  0
  141.7513   78.3492  224.8352 H   0  0  0  0  0  0  0  0  0  0  0  0
  143.0550   80.4310  224.4464 H   0  0  0  0  0  0  0  0  0  0  0  0
  143.0532   81.3981  222.1347 H   0  0  0  0  0  0  0  0  0  0  0  0
  139.1313   69.9723  222.6840 H   0  0  0  0  0  0  0  0  0  0  0  0
  138.8804   68.5248  224.6829 H   0  0  0  0  0  0  0  0  0  0  0  0
  139.2370   68.1108  227.0008 H   0  0  0  0  0  0  0  0  0  0  0  0
  140.1562   68.8766  229.1806 H   0  0  0  0  0  0  0  0  0  0  0  0
  141.3004   71.0359  229.3117 H   0  0  0  0  0  0  0  0  0  0  0  0
  141.5787   72.5182  227.3511 H   0  0  0  0  0  0  0  0  0  0  0  0
  1  2  2  0
  2  3  1  0
  3  4  1  0
  4  5  1  0
  5  6  2  0
  5  7  1  0
  7  8  1  0
  8  9  1  0
  9 10  1  0
 10 11  1  0
 11 12  1  0
 12 13  1  0
 13 14  2  0
 14 15  1  0
 15 16  2  0
 16 17  1  0
 17 18  2  0
  2 19  1  0
 19 20  2  0
 20 21  1  0
 21 22  2  0
 22 23  1  0
 23 24  2  0
 24 25  1  0
 25 26  2  0
 26 27  1  0
 27 28  2  0
 11  7  1  0
 18 13  1  0
 28 19  1  0
 27 22  1  0
  3 29  1  0
  4 30  1  0
  4 31  1  0
  8 32  1  0
  8 33  1  0
  9 34  1  0
  9 35  1  0
 10 36  1  0
 10 37  1  0
 11 38  1  6
 12 39  1  0
 12 40  1  0
 14 41  1  0
 15 42  1  0
 16 43  1  0
 17 44  1  0
 20 45  1  0
 21 46  1  0
 23 47  1  0
 24 48  1  0
 25 49  1  0
 26 50  1  0
M  END
>  <smiles>  (37) 
O=C(NCC(=O)N1CCCC1Cc1ccccn1)c1ccc2ccccc2n1

>  <score_type>  (37) 
oracle

>  <origin>  (37) 
autodockgpu

>  <m_score__min__energy>  (37) 
-8.8499999999999996

>  <m_primary>  (37) 
energy

>  <rmsd>  (37) 
1.8780655897708718

>  <m_score__min__rmsd>  (37) 
1.8780655897708718

>  <meeko>  (37) 
{"free_energy": -8.75, "intermolecular_energy": -10.54, "internal_energy": -1.4, "cluster_size": 18, "cluster_id": 1, "rank_in_cluster": 6}

>  <energy>  (37) 
-8.14

>  <cluster_rmsd>  (37) 
1.39

>  <cluster>  (37) 
4

$$$$

     RDKit          3D

 50 53  0  0  0  0  0  0  0  0999 V2000
  139.4810   74.2400  221.9500 O   0  0  0  0  0  0  0  0  0  0  0  0
  140.5940   74.7720  221.6860 C   0  0  0  0  0  0  0  0  0  0  0  0
  140.7570   76.1870  221.8470 N   0  0  0  0  0  0  0  0  0  0  0  0
  139.7290   77.0720  222.2830 C   0  0  0  0  0  0  0  0  0  0  0  0
  140.1500   78.3440  222.8730 C   0  0  0  0  0  0  0  0  0  0  0  0
  139.1600   78.9730  223.4550 O   0  0  0  0  0  0  0  0  0  0  0  0
  141.3820   78.9750  222.9290 N   0  0  0  0  0  0  0  0  0  0  0  0
  142.1960   79.4330  224.0720 C   0  0  0  0  0  0  0  0  0  0  0  0
  143.1140   80.5260  223.5460 C   0  0  0  0  0  0  0  0  0  0  0  0
  142.4830   80.8130  222.2110 C   0  0  0  0  0  0  0  0  0  0  0  0
  142.1830   79.3650  221.7880 C   0  0  2  0  0  0  0  0  0  0  0  0
  141.6060   79.3240  220.4500 C   0  0  0  0  0  0  0  0  0  0  0  0
  142.1650   78.3760  219.4830 C   0  0  0  0  0  0  0  0  0  0  0  0
  142.3800   78.8700  218.1840 C   0  0  0  0  0  0  0  0  0  0  0  0
  142.8990   78.0550  217.2130 C   0  0  0  0  0  0  0  0  0  0  0  0
  143.2240   76.7420  217.4670 C   0  0  0  0  0  0  0  0  0  0  0  0
  143.0040   76.2810  218.7490 C   0  0  0  0  0  0  0  0  0  0  0  0
  142.4950   77.1030  219.6750 N   0  0  0  0  0  0  0  0  0  0  0  0
  141.7180   73.9380  221.2130 C   0  0  0  0  0  0  0  0  0  0  0  0
  141.4850   72.6220  220.9090 C   0  0  0  0  0  0  0  0  0  0  0  0
  142.5240   71.8340  220.4670 C   0  0  0  0  0  0  0  0  0  0  0  0
  143.7890   72.3710  220.3330 C   0  0  0  0  0  0  0  0  0  0  0  0
  144.8200   71.5590  219.8870 C   0  0  0  0  0  0  0  0  0  0  0  0
  146.0640   72.1050  219.7620 C   0  0  0  0  0  0  0  0  0  0  0  0
  146.2440   73.4260  220.0790 C   0  0  0  0  0  0  0  0  0  0  0  0
  145.2370   74.2570  220.5250 C   0  0  0  0  0  0  0  0  0  0  0  0
  143.9770   73.6930  220.6500 C   0  0  0  0  0  0  0  0  0  0  0  0
  142.9540   74.4530  221.0810 N   0  0  0  0  0  0  0  0  0  0  0  0
  141.7360   76.5340  221.6100 H   0  0  0  0  0  0  0  0  0  0  0  0
  139.0992   77.3034  221.4113 H   0  0  0  0  0  0  0  0  0  0  0  0
  139.2183   76.5361  223.0966 H   0  0  0  0  0  0  0  0  0  0  0  0
  141.5459   79.8328  224.8641 H   0  0  0  0  0  0  0  0  0  0  0  0
  142.7757   78.6030  224.5022 H   0  0  0  0  0  0  0  0  0  0  0  0
  143.1016   81.4122  224.1976 H   0  0  0  0  0  0  0  0  0  0  0  0
  144.1751   80.2409  223.4941 H   0  0  0  0  0  0  0  0  0  0  0  0
  141.5677   81.4157  222.3057 H   0  0  0  0  0  0  0  0  0  0  0  0
  143.0935   81.4001  221.5092 H   0  0  0  0  0  0  0  0  0  0  0  0
  143.0107   78.6583  221.6285 H   0  0  0  0  0  0  0  0  0  0  0  0
  140.5385   79.0835  220.5625 H   0  0  0  0  0  0  0  0  0  0  0  0
  141.8339   80.3126  220.0249 H   0  0  0  0  0  0  0  0  0  0  0  0
  142.1305   79.9147  217.9468 H   0  0  0  0  0  0  0  0  0  0  0  0
  143.0603   78.4608  216.2034 H   0  0  0  0  0  0  0  0  0  0  0  0
  143.6398   76.0903  216.6845 H   0  0  0  0  0  0  0  0  0  0  0  0
  143.2464   75.2401  219.0095 H   0  0  0  0  0  0  0  0  0  0  0  0
  140.4756   72.1986  221.0173 H   0  0  0  0  0  0  0  0  0  0  0  0
  142.3463   70.7768  220.2207 H   0  0  0  0  0  0  0  0  0  0  0  0
  144.6400   70.5022  219.6403 H   0  0  0  0  0  0  0  0  0  0  0  0
  146.9094   71.4943  219.4122 H   0  0  0  0  0  0  0  0  0  0  0  0
  147.2533   73.8498  219.9712 H   0  0  0  0  0  0  0  0  0  0  0  0
  145.4245   75.3131  220.7689 H   0  0  0  0  0  0  0  0  0  0  0  0
  1  2  2  0
  2  3  1  0
  3  4  1  0
  4  5  1  0
  5  6  2  0
  5  7  1  0
  7  8  1  0
  8  9  1  0
  9 10  1  0
 10 11  1  0
 11 12  1  0
 12 13  1  0
 13 14  2  0
 14 15  1  0
 15 16  2  0
 16 17  1  0
 17 18  2  0
  2 19  1  0
 19 20  2  0
 20 21  1  0
 21 22  2  0
 22 23  1  0
 23 24  2  0
 24 25  1  0
 25 26  2  0
 26 27  1  0
 27 28  2  0
 11  7  1  0
 18 13  1  0
 28 19  1  0
 27 22  1  0
  3 29  1  0
  4 30  1  0
  4 31  1  0
  8 32  1  0
  8 33  1  0
  9 34  1  0
  9 35  1  0
 10 36  1  0
 10 37  1  0
 11 38  1  6
 12 39  1  0
 12 40  1  0
 14 41  1  0
 15 42  1  0
 16 43  1  0
 17 44  1  0
 20 45  1  0
 21 46  1  0
 23 47  1  0
 24 48  1  0
 25 49  1  0
 26 50  1  0
M  END
>  <smiles>  (38) 
O=C(NCC(=O)N1CCCC1Cc1ccccn1)c1ccc2ccccc2n1

>  <score_type>  (38) 
oracle

>  <origin>  (38) 
autodockgpu

>  <m_score__min__energy>  (38) 
-8.8499999999999996

>  <m_primary>  (38) 
energy

>  <rmsd>  (38) 
6.546572961672769

>  <m_score__min__rmsd>  (38) 
6.546572961672769

>  <meeko>  (38) 
{"free_energy": -7.17, "intermolecular_energy": -8.96, "internal_energy": -2.88, "cluster_size": 6, "cluster_id": 5, "rank_in_cluster": 1}

>  <energy>  (38) 
-8.07

>  <cluster_rmsd>  (38) 
0.88

>  <cluster>  (38) 
4

$$$$

     RDKit          3D

 50 53  0  0  0  0  0  0  0  0999 V2000
  139.5340   74.1540  221.9840 O   0  0  0  0  0  0  0  0  0  0  0  0
  140.6160   74.7310  221.6870 C   0  0  0  0  0  0  0  0  0  0  0  0
  140.7280   76.1500  221.8530 N   0  0  0  0  0  0  0  0  0  0  0  0
  139.6810   76.9920  222.3300 C   0  0  0  0  0  0  0  0  0  0  0  0
  140.0310   78.3790  222.6410 C   0  0  0  0  0  0  0  0  0  0  0  0
  138.9760   79.1520  222.7130 O   0  0  0  0  0  0  0  0  0  0  0  0
  141.2480   78.9970  222.8750 N   0  0  0  0  0  0  0  0  0  0  0  0
  141.9430   79.3480  224.1290 C   0  0  0  0  0  0  0  0  0  0  0  0
  142.9050   80.4780  223.7960 C   0  0  0  0  0  0  0  0  0  0  0  0
  142.4080   80.8850  222.4350 C   0  0  0  0  0  0  0  0  0  0  0  0
  142.1580   79.4810  221.8580 C   0  0  2  0  0  0  0  0  0  0  0  0
  141.7170   79.5610  220.4710 C   0  0  0  0  0  0  0  0  0  0  0  0
  142.1990   78.5460  219.5310 C   0  0  0  0  0  0  0  0  0  0  0  0
  142.3370   78.9560  218.1930 C   0  0  0  0  0  0  0  0  0  0  0  0
  142.7810   78.0740  217.2440 C   0  0  0  0  0  0  0  0  0  0  0  0
  143.1020   76.7740  217.5570 C   0  0  0  0  0  0  0  0  0  0  0  0
  142.9580   76.3950  218.8760 C   0  0  0  0  0  0  0  0  0  0  0  0
  142.5220   77.2810  219.7810 N   0  0  0  0  0  0  0  0  0  0  0  0
  141.7540   73.9450  221.1690 C   0  0  0  0  0  0  0  0  0  0  0  0
  141.5230   72.6870  220.6780 C   0  0  0  0  0  0  0  0  0  0  0  0
  142.5760   71.9450  220.1930 C   0  0  0  0  0  0  0  0  0  0  0  0
  143.8540   72.4690  220.2050 C   0  0  0  0  0  0  0  0  0  0  0  0
  144.8990   71.7030  219.7110 C   0  0  0  0  0  0  0  0  0  0  0  0
  146.1540   72.2350  219.7310 C   0  0  0  0  0  0  0  0  0  0  0  0
  146.3320   73.4980  220.2340 C   0  0  0  0  0  0  0  0  0  0  0  0
  145.3120   74.2810  220.7300 C   0  0  0  0  0  0  0  0  0  0  0  0
  144.0390   73.7320  220.7070 C   0  0  0  0  0  0  0  0  0  0  0  0
  143.0020   74.4490  221.1780 N   0  0  0  0  0  0  0  0  0  0  0  0
  141.6840   76.5380  221.5850 H   0  0  0  0  0  0  0  0  0  0  0  0
  138.8956   77.0129  221.5601 H   0  0  0  0  0  0  0  0  0  0  0  0
  139.3775   76.5523  223.2915 H   0  0  0  0  0  0  0  0  0  0  0  0
  141.2160   79.6798  224.8849 H   0  0  0  0  0  0  0  0  0  0  0  0
  142.4800   78.4801  224.5392 H   0  0  0  0  0  0  0  0  0  0  0  0
  142.8249   81.3032  224.5189 H   0  0  0  0  0  0  0  0  0  0  0  0
  143.9671   80.1932  223.8249 H   0  0  0  0  0  0  0  0  0  0  0  0
  141.4851   81.4809  222.4913 H   0  0  0  0  0  0  0  0  0  0  0  0
  143.0824   81.5293  221.8518 H   0  0  0  0  0  0  0  0  0  0  0  0
  143.0002   78.7870  221.7201 H   0  0  0  0  0  0  0  0  0  0  0  0
  140.6184   79.5065  220.4746 H   0  0  0  0  0  0  0  0  0  0  0  0
  142.1504   80.5020  220.1014 H   0  0  0  0  0  0  0  0  0  0  0  0
  142.0875   79.9886  217.9076 H   0  0  0  0  0  0  0  0  0  0  0  0
  142.8836   78.4147  216.2032 H   0  0  0  0  0  0  0  0  0  0  0  0
  143.4572   76.0687  216.7912 H   0  0  0  0  0  0  0  0  0  0  0  0
  143.2008   75.3672  219.1837 H   0  0  0  0  0  0  0  0  0  0  0  0
  140.5038   72.2731  220.6714 H   0  0  0  0  0  0  0  0  0  0  0  0
  142.3997   70.9345  219.7957 H   0  0  0  0  0  0  0  0  0  0  0  0
  144.7201   70.6930  219.3136 H   0  0  0  0  0  0  0  0  0  0  0  0
  147.0106   71.6599  219.3495 H   0  0  0  0  0  0  0  0  0  0  0  0
  147.3512   73.9117  220.2422 H   0  0  0  0  0  0  0  0  0  0  0  0
  145.4985   75.2908  221.1243 H   0  0  0  0  0  0  0  0  0  0  0  0
  1  2  2  0
  2  3  1  0
  3  4  1  0
  4  5  1  0
  5  6  2  0
  5  7  1  0
  7  8  1  0
  8  9  1  0
  9 10  1  0
 10 11  1  0
 11 12  1  0
 12 13  1  0
 13 14  2  0
 14 15  1  0
 15 16  2  0
 16 17  1  0
 17 18  2  0
  2 19  1  0
 19 20  2  0
 20 21  1  0
 21 22  2  0
 22 23  1  0
 23 24  2  0
 24 25  1  0
 25 26  2  0
 26 27  1  0
 27 28  2  0
 11  7  1  0
 18 13  1  0
 28 19  1  0
 27 22  1  0
  3 29  1  0
  4 30  1  0
  4 31  1  0
  8 32  1  0
  8 33  1  0
  9 34  1  0
  9 35  1  0
 10 36  1  0
 10 37  1  0
 11 38  1  6
 12 39  1  0
 12 40  1  0
 14 41  1  0
 15 42  1  0
 16 43  1  0
 17 44  1  0
 20 45  1  0
 21 46  1  0
 23 47  1  0
 24 48  1  0
 25 49  1  0
 26 50  1  0
M  END
>  <smiles>  (39) 
O=C(NCC(=O)N1CCCC1Cc1ccccn1)c1ccc2ccccc2n1

>  <score_type>  (39) 
oracle

>  <origin>  (39) 
autodockgpu

>  <m_score__min__energy>  (39) 
-8.8499999999999996

>  <m_primary>  (39) 
energy

>  <rmsd>  (39) 
6.593808855065051

>  <m_score__min__rmsd>  (39) 
6.593808855065051

>  <meeko>  (39) 
{"free_energy": -7.08, "intermolecular_energy": -8.87, "internal_energy": -2.89, "cluster_size": 6, "cluster_id": 5, "rank_in_cluster": 6}

>  <energy>  (39) 
-8.05

>  <cluster_rmsd>  (39) 
1.38

>  <cluster>  (39) 
4

$$$$

     RDKit          3D

 50 53  0  0  0  0  0  0  0  0999 V2000
  138.5250   75.6550  222.0130 O   0  0  0  0  0  0  0  0  0  0  0  0
  139.7300   75.9990  222.1600 C   0  0  0  0  0  0  0  0  0  0  0  0
  140.7720   75.0450  221.9220 N   0  0  0  0  0  0  0  0  0  0  0  0
  140.5520   73.6910  221.5320 C   0  0  0  0  0  0  0  0  0  0  0  0
  141.7350   72.8850  221.2290 C   0  0  0  0  0  0  0  0  0  0  0  0
  141.6180   71.6520  221.6530 O   0  0  0  0  0  0  0  0  0  0  0  0
  142.9220   73.1880  220.5810 N   0  0  0  0  0  0  0  0  0  0  0  0
  144.3140   72.7740  220.8420 C   0  0  0  0  0  0  0  0  0  0  0  0
  145.2110   73.8300  220.2140 C   0  0  0  0  0  0  0  0  0  0  0  0
  144.2170   74.9270  219.9450 C   0  0  0  0  0  0  0  0  0  0  0  0
  143.0560   74.0580  219.4310 C   0  0  2  0  0  0  0  0  0  0  0  0
  141.9330   74.8870  219.0140 C   0  0  0  0  0  0  0  0  0  0  0  0
  142.1870   76.2990  218.7130 C   0  0  0  0  0  0  0  0  0  0  0  0
  141.7670   77.2240  219.6850 C   0  0  0  0  0  0  0  0  0  0  0  0
  141.9630   78.5660  219.4880 C   0  0  0  0  0  0  0  0  0  0  0  0
  142.5680   79.0510  218.3520 C   0  0  0  0  0  0  0  0  0  0  0  0
  142.9710   78.1230  217.4140 C   0  0  0  0  0  0  0  0  0  0  0  0
  142.7640   76.8190  217.6350 N   0  0  0  0  0  0  0  0  0  0  0  0
  140.0570   77.3780  222.5770 C   0  0  0  0  0  0  0  0  0  0  0  0
  139.0370   78.2360  222.8940 C   0  0  0  0  0  0  0  0  0  0  0  0
  139.3300   79.5230  223.2840 C   0  0  0  0  0  0  0  0  0  0  0  0
  140.6440   79.9410  223.3540 C   0  0  0  0  0  0  0  0  0  0  0  0
  140.9150   81.2420  223.7490 C   0  0  0  0  0  0  0  0  0  0  0  0
  142.2180   81.6390  223.8110 C   0  0  0  0  0  0  0  0  0  0  0  0
  143.2020   80.7420  223.4840 C   0  0  0  0  0  0  0  0  0  0  0  0
  142.9610   79.4440  223.0880 C   0  0  0  0  0  0  0  0  0  0  0  0
  141.6340   79.0490  223.0260 C   0  0  0  0  0  0  0  0  0  0  0  0
  141.3360   77.7930  222.6470 N   0  0  0  0  0  0  0  0  0  0  0  0
  141.7520   75.4380  222.0620 H   0  0  0  0  0  0  0  0  0  0  0  0
  140.0128   73.1934  222.3515 H   0  0  0  0  0  0  0  0  0  0  0  0
  139.9993   73.7540  220.5830 H   0  0  0  0  0  0  0  0  0  0  0  0
  144.4958   72.7182  221.9254 H   0  0  0  0  0  0  0  0  0  0  0  0
  144.5167   71.7800  220.4168 H   0  0  0  0  0  0  0  0  0  0  0  0
  145.9968   74.1585  220.9101 H   0  0  0  0  0  0  0  0  0  0  0  0
  145.7607   73.4878  219.3248 H   0  0  0  0  0  0  0  0  0  0  0  0
  143.9498   75.4780  220.8588 H   0  0  0  0  0  0  0  0  0  0  0  0
  144.5554   75.7238  219.2663 H   0  0  0  0  0  0  0  0  0  0  0  0
  143.1754   73.4730  218.5071 H   0  0  0  0  0  0  0  0  0  0  0  0
  141.5107   74.4311  218.1063 H   0  0  0  0  0  0  0  0  0  0  0  0
  141.2716   74.9109  219.8926 H   0  0  0  0  0  0  0  0  0  0  0  0
  141.2800   76.8698  220.6055 H   0  0  0  0  0  0  0  0  0  0  0  0
  141.6273   79.2746  220.2595 H   0  0  0  0  0  0  0  0  0  0  0  0
  142.7234   80.1291  218.1984 H   0  0  0  0  0  0  0  0  0  0  0  0
  143.4613   78.4539  216.4866 H   0  0  0  0  0  0  0  0  0  0  0  0
  137.9915   77.8987  222.8372 H   0  0  0  0  0  0  0  0  0  0  0  0
  138.5172   80.2186  223.5399 H   0  0  0  0  0  0  0  0  0  0  0  0
  140.1006   81.9355  224.0055 H   0  0  0  0  0  0  0  0  0  0  0  0
  142.4757   82.6632  224.1187 H   0  0  0  0  0  0  0  0  0  0  0  0
  144.2476   81.0788  223.5412 H   0  0  0  0  0  0  0  0  0  0  0  0
  143.7808   78.7560  222.8339 H   0  0  0  0  0  0  0  0  0  0  0  0
  1  2  2  0
  2  3  1  0
  3  4  1  0
  4  5  1  0
  5  6  2  0
  5  7  1  0
  7  8  1  0
  8  9  1  0
  9 10  1  0
 10 11  1  0
 11 12  1  0
 12 13  1  0
 13 14  2  0
 14 15  1  0
 15 16  2  0
 16 17  1  0
 17 18  2  0
  2 19  1  0
 19 20  2  0
 20 21  1  0
 21 22  2  0
 22 23  1  0
 23 24  2  0
 24 25  1  0
 25 26  2  0
 26 27  1  0
 27 28  2  0
 11  7  1  0
 18 13  1  0
 28 19  1  0
 27 22  1  0
  3 29  1  0
  4 30  1  0
  4 31  1  0
  8 32  1  0
  8 33  1  0
  9 34  1  0
  9 35  1  0
 10 36  1  0
 10 37  1  0
 11 38  1  6
 12 39  1  0
 12 40  1  0
 14 41  1  0
 15 42  1  0
 16 43  1  0
 17 44  1  0
 20 45  1  0
 21 46  1  0
 23 47  1  0
 24 48  1  0
 25 49  1  0
 26 50  1  0
M  END
>  <smiles>  (40) 
O=C(NCC(=O)N1CCCC1Cc1ccccn1)c1ccc2ccccc2n1

>  <score_type>  (40) 
oracle

>  <origin>  (40) 
autodockgpu

>  <m_score__min__energy>  (40) 
-8.8499999999999996

>  <m_primary>  (40) 
energy

>  <rmsd>  (40) 
7.7596389799596786

>  <m_score__min__rmsd>  (40) 
7.7596389799596786

>  <meeko>  (40) 
{"free_energy": -6.93, "intermolecular_energy": -8.72, "internal_energy": -2.37, "cluster_size": 4, "cluster_id": 6, "rank_in_cluster": 1}

>  <energy>  (40) 
-7.8

>  <cluster_rmsd>  (40) 
1.35

>  <cluster>  (40) 
4

$$$$

     RDKit          3D

 50 53  0  0  0  0  0  0  0  0999 V2000
  141.0120   75.0880  220.8080 O   0  0  0  0  0  0  0  0  0  0  0  0
  140.1750   75.4740  221.6700 C   0  0  0  0  0  0  0  0  0  0  0  0
  139.1570   74.5720  222.1200 N   0  0  0  0  0  0  0  0  0  0  0  0
  138.9970   73.2360  221.6490 C   0  0  0  0  0  0  0  0  0  0  0  0
  139.6860   72.1800  222.3910 C   0  0  0  0  0  0  0  0  0  0  0  0
  140.6790   72.6450  223.1080 O   0  0  0  0  0  0  0  0  0  0  0  0
  139.4710   70.8140  222.4730 N   0  0  0  0  0  0  0  0  0  0  0  0
  139.0720   69.8240  221.4550 C   0  0  0  0  0  0  0  0  0  0  0  0
  138.4470   68.6550  222.2020 C   0  0  0  0  0  0  0  0  0  0  0  0
  138.2500   69.2580  223.5650 C   0  0  0  0  0  0  0  0  0  0  0  0
  139.5870   70.0120  223.6730 C   0  0  2  0  0  0  0  0  0  0  0  0
  139.7120   70.6640  224.9710 C   0  0  0  0  0  0  0  0  0  0  0  0
  140.1640   69.8600  226.1090 C   0  0  0  0  0  0  0  0  0  0  0  0
  140.6050   70.5760  227.2360 C   0  0  0  0  0  0  0  0  0  0  0  0
  141.0460   69.9080  228.3480 C   0  0  0  0  0  0  0  0  0  0  0  0
  141.0750   68.5330  228.4030 C   0  0  0  0  0  0  0  0  0  0  0  0
  140.6380   67.8540  227.2850 C   0  0  0  0  0  0  0  0  0  0  0  0
  140.2130   68.5360  226.2140 N   0  0  0  0  0  0  0  0  0  0  0  0
  140.2500   76.8480  222.2080 C   0  0  0  0  0  0  0  0  0  0  0  0
  139.0960   77.4660  222.6130 C   0  0  0  0  0  0  0  0  0  0  0  0
  139.1530   78.7460  223.1150 C   0  0  0  0  0  0  0  0  0  0  0  0
  140.3670   79.3980  223.2090 C   0  0  0  0  0  0  0  0  0  0  0  0
  140.3990   80.6870  223.7180 C   0  0  0  0  0  0  0  0  0  0  0  0
  141.6060   81.3170  223.8020 C   0  0  0  0  0  0  0  0  0  0  0  0
  142.7310   80.6550  223.3840 C   0  0  0  0  0  0  0  0  0  0  0  0
  142.7280   79.3740  222.8740 C   0  0  0  0  0  0  0  0  0  0  0  0
  141.4970   78.7420  222.7910 C   0  0  0  0  0  0  0  0  0  0  0  0
  141.4290   77.4900  222.3020 N   0  0  0  0  0  0  0  0  0  0  0  0
  138.5100   74.9900  222.8560 H   0  0  0  0  0  0  0  0  0  0  0  0
  137.9216   73.0053  221.6662 H   0  0  0  0  0  0  0  0  0  0  0  0
  139.4586   73.2294  220.6506 H   0  0  0  0  0  0  0  0  0  0  0  0
  138.3403   70.2661  220.7628 H   0  0  0  0  0  0  0  0  0  0  0  0
  139.9382   69.4962  220.8615 H   0  0  0  0  0  0  0  0  0  0  0  0
  137.4899   68.3531  221.7516 H   0  0  0  0  0  0  0  0  0  0  0  0
  139.0527   67.7368  222.1956 H   0  0  0  0  0  0  0  0  0  0  0  0
  137.3862   69.9383  223.5968 H   0  0  0  0  0  0  0  0  0  0  0  0
  138.0343   68.5472  224.3763 H   0  0  0  0  0  0  0  0  0  0  0  0
  140.5335   69.4516  223.6825 H   0  0  0  0  0  0  0  0  0  0  0  0
  140.4263   71.4921  224.8525 H   0  0  0  0  0  0  0  0  0  0  0  0
  138.6827   70.9511  225.2319 H   0  0  0  0  0  0  0  0  0  0  0  0
  140.5959   71.6759  227.2248 H   0  0  0  0  0  0  0  0  0  0  0  0
  141.3859   70.4860  229.2200 H   0  0  0  0  0  0  0  0  0  0  0  0
  141.4303   68.0003  229.2974 H   0  0  0  0  0  0  0  0  0  0  0  0
  140.6386   66.7541  227.2732 H   0  0  0  0  0  0  0  0  0  0  0  0
  138.1313   76.9429  222.5374 H   0  0  0  0  0  0  0  0  0  0  0  0
  138.2314   79.2501  223.4415 H   0  0  0  0  0  0  0  0  0  0  0  0
  139.4761   81.1882  224.0453 H   0  0  0  0  0  0  0  0  0  0  0  0
  141.6754   82.3405  224.1991 H   0  0  0  0  0  0  0  0  0  0  0  0
  143.6958   81.1779  223.4601 H   0  0  0  0  0  0  0  0  0  0  0  0
  143.6551   78.8788  222.5495 H   0  0  0  0  0  0  0  0  0  0  0  0
  1  2  2  0
  2  3  1  0
  3  4  1  0
  4  5  1  0
  5  6  2  0
  5  7  1  0
  7  8  1  0
  8  9  1  0
  9 10  1  0
 10 11  1  0
 11 12  1  0
 12 13  1  0
 13 14  2  0
 14 15  1  0
 15 16  2  0
 16 17  1  0
 17 18  2  0
  2 19  1  0
 19 20  2  0
 20 21  1  0
 21 22  2  0
 22 23  1  0
 23 24  2  0
 24 25  1  0
 25 26  2  0
 26 27  1  0
 27 28  2  0
 11  7  1  0
 18 13  1  0
 28 19  1  0
 27 22  1  0
  3 29  1  0
  4 30  1  0
  4 31  1  0
  8 32  1  0
  8 33  1  0
  9 34  1  0
  9 35  1  0
 10 36  1  0
 10 37  1  0
 11 38  1  6
 12 39  1  0
 12 40  1  0
 14 41  1  0
 15 42  1  0
 16 43  1  0
 17 44  1  0
 20 45  1  0
 21 46  1  0
 23 47  1  0
 24 48  1  0
 25 49  1  0
 26 50  1  0
M  END
>  <smiles>  (41) 
O=C(NCC(=O)N1CCCC1Cc1ccccn1)c1ccc2ccccc2n1

>  <score_type>  (41) 
oracle

>  <origin>  (41) 
autodockgpu

>  <m_score__min__energy>  (41) 
-8.8499999999999996

>  <m_primary>  (41) 
energy

>  <rmsd>  (41) 
8.252399335382515

>  <m_score__min__rmsd>  (41) 
8.252399335382515

>  <meeko>  (41) 
{"free_energy": -8.73, "intermolecular_energy": -10.52, "internal_energy": -1.06, "cluster_size": 11, "cluster_id": 2, "rank_in_cluster": 1}

>  <energy>  (41) 
-7.17

>  <cluster_rmsd>  (41) 
0.0

>  <cluster>  (41) 
5

$$$$

     RDKit          3D

 50 53  0  0  0  0  0  0  0  0999 V2000
  137.2290   76.5870  222.5220 O   0  0  0  0  0  0  0  0  0  0  0  0
  138.4910   76.6120  222.5150 C   0  0  0  0  0  0  0  0  0  0  0  0
  139.2200   75.4140  222.2220 N   0  0  0  0  0  0  0  0  0  0  0  0
  138.6200   74.1520  221.9410 C   0  0  0  0  0  0  0  0  0  0  0  0
  139.4420   72.9600  222.1530 C   0  0  0  0  0  0  0  0  0  0  0  0
  140.7230   73.2240  222.0920 O   0  0  0  0  0  0  0  0  0  0  0  0
  139.1100   71.6400  222.4080 N   0  0  0  0  0  0  0  0  0  0  0  0
  138.0740   70.7620  221.8320 C   0  0  0  0  0  0  0  0  0  0  0  0
  137.8020   69.6720  222.8570 C   0  0  0  0  0  0  0  0  0  0  0  0
  138.4830   70.2430  224.0700 C   0  0  0  0  0  0  0  0  0  0  0  0
  139.7500   70.7830  223.3840 C   0  0  2  0  0  0  0  0  0  0  0  0
  140.6650   71.3560  224.3630 C   0  0  0  0  0  0  0  0  0  0  0  0
  140.7190   70.7560  225.6980 C   0  0  0  0  0  0  0  0  0  0  0  0
  140.7700   71.6530  226.7790 C   0  0  0  0  0  0  0  0  0  0  0  0
  140.8220   71.1810  228.0650 C   0  0  0  0  0  0  0  0  0  0  0  0
  140.8260   69.8340  228.3420 C   0  0  0  0  0  0  0  0  0  0  0  0
  140.7750   68.9740  227.2650 C   0  0  0  0  0  0  0  0  0  0  0  0
  140.7260   69.4660  226.0200 N   0  0  0  0  0  0  0  0  0  0  0  0
  139.2050   77.8710  222.8100 C   0  0  0  0  0  0  0  0  0  0  0  0
  138.4770   79.0010  223.0750 C   0  0  0  0  0  0  0  0  0  0  0  0
  139.1310   80.1800  223.3520 C   0  0  0  0  0  0  0  0  0  0  0  0
  140.5120   80.2180  223.3600 C   0  0  0  0  0  0  0  0  0  0  0  0
  141.1490   81.4170  223.6410 C   0  0  0  0  0  0  0  0  0  0  0  0
  142.5120   81.4370  223.6440 C   0  0  0  0  0  0  0  0  0  0  0  0
  143.1950   80.2790  223.3730 C   0  0  0  0  0  0  0  0  0  0  0  0
  142.5870   79.0740  223.0900 C   0  0  0  0  0  0  0  0  0  0  0  0
  141.2000   79.0630  223.0880 C   0  0  0  0  0  0  0  0  0  0  0  0
  140.5500   77.9160  222.8200 N   0  0  0  0  0  0  0  0  0  0  0  0
  140.2780   75.5440  222.2300 H   0  0  0  0  0  0  0  0  0  0  0  0
  137.7300   74.0586  222.5807 H   0  0  0  0  0  0  0  0  0  0  0  0
  138.4168   74.1684  220.8601 H   0  0  0  0  0  0  0  0  0  0  0  0
  137.1563   71.3364  221.6375 H   0  0  0  0  0  0  0  0  0  0  0  0
  138.4085   70.3309  220.8769 H   0  0  0  0  0  0  0  0  0  0  0  0
  136.7235   69.5360  223.0256 H   0  0  0  0  0  0  0  0  0  0  0  0
  138.1597   68.6740  222.5636 H   0  0  0  0  0  0  0  0  0  0  0  0
  137.8921   71.0434  224.5393 H   0  0  0  0  0  0  0  0  0  0  0  0
  138.6504   69.5407  224.8999 H   0  0  0  0  0  0  0  0  0  0  0  0
  140.4495   70.0874  222.8974 H   0  0  0  0  0  0  0  0  0  0  0  0
  141.6774   71.2947  223.9373 H   0  0  0  0  0  0  0  0  0  0  0  0
  140.2759   72.3701  224.5369 H   0  0  0  0  0  0  0  0  0  0  0  0
  140.7682   72.7371  226.5925 H   0  0  0  0  0  0  0  0  0  0  0  0
  140.8616   71.8989  228.8975 H   0  0  0  0  0  0  0  0  0  0  0  0
  140.8680   69.4595  229.3754 H   0  0  0  0  0  0  0  0  0  0  0  0
  140.7745   67.8861  227.4280 H   0  0  0  0  0  0  0  0  0  0  0  0
  137.3776   78.9663  223.0664 H   0  0  0  0  0  0  0  0  0  0  0  0
  138.5543   81.0917  223.5670 H   0  0  0  0  0  0  0  0  0  0  0  0
  140.5702   82.3274  223.8557 H   0  0  0  0  0  0  0  0  0  0  0  0
  143.0560   82.3682  223.8606 H   0  0  0  0  0  0  0  0  0  0  0  0
  144.2944   80.3135  223.3819 H   0  0  0  0  0  0  0  0  0  0  0  0
  143.1724   78.1674  222.8766 H   0  0  0  0  0  0  0  0  0  0  0  0
  1  2  2  0
  2  3  1  0
  3  4  1  0
  4  5  1  0
  5  6  2  0
  5  7  1  0
  7  8  1  0
  8  9  1  0
  9 10  1  0
 10 11  1  0
 11 12  1  0
 12 13  1  0
 13 14  2  0
 14 15  1  0
 15 16  2  0
 16 17  1  0
 17 18  2  0
  2 19  1  0
 19 20  2  0
 20 21  1  0
 21 22  2  0
 22 23  1  0
 23 24  2  0
 24 25  1  0
 25 26  2  0
 26 27  1  0
 27 28  2  0
 11  7  1  0
 18 13  1  0
 28 19  1  0
 27 22  1  0
  3 29  1  0
  4 30  1  0
  4 31  1  0
  8 32  1  0
  8 33  1  0
  9 34  1  0
  9 35  1  0
 10 36  1  0
 10 37  1  0
 11 38  1  6
 12 39  1  0
 12 40  1  0
 14 41  1  0
 15 42  1  0
 16 43  1  0
 17 44  1  0
 20 45  1  0
 21 46  1  0
 23 47  1  0
 24 48  1  0
 25 49  1  0
 26 50  1  0
M  END
>  <smiles>  (42) 
O=C(NCC(=O)N1CCCC1Cc1ccccn1)c1ccc2ccccc2n1

>  <score_type>  (42) 
oracle

>  <origin>  (42) 
autodockgpu

>  <m_score__min__energy>  (42) 
-8.8499999999999996

>  <m_primary>  (42) 
energy

>  <rmsd>  (42) 
8.478908942196275

>  <m_score__min__rmsd>  (42) 
8.478908942196275

>  <meeko>  (42) 
{"free_energy": -8.34, "intermolecular_energy": -10.13, "internal_energy": -1.8, "cluster_size": 11, "cluster_id": 2, "rank_in_cluster": 8}

>  <energy>  (42) 
-7.13

>  <cluster_rmsd>  (42) 
0.2

>  <cluster>  (42) 
5

$$$$

     RDKit          3D

 50 53  0  0  0  0  0  0  0  0999 V2000
  139.5140   74.2820  222.0660 O   0  0  0  0  0  0  0  0  0  0  0  0
  140.5500   74.8220  221.5910 C   0  0  0  0  0  0  0  0  0  0  0  0
  140.6220   76.2500  221.4920 N   0  0  0  0  0  0  0  0  0  0  0  0
  139.5790   77.1390  221.8860 C   0  0  0  0  0  0  0  0  0  0  0  0
  139.9540   78.2750  222.7280 C   0  0  0  0  0  0  0  0  0  0  0  0
  138.9510   78.7140  223.4460 O   0  0  0  0  0  0  0  0  0  0  0  0
  141.1560   78.9430  222.9000 N   0  0  0  0  0  0  0  0  0  0  0  0
  141.8910   79.3370  224.1170 C   0  0  0  0  0  0  0  0  0  0  0  0
  142.7920   80.5000  223.7270 C   0  0  0  0  0  0  0  0  0  0  0  0
  142.2190   80.8690  222.3860 C   0  0  0  0  0  0  0  0  0  0  0  0
  141.9990   79.4500  221.8370 C   0  0  2  0  0  0  0  0  0  0  0  0
  141.4930   79.4950  220.4710 C   0  0  0  0  0  0  0  0  0  0  0  0
  142.0560   78.5610  219.4920 C   0  0  0  0  0  0  0  0  0  0  0  0
  142.0800   79.0030  218.1570 C   0  0  0  0  0  0  0  0  0  0  0  0
  142.5880   78.1960  217.1730 C   0  0  0  0  0  0  0  0  0  0  0  0
  143.0860   76.9440  217.4490 C   0  0  0  0  0  0  0  0  0  0  0  0
  143.0530   76.5330  218.7650 C   0  0  0  0  0  0  0  0  0  0  0  0
  142.5490   77.3450  219.7040 N   0  0  0  0  0  0  0  0  0  0  0  0
  141.6800   73.9830  221.1410 C   0  0  0  0  0  0  0  0  0  0  0  0
  141.4540   72.6600  220.8640 C   0  0  0  0  0  0  0  0  0  0  0  0
  142.4980   71.8680  220.4430 C   0  0  0  0  0  0  0  0  0  0  0  0
  143.7620   72.4080  220.3040 C   0  0  0  0  0  0  0  0  0  0  0  0
  144.7990   71.5910  219.8790 C   0  0  0  0  0  0  0  0  0  0  0  0
  146.0400   72.1390  219.7480 C   0  0  0  0  0  0  0  0  0  0  0  0
  146.2130   73.4680  220.0380 C   0  0  0  0  0  0  0  0  0  0  0  0
  145.2010   74.3030  220.4620 C   0  0  0  0  0  0  0  0  0  0  0  0
  143.9420   73.7370  220.5930 C   0  0  0  0  0  0  0  0  0  0  0  0
  142.9140   74.5010  221.0030 N   0  0  0  0  0  0  0  0  0  0  0  0
  141.5420   76.6060  221.0890 H   0  0  0  0  0  0  0  0  0  0  0  0
  139.1233   77.5420  220.9695 H   0  0  0  0  0  0  0  0  0  0  0  0
  138.9079   76.5312  222.5107 H   0  0  0  0  0  0  0  0  0  0  0  0
  141.1858   79.6502  224.9010 H   0  0  0  0  0  0  0  0  0  0  0  0
  142.4795   78.4963  224.5132 H   0  0  0  0  0  0  0  0  0  0  0  0
  142.7119   81.3311  224.4432 H   0  0  0  0  0  0  0  0  0  0  0  0
  143.8648   80.2572  223.7107 H   0  0  0  0  0  0  0  0  0  0  0  0
  141.2768   81.4292  222.4774 H   0  0  0  0  0  0  0  0  0  0  0  0
  142.8407   81.5312  221.7656 H   0  0  0  0  0  0  0  0  0  0  0  0
  142.8610   78.7878  221.6684 H   0  0  0  0  0  0  0  0  0  0  0  0
  140.4106   79.3049  220.5179 H   0  0  0  0  0  0  0  0  0  0  0  0
  141.7912   80.4877  220.1028 H   0  0  0  0  0  0  0  0  0  0  0  0
  141.6898   79.9994  217.9021 H   0  0  0  0  0  0  0  0  0  0  0  0
  142.5978   78.5591  216.1347 H   0  0  0  0  0  0  0  0  0  0  0  0
  143.4924   76.2994  216.6557 H   0  0  0  0  0  0  0  0  0  0  0  0
  143.4394   75.5413  219.0430 H   0  0  0  0  0  0  0  0  0  0  0  0
  140.4460   72.2343  220.9772 H   0  0  0  0  0  0  0  0  0  0  0  0
  142.3260   70.8052  220.2172 H   0  0  0  0  0  0  0  0  0  0  0  0
  144.6245   70.5286  219.6536 H   0  0  0  0  0  0  0  0  0  0  0  0
  146.8895   71.5248  219.4148 H   0  0  0  0  0  0  0  0  0  0  0  0
  147.2209   73.8941  219.9255 H   0  0  0  0  0  0  0  0  0  0  0  0
  145.3832   75.3646  220.6851 H   0  0  0  0  0  0  0  0  0  0  0  0
  1  2  2  0
  2  3  1  0
  3  4  1  0
  4  5  1  0
  5  6  2  0
  5  7  1  0
  7  8  1  0
  8  9  1  0
  9 10  1  0
 10 11  1  0
 11 12  1  0
 12 13  1  0
 13 14  2  0
 14 15  1  0
 15 16  2  0
 16 17  1  0
 17 18  2  0
  2 19  1  0
 19 20  2  0
 20 21  1  0
 21 22  2  0
 22 23  1  0
 23 24  2  0
 24 25  1  0
 25 26  2  0
 26 27  1  0
 27 28  2  0
 11  7  1  0
 18 13  1  0
 28 19  1  0
 27 22  1  0
  3 29  1  0
  4 30  1  0
  4 31  1  0
  8 32  1  0
  8 33  1  0
  9 34  1  0
  9 35  1  0
 10 36  1  0
 10 37  1  0
 11 38  1  6
 12 39  1  0
 12 40  1  0
 14 41  1  0
 15 42  1  0
 16 43  1  0
 17 44  1  0
 20 45  1  0
 21 46  1  0
 23 47  1  0
 24 48  1  0
 25 49  1  0
 26 50  1  0
M  END
>  <smiles>  (43) 
O=C(NCC(=O)N1CCCC1Cc1ccccn1)c1ccc2ccccc2n1

>  <score_type>  (43) 
oracle

>  <origin>  (43) 
autodockgpu

>  <m_score__min__energy>  (43) 
-8.8499999999999996

>  <m_primary>  (43) 
energy

>  <rmsd>  (43) 
6.544384655559267

>  <m_score__min__rmsd>  (43) 
6.544384655559267

>  <meeko>  (43) 
{"free_energy": -7.1, "intermolecular_energy": -8.89, "internal_energy": -2.84, "cluster_size": 6, "cluster_id": 5, "rank_in_cluster": 3}

>  <energy>  (43) 
-7.1

>  <cluster_rmsd>  (43) 
0.25

>  <cluster>  (43) 
5

$$$$

     RDKit          3D

 50 53  0  0  0  0  0  0  0  0999 V2000
  139.5510   74.2960  222.2900 O   0  0  0  0  0  0  0  0  0  0  0  0
  140.4950   74.8130  221.6300 C   0  0  0  0  0  0  0  0  0  0  0  0
  140.4800   76.2200  221.3600 N   0  0  0  0  0  0  0  0  0  0  0  0
  139.4480   77.1110  221.7760 C   0  0  0  0  0  0  0  0  0  0  0  0
  139.8370   78.2180  222.6510 C   0  0  0  0  0  0  0  0  0  0  0  0
  138.8300   78.6680  223.3580 O   0  0  0  0  0  0  0  0  0  0  0  0
  141.0520   78.8480  222.8630 N   0  0  0  0  0  0  0  0  0  0  0  0
  141.7550   79.2280  224.1030 C   0  0  0  0  0  0  0  0  0  0  0  0
  142.7060   80.3580  223.7410 C   0  0  0  0  0  0  0  0  0  0  0  0
  142.1940   80.7360  222.3770 C   0  0  0  0  0  0  0  0  0  0  0  0
  141.9490   79.3200  221.8290 C   0  0  2  0  0  0  0  0  0  0  0  0
  141.4950   79.3710  220.4440 C   0  0  0  0  0  0  0  0  0  0  0  0
  142.0950   78.4420  219.4840 C   0  0  0  0  0  0  0  0  0  0  0  0
  142.2100   78.9060  218.1620 C   0  0  0  0  0  0  0  0  0  0  0  0
  142.7580   78.1050  217.1940 C   0  0  0  0  0  0  0  0  0  0  0  0
  143.2090   76.8360  217.4760 C   0  0  0  0  0  0  0  0  0  0  0  0
  143.0850   76.4030  218.7800 C   0  0  0  0  0  0  0  0  0  0  0  0
  142.5450   77.2100  219.7020 N   0  0  0  0  0  0  0  0  0  0  0  0
  141.6030   73.9670  221.1420 C   0  0  0  0  0  0  0  0  0  0  0  0
  141.3440   72.6660  220.7990 C   0  0  0  0  0  0  0  0  0  0  0  0
  142.3680   71.8680  220.3420 C   0  0  0  0  0  0  0  0  0  0  0  0
  143.6460   72.3810  220.2330 C   0  0  0  0  0  0  0  0  0  0  0  0
  144.6630   71.5580  219.7710 C   0  0  0  0  0  0  0  0  0  0  0  0
  145.9190   72.0790  219.6710 C   0  0  0  0  0  0  0  0  0  0  0  0
  146.1250   73.3870  220.0260 C   0  0  0  0  0  0  0  0  0  0  0  0
  145.1340   74.2270  220.4890 C   0  0  0  0  0  0  0  0  0  0  0  0
  143.8610   73.6880  220.5890 C   0  0  0  0  0  0  0  0  0  0  0  0
  142.8510   74.4590  221.0330 N   0  0  0  0  0  0  0  0  0  0  0  0
  141.3260   76.5580  220.8070 H   0  0  0  0  0  0  0  0  0  0  0  0
  139.0003   77.5459  220.8702 H   0  0  0  0  0  0  0  0  0  0  0  0
  138.7665   76.4952  222.3812 H   0  0  0  0  0  0  0  0  0  0  0  0
  141.0321   79.5690  224.8587 H   0  0  0  0  0  0  0  0  0  0  0  0
  142.3021   78.3718  224.5245 H   0  0  0  0  0  0  0  0  0  0  0  0
  142.6263   81.1959  224.4492 H   0  0  0  0  0  0  0  0  0  0  0  0
  143.7704   80.0814  223.7660 H   0  0  0  0  0  0  0  0  0  0  0  0
  141.2674   81.3264  222.4304 H   0  0  0  0  0  0  0  0  0  0  0  0
  142.8585   81.3740  221.7758 H   0  0  0  0  0  0  0  0  0  0  0  0
  142.7950   78.6295  221.6966 H   0  0  0  0  0  0  0  0  0  0  0  0
  140.4116   79.1804  220.4488 H   0  0  0  0  0  0  0  0  0  0  0  0
  141.8064   80.3655  220.0918 H   0  0  0  0  0  0  0  0  0  0  0  0
  141.8589   79.9158  217.9033 H   0  0  0  0  0  0  0  0  0  0  0  0
  142.8393   78.4864  216.1655 H   0  0  0  0  0  0  0  0  0  0  0  0
  143.6485   76.1957  216.6970 H   0  0  0  0  0  0  0  0  0  0  0  0
  143.4291   75.3969  219.0617 H   0  0  0  0  0  0  0  0  0  0  0  0
  140.3247   72.2621  220.8883 H   0  0  0  0  0  0  0  0  0  0  0  0
  142.1689   70.8226  220.0638 H   0  0  0  0  0  0  0  0  0  0  0  0
  144.4613   70.5130  219.4928 H   0  0  0  0  0  0  0  0  0  0  0  0
  146.7538   71.4596  219.3112 H   0  0  0  0  0  0  0  0  0  0  0  0
  147.1439   73.7917  219.9360 H   0  0  0  0  0  0  0  0  0  0  0  0
  145.3432   75.2711  220.7648 H   0  0  0  0  0  0  0  0  0  0  0  0
  1  2  2  0
  2  3  1  0
  3  4  1  0
  4  5  1  0
  5  6  2  0
  5  7  1  0
  7  8  1  0
  8  9  1  0
  9 10  1  0
 10 11  1  0
 11 12  1  0
 12 13  1  0
 13 14  2  0
 14 15  1  0
 15 16  2  0
 16 17  1  0
 17 18  2  0
  2 19  1  0
 19 20  2  0
 20 21  1  0
 21 22  2  0
 22 23  1  0
 23 24  2  0
 24 25  1  0
 25 26  2  0
 26 27  1  0
 27 28  2  0
 11  7  1  0
 18 13  1  0
 28 19  1  0
 27 22  1  0
  3 29  1  0
  4 30  1  0
  4 31  1  0
  8 32  1  0
  8 33  1  0
  9 34  1  0
  9 35  1  0
 10 36  1  0
 10 37  1  0
 11 38  1  6
 12 39  1  0
 12 40  1  0
 14 41  1  0
 15 42  1  0
 16 43  1  0
 17 44  1  0
 20 45  1  0
 21 46  1  0
 23 47  1  0
 24 48  1  0
 25 49  1  0
 26 50  1  0
M  END
>  <smiles>  (44) 
O=C(NCC(=O)N1CCCC1Cc1ccccn1)c1ccc2ccccc2n1

>  <score_type>  (44) 
oracle

>  <origin>  (44) 
autodockgpu

>  <m_score__min__energy>  (44) 
-8.8499999999999996

>  <m_primary>  (44) 
energy

>  <rmsd>  (44) 
6.485602217349343

>  <m_score__min__rmsd>  (44) 
6.485602217349343

>  <meeko>  (44) 
{"free_energy": -7.08, "intermolecular_energy": -8.87, "internal_energy": -2.79, "cluster_size": 6, "cluster_id": 5, "rank_in_cluster": 5}

>  <energy>  (44) 
-7.08

>  <cluster_rmsd>  (44) 
0.12

>  <cluster>  (44) 
5

$$$$

     RDKit          3D

 50 53  0  0  0  0  0  0  0  0999 V2000
  139.4370   70.7820  221.3860 O   0  0  0  0  0  0  0  0  0  0  0  0
  139.6130   71.4330  222.4520 C   0  0  0  0  0  0  0  0  0  0  0  0
  139.7310   72.8610  222.3970 N   0  0  0  0  0  0  0  0  0  0  0  0
  139.6750   73.6280  221.1970 C   0  0  0  0  0  0  0  0  0  0  0  0
  140.3890   74.9060  221.1900 C   0  0  0  0  0  0  0  0  0  0  0  0
  140.3190   75.5200  222.3440 O   0  0  0  0  0  0  0  0  0  0  0  0
  141.1120   75.5570  220.2040 N   0  0  0  0  0  0  0  0  0  0  0  0
  142.1290   75.0700  219.2530 C   0  0  0  0  0  0  0  0  0  0  0  0
  142.9590   76.2760  218.8410 C   0  0  0  0  0  0  0  0  0  0  0  0
  142.5320   77.2830  219.8740 C   0  0  0  0  0  0  0  0  0  0  0  0
  141.0270   76.9680  219.8870 C   0  0  2  0  0  0  0  0  0  0  0  0
  140.3160   77.8700  220.7850 C   0  0  0  0  0  0  0  0  0  0  0  0
  141.1030   78.7010  221.6990 C   0  0  0  0  0  0  0  0  0  0  0  0
  141.1160   78.2990  223.0460 C   0  0  0  0  0  0  0  0  0  0  0  0
  141.8260   79.0160  223.9730 C   0  0  0  0  0  0  0  0  0  0  0  0
  142.5400   80.1390  223.6270 C   0  0  0  0  0  0  0  0  0  0  0  0
  142.5130   80.5140  222.2990 C   0  0  0  0  0  0  0  0  0  0  0  0
  141.8090   79.7920  221.4180 N   0  0  0  0  0  0  0  0  0  0  0  0
  139.7000   70.7240  223.7450 C   0  0  0  0  0  0  0  0  0  0  0  0
  139.2220   69.4430  223.8330 C   0  0  0  0  0  0  0  0  0  0  0  0
  139.2970   68.7720  225.0320 C   0  0  0  0  0  0  0  0  0  0  0  0
  139.8500   69.3910  226.1370 C   0  0  0  0  0  0  0  0  0  0  0  0
  139.9140   68.6960  227.3350 C   0  0  0  0  0  0  0  0  0  0  0  0
  140.4610   69.3220  228.4150 C   0  0  0  0  0  0  0  0  0  0  0  0
  140.9240   70.6050  228.2750 C   0  0  0  0  0  0  0  0  0  0  0  0
  140.8730   71.3200  227.0970 C   0  0  0  0  0  0  0  0  0  0  0  0
  140.3140   70.6760  226.0040 C   0  0  0  0  0  0  0  0  0  0  0  0
  140.2360   71.3210  224.8260 N   0  0  0  0  0  0  0  0  0  0  0  0
  139.8650   73.3160  223.3500 H   0  0  0  0  0  0  0  0  0  0  0  0
  140.0931   73.0101  220.3887 H   0  0  0  0  0  0  0  0  0  0  0  0
  138.6142   73.8933  221.0774 H   0  0  0  0  0  0  0  0  0  0  0  0
  142.7691   74.3169  219.7359 H   0  0  0  0  0  0  0  0  0  0  0  0
  141.6575   74.5981  218.3784 H   0  0  0  0  0  0  0  0  0  0  0  0
  144.0368   76.0652  218.9033 H   0  0  0  0  0  0  0  0  0  0  0  0
  142.8049   76.5993  217.8009 H   0  0  0  0  0  0  0  0  0  0  0  0
  143.0026   77.0999  220.8512 H   0  0  0  0  0  0  0  0  0  0  0  0
  142.8004   78.3286  219.6627 H   0  0  0  0  0  0  0  0  0  0  0  0
  140.4246   77.1329  218.9815 H   0  0  0  0  0  0  0  0  0  0  0  0
  139.7191   78.5495  220.1590 H   0  0  0  0  0  0  0  0  0  0  0  0
  139.7466   77.2014  221.4474 H   0  0  0  0  0  0  0  0  0  0  0  0
  140.5543   77.4058  223.3569 H   0  0  0  0  0  0  0  0  0  0  0  0
  141.8248   78.6844  225.0218 H   0  0  0  0  0  0  0  0  0  0  0  0
  143.1071   80.7127  224.3749 H   0  0  0  0  0  0  0  0  0  0  0  0
  143.0680   81.4032  221.9654 H   0  0  0  0  0  0  0  0  0  0  0  0
  138.7814   68.9544  222.9514 H   0  0  0  0  0  0  0  0  0  0  0  0
  138.9168   67.7428  225.1110 H   0  0  0  0  0  0  0  0  0  0  0  0
  139.5334   67.6668  227.4118 H   0  0  0  0  0  0  0  0  0  0  0  0
  140.5300   68.8060  229.3840 H   0  0  0  0  0  0  0  0  0  0  0  0
  141.3633   71.0942  229.1569 H   0  0  0  0  0  0  0  0  0  0  0  0
  141.2563   72.3488  227.0281 H   0  0  0  0  0  0  0  0  0  0  0  0
  1  2  2  0
  2  3  1  0
  3  4  1  0
  4  5  1  0
  5  6  2  0
  5  7  1  0
  7  8  1  0
  8  9  1  0
  9 10  1  0
 10 11  1  0
 11 12  1  0
 12 13  1  0
 13 14  2  0
 14 15  1  0
 15 16  2  0
 16 17  1  0
 17 18  2  0
  2 19  1  0
 19 20  2  0
 20 21  1  0
 21 22  2  0
 22 23  1  0
 23 24  2  0
 24 25  1  0
 25 26  2  0
 26 27  1  0
 27 28  2  0
 11  7  1  0
 18 13  1  0
 28 19  1  0
 27 22  1  0
  3 29  1  0
  4 30  1  0
  4 31  1  0
  8 32  1  0
  8 33  1  0
  9 34  1  0
  9 35  1  0
 10 36  1  0
 10 37  1  0
 11 38  1  6
 12 39  1  0
 12 40  1  0
 14 41  1  0
 15 42  1  0
 16 43  1  0
 17 44  1  0
 20 45  1  0
 21 46  1  0
 23 47  1  0
 24 48  1  0
 25 49  1  0
 26 50  1  0
M  END
>  <smiles>  (45) 
O=C(NCC(=O)N1CCCC1Cc1ccccn1)c1ccc2ccccc2n1

>  <score_type>  (45) 
oracle

>  <origin>  (45) 
autodockgpu

>  <m_score__min__energy>  (45) 
-8.8499999999999996

>  <m_primary>  (45) 
energy

>  <rmsd>  (45) 
1.7775646478651652

>  <m_score__min__rmsd>  (45) 
1.7775646478651652

>  <meeko>  (45) 
{"free_energy": -8.68, "intermolecular_energy": -10.47, "internal_energy": -1.71, "cluster_size": 18, "cluster_id": 1, "rank_in_cluster": 10}

>  <energy>  (45) 
-7.08

>  <cluster_rmsd>  (45) 
0.33

>  <cluster>  (45) 
5

$$$$

     RDKit          3D

 50 53  0  0  0  0  0  0  0  0999 V2000
  140.3720   71.7180  221.4500 O   0  0  0  0  0  0  0  0  0  0  0  0
  139.5470   71.8910  222.3890 C   0  0  0  0  0  0  0  0  0  0  0  0
  138.3890   72.7050  222.1710 N   0  0  0  0  0  0  0  0  0  0  0  0
  138.0880   73.3680  220.9450 C   0  0  0  0  0  0  0  0  0  0  0  0
  138.5180   74.7610  220.8180 C   0  0  0  0  0  0  0  0  0  0  0  0
  137.8210   75.4160  219.9230 O   0  0  0  0  0  0  0  0  0  0  0  0
  139.5010   75.4900  221.4670 N   0  0  0  0  0  0  0  0  0  0  0  0
  139.4210   76.6530  222.3720 C   0  0  0  0  0  0  0  0  0  0  0  0
  140.7680   77.3560  222.3030 C   0  0  0  0  0  0  0  0  0  0  0  0
  141.3720   76.6990  221.0920 C   0  0  0  0  0  0  0  0  0  0  0  0
  140.9270   75.2540  221.3730 C   0  0  2  0  0  0  0  0  0  0  0  0
  141.4450   74.3450  220.3590 C   0  0  0  0  0  0  0  0  0  0  0  0
  142.8630   73.9790  220.4160 C   0  0  0  0  0  0  0  0  0  0  0  0
  143.1470   72.6030  220.4680 C   0  0  0  0  0  0  0  0  0  0  0  0
  144.4450   72.1680  220.5230 C   0  0  0  0  0  0  0  0  0  0  0  0
  145.5030   73.0470  220.5290 C   0  0  0  0  0  0  0  0  0  0  0  0
  145.2000   74.3920  220.4770 C   0  0  0  0  0  0  0  0  0  0  0  0
  143.9200   74.7850  220.4250 N   0  0  0  0  0  0  0  0  0  0  0  0
  139.7800   71.2570  223.7030 C   0  0  0  0  0  0  0  0  0  0  0  0
  139.3710   69.9640  223.8980 C   0  0  0  0  0  0  0  0  0  0  0  0
  139.5830   69.3620  225.1170 C   0  0  0  0  0  0  0  0  0  0  0  0
  140.2030   70.0620  226.1340 C   0  0  0  0  0  0  0  0  0  0  0  0
  140.4050   69.4350  227.3540 C   0  0  0  0  0  0  0  0  0  0  0  0
  141.0170   70.1400  228.3480 C   0  0  0  0  0  0  0  0  0  0  0  0
  141.4080   71.4320  228.1020 C   0  0  0  0  0  0  0  0  0  0  0  0
  141.2200   72.0790  226.8990 C   0  0  0  0  0  0  0  0  0  0  0  0
  140.5950   71.3550  225.8950 C   0  0  0  0  0  0  0  0  0  0  0  0
  140.3830   71.9320  224.6990 N   0  0  0  0  0  0  0  0  0  0  0  0
  137.7500   72.7780  223.0210 H   0  0  0  0  0  0  0  0  0  0  0  0
  138.5656   72.7984  220.1342 H   0  0  0  0  0  0  0  0  0  0  0  0
  136.9894   73.4041  220.9030 H   0  0  0  0  0  0  0  0  0  0  0  0
  138.6213   77.3336  222.0445 H   0  0  0  0  0  0  0  0  0  0  0  0
  139.1921   76.3380  223.4008 H   0  0  0  0  0  0  0  0  0  0  0  0
  140.6511   78.4402  222.1585 H   0  0  0  0  0  0  0  0  0  0  0  0
  141.3736   77.2671  223.2170 H   0  0  0  0  0  0  0  0  0  0  0  0
  140.9486   77.0884  220.1544 H   0  0  0  0  0  0  0  0  0  0  0  0
  142.4532   76.8486  220.9559 H   0  0  0  0  0  0  0  0  0  0  0  0
  141.2993   74.7292  222.2652 H   0  0  0  0  0  0  0  0  0  0  0  0
  140.8646   73.4132  220.4293 H   0  0  0  0  0  0  0  0  0  0  0  0
  141.3454   74.9031  219.4164 H   0  0  0  0  0  0  0  0  0  0  0  0
  142.3241   71.8731  220.4645 H   0  0  0  0  0  0  0  0  0  0  0  0
  144.6464   71.0873  220.5634 H   0  0  0  0  0  0  0  0  0  0  0  0
  146.5437   72.6935  220.5733 H   0  0  0  0  0  0  0  0  0  0  0  0
  146.0069   75.1396  220.4782 H   0  0  0  0  0  0  0  0  0  0  0  0
  138.8766   69.4110  223.0857 H   0  0  0  0  0  0  0  0  0  0  0  0
  139.2589   68.3238  225.2817 H   0  0  0  0  0  0  0  0  0  0  0  0
  140.0803   68.3966  227.5158 H   0  0  0  0  0  0  0  0  0  0  0  0
  141.1944   69.6802  229.3314 H   0  0  0  0  0  0  0  0  0  0  0  0
  141.9017   71.9855  228.9143 H   0  0  0  0  0  0  0  0  0  0  0  0
  141.5492   73.1170  226.7436 H   0  0  0  0  0  0  0  0  0  0  0  0
  1  2  2  0
  2  3  1  0
  3  4  1  0
  4  5  1  0
  5  6  2  0
  5  7  1  0
  7  8  1  0
  8  9  1  0
  9 10  1  0
 10 11  1  0
 11 12  1  0
 12 13  1  0
 13 14  2  0
 14 15  1  0
 15 16  2  0
 16 17  1  0
 17 18  2  0
  2 19  1  0
 19 20  2  0
 20 21  1  0
 21 22  2  0
 22 23  1  0
 23 24  2  0
 24 25  1  0
 25 26  2  0
 26 27  1  0
 27 28  2  0
 11  7  1  0
 18 13  1  0
 28 19  1  0
 27 22  1  0
  3 29  1  0
  4 30  1  0
  4 31  1  0
  8 32  1  0
  8 33  1  0
  9 34  1  0
  9 35  1  0
 10 36  1  0
 10 37  1  0
 11 38  1  1
 12 39  1  0
 12 40  1  0
 14 41  1  0
 15 42  1  0
 16 43  1  0
 17 44  1  0
 20 45  1  0
 21 46  1  0
 23 47  1  0
 24 48  1  0
 25 49  1  0
 26 50  1  0
M  END
>  <smiles>  (46) 
O=C(NCC(=O)N1CCCC1Cc1ccccn1)c1ccc2ccccc2n1

>  <score_type>  (46) 
oracle

>  <origin>  (46) 
autodockgpu

>  <m_score__min__energy>  (46) 
-8.8499999999999996

>  <m_primary>  (46) 
energy

>  <rmsd>  (46) 
2.4395264857424994

>  <m_score__min__rmsd>  (46) 
2.4395264857424994

>  <meeko>  (46) 
{"free_energy": -7.8, "intermolecular_energy": -9.59, "internal_energy": -1.66, "cluster_size": 9, "cluster_id": 4, "rank_in_cluster": 9}

>  <energy>  (46) 
-7.08

>  <cluster_rmsd>  (46) 
0.23

>  <cluster>  (46) 
5

$$$$

     RDKit          3D

 50 53  0  0  0  0  0  0  0  0999 V2000
  138.5250   75.4990  222.1760 O   0  0  0  0  0  0  0  0  0  0  0  0
  139.7260   75.8830  222.2240 C   0  0  0  0  0  0  0  0  0  0  0  0
  140.7760   74.9640  221.9000 N   0  0  0  0  0  0  0  0  0  0  0  0
  140.5700   73.6030  221.5290 C   0  0  0  0  0  0  0  0  0  0  0  0
  141.7060   72.8930  220.9380 C   0  0  0  0  0  0  0  0  0  0  0  0
  141.4960   71.6040  220.8540 O   0  0  0  0  0  0  0  0  0  0  0  0
  142.9270   73.3380  220.4580 N   0  0  0  0  0  0  0  0  0  0  0  0
  144.3110   73.0100  220.8500 C   0  0  0  0  0  0  0  0  0  0  0  0
  145.1800   74.1790  220.4110 C   0  0  0  0  0  0  0  0  0  0  0  0
  144.1340   75.2160  220.1090 C   0  0  0  0  0  0  0  0  0  0  0  0
  143.1140   74.3090  219.4000 C   0  0  2  0  0  0  0  0  0  0  0  0
  141.9780   75.0830  218.9170 C   0  0  0  0  0  0  0  0  0  0  0  0
  142.0810   76.5450  218.9250 C   0  0  0  0  0  0  0  0  0  0  0  0
  142.7340   77.1250  217.8240 C   0  0  0  0  0  0  0  0  0  0  0  0
  142.8780   78.4860  217.7460 C   0  0  0  0  0  0  0  0  0  0  0  0
  142.3970   79.3220  218.7270 C   0  0  0  0  0  0  0  0  0  0  0  0
  141.7600   78.7280  219.7970 C   0  0  0  0  0  0  0  0  0  0  0  0
  141.6360   77.3960  219.8440 N   0  0  0  0  0  0  0  0  0  0  0  0
  140.0410   77.2730  222.6130 C   0  0  0  0  0  0  0  0  0  0  0  0
  139.0120   78.1370  222.8820 C   0  0  0  0  0  0  0  0  0  0  0  0
  139.2930   79.4340  223.2450 C   0  0  0  0  0  0  0  0  0  0  0  0
  140.6050   79.8570  223.3370 C   0  0  0  0  0  0  0  0  0  0  0  0
  140.8640   81.1680  223.7050 C   0  0  0  0  0  0  0  0  0  0  0  0
  142.1640   81.5700  223.7890 C   0  0  0  0  0  0  0  0  0  0  0  0
  143.1570   80.6670  223.5100 C   0  0  0  0  0  0  0  0  0  0  0  0
  142.9280   79.3580  223.1420 C   0  0  0  0  0  0  0  0  0  0  0  0
  141.6030   78.9590  223.0580 C   0  0  0  0  0  0  0  0  0  0  0  0
  141.3170   77.6930  222.7040 N   0  0  0  0  0  0  0  0  0  0  0  0
  141.7510   75.3890  221.9590 H   0  0  0  0  0  0  0  0  0  0  0  0
  140.2712   73.0544  222.4344 H   0  0  0  0  0  0  0  0  0  0  0  0
  139.8109   73.6369  220.7336 H   0  0  0  0  0  0  0  0  0  0  0  0
  144.3750   72.8789  221.9403 H   0  0  0  0  0  0  0  0  0  0  0  0
  144.6431   72.0725  220.3801 H   0  0  0  0  0  0  0  0  0  0  0  0
  145.8532   74.5069  221.2167 H   0  0  0  0  0  0  0  0  0  0  0  0
  145.8518   73.9539  219.5696 H   0  0  0  0  0  0  0  0  0  0  0  0
  143.7219   75.6679  221.0233 H   0  0  0  0  0  0  0  0  0  0  0  0
  144.4779   76.0891  219.5349 H   0  0  0  0  0  0  0  0  0  0  0  0
  143.3838   73.8143  218.4553 H   0  0  0  0  0  0  0  0  0  0  0  0
  141.7922   74.7751  217.8775 H   0  0  0  0  0  0  0  0  0  0  0  0
  141.1741   74.8630  219.6349 H   0  0  0  0  0  0  0  0  0  0  0  0
  143.1308   76.4848  217.0223 H   0  0  0  0  0  0  0  0  0  0  0  0
  143.3917   78.9211  216.8761 H   0  0  0  0  0  0  0  0  0  0  0  0
  142.5149   80.4137  218.6613 H   0  0  0  0  0  0  0  0  0  0  0  0
  141.3546   79.3480  220.6102 H   0  0  0  0  0  0  0  0  0  0  0  0
  137.9688   77.7961  222.8083 H   0  0  0  0  0  0  0  0  0  0  0  0
  138.4729   80.1343  223.4620 H   0  0  0  0  0  0  0  0  0  0  0  0
  140.0422   81.8658  223.9235 H   0  0  0  0  0  0  0  0  0  0  0  0
  142.4122   82.6025  224.0761 H   0  0  0  0  0  0  0  0  0  0  0  0
  144.2003   81.0075  223.5842 H   0  0  0  0  0  0  0  0  0  0  0  0
  143.7548   78.6654  222.9260 H   0  0  0  0  0  0  0  0  0  0  0  0
  1  2  2  0
  2  3  1  0
  3  4  1  0
  4  5  1  0
  5  6  2  0
  5  7  1  0
  7  8  1  0
  8  9  1  0
  9 10  1  0
 10 11  1  0
 11 12  1  0
 12 13  1  0
 13 14  2  0
 14 15  1  0
 15 16  2  0
 16 17  1  0
 17 18  2  0
  2 19  1  0
 19 20  2  0
 20 21  1  0
 21 22  2  0
 22 23  1  0
 23 24  2  0
 24 25  1  0
 25 26  2  0
 26 27  1  0
 27 28  2  0
 11  7  1  0
 18 13  1  0
 28 19  1  0
 27 22  1  0
  3 29  1  0
  4 30  1  0
  4 31  1  0
  8 32  1  0
  8 33  1  0
  9 34  1  0
  9 35  1  0
 10 36  1  0
 10 37  1  0
 11 38  1  6
 12 39  1  0
 12 40  1  0
 14 41  1  0
 15 42  1  0
 16 43  1  0
 17 44  1  0
 20 45  1  0
 21 46  1  0
 23 47  1  0
 24 48  1  0
 25 49  1  0
 26 50  1  0
M  END
>  <smiles>  (47) 
O=C(NCC(=O)N1CCCC1Cc1ccccn1)c1ccc2ccccc2n1

>  <score_type>  (47) 
oracle

>  <origin>  (47) 
autodockgpu

>  <m_score__min__energy>  (47) 
-8.8499999999999996

>  <m_primary>  (47) 
energy

>  <rmsd>  (47) 
7.690351629979779

>  <m_score__min__rmsd>  (47) 
7.690351629979779

>  <meeko>  (47) 
{"free_energy": -6.82, "intermolecular_energy": -8.61, "internal_energy": -2.64, "cluster_size": 4, "cluster_id": 6, "rank_in_cluster": 4}

>  <energy>  (47) 
-6.93

>  <cluster_rmsd>  (47) 
0.0

>  <cluster>  (47) 
6

$$$$

     RDKit          3D

 50 53  0  0  0  0  0  0  0  0999 V2000
  140.6040   70.9540  221.6580 O   0  0  0  0  0  0  0  0  0  0  0  0
  139.9950   71.5130  222.6110 C   0  0  0  0  0  0  0  0  0  0  0  0
  139.1020   72.6000  222.3380 N   0  0  0  0  0  0  0  0  0  0  0  0
  138.8460   73.1260  221.0380 C   0  0  0  0  0  0  0  0  0  0  0  0
  139.6240   74.2960  220.6280 C   0  0  0  0  0  0  0  0  0  0  0  0
  139.8970   74.2870  219.3470 O   0  0  0  0  0  0  0  0  0  0  0  0
  140.1010   75.3860  221.3370 N   0  0  0  0  0  0  0  0  0  0  0  0
  139.4620   76.2550  222.3440 C   0  0  0  0  0  0  0  0  0  0  0  0
  140.2240   77.5720  222.3340 C   0  0  0  0  0  0  0  0  0  0  0  0
  141.0210   77.4320  221.0670 C   0  0  0  0  0  0  0  0  0  0  0  0
  141.4280   75.9560  221.2170 C   0  0  2  0  0  0  0  0  0  0  0  0
  142.2970   75.5420  220.1230 C   0  0  0  0  0  0  0  0  0  0  0  0
  143.2780   74.4850  220.3790 C   0  0  0  0  0  0  0  0  0  0  0  0
  144.6270   74.8810  220.3920 C   0  0  0  0  0  0  0  0  0  0  0  0
  145.6140   73.9590  220.6230 C   0  0  0  0  0  0  0  0  0  0  0  0
  145.3280   72.6330  220.8470 C   0  0  0  0  0  0  0  0  0  0  0  0
  143.9980   72.2680  220.8300 C   0  0  0  0  0  0  0  0  0  0  0  0
  143.0560   73.1930  220.6010 N   0  0  0  0  0  0  0  0  0  0  0  0
  140.2060   71.0480  223.9970 C   0  0  0  0  0  0  0  0  0  0  0  0
  140.8140   71.8880  224.8940 C   0  0  0  0  0  0  0  0  0  0  0  0
  141.0170   71.4660  226.1880 C   0  0  0  0  0  0  0  0  0  0  0  0
  140.6090   70.2040  226.5750 C   0  0  0  0  0  0  0  0  0  0  0  0
  140.8240   69.8000  227.8840 C   0  0  0  0  0  0  0  0  0  0  0  0
  140.4170   68.5510  228.2480 C   0  0  0  0  0  0  0  0  0  0  0  0
  139.8140   67.7500  227.3140 C   0  0  0  0  0  0  0  0  0  0  0  0
  139.5880   68.1250  226.0060 C   0  0  0  0  0  0  0  0  0  0  0  0
  140.0060   69.3960  225.6440 C   0  0  0  0  0  0  0  0  0  0  0  0
  139.8130   69.8200  224.3820 N   0  0  0  0  0  0  0  0  0  0  0  0
  138.6290   72.9950  223.2080 H   0  0  0  0  0  0  0  0  0  0  0  0
  139.0444   72.3246  220.3111 H   0  0  0  0  0  0  0  0  0  0  0  0
  137.8033   73.4747  221.0719 H   0  0  0  0  0  0  0  0  0  0  0  0
  138.4072   76.4256  222.0826 H   0  0  0  0  0  0  0  0  0  0  0  0
  139.4890   75.7906  223.3408 H   0  0  0  0  0  0  0  0  0  0  0  0
  139.5414   78.4334  222.2889 H   0  0  0  0  0  0  0  0  0  0  0  0
  140.8304   77.7521  223.2339 H   0  0  0  0  0  0  0  0  0  0  0  0
  140.4077   77.6039  220.1702 H   0  0  0  0  0  0  0  0  0  0  0  0
  141.8485   78.1458  220.9413 H   0  0  0  0  0  0  0  0  0  0  0  0
  142.0682   75.6468  222.0563 H   0  0  0  0  0  0  0  0  0  0  0  0
  141.6485   75.1938  219.3055 H   0  0  0  0  0  0  0  0  0  0  0  0
  142.9062   76.4322  219.9077 H   0  0  0  0  0  0  0  0  0  0  0  0
  144.8909   75.9343  220.2162 H   0  0  0  0  0  0  0  0  0  0  0  0
  146.6634   74.2886  220.6294 H   0  0  0  0  0  0  0  0  0  0  0  0
  146.1239   71.8965  221.0314 H   0  0  0  0  0  0  0  0  0  0  0  0
  143.7114   71.2203  221.0040 H   0  0  0  0  0  0  0  0  0  0  0  0
  141.1372   72.8920  224.5816 H   0  0  0  0  0  0  0  0  0  0  0  0
  141.5041   72.1334  226.9142 H   0  0  0  0  0  0  0  0  0  0  0  0
  141.3099   70.4694  228.6091 H   0  0  0  0  0  0  0  0  0  0  0  0
  140.5704   68.1915  229.2762 H   0  0  0  0  0  0  0  0  0  0  0  0
  139.4903   66.7462  227.6265 H   0  0  0  0  0  0  0  0  0  0  0  0
  139.1009   67.4499  225.2869 H   0  0  0  0  0  0  0  0  0  0  0  0
  1  2  2  0
  2  3  1  0
  3  4  1  0
  4  5  1  0
  5  6  2  0
  5  7  1  0
  7  8  1  0
  8  9  1  0
  9 10  1  0
 10 11  1  0
 11 12  1  0
 12 13  1  0
 13 14  2  0
 14 15  1  0
 15 16  2  0
 16 17  1  0
 17 18  2  0
  2 19  1  0
 19 20  2  0
 20 21  1  0
 21 22  2  0
 22 23  1  0
 23 24  2  0
 24 25  1  0
 25 26  2  0
 26 27  1  0
 27 28  2  0
 11  7  1  0
 18 13  1  0
 28 19  1  0
 27 22  1  0
  3 29  1  0
  4 30  1  0
  4 31  1  0
  8 32  1  0
  8 33  1  0
  9 34  1  0
  9 35  1  0
 10 36  1  0
 10 37  1  0
 11 38  1  1
 12 39  1  0
 12 40  1  0
 14 41  1  0
 15 42  1  0
 16 43  1  0
 17 44  1  0
 20 45  1  0
 21 46  1  0
 23 47  1  0
 24 48  1  0
 25 49  1  0
 26 50  1  0
M  END
>  <smiles>  (48) 
O=C(NCC(=O)N1CCCC1Cc1ccccn1)c1ccc2ccccc2n1

>  <score_type>  (48) 
oracle

>  <origin>  (48) 
autodockgpu

>  <m_score__min__energy>  (48) 
-8.8499999999999996

>  <m_primary>  (48) 
energy

>  <rmsd>  (48) 
3.185789237126931

>  <m_score__min__rmsd>  (48) 
3.185789237126931

>  <meeko>  (48) 
{"free_energy": -8.14, "intermolecular_energy": -9.93, "internal_energy": -1.48, "cluster_size": 9, "cluster_id": 4, "rank_in_cluster": 6}

>  <energy>  (48) 
-6.93

>  <cluster_rmsd>  (48) 
1.2

>  <cluster>  (48) 
6

$$$$

     RDKit          3D

 50 53  0  0  0  0  0  0  0  0999 V2000
  138.9080   75.1390  221.7950 O   0  0  0  0  0  0  0  0  0  0  0  0
  140.0600   75.6440  221.8890 C   0  0  0  0  0  0  0  0  0  0  0  0
  141.2060   74.8660  221.5210 N   0  0  0  0  0  0  0  0  0  0  0  0
  141.1500   73.5200  221.0550 C   0  0  0  0  0  0  0  0  0  0  0  0
  140.5990   72.5200  221.9700 C   0  0  0  0  0  0  0  0  0  0  0  0
  140.3720   73.0110  223.1630 O   0  0  0  0  0  0  0  0  0  0  0  0
  140.2760   71.1840  221.7970 N   0  0  0  0  0  0  0  0  0  0  0  0
  140.4210   70.2850  220.6360 C   0  0  0  0  0  0  0  0  0  0  0  0
  139.4090   69.1640  220.8200 C   0  0  0  0  0  0  0  0  0  0  0  0
  138.5490   69.7320  221.9160 C   0  0  0  0  0  0  0  0  0  0  0  0
  139.6650   70.3280  222.7920 C   0  0  2  0  0  0  0  0  0  0  0  0
  139.1130   70.9100  224.0090 C   0  0  0  0  0  0  0  0  0  0  0  0
  139.7090   70.5290  225.2920 C   0  0  0  0  0  0  0  0  0  0  0  0
  140.4650   71.5200  225.9420 C   0  0  0  0  0  0  0  0  0  0  0  0
  141.0600   71.2530  227.1470 C   0  0  0  0  0  0  0  0  0  0  0  0
  140.9430   70.0250  227.7560 C   0  0  0  0  0  0  0  0  0  0  0  0
  140.1960   69.0690  227.0990 C   0  0  0  0  0  0  0  0  0  0  0  0
  139.6280   69.3610  225.9220 N   0  0  0  0  0  0  0  0  0  0  0  0
  140.2210   77.0290  222.3770 C   0  0  0  0  0  0  0  0  0  0  0  0
  139.1040   77.7480  222.7150 C   0  0  0  0  0  0  0  0  0  0  0  0
  139.2410   79.0390  223.1710 C   0  0  0  0  0  0  0  0  0  0  0  0
  140.4980   79.6020  223.2850 C   0  0  0  0  0  0  0  0  0  0  0  0
  140.6110   80.9040  223.7460 C   0  0  0  0  0  0  0  0  0  0  0  0
  141.8580   81.4450  223.8510 C   0  0  0  0  0  0  0  0  0  0  0  0
  142.9440   80.6840  223.5010 C   0  0  0  0  0  0  0  0  0  0  0  0
  142.8600   79.3870  223.0390 C   0  0  0  0  0  0  0  0  0  0  0  0
  141.5880   78.8460  222.9340 C   0  0  0  0  0  0  0  0  0  0  0  0
  141.4420   77.5850  222.4900 N   0  0  0  0  0  0  0  0  0  0  0  0
  142.1290   75.3880  221.6250 H   0  0  0  0  0  0  0  0  0  0  0  0
  140.5341   73.5103  220.1437 H   0  0  0  0  0  0  0  0  0  0  0  0
  142.1998   73.2252  220.9102 H   0  0  0  0  0  0  0  0  0  0  0  0
  140.2145   70.8327  219.7047 H   0  0  0  0  0  0  0  0  0  0  0  0
  141.4442   69.8866  220.5703 H   0  0  0  0  0  0  0  0  0  0  0  0
  138.8295   68.9880  219.9018 H   0  0  0  0  0  0  0  0  0  0  0  0
  139.8534   68.1851  221.0531 H   0  0  0  0  0  0  0  0  0  0  0  0
  137.8576   70.5024  221.5438 H   0  0  0  0  0  0  0  0  0  0  0  0
  137.8775   69.0185  222.4160 H   0  0  0  0  0  0  0  0  0  0  0  0
  140.4126   69.6666  223.2542 H   0  0  0  0  0  0  0  0  0  0  0  0
  139.2049   72.0024  223.9186 H   0  0  0  0  0  0  0  0  0  0  0  0
  138.0872   70.5160  224.0579 H   0  0  0  0  0  0  0  0  0  0  0  0
  140.5792   72.5126  225.4819 H   0  0  0  0  0  0  0  0  0  0  0  0
  141.6469   72.0416  227.6406 H   0  0  0  0  0  0  0  0  0  0  0  0
  141.4233   69.8148  228.7230 H   0  0  0  0  0  0  0  0  0  0  0  0
  140.0674   68.0698  227.5408 H   0  0  0  0  0  0  0  0  0  0  0  0
  138.1053   77.2962  222.6224 H   0  0  0  0  0  0  0  0  0  0  0  0
  138.3499   79.6230  223.4448 H   0  0  0  0  0  0  0  0  0  0  0  0
  139.7183   81.4855  224.0199 H   0  0  0  0  0  0  0  0  0  0  0  0
  141.9911   82.4759  224.2109 H   0  0  0  0  0  0  0  0  0  0  0  0
  143.9428   81.1354  223.5944 H   0  0  0  0  0  0  0  0  0  0  0  0
  143.7570   78.8111  222.7676 H   0  0  0  0  0  0  0  0  0  0  0  0
  1  2  2  0
  2  3  1  0
  3  4  1  0
  4  5  1  0
  5  6  2  0
  5  7  1  0
  7  8  1  0
  8  9  1  0
  9 10  1  0
 10 11  1  0
 11 12  1  0
 12 13  1  0
 13 14  2  0
 14 15  1  0
 15 16  2  0
 16 17  1  0
 17 18  2  0
  2 19  1  0
 19 20  2  0
 20 21  1  0
 21 22  2  0
 22 23  1  0
 23 24  2  0
 24 25  1  0
 25 26  2  0
 26 27  1  0
 27 28  2  0
 11  7  1  0
 18 13  1  0
 28 19  1  0
 27 22  1  0
  3 29  1  0
  4 30  1  0
  4 31  1  0
  8 32  1  0
  8 33  1  0
  9 34  1  0
  9 35  1  0
 10 36  1  0
 10 37  1  0
 11 38  1  1
 12 39  1  0
 12 40  1  0
 14 41  1  0
 15 42  1  0
 16 43  1  0
 17 44  1  0
 20 45  1  0
 21 46  1  0
 23 47  1  0
 24 48  1  0
 25 49  1  0
 26 50  1  0
M  END
>  <smiles>  (49) 
O=C(NCC(=O)N1CCCC1Cc1ccccn1)c1ccc2ccccc2n1

>  <score_type>  (49) 
oracle

>  <origin>  (49) 
autodockgpu

>  <m_score__min__energy>  (49) 
-8.8499999999999996

>  <m_primary>  (49) 
energy

>  <rmsd>  (49) 
8.11602905715691

>  <m_score__min__rmsd>  (49) 
8.11602905715691

>  <meeko>  (49) 
{"free_energy": -8.34, "intermolecular_energy": -10.13, "internal_energy": -1.3, "cluster_size": 11, "cluster_id": 2, "rank_in_cluster": 7}

>  <energy>  (49) 
-6.9

>  <cluster_rmsd>  (49) 
1.21

>  <cluster>  (49) 
6

$$$$

     RDKit          3D

 50 53  0  0  0  0  0  0  0  0999 V2000
  139.9670   70.8000  221.4050 O   0  0  0  0  0  0  0  0  0  0  0  0
  139.9680   71.4270  222.5000 C   0  0  0  0  0  0  0  0  0  0  0  0
  139.9710   72.8600  222.4940 N   0  0  0  0  0  0  0  0  0  0  0  0
  139.9890   73.6610  221.3150 C   0  0  0  0  0  0  0  0  0  0  0  0
  139.9100   75.1120  221.4930 C   0  0  0  0  0  0  0  0  0  0  0  0
  139.3720   75.4420  222.6400 O   0  0  0  0  0  0  0  0  0  0  0  0
  140.3030   76.1670  220.6860 N   0  0  0  0  0  0  0  0  0  0  0  0
  140.6390   76.2290  219.2510 C   0  0  0  0  0  0  0  0  0  0  0  0
  141.5230   77.4510  219.0600 C   0  0  0  0  0  0  0  0  0  0  0  0
  141.8780   77.7740  220.4850 C   0  0  0  0  0  0  0  0  0  0  0  0
  140.4970   77.5350  221.1200 C   0  0  2  0  0  0  0  0  0  0  0  0
  140.5200   77.8460  222.5440 C   0  0  0  0  0  0  0  0  0  0  0  0
  141.2960   79.0070  222.9870 C   0  0  0  0  0  0  0  0  0  0  0  0
  140.5540   80.1260  223.4050 C   0  0  0  0  0  0  0  0  0  0  0  0
  141.1950   81.2570  223.8360 C   0  0  0  0  0  0  0  0  0  0  0  0
  142.5680   81.3410  223.8750 C   0  0  0  0  0  0  0  0  0  0  0  0
  143.2740   80.2310  223.4600 C   0  0  0  0  0  0  0  0  0  0  0  0
  142.6180   79.1400  223.0440 N   0  0  0  0  0  0  0  0  0  0  0  0
  139.9660   70.6840  223.7770 C   0  0  0  0  0  0  0  0  0  0  0  0
  139.4040   69.4350  223.8170 C   0  0  0  0  0  0  0  0  0  0  0  0
  139.3960   68.7320  225.0000 C   0  0  0  0  0  0  0  0  0  0  0  0
  139.9520   69.2880  226.1360 C   0  0  0  0  0  0  0  0  0  0  0  0
  139.9320   68.5620  227.3180 C   0  0  0  0  0  0  0  0  0  0  0  0
  140.4830   69.1250  228.4300 C   0  0  0  0  0  0  0  0  0  0  0  0
  141.0330   70.3780  228.3370 C   0  0  0  0  0  0  0  0  0  0  0  0
  141.0660   71.1220  227.1770 C   0  0  0  0  0  0  0  0  0  0  0  0
  140.5020   70.5420  226.0510 C   0  0  0  0  0  0  0  0  0  0  0  0
  140.5040   71.2180  224.8880 N   0  0  0  0  0  0  0  0  0  0  0  0
  139.9590   73.2930  223.4680 H   0  0  0  0  0  0  0  0  0  0  0  0
  140.9256   73.4432  220.7808 H   0  0  0  0  0  0  0  0  0  0  0  0
  139.0707   73.3905  220.7732 H   0  0  0  0  0  0  0  0  0  0  0  0
  141.1792   75.3197  218.9488 H   0  0  0  0  0  0  0  0  0  0  0  0
  139.7302   76.2988  218.6352 H   0  0  0  0  0  0  0  0  0  0  0  0
  142.4171   77.2137  218.4648 H   0  0  0  0  0  0  0  0  0  0  0  0
  141.0434   78.2767  218.5139 H   0  0  0  0  0  0  0  0  0  0  0  0
  142.6430   77.0932  220.8867 H   0  0  0  0  0  0  0  0  0  0  0  0
  142.3182   78.7675  220.6556 H   0  0  0  0  0  0  0  0  0  0  0  0
  139.6436   78.1657  220.8304 H   0  0  0  0  0  0  0  0  0  0  0  0
  139.4789   78.0103  222.8587 H   0  0  0  0  0  0  0  0  0  0  0  0
  141.0305   76.9862  223.0024 H   0  0  0  0  0  0  0  0  0  0  0  0
  139.4547   80.0928  223.3857 H   0  0  0  0  0  0  0  0  0  0  0  0
  140.5964   82.1213  224.1596 H   0  0  0  0  0  0  0  0  0  0  0  0
  143.0790   82.2515  224.2212 H   0  0  0  0  0  0  0  0  0  0  0  0
  144.3739   80.2419  223.4707 H   0  0  0  0  0  0  0  0  0  0  0  0
  138.9623   68.9972  222.9097 H   0  0  0  0  0  0  0  0  0  0  0  0
  138.9474   67.7285  225.0411 H   0  0  0  0  0  0  0  0  0  0  0  0
  139.4833   67.5584  227.3566 H   0  0  0  0  0  0  0  0  0  0  0  0
  140.4866   68.5830  229.3872 H   0  0  0  0  0  0  0  0  0  0  0  0
  141.4750   70.8162  229.2440 H   0  0  0  0  0  0  0  0  0  0  0  0
  141.5169   72.1249  227.1462 H   0  0  0  0  0  0  0  0  0  0  0  0
  1  2  2  0
  2  3  1  0
  3  4  1  0
  4  5  1  0
  5  6  2  0
  5  7  1  0
  7  8  1  0
  8  9  1  0
  9 10  1  0
 10 11  1  0
 11 12  1  0
 12 13  1  0
 13 14  2  0
 14 15  1  0
 15 16  2  0
 16 17  1  0
 17 18  2  0
  2 19  1  0
 19 20  2  0
 20 21  1  0
 21 22  2  0
 22 23  1  0
 23 24  2  0
 24 25  1  0
 25 26  2  0
 26 27  1  0
 27 28  2  0
 11  7  1  0
 18 13  1  0
 28 19  1  0
 27 22  1  0
  3 29  1  0
  4 30  1  0
  4 31  1  0
  8 32  1  0
  8 33  1  0
  9 34  1  0
  9 35  1  0
 10 36  1  0
 10 37  1  0
 11 38  1  6
 12 39  1  0
 12 40  1  0
 14 41  1  0
 15 42  1  0
 16 43  1  0
 17 44  1  0
 20 45  1  0
 21 46  1  0
 23 47  1  0
 24 48  1  0
 25 49  1  0
 26 50  1  0
M  END
>  <smiles>  (50) 
O=C(NCC(=O)N1CCCC1Cc1ccccn1)c1ccc2ccccc2n1

>  <score_type>  (50) 
oracle

>  <origin>  (50) 
autodockgpu

>  <m_score__min__energy>  (50) 
-8.8499999999999996

>  <m_primary>  (50) 
energy

>  <rmsd>  (50) 
1.7064885457992347

>  <m_score__min__rmsd>  (50) 
1.7064885457992347

>  <meeko>  (50) 
{"free_energy": -8.73, "intermolecular_energy": -10.52, "internal_energy": -1.5, "cluster_size": 18, "cluster_id": 1, "rank_in_cluster": 7}

>  <energy>  (50) 
-6.82

>  <cluster_rmsd>  (50) 
0.58

>  <cluster>  (50) 
6

$$$$

     RDKit          3D

 50 53  0  0  0  0  0  0  0  0999 V2000
  141.1690   71.8260  221.4500 O   0  0  0  0  0  0  0  0  0  0  0  0
  140.3370   72.1690  222.3320 C   0  0  0  0  0  0  0  0  0  0  0  0
  139.5010   73.3070  222.1040 N   0  0  0  0  0  0  0  0  0  0  0  0
  139.5900   74.0760  220.8800 C   0  0  0  0  0  0  0  0  0  0  0  0
  140.4030   75.2770  221.1500 C   0  0  0  0  0  0  0  0  0  0  0  0
  140.5920   75.6880  222.3450 O   0  0  0  0  0  0  0  0  0  0  0  0
  141.0280   76.0540  220.1340 N   0  0  0  0  0  0  0  0  0  0  0  0
  140.5700   76.0870  218.7680 C   0  0  0  0  0  0  0  0  0  0  0  0
  141.7260   76.6020  217.9380 C   0  0  0  0  0  0  0  0  0  0  0  0
  142.8850   76.6020  218.9240 C   0  0  0  0  0  0  0  0  0  0  0  0
  142.1820   76.9300  220.2220 C   0  0  1  0  0  0  0  0  0  0  0  0
  141.6290   78.3390  220.2190 C   0  0  0  0  0  0  0  0  0  0  0  0
  141.8140   79.0440  221.5100 C   0  0  0  0  0  0  0  0  0  0  0  0
  141.5040   78.4100  222.6910 C   0  0  0  0  0  0  0  0  0  0  0  0
  141.6910   79.1000  223.8690 C   0  0  0  0  0  0  0  0  0  0  0  0
  142.1740   80.3850  223.8450 C   0  0  0  0  0  0  0  0  0  0  0  0
  142.4600   80.9460  222.6200 C   0  0  0  0  0  0  0  0  0  0  0  0
  142.2910   80.3060  221.4500 N   0  0  0  0  0  0  0  0  0  0  0  0
  140.2050   71.4300  223.5870 C   0  0  0  0  0  0  0  0  0  0  0  0
  139.5780   70.1860  223.5500 C   0  0  0  0  0  0  0  0  0  0  0  0
  139.4510   69.4850  224.7320 C   0  0  0  0  0  0  0  0  0  0  0  0
  139.9240   69.9800  225.9300 C   0  0  0  0  0  0  0  0  0  0  0  0
  139.8010   69.2850  227.1180 C   0  0  0  0  0  0  0  0  0  0  0  0
  140.2850   69.7970  228.3240 C   0  0  0  0  0  0  0  0  0  0  0  0
  140.9010   71.0460  228.2860 C   0  0  0  0  0  0  0  0  0  0  0  0
  141.0300   71.7530  227.0980 C   0  0  0  0  0  0  0  0  0  0  0  0
  140.5450   71.2310  225.9150 C   0  0  0  0  0  0  0  0  0  0  0  0
  140.6660   71.9080  224.7580 N   0  0  0  0  0  0  0  0  0  0  0  0
  138.8170   73.5570  222.8760 H   0  0  0  0  0  0  0  0  0  0  0  0
  140.0672   73.4719  220.0943 H   0  0  0  0  0  0  0  0  0  0  0  0
  138.5852   74.3655  220.5385 H   0  0  0  0  0  0  0  0  0  0  0  0
  140.2861   75.0768  218.4382 H   0  0  0  0  0  0  0  0  0  0  0  0
  139.6857   76.7324  218.6611 H   0  0  0  0  0  0  0  0  0  0  0  0
  141.9304   75.9342  217.0882 H   0  0  0  0  0  0  0  0  0  0  0  0
  141.5343   77.5907  217.4957 H   0  0  0  0  0  0  0  0  0  0  0  0
  143.3727   75.6171  218.9697 H   0  0  0  0  0  0  0  0  0  0  0  0
  143.6929   77.3018  218.6641 H   0  0  0  0  0  0  0  0  0  0  0  0
  142.8419   76.8252  221.0958 H   0  0  0  0  0  0  0  0  0  0  0  0
  142.1395   78.9128  219.4315 H   0  0  0  0  0  0  0  0  0  0  0  0
  140.5461   78.2637  220.0410 H   0  0  0  0  0  0  0  0  0  0  0  0
  141.1173   77.3802  222.6948 H   0  0  0  0  0  0  0  0  0  0  0  0
  141.4530   78.6206  224.8300 H   0  0  0  0  0  0  0  0  0  0  0  0
  142.3280   80.9497  224.7764 H   0  0  0  0  0  0  0  0  0  0  0  0
  142.8483   81.9749  222.5978 H   0  0  0  0  0  0  0  0  0  0  0  0
  139.1949   69.7741  222.6047 H   0  0  0  0  0  0  0  0  0  0  0  0
  138.9578   68.5019  224.7187 H   0  0  0  0  0  0  0  0  0  0  0  0
  139.3084   68.3015  227.1138 H   0  0  0  0  0  0  0  0  0  0  0  0
  140.1839   69.2369  229.2653 H   0  0  0  0  0  0  0  0  0  0  0  0
  141.2935   71.4813  229.2169 H   0  0  0  0  0  0  0  0  0  0  0  0
  141.5224   72.7366  227.0991 H   0  0  0  0  0  0  0  0  0  0  0  0
  1  2  2  0
  2  3  1  0
  3  4  1  0
  4  5  1  0
  5  6  2  0
  5  7  1  0
  7  8  1  0
  8  9  1  0
  9 10  1  0
 10 11  1  0
 11 12  1  0
 12 13  1  0
 13 14  2  0
 14 15  1  0
 15 16  2  0
 16 17  1  0
 17 18  2  0
  2 19  1  0
 19 20  2  0
 20 21  1  0
 21 22  2  0
 22 23  1  0
 23 24  2  0
 24 25  1  0
 25 26  2  0
 26 27  1  0
 27 28  2  0
 11  7  1  0
 18 13  1  0
 28 19  1  0
 27 22  1  0
  3 29  1  0
  4 30  1  0
  4 31  1  0
  8 32  1  0
  8 33  1  0
  9 34  1  0
  9 35  1  0
 10 36  1  0
 10 37  1  0
 11 38  1  1
 12 39  1  0
 12 40  1  0
 14 41  1  0
 15 42  1  0
 16 43  1  0
 17 44  1  0
 20 45  1  0
 21 46  1  0
 23 47  1  0
 24 48  1  0
 25 49  1  0
 26 50  1  0
M  END
>  <smiles>  (51) 
O=C(NCC(=O)N1CCCC1Cc1ccccn1)c1ccc2ccccc2n1

>  <score_type>  (51) 
oracle

>  <origin>  (51) 
autodockgpu

>  <m_score__min__energy>  (51) 
-8.8800000000000008

>  <m_primary>  (51) 
energy

>  <rmsd>  (51) 
1.5351451160690754

>  <m_score__min__rmsd>  (51) 
1.5351451160690754

>  <meeko>  (51) 
{"free_energy": -8.88, "intermolecular_energy": -10.67, "internal_energy": -1.35, "cluster_size": 24, "cluster_id": 1, "rank_in_cluster": 1}

>  <energy>  (51) 
-8.88

>  <cluster_rmsd>  (51) 
0.0

>  <cluster>  (51) 
1

$$$$

     RDKit          3D

 50 53  0  0  0  0  0  0  0  0999 V2000
  141.1540   74.4190  220.6440 O   0  0  0  0  0  0  0  0  0  0  0  0
  140.4080   74.6560  221.6310 C   0  0  0  0  0  0  0  0  0  0  0  0
  139.8280   73.5640  222.3500 N   0  0  0  0  0  0  0  0  0  0  0  0
  140.0790   72.1890  221.9670 C   0  0  0  0  0  0  0  0  0  0  0  0
  139.8670   71.3360  223.1520 C   0  0  0  0  0  0  0  0  0  0  0  0
  140.5020   71.5510  224.2400 O   0  0  0  0  0  0  0  0  0  0  0  0
  138.9640   70.2360  223.1830 N   0  0  0  0  0  0  0  0  0  0  0  0
  138.7290   69.3730  222.0540 C   0  0  0  0  0  0  0  0  0  0  0  0
  137.4110   68.6750  222.3120 C   0  0  0  0  0  0  0  0  0  0  0  0
  136.8620   69.4110  223.5240 C   0  0  0  0  0  0  0  0  0  0  0  0
  138.1310   69.7580  224.2710 C   0  0  1  0  0  0  0  0  0  0  0  0
  138.8220   68.5210  224.8040 C   0  0  0  0  0  0  0  0  0  0  0  0
  139.5970   68.7710  226.0430 C   0  0  0  0  0  0  0  0  0  0  0  0
  140.3620   67.7670  226.5910 C   0  0  0  0  0  0  0  0  0  0  0  0
  141.0670   68.0410  227.7430 C   0  0  0  0  0  0  0  0  0  0  0  0
  140.9960   69.2870  228.3140 C   0  0  0  0  0  0  0  0  0  0  0  0
  140.2070   70.2360  227.7020 C   0  0  0  0  0  0  0  0  0  0  0  0
  139.5040   70.0070  226.5780 N   0  0  0  0  0  0  0  0  0  0  0  0
  140.1190   76.0230  222.0610 C   0  0  0  0  0  0  0  0  0  0  0  0
  138.7870   76.4300  222.0940 C   0  0  0  0  0  0  0  0  0  0  0  0
  138.5090   77.7200  222.4990 C   0  0  0  0  0  0  0  0  0  0  0  0
  139.5050   78.6010  222.8670 C   0  0  0  0  0  0  0  0  0  0  0  0
  139.2370   79.8940  223.2740 C   0  0  0  0  0  0  0  0  0  0  0  0
  140.2550   80.7760  223.6440 C   0  0  0  0  0  0  0  0  0  0  0  0
  141.5630   80.3000  223.5880 C   0  0  0  0  0  0  0  0  0  0  0  0
  141.8450   79.0030  223.1810 C   0  0  0  0  0  0  0  0  0  0  0  0
  140.8250   78.1460  222.8180 C   0  0  0  0  0  0  0  0  0  0  0  0
  141.0870   76.8860  222.4220 N   0  0  0  0  0  0  0  0  0  0  0  0
  139.2060   73.8120  223.1740 H   0  0  0  0  0  0  0  0  0  0  0  0
  139.3858   71.8929  221.1658 H   0  0  0  0  0  0  0  0  0  0  0  0
  141.1094   72.0787  221.5980 H   0  0  0  0  0  0  0  0  0  0  0  0
  138.6704   69.9653  221.1289 H   0  0  0  0  0  0  0  0  0  0  0  0
  139.5461   68.6466  221.9323 H   0  0  0  0  0  0  0  0  0  0  0  0
  136.7355   68.7756  221.4496 H   0  0  0  0  0  0  0  0  0  0  0  0
  137.5199   67.5928  222.4762 H   0  0  0  0  0  0  0  0  0  0  0  0
  136.3104   70.3156  223.2282 H   0  0  0  0  0  0  0  0  0  0  0  0
  136.1417   68.8255  224.1142 H   0  0  0  0  0  0  0  0  0  0  0  0
  137.9493   70.4380  225.1163 H   0  0  0  0  0  0  0  0  0  0  0  0
  138.0581   67.7589  225.0176 H   0  0  0  0  0  0  0  0  0  0  0  0
  139.5348   68.1887  224.0349 H   0  0  0  0  0  0  0  0  0  0  0  0
  140.4095   66.7729  226.1224 H   0  0  0  0  0  0  0  0  0  0  0  0
  141.6878   67.2596  228.2057 H   0  0  0  0  0  0  0  0  0  0  0  0
  141.5528   69.5210  229.2334 H   0  0  0  0  0  0  0  0  0  0  0  0
  140.1486   71.2357  228.1572 H   0  0  0  0  0  0  0  0  0  0  0  0
  137.9788   75.7420  221.8051 H   0  0  0  0  0  0  0  0  0  0  0  0
  137.4619   78.0557  222.5292 H   0  0  0  0  0  0  0  0  0  0  0  0
  138.1928   80.2384  223.3076 H   0  0  0  0  0  0  0  0  0  0  0  0
  140.0330   81.8040  223.9663 H   0  0  0  0  0  0  0  0  0  0  0  0
  142.3906   80.9664  223.8725 H   0  0  0  0  0  0  0  0  0  0  0  0
  142.8882   78.6557  223.1475 H   0  0  0  0  0  0  0  0  0  0  0  0
  1  2  2  0
  2  3  1  0
  3  4  1  0
  4  5  1  0
  5  6  2  0
  5  7  1  0
  7  8  1  0
  8  9  1  0
  9 10  1  0
 10 11  1  0
 11 12  1  0
 12 13  1  0
 13 14  2  0
 14 15  1  0
 15 16  2  0
 16 17  1  0
 17 18  2  0
  2 19  1  0
 19 20  2  0
 20 21  1  0
 21 22  2  0
 22 23  1  0
 23 24  2  0
 24 25  1  0
 25 26  2  0
 26 27  1  0
 27 28  2  0
 11  7  1  0
 18 13  1  0
 28 19  1  0
 27 22  1  0
  3 29  1  0
  4 30  1  0
  4 31  1  0
  8 32  1  0
  8 33  1  0
  9 34  1  0
  9 35  1  0
 10 36  1  0
 10 37  1  0
 11 38  1  1
 12 39  1  0
 12 40  1  0
 14 41  1  0
 15 42  1  0
 16 43  1  0
 17 44  1  0
 20 45  1  0
 21 46  1  0
 23 47  1  0
 24 48  1  0
 25 49  1  0
 26 50  1  0
M  END
>  <smiles>  (52) 
O=C(NCC(=O)N1CCCC1Cc1ccccn1)c1ccc2ccccc2n1

>  <score_type>  (52) 
oracle

>  <origin>  (52) 
autodockgpu

>  <m_score__min__energy>  (52) 
-8.8800000000000008

>  <m_primary>  (52) 
energy

>  <rmsd>  (52) 
8.126794986857998

>  <m_score__min__rmsd>  (52) 
8.126794986857998

>  <meeko>  (52) 
{"free_energy": -8.13, "intermolecular_energy": -9.92, "internal_energy": -1.25, "cluster_size": 13, "cluster_id": 2, "rank_in_cluster": 12}

>  <energy>  (52) 
-8.84

>  <cluster_rmsd>  (52) 
0.55

>  <cluster>  (52) 
1

$$$$

     RDKit          3D

 50 53  0  0  0  0  0  0  0  0999 V2000
  140.9000   71.4510  221.3070 O   0  0  0  0  0  0  0  0  0  0  0  0
  140.4130   72.0160  222.3230 C   0  0  0  0  0  0  0  0  0  0  0  0
  140.0310   73.3930  222.2440 N   0  0  0  0  0  0  0  0  0  0  0  0
  140.1920   74.1530  221.0220 C   0  0  0  0  0  0  0  0  0  0  0  0
  140.4810   75.5530  221.3860 C   0  0  0  0  0  0  0  0  0  0  0  0
  140.0420   76.0530  222.4770 O   0  0  0  0  0  0  0  0  0  0  0  0
  141.2480   76.4390  220.5780 N   0  0  0  0  0  0  0  0  0  0  0  0
  141.4420   77.8310  220.8940 C   0  0  0  0  0  0  0  0  0  0  0  0
  141.8680   78.5090  219.6090 C   0  0  0  0  0  0  0  0  0  0  0  0
  141.6480   77.4300  218.5600 C   0  0  0  0  0  0  0  0  0  0  0  0
  141.9620   76.1740  219.3420 C   0  0  1  0  0  0  0  0  0  0  0  0
  143.4270   76.1030  219.7220 C   0  0  0  0  0  0  0  0  0  0  0  0
  143.8840   74.7290  220.0350 C   0  0  0  0  0  0  0  0  0  0  0  0
  145.1430   74.5230  220.5510 C   0  0  0  0  0  0  0  0  0  0  0  0
  145.5290   73.2290  220.8290 C   0  0  0  0  0  0  0  0  0  0  0  0
  144.6670   72.1870  220.5920 C   0  0  0  0  0  0  0  0  0  0  0  0
  143.4250   72.4800  220.0750 C   0  0  0  0  0  0  0  0  0  0  0  0
  143.0110   73.7270  219.7900 N   0  0  0  0  0  0  0  0  0  0  0  0
  140.2290   71.2980  223.5830 C   0  0  0  0  0  0  0  0  0  0  0  0
  139.5780   70.0670  223.5440 C   0  0  0  0  0  0  0  0  0  0  0  0
  139.4010   69.3850  224.7310 C   0  0  0  0  0  0  0  0  0  0  0  0
  139.8500   69.8870  225.9360 C   0  0  0  0  0  0  0  0  0  0  0  0
  139.6780   69.2130  227.1300 C   0  0  0  0  0  0  0  0  0  0  0  0
  140.1360   69.7310  228.3420 C   0  0  0  0  0  0  0  0  0  0  0  0
  140.7790   70.9670  228.3050 C   0  0  0  0  0  0  0  0  0  0  0  0
  140.9580   71.6550  227.1120 C   0  0  0  0  0  0  0  0  0  0  0  0
  140.4970   71.1250  225.9230 C   0  0  0  0  0  0  0  0  0  0  0  0
  140.6650   71.7830  224.7600 N   0  0  0  0  0  0  0  0  0  0  0  0
  139.6280   73.8250  223.1250 H   0  0  0  0  0  0  0  0  0  0  0  0
  141.0256   73.7412  220.4342 H   0  0  0  0  0  0  0  0  0  0  0  0
  139.2752   74.0988  220.4167 H   0  0  0  0  0  0  0  0  0  0  0  0
  140.5038   78.2712  221.2628 H   0  0  0  0  0  0  0  0  0  0  0  0
  142.2002   77.9581  221.6807 H   0  0  0  0  0  0  0  0  0  0  0  0
  141.2455   79.3923  219.4034 H   0  0  0  0  0  0  0  0  0  0  0  0
  142.9035   78.8789  219.6381 H   0  0  0  0  0  0  0  0  0  0  0  0
  140.6091   77.4281  218.1984 H   0  0  0  0  0  0  0  0  0  0  0  0
  142.2590   77.5566  217.6541 H   0  0  0  0  0  0  0  0  0  0  0  0
  141.7085   75.2585  218.7875 H   0  0  0  0  0  0  0  0  0  0  0  0
  144.0248   76.4872  218.8823 H   0  0  0  0  0  0  0  0  0  0  0  0
  143.5575   76.7058  220.6329 H   0  0  0  0  0  0  0  0  0  0  0  0
  145.8228   75.3677  220.7366 H   0  0  0  0  0  0  0  0  0  0  0  0
  146.5294   73.0310  221.2414 H   0  0  0  0  0  0  0  0  0  0  0  0
  144.9599   71.1491  220.8087 H   0  0  0  0  0  0  0  0  0  0  0  0
  142.7324   71.6469  219.8844 H   0  0  0  0  0  0  0  0  0  0  0  0
  139.2149   69.6498  222.5932 H   0  0  0  0  0  0  0  0  0  0  0  0
  138.8869   68.4126  224.7163 H   0  0  0  0  0  0  0  0  0  0  0  0
  139.1651   68.2399  227.1249 H   0  0  0  0  0  0  0  0  0  0  0  0
  139.9954   69.1865  229.2874 H   0  0  0  0  0  0  0  0  0  0  0  0
  141.1529   71.4072  229.2412 H   0  0  0  0  0  0  0  0  0  0  0  0
  141.4703   72.6284  227.1141 H   0  0  0  0  0  0  0  0  0  0  0  0
  1  2  2  0
  2  3  1  0
  3  4  1  0
  4  5  1  0
  5  6  2  0
  5  7  1  0
  7  8  1  0
  8  9  1  0
  9 10  1  0
 10 11  1  0
 11 12  1  0
 12 13  1  0
 13 14  2  0
 14 15  1  0
 15 16  2  0
 16 17  1  0
 17 18  2  0
  2 19  1  0
 19 20  2  0
 20 21  1  0
 21 22  2  0
 22 23  1  0
 23 24  2  0
 24 25  1  0
 25 26  2  0
 26 27  1  0
 27 28  2  0
 11  7  1  0
 18 13  1  0
 28 19  1  0
 27 22  1  0
  3 29  1  0
  4 30  1  0
  4 31  1  0
  8 32  1  0
  8 33  1  0
  9 34  1  0
  9 35  1  0
 10 36  1  0
 10 37  1  0
 11 38  1  6
 12 39  1  0
 12 40  1  0
 14 41  1  0
 15 42  1  0
 16 43  1  0
 17 44  1  0
 20 45  1  0
 21 46  1  0
 23 47  1  0
 24 48  1  0
 25 49  1  0
 26 50  1  0
M  END
>  <smiles>  (53) 
O=C(NCC(=O)N1CCCC1Cc1ccccn1)c1ccc2ccccc2n1

>  <score_type>  (53) 
oracle

>  <origin>  (53) 
autodockgpu

>  <m_score__min__energy>  (53) 
-8.8800000000000008

>  <m_primary>  (53) 
energy

>  <rmsd>  (53) 
2.2171764251614157

>  <m_score__min__rmsd>  (53) 
2.2171764251614157

>  <meeko>  (53) 
{"free_energy": -8.44, "intermolecular_energy": -10.23, "internal_energy": -2.06, "cluster_size": 9, "cluster_id": 3, "rank_in_cluster": 4}

>  <energy>  (53) 
-8.78

>  <cluster_rmsd>  (53) 
0.37

>  <cluster>  (53) 
1

$$$$

     RDKit          3D

 50 53  0  0  0  0  0  0  0  0999 V2000
  141.0110   71.3790  221.3530 O   0  0  0  0  0  0  0  0  0  0  0  0
  140.4840   71.9440  222.3490 C   0  0  0  0  0  0  0  0  0  0  0  0
  140.1010   73.3190  222.2530 N   0  0  0  0  0  0  0  0  0  0  0  0
  140.3060   74.0770  221.0350 C   0  0  0  0  0  0  0  0  0  0  0  0
  140.4740   75.4960  221.4010 C   0  0  0  0  0  0  0  0  0  0  0  0
  139.9350   75.9720  222.4570 O   0  0  0  0  0  0  0  0  0  0  0  0
  141.2270   76.4280  220.6310 N   0  0  0  0  0  0  0  0  0  0  0  0
  141.4240   77.8010  221.0220 C   0  0  0  0  0  0  0  0  0  0  0  0
  141.8280   78.5510  219.7710 C   0  0  0  0  0  0  0  0  0  0  0  0
  141.5920   77.5330  218.6660 C   0  0  0  0  0  0  0  0  0  0  0  0
  141.9200   76.2350  219.3710 C   0  0  1  0  0  0  0  0  0  0  0  0
  143.3910   76.1460  219.7210 C   0  0  0  0  0  0  0  0  0  0  0  0
  143.8420   74.7630  220.0050 C   0  0  0  0  0  0  0  0  0  0  0  0
  145.0690   74.5450  220.5860 C   0  0  0  0  0  0  0  0  0  0  0  0
  145.4510   73.2440  220.8340 C   0  0  0  0  0  0  0  0  0  0  0  0
  144.6150   72.2060  220.5020 C   0  0  0  0  0  0  0  0  0  0  0  0
  143.4030   72.5110  219.9230 C   0  0  0  0  0  0  0  0  0  0  0  0
  142.9950   73.7670  219.6660 N   0  0  0  0  0  0  0  0  0  0  0  0
  140.2550   71.2280  223.6030 C   0  0  0  0  0  0  0  0  0  0  0  0
  139.5790   70.0110  223.5460 C   0  0  0  0  0  0  0  0  0  0  0  0
  139.3590   69.3310  224.7270 C   0  0  0  0  0  0  0  0  0  0  0  0
  139.7880   69.8220  225.9430 C   0  0  0  0  0  0  0  0  0  0  0  0
  139.5730   69.1490  227.1310 C   0  0  0  0  0  0  0  0  0  0  0  0
  140.0120   69.6570  228.3550 C   0  0  0  0  0  0  0  0  0  0  0  0
  140.6810   70.8790  228.3360 C   0  0  0  0  0  0  0  0  0  0  0  0
  140.9030   71.5650  227.1490 C   0  0  0  0  0  0  0  0  0  0  0  0
  140.4610   71.0470  225.9480 C   0  0  0  0  0  0  0  0  0  0  0  0
  140.6710   71.7030  224.7910 N   0  0  0  0  0  0  0  0  0  0  0  0
  139.6630   73.7530  223.1170 H   0  0  0  0  0  0  0  0  0  0  0  0
  141.2076   73.7159  220.5185 H   0  0  0  0  0  0  0  0  0  0  0  0
  139.4445   73.9566  220.3617 H   0  0  0  0  0  0  0  0  0  0  0  0
  140.4912   78.2174  221.4300 H   0  0  0  0  0  0  0  0  0  0  0  0
  142.1946   77.8854  221.8024 H   0  0  0  0  0  0  0  0  0  0  0  0
  141.2013   79.4433  219.6260 H   0  0  0  0  0  0  0  0  0  0  0  0
  142.8636   78.9203  219.8042 H   0  0  0  0  0  0  0  0  0  0  0  0
  140.5474   77.5496  218.3217 H   0  0  0  0  0  0  0  0  0  0  0  0
  142.1879   77.7118  217.7588 H   0  0  0  0  0  0  0  0  0  0  0  0
  141.6577   75.3515  218.7705 H   0  0  0  0  0  0  0  0  0  0  0  0
  143.9757   76.5375  218.8755 H   0  0  0  0  0  0  0  0  0  0  0  0
  143.5446   76.7342  220.6378 H   0  0  0  0  0  0  0  0  0  0  0  0
  145.7282   75.3864  220.8460 H   0  0  0  0  0  0  0  0  0  0  0  0
  146.4265   73.0368  221.2983 H   0  0  0  0  0  0  0  0  0  0  0  0
  144.9048   71.1622  220.6928 H   0  0  0  0  0  0  0  0  0  0  0  0
  142.7315   71.6817  219.6559 H   0  0  0  0  0  0  0  0  0  0  0  0
  139.2300   69.6031  222.5859 H   0  0  0  0  0  0  0  0  0  0  0  0
  138.8259   68.3693  224.6978 H   0  0  0  0  0  0  0  0  0  0  0  0
  139.0412   68.1863  227.1115 H   0  0  0  0  0  0  0  0  0  0  0  0
  139.8369   69.1147  229.2959 H   0  0  0  0  0  0  0  0  0  0  0  0
  141.0412   71.3099  229.2818 H   0  0  0  0  0  0  0  0  0  0  0  0
  141.4347   72.5278  227.1659 H   0  0  0  0  0  0  0  0  0  0  0  0
  1  2  2  0
  2  3  1  0
  3  4  1  0
  4  5  1  0
  5  6  2  0
  5  7  1  0
  7  8  1  0
  8  9  1  0
  9 10  1  0
 10 11  1  0
 11 12  1  0
 12 13  1  0
 13 14  2  0
 14 15  1  0
 15 16  2  0
 16 17  1  0
 17 18  2  0
  2 19  1  0
 19 20  2  0
 20 21  1  0
 21 22  2  0
 22 23  1  0
 23 24  2  0
 24 25  1  0
 25 26  2  0
 26 27  1  0
 27 28  2  0
 11  7  1  0
 18 13  1  0
 28 19  1  0
 27 22  1  0
  3 29  1  0
  4 30  1  0
  4 31  1  0
  8 32  1  0
  8 33  1  0
  9 34  1  0
  9 35  1  0
 10 36  1  0
 10 37  1  0
 11 38  1  6
 12 39  1  0
 12 40  1  0
 14 41  1  0
 15 42  1  0
 16 43  1  0
 17 44  1  0
 20 45  1  0
 21 46  1  0
 23 47  1  0
 24 48  1  0
 25 49  1  0
 26 50  1  0
M  END
>  <smiles>  (54) 
O=C(NCC(=O)N1CCCC1Cc1ccccn1)c1ccc2ccccc2n1

>  <score_type>  (54) 
oracle

>  <origin>  (54) 
autodockgpu

>  <m_score__min__energy>  (54) 
-8.8800000000000008

>  <m_primary>  (54) 
energy

>  <rmsd>  (54) 
2.2455374327513526

>  <m_score__min__rmsd>  (54) 
2.2455374327513526

>  <meeko>  (54) 
{"free_energy": -8.4, "intermolecular_energy": -10.19, "internal_energy": -2.09, "cluster_size": 9, "cluster_id": 3, "rank_in_cluster": 6}

>  <energy>  (54) 
-8.75

>  <cluster_rmsd>  (54) 
0.37

>  <cluster>  (54) 
1

$$$$

     RDKit          3D

 50 53  0  0  0  0  0  0  0  0999 V2000
  140.7250   71.5690  221.3110 O   0  0  0  0  0  0  0  0  0  0  0  0
  140.2820   72.1230  222.3530 C   0  0  0  0  0  0  0  0  0  0  0  0
  139.9140   73.5050  222.3110 N   0  0  0  0  0  0  0  0  0  0  0  0
  140.0380   74.2830  221.0950 C   0  0  0  0  0  0  0  0  0  0  0  0
  140.5100   75.6320  221.4590 C   0  0  0  0  0  0  0  0  0  0  0  0
  140.3030   76.1090  222.6270 O   0  0  0  0  0  0  0  0  0  0  0  0
  141.2150   76.4910  220.5690 N   0  0  0  0  0  0  0  0  0  0  0  0
  141.4190   77.8950  220.8210 C   0  0  0  0  0  0  0  0  0  0  0  0
  141.7530   78.5270  219.4860 C   0  0  0  0  0  0  0  0  0  0  0  0
  141.4700   77.4100  218.4940 C   0  0  0  0  0  0  0  0  0  0  0  0
  141.8450   76.1850  219.2980 C   0  0  1  0  0  0  0  0  0  0  0  0
  143.3320   76.1340  219.5790 C   0  0  0  0  0  0  0  0  0  0  0  0
  143.7980   74.8010  220.0280 C   0  0  0  0  0  0  0  0  0  0  0  0
  145.0780   74.6440  220.5070 C   0  0  0  0  0  0  0  0  0  0  0  0
  145.4720   73.3870  220.9140 C   0  0  0  0  0  0  0  0  0  0  0  0
  144.5960   72.3320  220.8360 C   0  0  0  0  0  0  0  0  0  0  0  0
  143.3330   72.5750  220.3450 C   0  0  0  0  0  0  0  0  0  0  0  0
  142.9120   73.7860  219.9380 N   0  0  0  0  0  0  0  0  0  0  0  0
  140.1370   71.3870  223.6080 C   0  0  0  0  0  0  0  0  0  0  0  0
  139.5290   70.1340  223.5630 C   0  0  0  0  0  0  0  0  0  0  0  0
  139.3890   69.4350  224.7450 C   0  0  0  0  0  0  0  0  0  0  0  0
  139.8310   69.9410  225.9500 C   0  0  0  0  0  0  0  0  0  0  0  0
  139.6950   69.2490  227.1390 C   0  0  0  0  0  0  0  0  0  0  0  0
  140.1470   69.7720  228.3510 C   0  0  0  0  0  0  0  0  0  0  0  0
  140.7450   71.0300  228.3210 C   0  0  0  0  0  0  0  0  0  0  0  0
  140.8870   71.7350  227.1330 C   0  0  0  0  0  0  0  0  0  0  0  0
  140.4330   71.2010  225.9430 C   0  0  0  0  0  0  0  0  0  0  0  0
  140.5670   71.8760  224.7860 N   0  0  0  0  0  0  0  0  0  0  0  0
  139.5480   73.9280  223.2130 H   0  0  0  0  0  0  0  0  0  0  0  0
  140.7619   73.8048  220.4188 H   0  0  0  0  0  0  0  0  0  0  0  0
  139.0668   74.3450  220.5822 H   0  0  0  0  0  0  0  0  0  0  0  0
  140.5042   78.3436  221.2356 H   0  0  0  0  0  0  0  0  0  0  0  0
  142.2268   78.0551  221.5503 H   0  0  0  0  0  0  0  0  0  0  0  0
  141.1123   79.3997  219.2911 H   0  0  0  0  0  0  0  0  0  0  0  0
  142.7859   78.9015  219.4317 H   0  0  0  0  0  0  0  0  0  0  0  0
  140.4091   77.3902  218.2041 H   0  0  0  0  0  0  0  0  0  0  0  0
  142.0171   77.5062  217.5446 H   0  0  0  0  0  0  0  0  0  0  0  0
  141.5605   75.2488  218.7955 H   0  0  0  0  0  0  0  0  0  0  0  0
  143.8708   76.4002  218.6577 H   0  0  0  0  0  0  0  0  0  0  0  0
  143.5337   76.8421  220.3963 H   0  0  0  0  0  0  0  0  0  0  0  0
  145.7686   75.4983  220.5638 H   0  0  0  0  0  0  0  0  0  0  0  0
  146.4892   73.2289  221.3017 H   0  0  0  0  0  0  0  0  0  0  0  0
  144.8947   71.3230  221.1563 H   0  0  0  0  0  0  0  0  0  0  0  0
  142.6291   71.7321  220.2820 H   0  0  0  0  0  0  0  0  0  0  0  0
  139.1705   69.7135  222.6118 H   0  0  0  0  0  0  0  0  0  0  0  0
  138.9106   68.4447  224.7256 H   0  0  0  0  0  0  0  0  0  0  0  0
  139.2171   68.2583  227.1293 H   0  0  0  0  0  0  0  0  0  0  0  0
  140.0357   69.2136  229.2922 H   0  0  0  0  0  0  0  0  0  0  0  0
  141.1123   71.4741  229.2579 H   0  0  0  0  0  0  0  0  0  0  0  0
  141.3645   72.7259  227.1398 H   0  0  0  0  0  0  0  0  0  0  0  0
  1  2  2  0
  2  3  1  0
  3  4  1  0
  4  5  1  0
  5  6  2  0
  5  7  1  0
  7  8  1  0
  8  9  1  0
  9 10  1  0
 10 11  1  0
 11 12  1  0
 12 13  1  0
 13 14  2  0
 14 15  1  0
 15 16  2  0
 16 17  1  0
 17 18  2  0
  2 19  1  0
 19 20  2  0
 20 21  1  0
 21 22  2  0
 22 23  1  0
 23 24  2  0
 24 25  1  0
 25 26  2  0
 26 27  1  0
 27 28  2  0
 11  7  1  0
 18 13  1  0
 28 19  1  0
 27 22  1  0
  3 29  1  0
  4 30  1  0
  4 31  1  0
  8 32  1  0
  8 33  1  0
  9 34  1  0
  9 35  1  0
 10 36  1  0
 10 37  1  0
 11 38  1  6
 12 39  1  0
 12 40  1  0
 14 41  1  0
 15 42  1  0
 16 43  1  0
 17 44  1  0
 20 45  1  0
 21 46  1  0
 23 47  1  0
 24 48  1  0
 25 49  1  0
 26 50  1  0
M  END
>  <smiles>  (55) 
O=C(NCC(=O)N1CCCC1Cc1ccccn1)c1ccc2ccccc2n1

>  <score_type>  (55) 
oracle

>  <origin>  (55) 
autodockgpu

>  <m_score__min__energy>  (55) 
-8.8800000000000008

>  <m_primary>  (55) 
energy

>  <rmsd>  (55) 
2.189098584196657

>  <m_score__min__rmsd>  (55) 
2.189098584196657

>  <meeko>  (55) 
{"free_energy": -8.4, "intermolecular_energy": -10.19, "internal_energy": -2.08, "cluster_size": 9, "cluster_id": 3, "rank_in_cluster": 5}

>  <energy>  (55) 
-8.72

>  <cluster_rmsd>  (55) 
0.41

>  <cluster>  (55) 
1

$$$$

     RDKit          3D

 50 53  0  0  0  0  0  0  0  0999 V2000
  140.8180   71.5400  221.3140 O   0  0  0  0  0  0  0  0  0  0  0  0
  140.3540   72.0900  222.3480 C   0  0  0  0  0  0  0  0  0  0  0  0
  139.9730   73.4680  222.3000 N   0  0  0  0  0  0  0  0  0  0  0  0
  140.1090   74.2470  221.0860 C   0  0  0  0  0  0  0  0  0  0  0  0
  140.5570   75.6020  221.4580 C   0  0  0  0  0  0  0  0  0  0  0  0
  140.3020   76.0860  222.6130 O   0  0  0  0  0  0  0  0  0  0  0  0
  141.2880   76.4600  220.5880 N   0  0  0  0  0  0  0  0  0  0  0  0
  141.4810   77.8660  220.8420 C   0  0  0  0  0  0  0  0  0  0  0  0
  141.8570   78.4950  219.5180 C   0  0  0  0  0  0  0  0  0  0  0  0
  141.6090   77.3730  218.5200 C   0  0  0  0  0  0  0  0  0  0  0  0
  141.9600   76.1520  219.3400 C   0  0  1  0  0  0  0  0  0  0  0  0
  143.4370   76.1050  219.6700 C   0  0  0  0  0  0  0  0  0  0  0  0
  143.9030   74.7610  220.0840 C   0  0  0  0  0  0  0  0  0  0  0  0
  145.1870   74.5890  220.5470 C   0  0  0  0  0  0  0  0  0  0  0  0
  145.5800   73.3230  220.9230 C   0  0  0  0  0  0  0  0  0  0  0  0
  144.7000   72.2730  220.8310 C   0  0  0  0  0  0  0  0  0  0  0  0
  143.4330   72.5300  220.3580 C   0  0  0  0  0  0  0  0  0  0  0  0
  143.0120   73.7510  219.9810 N   0  0  0  0  0  0  0  0  0  0  0  0
  140.1960   71.3530  223.6010 C   0  0  0  0  0  0  0  0  0  0  0  0
  139.5480   70.1200  223.5550 C   0  0  0  0  0  0  0  0  0  0  0  0
  139.3960   69.4200  224.7350 C   0  0  0  0  0  0  0  0  0  0  0  0
  139.8640   69.9050  225.9390 C   0  0  0  0  0  0  0  0  0  0  0  0
  139.7170   69.2120  227.1250 C   0  0  0  0  0  0  0  0  0  0  0  0
  140.1950   69.7140  228.3360 C   0  0  0  0  0  0  0  0  0  0  0  0
  140.8340   70.9530  228.3060 C   0  0  0  0  0  0  0  0  0  0  0  0
  140.9880   71.6590  227.1210 C   0  0  0  0  0  0  0  0  0  0  0  0
  140.5070   71.1460  225.9320 C   0  0  0  0  0  0  0  0  0  0  0  0
  140.6520   71.8220  224.7770 N   0  0  0  0  0  0  0  0  0  0  0  0
  139.5880   73.8870  223.1960 H   0  0  0  0  0  0  0  0  0  0  0  0
  140.8511   73.7779  220.4233 H   0  0  0  0  0  0  0  0  0  0  0  0
  139.1467   74.2964  220.5554 H   0  0  0  0  0  0  0  0  0  0  0  0
  140.5522   78.3138  221.2251 H   0  0  0  0  0  0  0  0  0  0  0  0
  142.2645   78.0297  221.5965 H   0  0  0  0  0  0  0  0  0  0  0  0
  141.2210   79.3655  219.2996 H   0  0  0  0  0  0  0  0  0  0  0  0
  142.8900   78.8724  219.4964 H   0  0  0  0  0  0  0  0  0  0  0  0
  140.5582   77.3498  218.1954 H   0  0  0  0  0  0  0  0  0  0  0  0
  142.1867   77.4673  217.5887 H   0  0  0  0  0  0  0  0  0  0  0  0
  141.6942   75.2136  218.8313 H   0  0  0  0  0  0  0  0  0  0  0  0
  144.0038   76.4117  218.7785 H   0  0  0  0  0  0  0  0  0  0  0  0
  143.6024   76.7831  220.5202 H   0  0  0  0  0  0  0  0  0  0  0  0
  145.8814   75.4394  220.6152 H   0  0  0  0  0  0  0  0  0  0  0  0
  146.6003   73.1532  221.2975 H   0  0  0  0  0  0  0  0  0  0  0  0
  144.9986   71.2564  221.1265 H   0  0  0  0  0  0  0  0  0  0  0  0
  142.7257   71.6908  220.2842 H   0  0  0  0  0  0  0  0  0  0  0  0
  139.1683   69.7159  222.6050 H   0  0  0  0  0  0  0  0  0  0  0  0
  138.8861   68.4455  224.7148 H   0  0  0  0  0  0  0  0  0  0  0  0
  139.2086   68.2366  227.1144 H   0  0  0  0  0  0  0  0  0  0  0  0
  140.0728   69.1553  229.2756 H   0  0  0  0  0  0  0  0  0  0  0  0
  141.2244   71.3800  229.2415 H   0  0  0  0  0  0  0  0  0  0  0  0
  141.4968   72.6342  227.1287 H   0  0  0  0  0  0  0  0  0  0  0  0
  1  2  2  0
  2  3  1  0
  3  4  1  0
  4  5  1  0
  5  6  2  0
  5  7  1  0
  7  8  1  0
  8  9  1  0
  9 10  1  0
 10 11  1  0
 11 12  1  0
 12 13  1  0
 13 14  2  0
 14 15  1  0
 15 16  2  0
 16 17  1  0
 17 18  2  0
  2 19  1  0
 19 20  2  0
 20 21  1  0
 21 22  2  0
 22 23  1  0
 23 24  2  0
 24 25  1  0
 25 26  2  0
 26 27  1  0
 27 28  2  0
 11  7  1  0
 18 13  1  0
 28 19  1  0
 27 22  1  0
  3 29  1  0
  4 30  1  0
  4 31  1  0
  8 32  1  0
  8 33  1  0
  9 34  1  0
  9 35  1  0
 10 36  1  0
 10 37  1  0
 11 38  1  6
 12 39  1  0
 12 40  1  0
 14 41  1  0
 15 42  1  0
 16 43  1  0
 17 44  1  0
 20 45  1  0
 21 46  1  0
 23 47  1  0
 24 48  1  0
 25 49  1  0
 26 50  1  0
M  END
>  <smiles>  (56) 
O=C(NCC(=O)N1CCCC1Cc1ccccn1)c1ccc2ccccc2n1

>  <score_type>  (56) 
oracle

>  <origin>  (56) 
autodockgpu

>  <m_score__min__energy>  (56) 
-8.8800000000000008

>  <m_primary>  (56) 
energy

>  <rmsd>  (56) 
2.2074854468089056

>  <m_score__min__rmsd>  (56) 
2.2074854468089056

>  <meeko>  (56) 
{"free_energy": -8.48, "intermolecular_energy": -10.27, "internal_energy": -2.05, "cluster_size": 9, "cluster_id": 3, "rank_in_cluster": 2}

>  <energy>  (56) 
-8.71

>  <cluster_rmsd>  (56) 
0.55

>  <cluster>  (56) 
1

$$$$

     RDKit          3D

 50 53  0  0  0  0  0  0  0  0999 V2000
  133.9540   69.2470  226.4770 O   0  0  0  0  0  0  0  0  0  0  0  0
  134.2800   70.3500  225.9610 C   0  0  0  0  0  0  0  0  0  0  0  0
  135.2720   70.3770  224.9310 N   0  0  0  0  0  0  0  0  0  0  0  0
  135.9120   69.1630  224.4670 C   0  0  0  0  0  0  0  0  0  0  0  0
  137.3710   69.3290  224.6110 C   0  0  0  0  0  0  0  0  0  0  0  0
  138.0480   68.5650  225.3800 O   0  0  0  0  0  0  0  0  0  0  0  0
  138.1250   70.3240  223.9280 N   0  0  0  0  0  0  0  0  0  0  0  0
  137.5470   71.5380  223.4070 C   0  0  0  0  0  0  0  0  0  0  0  0
  138.5160   72.0670  222.3720 C   0  0  0  0  0  0  0  0  0  0  0  0
  139.5110   70.9270  222.2150 C   0  0  0  0  0  0  0  0  0  0  0  0
  139.5420   70.3540  223.6150 C   0  0  1  0  0  0  0  0  0  0  0  0
  140.1600   71.3210  224.6020 C   0  0  0  0  0  0  0  0  0  0  0  0
  140.4750   70.7020  225.9110 C   0  0  0  0  0  0  0  0  0  0  0  0
  140.7810   69.3620  225.9830 C   0  0  0  0  0  0  0  0  0  0  0  0
  141.0680   68.8250  227.2190 C   0  0  0  0  0  0  0  0  0  0  0  0
  141.0440   69.6210  228.3380 C   0  0  0  0  0  0  0  0  0  0  0  0
  140.7280   70.9520  228.1790 C   0  0  0  0  0  0  0  0  0  0  0  0
  140.4420   71.5130  226.9900 N   0  0  0  0  0  0  0  0  0  0  0  0
  133.6670   71.6050  226.3910 C   0  0  0  0  0  0  0  0  0  0  0  0
  132.5120   71.5370  227.1680 C   0  0  0  0  0  0  0  0  0  0  0  0
  131.9300   72.7200  227.5760 C   0  0  0  0  0  0  0  0  0  0  0  0
  132.4580   73.9490  227.2390 C   0  0  0  0  0  0  0  0  0  0  0  0
  131.8820   75.1390  227.6420 C   0  0  0  0  0  0  0  0  0  0  0  0
  132.4260   76.3760  227.2940 C   0  0  0  0  0  0  0  0  0  0  0  0
  133.5830   76.3690  226.5170 C   0  0  0  0  0  0  0  0  0  0  0  0
  134.1700   75.1800  226.1040 C   0  0  0  0  0  0  0  0  0  0  0  0
  133.6170   73.9650  226.4590 C   0  0  0  0  0  0  0  0  0  0  0  0
  134.1790   72.8070  226.0650 N   0  0  0  0  0  0  0  0  0  0  0  0
  135.5140   71.3280  224.5290 H   0  0  0  0  0  0  0  0  0  0  0  0
  135.5727   68.3086  225.0710 H   0  0  0  0  0  0  0  0  0  0  0  0
  135.6524   68.9740  223.4149 H   0  0  0  0  0  0  0  0  0  0  0  0
  136.5730   71.3258  222.9419 H   0  0  0  0  0  0  0  0  0  0  0  0
  137.3798   72.2738  224.2074 H   0  0  0  0  0  0  0  0  0  0  0  0
  138.0030   72.2768  221.4218 H   0  0  0  0  0  0  0  0  0  0  0  0
  138.9886   73.0153  222.6675 H   0  0  0  0  0  0  0  0  0  0  0  0
  139.1578   70.1838  221.4850 H   0  0  0  0  0  0  0  0  0  0  0  0
  140.4956   71.2415  221.8387 H   0  0  0  0  0  0  0  0  0  0  0  0
  140.1005   69.4079  223.6697 H   0  0  0  0  0  0  0  0  0  0  0  0
  141.0914   71.7143  224.1687 H   0  0  0  0  0  0  0  0  0  0  0  0
  139.4209   72.1145  224.7866 H   0  0  0  0  0  0  0  0  0  0  0  0
  140.7960   68.7367  225.0782 H   0  0  0  0  0  0  0  0  0  0  0  0
  141.3167   67.7573  227.3097 H   0  0  0  0  0  0  0  0  0  0  0  0
  141.2705   69.2076  229.3319 H   0  0  0  0  0  0  0  0  0  0  0  0
  140.7083   71.5918  229.0736 H   0  0  0  0  0  0  0  0  0  0  0  0
  132.0761   70.5668  227.4484 H   0  0  0  0  0  0  0  0  0  0  0  0
  131.0172   72.6817  228.1886 H   0  0  0  0  0  0  0  0  0  0  0  0
  130.9688   75.1102  228.2545 H   0  0  0  0  0  0  0  0  0  0  0  0
  131.9607   77.3181  227.6196 H   0  0  0  0  0  0  0  0  0  0  0  0
  134.0409   77.3255  226.2246 H   0  0  0  0  0  0  0  0  0  0  0  0
  135.0821   75.2060  225.4896 H   0  0  0  0  0  0  0  0  0  0  0  0
  1  2  2  0
  2  3  1  0
  3  4  1  0
  4  5  1  0
  5  6  2  0
  5  7  1  0
  7  8  1  0
  8  9  1  0
  9 10  1  0
 10 11  1  0
 11 12  1  0
 12 13  1  0
 13 14  2  0
 14 15  1  0
 15 16  2  0
 16 17  1  0
 17 18  2  0
  2 19  1  0
 19 20  2  0
 20 21  1  0
 21 22  2  0
 22 23  1  0
 23 24  2  0
 24 25  1  0
 25 26  2  0
 26 27  1  0
 27 28  2  0
 11  7  1  0
 18 13  1  0
 28 19  1  0
 27 22  1  0
  3 29  1  0
  4 30  1  0
  4 31  1  0
  8 32  1  0
  8 33  1  0
  9 34  1  0
  9 35  1  0
 10 36  1  0
 10 37  1  0
 11 38  1  6
 12 39  1  0
 12 40  1  0
 14 41  1  0
 15 42  1  0
 16 43  1  0
 17 44  1  0
 20 45  1  0
 21 46  1  0
 23 47  1  0
 24 48  1  0
 25 49  1  0
 26 50  1  0
M  END
>  <smiles>  (57) 
O=C(NCC(=O)N1CCCC1Cc1ccccn1)c1ccc2ccccc2n1

>  <score_type>  (57) 
oracle

>  <origin>  (57) 
autodockgpu

>  <m_score__min__energy>  (57) 
-8.8800000000000008

>  <m_primary>  (57) 
energy

>  <rmsd>  (57) 
7.708581711311625

>  <m_score__min__rmsd>  (57) 
7.708581711311625

>  <meeko>  (57) 
{"free_energy": -8.06, "intermolecular_energy": -9.85, "internal_energy": -1.65, "cluster_size": 3, "cluster_id": 4, "rank_in_cluster": 2}

>  <energy>  (57) 
-8.7

>  <cluster_rmsd>  (57) 
0.46

>  <cluster>  (57) 
1

$$$$

     RDKit          3D

 50 53  0  0  0  0  0  0  0  0999 V2000
  141.4770   72.3460  221.7290 O   0  0  0  0  0  0  0  0  0  0  0  0
  140.5020   72.4590  222.5190 C   0  0  0  0  0  0  0  0  0  0  0  0
  139.5970   73.5560  222.3640 N   0  0  0  0  0  0  0  0  0  0  0  0
  139.7770   74.5400  221.3170 C   0  0  0  0  0  0  0  0  0  0  0  0
  139.9070   75.8660  221.9500 C   0  0  0  0  0  0  0  0  0  0  0  0
  141.0420   76.2940  222.3540 O   0  0  0  0  0  0  0  0  0  0  0  0
  138.8150   76.7550  222.1590 N   0  0  0  0  0  0  0  0  0  0  0  0
  137.7130   76.4610  223.0400 C   0  0  0  0  0  0  0  0  0  0  0  0
  136.5780   77.3740  222.6290 C   0  0  0  0  0  0  0  0  0  0  0  0
  137.0780   77.9830  221.3280 C   0  0  0  0  0  0  0  0  0  0  0  0
  138.5670   78.0630  221.5810 C   0  0  1  0  0  0  0  0  0  0  0  0
  138.8970   79.0610  222.6700 C   0  0  0  0  0  0  0  0  0  0  0  0
  140.3290   79.4420  222.7020 C   0  0  0  0  0  0  0  0  0  0  0  0
  141.0270   79.3990  223.8870 C   0  0  0  0  0  0  0  0  0  0  0  0
  142.3570   79.7610  223.8720 C   0  0  0  0  0  0  0  0  0  0  0  0
  142.9520   80.1500  222.6980 C   0  0  0  0  0  0  0  0  0  0  0  0
  142.1830   80.1640  221.5560 C   0  0  0  0  0  0  0  0  0  0  0  0
  140.8830   79.8190  221.5290 N   0  0  0  0  0  0  0  0  0  0  0  0
  140.2730   71.4960  223.5950 C   0  0  0  0  0  0  0  0  0  0  0  0
  139.5880   70.3220  223.2860 C   0  0  0  0  0  0  0  0  0  0  0  0
  139.3690   69.4090  224.2980 C   0  0  0  0  0  0  0  0  0  0  0  0
  139.8070   69.6290  225.5870 C   0  0  0  0  0  0  0  0  0  0  0  0
  139.5930   68.7220  226.6070 C   0  0  0  0  0  0  0  0  0  0  0  0
  140.0410   68.9560  227.9080 C   0  0  0  0  0  0  0  0  0  0  0  0
  140.7200   70.1500  228.1450 C   0  0  0  0  0  0  0  0  0  0  0  0
  140.9410   71.0700  227.1280 C   0  0  0  0  0  0  0  0  0  0  0  0
  140.4890   70.8200  225.8470 C   0  0  0  0  0  0  0  0  0  0  0  0
  140.6990   71.7050  224.8540 N   0  0  0  0  0  0  0  0  0  0  0  0
  138.7920   73.6100  223.0530 H   0  0  0  0  0  0  0  0  0  0  0  0
  140.6865   74.3106  220.7424 H   0  0  0  0  0  0  0  0  0  0  0  0
  138.9166   74.5282  220.6317 H   0  0  0  0  0  0  0  0  0  0  0  0
  137.4116   75.4085  222.9332 H   0  0  0  0  0  0  0  0  0  0  0  0
  137.9913   76.6216  224.0920 H   0  0  0  0  0  0  0  0  0  0  0  0
  135.6514   76.8037  222.4674 H   0  0  0  0  0  0  0  0  0  0  0  0
  136.3313   78.1271  223.3919 H   0  0  0  0  0  0  0  0  0  0  0  0
  136.8513   77.3351  220.4685 H   0  0  0  0  0  0  0  0  0  0  0  0
  136.6142   78.9489  221.0792 H   0  0  0  0  0  0  0  0  0  0  0  0
  139.1319   78.3426  220.6795 H   0  0  0  0  0  0  0  0  0  0  0  0
  138.2979   79.9686  222.5050 H   0  0  0  0  0  0  0  0  0  0  0  0
  138.6661   78.5811  223.6325 H   0  0  0  0  0  0  0  0  0  0  0  0
  140.5373   79.0845  224.8204 H   0  0  0  0  0  0  0  0  0  0  0  0
  142.9426   79.7380  224.8029 H   0  0  0  0  0  0  0  0  0  0  0  0
  144.0122   80.4420  222.6702 H   0  0  0  0  0  0  0  0  0  0  0  0
  142.6579   80.4744  220.6136 H   0  0  0  0  0  0  0  0  0  0  0  0
  139.2316   70.1283  222.2635 H   0  0  0  0  0  0  0  0  0  0  0  0
  138.8291   68.4783  224.0694 H   0  0  0  0  0  0  0  0  0  0  0  0
  139.0540   67.7886  226.3874 H   0  0  0  0  0  0  0  0  0  0  0  0
  139.8654   68.2278  228.7135 H   0  0  0  0  0  0  0  0  0  0  0  0
  141.0884   70.3682  229.1582 H   0  0  0  0  0  0  0  0  0  0  0  0
  141.4798   72.0043  227.3444 H   0  0  0  0  0  0  0  0  0  0  0  0
  1  2  2  0
  2  3  1  0
  3  4  1  0
  4  5  1  0
  5  6  2  0
  5  7  1  0
  7  8  1  0
  8  9  1  0
  9 10  1  0
 10 11  1  0
 11 12  1  0
 12 13  1  0
 13 14  2  0
 14 15  1  0
 15 16  2  0
 16 17  1  0
 17 18  2  0
  2 19  1  0
 19 20  2  0
 20 21  1  0
 21 22  2  0
 22 23  1  0
 23 24  2  0
 24 25  1  0
 25 26  2  0
 26 27  1  0
 27 28  2  0
 11  7  1  0
 18 13  1  0
 28 19  1  0
 27 22  1  0
  3 29  1  0
  4 30  1  0
  4 31  1  0
  8 32  1  0
  8 33  1  0
  9 34  1  0
  9 35  1  0
 10 36  1  0
 10 37  1  0
 11 38  1  6
 12 39  1  0
 12 40  1  0
 14 41  1  0
 15 42  1  0
 16 43  1  0
 17 44  1  0
 20 45  1  0
 21 46  1  0
 23 47  1  0
 24 48  1  0
 25 49  1  0
 26 50  1  0
M  END
>  <smiles>  (58) 
O=C(NCC(=O)N1CCCC1Cc1ccccn1)c1ccc2ccccc2n1

>  <score_type>  (58) 
oracle

>  <origin>  (58) 
autodockgpu

>  <m_score__min__energy>  (58) 
-8.8800000000000008

>  <m_primary>  (58) 
energy

>  <rmsd>  (58) 
3.0600990988238967

>  <m_score__min__rmsd>  (58) 
3.0600990988238967

>  <meeko>  (58) 
{"free_energy": -8.4, "intermolecular_energy": -10.19, "internal_energy": -1.36, "cluster_size": 24, "cluster_id": 1, "rank_in_cluster": 20}

>  <energy>  (58) 
-8.69

>  <cluster_rmsd>  (58) 
0.47

>  <cluster>  (58) 
1

$$$$

     RDKit          3D

 50 53  0  0  0  0  0  0  0  0999 V2000
  140.1270   71.1470  221.1460 O   0  0  0  0  0  0  0  0  0  0  0  0
  139.9340   71.7830  222.2170 C   0  0  0  0  0  0  0  0  0  0  0  0
  139.7520   73.2010  222.1680 N   0  0  0  0  0  0  0  0  0  0  0  0
  139.7850   73.9230  220.9130 C   0  0  0  0  0  0  0  0  0  0  0  0
  140.4340   75.2260  221.1500 C   0  0  0  0  0  0  0  0  0  0  0  0
  140.6280   75.6590  222.3370 O   0  0  0  0  0  0  0  0  0  0  0  0
  140.8870   76.0860  220.1100 N   0  0  0  0  0  0  0  0  0  0  0  0
  140.2570   76.1620  218.8160 C   0  0  0  0  0  0  0  0  0  0  0  0
  141.2730   76.7780  217.8780 C   0  0  0  0  0  0  0  0  0  0  0  0
  142.5470   76.7910  218.7090 C   0  0  0  0  0  0  0  0  0  0  0  0
  142.0020   77.0150  220.1020 C   0  0  1  0  0  0  0  0  0  0  0  0
  141.3880   78.3920  220.2470 C   0  0  0  0  0  0  0  0  0  0  0  0
  141.6940   79.0350  221.5470 C   0  0  0  0  0  0  0  0  0  0  0  0
  142.2080   80.3110  221.5800 C   0  0  0  0  0  0  0  0  0  0  0  0
  142.4780   80.8730  222.8090 C   0  0  0  0  0  0  0  0  0  0  0  0
  142.2340   80.1630  223.9590 C   0  0  0  0  0  0  0  0  0  0  0  0
  141.7180   78.8920  223.8380 C   0  0  0  0  0  0  0  0  0  0  0  0
  141.4410   78.3090  222.6580 N   0  0  0  0  0  0  0  0  0  0  0  0
  139.8920   71.1050  223.5120 C   0  0  0  0  0  0  0  0  0  0  0  0
  139.3410   69.8260  223.5620 C   0  0  0  0  0  0  0  0  0  0  0  0
  139.2990   69.1820  224.7830 C   0  0  0  0  0  0  0  0  0  0  0  0
  139.7840   69.7670  225.9340 C   0  0  0  0  0  0  0  0  0  0  0  0
  139.7460   69.1300  227.1610 C   0  0  0  0  0  0  0  0  0  0  0  0
  140.2390   69.7330  228.3190 C   0  0  0  0  0  0  0  0  0  0  0  0
  140.7770   71.0130  228.1940 C   0  0  0  0  0  0  0  0  0  0  0  0
  140.8200   71.6620  226.9670 C   0  0  0  0  0  0  0  0  0  0  0  0
  140.3260   71.0500  225.8320 C   0  0  0  0  0  0  0  0  0  0  0  0
  140.3640   71.6710  224.6380 N   0  0  0  0  0  0  0  0  0  0  0  0
  139.5930   73.6920  223.0950 H   0  0  0  0  0  0  0  0  0  0  0  0
  140.3585   73.3509  220.1688 H   0  0  0  0  0  0  0  0  0  0  0  0
  138.7639   74.0701  220.5314 H   0  0  0  0  0  0  0  0  0  0  0  0
  139.9803   75.1557  218.4685 H   0  0  0  0  0  0  0  0  0  0  0  0
  139.3372   76.7639  218.8565 H   0  0  0  0  0  0  0  0  0  0  0  0
  141.3979   76.1647  216.9734 H   0  0  0  0  0  0  0  0  0  0  0  0
  140.9807   77.7760  217.5193 H   0  0  0  0  0  0  0  0  0  0  0  0
  143.0824   75.8328  218.6372 H   0  0  0  0  0  0  0  0  0  0  0  0
  143.2807   77.5458  218.3898 H   0  0  0  0  0  0  0  0  0  0  0  0
  142.7725   76.9004  220.8786 H   0  0  0  0  0  0  0  0  0  0  0  0
  141.7737   79.0332  219.4407 H   0  0  0  0  0  0  0  0  0  0  0  0
  140.2962   78.2700  220.1922 H   0  0  0  0  0  0  0  0  0  0  0  0
  142.3982   80.8675  220.6504 H   0  0  0  0  0  0  0  0  0  0  0  0
  142.8894   81.8914  222.8690 H   0  0  0  0  0  0  0  0  0  0  0  0
  142.4445   80.5968  224.9477 H   0  0  0  0  0  0  0  0  0  0  0  0
  141.5214   78.3217  224.7578 H   0  0  0  0  0  0  0  0  0  0  0  0
  138.9504   69.3428  222.6543 H   0  0  0  0  0  0  0  0  0  0  0  0
  138.8658   68.1724  224.8392 H   0  0  0  0  0  0  0  0  0  0  0  0
  139.3152   68.1199  227.2260 H   0  0  0  0  0  0  0  0  0  0  0  0
  140.2045   69.2191  229.2910 H   0  0  0  0  0  0  0  0  0  0  0  0
  141.1756   71.5193  229.0855 H   0  0  0  0  0  0  0  0  0  0  0  0
  141.2511   72.6717  226.8987 H   0  0  0  0  0  0  0  0  0  0  0  0
  1  2  2  0
  2  3  1  0
  3  4  1  0
  4  5  1  0
  5  6  2  0
  5  7  1  0
  7  8  1  0
  8  9  1  0
  9 10  1  0
 10 11  1  0
 11 12  1  0
 12 13  1  0
 13 14  2  0
 14 15  1  0
 15 16  2  0
 16 17  1  0
 17 18  2  0
  2 19  1  0
 19 20  2  0
 20 21  1  0
 21 22  2  0
 22 23  1  0
 23 24  2  0
 24 25  1  0
 25 26  2  0
 26 27  1  0
 27 28  2  0
 11  7  1  0
 18 13  1  0
 28 19  1  0
 27 22  1  0
  3 29  1  0
  4 30  1  0
  4 31  1  0
  8 32  1  0
  8 33  1  0
  9 34  1  0
  9 35  1  0
 10 36  1  0
 10 37  1  0
 11 38  1  1
 12 39  1  0
 12 40  1  0
 14 41  1  0
 15 42  1  0
 16 43  1  0
 17 44  1  0
 20 45  1  0
 21 46  1  0
 23 47  1  0
 24 48  1  0
 25 49  1  0
 26 50  1  0
M  END
>  <smiles>  (59) 
O=C(NCC(=O)N1CCCC1Cc1ccccn1)c1ccc2ccccc2n1

>  <score_type>  (59) 
oracle

>  <origin>  (59) 
autodockgpu

>  <m_score__min__energy>  (59) 
-8.8800000000000008

>  <m_primary>  (59) 
energy

>  <rmsd>  (59) 
1.3259113245912466

>  <m_score__min__rmsd>  (59) 
1.3259113245912466

>  <meeko>  (59) 
{"free_energy": -8.63, "intermolecular_energy": -10.42, "internal_energy": -1.73, "cluster_size": 24, "cluster_id": 1, "rank_in_cluster": 13}

>  <energy>  (59) 
-8.66

>  <cluster_rmsd>  (59) 
0.5

>  <cluster>  (59) 
1

$$$$

     RDKit          3D

 50 53  0  0  0  0  0  0  0  0999 V2000
  141.0870   71.7240  221.4120 O   0  0  0  0  0  0  0  0  0  0  0  0
  140.4100   72.2320  222.3460 C   0  0  0  0  0  0  0  0  0  0  0  0
  139.8690   73.5470  222.1850 N   0  0  0  0  0  0  0  0  0  0  0  0
  140.0830   74.3080  220.9720 C   0  0  0  0  0  0  0  0  0  0  0  0
  140.7150   75.5890  221.3390 C   0  0  0  0  0  0  0  0  0  0  0  0
  140.7350   75.9900  222.5520 O   0  0  0  0  0  0  0  0  0  0  0  0
  141.3370   76.4620  220.4020 N   0  0  0  0  0  0  0  0  0  0  0  0
  141.5550   77.8650  220.6500 C   0  0  0  0  0  0  0  0  0  0  0  0
  141.7710   78.5130  219.3000 C   0  0  0  0  0  0  0  0  0  0  0  0
  141.4110   77.4040  218.3230 C   0  0  0  0  0  0  0  0  0  0  0  0
  141.8590   76.1730  219.0790 C   0  0  1  0  0  0  0  0  0  0  0  0
  143.3650   76.1280  219.2320 C   0  0  0  0  0  0  0  0  0  0  0  0
  143.8580   74.8470  219.7920 C   0  0  0  0  0  0  0  0  0  0  0  0
  145.0490   74.8100  220.4810 C   0  0  0  0  0  0  0  0  0  0  0  0
  145.4720   73.6000  220.9860 C   0  0  0  0  0  0  0  0  0  0  0  0
  144.7130   72.4710  220.7950 C   0  0  0  0  0  0  0  0  0  0  0  0
  143.5340   72.5950  220.0940 C   0  0  0  0  0  0  0  0  0  0  0  0
  143.0870   73.7580  219.5860 N   0  0  0  0  0  0  0  0  0  0  0  0
  140.1630   71.5100  223.5930 C   0  0  0  0  0  0  0  0  0  0  0  0
  139.3390   70.3870  223.5460 C   0  0  0  0  0  0  0  0  0  0  0  0
  139.1030   69.7020  224.7200 C   0  0  0  0  0  0  0  0  0  0  0  0
  139.6570   70.0970  225.9210 C   0  0  0  0  0  0  0  0  0  0  0  0
  139.4270   69.4170  227.1020 C   0  0  0  0  0  0  0  0  0  0  0  0
  139.9940   69.8270  228.3100 C   0  0  0  0  0  0  0  0  0  0  0  0
  140.8080   70.9570  228.2820 C   0  0  0  0  0  0  0  0  0  0  0  0
  141.0470   71.6490  227.1020 C   0  0  0  0  0  0  0  0  0  0  0  0
  140.4770   71.2280  225.9160 C   0  0  0  0  0  0  0  0  0  0  0  0
  140.7020   71.8900  224.7660 N   0  0  0  0  0  0  0  0  0  0  0  0
  139.3070   73.9330  222.9990 H   0  0  0  0  0  0  0  0  0  0  0  0
  140.7425   73.7483  220.2924 H   0  0  0  0  0  0  0  0  0  0  0  0
  139.1253   74.4884  220.4619 H   0  0  0  0  0  0  0  0  0  0  0  0
  140.6766   78.3040  221.1457 H   0  0  0  0  0  0  0  0  0  0  0  0
  142.4216   78.0218  221.3090 H   0  0  0  0  0  0  0  0  0  0  0  0
  141.1112   79.3835  219.1698 H   0  0  0  0  0  0  0  0  0  0  0  0
  142.7933   78.8951  219.1626 H   0  0  0  0  0  0  0  0  0  0  0  0
  140.3295   77.3807  218.1235 H   0  0  0  0  0  0  0  0  0  0  0  0
  141.8756   77.5134  217.3319 H   0  0  0  0  0  0  0  0  0  0  0  0
  141.5378   75.2402  218.5925 H   0  0  0  0  0  0  0  0  0  0  0  0
  143.8214   76.2752  218.2420 H   0  0  0  0  0  0  0  0  0  0  0  0
  143.6452   76.9227  219.9390 H   0  0  0  0  0  0  0  0  0  0  0  0
  145.6470   75.7220  220.6246 H   0  0  0  0  0  0  0  0  0  0  0  0
  146.4186   73.5378  221.5428 H   0  0  0  0  0  0  0  0  0  0  0  0
  145.0372   71.4970  221.1902 H   0  0  0  0  0  0  0  0  0  0  0  0
  142.9236   71.6928  219.9408 H   0  0  0  0  0  0  0  0  0  0  0  0
  138.8890   70.0558  222.5985 H   0  0  0  0  0  0  0  0  0  0  0  0
  138.4538   68.8143  224.6984 H   0  0  0  0  0  0  0  0  0  0  0  0
  138.7792   68.5281  227.0898 H   0  0  0  0  0  0  0  0  0  0  0  0
  139.8057   69.2801  229.2456 H   0  0  0  0  0  0  0  0  0  0  0  0
  141.2718   71.3090  229.2153 H   0  0  0  0  0  0  0  0  0  0  0  0
  141.6944   72.5382  227.1116 H   0  0  0  0  0  0  0  0  0  0  0  0
  1  2  2  0
  2  3  1  0
  3  4  1  0
  4  5  1  0
  5  6  2  0
  5  7  1  0
  7  8  1  0
  8  9  1  0
  9 10  1  0
 10 11  1  0
 11 12  1  0
 12 13  1  0
 13 14  2  0
 14 15  1  0
 15 16  2  0
 16 17  1  0
 17 18  2  0
  2 19  1  0
 19 20  2  0
 20 21  1  0
 21 22  2  0
 22 23  1  0
 23 24  2  0
 24 25  1  0
 25 26  2  0
 26 27  1  0
 27 28  2  0
 11  7  1  0
 18 13  1  0
 28 19  1  0
 27 22  1  0
  3 29  1  0
  4 30  1  0
  4 31  1  0
  8 32  1  0
  8 33  1  0
  9 34  1  0
  9 35  1  0
 10 36  1  0
 10 37  1  0
 11 38  1  6
 12 39  1  0
 12 40  1  0
 14 41  1  0
 15 42  1  0
 16 43  1  0
 17 44  1  0
 20 45  1  0
 21 46  1  0
 23 47  1  0
 24 48  1  0
 25 49  1  0
 26 50  1  0
M  END
>  <smiles>  (60) 
O=C(NCC(=O)N1CCCC1Cc1ccccn1)c1ccc2ccccc2n1

>  <score_type>  (60) 
oracle

>  <origin>  (60) 
autodockgpu

>  <m_score__min__energy>  (60) 
-8.8800000000000008

>  <m_primary>  (60) 
energy

>  <rmsd>  (60) 
2.2319414018524433

>  <m_score__min__rmsd>  (60) 
2.2319414018524433

>  <meeko>  (60) 
{"free_energy": -8.23, "intermolecular_energy": -10.02, "internal_energy": -1.88, "cluster_size": 9, "cluster_id": 3, "rank_in_cluster": 8}

>  <energy>  (60) 
-8.65

>  <cluster_rmsd>  (60) 
0.38

>  <cluster>  (60) 
1

$$$$

     RDKit          3D

 50 53  0  0  0  0  0  0  0  0999 V2000
  137.6890   70.9380  222.0900 O   0  0  0  0  0  0  0  0  0  0  0  0
  138.5680   71.3220  222.9070 C   0  0  0  0  0  0  0  0  0  0  0  0
  139.1500   72.6200  222.7530 N   0  0  0  0  0  0  0  0  0  0  0  0
  138.7520   73.5030  221.6760 C   0  0  0  0  0  0  0  0  0  0  0  0
  139.5580   74.7350  221.7700 C   0  0  0  0  0  0  0  0  0  0  0  0
  140.7770   74.6960  222.1520 O   0  0  0  0  0  0  0  0  0  0  0  0
  139.0620   76.0310  221.4530 N   0  0  0  0  0  0  0  0  0  0  0  0
  137.6710   76.3050  221.1930 C   0  0  0  0  0  0  0  0  0  0  0  0
  137.6240   77.6200  220.4460 C   0  0  0  0  0  0  0  0  0  0  0  0
  139.0870   77.8870  220.1230 C   0  0  0  0  0  0  0  0  0  0  0  0
  139.7800   77.2860  221.3260 C   0  0  1  0  0  0  0  0  0  0  0  0
  139.4770   78.0610  222.5910 C   0  0  0  0  0  0  0  0  0  0  0  0
  140.4990   79.0860  222.9090 C   0  0  0  0  0  0  0  0  0  0  0  0
  141.8370   78.7700  222.8360 C   0  0  0  0  0  0  0  0  0  0  0  0
  142.7550   79.7520  223.1390 C   0  0  0  0  0  0  0  0  0  0  0  0
  142.3280   81.0060  223.5010 C   0  0  0  0  0  0  0  0  0  0  0  0
  140.9720   81.2390  223.5490 C   0  0  0  0  0  0  0  0  0  0  0  0
  140.0450   80.3080  223.2610 N   0  0  0  0  0  0  0  0  0  0  0  0
  139.0090   70.4720  224.0120 C   0  0  0  0  0  0  0  0  0  0  0  0
  138.7820   69.1010  223.9120 C   0  0  0  0  0  0  0  0  0  0  0  0
  139.1960   68.2940  224.9530 C   0  0  0  0  0  0  0  0  0  0  0  0
  139.8220   68.8070  226.0700 C   0  0  0  0  0  0  0  0  0  0  0  0
  140.2400   68.0070  227.1170 C   0  0  0  0  0  0  0  0  0  0  0  0
  140.8720   68.5380  228.2430 C   0  0  0  0  0  0  0  0  0  0  0  0
  141.0680   69.9170  228.2740 C   0  0  0  0  0  0  0  0  0  0  0  0
  140.6510   70.7310  227.2290 C   0  0  0  0  0  0  0  0  0  0  0  0
  140.0270   70.1870  226.1230 C   0  0  0  0  0  0  0  0  0  0  0  0
  139.6200   70.9670  225.1040 N   0  0  0  0  0  0  0  0  0  0  0  0
  139.8870   72.8980  223.4640 H   0  0  0  0  0  0  0  0  0  0  0  0
  138.9312   73.0135  220.7073 H   0  0  0  0  0  0  0  0  0  0  0  0
  137.6812   73.7418  221.7558 H   0  0  0  0  0  0  0  0  0  0  0  0
  137.2342   75.5035  220.5791 H   0  0  0  0  0  0  0  0  0  0  0  0
  137.0947   76.3583  222.1284 H   0  0  0  0  0  0  0  0  0  0  0  0
  137.0267   77.5306  219.5266 H   0  0  0  0  0  0  0  0  0  0  0  0
  137.1547   78.4292  221.0248 H   0  0  0  0  0  0  0  0  0  0  0  0
  139.3906   77.3847  219.1927 H   0  0  0  0  0  0  0  0  0  0  0  0
  139.3214   78.9487  219.9562 H   0  0  0  0  0  0  0  0  0  0  0  0
  140.8725   77.2439  221.2049 H   0  0  0  0  0  0  0  0  0  0  0  0
  138.5056   78.5625  222.4691 H   0  0  0  0  0  0  0  0  0  0  0  0
  139.4695   77.3396  223.4214 H   0  0  0  0  0  0  0  0  0  0  0  0
  142.1643   77.7613  222.5438 H   0  0  0  0  0  0  0  0  0  0  0  0
  143.8315   79.5311  223.0908 H   0  0  0  0  0  0  0  0  0  0  0  0
  143.0481   81.8008  223.7454 H   0  0  0  0  0  0  0  0  0  0  0  0
  140.6275   82.2426  223.8391 H   0  0  0  0  0  0  0  0  0  0  0  0
  138.2865   68.6732  223.0280 H   0  0  0  0  0  0  0  0  0  0  0  0
  139.0214   67.2098  224.8897 H   0  0  0  0  0  0  0  0  0  0  0  0
  140.0699   66.9217  227.0614 H   0  0  0  0  0  0  0  0  0  0  0  0
  141.2016   67.8940  229.0716 H   0  0  0  0  0  0  0  0  0  0  0  0
  141.5637   70.3707  229.1449 H   0  0  0  0  0  0  0  0  0  0  0  0
  140.8188   71.8168  227.2823 H   0  0  0  0  0  0  0  0  0  0  0  0
  1  2  2  0
  2  3  1  0
  3  4  1  0
  4  5  1  0
  5  6  2  0
  5  7  1  0
  7  8  1  0
  8  9  1  0
  9 10  1  0
 10 11  1  0
 11 12  1  0
 12 13  1  0
 13 14  2  0
 14 15  1  0
 15 16  2  0
 16 17  1  0
 17 18  2  0
  2 19  1  0
 19 20  2  0
 20 21  1  0
 21 22  2  0
 22 23  1  0
 23 24  2  0
 24 25  1  0
 25 26  2  0
 26 27  1  0
 27 28  2  0
 11  7  1  0
 18 13  1  0
 28 19  1  0
 27 22  1  0
  3 29  1  0
  4 30  1  0
  4 31  1  0
  8 32  1  0
  8 33  1  0
  9 34  1  0
  9 35  1  0
 10 36  1  0
 10 37  1  0
 11 38  1  6
 12 39  1  0
 12 40  1  0
 14 41  1  0
 15 42  1  0
 16 43  1  0
 17 44  1  0
 20 45  1  0
 21 46  1  0
 23 47  1  0
 24 48  1  0
 25 49  1  0
 26 50  1  0
M  END
>  <smiles>  (61) 
O=C(NCC(=O)N1CCCC1Cc1ccccn1)c1ccc2ccccc2n1

>  <score_type>  (61) 
oracle

>  <origin>  (61) 
autodockgpu

>  <m_score__min__energy>  (61) 
-8.8800000000000008

>  <m_primary>  (61) 
energy

>  <rmsd>  (61) 
1.894404946974173

>  <m_score__min__rmsd>  (61) 
1.894404946974173

>  <meeko>  (61) 
{"free_energy": -8.12, "intermolecular_energy": -9.91, "internal_energy": -1.73, "cluster_size": 24, "cluster_id": 1, "rank_in_cluster": 24}

>  <energy>  (61) 
-8.64

>  <cluster_rmsd>  (61) 
0.7

>  <cluster>  (61) 
1

$$$$

     RDKit          3D

 50 53  0  0  0  0  0  0  0  0999 V2000
  140.1180   70.9760  221.1680 O   0  0  0  0  0  0  0  0  0  0  0  0
  139.9390   71.6130  222.2400 C   0  0  0  0  0  0  0  0  0  0  0  0
  139.7520   73.0310  222.1910 N   0  0  0  0  0  0  0  0  0  0  0  0
  139.7640   73.7510  220.9340 C   0  0  0  0  0  0  0  0  0  0  0  0
  140.2140   75.1300  221.1990 C   0  0  0  0  0  0  0  0  0  0  0  0
  140.1130   75.6430  222.3660 O   0  0  0  0  0  0  0  0  0  0  0  0
  140.7810   75.9820  220.2100 N   0  0  0  0  0  0  0  0  0  0  0  0
  140.2750   76.0780  218.8640 C   0  0  0  0  0  0  0  0  0  0  0  0
  141.3870   76.6720  218.0270 C   0  0  0  0  0  0  0  0  0  0  0  0
  142.5790   76.6510  218.9710 C   0  0  0  0  0  0  0  0  0  0  0  0
  141.9140   76.8840  220.3090 C   0  0  1  0  0  0  0  0  0  0  0  0
  141.3230   78.2750  220.4050 C   0  0  0  0  0  0  0  0  0  0  0  0
  141.6830   78.9790  221.6590 C   0  0  0  0  0  0  0  0  0  0  0  0
  142.2060   80.2500  221.6090 C   0  0  0  0  0  0  0  0  0  0  0  0
  142.5270   80.8690  222.7980 C   0  0  0  0  0  0  0  0  0  0  0  0
  142.3230   80.2190  223.9900 C   0  0  0  0  0  0  0  0  0  0  0  0
  141.7940   78.9480  223.9520 C   0  0  0  0  0  0  0  0  0  0  0  0
  141.4690   78.3110  222.8130 N   0  0  0  0  0  0  0  0  0  0  0  0
  139.9190   70.9380  223.5370 C   0  0  0  0  0  0  0  0  0  0  0  0
  139.3860   69.6520  223.5960 C   0  0  0  0  0  0  0  0  0  0  0  0
  139.3640   69.0110  224.8180 C   0  0  0  0  0  0  0  0  0  0  0  0
  139.8520   69.6050  225.9630 C   0  0  0  0  0  0  0  0  0  0  0  0
  139.8350   68.9710  227.1920 C   0  0  0  0  0  0  0  0  0  0  0  0
  140.3320   69.5830  228.3430 C   0  0  0  0  0  0  0  0  0  0  0  0
  140.8520   70.8690  228.2100 C   0  0  0  0  0  0  0  0  0  0  0  0
  140.8740   71.5160  226.9820 C   0  0  0  0  0  0  0  0  0  0  0  0
  140.3770   70.8950  225.8530 C   0  0  0  0  0  0  0  0  0  0  0  0
  140.3950   71.5130  224.6570 N   0  0  0  0  0  0  0  0  0  0  0  0
  139.6070   73.5240  223.1190 H   0  0  0  0  0  0  0  0  0  0  0  0
  140.4547   73.2622  220.2311 H   0  0  0  0  0  0  0  0  0  0  0  0
  138.7578   73.7577  220.4896 H   0  0  0  0  0  0  0  0  0  0  0  0
  140.0073   75.0800  218.4868 H   0  0  0  0  0  0  0  0  0  0  0  0
  139.3702   76.7023  218.8233 H   0  0  0  0  0  0  0  0  0  0  0  0
  141.5796   76.0590  217.1342 H   0  0  0  0  0  0  0  0  0  0  0  0
  141.1530   77.6781  217.6488 H   0  0  0  0  0  0  0  0  0  0  0  0
  143.0954   75.6801  218.9434 H   0  0  0  0  0  0  0  0  0  0  0  0
  143.3571   77.3884  218.7244 H   0  0  0  0  0  0  0  0  0  0  0  0
  142.6070   76.7484  221.1524 H   0  0  0  0  0  0  0  0  0  0  0  0
  141.6876   78.8689  219.5540 H   0  0  0  0  0  0  0  0  0  0  0  0
  140.2285   78.1657  220.3950 H   0  0  0  0  0  0  0  0  0  0  0  0
  142.3638   80.7586  220.6465 H   0  0  0  0  0  0  0  0  0  0  0  0
  142.9473   81.8855  222.7918 H   0  0  0  0  0  0  0  0  0  0  0  0
  142.5746   80.6992  224.9471 H   0  0  0  0  0  0  0  0  0  0  0  0
  141.6282   78.4252  224.9055 H   0  0  0  0  0  0  0  0  0  0  0  0
  138.9935   69.1611  222.6933 H   0  0  0  0  0  0  0  0  0  0  0  0
  138.9447   67.9960  224.8806 H   0  0  0  0  0  0  0  0  0  0  0  0
  139.4179   67.9557  227.2640 H   0  0  0  0  0  0  0  0  0  0  0  0
  140.3141   69.0710  229.3164 H   0  0  0  0  0  0  0  0  0  0  0  0
  141.2533   71.3821  229.0964 H   0  0  0  0  0  0  0  0  0  0  0  0
  141.2906   72.5313  226.9076 H   0  0  0  0  0  0  0  0  0  0  0  0
  1  2  2  0
  2  3  1  0
  3  4  1  0
  4  5  1  0
  5  6  2  0
  5  7  1  0
  7  8  1  0
  8  9  1  0
  9 10  1  0
 10 11  1  0
 11 12  1  0
 12 13  1  0
 13 14  2  0
 14 15  1  0
 15 16  2  0
 16 17  1  0
 17 18  2  0
  2 19  1  0
 19 20  2  0
 20 21  1  0
 21 22  2  0
 22 23  1  0
 23 24  2  0
 24 25  1  0
 25 26  2  0
 26 27  1  0
 27 28  2  0
 11  7  1  0
 18 13  1  0
 28 19  1  0
 27 22  1  0
  3 29  1  0
  4 30  1  0
  4 31  1  0
  8 32  1  0
  8 33  1  0
  9 34  1  0
  9 35  1  0
 10 36  1  0
 10 37  1  0
 11 38  1  1
 12 39  1  0
 12 40  1  0
 14 41  1  0
 15 42  1  0
 16 43  1  0
 17 44  1  0
 20 45  1  0
 21 46  1  0
 23 47  1  0
 24 48  1  0
 25 49  1  0
 26 50  1  0
M  END
>  <smiles>  (62) 
O=C(NCC(=O)N1CCCC1Cc1ccccn1)c1ccc2ccccc2n1

>  <score_type>  (62) 
oracle

>  <origin>  (62) 
autodockgpu

>  <m_score__min__energy>  (62) 
-8.8800000000000008

>  <m_primary>  (62) 
energy

>  <rmsd>  (62) 
1.317264209401553

>  <m_score__min__rmsd>  (62) 
1.317264209401553

>  <meeko>  (62) 
{"free_energy": -8.64, "intermolecular_energy": -10.43, "internal_energy": -1.78, "cluster_size": 24, "cluster_id": 1, "rank_in_cluster": 11}

>  <energy>  (62) 
-8.64

>  <cluster_rmsd>  (62) 
1.98

>  <cluster>  (62) 
1

$$$$

     RDKit          3D

 50 53  0  0  0  0  0  0  0  0999 V2000
  137.4140   76.2360  222.0990 O   0  0  0  0  0  0  0  0  0  0  0  0
  138.6520   76.3320  222.3120 C   0  0  0  0  0  0  0  0  0  0  0  0
  139.4800   75.1730  222.1730 N   0  0  0  0  0  0  0  0  0  0  0  0
  138.9250   73.8900  221.7930 C   0  0  0  0  0  0  0  0  0  0  0  0
  139.7980   72.8330  222.3380 C   0  0  0  0  0  0  0  0  0  0  0  0
  141.0320   73.0590  222.5810 O   0  0  0  0  0  0  0  0  0  0  0  0
  139.3540   71.5120  222.6290 N   0  0  0  0  0  0  0  0  0  0  0  0
  139.3520   70.4460  221.6590 C   0  0  0  0  0  0  0  0  0  0  0  0
  138.3960   69.3940  222.1780 C   0  0  0  0  0  0  0  0  0  0  0  0
  137.7210   70.0880  223.3510 C   0  0  0  0  0  0  0  0  0  0  0  0
  138.8390   70.9660  223.8700 C   0  0  1  0  0  0  0  0  0  0  0  0
  139.9680   70.1450  224.4570 C   0  0  0  0  0  0  0  0  0  0  0  0
  140.3780   70.5940  225.8090 C   0  0  0  0  0  0  0  0  0  0  0  0
  140.8340   71.8780  225.9990 C   0  0  0  0  0  0  0  0  0  0  0  0
  141.2050   72.2550  227.2720 C   0  0  0  0  0  0  0  0  0  0  0  0
  141.1140   71.3600  228.3090 C   0  0  0  0  0  0  0  0  0  0  0  0
  140.6470   70.0950  228.0330 C   0  0  0  0  0  0  0  0  0  0  0  0
  140.2760   69.6880  226.8060 N   0  0  0  0  0  0  0  0  0  0  0  0
  139.2650   77.6010  222.6990 C   0  0  0  0  0  0  0  0  0  0  0  0
  138.4240   78.6450  223.0770 C   0  0  0  0  0  0  0  0  0  0  0  0
  138.9980   79.8460  223.4430 C   0  0  0  0  0  0  0  0  0  0  0  0
  140.3650   80.0320  223.4440 C   0  0  0  0  0  0  0  0  0  0  0  0
  140.9490   81.2300  223.8080 C   0  0  0  0  0  0  0  0  0  0  0  0
  142.3340   81.4050  223.8050 C   0  0  0  0  0  0  0  0  0  0  0  0
  143.1150   80.3180  223.4160 C   0  0  0  0  0  0  0  0  0  0  0  0
  142.5390   79.1100  223.0470 C   0  0  0  0  0  0  0  0  0  0  0  0
  141.1670   78.9550  223.0570 C   0  0  0  0  0  0  0  0  0  0  0  0
  140.5980   77.7880  222.7020 N   0  0  0  0  0  0  0  0  0  0  0  0
  140.5150   75.3030  222.3640 H   0  0  0  0  0  0  0  0  0  0  0  0
  137.9108   73.7855  222.2059 H   0  0  0  0  0  0  0  0  0  0  0  0
  138.8675   73.8093  220.6975 H   0  0  0  0  0  0  0  0  0  0  0  0
  139.0107   70.8211  220.6829 H   0  0  0  0  0  0  0  0  0  0  0  0
  140.3618   70.0322  221.5209 H   0  0  0  0  0  0  0  0  0  0  0  0
  137.6611   69.1146  221.4087 H   0  0  0  0  0  0  0  0  0  0  0  0
  138.8974   68.4568  222.4611 H   0  0  0  0  0  0  0  0  0  0  0  0
  136.8599   70.6877  223.0210 H   0  0  0  0  0  0  0  0  0  0  0  0
  137.3087   69.3980  224.1020 H   0  0  0  0  0  0  0  0  0  0  0  0
  138.4958   71.6735  224.6392 H   0  0  0  0  0  0  0  0  0  0  0  0
  139.6406   69.0969  224.5216 H   0  0  0  0  0  0  0  0  0  0  0  0
  140.8381   70.2674  223.7952 H   0  0  0  0  0  0  0  0  0  0  0  0
  140.9007   72.5843  225.1583 H   0  0  0  0  0  0  0  0  0  0  0  0
  141.5745   73.2744  227.4572 H   0  0  0  0  0  0  0  0  0  0  0  0
  141.4057   71.6455  229.3305 H   0  0  0  0  0  0  0  0  0  0  0  0
  140.5731   69.3765  228.8626 H   0  0  0  0  0  0  0  0  0  0  0  0
  137.3316   78.5160  223.0837 H   0  0  0  0  0  0  0  0  0  0  0  0
  138.3459   80.6796  223.7428 H   0  0  0  0  0  0  0  0  0  0  0  0
  140.3047   82.0694  224.1086 H   0  0  0  0  0  0  0  0  0  0  0  0
  142.7905   82.3620  224.0978 H   0  0  0  0  0  0  0  0  0  0  0  0
  144.2102   80.4194  223.4011 H   0  0  0  0  0  0  0  0  0  0  0  0
  143.1808   78.2695  222.7442 H   0  0  0  0  0  0  0  0  0  0  0  0
  1  2  2  0
  2  3  1  0
  3  4  1  0
  4  5  1  0
  5  6  2  0
  5  7  1  0
  7  8  1  0
  8  9  1  0
  9 10  1  0
 10 11  1  0
 11 12  1  0
 12 13  1  0
 13 14  2  0
 14 15  1  0
 15 16  2  0
 16 17  1  0
 17 18  2  0
  2 19  1  0
 19 20  2  0
 20 21  1  0
 21 22  2  0
 22 23  1  0
 23 24  2  0
 24 25  1  0
 25 26  2  0
 26 27  1  0
 27 28  2  0
 11  7  1  0
 18 13  1  0
 28 19  1  0
 27 22  1  0
  3 29  1  0
  4 30  1  0
  4 31  1  0
  8 32  1  0
  8 33  1  0
  9 34  1  0
  9 35  1  0
 10 36  1  0
 10 37  1  0
 11 38  1  1
 12 39  1  0
 12 40  1  0
 14 41  1  0
 15 42  1  0
 16 43  1  0
 17 44  1  0
 20 45  1  0
 21 46  1  0
 23 47  1  0
 24 48  1  0
 25 49  1  0
 26 50  1  0
M  END
>  <smiles>  (63) 
O=C(NCC(=O)N1CCCC1Cc1ccccn1)c1ccc2ccccc2n1

>  <score_type>  (63) 
oracle

>  <origin>  (63) 
autodockgpu

>  <m_score__min__energy>  (63) 
-8.8800000000000008

>  <m_primary>  (63) 
energy

>  <rmsd>  (63) 
8.369232846697013

>  <m_score__min__rmsd>  (63) 
8.369232846697013

>  <meeko>  (63) 
{"free_energy": -8.41, "intermolecular_energy": -10.2, "internal_energy": -1.95, "cluster_size": 13, "cluster_id": 2, "rank_in_cluster": 9}

>  <energy>  (63) 
-8.63

>  <cluster_rmsd>  (63) 
0.65

>  <cluster>  (63) 
1

$$$$

     RDKit          3D

 50 53  0  0  0  0  0  0  0  0999 V2000
  139.5250   71.2770  221.1440 O   0  0  0  0  0  0  0  0  0  0  0  0
  140.1580   71.7870  222.1070 C   0  0  0  0  0  0  0  0  0  0  0  0
  140.9710   72.9420  221.8780 N   0  0  0  0  0  0  0  0  0  0  0  0
  141.0820   73.5390  220.5630 C   0  0  0  0  0  0  0  0  0  0  0  0
  141.3510   74.9790  220.7330 C   0  0  0  0  0  0  0  0  0  0  0  0
  142.3990   75.5160  220.2360 O   0  0  0  0  0  0  0  0  0  0  0  0
  140.4940   75.8660  221.4440 N   0  0  0  0  0  0  0  0  0  0  0  0
  139.3380   75.4260  222.1840 C   0  0  0  0  0  0  0  0  0  0  0  0
  138.4560   76.6410  222.3680 C   0  0  0  0  0  0  0  0  0  0  0  0
  139.1080   77.6810  221.4690 C   0  0  0  0  0  0  0  0  0  0  0  0
  140.5700   77.3080  221.5820 C   0  0  1  0  0  0  0  0  0  0  0  0
  141.1050   77.5590  222.9760 C   0  0  0  0  0  0  0  0  0  0  0  0
  141.4870   78.9720  223.2110 C   0  0  0  0  0  0  0  0  0  0  0  0
  142.7990   79.3630  223.0730 C   0  0  0  0  0  0  0  0  0  0  0  0
  143.1110   80.6860  223.3010 C   0  0  0  0  0  0  0  0  0  0  0  0
  142.1260   81.5750  223.6540 C   0  0  0  0  0  0  0  0  0  0  0  0
  140.8390   81.1020  223.7710 C   0  0  0  0  0  0  0  0  0  0  0  0
  140.4940   79.8190  223.5570 N   0  0  0  0  0  0  0  0  0  0  0  0
  140.0840   71.2260  223.4550 C   0  0  0  0  0  0  0  0  0  0  0  0
  139.4110   70.0170  223.6230 C   0  0  0  0  0  0  0  0  0  0  0  0
  139.3370   69.4840  224.8940 C   0  0  0  0  0  0  0  0  0  0  0  0
  139.9070   70.1100  225.9830 C   0  0  0  0  0  0  0  0  0  0  0  0
  139.8390   69.5830  227.2600 C   0  0  0  0  0  0  0  0  0  0  0  0
  140.4200   70.2270  228.3540 C   0  0  0  0  0  0  0  0  0  0  0  0
  141.0780   71.4310  228.1110 C   0  0  0  0  0  0  0  0  0  0  0  0
  141.1520   71.9700  226.8340 C   0  0  0  0  0  0  0  0  0  0  0  0
  140.5710   71.3190  225.7630 C   0  0  0  0  0  0  0  0  0  0  0  0
  140.6380   71.8320  224.5210 N   0  0  0  0  0  0  0  0  0  0  0  0
  141.4860   73.3350  222.7190 H   0  0  0  0  0  0  0  0  0  0  0  0
  141.9076   73.0687  220.0088 H   0  0  0  0  0  0  0  0  0  0  0  0
  140.1501   73.3902  219.9978 H   0  0  0  0  0  0  0  0  0  0  0  0
  138.8006   74.6482  221.6217 H   0  0  0  0  0  0  0  0  0  0  0  0
  139.6276   74.9949  223.1537 H   0  0  0  0  0  0  0  0  0  0  0  0
  137.4248   76.4325  222.0469 H   0  0  0  0  0  0  0  0  0  0  0  0
  138.3786   76.9639  223.4167 H   0  0  0  0  0  0  0  0  0  0  0  0
  138.7510   77.5955  220.4320 H   0  0  0  0  0  0  0  0  0  0  0  0
  138.8881   78.7202  221.7548 H   0  0  0  0  0  0  0  0  0  0  0  0
  141.2011   77.8598  220.8698 H   0  0  0  0  0  0  0  0  0  0  0  0
  140.3280   77.2816  223.7035 H   0  0  0  0  0  0  0  0  0  0  0  0
  142.0150   76.9518  223.0903 H   0  0  0  0  0  0  0  0  0  0  0  0
  143.5774   78.6397  222.7886 H   0  0  0  0  0  0  0  0  0  0  0  0
  144.1509   81.0302  223.2000 H   0  0  0  0  0  0  0  0  0  0  0  0
  142.3588   82.6342  223.8379 H   0  0  0  0  0  0  0  0  0  0  0  0
  140.0484   81.8121  224.0552 H   0  0  0  0  0  0  0  0  0  0  0  0
  138.9516   69.5020  222.7664 H   0  0  0  0  0  0  0  0  0  0  0  0
  138.8076   68.5314  225.0430 H   0  0  0  0  0  0  0  0  0  0  0  0
  139.3126   68.6301  227.4180 H   0  0  0  0  0  0  0  0  0  0  0  0
  140.3607   69.8013  229.3666 H   0  0  0  0  0  0  0  0  0  0  0  0
  141.5489   71.9657  228.9490 H   0  0  0  0  0  0  0  0  0  0  0  0
  141.6774   72.9230  226.6736 H   0  0  0  0  0  0  0  0  0  0  0  0
  1  2  2  0
  2  3  1  0
  3  4  1  0
  4  5  1  0
  5  6  2  0
  5  7  1  0
  7  8  1  0
  8  9  1  0
  9 10  1  0
 10 11  1  0
 11 12  1  0
 12 13  1  0
 13 14  2  0
 14 15  1  0
 15 16  2  0
 16 17  1  0
 17 18  2  0
  2 19  1  0
 19 20  2  0
 20 21  1  0
 21 22  2  0
 22 23  1  0
 23 24  2  0
 24 25  1  0
 25 26  2  0
 26 27  1  0
 27 28  2  0
 11  7  1  0
 18 13  1  0
 28 19  1  0
 27 22  1  0
  3 29  1  0
  4 30  1  0
  4 31  1  0
  8 32  1  0
  8 33  1  0
  9 34  1  0
  9 35  1  0
 10 36  1  0
 10 37  1  0
 11 38  1  6
 12 39  1  0
 12 40  1  0
 14 41  1  0
 15 42  1  0
 16 43  1  0
 17 44  1  0
 20 45  1  0
 21 46  1  0
 23 47  1  0
 24 48  1  0
 25 49  1  0
 26 50  1  0
M  END
>  <smiles>  (64) 
O=C(NCC(=O)N1CCCC1Cc1ccccn1)c1ccc2ccccc2n1

>  <score_type>  (64) 
oracle

>  <origin>  (64) 
autodockgpu

>  <m_score__min__energy>  (64) 
-8.8800000000000008

>  <m_primary>  (64) 
energy

>  <rmsd>  (64) 
2.589137253050595

>  <m_score__min__rmsd>  (64) 
2.589137253050595

>  <meeko>  (64) 
{"free_energy": -8.15, "intermolecular_energy": -9.94, "internal_energy": -1.59, "cluster_size": 24, "cluster_id": 1, "rank_in_cluster": 23}

>  <energy>  (64) 
-8.63

>  <cluster_rmsd>  (64) 
0.71

>  <cluster>  (64) 
1

$$$$

     RDKit          3D

 50 53  0  0  0  0  0  0  0  0999 V2000
  140.4300   71.2000  221.2010 O   0  0  0  0  0  0  0  0  0  0  0  0
  140.1370   71.8240  222.2560 C   0  0  0  0  0  0  0  0  0  0  0  0
  139.8300   73.2190  222.1830 N   0  0  0  0  0  0  0  0  0  0  0  0
  139.8490   73.9320  220.9230 C   0  0  0  0  0  0  0  0  0  0  0  0
  140.2620   75.3230  221.1880 C   0  0  0  0  0  0  0  0  0  0  0  0
  140.0550   75.8650  222.3260 O   0  0  0  0  0  0  0  0  0  0  0  0
  140.9070   76.1540  220.2280 N   0  0  0  0  0  0  0  0  0  0  0  0
  140.5360   76.1890  218.8360 C   0  0  0  0  0  0  0  0  0  0  0  0
  141.7130   76.7830  218.0920 C   0  0  0  0  0  0  0  0  0  0  0  0
  142.8050   76.8260  219.1500 C   0  0  0  0  0  0  0  0  0  0  0  0
  142.0030   77.0880  220.4060 C   0  0  1  0  0  0  0  0  0  0  0  0
  141.3750   78.4660  220.3910 C   0  0  0  0  0  0  0  0  0  0  0  0
  141.6270   79.2380  221.6300 C   0  0  0  0  0  0  0  0  0  0  0  0
  141.5550   78.6170  222.8550 C   0  0  0  0  0  0  0  0  0  0  0  0
  141.7970   79.3720  223.9830 C   0  0  0  0  0  0  0  0  0  0  0  0
  142.1010   80.7060  223.8670 C   0  0  0  0  0  0  0  0  0  0  0  0
  142.1530   81.2500  222.6030 C   0  0  0  0  0  0  0  0  0  0  0  0
  141.9230   80.5480  221.4790 N   0  0  0  0  0  0  0  0  0  0  0  0
  140.1040   71.1550  223.5550 C   0  0  0  0  0  0  0  0  0  0  0  0
  139.5460   69.8800  223.6200 C   0  0  0  0  0  0  0  0  0  0  0  0
  139.5110   69.2450  224.8450 C   0  0  0  0  0  0  0  0  0  0  0  0
  140.0110   69.8340  225.9880 C   0  0  0  0  0  0  0  0  0  0  0  0
  139.9810   69.2060  227.2190 C   0  0  0  0  0  0  0  0  0  0  0  0
  140.4890   69.8140  228.3680 C   0  0  0  0  0  0  0  0  0  0  0  0
  141.0330   71.0890  228.2290 C   0  0  0  0  0  0  0  0  0  0  0  0
  141.0680   71.7300  226.9980 C   0  0  0  0  0  0  0  0  0  0  0  0
  140.5600   71.1130  225.8720 C   0  0  0  0  0  0  0  0  0  0  0  0
  140.5900   71.7260  224.6730 N   0  0  0  0  0  0  0  0  0  0  0  0
  139.5910   73.7020  223.0980 H   0  0  0  0  0  0  0  0  0  0  0  0
  140.5639   73.4555  220.2361 H   0  0  0  0  0  0  0  0  0  0  0  0
  138.8513   73.9130  220.4601 H   0  0  0  0  0  0  0  0  0  0  0  0
  140.3306   75.1716  218.4718 H   0  0  0  0  0  0  0  0  0  0  0  0
  139.6255   76.7868  218.6820 H   0  0  0  0  0  0  0  0  0  0  0  0
  142.0080   76.1448  217.2460 H   0  0  0  0  0  0  0  0  0  0  0  0
  141.4952   77.7690  217.6556 H   0  0  0  0  0  0  0  0  0  0  0  0
  143.3433   75.8686  219.2101 H   0  0  0  0  0  0  0  0  0  0  0  0
  143.5874   77.5742  218.9549 H   0  0  0  0  0  0  0  0  0  0  0  0
  142.6100   76.9997  221.3191 H   0  0  0  0  0  0  0  0  0  0  0  0
  141.7864   79.0280  219.5396 H   0  0  0  0  0  0  0  0  0  0  0  0
  140.2869   78.3274  220.3090 H   0  0  0  0  0  0  0  0  0  0  0  0
  141.3110   77.5472  222.9327 H   0  0  0  0  0  0  0  0  0  0  0  0
  141.7464   78.9049  224.9776 H   0  0  0  0  0  0  0  0  0  0  0  0
  142.2971   81.3217  224.7572 H   0  0  0  0  0  0  0  0  0  0  0  0
  142.3963   82.3185  222.5072 H   0  0  0  0  0  0  0  0  0  0  0  0
  139.1442   69.3926  222.7194 H   0  0  0  0  0  0  0  0  0  0  0  0
  139.0712   68.2390  224.9120 H   0  0  0  0  0  0  0  0  0  0  0  0
  139.5447   68.1991  227.2952 H   0  0  0  0  0  0  0  0  0  0  0  0
  140.4610   69.3070  229.3438 H   0  0  0  0  0  0  0  0  0  0  0  0
  141.4435   71.5986  229.1132 H   0  0  0  0  0  0  0  0  0  0  0  0
  141.5037   72.7370  226.9191 H   0  0  0  0  0  0  0  0  0  0  0  0
  1  2  2  0
  2  3  1  0
  3  4  1  0
  4  5  1  0
  5  6  2  0
  5  7  1  0
  7  8  1  0
  8  9  1  0
  9 10  1  0
 10 11  1  0
 11 12  1  0
 12 13  1  0
 13 14  2  0
 14 15  1  0
 15 16  2  0
 16 17  1  0
 17 18  2  0
  2 19  1  0
 19 20  2  0
 20 21  1  0
 21 22  2  0
 22 23  1  0
 23 24  2  0
 24 25  1  0
 25 26  2  0
 26 27  1  0
 27 28  2  0
 11  7  1  0
 18 13  1  0
 28 19  1  0
 27 22  1  0
  3 29  1  0
  4 30  1  0
  4 31  1  0
  8 32  1  0
  8 33  1  0
  9 34  1  0
  9 35  1  0
 10 36  1  0
 10 37  1  0
 11 38  1  1
 12 39  1  0
 12 40  1  0
 14 41  1  0
 15 42  1  0
 16 43  1  0
 17 44  1  0
 20 45  1  0
 21 46  1  0
 23 47  1  0
 24 48  1  0
 25 49  1  0
 26 50  1  0
M  END
>  <smiles>  (65) 
O=C(NCC(=O)N1CCCC1Cc1ccccn1)c1ccc2ccccc2n1

>  <score_type>  (65) 
oracle

>  <origin>  (65) 
autodockgpu

>  <m_score__min__energy>  (65) 
-8.8800000000000008

>  <m_primary>  (65) 
energy

>  <rmsd>  (65) 
1.5092509798169258

>  <m_score__min__rmsd>  (65) 
1.5092509798169258

>  <meeko>  (65) 
{"free_energy": -8.75, "intermolecular_energy": -10.54, "internal_energy": -1.76, "cluster_size": 24, "cluster_id": 1, "rank_in_cluster": 4}

>  <energy>  (65) 
-8.61

>  <cluster_rmsd>  (65) 
0.6

>  <cluster>  (65) 
1

$$$$

     RDKit          3D

 50 53  0  0  0  0  0  0  0  0999 V2000
  137.3390   76.0930  222.3660 O   0  0  0  0  0  0  0  0  0  0  0  0
  138.5880   76.2600  222.3600 C   0  0  0  0  0  0  0  0  0  0  0  0
  139.4420   75.1590  222.0380 N   0  0  0  0  0  0  0  0  0  0  0  0
  138.9020   73.8530  221.7170 C   0  0  0  0  0  0  0  0  0  0  0  0
  139.7920   72.8320  222.3010 C   0  0  0  0  0  0  0  0  0  0  0  0
  141.0550   73.0180  222.3640 O   0  0  0  0  0  0  0  0  0  0  0  0
  139.3350   71.5910  222.8290 N   0  0  0  0  0  0  0  0  0  0  0  0
  138.9050   70.4910  222.0030 C   0  0  0  0  0  0  0  0  0  0  0  0
  138.0690   69.5910  222.8870 C   0  0  0  0  0  0  0  0  0  0  0  0
  137.8920   70.4160  224.1530 C   0  0  0  0  0  0  0  0  0  0  0  0
  139.2030   71.1700  224.2110 C   0  0  1  0  0  0  0  0  0  0  0  0
  140.3710   70.2430  224.4710 C   0  0  0  0  0  0  0  0  0  0  0  0
  140.3700   69.6690  225.8380 C   0  0  0  0  0  0  0  0  0  0  0  0
  140.6460   70.4700  226.9220 C   0  0  0  0  0  0  0  0  0  0  0  0
  140.6340   69.8970  228.1750 C   0  0  0  0  0  0  0  0  0  0  0  0
  140.3520   68.5600  228.3180 C   0  0  0  0  0  0  0  0  0  0  0  0
  140.0870   67.8290  227.1820 C   0  0  0  0  0  0  0  0  0  0  0  0
  140.0880   68.3520  225.9430 N   0  0  0  0  0  0  0  0  0  0  0  0
  139.1870   77.5550  222.6760 C   0  0  0  0  0  0  0  0  0  0  0  0
  138.3330   78.6250  222.9340 C   0  0  0  0  0  0  0  0  0  0  0  0
  138.8940   79.8510  223.2330 C   0  0  0  0  0  0  0  0  0  0  0  0
  140.2600   80.0360  223.2820 C   0  0  0  0  0  0  0  0  0  0  0  0
  140.8310   81.2590  223.5800 C   0  0  0  0  0  0  0  0  0  0  0  0
  142.2150   81.4330  223.6260 C   0  0  0  0  0  0  0  0  0  0  0  0
  143.0090   80.3200  223.3590 C   0  0  0  0  0  0  0  0  0  0  0  0
  142.4470   79.0860  223.0580 C   0  0  0  0  0  0  0  0  0  0  0  0
  141.0750   78.9330  223.0160 C   0  0  0  0  0  0  0  0  0  0  0  0
  140.5190   77.7420  222.7260 N   0  0  0  0  0  0  0  0  0  0  0  0
  140.4860   75.3480  222.0470 H   0  0  0  0  0  0  0  0  0  0  0  0
  137.8917   73.7530  222.1406 H   0  0  0  0  0  0  0  0  0  0  0  0
  138.8393   73.7245  220.6263 H   0  0  0  0  0  0  0  0  0  0  0  0
  138.3030   70.8613  221.1601 H   0  0  0  0  0  0  0  0  0  0  0  0
  139.7651   69.9487  221.5833 H   0  0  0  0  0  0  0  0  0  0  0  0
  137.0975   69.3713  222.4201 H   0  0  0  0  0  0  0  0  0  0  0  0
  138.5359   68.6122  223.0712 H   0  0  0  0  0  0  0  0  0  0  0  0
  137.0372   71.1031  224.0680 H   0  0  0  0  0  0  0  0  0  0  0  0
  137.6801   69.8173  225.0512 H   0  0  0  0  0  0  0  0  0  0  0  0
  139.2064   71.9484  224.9882 H   0  0  0  0  0  0  0  0  0  0  0  0
  140.3299   69.4173  223.7454 H   0  0  0  0  0  0  0  0  0  0  0  0
  141.2897   70.8391  224.3682 H   0  0  0  0  0  0  0  0  0  0  0  0
  140.8702   71.5390  226.7919 H   0  0  0  0  0  0  0  0  0  0  0  0
  140.8505   70.5107  229.0618 H   0  0  0  0  0  0  0  0  0  0  0  0
  140.3384   68.0874  229.3112 H   0  0  0  0  0  0  0  0  0  0  0  0
  139.8620   66.7581  227.2939 H   0  0  0  0  0  0  0  0  0  0  0  0
  137.2410   78.4968  222.9005 H   0  0  0  0  0  0  0  0  0  0  0  0
  138.2320   80.7052  223.4381 H   0  0  0  0  0  0  0  0  0  0  0  0
  140.1766   82.1187  223.7866 H   0  0  0  0  0  0  0  0  0  0  0  0
  142.6610   82.4100  223.8636 H   0  0  0  0  0  0  0  0  0  0  0  0
  144.1040   80.4205  223.3871 H   0  0  0  0  0  0  0  0  0  0  0  0
  143.0992   78.2246  222.8516 H   0  0  0  0  0  0  0  0  0  0  0  0
  1  2  2  0
  2  3  1  0
  3  4  1  0
  4  5  1  0
  5  6  2  0
  5  7  1  0
  7  8  1  0
  8  9  1  0
  9 10  1  0
 10 11  1  0
 11 12  1  0
 12 13  1  0
 13 14  2  0
 14 15  1  0
 15 16  2  0
 16 17  1  0
 17 18  2  0
  2 19  1  0
 19 20  2  0
 20 21  1  0
 21 22  2  0
 22 23  1  0
 23 24  2  0
 24 25  1  0
 25 26  2  0
 26 27  1  0
 27 28  2  0
 11  7  1  0
 18 13  1  0
 28 19  1  0
 27 22  1  0
  3 29  1  0
  4 30  1  0
  4 31  1  0
  8 32  1  0
  8 33  1  0
  9 34  1  0
  9 35  1  0
 10 36  1  0
 10 37  1  0
 11 38  1  1
 12 39  1  0
 12 40  1  0
 14 41  1  0
 15 42  1  0
 16 43  1  0
 17 44  1  0
 20 45  1  0
 21 46  1  0
 23 47  1  0
 24 48  1  0
 25 49  1  0
 26 50  1  0
M  END
>  <smiles>  (66) 
O=C(NCC(=O)N1CCCC1Cc1ccccn1)c1ccc2ccccc2n1

>  <score_type>  (66) 
oracle

>  <origin>  (66) 
autodockgpu

>  <m_score__min__energy>  (66) 
-8.8800000000000008

>  <m_primary>  (66) 
energy

>  <rmsd>  (66) 
8.415696527700927

>  <m_score__min__rmsd>  (66) 
8.415696527700927

>  <meeko>  (66) 
{"free_energy": -8.31, "intermolecular_energy": -10.1, "internal_energy": -1.79, "cluster_size": 13, "cluster_id": 2, "rank_in_cluster": 10}

>  <energy>  (66) 
-8.58

>  <cluster_rmsd>  (66) 
0.67

>  <cluster>  (66) 
1

$$$$

     RDKit          3D

 50 53  0  0  0  0  0  0  0  0999 V2000
  140.9430   71.5510  221.3550 O   0  0  0  0  0  0  0  0  0  0  0  0
  140.4210   72.0990  222.3630 C   0  0  0  0  0  0  0  0  0  0  0  0
  139.9940   73.4620  222.2780 N   0  0  0  0  0  0  0  0  0  0  0  0
  140.1500   74.2270  221.0580 C   0  0  0  0  0  0  0  0  0  0  0  0
  140.5380   75.6020  221.4250 C   0  0  0  0  0  0  0  0  0  0  0  0
  140.2150   76.0970  222.5580 O   0  0  0  0  0  0  0  0  0  0  0  0
  141.2840   76.4680  220.5760 N   0  0  0  0  0  0  0  0  0  0  0  0
  141.4660   77.8730  220.8400 C   0  0  0  0  0  0  0  0  0  0  0  0
  141.8660   78.5100  219.5270 C   0  0  0  0  0  0  0  0  0  0  0  0
  141.6430   77.3930  218.5190 C   0  0  0  0  0  0  0  0  0  0  0  0
  141.9830   76.1680  219.3390 C   0  0  1  0  0  0  0  0  0  0  0  0
  143.4530   76.1260  219.6990 C   0  0  0  0  0  0  0  0  0  0  0  0
  143.9380   74.7630  220.0220 C   0  0  0  0  0  0  0  0  0  0  0  0
  145.1970   74.5870  220.5480 C   0  0  0  0  0  0  0  0  0  0  0  0
  145.6090   73.3030  220.8350 C   0  0  0  0  0  0  0  0  0  0  0  0
  144.7720   72.2410  220.5950 C   0  0  0  0  0  0  0  0  0  0  0  0
  143.5270   72.5050  220.0680 C   0  0  0  0  0  0  0  0  0  0  0  0
  143.0890   73.7420  219.7750 N   0  0  0  0  0  0  0  0  0  0  0  0
  140.2400   71.3740  223.6200 C   0  0  0  0  0  0  0  0  0  0  0  0
  139.5680   70.1550  223.5800 C   0  0  0  0  0  0  0  0  0  0  0  0
  139.3940   69.4670  224.7640 C   0  0  0  0  0  0  0  0  0  0  0  0
  139.8650   69.9520  225.9660 C   0  0  0  0  0  0  0  0  0  0  0  0
  139.6950   69.2710  227.1570 C   0  0  0  0  0  0  0  0  0  0  0  0
  140.1770   69.7730  228.3670 C   0  0  0  0  0  0  0  0  0  0  0  0
  140.8400   70.9980  228.3320 C   0  0  0  0  0  0  0  0  0  0  0  0
  141.0160   71.6920  227.1420 C   0  0  0  0  0  0  0  0  0  0  0  0
  140.5320   71.1790  225.9550 C   0  0  0  0  0  0  0  0  0  0  0  0
  140.6970   71.8430  224.7950 N   0  0  0  0  0  0  0  0  0  0  0  0
  139.5610   73.8800  223.1520 H   0  0  0  0  0  0  0  0  0  0  0  0
  140.9321   73.7737  220.4312 H   0  0  0  0  0  0  0  0  0  0  0  0
  139.2075   74.2358  220.4909 H   0  0  0  0  0  0  0  0  0  0  0  0
  140.5278   78.3152  221.2064 H   0  0  0  0  0  0  0  0  0  0  0  0
  142.2336   78.0362  221.6108 H   0  0  0  0  0  0  0  0  0  0  0  0
  141.2309   79.3791  219.3002 H   0  0  0  0  0  0  0  0  0  0  0  0
  142.8978   78.8914  219.5283 H   0  0  0  0  0  0  0  0  0  0  0  0
  140.5990   77.3672  218.1734 H   0  0  0  0  0  0  0  0  0  0  0  0
  142.2391   77.4950  217.6001 H   0  0  0  0  0  0  0  0  0  0  0  0
  141.7320   75.2311  218.8201 H   0  0  0  0  0  0  0  0  0  0  0  0
  144.0325   76.5101  218.8466 H   0  0  0  0  0  0  0  0  0  0  0  0
  143.5857   76.7417  220.6009 H   0  0  0  0  0  0  0  0  0  0  0  0
  145.8568   75.4471  220.7345 H   0  0  0  0  0  0  0  0  0  0  0  0
  146.6098   73.1289  221.2570 H   0  0  0  0  0  0  0  0  0  0  0  0
  145.0864   71.2105  220.8169 H   0  0  0  0  0  0  0  0  0  0  0  0
  142.8536   71.6566  219.8762 H   0  0  0  0  0  0  0  0  0  0  0  0
  139.1862   69.7513  222.6307 H   0  0  0  0  0  0  0  0  0  0  0  0
  138.8639   68.5033  224.7483 H   0  0  0  0  0  0  0  0  0  0  0  0
  139.1653   68.3070  227.1510 H   0  0  0  0  0  0  0  0  0  0  0  0
  140.0390   69.2237  229.3100 H   0  0  0  0  0  0  0  0  0  0  0  0
  141.2324   71.4245  229.2669 H   0  0  0  0  0  0  0  0  0  0  0  0
  141.5445   72.6567  227.1451 H   0  0  0  0  0  0  0  0  0  0  0  0
  1  2  2  0
  2  3  1  0
  3  4  1  0
  4  5  1  0
  5  6  2  0
  5  7  1  0
  7  8  1  0
  8  9  1  0
  9 10  1  0
 10 11  1  0
 11 12  1  0
 12 13  1  0
 13 14  2  0
 14 15  1  0
 15 16  2  0
 16 17  1  0
 17 18  2  0
  2 19  1  0
 19 20  2  0
 20 21  1  0
 21 22  2  0
 22 23  1  0
 23 24  2  0
 24 25  1  0
 25 26  2  0
 26 27  1  0
 27 28  2  0
 11  7  1  0
 18 13  1  0
 28 19  1  0
 27 22  1  0
  3 29  1  0
  4 30  1  0
  4 31  1  0
  8 32  1  0
  8 33  1  0
  9 34  1  0
  9 35  1  0
 10 36  1  0
 10 37  1  0
 11 38  1  6
 12 39  1  0
 12 40  1  0
 14 41  1  0
 15 42  1  0
 16 43  1  0
 17 44  1  0
 20 45  1  0
 21 46  1  0
 23 47  1  0
 24 48  1  0
 25 49  1  0
 26 50  1  0
M  END
>  <smiles>  (67) 
O=C(NCC(=O)N1CCCC1Cc1ccccn1)c1ccc2ccccc2n1

>  <score_type>  (67) 
oracle

>  <origin>  (67) 
autodockgpu

>  <m_score__min__energy>  (67) 
-8.8800000000000008

>  <m_primary>  (67) 
energy

>  <rmsd>  (67) 
2.2273850108457145

>  <m_score__min__rmsd>  (67) 
2.2273850108457145

>  <meeko>  (67) 
{"free_energy": -8.49, "intermolecular_energy": -10.27, "internal_energy": -2.02, "cluster_size": 9, "cluster_id": 3, "rank_in_cluster": 1}

>  <energy>  (67) 
-8.56

>  <cluster_rmsd>  (67) 
0.43

>  <cluster>  (67) 
1

$$$$

     RDKit          3D

 50 53  0  0  0  0  0  0  0  0999 V2000
  141.5750   74.7170  221.1560 O   0  0  0  0  0  0  0  0  0  0  0  0
  140.5780   75.0920  221.8280 C   0  0  0  0  0  0  0  0  0  0  0  0
  139.5880   74.1330  222.2100 N   0  0  0  0  0  0  0  0  0  0  0  0
  139.7070   72.7370  221.8420 C   0  0  0  0  0  0  0  0  0  0  0  0
  138.5450   72.0160  222.3940 C   0  0  0  0  0  0  0  0  0  0  0  0
  137.3930   72.5660  222.4450 O   0  0  0  0  0  0  0  0  0  0  0  0
  138.6060   70.6860  222.9000 N   0  0  0  0  0  0  0  0  0  0  0  0
  138.7970   69.5290  222.0620 C   0  0  0  0  0  0  0  0  0  0  0  0
  138.3290   68.3350  222.8660 C   0  0  0  0  0  0  0  0  0  0  0  0
  137.6600   68.9720  224.0750 C   0  0  0  0  0  0  0  0  0  0  0  0
  138.4990   70.2150  224.2680 C   0  0  1  0  0  0  0  0  0  0  0  0
  139.9120   69.8760  224.6970 C   0  0  0  0  0  0  0  0  0  0  0  0
  140.3210   70.5510  225.9510 C   0  0  0  0  0  0  0  0  0  0  0  0
  139.9490   70.0270  227.1680 C   0  0  0  0  0  0  0  0  0  0  0  0
  140.3510   70.6860  228.3100 C   0  0  0  0  0  0  0  0  0  0  0  0
  141.1020   71.8310  228.2160 C   0  0  0  0  0  0  0  0  0  0  0  0
  141.4330   72.2870  226.9600 C   0  0  0  0  0  0  0  0  0  0  0  0
  141.0600   71.6740  225.8220 N   0  0  0  0  0  0  0  0  0  0  0  0
  140.4050   76.4890  222.2260 C   0  0  0  0  0  0  0  0  0  0  0  0
  139.1070   76.9860  222.3220 C   0  0  0  0  0  0  0  0  0  0  0  0
  138.9400   78.3030  222.6970 C   0  0  0  0  0  0  0  0  0  0  0  0
  140.0120   79.1250  222.9760 C   0  0  0  0  0  0  0  0  0  0  0  0
  139.8540   80.4460  223.3530 C   0  0  0  0  0  0  0  0  0  0  0  0
  140.9480   81.2680  223.6330 C   0  0  0  0  0  0  0  0  0  0  0  0
  142.2170   80.7030  223.5170 C   0  0  0  0  0  0  0  0  0  0  0  0
  142.3870   79.3780  223.1390 C   0  0  0  0  0  0  0  0  0  0  0  0
  141.2930   78.5810  222.8660 C   0  0  0  0  0  0  0  0  0  0  0  0
  141.4480   77.2950  222.5000 N   0  0  0  0  0  0  0  0  0  0  0  0
  138.7660   74.4970  222.7740 H   0  0  0  0  0  0  0  0  0  0  0  0
  139.7195   72.6402  220.7463 H   0  0  0  0  0  0  0  0  0  0  0  0
  140.6413   72.3162  222.2421 H   0  0  0  0  0  0  0  0  0  0  0  0
  138.2024   69.6241  221.1414 H   0  0  0  0  0  0  0  0  0  0  0  0
  139.8510   69.4213  221.7662 H   0  0  0  0  0  0  0  0  0  0  0  0
  137.6124   67.7291  222.2921 H   0  0  0  0  0  0  0  0  0  0  0  0
  139.1456   67.6492  223.1358 H   0  0  0  0  0  0  0  0  0  0  0  0
  136.6102   69.2250  223.8657 H   0  0  0  0  0  0  0  0  0  0  0  0
  137.6186   68.3187  224.9590 H   0  0  0  0  0  0  0  0  0  0  0  0
  138.0706   70.8993  225.0152 H   0  0  0  0  0  0  0  0  0  0  0  0
  139.9799   68.7885  224.8476 H   0  0  0  0  0  0  0  0  0  0  0  0
  140.5870   70.2270  223.9026 H   0  0  0  0  0  0  0  0  0  0  0  0
  139.3476   69.1079  227.2277 H   0  0  0  0  0  0  0  0  0  0  0  0
  140.0694   70.2936  229.2983 H   0  0  0  0  0  0  0  0  0  0  0  0
  141.4298   72.3686  229.1180 H   0  0  0  0  0  0  0  0  0  0  0  0
  142.0361   73.2037  226.8825 H   0  0  0  0  0  0  0  0  0  0  0  0
  138.2392   76.3459  222.1048 H   0  0  0  0  0  0  0  0  0  0  0  0
  137.9211   78.7100  222.7759 H   0  0  0  0  0  0  0  0  0  0  0  0
  138.8386   80.8610  223.4347 H   0  0  0  0  0  0  0  0  0  0  0  0
  140.8137   82.3178  223.9327 H   0  0  0  0  0  0  0  0  0  0  0  0
  143.1025   81.3201  223.7295 H   0  0  0  0  0  0  0  0  0  0  0  0
  143.4011   78.9599  223.0564 H   0  0  0  0  0  0  0  0  0  0  0  0
  1  2  2  0
  2  3  1  0
  3  4  1  0
  4  5  1  0
  5  6  2  0
  5  7  1  0
  7  8  1  0
  8  9  1  0
  9 10  1  0
 10 11  1  0
 11 12  1  0
 12 13  1  0
 13 14  2  0
 14 15  1  0
 15 16  2  0
 16 17  1  0
 17 18  2  0
  2 19  1  0
 19 20  2  0
 20 21  1  0
 21 22  2  0
 22 23  1  0
 23 24  2  0
 24 25  1  0
 25 26  2  0
 26 27  1  0
 27 28  2  0
 11  7  1  0
 18 13  1  0
 28 19  1  0
 27 22  1  0
  3 29  1  0
  4 30  1  0
  4 31  1  0
  8 32  1  0
  8 33  1  0
  9 34  1  0
  9 35  1  0
 10 36  1  0
 10 37  1  0
 11 38  1  1
 12 39  1  0
 12 40  1  0
 14 41  1  0
 15 42  1  0
 16 43  1  0
 17 44  1  0
 20 45  1  0
 21 46  1  0
 23 47  1  0
 24 48  1  0
 25 49  1  0
 26 50  1  0
M  END
>  <smiles>  (68) 
O=C(NCC(=O)N1CCCC1Cc1ccccn1)c1ccc2ccccc2n1

>  <score_type>  (68) 
oracle

>  <origin>  (68) 
autodockgpu

>  <m_score__min__energy>  (68) 
-8.8800000000000008

>  <m_primary>  (68) 
energy

>  <rmsd>  (68) 
8.366499039509847

>  <m_score__min__rmsd>  (68) 
8.366499039509847

>  <meeko>  (68) 
{"free_energy": -8.47, "intermolecular_energy": -10.26, "internal_energy": -1.53, "cluster_size": 13, "cluster_id": 2, "rank_in_cluster": 7}

>  <energy>  (68) 
-8.51

>  <cluster_rmsd>  (68) 
0.83

>  <cluster>  (68) 
1

$$$$

     RDKit          3D

 50 53  0  0  0  0  0  0  0  0999 V2000
  133.5820   70.2130  226.6390 O   0  0  0  0  0  0  0  0  0  0  0  0
  133.8790   71.3450  226.1720 C   0  0  0  0  0  0  0  0  0  0  0  0
  134.8880   71.4440  225.1630 N   0  0  0  0  0  0  0  0  0  0  0  0
  135.5770   70.2710  224.6660 C   0  0  0  0  0  0  0  0  0  0  0  0
  136.8120   70.7150  223.9910 C   0  0  0  0  0  0  0  0  0  0  0  0
  136.9860   71.9410  223.6770 O   0  0  0  0  0  0  0  0  0  0  0  0
  137.8810   69.8420  223.6430 N   0  0  0  0  0  0  0  0  0  0  0  0
  138.3340   69.6450  222.2890 C   0  0  0  0  0  0  0  0  0  0  0  0
  139.1050   68.3430  222.2780 C   0  0  0  0  0  0  0  0  0  0  0  0
  138.8160   67.7580  223.6530 C   0  0  0  0  0  0  0  0  0  0  0  0
  138.7050   69.0080  224.4990 C   0  0  1  0  0  0  0  0  0  0  0  0
  140.0340   69.7250  224.6140 C   0  0  0  0  0  0  0  0  0  0  0  0
  140.2350   70.3760  225.9300 C   0  0  0  0  0  0  0  0  0  0  0  0
  139.7470   69.7840  227.0730 C   0  0  0  0  0  0  0  0  0  0  0  0
  139.9560   70.4220  228.2770 C   0  0  0  0  0  0  0  0  0  0  0  0
  140.6360   71.6140  228.3150 C   0  0  0  0  0  0  0  0  0  0  0  0
  141.0920   72.1380  227.1260 C   0  0  0  0  0  0  0  0  0  0  0  0
  140.9080   71.5470  225.9320 N   0  0  0  0  0  0  0  0  0  0  0  0
  133.2170   72.5630  226.6370 C   0  0  0  0  0  0  0  0  0  0  0  0
  131.9690   72.4370  227.2440 C   0  0  0  0  0  0  0  0  0  0  0  0
  131.3400   73.5830  227.6850 C   0  0  0  0  0  0  0  0  0  0  0  0
  131.9100   74.8310  227.5410 C   0  0  0  0  0  0  0  0  0  0  0  0
  131.2880   75.9850  227.9790 C   0  0  0  0  0  0  0  0  0  0  0  0
  131.8760   77.2420  227.8270 C   0  0  0  0  0  0  0  0  0  0  0  0
  133.1250   77.2930  227.2120 C   0  0  0  0  0  0  0  0  0  0  0  0
  133.7600   76.1400  226.7680 C   0  0  0  0  0  0  0  0  0  0  0  0
  133.1620   74.9060  226.9260 C   0  0  0  0  0  0  0  0  0  0  0  0
  133.7690   73.7820  226.5000 N   0  0  0  0  0  0  0  0  0  0  0  0
  135.1050   72.4180  224.8010 H   0  0  0  0  0  0  0  0  0  0  0  0
  135.8293   69.6041  225.5037 H   0  0  0  0  0  0  0  0  0  0  0  0
  134.9346   69.7221  223.9617 H   0  0  0  0  0  0  0  0  0  0  0  0
  137.4740   69.5830  221.6060 H   0  0  0  0  0  0  0  0  0  0  0  0
  138.9638   70.4826  221.9548 H   0  0  0  0  0  0  0  0  0  0  0  0
  138.7428   67.6765  221.4814 H   0  0  0  0  0  0  0  0  0  0  0  0
  140.1791   68.4786  222.0832 H   0  0  0  0  0  0  0  0  0  0  0  0
  137.8762   67.1864  223.6564 H   0  0  0  0  0  0  0  0  0  0  0  0
  139.5768   67.0458  224.0050 H   0  0  0  0  0  0  0  0  0  0  0  0
  138.3418   68.7976  225.5157 H   0  0  0  0  0  0  0  0  0  0  0  0
  140.8405   68.9931  224.4594 H   0  0  0  0  0  0  0  0  0  0  0  0
  140.0439   70.5185  223.8522 H   0  0  0  0  0  0  0  0  0  0  0  0
  139.2050   68.8279  227.0269 H   0  0  0  0  0  0  0  0  0  0  0  0
  139.5775   69.9755  229.2083 H   0  0  0  0  0  0  0  0  0  0  0  0
  140.8115   72.1354  229.2676 H   0  0  0  0  0  0  0  0  0  0  0  0
  141.6370   73.0931  227.1544 H   0  0  0  0  0  0  0  0  0  0  0  0
  131.4982   71.4506  227.3682 H   0  0  0  0  0  0  0  0  0  0  0  0
  130.3543   73.4991  228.1659 H   0  0  0  0  0  0  0  0  0  0  0  0
  130.3020   75.9109  228.4609 H   0  0  0  0  0  0  0  0  0  0  0  0
  131.3735   78.1552  228.1786 H   0  0  0  0  0  0  0  0  0  0  0  0
  133.6186   78.2665  227.0752 H   0  0  0  0  0  0  0  0  0  0  0  0
  134.7467   76.2109  226.2870 H   0  0  0  0  0  0  0  0  0  0  0  0
  1  2  2  0
  2  3  1  0
  3  4  1  0
  4  5  1  0
  5  6  2  0
  5  7  1  0
  7  8  1  0
  8  9  1  0
  9 10  1  0
 10 11  1  0
 11 12  1  0
 12 13  1  0
 13 14  2  0
 14 15  1  0
 15 16  2  0
 16 17  1  0
 17 18  2  0
  2 19  1  0
 19 20  2  0
 20 21  1  0
 21 22  2  0
 22 23  1  0
 23 24  2  0
 24 25  1  0
 25 26  2  0
 26 27  1  0
 27 28  2  0
 11  7  1  0
 18 13  1  0
 28 19  1  0
 27 22  1  0
  3 29  1  0
  4 30  1  0
  4 31  1  0
  8 32  1  0
  8 33  1  0
  9 34  1  0
  9 35  1  0
 10 36  1  0
 10 37  1  0
 11 38  1  1
 12 39  1  0
 12 40  1  0
 14 41  1  0
 15 42  1  0
 16 43  1  0
 17 44  1  0
 20 45  1  0
 21 46  1  0
 23 47  1  0
 24 48  1  0
 25 49  1  0
 26 50  1  0
M  END
>  <smiles>  (69) 
O=C(NCC(=O)N1CCCC1Cc1ccccn1)c1ccc2ccccc2n1

>  <score_type>  (69) 
oracle

>  <origin>  (69) 
autodockgpu

>  <m_score__min__energy>  (69) 
-8.8800000000000008

>  <m_primary>  (69) 
energy

>  <rmsd>  (69) 
8.726793893779112

>  <m_score__min__rmsd>  (69) 
8.726793893779112

>  <meeko>  (69) 
{"free_energy": -7.88, "intermolecular_energy": -9.67, "internal_energy": -1.99, "cluster_size": 3, "cluster_id": 4, "rank_in_cluster": 3}

>  <energy>  (69) 
-8.41

>  <cluster_rmsd>  (69) 
0.99

>  <cluster>  (69) 
1

$$$$

     RDKit          3D

 50 53  0  0  0  0  0  0  0  0999 V2000
  140.4710   71.4430  221.1610 O   0  0  0  0  0  0  0  0  0  0  0  0
  140.1580   72.0450  222.2220 C   0  0  0  0  0  0  0  0  0  0  0  0
  139.8520   73.4420  222.1720 N   0  0  0  0  0  0  0  0  0  0  0  0
  139.8940   74.1800  220.9260 C   0  0  0  0  0  0  0  0  0  0  0  0
  140.5870   75.4590  221.1740 C   0  0  0  0  0  0  0  0  0  0  0  0
  140.8070   75.8680  222.3640 O   0  0  0  0  0  0  0  0  0  0  0  0
  141.0540   76.3190  220.1400 N   0  0  0  0  0  0  0  0  0  0  0  0
  140.5200   76.3090  218.8010 C   0  0  0  0  0  0  0  0  0  0  0  0
  141.5570   76.9730  217.9200 C   0  0  0  0  0  0  0  0  0  0  0  0
  142.7600   77.1050  218.8420 C   0  0  0  0  0  0  0  0  0  0  0  0
  142.0950   77.3290  220.1820 C   0  0  1  0  0  0  0  0  0  0  0  0
  141.3730   78.6600  220.2340 C   0  0  0  0  0  0  0  0  0  0  0  0
  141.6090   79.4050  221.4920 C   0  0  0  0  0  0  0  0  0  0  0  0
  141.7690   78.7230  222.6770 C   0  0  0  0  0  0  0  0  0  0  0  0
  141.9860   79.4540  223.8250 C   0  0  0  0  0  0  0  0  0  0  0  0
  142.0390   80.8250  223.7690 C   0  0  0  0  0  0  0  0  0  0  0  0
  141.8690   81.4300  222.5430 C   0  0  0  0  0  0  0  0  0  0  0  0
  141.6550   80.7520  221.4010 N   0  0  0  0  0  0  0  0  0  0  0  0
  140.1000   71.3510  223.5070 C   0  0  0  0  0  0  0  0  0  0  0  0
  139.5110   70.0880  223.5420 C   0  0  0  0  0  0  0  0  0  0  0  0
  139.4540   69.4280  224.7530 C   0  0  0  0  0  0  0  0  0  0  0  0
  139.9590   69.9820  225.9110 C   0  0  0  0  0  0  0  0  0  0  0  0
  139.9060   69.3290  227.1280 C   0  0  0  0  0  0  0  0  0  0  0  0
  140.4210   69.9000  228.2930 C   0  0  0  0  0  0  0  0  0  0  0  0
  140.9960   71.1650  228.1840 C   0  0  0  0  0  0  0  0  0  0  0  0
  141.0550   71.8310  226.9670 C   0  0  0  0  0  0  0  0  0  0  0  0
  140.5390   71.2500  225.8250 C   0  0  0  0  0  0  0  0  0  0  0  0
  140.5920   71.8860  224.6400 N   0  0  0  0  0  0  0  0  0  0  0  0
  139.5940   73.9060  223.0910 H   0  0  0  0  0  0  0  0  0  0  0  0
  140.4409   73.6005  220.1676 H   0  0  0  0  0  0  0  0  0  0  0  0
  138.8740   74.3643  220.5576 H   0  0  0  0  0  0  0  0  0  0  0  0
  140.3453   75.2749  218.4692 H   0  0  0  0  0  0  0  0  0  0  0  0
  139.5578   76.8398  218.7524 H   0  0  0  0  0  0  0  0  0  0  0  0
  141.7946   76.3456  217.0483 H   0  0  0  0  0  0  0  0  0  0  0  0
  141.2211   77.9357  217.5072 H   0  0  0  0  0  0  0  0  0  0  0  0
  143.3667   76.1875  218.8437 H   0  0  0  0  0  0  0  0  0  0  0  0
  143.4602   77.9022  218.5517 H   0  0  0  0  0  0  0  0  0  0  0  0
  142.8103   77.2964  221.0170 H   0  0  0  0  0  0  0  0  0  0  0  0
  141.7185   79.2779  219.3921 H   0  0  0  0  0  0  0  0  0  0  0  0
  140.2950   78.4486  220.1775 H   0  0  0  0  0  0  0  0  0  0  0  0
  141.7249   77.6243  222.7068 H   0  0  0  0  0  0  0  0  0  0  0  0
  142.1169   78.9383  224.7878 H   0  0  0  0  0  0  0  0  0  0  0  0
  142.2121   81.4225  224.6762 H   0  0  0  0  0  0  0  0  0  0  0  0
  141.9106   82.5282  222.4953 H   0  0  0  0  0  0  0  0  0  0  0  0
  139.1027   69.6297  222.6292 H   0  0  0  0  0  0  0  0  0  0  0  0
  138.9921   68.4306  224.7959 H   0  0  0  0  0  0  0  0  0  0  0  0
  139.4452   68.3315  227.1800 H   0  0  0  0  0  0  0  0  0  0  0  0
  140.3749   69.3732  229.2576 H   0  0  0  0  0  0  0  0  0  0  0  0
  141.4120   71.6461  229.0815 H   0  0  0  0  0  0  0  0  0  0  0  0
  141.5159   72.8283  226.9120 H   0  0  0  0  0  0  0  0  0  0  0  0
  1  2  2  0
  2  3  1  0
  3  4  1  0
  4  5  1  0
  5  6  2  0
  5  7  1  0
  7  8  1  0
  8  9  1  0
  9 10  1  0
 10 11  1  0
 11 12  1  0
 12 13  1  0
 13 14  2  0
 14 15  1  0
 15 16  2  0
 16 17  1  0
 17 18  2  0
  2 19  1  0
 19 20  2  0
 20 21  1  0
 21 22  2  0
 22 23  1  0
 23 24  2  0
 24 25  1  0
 25 26  2  0
 26 27  1  0
 27 28  2  0
 11  7  1  0
 18 13  1  0
 28 19  1  0
 27 22  1  0
  3 29  1  0
  4 30  1  0
  4 31  1  0
  8 32  1  0
  8 33  1  0
  9 34  1  0
  9 35  1  0
 10 36  1  0
 10 37  1  0
 11 38  1  1
 12 39  1  0
 12 40  1  0
 14 41  1  0
 15 42  1  0
 16 43  1  0
 17 44  1  0
 20 45  1  0
 21 46  1  0
 23 47  1  0
 24 48  1  0
 25 49  1  0
 26 50  1  0
M  END
>  <smiles>  (70) 
O=C(NCC(=O)N1CCCC1Cc1ccccn1)c1ccc2ccccc2n1

>  <score_type>  (70) 
oracle

>  <origin>  (70) 
autodockgpu

>  <m_score__min__energy>  (70) 
-8.8800000000000008

>  <m_primary>  (70) 
energy

>  <rmsd>  (70) 
1.5297841583305833

>  <m_score__min__rmsd>  (70) 
1.5297841583305833

>  <meeko>  (70) 
{"free_energy": -8.72, "intermolecular_energy": -10.51, "internal_energy": -1.67, "cluster_size": 24, "cluster_id": 1, "rank_in_cluster": 5}

>  <energy>  (70) 
-8.4

>  <cluster_rmsd>  (70) 
1.86

>  <cluster>  (70) 
1

$$$$

     RDKit          3D

 50 53  0  0  0  0  0  0  0  0999 V2000
  141.3040   72.1080  221.6740 O   0  0  0  0  0  0  0  0  0  0  0  0
  140.3250   72.2990  222.4450 C   0  0  0  0  0  0  0  0  0  0  0  0
  139.3550   73.2970  222.1140 N   0  0  0  0  0  0  0  0  0  0  0  0
  139.4740   74.0950  220.9110 C   0  0  0  0  0  0  0  0  0  0  0  0
  140.4710   75.1540  221.1590 C   0  0  0  0  0  0  0  0  0  0  0  0
  140.8950   75.3940  222.3400 O   0  0  0  0  0  0  0  0  0  0  0  0
  141.0280   75.9710  220.1350 N   0  0  0  0  0  0  0  0  0  0  0  0
  140.5250   76.0030  218.7860 C   0  0  0  0  0  0  0  0  0  0  0  0
  141.6300   76.5780  217.9270 C   0  0  0  0  0  0  0  0  0  0  0  0
  142.8200   76.6140  218.8740 C   0  0  0  0  0  0  0  0  0  0  0  0
  142.1470   76.8940  220.2000 C   0  0  1  0  0  0  0  0  0  0  0  0
  141.5350   78.2780  220.2360 C   0  0  0  0  0  0  0  0  0  0  0  0
  141.7610   78.9850  221.5190 C   0  0  0  0  0  0  0  0  0  0  0  0
  142.2070   80.2870  221.5190 C   0  0  0  0  0  0  0  0  0  0  0  0
  142.4050   80.9070  222.7340 C   0  0  0  0  0  0  0  0  0  0  0  0
  142.1570   80.2290  223.9020 C   0  0  0  0  0  0  0  0  0  0  0  0
  141.7130   78.9290  223.8130 C   0  0  0  0  0  0  0  0  0  0  0  0
  141.5090   78.2890  222.6480 N   0  0  0  0  0  0  0  0  0  0  0  0
  140.1550   71.5230  223.6720 C   0  0  0  0  0  0  0  0  0  0  0  0
  139.4190   70.3420  223.6030 C   0  0  0  0  0  0  0  0  0  0  0  0
  139.2560   69.6060  224.7590 C   0  0  0  0  0  0  0  0  0  0  0  0
  139.7980   70.0070  225.9630 C   0  0  0  0  0  0  0  0  0  0  0  0
  139.6400   69.2770  227.1260 C   0  0  0  0  0  0  0  0  0  0  0  0
  140.1950   69.6930  228.3370 C   0  0  0  0  0  0  0  0  0  0  0  0
  140.9200   70.8830  228.3330 C   0  0  0  0  0  0  0  0  0  0  0  0
  141.0850   71.6250  227.1710 C   0  0  0  0  0  0  0  0  0  0  0  0
  140.5280   71.1970  225.9810 C   0  0  0  0  0  0  0  0  0  0  0  0
  140.6830   71.9090  224.8490 N   0  0  0  0  0  0  0  0  0  0  0  0
  138.5490   73.4210  222.7930 H   0  0  0  0  0  0  0  0  0  0  0  0
  139.8037   73.4613  220.0745 H   0  0  0  0  0  0  0  0  0  0  0  0
  138.5021   74.5403  220.6519 H   0  0  0  0  0  0  0  0  0  0  0  0
  140.2733   74.9861  218.4504 H   0  0  0  0  0  0  0  0  0  0  0  0
  139.6113   76.6116  218.7173 H   0  0  0  0  0  0  0  0  0  0  0  0
  141.8340   75.9312  217.0609 H   0  0  0  0  0  0  0  0  0  0  0  0
  141.3822   77.5638  217.5065 H   0  0  0  0  0  0  0  0  0  0  0  0
  143.3502   75.6503  218.8888 H   0  0  0  0  0  0  0  0  0  0  0  0
  143.5885   77.3512  218.5983 H   0  0  0  0  0  0  0  0  0  0  0  0
  142.8390   76.8053  221.0504 H   0  0  0  0  0  0  0  0  0  0  0  0
  141.9762   78.8762  219.4251 H   0  0  0  0  0  0  0  0  0  0  0  0
  140.4481   78.1572  220.1172 H   0  0  0  0  0  0  0  0  0  0  0  0
  142.4001   80.8182  220.5753 H   0  0  0  0  0  0  0  0  0  0  0  0
  142.7623   81.9468  222.7680 H   0  0  0  0  0  0  0  0  0  0  0  0
  142.3086   80.7102  224.8795 H   0  0  0  0  0  0  0  0  0  0  0  0
  141.5139   78.3832  224.7471 H   0  0  0  0  0  0  0  0  0  0  0  0
  138.9796   70.0052  222.6525 H   0  0  0  0  0  0  0  0  0  0  0  0
  138.6767   68.6718  224.7195 H   0  0  0  0  0  0  0  0  0  0  0  0
  139.0608   68.3423  227.0962 H   0  0  0  0  0  0  0  0  0  0  0  0
  140.0654   69.1051  229.2577 H   0  0  0  0  0  0  0  0  0  0  0  0
  141.3710   71.2420  229.2699 H   0  0  0  0  0  0  0  0  0  0  0  0
  141.6633   72.5603  227.1979 H   0  0  0  0  0  0  0  0  0  0  0  0
  1  2  2  0
  2  3  1  0
  3  4  1  0
  4  5  1  0
  5  6  2  0
  5  7  1  0
  7  8  1  0
  8  9  1  0
  9 10  1  0
 10 11  1  0
 11 12  1  0
 12 13  1  0
 13 14  2  0
 14 15  1  0
 15 16  2  0
 16 17  1  0
 17 18  2  0
  2 19  1  0
 19 20  2  0
 20 21  1  0
 21 22  2  0
 22 23  1  0
 23 24  2  0
 24 25  1  0
 25 26  2  0
 26 27  1  0
 27 28  2  0
 11  7  1  0
 18 13  1  0
 28 19  1  0
 27 22  1  0
  3 29  1  0
  4 30  1  0
  4 31  1  0
  8 32  1  0
  8 33  1  0
  9 34  1  0
  9 35  1  0
 10 36  1  0
 10 37  1  0
 11 38  1  1
 12 39  1  0
 12 40  1  0
 14 41  1  0
 15 42  1  0
 16 43  1  0
 17 44  1  0
 20 45  1  0
 21 46  1  0
 23 47  1  0
 24 48  1  0
 25 49  1  0
 26 50  1  0
M  END
>  <smiles>  (71) 
O=C(NCC(=O)N1CCCC1Cc1ccccn1)c1ccc2ccccc2n1

>  <score_type>  (71) 
oracle

>  <origin>  (71) 
autodockgpu

>  <m_score__min__energy>  (71) 
-8.8800000000000008

>  <m_primary>  (71) 
energy

>  <rmsd>  (71) 
1.5173876876352876

>  <m_score__min__rmsd>  (71) 
1.5173876876352876

>  <meeko>  (71) 
{"free_energy": -8.84, "intermolecular_energy": -10.63, "internal_energy": -1.28, "cluster_size": 24, "cluster_id": 1, "rank_in_cluster": 2}

>  <energy>  (71) 
-8.38

>  <cluster_rmsd>  (71) 
1.62

>  <cluster>  (71) 
1

$$$$

     RDKit          3D

 50 53  0  0  0  0  0  0  0  0999 V2000
  140.4370   71.2470  221.1710 O   0  0  0  0  0  0  0  0  0  0  0  0
  140.1550   71.8620  222.2340 C   0  0  0  0  0  0  0  0  0  0  0  0
  139.8670   73.2620  222.1800 N   0  0  0  0  0  0  0  0  0  0  0  0
  139.8920   73.9900  220.9280 C   0  0  0  0  0  0  0  0  0  0  0  0
  140.1870   75.4040  221.2240 C   0  0  0  0  0  0  0  0  0  0  0  0
  139.9020   75.9110  222.3620 O   0  0  0  0  0  0  0  0  0  0  0  0
  140.7960   76.2980  220.2980 N   0  0  0  0  0  0  0  0  0  0  0  0
  140.4550   76.3400  218.8980 C   0  0  0  0  0  0  0  0  0  0  0  0
  141.6050   77.0260  218.1950 C   0  0  0  0  0  0  0  0  0  0  0  0
  142.6680   77.1180  219.2790 C   0  0  0  0  0  0  0  0  0  0  0  0
  141.8230   77.2980  220.5210 C   0  0  1  0  0  0  0  0  0  0  0  0
  141.1040   78.6310  220.5200 C   0  0  0  0  0  0  0  0  0  0  0  0
  141.5080   79.5160  221.6370 C   0  0  0  0  0  0  0  0  0  0  0  0
  141.9340   78.9710  222.8270 C   0  0  0  0  0  0  0  0  0  0  0  0
  142.3010   79.8290  223.8410 C   0  0  0  0  0  0  0  0  0  0  0  0
  142.2380   81.1880  223.6510 C   0  0  0  0  0  0  0  0  0  0  0  0
  141.8010   81.6500  222.4300 C   0  0  0  0  0  0  0  0  0  0  0  0
  141.4340   80.8460  221.4160 N   0  0  0  0  0  0  0  0  0  0  0  0
  140.1160   71.1780  223.5250 C   0  0  0  0  0  0  0  0  0  0  0  0
  139.5710   69.8960  223.5700 C   0  0  0  0  0  0  0  0  0  0  0  0
  139.5320   69.2470  224.7870 C   0  0  0  0  0  0  0  0  0  0  0  0
  140.0130   69.8280  225.9420 C   0  0  0  0  0  0  0  0  0  0  0  0
  139.9780   69.1850  227.1650 C   0  0  0  0  0  0  0  0  0  0  0  0
  140.4690   69.7850  228.3260 C   0  0  0  0  0  0  0  0  0  0  0  0
  141.0010   71.0670  228.2070 C   0  0  0  0  0  0  0  0  0  0  0  0
  141.0410   71.7230  226.9840 C   0  0  0  0  0  0  0  0  0  0  0  0
  140.5500   71.1140  225.8460 C   0  0  0  0  0  0  0  0  0  0  0  0
  140.5850   71.7400  224.6550 N   0  0  0  0  0  0  0  0  0  0  0  0
  139.6370   73.7370  223.1000 H   0  0  0  0  0  0  0  0  0  0  0  0
  140.6720   73.5762  220.2720 H   0  0  0  0  0  0  0  0  0  0  0  0
  138.9213   73.9027  220.4179 H   0  0  0  0  0  0  0  0  0  0  0  0
  140.3257   75.3197  218.5078 H   0  0  0  0  0  0  0  0  0  0  0  0
  139.5107   76.8802  218.7351 H   0  0  0  0  0  0  0  0  0  0  0  0
  141.9605   76.4274  217.3434 H   0  0  0  0  0  0  0  0  0  0  0  0
  141.3317   78.0048  217.7739 H   0  0  0  0  0  0  0  0  0  0  0  0
  143.2678   76.1975  219.3318 H   0  0  0  0  0  0  0  0  0  0  0  0
  143.4025   77.9208  219.1178 H   0  0  0  0  0  0  0  0  0  0  0  0
  142.4148   77.2299  221.4457 H   0  0  0  0  0  0  0  0  0  0  0  0
  141.3216   79.1443  219.5717 H   0  0  0  0  0  0  0  0  0  0  0  0
  140.0309   78.4222  220.6418 H   0  0  0  0  0  0  0  0  0  0  0  0
  141.9802   77.8806  222.9648 H   0  0  0  0  0  0  0  0  0  0  0  0
  142.6451   79.4248  224.8045 H   0  0  0  0  0  0  0  0  0  0  0  0
  142.5280   81.8860  224.4502 H   0  0  0  0  0  0  0  0  0  0  0  0
  141.7490   82.7378  222.2749 H   0  0  0  0  0  0  0  0  0  0  0  0
  139.1826   69.4148  222.6603 H   0  0  0  0  0  0  0  0  0  0  0  0
  139.1041   68.2349  224.8378 H   0  0  0  0  0  0  0  0  0  0  0  0
  139.5516   68.1728  227.2252 H   0  0  0  0  0  0  0  0  0  0  0  0
  140.4371   69.2664  229.2956 H   0  0  0  0  0  0  0  0  0  0  0  0
  141.3978   71.5703  229.1010 H   0  0  0  0  0  0  0  0  0  0  0  0
  141.4669   72.7352  226.9211 H   0  0  0  0  0  0  0  0  0  0  0  0
  1  2  2  0
  2  3  1  0
  3  4  1  0
  4  5  1  0
  5  6  2  0
  5  7  1  0
  7  8  1  0
  8  9  1  0
  9 10  1  0
 10 11  1  0
 11 12  1  0
 12 13  1  0
 13 14  2  0
 14 15  1  0
 15 16  2  0
 16 17  1  0
 17 18  2  0
  2 19  1  0
 19 20  2  0
 20 21  1  0
 21 22  2  0
 22 23  1  0
 23 24  2  0
 24 25  1  0
 25 26  2  0
 26 27  1  0
 27 28  2  0
 11  7  1  0
 18 13  1  0
 28 19  1  0
 27 22  1  0
  3 29  1  0
  4 30  1  0
  4 31  1  0
  8 32  1  0
  8 33  1  0
  9 34  1  0
  9 35  1  0
 10 36  1  0
 10 37  1  0
 11 38  1  1
 12 39  1  0
 12 40  1  0
 14 41  1  0
 15 42  1  0
 16 43  1  0
 17 44  1  0
 20 45  1  0
 21 46  1  0
 23 47  1  0
 24 48  1  0
 25 49  1  0
 26 50  1  0
M  END
>  <smiles>  (72) 
O=C(NCC(=O)N1CCCC1Cc1ccccn1)c1ccc2ccccc2n1

>  <score_type>  (72) 
oracle

>  <origin>  (72) 
autodockgpu

>  <m_score__min__energy>  (72) 
-8.8800000000000008

>  <m_primary>  (72) 
energy

>  <rmsd>  (72) 
1.5138931150127704

>  <m_score__min__rmsd>  (72) 
1.5138931150127704

>  <meeko>  (72) 
{"free_energy": -8.71, "intermolecular_energy": -10.5, "internal_energy": -1.77, "cluster_size": 24, "cluster_id": 1, "rank_in_cluster": 6}

>  <energy>  (72) 
-8.16

>  <cluster_rmsd>  (72) 
0.81

>  <cluster>  (72) 
1

$$$$

     RDKit          3D

 50 53  0  0  0  0  0  0  0  0999 V2000
  137.2020   76.1800  222.3150 O   0  0  0  0  0  0  0  0  0  0  0  0
  138.4550   76.3000  222.3850 C   0  0  0  0  0  0  0  0  0  0  0  0
  139.2830   75.1540  222.1680 N   0  0  0  0  0  0  0  0  0  0  0  0
  138.7130   73.8560  221.8700 C   0  0  0  0  0  0  0  0  0  0  0  0
  139.6590   72.8230  222.3320 C   0  0  0  0  0  0  0  0  0  0  0  0
  140.9010   73.0850  222.4770 O   0  0  0  0  0  0  0  0  0  0  0  0
  139.2810   71.4860  222.6440 N   0  0  0  0  0  0  0  0  0  0  0  0
  139.3580   70.4000  221.7000 C   0  0  0  0  0  0  0  0  0  0  0  0
  138.4480   69.3100  222.2230 C   0  0  0  0  0  0  0  0  0  0  0  0
  137.7110   69.9920  223.3650 C   0  0  0  0  0  0  0  0  0  0  0  0
  138.7680   70.9410  223.8870 C   0  0  1  0  0  0  0  0  0  0  0  0
  139.9260   70.1960  224.5170 C   0  0  0  0  0  0  0  0  0  0  0  0
  140.2950   70.7110  225.8570 C   0  0  0  0  0  0  0  0  0  0  0  0
  141.0510   71.8550  225.9700 C   0  0  0  0  0  0  0  0  0  0  0  0
  141.3720   72.3010  227.2340 C   0  0  0  0  0  0  0  0  0  0  0  0
  140.9400   71.6090  228.3390 C   0  0  0  0  0  0  0  0  0  0  0  0
  140.1870   70.4740  228.1380 C   0  0  0  0  0  0  0  0  0  0  0  0
  139.8530   70.0070  226.9210 N   0  0  0  0  0  0  0  0  0  0  0  0
  139.0840   77.5860  222.6830 C   0  0  0  0  0  0  0  0  0  0  0  0
  138.2550   78.6710  222.9590 C   0  0  0  0  0  0  0  0  0  0  0  0
  138.8440   79.8870  223.2410 C   0  0  0  0  0  0  0  0  0  0  0  0
  140.2140   80.0490  223.2560 C   0  0  0  0  0  0  0  0  0  0  0  0
  140.8130   81.2620  223.5370 C   0  0  0  0  0  0  0  0  0  0  0  0
  142.2010   81.4130  223.5490 C   0  0  0  0  0  0  0  0  0  0  0  0
  142.9680   80.2850  223.2650 C   0  0  0  0  0  0  0  0  0  0  0  0
  142.3780   79.0610  222.9810 C   0  0  0  0  0  0  0  0  0  0  0  0
  141.0030   78.9310  222.9730 C   0  0  0  0  0  0  0  0  0  0  0  0
  140.4200   77.7490  222.7000 N   0  0  0  0  0  0  0  0  0  0  0  0
  140.3310   75.3050  222.2380 H   0  0  0  0  0  0  0  0  0  0  0  0
  137.7519   73.7420  222.3927 H   0  0  0  0  0  0  0  0  0  0  0  0
  138.5378   73.7560  220.7887 H   0  0  0  0  0  0  0  0  0  0  0  0
  139.0195   70.7341  220.7081 H   0  0  0  0  0  0  0  0  0  0  0  0
  140.3913   70.0382  221.5937 H   0  0  0  0  0  0  0  0  0  0  0  0
  137.7464   68.9747  221.4450 H   0  0  0  0  0  0  0  0  0  0  0  0
  138.9923   68.4076  222.5383 H   0  0  0  0  0  0  0  0  0  0  0  0
  136.8264   70.5365  223.0032 H   0  0  0  0  0  0  0  0  0  0  0  0
  137.3202   69.2973  224.1231 H   0  0  0  0  0  0  0  0  0  0  0  0
  138.3699   71.6459  224.6318 H   0  0  0  0  0  0  0  0  0  0  0  0
  139.6476   69.1363  224.6147 H   0  0  0  0  0  0  0  0  0  0  0  0
  140.7987   70.3366  223.8623 H   0  0  0  0  0  0  0  0  0  0  0  0
  141.3900   72.3988  225.0759 H   0  0  0  0  0  0  0  0  0  0  0  0
  141.9751   73.2125  227.3580 H   0  0  0  0  0  0  0  0  0  0  0  0
  141.1883   71.9514  229.3544 H   0  0  0  0  0  0  0  0  0  0  0  0
  139.8391   69.9182  229.0212 H   0  0  0  0  0  0  0  0  0  0  0  0
  137.1605   78.5616  222.9524 H   0  0  0  0  0  0  0  0  0  0  0  0
  138.2019   80.7528  223.4603 H   0  0  0  0  0  0  0  0  0  0  0  0
  140.1786   82.1332  223.7574 H   0  0  0  0  0  0  0  0  0  0  0  0
  142.6697   82.3825  223.7734 H   0  0  0  0  0  0  0  0  0  0  0  0
  144.0650   80.3662  223.2659 H   0  0  0  0  0  0  0  0  0  0  0  0
  143.0102   78.1882  222.7607 H   0  0  0  0  0  0  0  0  0  0  0  0
  1  2  2  0
  2  3  1  0
  3  4  1  0
  4  5  1  0
  5  6  2  0
  5  7  1  0
  7  8  1  0
  8  9  1  0
  9 10  1  0
 10 11  1  0
 11 12  1  0
 12 13  1  0
 13 14  2  0
 14 15  1  0
 15 16  2  0
 16 17  1  0
 17 18  2  0
  2 19  1  0
 19 20  2  0
 20 21  1  0
 21 22  2  0
 22 23  1  0
 23 24  2  0
 24 25  1  0
 25 26  2  0
 26 27  1  0
 27 28  2  0
 11  7  1  0
 18 13  1  0
 28 19  1  0
 27 22  1  0
  3 29  1  0
  4 30  1  0
  4 31  1  0
  8 32  1  0
  8 33  1  0
  9 34  1  0
  9 35  1  0
 10 36  1  0
 10 37  1  0
 11 38  1  1
 12 39  1  0
 12 40  1  0
 14 41  1  0
 15 42  1  0
 16 43  1  0
 17 44  1  0
 20 45  1  0
 21 46  1  0
 23 47  1  0
 24 48  1  0
 25 49  1  0
 26 50  1  0
M  END
>  <smiles>  (73) 
O=C(NCC(=O)N1CCCC1Cc1ccccn1)c1ccc2ccccc2n1

>  <score_type>  (73) 
oracle

>  <origin>  (73) 
autodockgpu

>  <m_score__min__energy>  (73) 
-8.8800000000000008

>  <m_primary>  (73) 
energy

>  <rmsd>  (73) 
8.406070700178894

>  <m_score__min__rmsd>  (73) 
8.406070700178894

>  <meeko>  (73) 
{"free_energy": -8.5, "intermolecular_energy": -10.29, "internal_energy": -1.98, "cluster_size": 13, "cluster_id": 2, "rank_in_cluster": 6}

>  <energy>  (73) 
-8.15

>  <cluster_rmsd>  (73) 
1.57

>  <cluster>  (73) 
1

$$$$

     RDKit          3D

 50 53  0  0  0  0  0  0  0  0999 V2000
  137.3830   76.1090  222.2650 O   0  0  0  0  0  0  0  0  0  0  0  0
  138.6320   76.2460  222.3660 C   0  0  0  0  0  0  0  0  0  0  0  0
  139.4830   75.1210  222.1290 N   0  0  0  0  0  0  0  0  0  0  0  0
  138.9400   73.8260  221.7750 C   0  0  0  0  0  0  0  0  0  0  0  0
  139.8230   72.7880  222.3410 C   0  0  0  0  0  0  0  0  0  0  0  0
  141.0550   73.0300  222.5780 O   0  0  0  0  0  0  0  0  0  0  0  0
  139.3920   71.4690  222.6600 N   0  0  0  0  0  0  0  0  0  0  0  0
  139.4280   70.3760  221.7210 C   0  0  0  0  0  0  0  0  0  0  0  0
  138.4750   69.3250  222.2490 C   0  0  0  0  0  0  0  0  0  0  0  0
  137.7630   70.0420  223.3860 C   0  0  0  0  0  0  0  0  0  0  0  0
  138.8560   70.9510  223.9050 C   0  0  1  0  0  0  0  0  0  0  0  0
  139.9820   70.1650  224.5410 C   0  0  0  0  0  0  0  0  0  0  0  0
  140.3700   70.6730  225.8780 C   0  0  0  0  0  0  0  0  0  0  0  0
  141.1150   71.8240  225.9870 C   0  0  0  0  0  0  0  0  0  0  0  0
  141.4540   72.2630  227.2490 C   0  0  0  0  0  0  0  0  0  0  0  0
  141.0490   71.5580  228.3560 C   0  0  0  0  0  0  0  0  0  0  0  0
  140.3050   70.4160  228.1580 C   0  0  0  0  0  0  0  0  0  0  0  0
  139.9550   69.9550  226.9440 N   0  0  0  0  0  0  0  0  0  0  0  0
  139.2340   77.5310  222.7210 C   0  0  0  0  0  0  0  0  0  0  0  0
  138.3820   78.5820  223.0530 C   0  0  0  0  0  0  0  0  0  0  0  0
  138.9450   79.7970  223.3880 C   0  0  0  0  0  0  0  0  0  0  0  0
  140.3110   79.9890  223.4040 C   0  0  0  0  0  0  0  0  0  0  0  0
  140.8850   81.2010  223.7380 C   0  0  0  0  0  0  0  0  0  0  0  0
  142.2690   81.3830  223.7500 C   0  0  0  0  0  0  0  0  0  0  0  0
  143.0600   80.2880  223.4080 C   0  0  0  0  0  0  0  0  0  0  0  0
  142.4950   79.0650  223.0700 C   0  0  0  0  0  0  0  0  0  0  0  0
  141.1230   78.9050  223.0630 C   0  0  0  0  0  0  0  0  0  0  0  0
  140.5660   77.7230  222.7380 N   0  0  0  0  0  0  0  0  0  0  0  0
  140.5260   75.2850  222.2270 H   0  0  0  0  0  0  0  0  0  0  0  0
  137.9268   73.7205  222.1901 H   0  0  0  0  0  0  0  0  0  0  0  0
  138.8831   73.7228  220.6813 H   0  0  0  0  0  0  0  0  0  0  0  0
  139.1039   70.7180  220.7270 H   0  0  0  0  0  0  0  0  0  0  0  0
  140.4465   69.9737  221.6173 H   0  0  0  0  0  0  0  0  0  0  0  0
  137.7621   69.0127  221.4717 H   0  0  0  0  0  0  0  0  0  0  0  0
  138.9833   68.4040  222.5707 H   0  0  0  0  0  0  0  0  0  0  0  0
  136.9014   70.6192  223.0193 H   0  0  0  0  0  0  0  0  0  0  0  0
  137.3433   69.3676  224.1469 H   0  0  0  0  0  0  0  0  0  0  0  0
  138.4849   71.6748  224.6455 H   0  0  0  0  0  0  0  0  0  0  0  0
  139.6614   69.1179  224.6450 H   0  0  0  0  0  0  0  0  0  0  0  0
  140.8603   70.2669  223.8866 H   0  0  0  0  0  0  0  0  0  0  0  0
  141.4317   72.3790  225.0916 H   0  0  0  0  0  0  0  0  0  0  0  0
  142.0500   73.1797  227.3697 H   0  0  0  0  0  0  0  0  0  0  0  0
  141.3109   71.8952  229.3698 H   0  0  0  0  0  0  0  0  0  0  0  0
  139.9787   69.8491  229.0424 H   0  0  0  0  0  0  0  0  0  0  0  0
  137.2903   78.4473  223.0483 H   0  0  0  0  0  0  0  0  0  0  0  0
  138.2849   80.6370  223.6500 H   0  0  0  0  0  0  0  0  0  0  0  0
  140.2326   82.0464  224.0019 H   0  0  0  0  0  0  0  0  0  0  0  0
  142.7168   82.3512  224.0184 H   0  0  0  0  0  0  0  0  0  0  0  0
  144.1548   80.3944  223.4057 H   0  0  0  0  0  0  0  0  0  0  0  0
  143.1449   78.2177  222.8060 H   0  0  0  0  0  0  0  0  0  0  0  0
  1  2  2  0
  2  3  1  0
  3  4  1  0
  4  5  1  0
  5  6  2  0
  5  7  1  0
  7  8  1  0
  8  9  1  0
  9 10  1  0
 10 11  1  0
 11 12  1  0
 12 13  1  0
 13 14  2  0
 14 15  1  0
 15 16  2  0
 16 17  1  0
 17 18  2  0
  2 19  1  0
 19 20  2  0
 20 21  1  0
 21 22  2  0
 22 23  1  0
 23 24  2  0
 24 25  1  0
 25 26  2  0
 26 27  1  0
 27 28  2  0
 11  7  1  0
 18 13  1  0
 28 19  1  0
 27 22  1  0
  3 29  1  0
  4 30  1  0
  4 31  1  0
  8 32  1  0
  8 33  1  0
  9 34  1  0
  9 35  1  0
 10 36  1  0
 10 37  1  0
 11 38  1  1
 12 39  1  0
 12 40  1  0
 14 41  1  0
 15 42  1  0
 16 43  1  0
 17 44  1  0
 20 45  1  0
 21 46  1  0
 23 47  1  0
 24 48  1  0
 25 49  1  0
 26 50  1  0
M  END
>  <smiles>  (74) 
O=C(NCC(=O)N1CCCC1Cc1ccccn1)c1ccc2ccccc2n1

>  <score_type>  (74) 
oracle

>  <origin>  (74) 
autodockgpu

>  <m_score__min__energy>  (74) 
-8.8800000000000008

>  <m_primary>  (74) 
energy

>  <rmsd>  (74) 
8.361450032715315

>  <m_score__min__rmsd>  (74) 
8.361450032715315

>  <meeko>  (74) 
{"free_energy": -8.51, "intermolecular_energy": -10.3, "internal_energy": -1.94, "cluster_size": 13, "cluster_id": 2, "rank_in_cluster": 5}

>  <energy>  (74) 
-8.12

>  <cluster_rmsd>  (74) 
1.86

>  <cluster>  (74) 
1

$$$$

     RDKit          3D

 50 53  0  0  0  0  0  0  0  0999 V2000
  140.8490   71.4610  221.2770 O   0  0  0  0  0  0  0  0  0  0  0  0
  140.3860   72.0360  222.2980 C   0  0  0  0  0  0  0  0  0  0  0  0
  140.0070   73.4130  222.2170 N   0  0  0  0  0  0  0  0  0  0  0  0
  140.1440   74.1620  220.9850 C   0  0  0  0  0  0  0  0  0  0  0  0
  140.4260   75.5680  221.3310 C   0  0  0  0  0  0  0  0  0  0  0  0
  139.9740   76.0830  222.4090 O   0  0  0  0  0  0  0  0  0  0  0  0
  141.2000   76.4440  220.5180 N   0  0  0  0  0  0  0  0  0  0  0  0
  141.3790   77.8440  220.8090 C   0  0  0  0  0  0  0  0  0  0  0  0
  141.8220   78.4990  219.5190 C   0  0  0  0  0  0  0  0  0  0  0  0
  141.6260   77.3980  218.4870 C   0  0  0  0  0  0  0  0  0  0  0  0
  141.9360   76.1600  219.3000 C   0  0  1  0  0  0  0  0  0  0  0  0
  143.3940   76.1070  219.7040 C   0  0  0  0  0  0  0  0  0  0  0  0
  143.8620   74.7390  220.0310 C   0  0  0  0  0  0  0  0  0  0  0  0
  145.1410   74.5420  220.4970 C   0  0  0  0  0  0  0  0  0  0  0  0
  145.5360   73.2540  220.7900 C   0  0  0  0  0  0  0  0  0  0  0  0
  144.6630   72.2090  220.6150 C   0  0  0  0  0  0  0  0  0  0  0  0
  143.4000   72.4930  220.1440 C   0  0  0  0  0  0  0  0  0  0  0  0
  142.9770   73.7350  219.8480 N   0  0  0  0  0  0  0  0  0  0  0  0
  140.2270   71.3290  223.5680 C   0  0  0  0  0  0  0  0  0  0  0  0
  139.5730   70.0990  223.5540 C   0  0  0  0  0  0  0  0  0  0  0  0
  139.4200   69.4280  224.7510 C   0  0  0  0  0  0  0  0  0  0  0  0
  139.8940   69.9400  225.9410 C   0  0  0  0  0  0  0  0  0  0  0  0
  139.7450   69.2750  227.1440 C   0  0  0  0  0  0  0  0  0  0  0  0
  140.2300   69.8040  228.3420 C   0  0  0  0  0  0  0  0  0  0  0  0
  140.8740   71.0380  228.2810 C   0  0  0  0  0  0  0  0  0  0  0  0
  141.0290   71.7150  227.0790 C   0  0  0  0  0  0  0  0  0  0  0  0
  140.5430   71.1760  225.9040 C   0  0  0  0  0  0  0  0  0  0  0  0
  140.6880   71.8240  224.7320 N   0  0  0  0  0  0  0  0  0  0  0  0
  139.6240   73.8550  223.1030 H   0  0  0  0  0  0  0  0  0  0  0  0
  140.9727   73.7514  220.3895 H   0  0  0  0  0  0  0  0  0  0  0  0
  139.2192   74.0938  220.3933 H   0  0  0  0  0  0  0  0  0  0  0  0
  140.4316   78.2846  221.1528 H   0  0  0  0  0  0  0  0  0  0  0  0
  142.1229   77.9922  221.6057 H   0  0  0  0  0  0  0  0  0  0  0  0
  141.1977   79.3742  219.2860 H   0  0  0  0  0  0  0  0  0  0  0  0
  142.8548   78.8757  219.5581 H   0  0  0  0  0  0  0  0  0  0  0  0
  140.5932   77.3816  218.1088 H   0  0  0  0  0  0  0  0  0  0  0  0
  142.2501   77.5109  217.5882 H   0  0  0  0  0  0  0  0  0  0  0  0
  141.6979   75.2315  218.7604 H   0  0  0  0  0  0  0  0  0  0  0  0
  144.0011   76.4943  218.8725 H   0  0  0  0  0  0  0  0  0  0  0  0
  143.5024   76.7149  220.6143 H   0  0  0  0  0  0  0  0  0  0  0  0
  145.8299   75.3889  220.6322 H   0  0  0  0  0  0  0  0  0  0  0  0
  146.5525   73.0633  221.1647 H   0  0  0  0  0  0  0  0  0  0  0  0
  144.9631   71.1758  220.8441 H   0  0  0  0  0  0  0  0  0  0  0  0
  142.6985   71.6577  220.0021 H   0  0  0  0  0  0  0  0  0  0  0  0
  139.1890   69.6740  222.6149 H   0  0  0  0  0  0  0  0  0  0  0  0
  138.9048   68.4561  224.7559 H   0  0  0  0  0  0  0  0  0  0  0  0
  139.2305   68.3029  227.1578 H   0  0  0  0  0  0  0  0  0  0  0  0
  140.1085   69.2682  229.2950 H   0  0  0  0  0  0  0  0  0  0  0  0
  141.2681   71.4855  229.2053 H   0  0  0  0  0  0  0  0  0  0  0  0
  141.5426   72.6876  227.0623 H   0  0  0  0  0  0  0  0  0  0  0  0
  1  2  2  0
  2  3  1  0
  3  4  1  0
  4  5  1  0
  5  6  2  0
  5  7  1  0
  7  8  1  0
  8  9  1  0
  9 10  1  0
 10 11  1  0
 11 12  1  0
 12 13  1  0
 13 14  2  0
 14 15  1  0
 15 16  2  0
 16 17  1  0
 17 18  2  0
  2 19  1  0
 19 20  2  0
 20 21  1  0
 21 22  2  0
 22 23  1  0
 23 24  2  0
 24 25  1  0
 25 26  2  0
 26 27  1  0
 27 28  2  0
 11  7  1  0
 18 13  1  0
 28 19  1  0
 27 22  1  0
  3 29  1  0
  4 30  1  0
  4 31  1  0
  8 32  1  0
  8 33  1  0
  9 34  1  0
  9 35  1  0
 10 36  1  0
 10 37  1  0
 11 38  1  6
 12 39  1  0
 12 40  1  0
 14 41  1  0
 15 42  1  0
 16 43  1  0
 17 44  1  0
 20 45  1  0
 21 46  1  0
 23 47  1  0
 24 48  1  0
 25 49  1  0
 26 50  1  0
M  END
>  <smiles>  (75) 
O=C(NCC(=O)N1CCCC1Cc1ccccn1)c1ccc2ccccc2n1

>  <score_type>  (75) 
oracle

>  <origin>  (75) 
autodockgpu

>  <m_score__min__energy>  (75) 
-8.8800000000000008

>  <m_primary>  (75) 
energy

>  <rmsd>  (75) 
2.193554996256346

>  <m_score__min__rmsd>  (75) 
2.193554996256346

>  <meeko>  (75) 
{"free_energy": -8.45, "intermolecular_energy": -10.24, "internal_energy": -2.05, "cluster_size": 9, "cluster_id": 3, "rank_in_cluster": 3}

>  <energy>  (75) 
-8.63

>  <cluster_rmsd>  (75) 
0.0

>  <cluster>  (75) 
2

$$$$

     RDKit          3D

 50 53  0  0  0  0  0  0  0  0999 V2000
  137.3620   76.0540  222.3850 O   0  0  0  0  0  0  0  0  0  0  0  0
  138.6120   76.2130  222.4240 C   0  0  0  0  0  0  0  0  0  0  0  0
  139.4700   75.0930  222.1930 N   0  0  0  0  0  0  0  0  0  0  0  0
  138.9340   73.7760  221.9150 C   0  0  0  0  0  0  0  0  0  0  0  0
  139.9590   72.7780  222.2750 C   0  0  0  0  0  0  0  0  0  0  0  0
  141.1980   72.9980  222.0540 O   0  0  0  0  0  0  0  0  0  0  0  0
  139.6640   71.5230  222.8800 N   0  0  0  0  0  0  0  0  0  0  0  0
  139.5150   70.3000  222.1330 C   0  0  0  0  0  0  0  0  0  0  0  0
  138.7540   69.3420  223.0240 C   0  0  0  0  0  0  0  0  0  0  0  0
  138.3080   70.2250  224.1800 C   0  0  0  0  0  0  0  0  0  0  0  0
  139.4590   71.2010  224.2800 C   0  0  1  0  0  0  0  0  0  0  0  0
  140.7320   70.5200  224.7360 C   0  0  0  0  0  0  0  0  0  0  0  0
  140.5880   69.8160  226.0320 C   0  0  0  0  0  0  0  0  0  0  0  0
  140.3340   70.5320  227.1790 C   0  0  0  0  0  0  0  0  0  0  0  0
  140.2070   69.8380  228.3640 C   0  0  0  0  0  0  0  0  0  0  0  0
  140.3340   68.4710  228.3790 C   0  0  0  0  0  0  0  0  0  0  0  0
  140.5890   67.8320  227.1860 C   0  0  0  0  0  0  0  0  0  0  0  0
  140.7190   68.4720  226.0110 N   0  0  0  0  0  0  0  0  0  0  0  0
  139.2070   77.5200  222.7020 C   0  0  0  0  0  0  0  0  0  0  0  0
  138.3500   78.5930  222.9330 C   0  0  0  0  0  0  0  0  0  0  0  0
  138.9070   79.8280  223.1950 C   0  0  0  0  0  0  0  0  0  0  0  0
  140.2730   80.0200  223.2330 C   0  0  0  0  0  0  0  0  0  0  0  0
  140.8400   81.2530  223.4940 C   0  0  0  0  0  0  0  0  0  0  0  0
  142.2240   81.4340  223.5300 C   0  0  0  0  0  0  0  0  0  0  0  0
  143.0210   80.3160  223.2900 C   0  0  0  0  0  0  0  0  0  0  0  0
  142.4620   79.0730  223.0260 C   0  0  0  0  0  0  0  0  0  0  0  0
  141.0910   78.9130  222.9950 C   0  0  0  0  0  0  0  0  0  0  0  0
  140.5390   77.7120  222.7400 N   0  0  0  0  0  0  0  0  0  0  0  0
  140.5140   75.2760  222.2380 H   0  0  0  0  0  0  0  0  0  0  0  0
  138.0256   73.6095  222.5126 H   0  0  0  0  0  0  0  0  0  0  0  0
  138.6741   73.6877  220.8498 H   0  0  0  0  0  0  0  0  0  0  0  0
  138.9515   70.4867  221.2069 H   0  0  0  0  0  0  0  0  0  0  0  0
  140.4936   69.8862  221.8483 H   0  0  0  0  0  0  0  0  0  0  0  0
  137.8882   68.9153  222.4963 H   0  0  0  0  0  0  0  0  0  0  0  0
  139.3569   68.4802  223.3462 H   0  0  0  0  0  0  0  0  0  0  0  0
  137.3638   70.7403  223.9502 H   0  0  0  0  0  0  0  0  0  0  0  0
  138.1061   69.6748  225.1109 H   0  0  0  0  0  0  0  0  0  0  0  0
  139.2493   72.0296  224.9724 H   0  0  0  0  0  0  0  0  0  0  0  0
  141.0290   69.7869  223.9715 H   0  0  0  0  0  0  0  0  0  0  0  0
  141.4901   71.3050  224.8740 H   0  0  0  0  0  0  0  0  0  0  0  0
  140.2350   71.6272  227.1517 H   0  0  0  0  0  0  0  0  0  0  0  0
  140.0036   70.3807  229.2989 H   0  0  0  0  0  0  0  0  0  0  0  0
  140.2350   67.9032  229.3159 H   0  0  0  0  0  0  0  0  0  0  0  0
  140.6921   66.7369  227.1951 H   0  0  0  0  0  0  0  0  0  0  0  0
  137.2584   78.4597  222.9073 H   0  0  0  0  0  0  0  0  0  0  0  0
  138.2424   80.6850  223.3791 H   0  0  0  0  0  0  0  0  0  0  0  0
  140.1828   82.1156  223.6785 H   0  0  0  0  0  0  0  0  0  0  0  0
  142.6673   82.4187  223.7392 H   0  0  0  0  0  0  0  0  0  0  0  0
  144.1158   80.4208  223.3102 H   0  0  0  0  0  0  0  0  0  0  0  0
  143.1166   78.2087  222.8401 H   0  0  0  0  0  0  0  0  0  0  0  0
  1  2  2  0
  2  3  1  0
  3  4  1  0
  4  5  1  0
  5  6  2  0
  5  7  1  0
  7  8  1  0
  8  9  1  0
  9 10  1  0
 10 11  1  0
 11 12  1  0
 12 13  1  0
 13 14  2  0
 14 15  1  0
 15 16  2  0
 16 17  1  0
 17 18  2  0
  2 19  1  0
 19 20  2  0
 20 21  1  0
 21 22  2  0
 22 23  1  0
 23 24  2  0
 24 25  1  0
 25 26  2  0
 26 27  1  0
 27 28  2  0
 11  7  1  0
 18 13  1  0
 28 19  1  0
 27 22  1  0
  3 29  1  0
  4 30  1  0
  4 31  1  0
  8 32  1  0
  8 33  1  0
  9 34  1  0
  9 35  1  0
 10 36  1  0
 10 37  1  0
 11 38  1  1
 12 39  1  0
 12 40  1  0
 14 41  1  0
 15 42  1  0
 16 43  1  0
 17 44  1  0
 20 45  1  0
 21 46  1  0
 23 47  1  0
 24 48  1  0
 25 49  1  0
 26 50  1  0
M  END
>  <smiles>  (76) 
O=C(NCC(=O)N1CCCC1Cc1ccccn1)c1ccc2ccccc2n1

>  <score_type>  (76) 
oracle

>  <origin>  (76) 
autodockgpu

>  <m_score__min__energy>  (76) 
-8.8800000000000008

>  <m_primary>  (76) 
energy

>  <rmsd>  (76) 
8.43834132821796

>  <m_score__min__rmsd>  (76) 
8.43834132821796

>  <meeko>  (76) 
{"free_energy": -8.28, "intermolecular_energy": -10.07, "internal_energy": -1.84, "cluster_size": 13, "cluster_id": 2, "rank_in_cluster": 11}

>  <energy>  (76) 
-8.61

>  <cluster_rmsd>  (76) 
0.27

>  <cluster>  (76) 
2

$$$$

     RDKit          3D

 50 53  0  0  0  0  0  0  0  0999 V2000
  139.4790   70.8670  221.2450 O   0  0  0  0  0  0  0  0  0  0  0  0
  139.6280   71.4930  222.3290 C   0  0  0  0  0  0  0  0  0  0  0  0
  139.6820   72.9220  222.3120 N   0  0  0  0  0  0  0  0  0  0  0  0
  139.5700   73.6680  221.0750 C   0  0  0  0  0  0  0  0  0  0  0  0
  140.0410   75.0440  221.3240 C   0  0  0  0  0  0  0  0  0  0  0  0
  139.8840   75.5960  222.4650 O   0  0  0  0  0  0  0  0  0  0  0  0
  140.6890   75.8480  220.3440 N   0  0  0  0  0  0  0  0  0  0  0  0
  140.2670   75.9110  218.9670 C   0  0  0  0  0  0  0  0  0  0  0  0
  141.4430   76.4500  218.1810 C   0  0  0  0  0  0  0  0  0  0  0  0
  142.5750   76.4320  219.1970 C   0  0  0  0  0  0  0  0  0  0  0  0
  141.8360   76.7260  220.4840 C   0  0  1  0  0  0  0  0  0  0  0  0
  141.2760   78.1330  220.4990 C   0  0  0  0  0  0  0  0  0  0  0  0
  141.6710   78.9070  221.6990 C   0  0  0  0  0  0  0  0  0  0  0  0
  142.2180   80.1620  221.5600 C   0  0  0  0  0  0  0  0  0  0  0  0
  142.5710   80.8490  222.7010 C   0  0  0  0  0  0  0  0  0  0  0  0
  142.3760   80.2800  223.9360 C   0  0  0  0  0  0  0  0  0  0  0  0
  141.8220   79.0200  223.9870 C   0  0  0  0  0  0  0  0  0  0  0  0
  141.4650   78.3180  222.8970 N   0  0  0  0  0  0  0  0  0  0  0  0
  139.7470   70.7920  223.6060 C   0  0  0  0  0  0  0  0  0  0  0  0
  139.3260   69.4650  223.6650 C   0  0  0  0  0  0  0  0  0  0  0  0
  139.4360   68.7990  224.8690 C   0  0  0  0  0  0  0  0  0  0  0  0
  139.9480   69.4080  225.9970 C   0  0  0  0  0  0  0  0  0  0  0  0
  140.0620   68.7490  227.2070 C   0  0  0  0  0  0  0  0  0  0  0  0
  140.5820   69.3770  228.3400 C   0  0  0  0  0  0  0  0  0  0  0  0
  140.9850   70.7040  228.2080 C   0  0  0  0  0  0  0  0  0  0  0  0
  140.8740   71.3760  226.9980 C   0  0  0  0  0  0  0  0  0  0  0  0
  140.3570   70.7390  225.8870 C   0  0  0  0  0  0  0  0  0  0  0  0
  140.2460   71.3810  224.7090 N   0  0  0  0  0  0  0  0  0  0  0  0
  139.8100   73.4040  223.2490 H   0  0  0  0  0  0  0  0  0  0  0  0
  140.1900   73.1967  220.2982 H   0  0  0  0  0  0  0  0  0  0  0  0
  138.5253   73.6797  220.7308 H   0  0  0  0  0  0  0  0  0  0  0  0
  139.9966   74.9077  218.6062 H   0  0  0  0  0  0  0  0  0  0  0  0
  139.3826   76.5548  218.8512 H   0  0  0  0  0  0  0  0  0  0  0  0
  141.6734   75.8030  217.3217 H   0  0  0  0  0  0  0  0  0  0  0  0
  141.2585   77.4481  217.7571 H   0  0  0  0  0  0  0  0  0  0  0  0
  143.0665   75.4486  219.2324 H   0  0  0  0  0  0  0  0  0  0  0  0
  143.3857   77.1417  218.9752 H   0  0  0  0  0  0  0  0  0  0  0  0
  142.4727   76.6030  221.3725 H   0  0  0  0  0  0  0  0  0  0  0  0
  141.6392   78.6631  219.6062 H   0  0  0  0  0  0  0  0  0  0  0  0
  140.1794   78.0476  220.5121 H   0  0  0  0  0  0  0  0  0  0  0  0
  142.3694   80.6049  220.5646 H   0  0  0  0  0  0  0  0  0  0  0  0
  143.0097   81.8547  222.6228 H   0  0  0  0  0  0  0  0  0  0  0  0
  142.6539   80.8145  224.8564 H   0  0  0  0  0  0  0  0  0  0  0  0
  141.6627   78.5624  224.9745 H   0  0  0  0  0  0  0  0  0  0  0  0
  138.9172   68.9619  222.7763 H   0  0  0  0  0  0  0  0  0  0  0  0
  139.1058   67.7516  224.9315 H   0  0  0  0  0  0  0  0  0  0  0  0
  139.7341   67.7015  227.2788 H   0  0  0  0  0  0  0  0  0  0  0  0
  140.6701   68.8453  229.2989 H   0  0  0  0  0  0  0  0  0  0  0  0
  141.3997   71.2303  229.0804 H   0  0  0  0  0  0  0  0  0  0  0  0
  141.2004   72.4238  226.9237 H   0  0  0  0  0  0  0  0  0  0  0  0
  1  2  2  0
  2  3  1  0
  3  4  1  0
  4  5  1  0
  5  6  2  0
  5  7  1  0
  7  8  1  0
  8  9  1  0
  9 10  1  0
 10 11  1  0
 11 12  1  0
 12 13  1  0
 13 14  2  0
 14 15  1  0
 15 16  2  0
 16 17  1  0
 17 18  2  0
  2 19  1  0
 19 20  2  0
 20 21  1  0
 21 22  2  0
 22 23  1  0
 23 24  2  0
 24 25  1  0
 25 26  2  0
 26 27  1  0
 27 28  2  0
 11  7  1  0
 18 13  1  0
 28 19  1  0
 27 22  1  0
  3 29  1  0
  4 30  1  0
  4 31  1  0
  8 32  1  0
  8 33  1  0
  9 34  1  0
  9 35  1  0
 10 36  1  0
 10 37  1  0
 11 38  1  1
 12 39  1  0
 12 40  1  0
 14 41  1  0
 15 42  1  0
 16 43  1  0
 17 44  1  0
 20 45  1  0
 21 46  1  0
 23 47  1  0
 24 48  1  0
 25 49  1  0
 26 50  1  0
M  END
>  <smiles>  (77) 
O=C(NCC(=O)N1CCCC1Cc1ccccn1)c1ccc2ccccc2n1

>  <score_type>  (77) 
oracle

>  <origin>  (77) 
autodockgpu

>  <m_score__min__energy>  (77) 
-8.8800000000000008

>  <m_primary>  (77) 
energy

>  <rmsd>  (77) 
1.2760888771030612

>  <m_score__min__rmsd>  (77) 
1.2760888771030612

>  <meeko>  (77) 
{"free_energy": -8.51, "intermolecular_energy": -10.3, "internal_energy": -1.84, "cluster_size": 24, "cluster_id": 1, "rank_in_cluster": 18}

>  <energy>  (77) 
-8.54

>  <cluster_rmsd>  (77) 
0.29

>  <cluster>  (77) 
2

$$$$

     RDKit          3D

 50 53  0  0  0  0  0  0  0  0999 V2000
  140.1770   70.9700  221.1820 O   0  0  0  0  0  0  0  0  0  0  0  0
  139.9820   71.6060  222.2520 C   0  0  0  0  0  0  0  0  0  0  0  0
  139.7950   73.0230  222.2010 N   0  0  0  0  0  0  0  0  0  0  0  0
  139.8240   73.7440  220.9450 C   0  0  0  0  0  0  0  0  0  0  0  0
  140.1510   75.1540  221.2320 C   0  0  0  0  0  0  0  0  0  0  0  0
  139.9130   75.6640  222.3790 O   0  0  0  0  0  0  0  0  0  0  0  0
  140.7430   76.0370  220.2860 N   0  0  0  0  0  0  0  0  0  0  0  0
  140.2710   76.1780  218.9320 C   0  0  0  0  0  0  0  0  0  0  0  0
  141.4030   76.8000  218.1430 C   0  0  0  0  0  0  0  0  0  0  0  0
  142.5720   76.7460  219.1160 C   0  0  0  0  0  0  0  0  0  0  0  0
  141.8720   76.9350  220.4440 C   0  0  1  0  0  0  0  0  0  0  0  0
  141.2790   78.3220  220.5710 C   0  0  0  0  0  0  0  0  0  0  0  0
  141.6620   79.0100  221.8270 C   0  0  0  0  0  0  0  0  0  0  0  0
  141.4450   78.3990  223.0410 C   0  0  0  0  0  0  0  0  0  0  0  0
  141.8160   79.0730  224.1840 C   0  0  0  0  0  0  0  0  0  0  0  0
  142.3850   80.3200  224.0950 C   0  0  0  0  0  0  0  0  0  0  0  0
  142.5670   80.8600  222.8420 C   0  0  0  0  0  0  0  0  0  0  0  0
  142.2190   80.2340  221.7030 N   0  0  0  0  0  0  0  0  0  0  0  0
  139.9440   70.9300  223.5470 C   0  0  0  0  0  0  0  0  0  0  0  0
  139.4490   69.6280  223.5910 C   0  0  0  0  0  0  0  0  0  0  0  0
  139.4110   68.9850  224.8120 C   0  0  0  0  0  0  0  0  0  0  0  0
  139.8450   69.5930  225.9710 C   0  0  0  0  0  0  0  0  0  0  0  0
  139.8110   68.9580  227.1980 C   0  0  0  0  0  0  0  0  0  0  0  0
  140.2540   69.5850  228.3650 C   0  0  0  0  0  0  0  0  0  0  0  0
  140.7370   70.8860  228.2460 C   0  0  0  0  0  0  0  0  0  0  0  0
  140.7760   71.5350  227.0190 C   0  0  0  0  0  0  0  0  0  0  0  0
  140.3330   70.8990  225.8760 C   0  0  0  0  0  0  0  0  0  0  0  0
  140.3670   71.5180  224.6810 N   0  0  0  0  0  0  0  0  0  0  0  0
  139.6350   73.5150  223.1280 H   0  0  0  0  0  0  0  0  0  0  0  0
  140.5895   73.3110  220.2843 H   0  0  0  0  0  0  0  0  0  0  0  0
  138.8475   73.6742  220.4435 H   0  0  0  0  0  0  0  0  0  0  0  0
  140.0138   75.1931  218.5150 H   0  0  0  0  0  0  0  0  0  0  0  0
  139.3670   76.8033  218.8897 H   0  0  0  0  0  0  0  0  0  0  0  0
  141.6179   76.2178  217.2348 H   0  0  0  0  0  0  0  0  0  0  0  0
  141.1780   77.8184  217.7934 H   0  0  0  0  0  0  0  0  0  0  0  0
  143.0887   75.7760  219.0691 H   0  0  0  0  0  0  0  0  0  0  0  0
  143.3568   77.4899  218.9141 H   0  0  0  0  0  0  0  0  0  0  0  0
  142.5427   76.7713  221.3003 H   0  0  0  0  0  0  0  0  0  0  0  0
  141.6246   78.9288  219.7210 H   0  0  0  0  0  0  0  0  0  0  0  0
  140.1849   78.2091  220.5816 H   0  0  0  0  0  0  0  0  0  0  0  0
  140.9880   77.4000  223.0972 H   0  0  0  0  0  0  0  0  0  0  0  0
  141.6562   78.6116  225.1697 H   0  0  0  0  0  0  0  0  0  0  0  0
  142.6863   80.8708  224.9983 H   0  0  0  0  0  0  0  0  0  0  0  0
  143.0222   81.8586  222.7678 H   0  0  0  0  0  0  0  0  0  0  0  0
  139.0980   69.1261  222.6773 H   0  0  0  0  0  0  0  0  0  0  0  0
  139.0229   67.9569  224.8618 H   0  0  0  0  0  0  0  0  0  0  0  0
  139.4242   67.9299  227.2573 H   0  0  0  0  0  0  0  0  0  0  0  0
  140.2227   69.0725  229.3378 H   0  0  0  0  0  0  0  0  0  0  0  0
  141.0954   71.4109  229.1438 H   0  0  0  0  0  0  0  0  0  0  0  0
  141.1625   72.5630  226.9570 H   0  0  0  0  0  0  0  0  0  0  0  0
  1  2  2  0
  2  3  1  0
  3  4  1  0
  4  5  1  0
  5  6  2  0
  5  7  1  0
  7  8  1  0
  8  9  1  0
  9 10  1  0
 10 11  1  0
 11 12  1  0
 12 13  1  0
 13 14  2  0
 14 15  1  0
 15 16  2  0
 16 17  1  0
 17 18  2  0
  2 19  1  0
 19 20  2  0
 20 21  1  0
 21 22  2  0
 22 23  1  0
 23 24  2  0
 24 25  1  0
 25 26  2  0
 26 27  1  0
 27 28  2  0
 11  7  1  0
 18 13  1  0
 28 19  1  0
 27 22  1  0
  3 29  1  0
  4 30  1  0
  4 31  1  0
  8 32  1  0
  8 33  1  0
  9 34  1  0
  9 35  1  0
 10 36  1  0
 10 37  1  0
 11 38  1  1
 12 39  1  0
 12 40  1  0
 14 41  1  0
 15 42  1  0
 16 43  1  0
 17 44  1  0
 20 45  1  0
 21 46  1  0
 23 47  1  0
 24 48  1  0
 25 49  1  0
 26 50  1  0
M  END
>  <smiles>  (78) 
O=C(NCC(=O)N1CCCC1Cc1ccccn1)c1ccc2ccccc2n1

>  <score_type>  (78) 
oracle

>  <origin>  (78) 
autodockgpu

>  <m_score__min__energy>  (78) 
-8.8800000000000008

>  <m_primary>  (78) 
energy

>  <rmsd>  (78) 
1.3569721749531305

>  <m_score__min__rmsd>  (78) 
1.3569721749531305

>  <meeko>  (78) 
{"free_energy": -8.66, "intermolecular_energy": -10.45, "internal_energy": -1.86, "cluster_size": 24, "cluster_id": 1, "rank_in_cluster": 9}

>  <energy>  (78) 
-8.52

>  <cluster_rmsd>  (78) 
0.57

>  <cluster>  (78) 
2

$$$$

     RDKit          3D

 50 53  0  0  0  0  0  0  0  0999 V2000
  140.1660   70.9710  221.1610 O   0  0  0  0  0  0  0  0  0  0  0  0
  139.9560   71.6020  222.2320 C   0  0  0  0  0  0  0  0  0  0  0  0
  139.7480   73.0170  222.1830 N   0  0  0  0  0  0  0  0  0  0  0  0
  139.7740   73.7410  220.9290 C   0  0  0  0  0  0  0  0  0  0  0  0
  140.2220   75.1190  221.2030 C   0  0  0  0  0  0  0  0  0  0  0  0
  140.0630   75.6460  222.3560 O   0  0  0  0  0  0  0  0  0  0  0  0
  140.8510   75.9550  220.2360 N   0  0  0  0  0  0  0  0  0  0  0  0
  140.4280   76.0300  218.8610 C   0  0  0  0  0  0  0  0  0  0  0  0
  141.5900   76.6100  218.0840 C   0  0  0  0  0  0  0  0  0  0  0  0
  142.7230   76.6020  219.1000 C   0  0  0  0  0  0  0  0  0  0  0  0
  141.9770   76.8570  220.3910 C   0  0  1  0  0  0  0  0  0  0  0  0
  141.3840   78.2500  220.4290 C   0  0  0  0  0  0  0  0  0  0  0  0
  141.7020   78.9880  221.6740 C   0  0  0  0  0  0  0  0  0  0  0  0
  141.4730   78.4030  222.8990 C   0  0  0  0  0  0  0  0  0  0  0  0
  141.7820   79.1240  224.0320 C   0  0  0  0  0  0  0  0  0  0  0  0
  142.3050   80.3890  223.9230 C   0  0  0  0  0  0  0  0  0  0  0  0
  142.5030   80.9000  222.6600 C   0  0  0  0  0  0  0  0  0  0  0  0
  142.2140   80.2290  221.5310 N   0  0  0  0  0  0  0  0  0  0  0  0
  139.9210   70.9230  223.5260 C   0  0  0  0  0  0  0  0  0  0  0  0
  139.3850   69.6370  223.5740 C   0  0  0  0  0  0  0  0  0  0  0  0
  139.3490   68.9920  224.7940 C   0  0  0  0  0  0  0  0  0  0  0  0
  139.8240   69.5820  225.9470 C   0  0  0  0  0  0  0  0  0  0  0  0
  139.7920   68.9440  227.1730 C   0  0  0  0  0  0  0  0  0  0  0  0
  140.2760   69.5520  228.3320 C   0  0  0  0  0  0  0  0  0  0  0  0
  140.7980   70.8380  228.2090 C   0  0  0  0  0  0  0  0  0  0  0  0
  140.8350   71.4890  226.9840 C   0  0  0  0  0  0  0  0  0  0  0  0
  140.3510   70.8720  225.8470 C   0  0  0  0  0  0  0  0  0  0  0  0
  140.3830   71.4940  224.6540 N   0  0  0  0  0  0  0  0  0  0  0  0
  139.5770   73.5050  223.1090 H   0  0  0  0  0  0  0  0  0  0  0  0
  140.4719   73.2540  220.2320 H   0  0  0  0  0  0  0  0  0  0  0  0
  138.7725   73.7499  220.4740 H   0  0  0  0  0  0  0  0  0  0  0  0
  140.1821   75.0263  218.4839 H   0  0  0  0  0  0  0  0  0  0  0  0
  139.5283   76.6541  218.7554 H   0  0  0  0  0  0  0  0  0  0  0  0
  141.8354   75.9832  217.2140 H   0  0  0  0  0  0  0  0  0  0  0  0
  141.3815   77.6104  217.6768 H   0  0  0  0  0  0  0  0  0  0  0  0
  143.2378   75.6301  219.1193 H   0  0  0  0  0  0  0  0  0  0  0  0
  143.5168   77.3340  218.8902 H   0  0  0  0  0  0  0  0  0  0  0  0
  142.6164   76.7341  221.2776 H   0  0  0  0  0  0  0  0  0  0  0  0
  141.7774   78.8205  219.5747 H   0  0  0  0  0  0  0  0  0  0  0  0
  140.2904   78.1401  220.3854 H   0  0  0  0  0  0  0  0  0  0  0  0
  141.0550   77.3881  222.9714 H   0  0  0  0  0  0  0  0  0  0  0  0
  141.6093   78.6853  225.0258 H   0  0  0  0  0  0  0  0  0  0  0  0
  142.5581   80.9764  224.8179 H   0  0  0  0  0  0  0  0  0  0  0  0
  142.9208   81.9135  222.5694 H   0  0  0  0  0  0  0  0  0  0  0  0
  139.0015   69.1499  222.6653 H   0  0  0  0  0  0  0  0  0  0  0  0
  138.9288   67.9769  224.8484 H   0  0  0  0  0  0  0  0  0  0  0  0
  139.3734   67.9288  227.2367 H   0  0  0  0  0  0  0  0  0  0  0  0
  140.2466   69.0369  229.3035 H   0  0  0  0  0  0  0  0  0  0  0  0
  141.1890   71.3480  229.1017 H   0  0  0  0  0  0  0  0  0  0  0  0
  141.2531   72.5043  226.9180 H   0  0  0  0  0  0  0  0  0  0  0  0
  1  2  2  0
  2  3  1  0
  3  4  1  0
  4  5  1  0
  5  6  2  0
  5  7  1  0
  7  8  1  0
  8  9  1  0
  9 10  1  0
 10 11  1  0
 11 12  1  0
 12 13  1  0
 13 14  2  0
 14 15  1  0
 15 16  2  0
 16 17  1  0
 17 18  2  0
  2 19  1  0
 19 20  2  0
 20 21  1  0
 21 22  2  0
 22 23  1  0
 23 24  2  0
 24 25  1  0
 25 26  2  0
 26 27  1  0
 27 28  2  0
 11  7  1  0
 18 13  1  0
 28 19  1  0
 27 22  1  0
  3 29  1  0
  4 30  1  0
  4 31  1  0
  8 32  1  0
  8 33  1  0
  9 34  1  0
  9 35  1  0
 10 36  1  0
 10 37  1  0
 11 38  1  1
 12 39  1  0
 12 40  1  0
 14 41  1  0
 15 42  1  0
 16 43  1  0
 17 44  1  0
 20 45  1  0
 21 46  1  0
 23 47  1  0
 24 48  1  0
 25 49  1  0
 26 50  1  0
M  END
>  <smiles>  (79) 
O=C(NCC(=O)N1CCCC1Cc1ccccn1)c1ccc2ccccc2n1

>  <score_type>  (79) 
oracle

>  <origin>  (79) 
autodockgpu

>  <m_score__min__energy>  (79) 
-8.8800000000000008

>  <m_primary>  (79) 
energy

>  <rmsd>  (79) 
1.371817033308418

>  <m_score__min__rmsd>  (79) 
1.371817033308418

>  <meeko>  (79) 
{"free_energy": -8.7, "intermolecular_energy": -10.49, "internal_energy": -1.81, "cluster_size": 24, "cluster_id": 1, "rank_in_cluster": 7}

>  <energy>  (79) 
-8.51

>  <cluster_rmsd>  (79) 
0.54

>  <cluster>  (79) 
2

$$$$

     RDKit          3D

 50 53  0  0  0  0  0  0  0  0999 V2000
  139.9530   70.8200  221.1600 O   0  0  0  0  0  0  0  0  0  0  0  0
  140.0760   71.4800  222.2260 C   0  0  0  0  0  0  0  0  0  0  0  0
  140.3240   72.8870  222.1560 N   0  0  0  0  0  0  0  0  0  0  0  0
  140.4370   73.5710  220.8850 C   0  0  0  0  0  0  0  0  0  0  0  0
  140.6250   75.0090  221.1520 C   0  0  0  0  0  0  0  0  0  0  0  0
  140.4510   75.4890  222.3240 O   0  0  0  0  0  0  0  0  0  0  0  0
  141.0030   75.9560  220.1590 N   0  0  0  0  0  0  0  0  0  0  0  0
  140.3780   76.0370  218.8630 C   0  0  0  0  0  0  0  0  0  0  0  0
  141.3390   76.7890  217.9670 C   0  0  0  0  0  0  0  0  0  0  0  0
  142.6010   76.8790  218.8120 C   0  0  0  0  0  0  0  0  0  0  0  0
  142.0270   76.9840  220.2080 C   0  0  1  0  0  0  0  0  0  0  0  0
  141.2880   78.2900  220.4120 C   0  0  0  0  0  0  0  0  0  0  0  0
  141.6610   78.9840  221.6670 C   0  0  0  0  0  0  0  0  0  0  0  0
  142.2000   80.2490  221.6190 C   0  0  0  0  0  0  0  0  0  0  0  0
  142.5340   80.8600  222.8090 C   0  0  0  0  0  0  0  0  0  0  0  0
  142.3250   80.2080  224.0000 C   0  0  0  0  0  0  0  0  0  0  0  0
  141.7800   78.9440  223.9590 C   0  0  0  0  0  0  0  0  0  0  0  0
  141.4430   78.3150  222.8190 N   0  0  0  0  0  0  0  0  0  0  0  0
  139.9720   70.8410  223.5370 C   0  0  0  0  0  0  0  0  0  0  0  0
  139.4020   69.5710  223.6020 C   0  0  0  0  0  0  0  0  0  0  0  0
  139.3010   68.9640  224.8380 C   0  0  0  0  0  0  0  0  0  0  0  0
  139.7470   69.5760  225.9910 C   0  0  0  0  0  0  0  0  0  0  0  0
  139.6510   68.9760  227.2330 C   0  0  0  0  0  0  0  0  0  0  0  0
  140.1060   69.6060  228.3920 C   0  0  0  0  0  0  0  0  0  0  0  0
  140.6670   70.8740  228.2520 C   0  0  0  0  0  0  0  0  0  0  0  0
  140.7680   71.4870  227.0100 C   0  0  0  0  0  0  0  0  0  0  0  0
  140.3120   70.8480  225.8740 C   0  0  0  0  0  0  0  0  0  0  0  0
  140.4060   71.4330  224.6650 N   0  0  0  0  0  0  0  0  0  0  0  0
  140.4210   73.3990  223.0800 H   0  0  0  0  0  0  0  0  0  0  0  0
  141.3003   73.1797  220.3268 H   0  0  0  0  0  0  0  0  0  0  0  0
  139.5291   73.4110  220.2848 H   0  0  0  0  0  0  0  0  0  0  0  0
  140.1980   75.0277  218.4645 H   0  0  0  0  0  0  0  0  0  0  0  0
  139.4064   76.5493  218.9219 H   0  0  0  0  0  0  0  0  0  0  0  0
  141.5263   76.2346  217.0356 H   0  0  0  0  0  0  0  0  0  0  0  0
  140.9580   77.7721  217.6533 H   0  0  0  0  0  0  0  0  0  0  0  0
  143.2233   75.9788  218.7008 H   0  0  0  0  0  0  0  0  0  0  0  0
  143.2643   77.7125  218.5375 H   0  0  0  0  0  0  0  0  0  0  0  0
  142.7990   76.9035  220.9874 H   0  0  0  0  0  0  0  0  0  0  0  0
  141.5133   78.9548  219.5651 H   0  0  0  0  0  0  0  0  0  0  0  0
  140.2162   78.0514  220.4775 H   0  0  0  0  0  0  0  0  0  0  0  0
  142.3601   80.7589  220.6576 H   0  0  0  0  0  0  0  0  0  0  0  0
  142.9683   81.8706  222.8048 H   0  0  0  0  0  0  0  0  0  0  0  0
  142.5853   80.6816  224.9581 H   0  0  0  0  0  0  0  0  0  0  0  0
  141.6110   78.4199  224.9112 H   0  0  0  0  0  0  0  0  0  0  0  0
  139.0423   69.0659  222.6934 H   0  0  0  0  0  0  0  0  0  0  0  0
  138.8514   67.9623  224.9053 H   0  0  0  0  0  0  0  0  0  0  0  0
  139.2035   67.9741  227.3096 H   0  0  0  0  0  0  0  0  0  0  0  0
  140.0251   69.1214  229.3762 H   0  0  0  0  0  0  0  0  0  0  0  0
  141.0376   71.4003  229.1440 H   0  0  0  0  0  0  0  0  0  0  0  0
  141.2146   72.4891  226.9306 H   0  0  0  0  0  0  0  0  0  0  0  0
  1  2  2  0
  2  3  1  0
  3  4  1  0
  4  5  1  0
  5  6  2  0
  5  7  1  0
  7  8  1  0
  8  9  1  0
  9 10  1  0
 10 11  1  0
 11 12  1  0
 12 13  1  0
 13 14  2  0
 14 15  1  0
 15 16  2  0
 16 17  1  0
 17 18  2  0
  2 19  1  0
 19 20  2  0
 20 21  1  0
 21 22  2  0
 22 23  1  0
 23 24  2  0
 24 25  1  0
 25 26  2  0
 26 27  1  0
 27 28  2  0
 11  7  1  0
 18 13  1  0
 28 19  1  0
 27 22  1  0
  3 29  1  0
  4 30  1  0
  4 31  1  0
  8 32  1  0
  8 33  1  0
  9 34  1  0
  9 35  1  0
 10 36  1  0
 10 37  1  0
 11 38  1  1
 12 39  1  0
 12 40  1  0
 14 41  1  0
 15 42  1  0
 16 43  1  0
 17 44  1  0
 20 45  1  0
 21 46  1  0
 23 47  1  0
 24 48  1  0
 25 49  1  0
 26 50  1  0
M  END
>  <smiles>  (80) 
O=C(NCC(=O)N1CCCC1Cc1ccccn1)c1ccc2ccccc2n1

>  <score_type>  (80) 
oracle

>  <origin>  (80) 
autodockgpu

>  <m_score__min__energy>  (80) 
-8.8800000000000008

>  <m_primary>  (80) 
energy

>  <rmsd>  (80) 
1.4548216750691154

>  <m_score__min__rmsd>  (80) 
1.4548216750691154

>  <meeko>  (80) 
{"free_energy": -8.16, "intermolecular_energy": -9.95, "internal_energy": -1.96, "cluster_size": 24, "cluster_id": 1, "rank_in_cluster": 22}

>  <energy>  (80) 
-8.5

>  <cluster_rmsd>  (80) 
0.57

>  <cluster>  (80) 
2

$$$$

     RDKit          3D

 50 53  0  0  0  0  0  0  0  0999 V2000
  137.4780   76.0120  222.4280 O   0  0  0  0  0  0  0  0  0  0  0  0
  138.7190   76.2130  222.3410 C   0  0  0  0  0  0  0  0  0  0  0  0
  139.5700   75.1580  221.8820 N   0  0  0  0  0  0  0  0  0  0  0  0
  139.0360   73.8630  221.5150 C   0  0  0  0  0  0  0  0  0  0  0  0
  139.8470   72.8260  222.1810 C   0  0  0  0  0  0  0  0  0  0  0  0
  141.0860   73.0170  222.4260 O   0  0  0  0  0  0  0  0  0  0  0  0
  139.3340   71.5640  222.5940 N   0  0  0  0  0  0  0  0  0  0  0  0
  139.2010   70.4350  221.7080 C   0  0  0  0  0  0  0  0  0  0  0  0
  138.2100   69.4930  222.3570 C   0  0  0  0  0  0  0  0  0  0  0  0
  137.6560   70.3150  223.5110 C   0  0  0  0  0  0  0  0  0  0  0  0
  138.8590   71.1450  223.9000 C   0  0  1  0  0  0  0  0  0  0  0  0
  139.9640   70.2890  224.4830 C   0  0  0  0  0  0  0  0  0  0  0  0
  140.3720   70.7070  225.8450 C   0  0  0  0  0  0  0  0  0  0  0  0
  140.0300   69.9370  226.9330 C   0  0  0  0  0  0  0  0  0  0  0  0
  140.4290   70.3610  228.1820 C   0  0  0  0  0  0  0  0  0  0  0  0
  141.1480   71.5230  228.3180 C   0  0  0  0  0  0  0  0  0  0  0  0
  141.4490   72.2350  227.1780 C   0  0  0  0  0  0  0  0  0  0  0  0
  141.0780   71.8540  225.9420 N   0  0  0  0  0  0  0  0  0  0  0  0
  139.3130   77.5000  222.6980 C   0  0  0  0  0  0  0  0  0  0  0  0
  138.4550   78.5420  223.0460 C   0  0  0  0  0  0  0  0  0  0  0  0
  139.0110   79.7590  223.3840 C   0  0  0  0  0  0  0  0  0  0  0  0
  140.3750   79.9640  223.3860 C   0  0  0  0  0  0  0  0  0  0  0  0
  140.9410   81.1790  223.7230 C   0  0  0  0  0  0  0  0  0  0  0  0
  142.3230   81.3740  223.7210 C   0  0  0  0  0  0  0  0  0  0  0  0
  143.1210   80.2880  223.3640 C   0  0  0  0  0  0  0  0  0  0  0  0
  142.5640   79.0630  223.0230 C   0  0  0  0  0  0  0  0  0  0  0  0
  141.1940   78.8890  223.0300 C   0  0  0  0  0  0  0  0  0  0  0  0
  140.6430   77.7050  222.7020 N   0  0  0  0  0  0  0  0  0  0  0  0
  140.6070   75.3740  221.8260 H   0  0  0  0  0  0  0  0  0  0  0  0
  137.9890   73.7851  221.8432 H   0  0  0  0  0  0  0  0  0  0  0  0
  139.0723   73.7318  220.4235 H   0  0  0  0  0  0  0  0  0  0  0  0
  138.8265   70.7637  220.7273 H   0  0  0  0  0  0  0  0  0  0  0  0
  140.1704   69.9414  221.5448 H   0  0  0  0  0  0  0  0  0  0  0  0
  137.4124   69.2130  221.6532 H   0  0  0  0  0  0  0  0  0  0  0  0
  138.6637   68.5447  222.6808 H   0  0  0  0  0  0  0  0  0  0  0  0
  136.8188   70.9500  223.1856 H   0  0  0  0  0  0  0  0  0  0  0  0
  137.2450   69.7109  224.3333 H   0  0  0  0  0  0  0  0  0  0  0  0
  138.6110   71.9277  224.6321 H   0  0  0  0  0  0  0  0  0  0  0  0
  139.6123   69.2477  224.5279 H   0  0  0  0  0  0  0  0  0  0  0  0
  140.8424   70.4018  223.8305 H   0  0  0  0  0  0  0  0  0  0  0  0
  139.4538   69.0082  226.8091 H   0  0  0  0  0  0  0  0  0  0  0  0
  140.1711   69.7676  229.0716 H   0  0  0  0  0  0  0  0  0  0  0  0
  141.4739   71.8748  229.3080 H   0  0  0  0  0  0  0  0  0  0  0  0
  142.0244   73.1665  227.2838 H   0  0  0  0  0  0  0  0  0  0  0  0
  137.3645   78.3981  223.0511 H   0  0  0  0  0  0  0  0  0  0  0  0
  138.3463   80.5908  223.6602 H   0  0  0  0  0  0  0  0  0  0  0  0
  140.2836   82.0161  224.0007 H   0  0  0  0  0  0  0  0  0  0  0  0
  142.7645   82.3449  223.9901 H   0  0  0  0  0  0  0  0  0  0  0  0
  144.2148   80.4042  223.3523 H   0  0  0  0  0  0  0  0  0  0  0  0
  143.2191   78.2242  222.7450 H   0  0  0  0  0  0  0  0  0  0  0  0
  1  2  2  0
  2  3  1  0
  3  4  1  0
  4  5  1  0
  5  6  2  0
  5  7  1  0
  7  8  1  0
  8  9  1  0
  9 10  1  0
 10 11  1  0
 11 12  1  0
 12 13  1  0
 13 14  2  0
 14 15  1  0
 15 16  2  0
 16 17  1  0
 17 18  2  0
  2 19  1  0
 19 20  2  0
 20 21  1  0
 21 22  2  0
 22 23  1  0
 23 24  2  0
 24 25  1  0
 25 26  2  0
 26 27  1  0
 27 28  2  0
 11  7  1  0
 18 13  1  0
 28 19  1  0
 27 22  1  0
  3 29  1  0
  4 30  1  0
  4 31  1  0
  8 32  1  0
  8 33  1  0
  9 34  1  0
  9 35  1  0
 10 36  1  0
 10 37  1  0
 11 38  1  1
 12 39  1  0
 12 40  1  0
 14 41  1  0
 15 42  1  0
 16 43  1  0
 17 44  1  0
 20 45  1  0
 21 46  1  0
 23 47  1  0
 24 48  1  0
 25 49  1  0
 26 50  1  0
M  END
>  <smiles>  (81) 
O=C(NCC(=O)N1CCCC1Cc1ccccn1)c1ccc2ccccc2n1

>  <score_type>  (81) 
oracle

>  <origin>  (81) 
autodockgpu

>  <m_score__min__energy>  (81) 
-8.8800000000000008

>  <m_primary>  (81) 
energy

>  <rmsd>  (81) 
8.328671258540787

>  <m_score__min__rmsd>  (81) 
8.328671258540787

>  <meeko>  (81) 
{"free_energy": -8.63, "intermolecular_energy": -10.42, "internal_energy": -1.75, "cluster_size": 13, "cluster_id": 2, "rank_in_cluster": 1}

>  <energy>  (81) 
-8.47

>  <cluster_rmsd>  (81) 
1.22

>  <cluster>  (81) 
2

$$$$

     RDKit          3D

 50 53  0  0  0  0  0  0  0  0999 V2000
  138.8740   70.9310  221.5320 O   0  0  0  0  0  0  0  0  0  0  0  0
  139.3040   71.5080  222.5660 C   0  0  0  0  0  0  0  0  0  0  0  0
  139.5490   72.9170  222.5340 N   0  0  0  0  0  0  0  0  0  0  0  0
  139.3130   73.6970  221.3370 C   0  0  0  0  0  0  0  0  0  0  0  0
  139.8250   75.0610  221.5690 C   0  0  0  0  0  0  0  0  0  0  0  0
  139.6810   75.6340  222.7020 O   0  0  0  0  0  0  0  0  0  0  0  0
  140.5030   75.8300  220.5810 N   0  0  0  0  0  0  0  0  0  0  0  0
  140.1070   75.8650  219.1960 C   0  0  0  0  0  0  0  0  0  0  0  0
  141.3050   76.3660  218.4180 C   0  0  0  0  0  0  0  0  0  0  0  0
  142.4180   76.3570  219.4550 C   0  0  0  0  0  0  0  0  0  0  0  0
  141.6610   76.6940  220.7200 C   0  0  1  0  0  0  0  0  0  0  0  0
  141.1230   78.1090  220.6900 C   0  0  0  0  0  0  0  0  0  0  0  0
  141.5950   78.9390  221.8240 C   0  0  0  0  0  0  0  0  0  0  0  0
  142.1960   80.1530  221.5850 C   0  0  0  0  0  0  0  0  0  0  0  0
  142.6200   80.8940  222.6670 C   0  0  0  0  0  0  0  0  0  0  0  0
  142.4390   80.4170  223.9420 C   0  0  0  0  0  0  0  0  0  0  0  0
  141.8280   79.1920  224.0930 C   0  0  0  0  0  0  0  0  0  0  0  0
  141.4000   78.4400  223.0640 N   0  0  0  0  0  0  0  0  0  0  0  0
  139.5610   70.7700  223.8020 C   0  0  0  0  0  0  0  0  0  0  0  0
  139.2620   69.4090  223.8250 C   0  0  0  0  0  0  0  0  0  0  0  0
  139.5030   68.7080  224.9890 C   0  0  0  0  0  0  0  0  0  0  0  0
  140.0250   69.3150  226.1130 C   0  0  0  0  0  0  0  0  0  0  0  0
  140.2690   68.6210  227.2830 C   0  0  0  0  0  0  0  0  0  0  0  0
  140.7970   69.2470  228.4130 C   0  0  0  0  0  0  0  0  0  0  0  0
  141.0730   70.6100  228.3190 C   0  0  0  0  0  0  0  0  0  0  0  0
  140.8310   71.3170  227.1490 C   0  0  0  0  0  0  0  0  0  0  0  0
  140.3080   70.6810  226.0410 C   0  0  0  0  0  0  0  0  0  0  0  0
  140.0710   71.3570  224.9010 N   0  0  0  0  0  0  0  0  0  0  0  0
  139.9120   73.3570  223.4290 H   0  0  0  0  0  0  0  0  0  0  0  0
  139.8394   73.2412  220.4854 H   0  0  0  0  0  0  0  0  0  0  0  0
  138.2374   73.7279  221.1088 H   0  0  0  0  0  0  0  0  0  0  0  0
  139.8273   74.8572  218.8553 H   0  0  0  0  0  0  0  0  0  0  0  0
  139.2353   76.5194  219.0483 H   0  0  0  0  0  0  0  0  0  0  0  0
  141.5408   75.6938  217.5798 H   0  0  0  0  0  0  0  0  0  0  0  0
  141.1437   77.3555  217.9654 H   0  0  0  0  0  0  0  0  0  0  0  0
  142.8938   75.3676  219.5240 H   0  0  0  0  0  0  0  0  0  0  0  0
  143.2431   77.0490  219.2306 H   0  0  0  0  0  0  0  0  0  0  0  0
  142.2797   76.5836  221.6228 H   0  0  0  0  0  0  0  0  0  0  0  0
  141.4438   78.5848  219.7516 H   0  0  0  0  0  0  0  0  0  0  0  0
  140.0277   78.0433  220.7676 H   0  0  0  0  0  0  0  0  0  0  0  0
  142.3345   80.5224  220.5582 H   0  0  0  0  0  0  0  0  0  0  0  0
  143.1041   81.8690  222.5090 H   0  0  0  0  0  0  0  0  0  0  0  0
  142.7719   80.9958  224.8162 H   0  0  0  0  0  0  0  0  0  0  0  0
  141.6819   78.8071  225.1131 H   0  0  0  0  0  0  0  0  0  0  0  0
  138.8452   68.9071  222.9393 H   0  0  0  0  0  0  0  0  0  0  0  0
  139.2721   67.6330  225.0219 H   0  0  0  0  0  0  0  0  0  0  0  0
  140.0408   67.5457  227.3247 H   0  0  0  0  0  0  0  0  0  0  0  0
  140.9877   68.6873  229.3405 H   0  0  0  0  0  0  0  0  0  0  0  0
  141.4911   71.1363  229.1897 H   0  0  0  0  0  0  0  0  0  0  0  0
  141.0578   72.3925  227.1045 H   0  0  0  0  0  0  0  0  0  0  0  0
  1  2  2  0
  2  3  1  0
  3  4  1  0
  4  5  1  0
  5  6  2  0
  5  7  1  0
  7  8  1  0
  8  9  1  0
  9 10  1  0
 10 11  1  0
 11 12  1  0
 12 13  1  0
 13 14  2  0
 14 15  1  0
 15 16  2  0
 16 17  1  0
 17 18  2  0
  2 19  1  0
 19 20  2  0
 20 21  1  0
 21 22  2  0
 22 23  1  0
 23 24  2  0
 24 25  1  0
 25 26  2  0
 26 27  1  0
 27 28  2  0
 11  7  1  0
 18 13  1  0
 28 19  1  0
 27 22  1  0
  3 29  1  0
  4 30  1  0
  4 31  1  0
  8 32  1  0
  8 33  1  0
  9 34  1  0
  9 35  1  0
 10 36  1  0
 10 37  1  0
 11 38  1  1
 12 39  1  0
 12 40  1  0
 14 41  1  0
 15 42  1  0
 16 43  1  0
 17 44  1  0
 20 45  1  0
 21 46  1  0
 23 47  1  0
 24 48  1  0
 25 49  1  0
 26 50  1  0
M  END
>  <smiles>  (82) 
O=C(NCC(=O)N1CCCC1Cc1ccccn1)c1ccc2ccccc2n1

>  <score_type>  (82) 
oracle

>  <origin>  (82) 
autodockgpu

>  <m_score__min__energy>  (82) 
-8.8800000000000008

>  <m_primary>  (82) 
energy

>  <rmsd>  (82) 
1.2766860396733102

>  <m_score__min__rmsd>  (82) 
1.2766860396733102

>  <meeko>  (82) 
{"free_energy": -8.41, "intermolecular_energy": -10.2, "internal_energy": -1.78, "cluster_size": 24, "cluster_id": 1, "rank_in_cluster": 19}

>  <energy>  (82) 
-8.44

>  <cluster_rmsd>  (82) 
1.22

>  <cluster>  (82) 
2

$$$$

     RDKit          3D

 50 53  0  0  0  0  0  0  0  0999 V2000
  140.3970   71.0140  221.2840 O   0  0  0  0  0  0  0  0  0  0  0  0
  140.0830   71.6620  222.3190 C   0  0  0  0  0  0  0  0  0  0  0  0
  139.8460   73.0690  222.2210 N   0  0  0  0  0  0  0  0  0  0  0  0
  139.9590   73.7680  220.9570 C   0  0  0  0  0  0  0  0  0  0  0  0
  140.1930   75.1960  221.2420 C   0  0  0  0  0  0  0  0  0  0  0  0
  139.9310   75.6900  222.3910 O   0  0  0  0  0  0  0  0  0  0  0  0
  140.7140   76.1180  220.2900 N   0  0  0  0  0  0  0  0  0  0  0  0
  140.1740   76.2760  218.9630 C   0  0  0  0  0  0  0  0  0  0  0  0
  141.2500   76.9470  218.1380 C   0  0  0  0  0  0  0  0  0  0  0  0
  142.4650   76.9050  219.0530 C   0  0  0  0  0  0  0  0  0  0  0  0
  141.8250   77.0440  220.4160 C   0  0  1  0  0  0  0  0  0  0  0  0
  141.2000   78.4100  220.6050 C   0  0  0  0  0  0  0  0  0  0  0  0
  141.6170   79.0760  221.8610 C   0  0  0  0  0  0  0  0  0  0  0  0
  142.1980   80.3230  221.8200 C   0  0  0  0  0  0  0  0  0  0  0  0
  142.5710   80.9070  223.0110 C   0  0  0  0  0  0  0  0  0  0  0  0
  142.3600   80.2490  224.1970 C   0  0  0  0  0  0  0  0  0  0  0  0
  141.7710   79.0050  224.1510 C   0  0  0  0  0  0  0  0  0  0  0  0
  141.3940   78.4010  223.0090 N   0  0  0  0  0  0  0  0  0  0  0  0
  139.9550   71.0080  223.6200 C   0  0  0  0  0  0  0  0  0  0  0  0
  139.3360   69.7600  223.6670 C   0  0  0  0  0  0  0  0  0  0  0  0
  139.2120   69.1400  224.8930 C   0  0  0  0  0  0  0  0  0  0  0  0
  139.6810   69.7170  226.0550 C   0  0  0  0  0  0  0  0  0  0  0  0
  139.5620   69.1030  227.2880 C   0  0  0  0  0  0  0  0  0  0  0  0
  140.0410   69.6980  228.4560 C   0  0  0  0  0  0  0  0  0  0  0  0
  140.6500   70.9460  228.3350 C   0  0  0  0  0  0  0  0  0  0  0  0
  140.7750   71.5720  227.1020 C   0  0  0  0  0  0  0  0  0  0  0  0
  140.2940   70.9680  225.9570 C   0  0  0  0  0  0  0  0  0  0  0  0
  140.4110   71.5670  224.7570 N   0  0  0  0  0  0  0  0  0  0  0  0
  139.5850   73.5710  223.1190 H   0  0  0  0  0  0  0  0  0  0  0  0
  140.8017   73.3602  220.3795 H   0  0  0  0  0  0  0  0  0  0  0  0
  139.0379   73.6429  220.3688 H   0  0  0  0  0  0  0  0  0  0  0  0
  139.9241   75.2939  218.5351 H   0  0  0  0  0  0  0  0  0  0  0  0
  139.2521   76.8759  218.9777 H   0  0  0  0  0  0  0  0  0  0  0  0
  141.4375   76.3916  217.2072 H   0  0  0  0  0  0  0  0  0  0  0  0
  140.9808   77.9663  217.8242 H   0  0  0  0  0  0  0  0  0  0  0  0
  143.0055   75.9516  218.9588 H   0  0  0  0  0  0  0  0  0  0  0  0
  143.2182   77.6756  218.8319 H   0  0  0  0  0  0  0  0  0  0  0  0
  142.5410   76.8804  221.2349 H   0  0  0  0  0  0  0  0  0  0  0  0
  141.4921   79.0479  219.7578 H   0  0  0  0  0  0  0  0  0  0  0  0
  140.1108   78.2656  220.6586 H   0  0  0  0  0  0  0  0  0  0  0  0
  142.3602   80.8394  220.8624 H   0  0  0  0  0  0  0  0  0  0  0  0
  143.0388   81.9026  223.0113 H   0  0  0  0  0  0  0  0  0  0  0  0
  142.6527   80.7019  225.1558 H   0  0  0  0  0  0  0  0  0  0  0  0
  141.5992   78.4759  225.1000 H   0  0  0  0  0  0  0  0  0  0  0  0
  138.9567   69.2826  222.7515 H   0  0  0  0  0  0  0  0  0  0  0  0
  138.7243   68.1554  224.9457 H   0  0  0  0  0  0  0  0  0  0  0  0
  139.0762   68.1180  227.3501 H   0  0  0  0  0  0  0  0  0  0  0  0
  139.9419   69.2020  229.4328 H   0  0  0  0  0  0  0  0  0  0  0  0
  141.0394   71.4450  229.2346 H   0  0  0  0  0  0  0  0  0  0  0  0
  141.2609   72.5567  227.0367 H   0  0  0  0  0  0  0  0  0  0  0  0
  1  2  2  0
  2  3  1  0
  3  4  1  0
  4  5  1  0
  5  6  2  0
  5  7  1  0
  7  8  1  0
  8  9  1  0
  9 10  1  0
 10 11  1  0
 11 12  1  0
 12 13  1  0
 13 14  2  0
 14 15  1  0
 15 16  2  0
 16 17  1  0
 17 18  2  0
  2 19  1  0
 19 20  2  0
 20 21  1  0
 21 22  2  0
 22 23  1  0
 23 24  2  0
 24 25  1  0
 25 26  2  0
 26 27  1  0
 27 28  2  0
 11  7  1  0
 18 13  1  0
 28 19  1  0
 27 22  1  0
  3 29  1  0
  4 30  1  0
  4 31  1  0
  8 32  1  0
  8 33  1  0
  9 34  1  0
  9 35  1  0
 10 36  1  0
 10 37  1  0
 11 38  1  1
 12 39  1  0
 12 40  1  0
 14 41  1  0
 15 42  1  0
 16 43  1  0
 17 44  1  0
 20 45  1  0
 21 46  1  0
 23 47  1  0
 24 48  1  0
 25 49  1  0
 26 50  1  0
M  END
>  <smiles>  (83) 
O=C(NCC(=O)N1CCCC1Cc1ccccn1)c1ccc2ccccc2n1

>  <score_type>  (83) 
oracle

>  <origin>  (83) 
autodockgpu

>  <m_score__min__energy>  (83) 
-8.8800000000000008

>  <m_primary>  (83) 
energy

>  <rmsd>  (83) 
1.3969746941352306

>  <m_score__min__rmsd>  (83) 
1.3969746941352306

>  <meeko>  (83) 
{"free_energy": -8.63, "intermolecular_energy": -10.42, "internal_energy": -1.79, "cluster_size": 24, "cluster_id": 1, "rank_in_cluster": 14}

>  <energy>  (83) 
-8.41

>  <cluster_rmsd>  (83) 
0.56

>  <cluster>  (83) 
2

$$$$

     RDKit          3D

 50 53  0  0  0  0  0  0  0  0999 V2000
  140.7690   71.2200  221.3050 O   0  0  0  0  0  0  0  0  0  0  0  0
  140.3580   71.8480  222.3170 C   0  0  0  0  0  0  0  0  0  0  0  0
  140.0720   73.2460  222.2080 N   0  0  0  0  0  0  0  0  0  0  0  0
  140.2450   73.9560  220.9570 C   0  0  0  0  0  0  0  0  0  0  0  0
  140.3270   75.3980  221.2560 C   0  0  0  0  0  0  0  0  0  0  0  0
  139.9530   75.8580  222.3880 O   0  0  0  0  0  0  0  0  0  0  0  0
  140.8150   76.3700  220.3370 N   0  0  0  0  0  0  0  0  0  0  0  0
  140.3670   76.4630  218.9710 C   0  0  0  0  0  0  0  0  0  0  0  0
  141.4230   77.2490  218.2230 C   0  0  0  0  0  0  0  0  0  0  0  0
  142.5580   77.3460  219.2310 C   0  0  0  0  0  0  0  0  0  0  0  0
  141.8010   77.4150  220.5390 C   0  0  1  0  0  0  0  0  0  0  0  0
  141.0140   78.7030  220.6620 C   0  0  0  0  0  0  0  0  0  0  0  0
  141.4530   79.5510  221.7950 C   0  0  0  0  0  0  0  0  0  0  0  0
  141.9030   78.9690  222.9580 C   0  0  0  0  0  0  0  0  0  0  0  0
  142.3020   79.7940  223.9880 C   0  0  0  0  0  0  0  0  0  0  0  0
  142.2460   81.1570  223.8390 C   0  0  0  0  0  0  0  0  0  0  0  0
  141.7840   81.6590  222.6430 C   0  0  0  0  0  0  0  0  0  0  0  0
  141.3860   80.8880  221.6150 N   0  0  0  0  0  0  0  0  0  0  0  0
  140.1660   71.1820  223.6050 C   0  0  0  0  0  0  0  0  0  0  0  0
  139.5220   69.9470  223.6120 C   0  0  0  0  0  0  0  0  0  0  0  0
  139.3380   69.3140  224.8250 C   0  0  0  0  0  0  0  0  0  0  0  0
  139.7720   69.8690  226.0110 C   0  0  0  0  0  0  0  0  0  0  0  0
  139.5920   69.2440  227.2310 C   0  0  0  0  0  0  0  0  0  0  0  0
  140.0360   69.8160  228.4240 C   0  0  0  0  0  0  0  0  0  0  0  0
  140.6730   71.0520  228.3420 C   0  0  0  0  0  0  0  0  0  0  0  0
  140.8590   71.6900  227.1230 C   0  0  0  0  0  0  0  0  0  0  0  0
  140.4120   71.1090  225.9520 C   0  0  0  0  0  0  0  0  0  0  0  0
  140.5880   71.7190  224.7650 N   0  0  0  0  0  0  0  0  0  0  0  0
  139.7290   73.7320  223.0870 H   0  0  0  0  0  0  0  0  0  0  0  0
  141.1711   73.6240  220.4649 H   0  0  0  0  0  0  0  0  0  0  0  0
  139.3987   73.7539  220.2840 H   0  0  0  0  0  0  0  0  0  0  0  0
  140.2628   75.4579  218.5363 H   0  0  0  0  0  0  0  0  0  0  0  0
  139.3858   76.9561  218.9076 H   0  0  0  0  0  0  0  0  0  0  0  0
  141.7444   76.7154  217.3164 H   0  0  0  0  0  0  0  0  0  0  0  0
  141.0673   78.2304  217.8761 H   0  0  0  0  0  0  0  0  0  0  0  0
  143.2077   76.4593  219.1899 H   0  0  0  0  0  0  0  0  0  0  0  0
  143.2347   78.1964  219.0612 H   0  0  0  0  0  0  0  0  0  0  0  0
  142.4634   77.3348  221.4135 H   0  0  0  0  0  0  0  0  0  0  0  0
  141.1333   79.2756  219.7304 H   0  0  0  0  0  0  0  0  0  0  0  0
  139.9652   78.4280  220.8475 H   0  0  0  0  0  0  0  0  0  0  0  0
  141.9433   77.8748  223.0630 H   0  0  0  0  0  0  0  0  0  0  0  0
  142.6658   79.3590  224.9306 H   0  0  0  0  0  0  0  0  0  0  0  0
  142.5609   81.8288  224.6511 H   0  0  0  0  0  0  0  0  0  0  0  0
  141.7378   82.7513  222.5214 H   0  0  0  0  0  0  0  0  0  0  0  0
  139.1695   69.4884  222.6763 H   0  0  0  0  0  0  0  0  0  0  0  0
  138.8304   68.3384  224.8464 H   0  0  0  0  0  0  0  0  0  0  0  0
  139.0846   68.2685  227.2622 H   0  0  0  0  0  0  0  0  0  0  0  0
  139.8888   69.3111  229.3901 H   0  0  0  0  0  0  0  0  0  0  0  0
  141.0363   71.5327  229.2623 H   0  0  0  0  0  0  0  0  0  0  0  0
  141.3661   72.6655  227.0893 H   0  0  0  0  0  0  0  0  0  0  0  0
  1  2  2  0
  2  3  1  0
  3  4  1  0
  4  5  1  0
  5  6  2  0
  5  7  1  0
  7  8  1  0
  8  9  1  0
  9 10  1  0
 10 11  1  0
 11 12  1  0
 12 13  1  0
 13 14  2  0
 14 15  1  0
 15 16  2  0
 16 17  1  0
 17 18  2  0
  2 19  1  0
 19 20  2  0
 20 21  1  0
 21 22  2  0
 22 23  1  0
 23 24  2  0
 24 25  1  0
 25 26  2  0
 26 27  1  0
 27 28  2  0
 11  7  1  0
 18 13  1  0
 28 19  1  0
 27 22  1  0
  3 29  1  0
  4 30  1  0
  4 31  1  0
  8 32  1  0
  8 33  1  0
  9 34  1  0
  9 35  1  0
 10 36  1  0
 10 37  1  0
 11 38  1  1
 12 39  1  0
 12 40  1  0
 14 41  1  0
 15 42  1  0
 16 43  1  0
 17 44  1  0
 20 45  1  0
 21 46  1  0
 23 47  1  0
 24 48  1  0
 25 49  1  0
 26 50  1  0
M  END
>  <smiles>  (84) 
O=C(NCC(=O)N1CCCC1Cc1ccccn1)c1ccc2ccccc2n1

>  <score_type>  (84) 
oracle

>  <origin>  (84) 
autodockgpu

>  <m_score__min__energy>  (84) 
-8.8800000000000008

>  <m_primary>  (84) 
energy

>  <rmsd>  (84) 
1.5938856651415774

>  <m_score__min__rmsd>  (84) 
1.5938856651415774

>  <meeko>  (84) 
{"free_energy": -8.61, "intermolecular_energy": -10.4, "internal_energy": -1.8, "cluster_size": 24, "cluster_id": 1, "rank_in_cluster": 15}

>  <energy>  (84) 
-8.31

>  <cluster_rmsd>  (84) 
0.93

>  <cluster>  (84) 
2

$$$$

     RDKit          3D

 50 53  0  0  0  0  0  0  0  0999 V2000
  140.1350   74.6720  219.9850 O   0  0  0  0  0  0  0  0  0  0  0  0
  140.0120   75.2800  221.0820 C   0  0  0  0  0  0  0  0  0  0  0  0
  139.2660   74.6720  222.1410 N   0  0  0  0  0  0  0  0  0  0  0  0
  138.6480   73.3720  221.9800 C   0  0  0  0  0  0  0  0  0  0  0  0
  139.5670   72.3560  222.5260 C   0  0  0  0  0  0  0  0  0  0  0  0
  140.7950   72.6310  222.7480 O   0  0  0  0  0  0  0  0  0  0  0  0
  139.1770   71.0240  222.8440 N   0  0  0  0  0  0  0  0  0  0  0  0
  139.3050   69.9220  221.9240 C   0  0  0  0  0  0  0  0  0  0  0  0
  138.3730   68.8370  222.4200 C   0  0  0  0  0  0  0  0  0  0  0  0
  137.5760   69.5380  223.5100 C   0  0  0  0  0  0  0  0  0  0  0  0
  138.6020   70.5000  224.0690 C   0  0  1  0  0  0  0  0  0  0  0  0
  139.7280   69.7700  224.7700 C   0  0  0  0  0  0  0  0  0  0  0  0
  140.2040   70.4630  225.9910 C   0  0  0  0  0  0  0  0  0  0  0  0
  139.8910   69.9630  227.2340 C   0  0  0  0  0  0  0  0  0  0  0  0
  140.3530   70.6370  228.3430 C   0  0  0  0  0  0  0  0  0  0  0  0
  141.1050   71.7770  228.1920 C   0  0  0  0  0  0  0  0  0  0  0  0
  141.3740   72.2100  226.9130 C   0  0  0  0  0  0  0  0  0  0  0  0
  140.9410   71.5800  225.8060 N   0  0  0  0  0  0  0  0  0  0  0  0
  140.6130   76.5950  221.3000 C   0  0  0  0  0  0  0  0  0  0  0  0
  140.9760   77.3410  220.1800 C   0  0  0  0  0  0  0  0  0  0  0  0
  141.5450   78.5820  220.3800 C   0  0  0  0  0  0  0  0  0  0  0  0
  141.7570   79.0930  221.6440 C   0  0  0  0  0  0  0  0  0  0  0  0
  142.3260   80.3350  221.8550 C   0  0  0  0  0  0  0  0  0  0  0  0
  142.5350   80.8410  223.1390 C   0  0  0  0  0  0  0  0  0  0  0  0
  142.1470   80.0410  224.2120 C   0  0  0  0  0  0  0  0  0  0  0  0
  141.5750   78.7920  224.0130 C   0  0  0  0  0  0  0  0  0  0  0  0
  141.3760   78.3080  222.7350 C   0  0  0  0  0  0  0  0  0  0  0  0
  140.8220   77.0980  222.5300 N   0  0  0  0  0  0  0  0  0  0  0  0
  139.1880   75.2230  223.0450 H   0  0  0  0  0  0  0  0  0  0  0  0
  137.6935   73.3429  222.5259 H   0  0  0  0  0  0  0  0  0  0  0  0
  138.4499   73.1738  220.9163 H   0  0  0  0  0  0  0  0  0  0  0  0
  139.0157   70.2374  220.9107 H   0  0  0  0  0  0  0  0  0  0  0  0
  140.3436   69.5627  221.8759 H   0  0  0  0  0  0  0  0  0  0  0  0
  137.7134   68.4841  221.6136 H   0  0  0  0  0  0  0  0  0  0  0  0
  138.9032   67.9428  222.7794 H   0  0  0  0  0  0  0  0  0  0  0  0
  136.7102   70.0730  223.0927 H   0  0  0  0  0  0  0  0  0  0  0  0
  137.1482   68.8559  224.2595 H   0  0  0  0  0  0  0  0  0  0  0  0
  138.1645   71.2166  224.7797 H   0  0  0  0  0  0  0  0  0  0  0  0
  139.3722   68.7684  225.0530 H   0  0  0  0  0  0  0  0  0  0  0  0
  140.5745   69.7257  224.0689 H   0  0  0  0  0  0  0  0  0  0  0  0
  139.2878   69.0492  227.3394 H   0  0  0  0  0  0  0  0  0  0  0  0
  140.1196   70.2622  229.3505 H   0  0  0  0  0  0  0  0  0  0  0  0
  141.4810   72.3274  229.0670 H   0  0  0  0  0  0  0  0  0  0  0  0
  141.9766   73.1219  226.7894 H   0  0  0  0  0  0  0  0  0  0  0  0
  140.8133   76.9511  219.1644 H   0  0  0  0  0  0  0  0  0  0  0  0
  141.8383   79.1818  219.5058 H   0  0  0  0  0  0  0  0  0  0  0  0
  142.6224   80.9416  220.9866 H   0  0  0  0  0  0  0  0  0  0  0  0
  142.9876   81.8310  223.2974 H   0  0  0  0  0  0  0  0  0  0  0  0
  142.2972   80.4070  225.2384 H   0  0  0  0  0  0  0  0  0  0  0  0
  141.2780   78.1832  224.8797 H   0  0  0  0  0  0  0  0  0  0  0  0
  1  2  2  0
  2  3  1  0
  3  4  1  0
  4  5  1  0
  5  6  2  0
  5  7  1  0
  7  8  1  0
  8  9  1  0
  9 10  1  0
 10 11  1  0
 11 12  1  0
 12 13  1  0
 13 14  2  0
 14 15  1  0
 15 16  2  0
 16 17  1  0
 17 18  2  0
  2 19  1  0
 19 20  2  0
 20 21  1  0
 21 22  2  0
 22 23  1  0
 23 24  2  0
 24 25  1  0
 25 26  2  0
 26 27  1  0
 27 28  2  0
 11  7  1  0
 18 13  1  0
 28 19  1  0
 27 22  1  0
  3 29  1  0
  4 30  1  0
  4 31  1  0
  8 32  1  0
  8 33  1  0
  9 34  1  0
  9 35  1  0
 10 36  1  0
 10 37  1  0
 11 38  1  1
 12 39  1  0
 12 40  1  0
 14 41  1  0
 15 42  1  0
 16 43  1  0
 17 44  1  0
 20 45  1  0
 21 46  1  0
 23 47  1  0
 24 48  1  0
 25 49  1  0
 26 50  1  0
M  END
>  <smiles>  (85) 
O=C(NCC(=O)N1CCCC1Cc1ccccn1)c1ccc2ccccc2n1

>  <score_type>  (85) 
oracle

>  <origin>  (85) 
autodockgpu

>  <m_score__min__energy>  (85) 
-8.8800000000000008

>  <m_primary>  (85) 
energy

>  <rmsd>  (85) 
8.265706871916564

>  <m_score__min__rmsd>  (85) 
8.265706871916564

>  <meeko>  (85) 
{"free_energy": -8.64, "intermolecular_energy": -10.43, "internal_energy": -1.52, "cluster_size": 24, "cluster_id": 1, "rank_in_cluster": 12}

>  <energy>  (85) 
-8.28

>  <cluster_rmsd>  (85) 
0.95

>  <cluster>  (85) 
2

$$$$

     RDKit          3D

 50 53  0  0  0  0  0  0  0  0999 V2000
  140.4390   71.2930  221.1970 O   0  0  0  0  0  0  0  0  0  0  0  0
  140.1500   71.9100  222.2580 C   0  0  0  0  0  0  0  0  0  0  0  0
  139.8480   73.3070  222.1960 N   0  0  0  0  0  0  0  0  0  0  0  0
  139.8660   74.0280  220.9410 C   0  0  0  0  0  0  0  0  0  0  0  0
  140.1730   75.4420  221.2280 C   0  0  0  0  0  0  0  0  0  0  0  0
  139.5490   76.0780  222.1440 O   0  0  0  0  0  0  0  0  0  0  0  0
  141.1600   76.1950  220.5310 N   0  0  0  0  0  0  0  0  0  0  0  0
  141.4820   77.5640  220.8480 C   0  0  0  0  0  0  0  0  0  0  0  0
  142.1790   78.1350  219.6320 C   0  0  0  0  0  0  0  0  0  0  0  0
  141.9810   77.0540  218.5810 C   0  0  0  0  0  0  0  0  0  0  0  0
  142.0100   75.7980  219.4240 C   0  0  1  0  0  0  0  0  0  0  0  0
  143.3800   75.5590  220.0230 C   0  0  0  0  0  0  0  0  0  0  0  0
  143.7660   74.1280  220.0490 C   0  0  0  0  0  0  0  0  0  0  0  0
  143.0230   73.2270  220.7770 C   0  0  0  0  0  0  0  0  0  0  0  0
  143.4160   71.9060  220.7750 C   0  0  0  0  0  0  0  0  0  0  0  0
  144.5210   71.5180  220.0580 C   0  0  0  0  0  0  0  0  0  0  0  0
  145.2090   72.4820  219.3560 C   0  0  0  0  0  0  0  0  0  0  0  0
  144.8570   73.7810  219.3340 N   0  0  0  0  0  0  0  0  0  0  0  0
  140.1180   71.2320  223.5530 C   0  0  0  0  0  0  0  0  0  0  0  0
  139.5800   69.9480  223.6050 C   0  0  0  0  0  0  0  0  0  0  0  0
  139.5470   69.3040  224.8250 C   0  0  0  0  0  0  0  0  0  0  0  0
  140.0290   69.8930  225.9750 C   0  0  0  0  0  0  0  0  0  0  0  0
  140.0000   69.2560  227.2020 C   0  0  0  0  0  0  0  0  0  0  0  0
  140.4910   69.8640  228.3590 C   0  0  0  0  0  0  0  0  0  0  0  0
  141.0160   71.1480  228.2320 C   0  0  0  0  0  0  0  0  0  0  0  0
  141.0500   71.7980  227.0060 C   0  0  0  0  0  0  0  0  0  0  0  0
  140.5590   71.1810  225.8720 C   0  0  0  0  0  0  0  0  0  0  0  0
  140.5880   71.8020  224.6780 N   0  0  0  0  0  0  0  0  0  0  0  0
  139.6120   73.7830  223.1150 H   0  0  0  0  0  0  0  0  0  0  0  0
  140.6372   73.6060  220.2798 H   0  0  0  0  0  0  0  0  0  0  0  0
  138.8903   73.9444  220.4400 H   0  0  0  0  0  0  0  0  0  0  0  0
  140.5636   78.1308  221.0605 H   0  0  0  0  0  0  0  0  0  0  0  0
  142.1238   77.6252  221.7393 H   0  0  0  0  0  0  0  0  0  0  0  0
  141.7135   79.0809  219.3180 H   0  0  0  0  0  0  0  0  0  0  0  0
  143.2376   78.3733  219.8128 H   0  0  0  0  0  0  0  0  0  0  0  0
  141.0164   77.1684  218.0649 H   0  0  0  0  0  0  0  0  0  0  0  0
  142.7317   77.0698  217.7771 H   0  0  0  0  0  0  0  0  0  0  0  0
  141.7257   74.9012  218.8539 H   0  0  0  0  0  0  0  0  0  0  0  0
  144.1226   76.1104  219.4276 H   0  0  0  0  0  0  0  0  0  0  0  0
  143.3451   75.9065  221.0661 H   0  0  0  0  0  0  0  0  0  0  0  0
  142.1391   73.5524  221.3452 H   0  0  0  0  0  0  0  0  0  0  0  0
  142.8439   71.1617  221.3483 H   0  0  0  0  0  0  0  0  0  0  0  0
  144.8470   70.4675  220.0449 H   0  0  0  0  0  0  0  0  0  0  0  0
  146.0950   72.1737  218.7816 H   0  0  0  0  0  0  0  0  0  0  0  0
  139.1921   69.4608  222.6983 H   0  0  0  0  0  0  0  0  0  0  0  0
  139.1235   68.2904  224.8819 H   0  0  0  0  0  0  0  0  0  0  0  0
  139.5784   68.2422  227.2684 H   0  0  0  0  0  0  0  0  0  0  0  0
  140.4643   69.3500  229.3312 H   0  0  0  0  0  0  0  0  0  0  0  0
  141.4122   71.6579  229.1225 H   0  0  0  0  0  0  0  0  0  0  0  0
  141.4711   72.8119  226.9371 H   0  0  0  0  0  0  0  0  0  0  0  0
  1  2  2  0
  2  3  1  0
  3  4  1  0
  4  5  1  0
  5  6  2  0
  5  7  1  0
  7  8  1  0
  8  9  1  0
  9 10  1  0
 10 11  1  0
 11 12  1  0
 12 13  1  0
 13 14  2  0
 14 15  1  0
 15 16  2  0
 16 17  1  0
 17 18  2  0
  2 19  1  0
 19 20  2  0
 20 21  1  0
 21 22  2  0
 22 23  1  0
 23 24  2  0
 24 25  1  0
 25 26  2  0
 26 27  1  0
 27 28  2  0
 11  7  1  0
 18 13  1  0
 28 19  1  0
 27 22  1  0
  3 29  1  0
  4 30  1  0
  4 31  1  0
  8 32  1  0
  8 33  1  0
  9 34  1  0
  9 35  1  0
 10 36  1  0
 10 37  1  0
 11 38  1  6
 12 39  1  0
 12 40  1  0
 14 41  1  0
 15 42  1  0
 16 43  1  0
 17 44  1  0
 20 45  1  0
 21 46  1  0
 23 47  1  0
 24 48  1  0
 25 49  1  0
 26 50  1  0
M  END
>  <smiles>  (86) 
O=C(NCC(=O)N1CCCC1Cc1ccccn1)c1ccc2ccccc2n1

>  <score_type>  (86) 
oracle

>  <origin>  (86) 
autodockgpu

>  <m_score__min__energy>  (86) 
-8.8800000000000008

>  <m_primary>  (86) 
energy

>  <rmsd>  (86) 
2.141050459382084

>  <m_score__min__rmsd>  (86) 
2.141050459382084

>  <meeko>  (86) 
{"free_energy": -7.69, "intermolecular_energy": -9.48, "internal_energy": -1.98, "cluster_size": 9, "cluster_id": 3, "rank_in_cluster": 9}

>  <energy>  (86) 
-8.13

>  <cluster_rmsd>  (86) 
1.52

>  <cluster>  (86) 
2

$$$$

     RDKit          3D

 50 53  0  0  0  0  0  0  0  0999 V2000
  139.4950   70.4880  221.4410 O   0  0  0  0  0  0  0  0  0  0  0  0
  139.5240   71.0590  222.5640 C   0  0  0  0  0  0  0  0  0  0  0  0
  139.4300   72.4850  222.6300 N   0  0  0  0  0  0  0  0  0  0  0  0
  139.3020   73.2890  221.4320 C   0  0  0  0  0  0  0  0  0  0  0  0
  140.2120   74.4430  221.5550 C   0  0  0  0  0  0  0  0  0  0  0  0
  141.4690   74.3130  221.3650 O   0  0  0  0  0  0  0  0  0  0  0  0
  139.7810   75.7590  221.8840 N   0  0  0  0  0  0  0  0  0  0  0  0
  138.6170   76.0330  222.6880 C   0  0  0  0  0  0  0  0  0  0  0  0
  138.2290   77.4690  222.4090 C   0  0  0  0  0  0  0  0  0  0  0  0
  139.1160   77.8440  221.2320 C   0  0  0  0  0  0  0  0  0  0  0  0
  140.3630   77.0380  221.5200 C   0  0  1  0  0  0  0  0  0  0  0  0
  141.0760   77.5330  222.7610 C   0  0  0  0  0  0  0  0  0  0  0  0
  141.3730   78.9850  222.7260 C   0  0  0  0  0  0  0  0  0  0  0  0
  141.9000   79.5520  221.5890 C   0  0  0  0  0  0  0  0  0  0  0  0
  142.1610   80.9060  221.5980 C   0  0  0  0  0  0  0  0  0  0  0  0
  141.8960   81.6510  222.7200 C   0  0  0  0  0  0  0  0  0  0  0  0
  141.3680   81.0050  223.8160 C   0  0  0  0  0  0  0  0  0  0  0  0
  141.1000   79.6880  223.8460 N   0  0  0  0  0  0  0  0  0  0  0  0
  139.6520   70.2970  223.8050 C   0  0  0  0  0  0  0  0  0  0  0  0
  139.1540   68.9960  223.8280 C   0  0  0  0  0  0  0  0  0  0  0  0
  139.2730   68.2730  224.9980 C   0  0  0  0  0  0  0  0  0  0  0  0
  139.8650   68.8010  226.1260 C   0  0  0  0  0  0  0  0  0  0  0  0
  139.9880   68.0840  227.3020 C   0  0  0  0  0  0  0  0  0  0  0  0
  140.5900   68.6300  228.4370 C   0  0  0  0  0  0  0  0  0  0  0  0
  141.0660   69.9360  228.3420 C   0  0  0  0  0  0  0  0  0  0  0  0
  140.9480   70.6660  227.1670 C   0  0  0  0  0  0  0  0  0  0  0  0
  140.3490   70.1090  226.0540 C   0  0  0  0  0  0  0  0  0  0  0  0
  140.2300   70.8070  224.9090 N   0  0  0  0  0  0  0  0  0  0  0  0
  139.4600   72.9190  223.5980 H   0  0  0  0  0  0  0  0  0  0  0  0
  139.5757   72.6907  220.5505 H   0  0  0  0  0  0  0  0  0  0  0  0
  138.2640   73.6333  221.3133 H   0  0  0  0  0  0  0  0  0  0  0  0
  137.7954   75.3566  222.4097 H   0  0  0  0  0  0  0  0  0  0  0  0
  138.8269   75.8786  223.7567 H   0  0  0  0  0  0  0  0  0  0  0  0
  137.1648   77.5456  222.1415 H   0  0  0  0  0  0  0  0  0  0  0  0
  138.3625   78.1295  223.2784 H   0  0  0  0  0  0  0  0  0  0  0  0
  138.6596   77.5488  220.2757 H   0  0  0  0  0  0  0  0  0  0  0  0
  139.2952   78.9249  221.1340 H   0  0  0  0  0  0  0  0  0  0  0  0
  141.0790   77.0583  220.6852 H   0  0  0  0  0  0  0  0  0  0  0  0
  140.4399   77.3276  223.6346 H   0  0  0  0  0  0  0  0  0  0  0  0
  142.0391   77.0044  222.8165 H   0  0  0  0  0  0  0  0  0  0  0  0
  142.1075   78.9423  220.6973 H   0  0  0  0  0  0  0  0  0  0  0  0
  142.5823   81.3899  220.7045 H   0  0  0  0  0  0  0  0  0  0  0  0
  142.0992   82.7318  222.7432 H   0  0  0  0  0  0  0  0  0  0  0  0
  141.1538   81.5995  224.7164 H   0  0  0  0  0  0  0  0  0  0  0  0
  138.6790   68.5569  222.9383 H   0  0  0  0  0  0  0  0  0  0  0  0
  138.8838   67.2447  225.0315 H   0  0  0  0  0  0  0  0  0  0  0  0
  139.6009   67.0552  227.3443 H   0  0  0  0  0  0  0  0  0  0  0  0
  140.6847   68.0526  229.3685 H   0  0  0  0  0  0  0  0  0  0  0  0
  141.5457   70.3988  229.2170 H   0  0  0  0  0  0  0  0  0  0  0  0
  141.3342   71.6950  227.1221 H   0  0  0  0  0  0  0  0  0  0  0  0
  1  2  2  0
  2  3  1  0
  3  4  1  0
  4  5  1  0
  5  6  2  0
  5  7  1  0
  7  8  1  0
  8  9  1  0
  9 10  1  0
 10 11  1  0
 11 12  1  0
 12 13  1  0
 13 14  2  0
 14 15  1  0
 15 16  2  0
 16 17  1  0
 17 18  2  0
  2 19  1  0
 19 20  2  0
 20 21  1  0
 21 22  2  0
 22 23  1  0
 23 24  2  0
 24 25  1  0
 25 26  2  0
 26 27  1  0
 27 28  2  0
 11  7  1  0
 18 13  1  0
 28 19  1  0
 27 22  1  0
  3 29  1  0
  4 30  1  0
  4 31  1  0
  8 32  1  0
  8 33  1  0
  9 34  1  0
  9 35  1  0
 10 36  1  0
 10 37  1  0
 11 38  1  6
 12 39  1  0
 12 40  1  0
 14 41  1  0
 15 42  1  0
 16 43  1  0
 17 44  1  0
 20 45  1  0
 21 46  1  0
 23 47  1  0
 24 48  1  0
 25 49  1  0
 26 50  1  0
M  END
>  <smiles>  (87) 
O=C(NCC(=O)N1CCCC1Cc1ccccn1)c1ccc2ccccc2n1

>  <score_type>  (87) 
oracle

>  <origin>  (87) 
autodockgpu

>  <m_score__min__energy>  (87) 
-8.8800000000000008

>  <m_primary>  (87) 
energy

>  <rmsd>  (87) 
2.378929072968871

>  <m_score__min__rmsd>  (87) 
2.378929072968871

>  <meeko>  (87) 
{"free_energy": -8.38, "intermolecular_energy": -10.17, "internal_energy": -1.38, "cluster_size": 24, "cluster_id": 1, "rank_in_cluster": 21}

>  <energy>  (87) 
-8.02

>  <cluster_rmsd>  (87) 
1.57

>  <cluster>  (87) 
2

$$$$

     RDKit          3D

 50 53  0  0  0  0  0  0  0  0999 V2000
  138.9900   74.9230  222.3360 O   0  0  0  0  0  0  0  0  0  0  0  0
  139.9650   75.6190  221.9440 C   0  0  0  0  0  0  0  0  0  0  0  0
  140.9100   75.0520  221.0320 N   0  0  0  0  0  0  0  0  0  0  0  0
  140.7710   73.6940  220.5480 C   0  0  0  0  0  0  0  0  0  0  0  0
  141.9400   72.9200  221.0090 C   0  0  0  0  0  0  0  0  0  0  0  0
  141.8140   71.9950  221.8810 O   0  0  0  0  0  0  0  0  0  0  0  0
  143.2650   73.1310  220.5350 N   0  0  0  0  0  0  0  0  0  0  0  0
  144.1030   72.0730  220.0290 C   0  0  0  0  0  0  0  0  0  0  0  0
  145.5260   72.5840  220.0910 C   0  0  0  0  0  0  0  0  0  0  0  0
  145.3960   73.8760  220.8840 C   0  0  0  0  0  0  0  0  0  0  0  0
  144.0300   74.3620  220.4530 C   0  0  1  0  0  0  0  0  0  0  0  0
  144.0130   74.7600  218.9920 C   0  0  0  0  0  0  0  0  0  0  0  0
  143.3350   76.0550  218.7450 C   0  0  0  0  0  0  0  0  0  0  0  0
  143.2640   76.5620  217.4680 C   0  0  0  0  0  0  0  0  0  0  0  0
  142.6250   77.7690  217.2820 C   0  0  0  0  0  0  0  0  0  0  0  0
  142.0800   78.4330  218.3530 C   0  0  0  0  0  0  0  0  0  0  0  0
  142.1950   77.8550  219.5980 C   0  0  0  0  0  0  0  0  0  0  0  0
  142.8110   76.6800  219.8210 N   0  0  0  0  0  0  0  0  0  0  0  0
  140.1560   76.9950  222.4010 C   0  0  0  0  0  0  0  0  0  0  0  0
  139.0230   77.7370  222.7300 C   0  0  0  0  0  0  0  0  0  0  0  0
  139.1970   79.0360  223.1610 C   0  0  0  0  0  0  0  0  0  0  0  0
  140.4480   79.6070  223.2720 C   0  0  0  0  0  0  0  0  0  0  0  0
  140.6330   80.9080  223.7030 C   0  0  0  0  0  0  0  0  0  0  0  0
  141.9040   81.4740  223.8110 C   0  0  0  0  0  0  0  0  0  0  0  0
  142.9920   80.6730  223.4660 C   0  0  0  0  0  0  0  0  0  0  0  0
  142.8180   79.3660  223.0320 C   0  0  0  0  0  0  0  0  0  0  0  0
  141.5530   78.8230  222.9310 C   0  0  0  0  0  0  0  0  0  0  0  0
  141.3740   77.5560  222.5120 N   0  0  0  0  0  0  0  0  0  0  0  0
  141.7140   75.6750  220.7310 H   0  0  0  0  0  0  0  0  0  0  0  0
  139.8480   73.2486  220.9476 H   0  0  0  0  0  0  0  0  0  0  0  0
  140.7177   73.6850  219.4493 H   0  0  0  0  0  0  0  0  0  0  0  0
  143.9953   71.1725  220.6515 H   0  0  0  0  0  0  0  0  0  0  0  0
  143.8227   71.8013  219.0006 H   0  0  0  0  0  0  0  0  0  0  0  0
  146.1805   71.8673  220.6088 H   0  0  0  0  0  0  0  0  0  0  0  0
  145.9759   72.7303  219.0979 H   0  0  0  0  0  0  0  0  0  0  0  0
  145.4315   73.6874  221.9671 H   0  0  0  0  0  0  0  0  0  0  0  0
  146.2059   74.5972  220.6999 H   0  0  0  0  0  0  0  0  0  0  0  0
  143.6837   75.2223  221.0446 H   0  0  0  0  0  0  0  0  0  0  0  0
  145.0520   74.8369  218.6390 H   0  0  0  0  0  0  0  0  0  0  0  0
  143.4474   73.9875  218.4504 H   0  0  0  0  0  0  0  0  0  0  0  0
  143.7050   76.0191  216.6190 H   0  0  0  0  0  0  0  0  0  0  0  0
  142.5515   78.2013  216.2732 H   0  0  0  0  0  0  0  0  0  0  0  0
  141.5672   79.3971  218.2209 H   0  0  0  0  0  0  0  0  0  0  0  0
  141.7587   78.3839  220.4582 H   0  0  0  0  0  0  0  0  0  0  0  0
  138.0174   77.2988  222.6482 H   0  0  0  0  0  0  0  0  0  0  0  0
  138.3121   79.6342  223.4239 H   0  0  0  0  0  0  0  0  0  0  0  0
  139.7538   81.5135  223.9681 H   0  0  0  0  0  0  0  0  0  0  0  0
  142.0420   82.5099  224.1543 H   0  0  0  0  0  0  0  0  0  0  0  0
  144.0092   81.0853  223.5393 H   0  0  0  0  0  0  0  0  0  0  0  0
  143.6954   78.7580  222.7664 H   0  0  0  0  0  0  0  0  0  0  0  0
  1  2  2  0
  2  3  1  0
  3  4  1  0
  4  5  1  0
  5  6  2  0
  5  7  1  0
  7  8  1  0
  8  9  1  0
  9 10  1  0
 10 11  1  0
 11 12  1  0
 12 13  1  0
 13 14  2  0
 14 15  1  0
 15 16  2  0
 16 17  1  0
 17 18  2  0
  2 19  1  0
 19 20  2  0
 20 21  1  0
 21 22  2  0
 22 23  1  0
 23 24  2  0
 24 25  1  0
 25 26  2  0
 26 27  1  0
 27 28  2  0
 11  7  1  0
 18 13  1  0
 28 19  1  0
 27 22  1  0
  3 29  1  0
  4 30  1  0
  4 31  1  0
  8 32  1  0
  8 33  1  0
  9 34  1  0
  9 35  1  0
 10 36  1  0
 10 37  1  0
 11 38  1  1
 12 39  1  0
 12 40  1  0
 14 41  1  0
 15 42  1  0
 16 43  1  0
 17 44  1  0
 20 45  1  0
 21 46  1  0
 23 47  1  0
 24 48  1  0
 25 49  1  0
 26 50  1  0
M  END
>  <smiles>  (88) 
O=C(NCC(=O)N1CCCC1Cc1ccccn1)c1ccc2ccccc2n1

>  <score_type>  (88) 
oracle

>  <origin>  (88) 
autodockgpu

>  <m_score__min__energy>  (88) 
-8.8800000000000008

>  <m_primary>  (88) 
energy

>  <rmsd>  (88) 
7.755878575902429

>  <m_score__min__rmsd>  (88) 
7.755878575902429

>  <meeko>  (88) 
{"free_energy": -7.24, "intermolecular_energy": -9.03, "internal_energy": -2.88, "cluster_size": 1, "cluster_id": 5, "rank_in_cluster": 1}

>  <energy>  (88) 
-8.49

>  <cluster_rmsd>  (88) 
0.0

>  <cluster>  (88) 
3

$$$$

     RDKit          3D

 50 53  0  0  0  0  0  0  0  0999 V2000
  140.9360   71.5590  221.3240 O   0  0  0  0  0  0  0  0  0  0  0  0
  140.4180   72.1230  222.3250 C   0  0  0  0  0  0  0  0  0  0  0  0
  140.0290   73.4970  222.2330 N   0  0  0  0  0  0  0  0  0  0  0  0
  140.2180   74.2550  221.0140 C   0  0  0  0  0  0  0  0  0  0  0  0
  140.6400   75.6200  221.3820 C   0  0  0  0  0  0  0  0  0  0  0  0
  140.4420   76.0740  222.5600 O   0  0  0  0  0  0  0  0  0  0  0  0
  141.2830   76.5190  220.4850 N   0  0  0  0  0  0  0  0  0  0  0  0
  141.5190   77.9080  220.7900 C   0  0  0  0  0  0  0  0  0  0  0  0
  141.7560   78.6040  219.4670 C   0  0  0  0  0  0  0  0  0  0  0  0
  141.3890   77.5390  218.4450 C   0  0  0  0  0  0  0  0  0  0  0  0
  141.8130   76.2730  219.1570 C   0  0  1  0  0  0  0  0  0  0  0  0
  143.3160   76.2010  219.3210 C   0  0  0  0  0  0  0  0  0  0  0  0
  143.7890   74.8840  219.8090 C   0  0  0  0  0  0  0  0  0  0  0  0
  143.0380   73.7540  219.5780 C   0  0  0  0  0  0  0  0  0  0  0  0
  143.5140   72.5490  220.0480 C   0  0  0  0  0  0  0  0  0  0  0  0
  144.7070   72.4960  220.7260 C   0  0  0  0  0  0  0  0  0  0  0  0
  145.3960   73.6730  220.9140 C   0  0  0  0  0  0  0  0  0  0  0  0
  144.9660   74.8680  220.4720 N   0  0  0  0  0  0  0  0  0  0  0  0
  140.2050   71.4060  223.5810 C   0  0  0  0  0  0  0  0  0  0  0  0
  139.5470   70.1790  223.5300 C   0  0  0  0  0  0  0  0  0  0  0  0
  139.3420   69.4990  224.7130 C   0  0  0  0  0  0  0  0  0  0  0  0
  139.7700   69.9980  225.9260 C   0  0  0  0  0  0  0  0  0  0  0  0
  139.5700   69.3250  227.1170 C   0  0  0  0  0  0  0  0  0  0  0  0
  140.0070   69.8410  228.3380 C   0  0  0  0  0  0  0  0  0  0  0  0
  140.6590   71.0730  228.3140 C   0  0  0  0  0  0  0  0  0  0  0  0
  140.8650   71.7590  227.1240 C   0  0  0  0  0  0  0  0  0  0  0  0
  140.4240   71.2320  225.9260 C   0  0  0  0  0  0  0  0  0  0  0  0
  140.6200   71.8890  224.7670 N   0  0  0  0  0  0  0  0  0  0  0  0
  139.5990   73.9280  223.1020 H   0  0  0  0  0  0  0  0  0  0  0  0
  140.9936   73.7792  220.3959 H   0  0  0  0  0  0  0  0  0  0  0  0
  139.2815   74.2886  220.4379 H   0  0  0  0  0  0  0  0  0  0  0  0
  140.6428   78.3403  221.2953 H   0  0  0  0  0  0  0  0  0  0  0  0
  142.3816   78.0268  221.4622 H   0  0  0  0  0  0  0  0  0  0  0  0
  141.1098   79.4883  219.3649 H   0  0  0  0  0  0  0  0  0  0  0  0
  142.7849   78.9759  219.3528 H   0  0  0  0  0  0  0  0  0  0  0  0
  140.3091   77.5391  218.2357 H   0  0  0  0  0  0  0  0  0  0  0  0
  141.8637   77.6797  217.4628 H   0  0  0  0  0  0  0  0  0  0  0  0
  141.4835   75.3640  218.6325 H   0  0  0  0  0  0  0  0  0  0  0  0
  143.7838   76.4007  218.3457 H   0  0  0  0  0  0  0  0  0  0  0  0
  143.5980   76.9493  220.0763 H   0  0  0  0  0  0  0  0  0  0  0  0
  142.0841   73.8110  219.0332 H   0  0  0  0  0  0  0  0  0  0  0  0
  142.9370   71.6277  219.8797 H   0  0  0  0  0  0  0  0  0  0  0  0
  145.1002   71.5421  221.1073 H   0  0  0  0  0  0  0  0  0  0  0  0
  146.3522   73.6337  221.4564 H   0  0  0  0  0  0  0  0  0  0  0  0
  139.2002   69.7635  222.5723 H   0  0  0  0  0  0  0  0  0  0  0  0
  138.8218   68.5301  224.6883 H   0  0  0  0  0  0  0  0  0  0  0  0
  139.0516   68.3550  227.1019 H   0  0  0  0  0  0  0  0  0  0  0  0
  139.8437   69.2979  229.2805 H   0  0  0  0  0  0  0  0  0  0  0  0
  141.0178   71.5109  229.2571 H   0  0  0  0  0  0  0  0  0  0  0  0
  141.3832   72.7292  227.1358 H   0  0  0  0  0  0  0  0  0  0  0  0
  1  2  2  0
  2  3  1  0
  3  4  1  0
  4  5  1  0
  5  6  2  0
  5  7  1  0
  7  8  1  0
  8  9  1  0
  9 10  1  0
 10 11  1  0
 11 12  1  0
 12 13  1  0
 13 14  2  0
 14 15  1  0
 15 16  2  0
 16 17  1  0
 17 18  2  0
  2 19  1  0
 19 20  2  0
 20 21  1  0
 21 22  2  0
 22 23  1  0
 23 24  2  0
 24 25  1  0
 25 26  2  0
 26 27  1  0
 27 28  2  0
 11  7  1  0
 18 13  1  0
 28 19  1  0
 27 22  1  0
  3 29  1  0
  4 30  1  0
  4 31  1  0
  8 32  1  0
  8 33  1  0
  9 34  1  0
  9 35  1  0
 10 36  1  0
 10 37  1  0
 11 38  1  6
 12 39  1  0
 12 40  1  0
 14 41  1  0
 15 42  1  0
 16 43  1  0
 17 44  1  0
 20 45  1  0
 21 46  1  0
 23 47  1  0
 24 48  1  0
 25 49  1  0
 26 50  1  0
M  END
>  <smiles>  (89) 
O=C(NCC(=O)N1CCCC1Cc1ccccn1)c1ccc2ccccc2n1

>  <score_type>  (89) 
oracle

>  <origin>  (89) 
autodockgpu

>  <m_score__min__energy>  (89) 
-8.8800000000000008

>  <m_primary>  (89) 
energy

>  <rmsd>  (89) 
2.247749255648133

>  <m_score__min__rmsd>  (89) 
2.247749255648133

>  <meeko>  (89) 
{"free_energy": -8.26, "intermolecular_energy": -10.05, "internal_energy": -2.06, "cluster_size": 9, "cluster_id": 3, "rank_in_cluster": 7}

>  <energy>  (89) 
-8.48

>  <cluster_rmsd>  (89) 
0.1

>  <cluster>  (89) 
3

$$$$

     RDKit          3D

 50 53  0  0  0  0  0  0  0  0999 V2000
  141.5630   74.8060  220.9480 O   0  0  0  0  0  0  0  0  0  0  0  0
  140.6140   75.1080  221.7200 C   0  0  0  0  0  0  0  0  0  0  0  0
  139.7110   74.0880  222.1540 N   0  0  0  0  0  0  0  0  0  0  0  0
  139.8620   72.7130  221.7250 C   0  0  0  0  0  0  0  0  0  0  0  0
  138.6140   71.9930  222.0420 C   0  0  0  0  0  0  0  0  0  0  0  0
  137.4810   72.4370  221.6530 O   0  0  0  0  0  0  0  0  0  0  0  0
  138.5670   70.7800  222.7860 N   0  0  0  0  0  0  0  0  0  0  0  0
  138.5550   69.4750  222.1730 C   0  0  0  0  0  0  0  0  0  0  0  0
  138.0250   68.5150  223.2160 C   0  0  0  0  0  0  0  0  0  0  0  0
  137.5370   69.4390  224.3210 C   0  0  0  0  0  0  0  0  0  0  0  0
  138.5240   70.5810  224.2230 C   0  0  1  0  0  0  0  0  0  0  0  0
  139.9200   70.1490  224.6200 C   0  0  0  0  0  0  0  0  0  0  0  0
  140.3390   70.6640  225.9450 C   0  0  0  0  0  0  0  0  0  0  0  0
  139.9880   69.9860  227.0890 C   0  0  0  0  0  0  0  0  0  0  0  0
  140.3980   70.4990  228.3010 C   0  0  0  0  0  0  0  0  0  0  0  0
  141.1350   71.6570  228.3460 C   0  0  0  0  0  0  0  0  0  0  0  0
  141.4430   72.2730  227.1540 C   0  0  0  0  0  0  0  0  0  0  0  0
  141.0620   71.8050  225.9520 N   0  0  0  0  0  0  0  0  0  0  0  0
  140.4130   76.4800  222.1840 C   0  0  0  0  0  0  0  0  0  0  0  0
  139.1050   76.9270  222.3550 C   0  0  0  0  0  0  0  0  0  0  0  0
  138.9100   78.2220  222.7920 C   0  0  0  0  0  0  0  0  0  0  0  0
  139.9650   79.0690  223.0610 C   0  0  0  0  0  0  0  0  0  0  0  0
  139.7800   80.3670  223.4990 C   0  0  0  0  0  0  0  0  0  0  0  0
  140.8570   81.2140  223.7680 C   0  0  0  0  0  0  0  0  0  0  0  0
  142.1380   80.6990  223.5760 C   0  0  0  0  0  0  0  0  0  0  0  0
  142.3360   79.3970  223.1360 C   0  0  0  0  0  0  0  0  0  0  0  0
  141.2580   78.5740  222.8750 C   0  0  0  0  0  0  0  0  0  0  0  0
  141.4390   77.3100  222.4490 N   0  0  0  0  0  0  0  0  0  0  0  0
  138.9270   74.3910  222.8030 H   0  0  0  0  0  0  0  0  0  0  0  0
  140.0468   72.6790  220.6412 H   0  0  0  0  0  0  0  0  0  0  0  0
  140.7131   72.2446  222.2410 H   0  0  0  0  0  0  0  0  0  0  0  0
  137.8995   69.4761  221.2896 H   0  0  0  0  0  0  0  0  0  0  0  0
  139.5616   69.1833  221.8389 H   0  0  0  0  0  0  0  0  0  0  0  0
  137.1987   67.9111  222.8129 H   0  0  0  0  0  0  0  0  0  0  0  0
  138.7788   67.7914  223.5597 H   0  0  0  0  0  0  0  0  0  0  0  0
  136.5084   69.7806  224.1331 H   0  0  0  0  0  0  0  0  0  0  0  0
  137.4975   68.9665  225.3136 H   0  0  0  0  0  0  0  0  0  0  0  0
  138.2404   71.4377  224.8520 H   0  0  0  0  0  0  0  0  0  0  0  0
  139.9507   69.0498  224.6471 H   0  0  0  0  0  0  0  0  0  0  0  0
  140.6138   70.5651  223.8747 H   0  0  0  0  0  0  0  0  0  0  0  0
  139.3965   69.0600  227.0382 H   0  0  0  0  0  0  0  0  0  0  0  0
  140.1343   69.9797  229.2342 H   0  0  0  0  0  0  0  0  0  0  0  0
  141.4690   72.0794  229.3052 H   0  0  0  0  0  0  0  0  0  0  0  0
  142.0340   73.2002  227.1864 H   0  0  0  0  0  0  0  0  0  0  0  0
  138.2505   76.2661  222.1475 H   0  0  0  0  0  0  0  0  0  0  0  0
  137.8824   78.5894  222.9298 H   0  0  0  0  0  0  0  0  0  0  0  0
  138.7559   80.7431  223.6395 H   0  0  0  0  0  0  0  0  0  0  0  0
  140.7010   82.2454  224.1171 H   0  0  0  0  0  0  0  0  0  0  0  0
  143.0107   81.3377  223.7774 H   0  0  0  0  0  0  0  0  0  0  0  0
  143.3590   79.0182  222.9943 H   0  0  0  0  0  0  0  0  0  0  0  0
  1  2  2  0
  2  3  1  0
  3  4  1  0
  4  5  1  0
  5  6  2  0
  5  7  1  0
  7  8  1  0
  8  9  1  0
  9 10  1  0
 10 11  1  0
 11 12  1  0
 12 13  1  0
 13 14  2  0
 14 15  1  0
 15 16  2  0
 16 17  1  0
 17 18  2  0
  2 19  1  0
 19 20  2  0
 20 21  1  0
 21 22  2  0
 22 23  1  0
 23 24  2  0
 24 25  1  0
 25 26  2  0
 26 27  1  0
 27 28  2  0
 11  7  1  0
 18 13  1  0
 28 19  1  0
 27 22  1  0
  3 29  1  0
  4 30  1  0
  4 31  1  0
  8 32  1  0
  8 33  1  0
  9 34  1  0
  9 35  1  0
 10 36  1  0
 10 37  1  0
 11 38  1  1
 12 39  1  0
 12 40  1  0
 14 41  1  0
 15 42  1  0
 16 43  1  0
 17 44  1  0
 20 45  1  0
 21 46  1  0
 23 47  1  0
 24 48  1  0
 25 49  1  0
 26 50  1  0
M  END
>  <smiles>  (90) 
O=C(NCC(=O)N1CCCC1Cc1ccccn1)c1ccc2ccccc2n1

>  <score_type>  (90) 
oracle

>  <origin>  (90) 
autodockgpu

>  <m_score__min__energy>  (90) 
-8.8800000000000008

>  <m_primary>  (90) 
energy

>  <rmsd>  (90) 
8.307171599636714

>  <m_score__min__rmsd>  (90) 
8.307171599636714

>  <meeko>  (90) 
{"free_energy": -8.44, "intermolecular_energy": -10.23, "internal_energy": -1.28, "cluster_size": 13, "cluster_id": 2, "rank_in_cluster": 8}

>  <energy>  (90) 
-8.45

>  <cluster_rmsd>  (90) 
0.1

>  <cluster>  (90) 
3

$$$$

     RDKit          3D

 50 53  0  0  0  0  0  0  0  0999 V2000
  137.3630   76.3330  222.0350 O   0  0  0  0  0  0  0  0  0  0  0  0
  138.5840   76.3830  222.3430 C   0  0  0  0  0  0  0  0  0  0  0  0
  139.3600   75.1810  222.3310 N   0  0  0  0  0  0  0  0  0  0  0  0
  138.7720   73.9060  221.9740 C   0  0  0  0  0  0  0  0  0  0  0  0
  139.7380   72.8440  222.3120 C   0  0  0  0  0  0  0  0  0  0  0  0
  140.9940   73.0780  222.3300 O   0  0  0  0  0  0  0  0  0  0  0  0
  139.3650   71.5090  222.6380 N   0  0  0  0  0  0  0  0  0  0  0  0
  139.4340   70.4170  221.7010 C   0  0  0  0  0  0  0  0  0  0  0  0
  138.5320   69.3290  222.2410 C   0  0  0  0  0  0  0  0  0  0  0  0
  137.8060   70.0180  223.3860 C   0  0  0  0  0  0  0  0  0  0  0  0
  138.8660   70.9720  223.8900 C   0  0  1  0  0  0  0  0  0  0  0  0
  140.0320   70.2330  224.5130 C   0  0  0  0  0  0  0  0  0  0  0  0
  140.3710   70.7130  225.8730 C   0  0  0  0  0  0  0  0  0  0  0  0
  139.9390   70.0160  226.9780 C   0  0  0  0  0  0  0  0  0  0  0  0
  140.2760   70.4960  228.2250 C   0  0  0  0  0  0  0  0  0  0  0  0
  141.0230   71.6420  228.3420 C   0  0  0  0  0  0  0  0  0  0  0  0
  141.4160   72.2800  227.1870 C   0  0  0  0  0  0  0  0  0  0  0  0
  141.1070   71.8430  225.9530 N   0  0  0  0  0  0  0  0  0  0  0  0
  139.2290   77.6420  222.7120 C   0  0  0  0  0  0  0  0  0  0  0  0
  138.4140   78.7140  223.0690 C   0  0  0  0  0  0  0  0  0  0  0  0
  139.0180   79.9050  223.4190 C   0  0  0  0  0  0  0  0  0  0  0  0
  140.3890   80.0540  223.4240 C   0  0  0  0  0  0  0  0  0  0  0  0
  141.0030   81.2420  223.7720 C   0  0  0  0  0  0  0  0  0  0  0  0
  142.3920   81.3810  223.7730 C   0  0  0  0  0  0  0  0  0  0  0  0
  143.1450   80.2670  223.4060 C   0  0  0  0  0  0  0  0  0  0  0  0
  142.5400   79.0690  223.0540 C   0  0  0  0  0  0  0  0  0  0  0  0
  141.1640   78.9510  223.0580 C   0  0  0  0  0  0  0  0  0  0  0  0
  140.5670   77.7930  222.7190 N   0  0  0  0  0  0  0  0  0  0  0  0
  140.3830   75.2730  222.5980 H   0  0  0  0  0  0  0  0  0  0  0  0
  137.8396   73.7548  222.5377 H   0  0  0  0  0  0  0  0  0  0  0  0
  138.5401   73.8815  220.8990 H   0  0  0  0  0  0  0  0  0  0  0  0
  139.0843   70.7436  220.7106 H   0  0  0  0  0  0  0  0  0  0  0  0
  140.4669   70.0564  221.5862 H   0  0  0  0  0  0  0  0  0  0  0  0
  137.8228   68.9869  221.4729 H   0  0  0  0  0  0  0  0  0  0  0  0
  139.0812   68.4297  222.5567 H   0  0  0  0  0  0  0  0  0  0  0  0
  136.9166   70.5584  223.0297 H   0  0  0  0  0  0  0  0  0  0  0  0
  137.4247   69.3279  224.1531 H   0  0  0  0  0  0  0  0  0  0  0  0
  138.4745   71.6815  224.6339 H   0  0  0  0  0  0  0  0  0  0  0  0
  139.7762   69.1649  224.5735 H   0  0  0  0  0  0  0  0  0  0  0  0
  140.9101   70.4136  223.8756 H   0  0  0  0  0  0  0  0  0  0  0  0
  139.3403   69.0997  226.8688 H   0  0  0  0  0  0  0  0  0  0  0  0
  139.9462   69.9605  229.1275 H   0  0  0  0  0  0  0  0  0  0  0  0
  141.2995   72.0389  229.3299 H   0  0  0  0  0  0  0  0  0  0  0  0
  142.0157   73.1976  227.2784 H   0  0  0  0  0  0  0  0  0  0  0  0
  137.3186   78.6141  223.0719 H   0  0  0  0  0  0  0  0  0  0  0  0
  138.3871   80.7604  223.7023 H   0  0  0  0  0  0  0  0  0  0  0  0
  140.3796   82.1025  224.0563 H   0  0  0  0  0  0  0  0  0  0  0  0
  142.8724   82.3304  224.0519 H   0  0  0  0  0  0  0  0  0  0  0  0
  144.2426   80.3391  223.3952 H   0  0  0  0  0  0  0  0  0  0  0  0
  143.1610   78.2067  222.7696 H   0  0  0  0  0  0  0  0  0  0  0  0
  1  2  2  0
  2  3  1  0
  3  4  1  0
  4  5  1  0
  5  6  2  0
  5  7  1  0
  7  8  1  0
  8  9  1  0
  9 10  1  0
 10 11  1  0
 11 12  1  0
 12 13  1  0
 13 14  2  0
 14 15  1  0
 15 16  2  0
 16 17  1  0
 17 18  2  0
  2 19  1  0
 19 20  2  0
 20 21  1  0
 21 22  2  0
 22 23  1  0
 23 24  2  0
 24 25  1  0
 25 26  2  0
 26 27  1  0
 27 28  2  0
 11  7  1  0
 18 13  1  0
 28 19  1  0
 27 22  1  0
  3 29  1  0
  4 30  1  0
  4 31  1  0
  8 32  1  0
  8 33  1  0
  9 34  1  0
  9 35  1  0
 10 36  1  0
 10 37  1  0
 11 38  1  1
 12 39  1  0
 12 40  1  0
 14 41  1  0
 15 42  1  0
 16 43  1  0
 17 44  1  0
 20 45  1  0
 21 46  1  0
 23 47  1  0
 24 48  1  0
 25 49  1  0
 26 50  1  0
M  END
>  <smiles>  (91) 
O=C(NCC(=O)N1CCCC1Cc1ccccn1)c1ccc2ccccc2n1

>  <score_type>  (91) 
oracle

>  <origin>  (91) 
autodockgpu

>  <m_score__min__energy>  (91) 
-8.8800000000000008

>  <m_primary>  (91) 
energy

>  <rmsd>  (91) 
8.391540335850575

>  <m_score__min__rmsd>  (91) 
8.391540335850575

>  <meeko>  (91) 
{"free_energy": -8.61, "intermolecular_energy": -10.4, "internal_energy": -1.9, "cluster_size": 13, "cluster_id": 2, "rank_in_cluster": 2}

>  <energy>  (91) 
-8.44

>  <cluster_rmsd>  (91) 
0.09

>  <cluster>  (91) 
3

$$$$

     RDKit          3D

 50 53  0  0  0  0  0  0  0  0999 V2000
  140.0830   70.9740  221.1770 O   0  0  0  0  0  0  0  0  0  0  0  0
  139.9150   71.6090  222.2520 C   0  0  0  0  0  0  0  0  0  0  0  0
  139.7310   73.0260  222.2090 N   0  0  0  0  0  0  0  0  0  0  0  0
  139.7340   73.7500  220.9540 C   0  0  0  0  0  0  0  0  0  0  0  0
  140.1690   75.1340  221.2220 C   0  0  0  0  0  0  0  0  0  0  0  0
  139.9930   75.6680  222.3700 O   0  0  0  0  0  0  0  0  0  0  0  0
  140.8020   75.9660  220.2560 N   0  0  0  0  0  0  0  0  0  0  0  0
  140.3800   76.0440  218.8810 C   0  0  0  0  0  0  0  0  0  0  0  0
  141.5460   76.6180  218.1050 C   0  0  0  0  0  0  0  0  0  0  0  0
  142.6780   76.6040  219.1210 C   0  0  0  0  0  0  0  0  0  0  0  0
  141.9330   76.8630  220.4120 C   0  0  1  0  0  0  0  0  0  0  0  0
  141.3470   78.2590  220.4500 C   0  0  0  0  0  0  0  0  0  0  0  0
  141.6650   78.9930  221.6970 C   0  0  0  0  0  0  0  0  0  0  0  0
  141.4300   78.4080  222.9200 C   0  0  0  0  0  0  0  0  0  0  0  0
  141.7410   79.1260  224.0550 C   0  0  0  0  0  0  0  0  0  0  0  0
  142.2690   80.3890  223.9490 C   0  0  0  0  0  0  0  0  0  0  0  0
  142.4730   80.9010  222.6870 C   0  0  0  0  0  0  0  0  0  0  0  0
  142.1830   80.2330  221.5560 N   0  0  0  0  0  0  0  0  0  0  0  0
  139.9040   70.9300  223.5470 C   0  0  0  0  0  0  0  0  0  0  0  0
  139.3790   69.6410  223.6050 C   0  0  0  0  0  0  0  0  0  0  0  0
  139.3650   68.9960  224.8250 C   0  0  0  0  0  0  0  0  0  0  0  0
  139.8540   69.5900  225.9700 C   0  0  0  0  0  0  0  0  0  0  0  0
  139.8450   68.9520  227.1970 C   0  0  0  0  0  0  0  0  0  0  0  0
  140.3430   69.5640  228.3490 C   0  0  0  0  0  0  0  0  0  0  0  0
  140.8540   70.8540  228.2170 C   0  0  0  0  0  0  0  0  0  0  0  0
  140.8680   71.5050  226.9900 C   0  0  0  0  0  0  0  0  0  0  0  0
  140.3700   70.8830  225.8620 C   0  0  0  0  0  0  0  0  0  0  0  0
  140.3800   71.5040  224.6670 N   0  0  0  0  0  0  0  0  0  0  0  0
  139.5940   73.5170  223.1390 H   0  0  0  0  0  0  0  0  0  0  0  0
  140.4295   73.2708  220.2492 H   0  0  0  0  0  0  0  0  0  0  0  0
  138.7272   73.7469  220.5109 H   0  0  0  0  0  0  0  0  0  0  0  0
  140.1287   75.0419  218.5033 H   0  0  0  0  0  0  0  0  0  0  0  0
  139.4838   76.6730  218.7752 H   0  0  0  0  0  0  0  0  0  0  0  0
  141.7886   75.9900  217.2350 H   0  0  0  0  0  0  0  0  0  0  0  0
  141.3430   77.6196  217.6981 H   0  0  0  0  0  0  0  0  0  0  0  0
  143.1876   75.6293  219.1405 H   0  0  0  0  0  0  0  0  0  0  0  0
  143.4757   77.3319  218.9115 H   0  0  0  0  0  0  0  0  0  0  0  0
  142.5714   76.7371  221.2989 H   0  0  0  0  0  0  0  0  0  0  0  0
  141.7460   78.8287  219.5978 H   0  0  0  0  0  0  0  0  0  0  0  0
  140.2530   78.1551  220.4024 H   0  0  0  0  0  0  0  0  0  0  0  0
  141.0057   77.3955  222.9901 H   0  0  0  0  0  0  0  0  0  0  0  0
  141.5657   78.6860  225.0478 H   0  0  0  0  0  0  0  0  0  0  0  0
  142.5215   80.9744  224.8454 H   0  0  0  0  0  0  0  0  0  0  0  0
  142.8966   81.9123  222.5989 H   0  0  0  0  0  0  0  0  0  0  0  0
  138.9860   69.1503  222.7024 H   0  0  0  0  0  0  0  0  0  0  0  0
  138.9518   67.9784  224.8862 H   0  0  0  0  0  0  0  0  0  0  0  0
  139.4341   67.9341  227.2674 H   0  0  0  0  0  0  0  0  0  0  0  0
  140.3325   69.0491  229.3210 H   0  0  0  0  0  0  0  0  0  0  0  0
  141.2548   71.3675  229.1034 H   0  0  0  0  0  0  0  0  0  0  0  0
  141.2785   72.5229  226.9163 H   0  0  0  0  0  0  0  0  0  0  0  0
  1  2  2  0
  2  3  1  0
  3  4  1  0
  4  5  1  0
  5  6  2  0
  5  7  1  0
  7  8  1  0
  8  9  1  0
  9 10  1  0
 10 11  1  0
 11 12  1  0
 12 13  1  0
 13 14  2  0
 14 15  1  0
 15 16  2  0
 16 17  1  0
 17 18  2  0
  2 19  1  0
 19 20  2  0
 20 21  1  0
 21 22  2  0
 22 23  1  0
 23 24  2  0
 24 25  1  0
 25 26  2  0
 26 27  1  0
 27 28  2  0
 11  7  1  0
 18 13  1  0
 28 19  1  0
 27 22  1  0
  3 29  1  0
  4 30  1  0
  4 31  1  0
  8 32  1  0
  8 33  1  0
  9 34  1  0
  9 35  1  0
 10 36  1  0
 10 37  1  0
 11 38  1  1
 12 39  1  0
 12 40  1  0
 14 41  1  0
 15 42  1  0
 16 43  1  0
 17 44  1  0
 20 45  1  0
 21 46  1  0
 23 47  1  0
 24 48  1  0
 25 49  1  0
 26 50  1  0
M  END
>  <smiles>  (92) 
O=C(NCC(=O)N1CCCC1Cc1ccccn1)c1ccc2ccccc2n1

>  <score_type>  (92) 
oracle

>  <origin>  (92) 
autodockgpu

>  <m_score__min__energy>  (92) 
-8.8800000000000008

>  <m_primary>  (92) 
energy

>  <rmsd>  (92) 
1.3566844776457734

>  <m_score__min__rmsd>  (92) 
1.3566844776457734

>  <meeko>  (92) 
{"free_energy": -8.69, "intermolecular_energy": -10.48, "internal_energy": -1.82, "cluster_size": 24, "cluster_id": 1, "rank_in_cluster": 8}

>  <energy>  (92) 
-8.4

>  <cluster_rmsd>  (92) 
0.15

>  <cluster>  (92) 
3

$$$$

     RDKit          3D

 50 53  0  0  0  0  0  0  0  0999 V2000
  139.8120   74.8400  219.6880 O   0  0  0  0  0  0  0  0  0  0  0  0
  139.9250   75.2800  220.8630 C   0  0  0  0  0  0  0  0  0  0  0  0
  139.4470   74.4920  221.9570 N   0  0  0  0  0  0  0  0  0  0  0  0
  138.8340   73.1980  221.7430 C   0  0  0  0  0  0  0  0  0  0  0  0
  139.3940   72.2550  222.7300 C   0  0  0  0  0  0  0  0  0  0  0  0
  140.3680   72.5950  223.4840 O   0  0  0  0  0  0  0  0  0  0  0  0
  138.9130   70.9290  222.9200 N   0  0  0  0  0  0  0  0  0  0  0  0
  138.8820   69.9410  221.8710 C   0  0  0  0  0  0  0  0  0  0  0  0
  137.8970   68.8790  222.3100 C   0  0  0  0  0  0  0  0  0  0  0  0
  137.2410   69.5000  223.5340 C   0  0  0  0  0  0  0  0  0  0  0  0
  138.3820   70.3040  224.1170 C   0  0  1  0  0  0  0  0  0  0  0  0
  139.4870   69.4090  224.6380 C   0  0  0  0  0  0  0  0  0  0  0  0
  140.0530   69.8680  225.9290 C   0  0  0  0  0  0  0  0  0  0  0  0
  140.4580   71.1740  226.0780 C   0  0  0  0  0  0  0  0  0  0  0  0
  140.9780   71.5590  227.2950 C   0  0  0  0  0  0  0  0  0  0  0  0
  141.0800   70.6510  228.3190 C   0  0  0  0  0  0  0  0  0  0  0  0
  140.6510   69.3630  228.0870 C   0  0  0  0  0  0  0  0  0  0  0  0
  140.1390   68.9480  226.9140 N   0  0  0  0  0  0  0  0  0  0  0  0
  140.5350   76.5810  221.1370 C   0  0  0  0  0  0  0  0  0  0  0  0
  140.8870   77.3790  220.0500 C   0  0  0  0  0  0  0  0  0  0  0  0
  141.4630   78.6070  220.3040 C   0  0  0  0  0  0  0  0  0  0  0  0
  141.6930   79.0560  221.5880 C   0  0  0  0  0  0  0  0  0  0  0  0
  142.2700   80.2840  221.8520 C   0  0  0  0  0  0  0  0  0  0  0  0
  142.4970   80.7260  223.1560 C   0  0  0  0  0  0  0  0  0  0  0  0
  142.1180   79.8760  224.1940 C   0  0  0  0  0  0  0  0  0  0  0  0
  141.5390   78.6400  223.9410 C   0  0  0  0  0  0  0  0  0  0  0  0
  141.3220   78.2190  222.6440 C   0  0  0  0  0  0  0  0  0  0  0  0
  140.7610   77.0230  222.3880 N   0  0  0  0  0  0  0  0  0  0  0  0
  139.5630   74.9050  222.9270 H   0  0  0  0  0  0  0  0  0  0  0  0
  137.7449   73.2748  221.8773 H   0  0  0  0  0  0  0  0  0  0  0  0
  139.0376   72.8448  220.7213 H   0  0  0  0  0  0  0  0  0  0  0  0
  138.5514   70.3991  220.9272 H   0  0  0  0  0  0  0  0  0  0  0  0
  139.8800   69.5114  221.6995 H   0  0  0  0  0  0  0  0  0  0  0  0
  137.1549   68.6795  221.5229 H   0  0  0  0  0  0  0  0  0  0  0  0
  138.3722   67.9094  222.5198 H   0  0  0  0  0  0  0  0  0  0  0  0
  136.3972   70.1470  223.2522 H   0  0  0  0  0  0  0  0  0  0  0  0
  136.8094   68.7662  224.2306 H   0  0  0  0  0  0  0  0  0  0  0  0
  138.0584   70.9600  224.9385 H   0  0  0  0  0  0  0  0  0  0  0  0
  139.0805   68.3961  224.7753 H   0  0  0  0  0  0  0  0  0  0  0  0
  140.3011   69.4319  223.8986 H   0  0  0  0  0  0  0  0  0  0  0  0
  140.3693   71.8914  225.2488 H   0  0  0  0  0  0  0  0  0  0  0  0
  141.3119   72.5962  227.4458 H   0  0  0  0  0  0  0  0  0  0  0  0
  141.4922   70.9433  229.2961 H   0  0  0  0  0  0  0  0  0  0  0  0
  140.7314   68.6331  228.9061 H   0  0  0  0  0  0  0  0  0  0  0  0
  140.7106   77.0396  219.0187 H   0  0  0  0  0  0  0  0  0  0  0  0
  141.7476   79.2477  219.4564 H   0  0  0  0  0  0  0  0  0  0  0  0
  142.5584   80.9311  221.0105 H   0  0  0  0  0  0  0  0  0  0  0  0
  142.9562   81.7052  223.3567 H   0  0  0  0  0  0  0  0  0  0  0  0
  142.2812   80.1913  225.2351 H   0  0  0  0  0  0  0  0  0  0  0  0
  141.2507   77.9906  224.7807 H   0  0  0  0  0  0  0  0  0  0  0  0
  1  2  2  0
  2  3  1  0
  3  4  1  0
  4  5  1  0
  5  6  2  0
  5  7  1  0
  7  8  1  0
  8  9  1  0
  9 10  1  0
 10 11  1  0
 11 12  1  0
 12 13  1  0
 13 14  2  0
 14 15  1  0
 15 16  2  0
 16 17  1  0
 17 18  2  0
  2 19  1  0
 19 20  2  0
 20 21  1  0
 21 22  2  0
 22 23  1  0
 23 24  2  0
 24 25  1  0
 25 26  2  0
 26 27  1  0
 27 28  2  0
 11  7  1  0
 18 13  1  0
 28 19  1  0
 27 22  1  0
  3 29  1  0
  4 30  1  0
  4 31  1  0
  8 32  1  0
  8 33  1  0
  9 34  1  0
  9 35  1  0
 10 36  1  0
 10 37  1  0
 11 38  1  1
 12 39  1  0
 12 40  1  0
 14 41  1  0
 15 42  1  0
 16 43  1  0
 17 44  1  0
 20 45  1  0
 21 46  1  0
 23 47  1  0
 24 48  1  0
 25 49  1  0
 26 50  1  0
M  END
>  <smiles>  (93) 
O=C(NCC(=O)N1CCCC1Cc1ccccn1)c1ccc2ccccc2n1

>  <score_type>  (93) 
oracle

>  <origin>  (93) 
autodockgpu

>  <m_score__min__energy>  (93) 
-8.8800000000000008

>  <m_primary>  (93) 
energy

>  <rmsd>  (93) 
8.28508340508025

>  <m_score__min__rmsd>  (93) 
8.28508340508025

>  <meeko>  (93) 
{"free_energy": -8.02, "intermolecular_energy": -9.81, "internal_energy": -1.75, "cluster_size": 13, "cluster_id": 2, "rank_in_cluster": 13}

>  <energy>  (93) 
-8.4

>  <cluster_rmsd>  (93) 
0.17

>  <cluster>  (93) 
3

$$$$

     RDKit          3D

 50 53  0  0  0  0  0  0  0  0999 V2000
  137.2310   76.1550  222.2470 O   0  0  0  0  0  0  0  0  0  0  0  0
  138.4810   76.2670  222.3620 C   0  0  0  0  0  0  0  0  0  0  0  0
  139.3100   75.1160  222.1770 N   0  0  0  0  0  0  0  0  0  0  0  0
  138.7430   73.8210  221.8600 C   0  0  0  0  0  0  0  0  0  0  0  0
  139.6830   72.7830  222.3210 C   0  0  0  0  0  0  0  0  0  0  0  0
  140.9270   73.0380  222.4630 O   0  0  0  0  0  0  0  0  0  0  0  0
  139.2970   71.4500  222.6390 N   0  0  0  0  0  0  0  0  0  0  0  0
  139.3750   70.3580  221.7010 C   0  0  0  0  0  0  0  0  0  0  0  0
  138.4580   69.2740  222.2240 C   0  0  0  0  0  0  0  0  0  0  0  0
  137.7160   69.9670  223.3580 C   0  0  0  0  0  0  0  0  0  0  0  0
  138.7740   70.9130  223.8820 C   0  0  1  0  0  0  0  0  0  0  0  0
  139.9250   70.1670  224.5230 C   0  0  0  0  0  0  0  0  0  0  0  0
  140.2890   70.6880  225.8610 C   0  0  0  0  0  0  0  0  0  0  0  0
  141.0540   71.8270  225.9720 C   0  0  0  0  0  0  0  0  0  0  0  0
  141.3700   72.2790  227.2350 C   0  0  0  0  0  0  0  0  0  0  0  0
  140.9240   71.5980  228.3410 C   0  0  0  0  0  0  0  0  0  0  0  0
  140.1630   70.4680  228.1430 C   0  0  0  0  0  0  0  0  0  0  0  0
  139.8340   69.9950  226.9270 N   0  0  0  0  0  0  0  0  0  0  0  0
  139.1070   77.5490  222.6820 C   0  0  0  0  0  0  0  0  0  0  0  0
  138.2750   78.6270  222.9790 C   0  0  0  0  0  0  0  0  0  0  0  0
  138.8610   79.8390  223.2810 C   0  0  0  0  0  0  0  0  0  0  0  0
  140.2310   80.0050  223.2960 C   0  0  0  0  0  0  0  0  0  0  0  0
  140.8270   81.2150  223.5970 C   0  0  0  0  0  0  0  0  0  0  0  0
  142.2150   81.3700  223.6080 C   0  0  0  0  0  0  0  0  0  0  0  0
  142.9850   80.2500  223.3020 C   0  0  0  0  0  0  0  0  0  0  0  0
  142.3970   79.0290  222.9980 C   0  0  0  0  0  0  0  0  0  0  0  0
  141.0230   78.8960  222.9910 C   0  0  0  0  0  0  0  0  0  0  0  0
  140.4430   77.7160  222.6980 N   0  0  0  0  0  0  0  0  0  0  0  0
  140.3560   75.2600  222.2850 H   0  0  0  0  0  0  0  0  0  0  0  0
  137.7764   73.7021  222.3714 H   0  0  0  0  0  0  0  0  0  0  0  0
  138.5795   73.7321  220.7759 H   0  0  0  0  0  0  0  0  0  0  0  0
  139.0435   70.6882  220.7055 H   0  0  0  0  0  0  0  0  0  0  0  0
  140.4075   69.9916  221.6030 H   0  0  0  0  0  0  0  0  0  0  0  0
  137.7601   68.9366  221.4435 H   0  0  0  0  0  0  0  0  0  0  0  0
  138.9965   68.3711  222.5477 H   0  0  0  0  0  0  0  0  0  0  0  0
  136.8369   70.5142  222.9869 H   0  0  0  0  0  0  0  0  0  0  0  0
  137.3163   69.2786  224.1172 H   0  0  0  0  0  0  0  0  0  0  0  0
  138.3744   71.6227  224.6213 H   0  0  0  0  0  0  0  0  0  0  0  0
  139.6413   69.1092  224.6257 H   0  0  0  0  0  0  0  0  0  0  0  0
  140.8018   70.3000  223.8723 H   0  0  0  0  0  0  0  0  0  0  0  0
  141.4037   72.3620  225.0767 H   0  0  0  0  0  0  0  0  0  0  0  0
  141.9800   73.1861  227.3573 H   0  0  0  0  0  0  0  0  0  0  0  0
  141.1678   71.9454  229.3558 H   0  0  0  0  0  0  0  0  0  0  0  0
  139.8041   69.9216  229.0277 H   0  0  0  0  0  0  0  0  0  0  0  0
  137.1808   78.5145  222.9728 H   0  0  0  0  0  0  0  0  0  0  0  0
  138.2168   80.6989  223.5169 H   0  0  0  0  0  0  0  0  0  0  0  0
  140.1905   82.0801  223.8345 H   0  0  0  0  0  0  0  0  0  0  0  0
  142.6812   82.3369  223.8484 H   0  0  0  0  0  0  0  0  0  0  0  0
  144.0817   80.3345  223.3011 H   0  0  0  0  0  0  0  0  0  0  0  0
  143.0308   78.1617  222.7611 H   0  0  0  0  0  0  0  0  0  0  0  0
  1  2  2  0
  2  3  1  0
  3  4  1  0
  4  5  1  0
  5  6  2  0
  5  7  1  0
  7  8  1  0
  8  9  1  0
  9 10  1  0
 10 11  1  0
 11 12  1  0
 12 13  1  0
 13 14  2  0
 14 15  1  0
 15 16  2  0
 16 17  1  0
 17 18  2  0
  2 19  1  0
 19 20  2  0
 20 21  1  0
 21 22  2  0
 22 23  1  0
 23 24  2  0
 24 25  1  0
 25 26  2  0
 26 27  1  0
 27 28  2  0
 11  7  1  0
 18 13  1  0
 28 19  1  0
 27 22  1  0
  3 29  1  0
  4 30  1  0
  4 31  1  0
  8 32  1  0
  8 33  1  0
  9 34  1  0
  9 35  1  0
 10 36  1  0
 10 37  1  0
 11 38  1  1
 12 39  1  0
 12 40  1  0
 14 41  1  0
 15 42  1  0
 16 43  1  0
 17 44  1  0
 20 45  1  0
 21 46  1  0
 23 47  1  0
 24 48  1  0
 25 49  1  0
 26 50  1  0
M  END
>  <smiles>  (94) 
O=C(NCC(=O)N1CCCC1Cc1ccccn1)c1ccc2ccccc2n1

>  <score_type>  (94) 
oracle

>  <origin>  (94) 
autodockgpu

>  <m_score__min__energy>  (94) 
-8.8800000000000008

>  <m_primary>  (94) 
energy

>  <rmsd>  (94) 
8.386135628292248

>  <m_score__min__rmsd>  (94) 
8.386135628292248

>  <meeko>  (94) 
{"free_energy": -8.52, "intermolecular_energy": -10.31, "internal_energy": -1.98, "cluster_size": 13, "cluster_id": 2, "rank_in_cluster": 4}

>  <energy>  (94) 
-8.26

>  <cluster_rmsd>  (94) 
0.53

>  <cluster>  (94) 
3

$$$$

     RDKit          3D

 50 53  0  0  0  0  0  0  0  0999 V2000
  133.9830   69.2870  226.5040 O   0  0  0  0  0  0  0  0  0  0  0  0
  134.2990   70.3890  225.9800 C   0  0  0  0  0  0  0  0  0  0  0  0
  135.2880   70.4180  224.9480 N   0  0  0  0  0  0  0  0  0  0  0  0
  135.9370   69.2060  224.4910 C   0  0  0  0  0  0  0  0  0  0  0  0
  137.3920   69.3680  224.6710 C   0  0  0  0  0  0  0  0  0  0  0  0
  138.0360   68.6470  225.5070 O   0  0  0  0  0  0  0  0  0  0  0  0
  138.1790   70.3120  223.9510 N   0  0  0  0  0  0  0  0  0  0  0  0
  137.6390   71.5200  223.3800 C   0  0  0  0  0  0  0  0  0  0  0  0
  138.6270   71.9780  222.3290 C   0  0  0  0  0  0  0  0  0  0  0  0
  139.5880   70.8040  222.2240 C   0  0  0  0  0  0  0  0  0  0  0  0
  139.5970   70.2870  223.6450 C   0  0  1  0  0  0  0  0  0  0  0  0
  140.2390   71.2760  224.5960 C   0  0  0  0  0  0  0  0  0  0  0  0
  140.5370   70.6980  225.9280 C   0  0  0  0  0  0  0  0  0  0  0  0
  140.6750   71.5230  227.0210 C   0  0  0  0  0  0  0  0  0  0  0  0
  140.9520   70.9460  228.2410 C   0  0  0  0  0  0  0  0  0  0  0  0
  141.0820   69.5820  228.3450 C   0  0  0  0  0  0  0  0  0  0  0  0
  140.9280   68.8290  227.2020 C   0  0  0  0  0  0  0  0  0  0  0  0
  140.6590   69.3550  225.9940 N   0  0  0  0  0  0  0  0  0  0  0  0
  133.6770   71.6430  226.4040 C   0  0  0  0  0  0  0  0  0  0  0  0
  132.5160   71.5700  227.1710 C   0  0  0  0  0  0  0  0  0  0  0  0
  131.9250   72.7510  227.5720 C   0  0  0  0  0  0  0  0  0  0  0  0
  132.4500   73.9820  227.2380 C   0  0  0  0  0  0  0  0  0  0  0  0
  131.8660   75.1700  227.6350 C   0  0  0  0  0  0  0  0  0  0  0  0
  132.4080   76.4090  227.2900 C   0  0  0  0  0  0  0  0  0  0  0  0
  133.5710   76.4060  226.5220 C   0  0  0  0  0  0  0  0  0  0  0  0
  134.1670   75.2190  226.1170 C   0  0  0  0  0  0  0  0  0  0  0  0
  133.6150   74.0030  226.4680 C   0  0  0  0  0  0  0  0  0  0  0  0
  134.1860   72.8460  226.0800 N   0  0  0  0  0  0  0  0  0  0  0  0
  135.5210   71.3690  224.5380 H   0  0  0  0  0  0  0  0  0  0  0  0
  135.5818   68.3480  225.0807 H   0  0  0  0  0  0  0  0  0  0  0  0
  135.7024   69.0249  223.4317 H   0  0  0  0  0  0  0  0  0  0  0  0
  136.6606   71.3182  222.9195 H   0  0  0  0  0  0  0  0  0  0  0  0
  137.4908   72.2919  224.1496 H   0  0  0  0  0  0  0  0  0  0  0  0
  138.1240   72.1637  221.3685 H   0  0  0  0  0  0  0  0  0  0  0  0
  139.1261   72.9235  222.5876 H   0  0  0  0  0  0  0  0  0  0  0  0
  139.2158   70.0427  221.5227 H   0  0  0  0  0  0  0  0  0  0  0  0
  140.5831   71.0744  221.8410 H   0  0  0  0  0  0  0  0  0  0  0  0
  140.1272   69.3280  223.7407 H   0  0  0  0  0  0  0  0  0  0  0  0
  141.1804   71.6291  224.1498 H   0  0  0  0  0  0  0  0  0  0  0  0
  139.5208   72.0950  224.7489 H   0  0  0  0  0  0  0  0  0  0  0  0
  140.5671   72.6133  226.9231 H   0  0  0  0  0  0  0  0  0  0  0  0
  141.0693   71.5783  229.1334 H   0  0  0  0  0  0  0  0  0  0  0  0
  141.3024   69.1059  229.3118 H   0  0  0  0  0  0  0  0  0  0  0  0
  141.0308   67.7367  227.2818 H   0  0  0  0  0  0  0  0  0  0  0  0
  132.0825   70.5980  227.4492 H   0  0  0  0  0  0  0  0  0  0  0  0
  131.0070   72.7093  228.1766 H   0  0  0  0  0  0  0  0  0  0  0  0
  130.9479   75.1381  228.2401 H   0  0  0  0  0  0  0  0  0  0  0  0
  131.9365   77.3495  227.6111 H   0  0  0  0  0  0  0  0  0  0  0  0
  134.0263   77.3640  226.2306 H   0  0  0  0  0  0  0  0  0  0  0  0
  135.0854   75.2476  225.5123 H   0  0  0  0  0  0  0  0  0  0  0  0
  1  2  2  0
  2  3  1  0
  3  4  1  0
  4  5  1  0
  5  6  2  0
  5  7  1  0
  7  8  1  0
  8  9  1  0
  9 10  1  0
 10 11  1  0
 11 12  1  0
 12 13  1  0
 13 14  2  0
 14 15  1  0
 15 16  2  0
 16 17  1  0
 17 18  2  0
  2 19  1  0
 19 20  2  0
 20 21  1  0
 21 22  2  0
 22 23  1  0
 23 24  2  0
 24 25  1  0
 25 26  2  0
 26 27  1  0
 27 28  2  0
 11  7  1  0
 18 13  1  0
 28 19  1  0
 27 22  1  0
  3 29  1  0
  4 30  1  0
  4 31  1  0
  8 32  1  0
  8 33  1  0
  9 34  1  0
  9 35  1  0
 10 36  1  0
 10 37  1  0
 11 38  1  6
 12 39  1  0
 12 40  1  0
 14 41  1  0
 15 42  1  0
 16 43  1  0
 17 44  1  0
 20 45  1  0
 21 46  1  0
 23 47  1  0
 24 48  1  0
 25 49  1  0
 26 50  1  0
M  END
>  <smiles>  (95) 
O=C(NCC(=O)N1CCCC1Cc1ccccn1)c1ccc2ccccc2n1

>  <score_type>  (95) 
oracle

>  <origin>  (95) 
autodockgpu

>  <m_score__min__energy>  (95) 
-8.8800000000000008

>  <m_primary>  (95) 
energy

>  <rmsd>  (95) 
7.7265223173098345

>  <m_score__min__rmsd>  (95) 
7.7265223173098345

>  <meeko>  (95) 
{"free_energy": -8.12, "intermolecular_energy": -9.91, "internal_energy": -1.63, "cluster_size": 3, "cluster_id": 4, "rank_in_cluster": 1}

>  <energy>  (95) 
-8.23

>  <cluster_rmsd>  (95) 
0.26

>  <cluster>  (95) 
3

$$$$

     RDKit          3D

 50 53  0  0  0  0  0  0  0  0999 V2000
  140.1300   71.2620  221.1820 O   0  0  0  0  0  0  0  0  0  0  0  0
  139.9510   71.8770  222.2670 C   0  0  0  0  0  0  0  0  0  0  0  0
  139.7580   73.2940  222.2460 N   0  0  0  0  0  0  0  0  0  0  0  0
  139.7650   74.0390  221.0040 C   0  0  0  0  0  0  0  0  0  0  0  0
  140.6170   75.2300  221.1870 C   0  0  0  0  0  0  0  0  0  0  0  0
  141.0630   75.5480  222.3410 O   0  0  0  0  0  0  0  0  0  0  0  0
  141.0020   76.0980  220.1270 N   0  0  0  0  0  0  0  0  0  0  0  0
  140.3290   76.1390  218.8530 C   0  0  0  0  0  0  0  0  0  0  0  0
  141.2900   76.7870  217.8800 C   0  0  0  0  0  0  0  0  0  0  0  0
  142.5880   76.8580  218.6690 C   0  0  0  0  0  0  0  0  0  0  0  0
  142.0770   77.0710  220.0770 C   0  0  1  0  0  0  0  0  0  0  0  0
  141.4140   78.4240  220.2330 C   0  0  0  0  0  0  0  0  0  0  0  0
  141.6800   79.0590  221.5450 C   0  0  0  0  0  0  0  0  0  0  0  0
  141.3970   78.3810  222.7080 C   0  0  0  0  0  0  0  0  0  0  0  0
  141.6590   79.0080  223.9070 C   0  0  0  0  0  0  0  0  0  0  0  0
  142.1890   80.2750  223.9210 C   0  0  0  0  0  0  0  0  0  0  0  0
  142.4430   80.8830  222.7120 C   0  0  0  0  0  0  0  0  0  0  0  0
  142.2010   80.3050  221.5220 N   0  0  0  0  0  0  0  0  0  0  0  0
  139.9350   71.1760  223.5500 C   0  0  0  0  0  0  0  0  0  0  0  0
  139.3970   69.8910  223.5860 C   0  0  0  0  0  0  0  0  0  0  0  0
  139.3800   69.2250  224.7950 C   0  0  0  0  0  0  0  0  0  0  0  0
  139.8760   69.7940  225.9490 C   0  0  0  0  0  0  0  0  0  0  0  0
  139.8630   69.1360  227.1650 C   0  0  0  0  0  0  0  0  0  0  0  0
  140.3690   69.7230  228.3260 C   0  0  0  0  0  0  0  0  0  0  0  0
  140.8920   71.0100  228.2150 C   0  0  0  0  0  0  0  0  0  0  0  0
  140.9100   71.6810  227.0000 C   0  0  0  0  0  0  0  0  0  0  0  0
  140.4050   71.0840  225.8620 C   0  0  0  0  0  0  0  0  0  0  0  0
  140.4190   71.7260  224.6790 N   0  0  0  0  0  0  0  0  0  0  0  0
  139.6120   73.7680  223.1840 H   0  0  0  0  0  0  0  0  0  0  0  0
  140.1696   73.4121  220.1957 H   0  0  0  0  0  0  0  0  0  0  0  0
  138.7418   74.3407  220.7355 H   0  0  0  0  0  0  0  0  0  0  0  0
  140.0816   75.1199  218.5210 H   0  0  0  0  0  0  0  0  0  0  0  0
  139.3877   76.7043  218.9184 H   0  0  0  0  0  0  0  0  0  0  0  0
  141.4109   76.1718  216.9762 H   0  0  0  0  0  0  0  0  0  0  0  0
  140.9468   77.7698  217.5246 H   0  0  0  0  0  0  0  0  0  0  0  0
  143.1594   75.9217  218.5868 H   0  0  0  0  0  0  0  0  0  0  0  0
  143.2807   77.6386  218.3215 H   0  0  0  0  0  0  0  0  0  0  0  0
  142.8752   76.9934  220.8299 H   0  0  0  0  0  0  0  0  0  0  0  0
  141.7878   79.0894  219.4408 H   0  0  0  0  0  0  0  0  0  0  0  0
  140.3279   78.2648  220.1622 H   0  0  0  0  0  0  0  0  0  0  0  0
  140.9732   77.3662  222.6817 H   0  0  0  0  0  0  0  0  0  0  0  0
  141.4432   78.4927  224.8546 H   0  0  0  0  0  0  0  0  0  0  0  0
  142.4041   80.7886  224.8697 H   0  0  0  0  0  0  0  0  0  0  0  0
  142.8674   81.8978  222.7199 H   0  0  0  0  0  0  0  0  0  0  0  0
  138.9968   69.4203  222.6759 H   0  0  0  0  0  0  0  0  0  0  0  0
  138.9582   68.2101  224.8392 H   0  0  0  0  0  0  0  0  0  0  0  0
  139.4420   68.1212  227.2190 H   0  0  0  0  0  0  0  0  0  0  0  0
  140.3555   69.1915  229.2890 H   0  0  0  0  0  0  0  0  0  0  0  0
  141.2992   71.5046  229.1092 H   0  0  0  0  0  0  0  0  0  0  0  0
  141.3298   72.6962  226.9433 H   0  0  0  0  0  0  0  0  0  0  0  0
  1  2  2  0
  2  3  1  0
  3  4  1  0
  4  5  1  0
  5  6  2  0
  5  7  1  0
  7  8  1  0
  8  9  1  0
  9 10  1  0
 10 11  1  0
 11 12  1  0
 12 13  1  0
 13 14  2  0
 14 15  1  0
 15 16  2  0
 16 17  1  0
 17 18  2  0
  2 19  1  0
 19 20  2  0
 20 21  1  0
 21 22  2  0
 22 23  1  0
 23 24  2  0
 24 25  1  0
 25 26  2  0
 26 27  1  0
 27 28  2  0
 11  7  1  0
 18 13  1  0
 28 19  1  0
 27 22  1  0
  3 29  1  0
  4 30  1  0
  4 31  1  0
  8 32  1  0
  8 33  1  0
  9 34  1  0
  9 35  1  0
 10 36  1  0
 10 37  1  0
 11 38  1  1
 12 39  1  0
 12 40  1  0
 14 41  1  0
 15 42  1  0
 16 43  1  0
 17 44  1  0
 20 45  1  0
 21 46  1  0
 23 47  1  0
 24 48  1  0
 25 49  1  0
 26 50  1  0
M  END
>  <smiles>  (96) 
O=C(NCC(=O)N1CCCC1Cc1ccccn1)c1ccc2ccccc2n1

>  <score_type>  (96) 
oracle

>  <origin>  (96) 
autodockgpu

>  <m_score__min__energy>  (96) 
-8.8800000000000008

>  <m_primary>  (96) 
energy

>  <rmsd>  (96) 
1.3519402316939428

>  <m_score__min__rmsd>  (96) 
1.3519402316939428

>  <meeko>  (96) 
{"free_energy": -8.65, "intermolecular_energy": -10.44, "internal_energy": -1.67, "cluster_size": 24, "cluster_id": 1, "rank_in_cluster": 10}

>  <energy>  (96) 
-7.69

>  <cluster_rmsd>  (96) 
0.64

>  <cluster>  (96) 
3

$$$$

     RDKit          3D

 50 53  0  0  0  0  0  0  0  0999 V2000
  140.0440   71.0950  221.1420 O   0  0  0  0  0  0  0  0  0  0  0  0
  139.9140   71.7390  222.2180 C   0  0  0  0  0  0  0  0  0  0  0  0
  139.7900   73.1630  222.1730 N   0  0  0  0  0  0  0  0  0  0  0  0
  139.8100   73.8830  220.9170 C   0  0  0  0  0  0  0  0  0  0  0  0
  140.4110   75.2090  221.1570 C   0  0  0  0  0  0  0  0  0  0  0  0
  140.5490   75.6640  222.3430 O   0  0  0  0  0  0  0  0  0  0  0  0
  140.8760   76.0670  220.1200 N   0  0  0  0  0  0  0  0  0  0  0  0
  140.2590   76.1430  218.8190 C   0  0  0  0  0  0  0  0  0  0  0  0
  141.2850   76.7560  217.8910 C   0  0  0  0  0  0  0  0  0  0  0  0
  142.5510   76.7680  218.7340 C   0  0  0  0  0  0  0  0  0  0  0  0
  141.9920   76.9940  220.1220 C   0  0  1  0  0  0  0  0  0  0  0  0
  141.3790   78.3720  220.2600 C   0  0  0  0  0  0  0  0  0  0  0  0
  141.6940   79.0260  221.5520 C   0  0  0  0  0  0  0  0  0  0  0  0
  142.2080   80.3020  221.5710 C   0  0  0  0  0  0  0  0  0  0  0  0
  142.4870   80.8740  222.7940 C   0  0  0  0  0  0  0  0  0  0  0  0
  142.2500   80.1740  223.9510 C   0  0  0  0  0  0  0  0  0  0  0  0
  141.7330   78.9020  223.8440 C   0  0  0  0  0  0  0  0  0  0  0  0
  141.4480   78.3100  222.6700 N   0  0  0  0  0  0  0  0  0  0  0  0
  139.8890   71.0640  223.5150 C   0  0  0  0  0  0  0  0  0  0  0  0
  139.3610   69.7750  223.5700 C   0  0  0  0  0  0  0  0  0  0  0  0
  139.3350   69.1340  224.7920 C   0  0  0  0  0  0  0  0  0  0  0  0
  139.8130   69.7300  225.9410 C   0  0  0  0  0  0  0  0  0  0  0  0
  139.7900   69.0960  227.1690 C   0  0  0  0  0  0  0  0  0  0  0  0
  140.2770   69.7100  228.3240 C   0  0  0  0  0  0  0  0  0  0  0  0
  140.7910   70.9990  228.1940 C   0  0  0  0  0  0  0  0  0  0  0  0
  140.8180   71.6460  226.9660 C   0  0  0  0  0  0  0  0  0  0  0  0
  140.3320   71.0220  225.8340 C   0  0  0  0  0  0  0  0  0  0  0  0
  140.3540   71.6410  224.6380 N   0  0  0  0  0  0  0  0  0  0  0  0
  139.6840   73.6610  223.1050 H   0  0  0  0  0  0  0  0  0  0  0  0
  140.4103   73.3297  220.1798 H   0  0  0  0  0  0  0  0  0  0  0  0
  138.7880   73.9936  220.5254 H   0  0  0  0  0  0  0  0  0  0  0  0
  139.9840   75.1368  218.4697 H   0  0  0  0  0  0  0  0  0  0  0  0
  139.3400   76.7467  218.8497 H   0  0  0  0  0  0  0  0  0  0  0  0
  141.4177   76.1415  216.9883 H   0  0  0  0  0  0  0  0  0  0  0  0
  140.9979   77.7542  217.5287 H   0  0  0  0  0  0  0  0  0  0  0  0
  143.0859   75.8090  218.6682 H   0  0  0  0  0  0  0  0  0  0  0  0
  143.2890   77.5213  218.4213 H   0  0  0  0  0  0  0  0  0  0  0  0
  142.7546   76.8788  220.9063 H   0  0  0  0  0  0  0  0  0  0  0  0
  141.7588   79.0064  219.4456 H   0  0  0  0  0  0  0  0  0  0  0  0
  140.2868   78.2493  220.2142 H   0  0  0  0  0  0  0  0  0  0  0  0
  142.3914   80.8510  220.6356 H   0  0  0  0  0  0  0  0  0  0  0  0
  142.9000   81.8924  222.8428 H   0  0  0  0  0  0  0  0  0  0  0  0
  142.4667   80.6161  224.9347 H   0  0  0  0  0  0  0  0  0  0  0  0
  141.5426   78.3390  224.7696 H   0  0  0  0  0  0  0  0  0  0  0  0
  138.9759   69.2826  222.6649 H   0  0  0  0  0  0  0  0  0  0  0  0
  138.9205   68.1168  224.8518 H   0  0  0  0  0  0  0  0  0  0  0  0
  139.3763   68.0791  227.2380 H   0  0  0  0  0  0  0  0  0  0  0  0
  140.2560   69.1975  229.2971 H   0  0  0  0  0  0  0  0  0  0  0  0
  141.1835   71.5144  229.0830 H   0  0  0  0  0  0  0  0  0  0  0  0
  141.2297   72.6635  226.8942 H   0  0  0  0  0  0  0  0  0  0  0  0
  1  2  2  0
  2  3  1  0
  3  4  1  0
  4  5  1  0
  5  6  2  0
  5  7  1  0
  7  8  1  0
  8  9  1  0
  9 10  1  0
 10 11  1  0
 11 12  1  0
 12 13  1  0
 13 14  2  0
 14 15  1  0
 15 16  2  0
 16 17  1  0
 17 18  2  0
  2 19  1  0
 19 20  2  0
 20 21  1  0
 21 22  2  0
 22 23  1  0
 23 24  2  0
 24 25  1  0
 25 26  2  0
 26 27  1  0
 27 28  2  0
 11  7  1  0
 18 13  1  0
 28 19  1  0
 27 22  1  0
  3 29  1  0
  4 30  1  0
  4 31  1  0
  8 32  1  0
  8 33  1  0
  9 34  1  0
  9 35  1  0
 10 36  1  0
 10 37  1  0
 11 38  1  1
 12 39  1  0
 12 40  1  0
 14 41  1  0
 15 42  1  0
 16 43  1  0
 17 44  1  0
 20 45  1  0
 21 46  1  0
 23 47  1  0
 24 48  1  0
 25 49  1  0
 26 50  1  0
M  END
>  <smiles>  (97) 
O=C(NCC(=O)N1CCCC1Cc1ccccn1)c1ccc2ccccc2n1

>  <score_type>  (97) 
oracle

>  <origin>  (97) 
autodockgpu

>  <m_score__min__energy>  (97) 
-8.8800000000000008

>  <m_primary>  (97) 
energy

>  <rmsd>  (97) 
1.3219525799346883

>  <m_score__min__rmsd>  (97) 
1.3219525799346883

>  <meeko>  (97) 
{"free_energy": -8.58, "intermolecular_energy": -10.37, "internal_energy": -1.8, "cluster_size": 24, "cluster_id": 1, "rank_in_cluster": 16}

>  <energy>  (97) 
-8.12

>  <cluster_rmsd>  (97) 
0.0

>  <cluster>  (97) 
4

$$$$

     RDKit          3D

 50 53  0  0  0  0  0  0  0  0999 V2000
  139.9780   71.2070  221.1880 O   0  0  0  0  0  0  0  0  0  0  0  0
  139.8990   71.8340  222.2790 C   0  0  0  0  0  0  0  0  0  0  0  0
  139.7990   73.2610  222.2630 N   0  0  0  0  0  0  0  0  0  0  0  0
  139.7880   74.0020  221.0190 C   0  0  0  0  0  0  0  0  0  0  0  0
  140.6220   75.2070  221.1950 C   0  0  0  0  0  0  0  0  0  0  0  0
  141.0700   75.5340  222.3460 O   0  0  0  0  0  0  0  0  0  0  0  0
  140.9860   76.0800  220.1310 N   0  0  0  0  0  0  0  0  0  0  0  0
  140.2950   76.1180  218.8670 C   0  0  0  0  0  0  0  0  0  0  0  0
  141.2360   76.7760  217.8820 C   0  0  0  0  0  0  0  0  0  0  0  0
  142.5450   76.8550  218.6540 C   0  0  0  0  0  0  0  0  0  0  0  0
  142.0530   77.0620  220.0690 C   0  0  1  0  0  0  0  0  0  0  0  0
  141.3810   78.4090  220.2360 C   0  0  0  0  0  0  0  0  0  0  0  0
  141.6880   79.0590  221.5320 C   0  0  0  0  0  0  0  0  0  0  0  0
  141.4360   78.3970  222.7120 C   0  0  0  0  0  0  0  0  0  0  0  0
  141.7360   79.0370  223.8950 C   0  0  0  0  0  0  0  0  0  0  0  0
  142.2710   80.3010  223.8770 C   0  0  0  0  0  0  0  0  0  0  0  0
  142.4920   80.8930  222.6540 C   0  0  0  0  0  0  0  0  0  0  0  0
  142.2130   80.3020  221.4790 N   0  0  0  0  0  0  0  0  0  0  0  0
  139.9060   71.1360  223.5640 C   0  0  0  0  0  0  0  0  0  0  0  0
  139.4150   69.8330  223.6030 C   0  0  0  0  0  0  0  0  0  0  0  0
  139.4190   69.1700  224.8140 C   0  0  0  0  0  0  0  0  0  0  0  0
  139.8930   69.7600  225.9670 C   0  0  0  0  0  0  0  0  0  0  0  0
  139.9020   69.1050  227.1850 C   0  0  0  0  0  0  0  0  0  0  0  0
  140.3840   69.7130  228.3450 C   0  0  0  0  0  0  0  0  0  0  0  0
  140.8610   71.0170  228.2310 C   0  0  0  0  0  0  0  0  0  0  0  0
  140.8570   71.6860  227.0140 C   0  0  0  0  0  0  0  0  0  0  0  0
  140.3750   71.0680  225.8770 C   0  0  0  0  0  0  0  0  0  0  0  0
  140.3680   71.7070  224.6920 N   0  0  0  0  0  0  0  0  0  0  0  0
  139.7360   73.7440  223.2060 H   0  0  0  0  0  0  0  0  0  0  0  0
  140.1987   73.3793  220.2106 H   0  0  0  0  0  0  0  0  0  0  0  0
  138.7589   74.2864  220.7542 H   0  0  0  0  0  0  0  0  0  0  0  0
  140.0516   75.0975  218.5363 H   0  0  0  0  0  0  0  0  0  0  0  0
  139.3500   76.6753  218.9471 H   0  0  0  0  0  0  0  0  0  0  0  0
  141.3490   76.1641  216.9749 H   0  0  0  0  0  0  0  0  0  0  0  0
  140.8800   77.7567  217.5335 H   0  0  0  0  0  0  0  0  0  0  0  0
  143.1218   75.9229  218.5621 H   0  0  0  0  0  0  0  0  0  0  0  0
  143.2269   77.6414  218.2983 H   0  0  0  0  0  0  0  0  0  0  0  0
  142.8620   76.9900  220.8109 H   0  0  0  0  0  0  0  0  0  0  0  0
  141.7183   79.0707  219.4246 H   0  0  0  0  0  0  0  0  0  0  0  0
  140.2948   78.2379  220.2058 H   0  0  0  0  0  0  0  0  0  0  0  0
  141.0067   77.3842  222.7109 H   0  0  0  0  0  0  0  0  0  0  0  0
  141.5465   78.5343  224.8549 H   0  0  0  0  0  0  0  0  0  0  0  0
  142.5159   80.8255  224.8124 H   0  0  0  0  0  0  0  0  0  0  0  0
  142.9207   81.9059  222.6371 H   0  0  0  0  0  0  0  0  0  0  0  0
  139.0343   69.3454  222.6934 H   0  0  0  0  0  0  0  0  0  0  0  0
  139.0329   68.1411  224.8606 H   0  0  0  0  0  0  0  0  0  0  0  0
  139.5183   68.0756  227.2410 H   0  0  0  0  0  0  0  0  0  0  0  0
  140.3872   69.1844  229.3097 H   0  0  0  0  0  0  0  0  0  0  0  0
  141.2493   71.5279  229.1245 H   0  0  0  0  0  0  0  0  0  0  0  0
  141.2404   72.7153  226.9553 H   0  0  0  0  0  0  0  0  0  0  0  0
  1  2  2  0
  2  3  1  0
  3  4  1  0
  4  5  1  0
  5  6  2  0
  5  7  1  0
  7  8  1  0
  8  9  1  0
  9 10  1  0
 10 11  1  0
 11 12  1  0
 12 13  1  0
 13 14  2  0
 14 15  1  0
 15 16  2  0
 16 17  1  0
 17 18  2  0
  2 19  1  0
 19 20  2  0
 20 21  1  0
 21 22  2  0
 22 23  1  0
 23 24  2  0
 24 25  1  0
 25 26  2  0
 26 27  1  0
 27 28  2  0
 11  7  1  0
 18 13  1  0
 28 19  1  0
 27 22  1  0
  3 29  1  0
  4 30  1  0
  4 31  1  0
  8 32  1  0
  8 33  1  0
  9 34  1  0
  9 35  1  0
 10 36  1  0
 10 37  1  0
 11 38  1  1
 12 39  1  0
 12 40  1  0
 14 41  1  0
 15 42  1  0
 16 43  1  0
 17 44  1  0
 20 45  1  0
 21 46  1  0
 23 47  1  0
 24 48  1  0
 25 49  1  0
 26 50  1  0
M  END
>  <smiles>  (98) 
O=C(NCC(=O)N1CCCC1Cc1ccccn1)c1ccc2ccccc2n1

>  <score_type>  (98) 
oracle

>  <origin>  (98) 
autodockgpu

>  <m_score__min__energy>  (98) 
-8.8800000000000008

>  <m_primary>  (98) 
energy

>  <rmsd>  (98) 
1.3312545367558057

>  <m_score__min__rmsd>  (98) 
1.3312545367558057

>  <meeko>  (98) 
{"free_energy": -8.56, "intermolecular_energy": -10.35, "internal_energy": -1.77, "cluster_size": 24, "cluster_id": 1, "rank_in_cluster": 17}

>  <energy>  (98) 
-8.06

>  <cluster_rmsd>  (98) 
0.52

>  <cluster>  (98) 
4

$$$$

     RDKit          3D

 50 53  0  0  0  0  0  0  0  0999 V2000
  137.1620   76.2050  222.4830 O   0  0  0  0  0  0  0  0  0  0  0  0
  138.4150   76.3380  222.4560 C   0  0  0  0  0  0  0  0  0  0  0  0
  139.2350   75.1990  222.1810 N   0  0  0  0  0  0  0  0  0  0  0  0
  138.6570   73.8940  221.9340 C   0  0  0  0  0  0  0  0  0  0  0  0
  139.6500   72.8720  222.3150 C   0  0  0  0  0  0  0  0  0  0  0  0
  140.8960   73.1500  222.3610 O   0  0  0  0  0  0  0  0  0  0  0  0
  139.3140   71.5300  222.6530 N   0  0  0  0  0  0  0  0  0  0  0  0
  139.3910   70.4360  221.7190 C   0  0  0  0  0  0  0  0  0  0  0  0
  138.5260   69.3290  222.2800 C   0  0  0  0  0  0  0  0  0  0  0  0
  137.8050   70.0060  223.4360 C   0  0  0  0  0  0  0  0  0  0  0  0
  138.8520   70.9870  223.9170 C   0  0  1  0  0  0  0  0  0  0  0  0
  140.0460   70.2780  224.5200 C   0  0  0  0  0  0  0  0  0  0  0  0
  140.3820   70.7530  225.8830 C   0  0  0  0  0  0  0  0  0  0  0  0
  139.9480   70.0500  226.9840 C   0  0  0  0  0  0  0  0  0  0  0  0
  140.2820   70.5260  228.2340 C   0  0  0  0  0  0  0  0  0  0  0  0
  141.0280   71.6720  228.3570 C   0  0  0  0  0  0  0  0  0  0  0  0
  141.4220   72.3150  227.2050 C   0  0  0  0  0  0  0  0  0  0  0  0
  141.1170   71.8830  225.9690 N   0  0  0  0  0  0  0  0  0  0  0  0
  139.0520   77.6310  222.7000 C   0  0  0  0  0  0  0  0  0  0  0  0
  138.2310   78.7470  222.8480 C   0  0  0  0  0  0  0  0  0  0  0  0
  138.8280   79.9700  223.0780 C   0  0  0  0  0  0  0  0  0  0  0  0
  140.1980   80.1090  223.1640 C   0  0  0  0  0  0  0  0  0  0  0  0
  140.8050   81.3300  223.3940 C   0  0  0  0  0  0  0  0  0  0  0  0
  142.1920   81.4580  223.4790 C   0  0  0  0  0  0  0  0  0  0  0  0
  142.9510   80.3000  223.3220 C   0  0  0  0  0  0  0  0  0  0  0  0
  142.3530   79.0680  223.0900 C   0  0  0  0  0  0  0  0  0  0  0  0
  140.9780   78.9620  223.0090 C   0  0  0  0  0  0  0  0  0  0  0  0
  140.3880   77.7730  222.7850 N   0  0  0  0  0  0  0  0  0  0  0  0
  140.2840   75.3600  222.1700 H   0  0  0  0  0  0  0  0  0  0  0  0
  137.7450   73.7703  222.5365 H   0  0  0  0  0  0  0  0  0  0  0  0
  138.3924   73.7900  220.8714 H   0  0  0  0  0  0  0  0  0  0  0  0
  139.0146   70.7501  220.7343 H   0  0  0  0  0  0  0  0  0  0  0  0
  140.4298   70.0997  221.5858 H   0  0  0  0  0  0  0  0  0  0  0  0
  137.8110   68.9665  221.5268 H   0  0  0  0  0  0  0  0  0  0  0  0
  139.1024   68.4445  222.5888 H   0  0  0  0  0  0  0  0  0  0  0  0
  136.8969   70.5241  223.0941 H   0  0  0  0  0  0  0  0  0  0  0  0
  137.4540   69.3105  224.2126 H   0  0  0  0  0  0  0  0  0  0  0  0
  138.4588   71.6903  224.6659 H   0  0  0  0  0  0  0  0  0  0  0  0
  139.8246   69.2017  224.5699 H   0  0  0  0  0  0  0  0  0  0  0  0
  140.9121   70.4932  223.8769 H   0  0  0  0  0  0  0  0  0  0  0  0
  139.3509   69.1333  226.8696 H   0  0  0  0  0  0  0  0  0  0  0  0
  139.9504   69.9870  229.1338 H   0  0  0  0  0  0  0  0  0  0  0  0
  141.3029   72.0650  229.3469 H   0  0  0  0  0  0  0  0  0  0  0  0
  142.0197   73.2334  227.3014 H   0  0  0  0  0  0  0  0  0  0  0  0
  137.1367   78.6558  222.7833 H   0  0  0  0  0  0  0  0  0  0  0  0
  138.1927   80.8602  223.1962 H   0  0  0  0  0  0  0  0  0  0  0  0
  140.1771   82.2253  223.5133 H   0  0  0  0  0  0  0  0  0  0  0  0
  142.6667   82.4332  223.6624 H   0  0  0  0  0  0  0  0  0  0  0  0
  144.0475   80.3629  223.3831 H   0  0  0  0  0  0  0  0  0  0  0  0
  142.9783   78.1710  222.9700 H   0  0  0  0  0  0  0  0  0  0  0  0
  1  2  2  0
  2  3  1  0
  3  4  1  0
  4  5  1  0
  5  6  2  0
  5  7  1  0
  7  8  1  0
  8  9  1  0
  9 10  1  0
 10 11  1  0
 11 12  1  0
 12 13  1  0
 13 14  2  0
 14 15  1  0
 15 16  2  0
 16 17  1  0
 17 18  2  0
  2 19  1  0
 19 20  2  0
 20 21  1  0
 21 22  2  0
 22 23  1  0
 23 24  2  0
 24 25  1  0
 25 26  2  0
 26 27  1  0
 27 28  2  0
 11  7  1  0
 18 13  1  0
 28 19  1  0
 27 22  1  0
  3 29  1  0
  4 30  1  0
  4 31  1  0
  8 32  1  0
  8 33  1  0
  9 34  1  0
  9 35  1  0
 10 36  1  0
 10 37  1  0
 11 38  1  1
 12 39  1  0
 12 40  1  0
 14 41  1  0
 15 42  1  0
 16 43  1  0
 17 44  1  0
 20 45  1  0
 21 46  1  0
 23 47  1  0
 24 48  1  0
 25 49  1  0
 26 50  1  0
M  END
>  <smiles>  (99) 
O=C(NCC(=O)N1CCCC1Cc1ccccn1)c1ccc2ccccc2n1

>  <score_type>  (99) 
oracle

>  <origin>  (99) 
autodockgpu

>  <m_score__min__energy>  (99) 
-8.8800000000000008

>  <m_primary>  (99) 
energy

>  <rmsd>  (99) 
8.430927335671376

>  <m_score__min__rmsd>  (99) 
8.430927335671376

>  <meeko>  (99) 
{"free_energy": -8.54, "intermolecular_energy": -10.33, "internal_energy": -1.93, "cluster_size": 13, "cluster_id": 2, "rank_in_cluster": 3}

>  <energy>  (99) 
-7.88

>  <cluster_rmsd>  (99) 
1.44

>  <cluster>  (99) 
4

$$$$

     RDKit          3D

 50 53  0  0  0  0  0  0  0  0999 V2000
  141.0980   71.6320  221.4070 O   0  0  0  0  0  0  0  0  0  0  0  0
  140.3520   72.1180  222.3000 C   0  0  0  0  0  0  0  0  0  0  0  0
  139.7050   73.3720  222.0670 N   0  0  0  0  0  0  0  0  0  0  0  0
  139.8890   74.0970  220.8260 C   0  0  0  0  0  0  0  0  0  0  0  0
  140.5140   75.3960  221.1410 C   0  0  0  0  0  0  0  0  0  0  0  0
  140.6010   75.8090  222.3470 O   0  0  0  0  0  0  0  0  0  0  0  0
  141.0560   76.2720  220.1590 N   0  0  0  0  0  0  0  0  0  0  0  0
  140.6190   76.2890  218.7860 C   0  0  0  0  0  0  0  0  0  0  0  0
  141.7170   76.9630  217.9920 C   0  0  0  0  0  0  0  0  0  0  0  0
  142.8520   77.0750  218.9990 C   0  0  0  0  0  0  0  0  0  0  0  0
  142.0940   77.2770  220.2930 C   0  0  1  0  0  0  0  0  0  0  0  0
  141.3750   78.6100  220.3170 C   0  0  0  0  0  0  0  0  0  0  0  0
  141.6280   79.3890  221.5520 C   0  0  0  0  0  0  0  0  0  0  0  0
  141.9190   78.7390  222.7290 C   0  0  0  0  0  0  0  0  0  0  0  0
  142.1470   79.5010  223.8540 C   0  0  0  0  0  0  0  0  0  0  0  0
  142.0820   80.8710  223.7840 C   0  0  0  0  0  0  0  0  0  0  0  0
  141.7850   81.4420  222.5660 C   0  0  0  0  0  0  0  0  0  0  0  0
  141.5560   80.7340  221.4470 N   0  0  0  0  0  0  0  0  0  0  0  0
  140.1320   71.4300  223.5710 C   0  0  0  0  0  0  0  0  0  0  0  0
  139.3280   70.2920  223.5680 C   0  0  0  0  0  0  0  0  0  0  0  0
  139.1170   69.6400  224.7650 C   0  0  0  0  0  0  0  0  0  0  0  0
  139.6770   70.0810  225.9460 C   0  0  0  0  0  0  0  0  0  0  0  0
  139.4720   69.4350  227.1510 C   0  0  0  0  0  0  0  0  0  0  0  0
  140.0440   69.8910  228.3390 C   0  0  0  0  0  0  0  0  0  0  0  0
  140.8380   71.0350  228.2680 C   0  0  0  0  0  0  0  0  0  0  0  0
  141.0510   71.6930  227.0640 C   0  0  0  0  0  0  0  0  0  0  0  0
  140.4760   71.2260  225.8980 C   0  0  0  0  0  0  0  0  0  0  0  0
  140.6770   71.8560  224.7260 N   0  0  0  0  0  0  0  0  0  0  0  0
  139.0890   73.7420  222.8470 H   0  0  0  0  0  0  0  0  0  0  0  0
  140.5421   73.5229  220.1523 H   0  0  0  0  0  0  0  0  0  0  0  0
  138.9203   74.2514  220.3282 H   0  0  0  0  0  0  0  0  0  0  0  0
  140.4644   75.2618  218.4240 H   0  0  0  0  0  0  0  0  0  0  0  0
  139.6650   76.8262  218.6796 H   0  0  0  0  0  0  0  0  0  0  0  0
  142.0140   76.3491  217.1289 H   0  0  0  0  0  0  0  0  0  0  0  0
  141.4138   77.9336  217.5725 H   0  0  0  0  0  0  0  0  0  0  0  0
  143.4556   76.1558  219.0270 H   0  0  0  0  0  0  0  0  0  0  0  0
  143.5722   77.8752  218.7734 H   0  0  0  0  0  0  0  0  0  0  0  0
  142.7474   77.2259  221.1764 H   0  0  0  0  0  0  0  0  0  0  0  0
  141.7112   79.2039  219.4543 H   0  0  0  0  0  0  0  0  0  0  0  0
  140.2960   78.3995  220.2793 H   0  0  0  0  0  0  0  0  0  0  0  0
  141.9683   77.6409  222.7708 H   0  0  0  0  0  0  0  0  0  0  0  0
  142.3816   79.0109  224.8104 H   0  0  0  0  0  0  0  0  0  0  0  0
  142.2616   81.4933  224.6731 H   0  0  0  0  0  0  0  0  0  0  0  0
  141.7324   82.5391  222.5060 H   0  0  0  0  0  0  0  0  0  0  0  0
  138.8739   69.9236  222.6363 H   0  0  0  0  0  0  0  0  0  0  0  0
  138.4830   68.7412  224.7783 H   0  0  0  0  0  0  0  0  0  0  0  0
  138.8395   68.5353  227.1737 H   0  0  0  0  0  0  0  0  0  0  0  0
  139.8755   69.3694  229.2927 H   0  0  0  0  0  0  0  0  0  0  0  0
  141.3052   71.4242  229.1846 H   0  0  0  0  0  0  0  0  0  0  0  0
  141.6826   72.5932  227.0384 H   0  0  0  0  0  0  0  0  0  0  0  0
  1  2  2  0
  2  3  1  0
  3  4  1  0
  4  5  1  0
  5  6  2  0
  5  7  1  0
  7  8  1  0
  8  9  1  0
  9 10  1  0
 10 11  1  0
 11 12  1  0
 12 13  1  0
 13 14  2  0
 14 15  1  0
 15 16  2  0
 16 17  1  0
 17 18  2  0
  2 19  1  0
 19 20  2  0
 20 21  1  0
 21 22  2  0
 22 23  1  0
 23 24  2  0
 24 25  1  0
 25 26  2  0
 26 27  1  0
 27 28  2  0
 11  7  1  0
 18 13  1  0
 28 19  1  0
 27 22  1  0
  3 29  1  0
  4 30  1  0
  4 31  1  0
  8 32  1  0
  8 33  1  0
  9 34  1  0
  9 35  1  0
 10 36  1  0
 10 37  1  0
 11 38  1  1
 12 39  1  0
 12 40  1  0
 14 41  1  0
 15 42  1  0
 16 43  1  0
 17 44  1  0
 20 45  1  0
 21 46  1  0
 23 47  1  0
 24 48  1  0
 25 49  1  0
 26 50  1  0
M  END
>  <smiles>  (100) 
O=C(NCC(=O)N1CCCC1Cc1ccccn1)c1ccc2ccccc2n1

>  <score_type>  (100) 
oracle

>  <origin>  (100) 
autodockgpu

>  <m_score__min__energy>  (100) 
-8.8800000000000008

>  <m_primary>  (100) 
energy

>  <rmsd>  (100) 
1.6168184417295364

>  <m_score__min__rmsd>  (100) 
1.6168184417295364

>  <meeko>  (100) 
{"free_energy": -8.78, "intermolecular_energy": -10.57, "internal_energy": -1.42, "cluster_size": 24, "cluster_id": 1, "rank_in_cluster": 3}

>  <energy>  (100) 
-7.24

>  <cluster_rmsd>  (100) 
0.0

>  <cluster>  (100) 
5

$$$$
