
     RDKit          3D

 52 54  0  0  0  0  0  0  0  0999 V2000
  138.2530   79.6200  223.3860 C   0  0  0  0  0  0  0  0  0  0  0  0
  139.5450   78.9210  223.0730 N   0  0  0  0  0  0  0  0  0  0  0  0
  139.5900   78.8170  221.6480 C   0  0  0  0  0  0  0  0  0  0  0  0
  140.7700   78.0850  221.0760 C   0  0  0  0  0  0  0  0  0  0  0  0
  140.3070   76.7570  220.6520 N   0  0  0  0  0  0  0  0  0  0  0  0
  139.7460   75.8060  221.5070 C   0  0  0  0  0  0  0  0  0  0  0  0
  139.6070   76.0800  222.7560 O   0  0  0  0  0  0  0  0  0  0  0  0
  139.2710   74.4560  221.1220 C   0  0  0  0  0  0  0  0  0  0  0  0
  139.4050   73.4440  222.1120 N   0  0  0  0  0  0  0  0  0  0  0  0
  139.3200   72.0460  221.8890 C   0  0  0  0  0  0  0  0  0  0  0  0
  139.1020   71.5930  220.7300 O   0  0  0  0  0  0  0  0  0  0  0  0
  139.4860   71.1310  223.0210 C   0  0  0  0  0  0  0  0  0  0  0  0
  139.0660   69.8210  223.0000 C   0  0  0  0  0  0  0  0  0  0  0  0
  139.2160   68.9610  224.0490 C   0  0  0  0  0  0  0  0  0  0  0  0
  139.8280   69.4400  225.1980 C   0  0  0  0  0  0  0  0  0  0  0  0
  140.0240   68.6460  226.3090 C   0  0  0  0  0  0  0  0  0  0  0  0
  140.6430   69.2000  227.4180 C   0  0  0  0  0  0  0  0  0  0  0  0
  140.8790   68.1780  228.8100 Cl  0  0  0  0  0  0  0  0  0  0  0  0
  141.0740   70.4930  227.4770 C   0  0  0  0  0  0  0  0  0  0  0  0
  140.8720   71.2780  226.3560 C   0  0  0  0  0  0  0  0  0  0  0  0
  140.2490   70.7460  225.2240 C   0  0  0  0  0  0  0  0  0  0  0  0
  140.0760   71.5610  224.1530 N   0  0  0  0  0  0  0  0  0  0  0  0
  140.5160   79.8140  223.6720 C   0  0  0  0  0  0  0  0  0  0  0  0
  141.8520   79.1030  223.7980 C   0  0  0  0  0  0  0  0  0  0  0  0
  142.9100   80.1390  223.5200 C   0  0  0  0  0  0  0  0  0  0  0  0
  142.1930   81.4630  223.5630 C   0  0  0  0  0  0  0  0  0  0  0  0
  140.8120   81.0750  222.9960 C   0  0  0  0  0  0  0  0  0  0  0  0
  138.1277   79.6878  224.4767 H   0  0  0  0  0  0  0  0  0  0  0  0
  138.2699   80.6320  222.9553 H   0  0  0  0  0  0  0  0  0  0  0  0
  137.4152   79.0521  222.9553 H   0  0  0  0  0  0  0  0  0  0  0  0
  138.6792   78.2945  221.3202 H   0  0  0  0  0  0  0  0  0  0  0  0
  139.6756   79.8497  221.2789 H   0  0  0  0  0  0  0  0  0  0  0  0
  141.1703   78.6360  220.2122 H   0  0  0  0  0  0  0  0  0  0  0  0
  141.5686   77.9937  221.8270 H   0  0  0  0  0  0  0  0  0  0  0  0
  140.4160   76.5040  219.6370 H   0  0  0  0  0  0  0  0  0  0  0  0
  138.2048   74.5351  220.8633 H   0  0  0  0  0  0  0  0  0  0  0  0
  139.9138   74.1417  220.2865 H   0  0  0  0  0  0  0  0  0  0  0  0
  139.5850   73.7440  223.1000 H   0  0  0  0  0  0  0  0  0  0  0  0
  138.5820   69.4457  222.0863 H   0  0  0  0  0  0  0  0  0  0  0  0
  138.8629   67.9212  223.9854 H   0  0  0  0  0  0  0  0  0  0  0  0
  139.6960   67.5960  226.3144 H   0  0  0  0  0  0  0  0  0  0  0  0
  141.5615   70.8943  228.3777 H   0  0  0  0  0  0  0  0  0  0  0  0
  141.2036   72.3268  226.3557 H   0  0  0  0  0  0  0  0  0  0  0  0
  140.0237   80.0786  224.6194 H   0  0  0  0  0  0  0  0  0  0  0  0
  141.9734   78.6975  224.8133 H   0  0  0  0  0  0  0  0  0  0  0  0
  141.9239   78.2595  223.0956 H   0  0  0  0  0  0  0  0  0  0  0  0
  143.6965   80.1019  224.2882 H   0  0  0  0  0  0  0  0  0  0  0  0
  143.4026   79.9714  222.5509 H   0  0  0  0  0  0  0  0  0  0  0  0
  142.1135   81.8451  224.5914 H   0  0  0  0  0  0  0  0  0  0  0  0
  142.6982   82.2680  223.0092 H   0  0  0  0  0  0  0  0  0  0  0  0
  140.0578   81.8385  223.2374 H   0  0  0  0  0  0  0  0  0  0  0  0
  140.8046   80.9888  221.8994 H   0  0  0  0  0  0  0  0  0  0  0  0
  1  2  1  0
  2  3  1  0
  3  4  1  0
  4  5  1  0
  5  6  1  0
  6  7  2  0
  6  8  1  0
  8  9  1  0
  9 10  1  0
 10 11  2  0
 10 12  1  0
 12 13  2  0
 13 14  1  0
 14 15  2  0
 15 16  1  0
 16 17  2  0
 17 18  1  0
 17 19  1  0
 19 20  2  0
 20 21  1  0
 21 22  2  0
  2 23  1  0
 23 24  1  0
 24 25  1  0
 25 26  1  0
 26 27  1  0
 22 12  1  0
 27 23  1  0
 21 15  1  0
  1 28  1  0
  1 29  1  0
  1 30  1  0
  3 31  1  0
  3 32  1  0
  4 33  1  0
  4 34  1  0
  5 35  1  0
  8 36  1  0
  8 37  1  0
  9 38  1  0
 13 39  1  0
 14 40  1  0
 16 41  1  0
 19 42  1  0
 20 43  1  0
 23 44  1  0
 24 45  1  0
 24 46  1  0
 25 47  1  0
 25 48  1  0
 26 49  1  0
 26 50  1  0
 27 51  1  0
 27 52  1  0
M  END
>  <smiles>  (1) 
CN(CCNC(=O)CNC(=O)c1ccc2cc(Cl)ccc2n1)C1CCCC1

>  <score_type>  (1) 
oracle

>  <origin>  (1) 
autodockgpu

>  <m_score__min__energy>  (1) 
-8.4299999999999997

>  <m_primary>  (1) 
energy

>  <rmsd>  (1) 
5.700346916752521

>  <m_score__min__rmsd>  (1) 
5.700346916752521

>  <meeko>  (1) 
{"free_energy": -7.91, "intermolecular_energy": -10.0, "internal_energy": -1.76, "cluster_size": 21, "cluster_id": 1, "rank_in_cluster": 8}

>  <energy>  (1) 
-8.43

>  <cluster_rmsd>  (1) 
0.0

>  <cluster>  (1) 
1

$$$$

     RDKit          3D

 52 54  0  0  0  0  0  0  0  0999 V2000
  139.0330   78.7330  222.8700 C   0  0  0  0  0  0  0  0  0  0  0  0
  140.1640   77.9610  222.2520 N   0  0  0  0  0  0  0  0  0  0  0  0
  140.0190   78.1360  220.8400 C   0  0  0  0  0  0  0  0  0  0  0  0
  140.4910   76.9980  219.9820 C   0  0  0  0  0  0  0  0  0  0  0  0
  139.5230   75.9020  220.1240 N   0  0  0  0  0  0  0  0  0  0  0  0
  139.5010   75.0010  221.1910 C   0  0  0  0  0  0  0  0  0  0  0  0
  140.3710   75.1110  222.1310 O   0  0  0  0  0  0  0  0  0  0  0  0
  138.5470   73.8820  221.3690 C   0  0  0  0  0  0  0  0  0  0  0  0
  138.8830   72.9320  222.3730 N   0  0  0  0  0  0  0  0  0  0  0  0
  138.3920   71.6050  222.4600 C   0  0  0  0  0  0  0  0  0  0  0  0
  137.5730   71.1650  221.6040 O   0  0  0  0  0  0  0  0  0  0  0  0
  138.8430   70.7460  223.5590 C   0  0  0  0  0  0  0  0  0  0  0  0
  138.6150   69.3900  223.5990 C   0  0  0  0  0  0  0  0  0  0  0  0
  139.0310   68.5820  224.6170 C   0  0  0  0  0  0  0  0  0  0  0  0
  139.7220   69.1680  225.6680 C   0  0  0  0  0  0  0  0  0  0  0  0
  140.1820   68.4340  226.7420 C   0  0  0  0  0  0  0  0  0  0  0  0
  140.8630   69.0930  227.7520 C   0  0  0  0  0  0  0  0  0  0  0  0
  141.4340   68.1440  229.0990 Cl  0  0  0  0  0  0  0  0  0  0  0  0
  141.1090   70.4340  227.7480 C   0  0  0  0  0  0  0  0  0  0  0  0
  140.6430   71.1590  226.6660 C   0  0  0  0  0  0  0  0  0  0  0  0
  139.9520   70.5200  225.6330 C   0  0  0  0  0  0  0  0  0  0  0  0
  139.5170   71.2800  224.5960 N   0  0  0  0  0  0  0  0  0  0  0  0
  141.3180   78.5970  222.8520 C   0  0  0  0  0  0  0  0  0  0  0  0
  142.1630   79.2450  221.7690 C   0  0  0  0  0  0  0  0  0  0  0  0
  142.6990   80.5240  222.3580 C   0  0  0  0  0  0  0  0  0  0  0  0
  142.4270   80.4270  223.8370 C   0  0  0  0  0  0  0  0  0  0  0  0
  141.0980   79.6460  223.8470 C   0  0  0  0  0  0  0  0  0  0  0  0
  139.1093   78.6809  223.9661 H   0  0  0  0  0  0  0  0  0  0  0  0
  139.0871   79.7835  222.5482 H   0  0  0  0  0  0  0  0  0  0  0  0
  138.0744   78.2999  222.5482 H   0  0  0  0  0  0  0  0  0  0  0  0
  138.9513   78.2958  220.6289 H   0  0  0  0  0  0  0  0  0  0  0  0
  140.6629   78.9891  220.5801 H   0  0  0  0  0  0  0  0  0  0  0  0
  140.5437   77.3178  218.9308 H   0  0  0  0  0  0  0  0  0  0  0  0
  141.4937   76.6700  220.2935 H   0  0  0  0  0  0  0  0  0  0  0  0
  138.8050   75.7850  219.3650 H   0  0  0  0  0  0  0  0  0  0  0  0
  137.5677   74.3119  221.6262 H   0  0  0  0  0  0  0  0  0  0  0  0
  138.5586   73.3274  220.4191 H   0  0  0  0  0  0  0  0  0  0  0  0
  139.5560   73.2250  223.1210 H   0  0  0  0  0  0  0  0  0  0  0  0
  138.0664   68.9311  222.7633 H   0  0  0  0  0  0  0  0  0  0  0  0
  138.8253   67.5015  224.6048 H   0  0  0  0  0  0  0  0  0  0  0  0
  140.0115   67.3486  226.7949 H   0  0  0  0  0  0  0  0  0  0  0  0
  141.6550   70.9190  228.5706 H   0  0  0  0  0  0  0  0  0  0  0  0
  140.8173   72.2441  226.6185 H   0  0  0  0  0  0  0  0  0  0  0  0
  141.7848   77.7560  223.3857 H   0  0  0  0  0  0  0  0  0  0  0  0
  142.9919   78.5803  221.4841 H   0  0  0  0  0  0  0  0  0  0  0  0
  141.5702   79.4401  220.8631 H   0  0  0  0  0  0  0  0  0  0  0  0
  143.7793   80.6114  222.1701 H   0  0  0  0  0  0  0  0  0  0  0  0
  142.2249   81.4106  221.9117 H   0  0  0  0  0  0  0  0  0  0  0  0
  143.2230   79.8746  224.3578 H   0  0  0  0  0  0  0  0  0  0  0  0
  142.3838   81.3978  224.3525 H   0  0  0  0  0  0  0  0  0  0  0  0
  140.9024   79.2134  224.8393 H   0  0  0  0  0  0  0  0  0  0  0  0
  140.2256   80.2771  223.6221 H   0  0  0  0  0  0  0  0  0  0  0  0
  1  2  1  0
  2  3  1  0
  3  4  1  0
  4  5  1  0
  5  6  1  0
  6  7  2  0
  6  8  1  0
  8  9  1  0
  9 10  1  0
 10 11  2  0
 10 12  1  0
 12 13  2  0
 13 14  1  0
 14 15  2  0
 15 16  1  0
 16 17  2  0
 17 18  1  0
 17 19  1  0
 19 20  2  0
 20 21  1  0
 21 22  2  0
  2 23  1  0
 23 24  1  0
 24 25  1  0
 25 26  1  0
 26 27  1  0
 22 12  1  0
 27 23  1  0
 21 15  1  0
  1 28  1  0
  1 29  1  0
  1 30  1  0
  3 31  1  0
  3 32  1  0
  4 33  1  0
  4 34  1  0
  5 35  1  0
  8 36  1  0
  8 37  1  0
  9 38  1  0
 13 39  1  0
 14 40  1  0
 16 41  1  0
 19 42  1  0
 20 43  1  0
 23 44  1  0
 24 45  1  0
 24 46  1  0
 25 47  1  0
 25 48  1  0
 26 49  1  0
 26 50  1  0
 27 51  1  0
 27 52  1  0
M  END
>  <smiles>  (2) 
CN(CCNC(=O)CNC(=O)c1ccc2cc(Cl)ccc2n1)C1CCCC1

>  <score_type>  (2) 
oracle

>  <origin>  (2) 
autodockgpu

>  <m_score__min__energy>  (2) 
-8.4299999999999997

>  <m_primary>  (2) 
energy

>  <rmsd>  (2) 
5.166060143398392

>  <m_score__min__rmsd>  (2) 
5.166060143398392

>  <meeko>  (2) 
{"free_energy": -7.78, "intermolecular_energy": -9.87, "internal_energy": -1.96, "cluster_size": 21, "cluster_id": 1, "rank_in_cluster": 9}

>  <energy>  (2) 
-8.14

>  <cluster_rmsd>  (2) 
0.96

>  <cluster>  (2) 
1

$$$$

     RDKit          3D

 52 54  0  0  0  0  0  0  0  0999 V2000
  138.5730   79.5770  223.3510 C   0  0  0  0  0  0  0  0  0  0  0  0
  139.4510   78.3990  223.0350 N   0  0  0  0  0  0  0  0  0  0  0  0
  138.7830   77.6950  221.9850 C   0  0  0  0  0  0  0  0  0  0  0  0
  137.6960   76.7510  222.4120 C   0  0  0  0  0  0  0  0  0  0  0  0
  138.1200   75.3910  222.0510 N   0  0  0  0  0  0  0  0  0  0  0  0
  137.6990   74.7100  220.9070 C   0  0  0  0  0  0  0  0  0  0  0  0
  136.8870   75.2840  220.0910 O   0  0  0  0  0  0  0  0  0  0  0  0
  138.0980   73.3400  220.5090 C   0  0  0  0  0  0  0  0  0  0  0  0
  138.3960   72.4460  221.5740 N   0  0  0  0  0  0  0  0  0  0  0  0
  139.5100   72.5340  222.4470 C   0  0  0  0  0  0  0  0  0  0  0  0
  140.3550   73.4660  222.3180 O   0  0  0  0  0  0  0  0  0  0  0  0
  139.6730   71.5310  223.5030 C   0  0  0  0  0  0  0  0  0  0  0  0
  139.3030   70.2140  223.3540 C   0  0  0  0  0  0  0  0  0  0  0  0
  139.4500   69.2720  224.3310 C   0  0  0  0  0  0  0  0  0  0  0  0
  140.0040   69.6710  225.5390 C   0  0  0  0  0  0  0  0  0  0  0  0
  140.1920   68.7920  226.5850 C   0  0  0  0  0  0  0  0  0  0  0  0
  140.7510   69.2690  227.7590 C   0  0  0  0  0  0  0  0  0  0  0  0
  140.9780   68.1390  229.0670 Cl  0  0  0  0  0  0  0  0  0  0  0  0
  141.1300   70.5660  227.9440 C   0  0  0  0  0  0  0  0  0  0  0  0
  140.9370   71.4380  226.8870 C   0  0  0  0  0  0  0  0  0  0  0  0
  140.3740   70.9840  225.6910 C   0  0  0  0  0  0  0  0  0  0  0  0
  140.2070   71.8830  224.6880 N   0  0  0  0  0  0  0  0  0  0  0  0
  140.6940   79.0470  222.6690 C   0  0  0  0  0  0  0  0  0  0  0  0
  140.4960   80.5530  222.6500 C   0  0  0  0  0  0  0  0  0  0  0  0
  141.7740   81.1540  223.1750 C   0  0  0  0  0  0  0  0  0  0  0  0
  142.7740   80.0280  223.1770 C   0  0  0  0  0  0  0  0  0  0  0  0
  141.8690   78.8240  223.5090 C   0  0  0  0  0  0  0  0  0  0  0  0
  138.4891   79.6896  224.4420 H   0  0  0  0  0  0  0  0  0  0  0  0
  139.0137   80.4886  222.9211 H   0  0  0  0  0  0  0  0  0  0  0  0
  137.5735   79.4151  222.9211 H   0  0  0  0  0  0  0  0  0  0  0  0
  138.3355   78.4408  221.3116 H   0  0  0  0  0  0  0  0  0  0  0  0
  139.5528   77.0665  221.5134 H   0  0  0  0  0  0  0  0  0  0  0  0
  137.5450   76.8204  223.4994 H   0  0  0  0  0  0  0  0  0  0  0  0
  136.7478   77.0042  221.9152 H   0  0  0  0  0  0  0  0  0  0  0  0
  138.7780   74.8960  222.7060 H   0  0  0  0  0  0  0  0  0  0  0  0
  137.2737   72.9052  219.9246 H   0  0  0  0  0  0  0  0  0  0  0  0
  139.0357   73.4548  219.9455 H   0  0  0  0  0  0  0  0  0  0  0  0
  137.7410   71.6450  221.7420 H   0  0  0  0  0  0  0  0  0  0  0  0
  138.8644   69.9030  222.3943 H   0  0  0  0  0  0  0  0  0  0  0  0
  139.1392   68.2298  224.1659 H   0  0  0  0  0  0  0  0  0  0  0  0
  139.9041   67.7347  226.4889 H   0  0  0  0  0  0  0  0  0  0  0  0
  141.5705   70.9046  228.8934 H   0  0  0  0  0  0  0  0  0  0  0  0
  141.2282   72.4939  226.9886 H   0  0  0  0  0  0  0  0  0  0  0  0
  140.9138   78.5802  221.6975 H   0  0  0  0  0  0  0  0  0  0  0  0
  140.3058   80.8993  221.6234 H   0  0  0  0  0  0  0  0  0  0  0  0
  139.6327   80.8506  223.2633 H   0  0  0  0  0  0  0  0  0  0  0  0
  142.1137   81.9693  222.5193 H   0  0  0  0  0  0  0  0  0  0  0  0
  141.6414   81.5852  224.1782 H   0  0  0  0  0  0  0  0  0  0  0  0
  143.2534   79.9129  222.1937 H   0  0  0  0  0  0  0  0  0  0  0  0
  143.6116   80.1694  223.8759 H   0  0  0  0  0  0  0  0  0  0  0  0
  142.3637   77.8759  223.2514 H   0  0  0  0  0  0  0  0  0  0  0  0
  141.6260   78.7495  224.5792 H   0  0  0  0  0  0  0  0  0  0  0  0
  1  2  1  0
  2  3  1  0
  3  4  1  0
  4  5  1  0
  5  6  1  0
  6  7  2  0
  6  8  1  0
  8  9  1  0
  9 10  1  0
 10 11  2  0
 10 12  1  0
 12 13  2  0
 13 14  1  0
 14 15  2  0
 15 16  1  0
 16 17  2  0
 17 18  1  0
 17 19  1  0
 19 20  2  0
 20 21  1  0
 21 22  2  0
  2 23  1  0
 23 24  1  0
 24 25  1  0
 25 26  1  0
 26 27  1  0
 22 12  1  0
 27 23  1  0
 21 15  1  0
  1 28  1  0
  1 29  1  0
  1 30  1  0
  3 31  1  0
  3 32  1  0
  4 33  1  0
  4 34  1  0
  5 35  1  0
  8 36  1  0
  8 37  1  0
  9 38  1  0
 13 39  1  0
 14 40  1  0
 16 41  1  0
 19 42  1  0
 20 43  1  0
 23 44  1  0
 24 45  1  0
 24 46  1  0
 25 47  1  0
 25 48  1  0
 26 49  1  0
 26 50  1  0
 27 51  1  0
 27 52  1  0
M  END
>  <smiles>  (3) 
CN(CCNC(=O)CNC(=O)c1ccc2cc(Cl)ccc2n1)C1CCCC1

>  <score_type>  (3) 
oracle

>  <origin>  (3) 
autodockgpu

>  <m_score__min__energy>  (3) 
-8.4299999999999997

>  <m_primary>  (3) 
energy

>  <rmsd>  (3) 
5.126391143842568

>  <m_score__min__rmsd>  (3) 
5.126391143842568

>  <meeko>  (3) 
{"free_energy": -8.14, "intermolecular_energy": -10.23, "internal_energy": -1.64, "cluster_size": 21, "cluster_id": 1, "rank_in_cluster": 2}

>  <energy>  (3) 
-8.1

>  <cluster_rmsd>  (3) 
0.96

>  <cluster>  (3) 
1

$$$$

     RDKit          3D

 52 54  0  0  0  0  0  0  0  0999 V2000
  138.4540   78.9740  223.1020 C   0  0  0  0  0  0  0  0  0  0  0  0
  139.8500   78.5680  222.7240 N   0  0  0  0  0  0  0  0  0  0  0  0
  139.9310   78.7480  221.3080 C   0  0  0  0  0  0  0  0  0  0  0  0
  140.5920   77.6410  220.5380 C   0  0  0  0  0  0  0  0  0  0  0  0
  139.6640   76.5030  220.5090 N   0  0  0  0  0  0  0  0  0  0  0  0
  139.7330   75.4050  221.3700 C   0  0  0  0  0  0  0  0  0  0  0  0
  140.6570   75.3570  222.2620 O   0  0  0  0  0  0  0  0  0  0  0  0
  138.8210   74.2370  221.3710 C   0  0  0  0  0  0  0  0  0  0  0  0
  139.0840   73.2440  222.3550 N   0  0  0  0  0  0  0  0  0  0  0  0
  138.5980   71.9120  222.3430 C   0  0  0  0  0  0  0  0  0  0  0  0
  137.8530   71.5090  221.4050 O   0  0  0  0  0  0  0  0  0  0  0  0
  138.9670   71.0070  223.4350 C   0  0  0  0  0  0  0  0  0  0  0  0
  138.7070   69.6560  223.4150 C   0  0  0  0  0  0  0  0  0  0  0  0
  139.0460   68.8050  224.4260 C   0  0  0  0  0  0  0  0  0  0  0  0
  139.6900   69.3370  225.5330 C   0  0  0  0  0  0  0  0  0  0  0  0
  140.0730   68.5570  226.6050 C   0  0  0  0  0  0  0  0  0  0  0  0
  140.7110   69.1650  227.6730 C   0  0  0  0  0  0  0  0  0  0  0  0
  141.1840   68.1580  229.0160 Cl  0  0  0  0  0  0  0  0  0  0  0  0
  140.9870   70.5000  227.7300 C   0  0  0  0  0  0  0  0  0  0  0  0
  140.5980   71.2710  226.6490 C   0  0  0  0  0  0  0  0  0  0  0  0
  139.9520   70.6840  225.5580 C   0  0  0  0  0  0  0  0  0  0  0  0
  139.5930   71.4890  224.5260 N   0  0  0  0  0  0  0  0  0  0  0  0
  140.6480   79.4750  223.5220 C   0  0  0  0  0  0  0  0  0  0  0  0
  142.1040   79.0440  223.4800 C   0  0  0  0  0  0  0  0  0  0  0  0
  142.9200   80.3100  223.4620 C   0  0  0  0  0  0  0  0  0  0  0  0
  141.9550   81.4120  223.8160 C   0  0  0  0  0  0  0  0  0  0  0  0
  140.6560   80.8930  223.1670 C   0  0  0  0  0  0  0  0  0  0  0  0
  138.3638   79.0002  224.1980 H   0  0  0  0  0  0  0  0  0  0  0  0
  138.2388   79.9720  222.6924 H   0  0  0  0  0  0  0  0  0  0  0  0
  137.7371   78.2471  222.6924 H   0  0  0  0  0  0  0  0  0  0  0  0
  138.9061   78.8589  220.9242 H   0  0  0  0  0  0  0  0  0  0  0  0
  140.5673   79.6327  221.1586 H   0  0  0  0  0  0  0  0  0  0  0  0
  140.8080   77.9748  219.5124 H   0  0  0  0  0  0  0  0  0  0  0  0
  141.5409   77.3530  221.0141 H   0  0  0  0  0  0  0  0  0  0  0  0
  138.9020   76.5130  219.7840 H   0  0  0  0  0  0  0  0  0  0  0  0
  137.7981   74.6083  221.5319 H   0  0  0  0  0  0  0  0  0  0  0  0
  138.9712   73.7414  220.4005 H   0  0  0  0  0  0  0  0  0  0  0  0
  139.6930   73.5060  223.1670 H   0  0  0  0  0  0  0  0  0  0  0  0
  138.1971   69.2386  222.5342 H   0  0  0  0  0  0  0  0  0  0  0  0
  138.8159   67.7311  224.3650 H   0  0  0  0  0  0  0  0  0  0  0  0
  139.8756   67.4749  226.6110 H   0  0  0  0  0  0  0  0  0  0  0  0
  141.4967   70.9441  228.5978 H   0  0  0  0  0  0  0  0  0  0  0  0
  140.7985   72.3526  226.6485 H   0  0  0  0  0  0  0  0  0  0  0  0
  140.1552   79.4035  224.5028 H   0  0  0  0  0  0  0  0  0  0  0  0
  142.3497   78.4453  224.3695 H   0  0  0  0  0  0  0  0  0  0  0  0
  142.3113   78.4224  222.5964 H   0  0  0  0  0  0  0  0  0  0  0  0
  143.7312   80.2558  224.2030 H   0  0  0  0  0  0  0  0  0  0  0  0
  143.3928   80.4785  222.4832 H   0  0  0  0  0  0  0  0  0  0  0  0
  141.8467   81.5184  224.9055 H   0  0  0  0  0  0  0  0  0  0  0  0
  142.2638   82.4101  223.4720 H   0  0  0  0  0  0  0  0  0  0  0  0
  139.7759   81.4078  223.5798 H   0  0  0  0  0  0  0  0  0  0  0  0
  140.6175   81.0659  222.0814 H   0  0  0  0  0  0  0  0  0  0  0  0
  1  2  1  0
  2  3  1  0
  3  4  1  0
  4  5  1  0
  5  6  1  0
  6  7  2  0
  6  8  1  0
  8  9  1  0
  9 10  1  0
 10 11  2  0
 10 12  1  0
 12 13  2  0
 13 14  1  0
 14 15  2  0
 15 16  1  0
 16 17  2  0
 17 18  1  0
 17 19  1  0
 19 20  2  0
 20 21  1  0
 21 22  2  0
  2 23  1  0
 23 24  1  0
 24 25  1  0
 25 26  1  0
 26 27  1  0
 22 12  1  0
 27 23  1  0
 21 15  1  0
  1 28  1  0
  1 29  1  0
  1 30  1  0
  3 31  1  0
  3 32  1  0
  4 33  1  0
  4 34  1  0
  5 35  1  0
  8 36  1  0
  8 37  1  0
  9 38  1  0
 13 39  1  0
 14 40  1  0
 16 41  1  0
 19 42  1  0
 20 43  1  0
 23 44  1  0
 24 45  1  0
 24 46  1  0
 25 47  1  0
 25 48  1  0
 26 49  1  0
 26 50  1  0
 27 51  1  0
 27 52  1  0
M  END
>  <smiles>  (4) 
CN(CCNC(=O)CNC(=O)c1ccc2cc(Cl)ccc2n1)C1CCCC1

>  <score_type>  (4) 
oracle

>  <origin>  (4) 
autodockgpu

>  <m_score__min__energy>  (4) 
-8.4299999999999997

>  <m_primary>  (4) 
energy

>  <rmsd>  (4) 
5.474718310737628

>  <m_score__min__rmsd>  (4) 
5.474718310737628

>  <meeko>  (4) 
{"free_energy": -7.92, "intermolecular_energy": -10.0, "internal_energy": -2.02, "cluster_size": 21, "cluster_id": 1, "rank_in_cluster": 7}

>  <energy>  (4) 
-8.09

>  <cluster_rmsd>  (4) 
0.59

>  <cluster>  (4) 
1

$$$$

     RDKit          3D

 52 54  0  0  0  0  0  0  0  0999 V2000
  141.0430   76.8990  222.3990 C   0  0  0  0  0  0  0  0  0  0  0  0
  140.3650   78.0800  221.7660 N   0  0  0  0  0  0  0  0  0  0  0  0
  139.0020   77.6890  221.5870 C   0  0  0  0  0  0  0  0  0  0  0  0
  138.3870   76.9040  222.7100 C   0  0  0  0  0  0  0  0  0  0  0  0
  138.4500   75.4820  222.3460 N   0  0  0  0  0  0  0  0  0  0  0  0
  137.8330   74.9260  221.2240 C   0  0  0  0  0  0  0  0  0  0  0  0
  137.1580   75.6820  220.4320 O   0  0  0  0  0  0  0  0  0  0  0  0
  137.8680   73.5000  220.8240 C   0  0  0  0  0  0  0  0  0  0  0  0
  138.2220   72.5760  221.8450 N   0  0  0  0  0  0  0  0  0  0  0  0
  139.4450   72.5590  222.5630 C   0  0  0  0  0  0  0  0  0  0  0  0
  140.3460   73.4100  222.3180 O   0  0  0  0  0  0  0  0  0  0  0  0
  139.6530   71.5390  223.5950 C   0  0  0  0  0  0  0  0  0  0  0  0
  139.3670   70.2060  223.4060 C   0  0  0  0  0  0  0  0  0  0  0  0
  139.5580   69.2490  224.3600 C   0  0  0  0  0  0  0  0  0  0  0  0
  140.0690   69.6480  225.5870 C   0  0  0  0  0  0  0  0  0  0  0  0
  140.2950   68.7540  226.6120 C   0  0  0  0  0  0  0  0  0  0  0  0
  140.8080   69.2320  227.8070 C   0  0  0  0  0  0  0  0  0  0  0  0
  141.0850   68.0830  229.0890 Cl  0  0  0  0  0  0  0  0  0  0  0  0
  141.1040   70.5450  228.0320 C   0  0  0  0  0  0  0  0  0  0  0  0
  140.8720   71.4310  226.9950 C   0  0  0  0  0  0  0  0  0  0  0  0
  140.3560   70.9760  225.7790 C   0  0  0  0  0  0  0  0  0  0  0  0
  140.1480   71.8900  224.7980 N   0  0  0  0  0  0  0  0  0  0  0  0
  140.6000   79.1170  222.7500 C   0  0  0  0  0  0  0  0  0  0  0  0
  141.8480   78.7870  223.5490 C   0  0  0  0  0  0  0  0  0  0  0  0
  142.5390   80.0990  223.8160 C   0  0  0  0  0  0  0  0  0  0  0  0
  141.5320   81.1600  223.4590 C   0  0  0  0  0  0  0  0  0  0  0  0
  140.7930   80.4890  222.2840 C   0  0  0  0  0  0  0  0  0  0  0  0
  140.9909   76.9898  223.4940 H   0  0  0  0  0  0  0  0  0  0  0  0
  140.5385   75.9739  222.0833 H   0  0  0  0  0  0  0  0  0  0  0  0
  142.0963   76.8682  222.0833 H   0  0  0  0  0  0  0  0  0  0  0  0
  138.4054   78.6029  221.4497 H   0  0  0  0  0  0  0  0  0  0  0  0
  138.9999   77.0138  220.7186 H   0  0  0  0  0  0  0  0  0  0  0  0
  138.9478   77.0781  223.6402 H   0  0  0  0  0  0  0  0  0  0  0  0
  137.3444   77.2149  222.8724 H   0  0  0  0  0  0  0  0  0  0  0  0
  138.9900   74.8400  222.9800 H   0  0  0  0  0  0  0  0  0  0  0  0
  136.8674   73.2287  220.4564 H   0  0  0  0  0  0  0  0  0  0  0  0
  138.6614   73.4235  220.0659 H   0  0  0  0  0  0  0  0  0  0  0  0
  137.5250   71.8370  222.1030 H   0  0  0  0  0  0  0  0  0  0  0  0
  138.9620   69.8947  222.4318 H   0  0  0  0  0  0  0  0  0  0  0  0
  139.3146   68.1946  224.1626 H   0  0  0  0  0  0  0  0  0  0  0  0
  140.0728   67.6843  226.4838 H   0  0  0  0  0  0  0  0  0  0  0  0
  141.5097   70.8844  228.9965 H   0  0  0  0  0  0  0  0  0  0  0  0
  141.0951   72.4998  227.1287 H   0  0  0  0  0  0  0  0  0  0  0  0
  139.6550   79.1105  223.3129 H   0  0  0  0  0  0  0  0  0  0  0  0
  141.5755   78.3003  224.4971 H   0  0  0  0  0  0  0  0  0  0  0  0
  142.5030   78.0950  222.9994 H   0  0  0  0  0  0  0  0  0  0  0  0
  142.8209   80.1769  224.8764 H   0  0  0  0  0  0  0  0  0  0  0  0
  143.4653   80.2004  223.2315 H   0  0  0  0  0  0  0  0  0  0  0  0
  140.8510   81.3677  224.2975 H   0  0  0  0  0  0  0  0  0  0  0  0
  141.9736   82.1375  223.2152 H   0  0  0  0  0  0  0  0  0  0  0  0
  139.8274   80.9802  222.0933 H   0  0  0  0  0  0  0  0  0  0  0  0
  141.3473   80.5483  221.3357 H   0  0  0  0  0  0  0  0  0  0  0  0
  1  2  1  0
  2  3  1  0
  3  4  1  0
  4  5  1  0
  5  6  1  0
  6  7  2  0
  6  8  1  0
  8  9  1  0
  9 10  1  0
 10 11  2  0
 10 12  1  0
 12 13  2  0
 13 14  1  0
 14 15  2  0
 15 16  1  0
 16 17  2  0
 17 18  1  0
 17 19  1  0
 19 20  2  0
 20 21  1  0
 21 22  2  0
  2 23  1  0
 23 24  1  0
 24 25  1  0
 25 26  1  0
 26 27  1  0
 22 12  1  0
 27 23  1  0
 21 15  1  0
  1 28  1  0
  1 29  1  0
  1 30  1  0
  3 31  1  0
  3 32  1  0
  4 33  1  0
  4 34  1  0
  5 35  1  0
  8 36  1  0
  8 37  1  0
  9 38  1  0
 13 39  1  0
 14 40  1  0
 16 41  1  0
 19 42  1  0
 20 43  1  0
 23 44  1  0
 24 45  1  0
 24 46  1  0
 25 47  1  0
 25 48  1  0
 26 49  1  0
 26 50  1  0
 27 51  1  0
 27 52  1  0
M  END
>  <smiles>  (5) 
CN(CCNC(=O)CNC(=O)c1ccc2cc(Cl)ccc2n1)C1CCCC1

>  <score_type>  (5) 
oracle

>  <origin>  (5) 
autodockgpu

>  <m_score__min__energy>  (5) 
-8.4299999999999997

>  <m_primary>  (5) 
energy

>  <rmsd>  (5) 
4.9182217188416475

>  <m_score__min__rmsd>  (5) 
4.9182217188416475

>  <meeko>  (5) 
{"free_energy": -8.09, "intermolecular_energy": -10.17, "internal_energy": -1.74, "cluster_size": 21, "cluster_id": 1, "rank_in_cluster": 4}

>  <energy>  (5) 
-7.98

>  <cluster_rmsd>  (5) 
1.46

>  <cluster>  (5) 
1

$$$$

     RDKit          3D

 52 54  0  0  0  0  0  0  0  0999 V2000
  142.2650   80.0680  223.8330 C   0  0  0  0  0  0  0  0  0  0  0  0
  141.4010   79.2160  222.9480 N   0  0  0  0  0  0  0  0  0  0  0  0
  140.0670   79.6900  223.1440 C   0  0  0  0  0  0  0  0  0  0  0  0
  138.9820   78.6530  223.0820 C   0  0  0  0  0  0  0  0  0  0  0  0
  139.5850   77.4080  222.5860 N   0  0  0  0  0  0  0  0  0  0  0  0
  138.9390   76.4970  221.7480 C   0  0  0  0  0  0  0  0  0  0  0  0
  137.7350   76.7340  221.3620 O   0  0  0  0  0  0  0  0  0  0  0  0
  139.5070   75.2310  221.2300 C   0  0  0  0  0  0  0  0  0  0  0  0
  139.5980   74.1620  222.1640 N   0  0  0  0  0  0  0  0  0  0  0  0
  139.7910   72.7940  221.8460 C   0  0  0  0  0  0  0  0  0  0  0  0
  139.8940   72.4220  220.6430 O   0  0  0  0  0  0  0  0  0  0  0  0
  139.8690   71.8120  222.9310 C   0  0  0  0  0  0  0  0  0  0  0  0
  139.4700   70.5030  222.7940 C   0  0  0  0  0  0  0  0  0  0  0  0
  139.5390   69.5810  223.7980 C   0  0  0  0  0  0  0  0  0  0  0  0
  140.0400   69.9940  225.0240 C   0  0  0  0  0  0  0  0  0  0  0  0
  140.1480   69.1350  226.0980 C   0  0  0  0  0  0  0  0  0  0  0  0
  140.6590   69.6250  227.2890 C   0  0  0  0  0  0  0  0  0  0  0  0
  140.7840   68.5210  228.6330 Cl  0  0  0  0  0  0  0  0  0  0  0  0
  141.0650   70.9150  227.4640 C   0  0  0  0  0  0  0  0  0  0  0  0
  140.9520   71.7660  226.3790 C   0  0  0  0  0  0  0  0  0  0  0  0
  140.4400   71.2990  225.1660 C   0  0  0  0  0  0  0  0  0  0  0  0
  140.3510   72.1770  224.1350 N   0  0  0  0  0  0  0  0  0  0  0  0
  141.9760   79.4700  221.6430 C   0  0  0  0  0  0  0  0  0  0  0  0
  141.8150   78.2390  220.7680 C   0  0  0  0  0  0  0  0  0  0  0  0
  141.5370   78.7430  219.3750 C   0  0  0  0  0  0  0  0  0  0  0  0
  141.8600   80.2140  219.4110 C   0  0  0  0  0  0  0  0  0  0  0  0
  141.4440   80.5770  220.8510 C   0  0  0  0  0  0  0  0  0  0  0  0
  142.0408   79.8469  224.8870 H   0  0  0  0  0  0  0  0  0  0  0  0
  143.3241   79.8510  223.6301 H   0  0  0  0  0  0  0  0  0  0  0  0
  142.0629   81.1301  223.6301 H   0  0  0  0  0  0  0  0  0  0  0  0
  140.0214   80.1655  224.1349 H   0  0  0  0  0  0  0  0  0  0  0  0
  139.8702   80.3744  222.3056 H   0  0  0  0  0  0  0  0  0  0  0  0
  138.5596   78.4917  224.0848 H   0  0  0  0  0  0  0  0  0  0  0  0
  138.1711   78.9818  222.4154 H   0  0  0  0  0  0  0  0  0  0  0  0
  140.5660   77.1860  222.8930 H   0  0  0  0  0  0  0  0  0  0  0  0
  138.8753   74.8954  220.3943 H   0  0  0  0  0  0  0  0  0  0  0  0
  140.5431   75.4650  220.9441 H   0  0  0  0  0  0  0  0  0  0  0  0
  139.5200   74.3930  223.1840 H   0  0  0  0  0  0  0  0  0  0  0  0
  139.0728   70.1809  221.8201 H   0  0  0  0  0  0  0  0  0  0  0  0
  139.2081   68.5439  223.6402 H   0  0  0  0  0  0  0  0  0  0  0  0
  139.8353   68.0840  226.0108 H   0  0  0  0  0  0  0  0  0  0  0  0
  141.4655   71.2642  228.4272 H   0  0  0  0  0  0  0  0  0  0  0  0
  141.2670   72.8158  226.4720 H   0  0  0  0  0  0  0  0  0  0  0  0
  143.0098   79.7423  221.9019 H   0  0  0  0  0  0  0  0  0  0  0  0
  142.7378   77.6404  220.7793 H   0  0  0  0  0  0  0  0  0  0  0  0
  140.9999   77.5952  221.1301 H   0  0  0  0  0  0  0  0  0  0  0  0
  142.1761   78.2262  218.6439 H   0  0  0  0  0  0  0  0  0  0  0  0
  140.4951   78.5598  219.0736 H   0  0  0  0  0  0  0  0  0  0  0  0
  142.9319   80.3956  219.2432 H   0  0  0  0  0  0  0  0  0  0  0  0
  141.3561   80.8060  218.6327 H   0  0  0  0  0  0  0  0  0  0  0  0
  141.8901   81.5335  221.1609 H   0  0  0  0  0  0  0  0  0  0  0  0
  140.3576   80.7059  220.9660 H   0  0  0  0  0  0  0  0  0  0  0  0
  1  2  1  0
  2  3  1  0
  3  4  1  0
  4  5  1  0
  5  6  1  0
  6  7  2  0
  6  8  1  0
  8  9  1  0
  9 10  1  0
 10 11  2  0
 10 12  1  0
 12 13  2  0
 13 14  1  0
 14 15  2  0
 15 16  1  0
 16 17  2  0
 17 18  1  0
 17 19  1  0
 19 20  2  0
 20 21  1  0
 21 22  2  0
  2 23  1  0
 23 24  1  0
 24 25  1  0
 25 26  1  0
 26 27  1  0
 22 12  1  0
 27 23  1  0
 21 15  1  0
  1 28  1  0
  1 29  1  0
  1 30  1  0
  3 31  1  0
  3 32  1  0
  4 33  1  0
  4 34  1  0
  5 35  1  0
  8 36  1  0
  8 37  1  0
  9 38  1  0
 13 39  1  0
 14 40  1  0
 16 41  1  0
 19 42  1  0
 20 43  1  0
 23 44  1  0
 24 45  1  0
 24 46  1  0
 25 47  1  0
 25 48  1  0
 26 49  1  0
 26 50  1  0
 27 51  1  0
 27 52  1  0
M  END
>  <smiles>  (6) 
CN(CCNC(=O)CNC(=O)c1ccc2cc(Cl)ccc2n1)C1CCCC1

>  <score_type>  (6) 
oracle

>  <origin>  (6) 
autodockgpu

>  <m_score__min__energy>  (6) 
-8.4299999999999997

>  <m_primary>  (6) 
energy

>  <rmsd>  (6) 
5.324081188166369

>  <m_score__min__rmsd>  (6) 
5.324081188166369

>  <meeko>  (6) 
{"free_energy": -7.35, "intermolecular_energy": -9.44, "internal_energy": -2.11, "cluster_size": 21, "cluster_id": 1, "rank_in_cluster": 16}

>  <energy>  (6) 
-7.93

>  <cluster_rmsd>  (6) 
1.5

>  <cluster>  (6) 
1

$$$$

     RDKit          3D

 52 54  0  0  0  0  0  0  0  0999 V2000
  141.7480   80.0980  219.1970 C   0  0  0  0  0  0  0  0  0  0  0  0
  141.4150   79.1380  220.3030 N   0  0  0  0  0  0  0  0  0  0  0  0
  142.1290   77.9380  219.9970 C   0  0  0  0  0  0  0  0  0  0  0  0
  141.5990   76.6780  220.6180 C   0  0  0  0  0  0  0  0  0  0  0  0
  140.2460   76.9620  221.1160 N   0  0  0  0  0  0  0  0  0  0  0  0
  139.4500   76.0450  221.8050 C   0  0  0  0  0  0  0  0  0  0  0  0
  139.9000   74.8640  222.0380 O   0  0  0  0  0  0  0  0  0  0  0  0
  138.0820   76.2890  222.3200 C   0  0  0  0  0  0  0  0  0  0  0  0
  137.8240   77.6020  222.8000 N   0  0  0  0  0  0  0  0  0  0  0  0
  137.7700   78.7810  222.0130 C   0  0  0  0  0  0  0  0  0  0  0  0
  137.9660   78.7290  220.7660 O   0  0  0  0  0  0  0  0  0  0  0  0
  137.4860   80.0630  222.6640 C   0  0  0  0  0  0  0  0  0  0  0  0
  137.3820   81.2500  221.9770 C   0  0  0  0  0  0  0  0  0  0  0  0
  137.1180   82.4490  222.5740 C   0  0  0  0  0  0  0  0  0  0  0  0
  136.9450   82.4640  223.9500 C   0  0  0  0  0  0  0  0  0  0  0  0
  136.6750   83.6260  224.6420 C   0  0  0  0  0  0  0  0  0  0  0  0
  136.5150   83.5580  226.0160 C   0  0  0  0  0  0  0  0  0  0  0  0
  136.1760   85.0400  226.8690 Cl  0  0  0  0  0  0  0  0  0  0  0  0
  136.6100   82.4010  226.7320 C   0  0  0  0  0  0  0  0  0  0  0  0
  136.8810   81.2420  226.0260 C   0  0  0  0  0  0  0  0  0  0  0  0
  137.0470   81.2820  224.6390 C   0  0  0  0  0  0  0  0  0  0  0  0
  137.3120   80.1150  223.9980 N   0  0  0  0  0  0  0  0  0  0  0  0
  141.8720   79.8640  221.4710 C   0  0  0  0  0  0  0  0  0  0  0  0
  140.8080   80.8590  221.9000 C   0  0  0  0  0  0  0  0  0  0  0  0
  140.8320   80.8810  223.4070 C   0  0  0  0  0  0  0  0  0  0  0  0
  142.0980   80.1630  223.7960 C   0  0  0  0  0  0  0  0  0  0  0  0
  142.2000   79.1070  222.6780 C   0  0  0  0  0  0  0  0  0  0  0  0
  142.0796   81.0539  219.6286 H   0  0  0  0  0  0  0  0  0  0  0  0
  142.5527   79.6773  218.5762 H   0  0  0  0  0  0  0  0  0  0  0  0
  140.8556   80.2660  218.5762 H   0  0  0  0  0  0  0  0  0  0  0  0
  142.1136   77.8068  218.9050 H   0  0  0  0  0  0  0  0  0  0  0  0
  143.1347   78.0761  220.4207 H   0  0  0  0  0  0  0  0  0  0  0  0
  141.5610   75.8764  219.8656 H   0  0  0  0  0  0  0  0  0  0  0  0
  142.2516   76.3488  221.4400 H   0  0  0  0  0  0  0  0  0  0  0  0
  139.8500   77.9190  220.9330 H   0  0  0  0  0  0  0  0  0  0  0  0
  137.3732   76.0830  221.5044 H   0  0  0  0  0  0  0  0  0  0  0  0
  137.9693   75.6264  223.1908 H   0  0  0  0  0  0  0  0  0  0  0  0
  137.6530   77.7250  223.8270 H   0  0  0  0  0  0  0  0  0  0  0  0
  137.5192   81.2322  220.8857 H   0  0  0  0  0  0  0  0  0  0  0  0
  137.0448   83.3736  221.9826 H   0  0  0  0  0  0  0  0  0  0  0  0
  136.5885   84.5869  224.1136 H   0  0  0  0  0  0  0  0  0  0  0  0
  136.4769   82.3896  227.8239 H   0  0  0  0  0  0  0  0  0  0  0  0
  136.9662   80.2839  226.5596 H   0  0  0  0  0  0  0  0  0  0  0  0
  142.8164   80.2977  221.1106 H   0  0  0  0  0  0  0  0  0  0  0  0
  141.0377   81.8580  221.5008 H   0  0  0  0  0  0  0  0  0  0  0  0
  139.8163   80.5723  221.5202 H   0  0  0  0  0  0  0  0  0  0  0  0
  140.8476   81.9168  223.7768 H   0  0  0  0  0  0  0  0  0  0  0  0
  139.9404   80.4020  223.8380 H   0  0  0  0  0  0  0  0  0  0  0  0
  142.9640   80.8412  223.7899 H   0  0  0  0  0  0  0  0  0  0  0  0
  142.0845   79.7436  224.8128 H   0  0  0  0  0  0  0  0  0  0  0  0
  143.2171   78.6923  222.6190 H   0  0  0  0  0  0  0  0  0  0  0  0
  141.5373   78.2439  222.8387 H   0  0  0  0  0  0  0  0  0  0  0  0
  1  2  1  0
  2  3  1  0
  3  4  1  0
  4  5  1  0
  5  6  1  0
  6  7  2  0
  6  8  1  0
  8  9  1  0
  9 10  1  0
 10 11  2  0
 10 12  1  0
 12 13  2  0
 13 14  1  0
 14 15  2  0
 15 16  1  0
 16 17  2  0
 17 18  1  0
 17 19  1  0
 19 20  2  0
 20 21  1  0
 21 22  2  0
  2 23  1  0
 23 24  1  0
 24 25  1  0
 25 26  1  0
 26 27  1  0
 22 12  1  0
 27 23  1  0
 21 15  1  0
  1 28  1  0
  1 29  1  0
  1 30  1  0
  3 31  1  0
  3 32  1  0
  4 33  1  0
  4 34  1  0
  5 35  1  0
  8 36  1  0
  8 37  1  0
  9 38  1  0
 13 39  1  0
 14 40  1  0
 16 41  1  0
 19 42  1  0
 20 43  1  0
 23 44  1  0
 24 45  1  0
 24 46  1  0
 25 47  1  0
 25 48  1  0
 26 49  1  0
 26 50  1  0
 27 51  1  0
 27 52  1  0
M  END
>  <smiles>  (7) 
CN(CCNC(=O)CNC(=O)c1ccc2cc(Cl)ccc2n1)C1CCCC1

>  <score_type>  (7) 
oracle

>  <origin>  (7) 
autodockgpu

>  <m_score__min__energy>  (7) 
-8.4299999999999997

>  <m_primary>  (7) 
energy

>  <rmsd>  (7) 
8.742166161521801

>  <m_score__min__rmsd>  (7) 
8.742166161521801

>  <meeko>  (7) 
{"free_energy": -5.27, "intermolecular_energy": -7.36, "internal_energy": -3.96, "cluster_size": 8, "cluster_id": 7, "rank_in_cluster": 5}

>  <energy>  (7) 
-7.92

>  <cluster_rmsd>  (7) 
1.5

>  <cluster>  (7) 
1

$$$$

     RDKit          3D

 52 54  0  0  0  0  0  0  0  0999 V2000
  140.1130   71.7120  223.1780 C   0  0  0  0  0  0  0  0  0  0  0  0
  138.9630   71.5160  224.1250 N   0  0  0  0  0  0  0  0  0  0  0  0
  138.1300   70.5260  223.5160 C   0  0  0  0  0  0  0  0  0  0  0  0
  136.6620   70.8360  223.4690 C   0  0  0  0  0  0  0  0  0  0  0  0
  136.5190   72.2690  223.1790 N   0  0  0  0  0  0  0  0  0  0  0  0
  135.3570   72.8630  222.6820 C   0  0  0  0  0  0  0  0  0  0  0  0
  134.3210   72.1350  222.4550 O   0  0  0  0  0  0  0  0  0  0  0  0
  135.1730   74.3000  222.3720 C   0  0  0  0  0  0  0  0  0  0  0  0
  136.3270   75.1190  222.5120 N   0  0  0  0  0  0  0  0  0  0  0  0
  137.6240   74.8210  222.0200 C   0  0  0  0  0  0  0  0  0  0  0  0
  137.8410   73.7440  221.3960 O   0  0  0  0  0  0  0  0  0  0  0  0
  138.7110   75.7770  222.2440 C   0  0  0  0  0  0  0  0  0  0  0  0
  140.0300   75.4950  221.9780 C   0  0  0  0  0  0  0  0  0  0  0  0
  141.0500   76.3780  222.1840 C   0  0  0  0  0  0  0  0  0  0  0  0
  140.7310   77.6300  222.6900 C   0  0  0  0  0  0  0  0  0  0  0  0
  141.6920   78.5900  222.9310 C   0  0  0  0  0  0  0  0  0  0  0  0
  141.2930   79.8150  223.4380 C   0  0  0  0  0  0  0  0  0  0  0  0
  142.5260   81.0110  223.7350 Cl  0  0  0  0  0  0  0  0  0  0  0  0
  139.9960   80.1330  223.7140 C   0  0  0  0  0  0  0  0  0  0  0  0
  139.0410   79.1620  223.4670 C   0  0  0  0  0  0  0  0  0  0  0  0
  139.4160   77.9170  222.9570 C   0  0  0  0  0  0  0  0  0  0  0  0
  138.4380   77.0020  222.7350 N   0  0  0  0  0  0  0  0  0  0  0  0
  139.6440   71.1110  225.3370 C   0  0  0  0  0  0  0  0  0  0  0  0
  139.2330   69.6960  225.7030 C   0  0  0  0  0  0  0  0  0  0  0  0
  140.4620   69.0280  226.2610 C   0  0  0  0  0  0  0  0  0  0  0  0
  141.4460   70.1430  226.5030 C   0  0  0  0  0  0  0  0  0  0  0  0
  141.1060   71.1000  225.3440 C   0  0  0  0  0  0  0  0  0  0  0  0
  141.0380   71.8696  223.7521 H   0  0  0  0  0  0  0  0  0  0  0  0
  140.2224   70.8195  222.5443 H   0  0  0  0  0  0  0  0  0  0  0  0
  139.9206   72.5903  222.5443 H   0  0  0  0  0  0  0  0  0  0  0  0
  138.4770   70.3849  222.4817 H   0  0  0  0  0  0  0  0  0  0  0  0
  138.2229   69.6315  224.1495 H   0  0  0  0  0  0  0  0  0  0  0  0
  136.1788   70.2434  222.6783 H   0  0  0  0  0  0  0  0  0  0  0  0
  136.1839   70.5866  224.4278 H   0  0  0  0  0  0  0  0  0  0  0  0
  137.3540   72.8860  223.3480 H   0  0  0  0  0  0  0  0  0  0  0  0
  134.8286   74.3785  221.3303 H   0  0  0  0  0  0  0  0  0  0  0  0
  134.4513   74.6740  223.1131 H   0  0  0  0  0  0  0  0  0  0  0  0
  136.2250   76.0290  223.0220 H   0  0  0  0  0  0  0  0  0  0  0  0
  140.2773   74.5013  221.5763 H   0  0  0  0  0  0  0  0  0  0  0  0
  142.0912   76.1060  221.9563 H   0  0  0  0  0  0  0  0  0  0  0  0
  142.7531   78.3864  222.7247 H   0  0  0  0  0  0  0  0  0  0  0  0
  139.7204   81.1192  224.1158 H   0  0  0  0  0  0  0  0  0  0  0  0
  137.9811   79.3720  223.6734 H   0  0  0  0  0  0  0  0  0  0  0  0
  139.3354   71.8974  226.0415 H   0  0  0  0  0  0  0  0  0  0  0  0
  138.4340   69.7152  226.4588 H   0  0  0  0  0  0  0  0  0  0  0  0
  138.8466   69.1536  224.8275 H   0  0  0  0  0  0  0  0  0  0  0  0
  140.2256   68.5116  227.2031 H   0  0  0  0  0  0  0  0  0  0  0  0
  140.8637   68.2688  225.5737 H   0  0  0  0  0  0  0  0  0  0  0  0
  141.2822   70.6199  227.4806 H   0  0  0  0  0  0  0  0  0  0  0  0
  142.4971   69.8197  226.5276 H   0  0  0  0  0  0  0  0  0  0  0  0
  141.5070   72.1067  225.5332 H   0  0  0  0  0  0  0  0  0  0  0  0
  141.5394   70.7848  224.3834 H   0  0  0  0  0  0  0  0  0  0  0  0
  1  2  1  0
  2  3  1  0
  3  4  1  0
  4  5  1  0
  5  6  1  0
  6  7  2  0
  6  8  1  0
  8  9  1  0
  9 10  1  0
 10 11  2  0
 10 12  1  0
 12 13  2  0
 13 14  1  0
 14 15  2  0
 15 16  1  0
 16 17  2  0
 17 18  1  0
 17 19  1  0
 19 20  2  0
 20 21  1  0
 21 22  2  0
  2 23  1  0
 23 24  1  0
 24 25  1  0
 25 26  1  0
 26 27  1  0
 22 12  1  0
 27 23  1  0
 21 15  1  0
  1 28  1  0
  1 29  1  0
  1 30  1  0
  3 31  1  0
  3 32  1  0
  4 33  1  0
  4 34  1  0
  5 35  1  0
  8 36  1  0
  8 37  1  0
  9 38  1  0
 13 39  1  0
 14 40  1  0
 16 41  1  0
 19 42  1  0
 20 43  1  0
 23 44  1  0
 24 45  1  0
 24 46  1  0
 25 47  1  0
 25 48  1  0
 26 49  1  0
 26 50  1  0
 27 51  1  0
 27 52  1  0
M  END
>  <smiles>  (8) 
CN(CCNC(=O)CNC(=O)c1ccc2cc(Cl)ccc2n1)C1CCCC1

>  <score_type>  (8) 
oracle

>  <origin>  (8) 
autodockgpu

>  <m_score__min__energy>  (8) 
-8.4299999999999997

>  <m_primary>  (8) 
energy

>  <rmsd>  (8) 
8.01489544622105

>  <m_score__min__rmsd>  (8) 
8.01489544622105

>  <meeko>  (8) 
{"free_energy": -6.38, "intermolecular_energy": -8.46, "internal_energy": -2.93, "cluster_size": 1, "cluster_id": 6, "rank_in_cluster": 1}

>  <energy>  (8) 
-7.91

>  <cluster_rmsd>  (8) 
1.63

>  <cluster>  (8) 
1

$$$$

     RDKit          3D

 52 54  0  0  0  0  0  0  0  0999 V2000
  140.2660   68.2080  227.1150 C   0  0  0  0  0  0  0  0  0  0  0  0
  140.1400   69.0370  225.8690 N   0  0  0  0  0  0  0  0  0  0  0  0
  138.8780   68.6810  225.2980 C   0  0  0  0  0  0  0  0  0  0  0  0
  138.8910   68.3200  223.8410 C   0  0  0  0  0  0  0  0  0  0  0  0
  138.1410   69.3570  223.1190 N   0  0  0  0  0  0  0  0  0  0  0  0
  138.4610   70.7160  223.1320 C   0  0  0  0  0  0  0  0  0  0  0  0
  139.4760   71.1220  223.8080 O   0  0  0  0  0  0  0  0  0  0  0  0
  137.7290   71.7920  222.4230 C   0  0  0  0  0  0  0  0  0  0  0  0
  138.4340   73.0160  222.2540 N   0  0  0  0  0  0  0  0  0  0  0  0
  139.6090   73.1990  221.4810 C   0  0  0  0  0  0  0  0  0  0  0  0
  140.1310   72.2260  220.8660 O   0  0  0  0  0  0  0  0  0  0  0  0
  140.2130   74.5310  221.4040 C   0  0  0  0  0  0  0  0  0  0  0  0
  141.3010   74.8210  220.6130 C   0  0  0  0  0  0  0  0  0  0  0  0
  141.8710   76.0590  220.5350 C   0  0  0  0  0  0  0  0  0  0  0  0
  141.3180   77.0770  221.2970 C   0  0  0  0  0  0  0  0  0  0  0  0
  141.8250   78.3600  221.2850 C   0  0  0  0  0  0  0  0  0  0  0  0
  141.2160   79.3210  222.0750 C   0  0  0  0  0  0  0  0  0  0  0  0
  141.8750   80.9350  222.0430 Cl  0  0  0  0  0  0  0  0  0  0  0  0
  140.1370   79.0730  222.8720 C   0  0  0  0  0  0  0  0  0  0  0  0
  139.6380   77.7820  222.8750 C   0  0  0  0  0  0  0  0  0  0  0  0
  140.2330   76.7930  222.0880 C   0  0  0  0  0  0  0  0  0  0  0  0
  139.7030   75.5440  222.1310 N   0  0  0  0  0  0  0  0  0  0  0  0
  140.2380   70.3810  226.3980 C   0  0  0  0  0  0  0  0  0  0  0  0
  140.2520   70.3320  227.9150 C   0  0  0  0  0  0  0  0  0  0  0  0
  141.1990   71.4130  228.3660 C   0  0  0  0  0  0  0  0  0  0  0  0
  141.4520   72.2570  227.1430 C   0  0  0  0  0  0  0  0  0  0  0  0
  141.3960   71.1930  226.0280 C   0  0  0  0  0  0  0  0  0  0  0  0
  140.1675   68.8562  227.9982 H   0  0  0  0  0  0  0  0  0  0  0  0
  139.4735   67.4453  227.1297 H   0  0  0  0  0  0  0  0  0  0  0  0
  141.2494   67.7153  227.1297 H   0  0  0  0  0  0  0  0  0  0  0  0
  138.4890   67.8160  225.8552 H   0  0  0  0  0  0  0  0  0  0  0  0
  138.2542   69.5839  225.3733 H   0  0  0  0  0  0  0  0  0  0  0  0
  139.9270   68.2820  223.4733 H   0  0  0  0  0  0  0  0  0  0  0  0
  138.4330   67.3323  223.6839 H   0  0  0  0  0  0  0  0  0  0  0  0
  137.3010   69.0530  222.5640 H   0  0  0  0  0  0  0  0  0  0  0  0
  137.4618   71.4163  221.4243 H   0  0  0  0  0  0  0  0  0  0  0  0
  136.8638   72.0321  223.0584 H   0  0  0  0  0  0  0  0  0  0  0  0
  138.0620   73.8680  222.7370 H   0  0  0  0  0  0  0  0  0  0  0  0
  141.7356   74.0102  220.0100 H   0  0  0  0  0  0  0  0  0  0  0  0
  142.7414   76.2432  219.8881 H   0  0  0  0  0  0  0  0  0  0  0  0
  142.6946   78.6144  220.6612 H   0  0  0  0  0  0  0  0  0  0  0  0
  139.6831   79.8649  223.4858 H   0  0  0  0  0  0  0  0  0  0  0  0
  138.7681   77.5333  223.5006 H   0  0  0  0  0  0  0  0  0  0  0  0
  139.3614   70.8652  225.9428 H   0  0  0  0  0  0  0  0  0  0  0  0
  139.2432   70.5202  228.3111 H   0  0  0  0  0  0  0  0  0  0  0  0
  140.5711   69.3444  228.2794 H   0  0  0  0  0  0  0  0  0  0  0  0
  140.7419   72.0175  229.1633 H   0  0  0  0  0  0  0  0  0  0  0  0
  142.1308   70.9965  228.7763 H   0  0  0  0  0  0  0  0  0  0  0  0
  140.6710   73.0203  227.0114 H   0  0  0  0  0  0  0  0  0  0  0  0
  142.3915   72.8283  227.1751 H   0  0  0  0  0  0  0  0  0  0  0  0
  141.2509   71.6611  225.0432 H   0  0  0  0  0  0  0  0  0  0  0  0
  142.3236   70.6078  225.9436 H   0  0  0  0  0  0  0  0  0  0  0  0
  1  2  1  0
  2  3  1  0
  3  4  1  0
  4  5  1  0
  5  6  1  0
  6  7  2  0
  6  8  1  0
  8  9  1  0
  9 10  1  0
 10 11  2  0
 10 12  1  0
 12 13  2  0
 13 14  1  0
 14 15  2  0
 15 16  1  0
 16 17  2  0
 17 18  1  0
 17 19  1  0
 19 20  2  0
 20 21  1  0
 21 22  2  0
  2 23  1  0
 23 24  1  0
 24 25  1  0
 25 26  1  0
 26 27  1  0
 22 12  1  0
 27 23  1  0
 21 15  1  0
  1 28  1  0
  1 29  1  0
  1 30  1  0
  3 31  1  0
  3 32  1  0
  4 33  1  0
  4 34  1  0
  5 35  1  0
  8 36  1  0
  8 37  1  0
  9 38  1  0
 13 39  1  0
 14 40  1  0
 16 41  1  0
 19 42  1  0
 20 43  1  0
 23 44  1  0
 24 45  1  0
 24 46  1  0
 25 47  1  0
 25 48  1  0
 26 49  1  0
 26 50  1  0
 27 51  1  0
 27 52  1  0
M  END
>  <smiles>  (9) 
CN(CCNC(=O)CNC(=O)c1ccc2cc(Cl)ccc2n1)C1CCCC1

>  <score_type>  (9) 
oracle

>  <origin>  (9) 
autodockgpu

>  <m_score__min__energy>  (9) 
-8.4299999999999997

>  <m_primary>  (9) 
energy

>  <rmsd>  (9) 
8.556205840404278

>  <m_score__min__rmsd>  (9) 
8.556205840404278

>  <meeko>  (9) 
{"free_energy": -7.68, "intermolecular_energy": -9.77, "internal_energy": -1.58, "cluster_size": 14, "cluster_id": 3, "rank_in_cluster": 1}

>  <energy>  (9) 
-7.78

>  <cluster_rmsd>  (9) 
1.49

>  <cluster>  (9) 
1

$$$$

     RDKit          3D

 52 54  0  0  0  0  0  0  0  0999 V2000
  140.5150   68.0840  227.0950 C   0  0  0  0  0  0  0  0  0  0  0  0
  140.4040   68.8590  225.8130 N   0  0  0  0  0  0  0  0  0  0  0  0
  139.2380   68.3520  225.1590 C   0  0  0  0  0  0  0  0  0  0  0  0
  138.4570   69.3410  224.3420 C   0  0  0  0  0  0  0  0  0  0  0  0
  139.3050   69.7550  223.2160 N   0  0  0  0  0  0  0  0  0  0  0  0
  139.8490   71.0320  223.0650 C   0  0  0  0  0  0  0  0  0  0  0  0
  139.6150   71.9300  223.9550 O   0  0  0  0  0  0  0  0  0  0  0  0
  140.7030   71.4910  221.9440 C   0  0  0  0  0  0  0  0  0  0  0  0
  140.8710   72.8980  221.8270 N   0  0  0  0  0  0  0  0  0  0  0  0
  141.6550   73.5640  220.8500 C   0  0  0  0  0  0  0  0  0  0  0  0
  142.2920   72.9050  219.9800 O   0  0  0  0  0  0  0  0  0  0  0  0
  141.7200   75.0280  220.8620 C   0  0  0  0  0  0  0  0  0  0  0  0
  142.4460   75.7570  219.9490 C   0  0  0  0  0  0  0  0  0  0  0  0
  142.5140   77.1210  219.9520 C   0  0  0  0  0  0  0  0  0  0  0  0
  141.8080   77.8030  220.9330 C   0  0  0  0  0  0  0  0  0  0  0  0
  141.8150   79.1800  221.0170 C   0  0  0  0  0  0  0  0  0  0  0  0
  141.0840   79.7860  222.0250 C   0  0  0  0  0  0  0  0  0  0  0  0
  141.1090   81.5270  222.1120 Cl  0  0  0  0  0  0  0  0  0  0  0  0
  140.3520   79.0970  222.9480 C   0  0  0  0  0  0  0  0  0  0  0  0
  140.3530   77.7170  222.8530 C   0  0  0  0  0  0  0  0  0  0  0  0
  141.0820   77.0790  221.8450 C   0  0  0  0  0  0  0  0  0  0  0  0
  141.0480   75.7230  221.7990 N   0  0  0  0  0  0  0  0  0  0  0  0
  140.3140   70.2210  226.2990 C   0  0  0  0  0  0  0  0  0  0  0  0
  140.1110   70.2120  227.8040 C   0  0  0  0  0  0  0  0  0  0  0  0
  140.8910   71.3820  228.3440 C   0  0  0  0  0  0  0  0  0  0  0  0
  141.2490   72.2120  227.1390 C   0  0  0  0  0  0  0  0  0  0  0  0
  141.4440   71.1190  226.0690 C   0  0  0  0  0  0  0  0  0  0  0  0
  140.4166   68.7710  227.9484 H   0  0  0  0  0  0  0  0  0  0  0  0
  139.7158   67.3294  227.1377 H   0  0  0  0  0  0  0  0  0  0  0  0
  141.4939   67.5841  227.1377 H   0  0  0  0  0  0  0  0  0  0  0  0
  139.5548   67.5386  224.4896 H   0  0  0  0  0  0  0  0  0  0  0  0
  138.5609   68.0344  225.9656 H   0  0  0  0  0  0  0  0  0  0  0  0
  137.5360   68.8721  223.9654 H   0  0  0  0  0  0  0  0  0  0  0  0
  138.1755   70.2107  224.9538 H   0  0  0  0  0  0  0  0  0  0  0  0
  139.5060   69.0420  222.4690 H   0  0  0  0  0  0  0  0  0  0  0  0
  141.6989   71.0423  222.0734 H   0  0  0  0  0  0  0  0  0  0  0  0
  140.1846   71.1758  221.0265 H   0  0  0  0  0  0  0  0  0  0  0  0
  140.3750   73.5120  222.5160 H   0  0  0  0  0  0  0  0  0  0  0  0
  143.0028   75.2109  219.1733 H   0  0  0  0  0  0  0  0  0  0  0  0
  143.1091   77.6615  219.2012 H   0  0  0  0  0  0  0  0  0  0  0  0
  142.3890   79.7837  220.2986 H   0  0  0  0  0  0  0  0  0  0  0  0
  139.7852   79.6171  223.7343 H   0  0  0  0  0  0  0  0  0  0  0  0
  139.7772   77.1185  223.5743 H   0  0  0  0  0  0  0  0  0  0  0  0
  139.4771   70.6165  225.7047 H   0  0  0  0  0  0  0  0  0  0  0  0
  139.0434   70.3225  228.0448 H   0  0  0  0  0  0  0  0  0  0  0  0
  140.4530   69.2652  228.2474 H   0  0  0  0  0  0  0  0  0  0  0  0
  140.2751   71.9653  229.0443 H   0  0  0  0  0  0  0  0  0  0  0  0
  141.7841   71.0583  228.8987 H   0  0  0  0  0  0  0  0  0  0  0  0
  140.4353   72.9008  226.8679 H   0  0  0  0  0  0  0  0  0  0  0  0
  142.1236   72.8633  227.2834 H   0  0  0  0  0  0  0  0  0  0  0  0
  141.4077   71.5473  225.0565 H   0  0  0  0  0  0  0  0  0  0  0  0
  142.4183   70.6135  226.1413 H   0  0  0  0  0  0  0  0  0  0  0  0
  1  2  1  0
  2  3  1  0
  3  4  1  0
  4  5  1  0
  5  6  1  0
  6  7  2  0
  6  8  1  0
  8  9  1  0
  9 10  1  0
 10 11  2  0
 10 12  1  0
 12 13  2  0
 13 14  1  0
 14 15  2  0
 15 16  1  0
 16 17  2  0
 17 18  1  0
 17 19  1  0
 19 20  2  0
 20 21  1  0
 21 22  2  0
  2 23  1  0
 23 24  1  0
 24 25  1  0
 25 26  1  0
 26 27  1  0
 22 12  1  0
 27 23  1  0
 21 15  1  0
  1 28  1  0
  1 29  1  0
  1 30  1  0
  3 31  1  0
  3 32  1  0
  4 33  1  0
  4 34  1  0
  5 35  1  0
  8 36  1  0
  8 37  1  0
  9 38  1  0
 13 39  1  0
 14 40  1  0
 16 41  1  0
 19 42  1  0
 20 43  1  0
 23 44  1  0
 24 45  1  0
 24 46  1  0
 25 47  1  0
 25 48  1  0
 26 49  1  0
 26 50  1  0
 27 51  1  0
 27 52  1  0
M  END
>  <smiles>  (10) 
CN(CCNC(=O)CNC(=O)c1ccc2cc(Cl)ccc2n1)C1CCCC1

>  <score_type>  (10) 
oracle

>  <origin>  (10) 
autodockgpu

>  <m_score__min__energy>  (10) 
-8.4299999999999997

>  <m_primary>  (10) 
energy

>  <rmsd>  (10) 
8.708827176807375

>  <m_score__min__rmsd>  (10) 
8.708827176807375

>  <meeko>  (10) 
{"free_energy": -7.45, "intermolecular_energy": -9.53, "internal_energy": -2.17, "cluster_size": 14, "cluster_id": 3, "rank_in_cluster": 4}

>  <energy>  (10) 
-7.75

>  <cluster_rmsd>  (10) 
0.92

>  <cluster>  (10) 
1

$$$$

     RDKit          3D

 52 54  0  0  0  0  0  0  0  0999 V2000
  141.8180   79.6780  219.2980 C   0  0  0  0  0  0  0  0  0  0  0  0
  141.4500   78.6490  220.3290 N   0  0  0  0  0  0  0  0  0  0  0  0
  142.2060   77.4830  219.9940 C   0  0  0  0  0  0  0  0  0  0  0  0
  141.5680   76.1650  220.3270 C   0  0  0  0  0  0  0  0  0  0  0  0
  140.2160   76.4400  220.8330 N   0  0  0  0  0  0  0  0  0  0  0  0
  139.5420   75.6400  221.7570 C   0  0  0  0  0  0  0  0  0  0  0  0
  140.1140   74.5860  222.2210 O   0  0  0  0  0  0  0  0  0  0  0  0
  138.1790   75.8790  222.2890 C   0  0  0  0  0  0  0  0  0  0  0  0
  137.9050   77.2040  222.7270 N   0  0  0  0  0  0  0  0  0  0  0  0
  137.9640   78.3730  221.9270 C   0  0  0  0  0  0  0  0  0  0  0  0
  138.2870   78.3010  220.7080 O   0  0  0  0  0  0  0  0  0  0  0  0
  137.6460   79.6690  222.5320 C   0  0  0  0  0  0  0  0  0  0  0  0
  137.5350   80.8330  221.8070 C   0  0  0  0  0  0  0  0  0  0  0  0
  137.2400   82.0450  222.3610 C   0  0  0  0  0  0  0  0  0  0  0  0
  137.0410   82.1000  223.7330 C   0  0  0  0  0  0  0  0  0  0  0  0
  136.7390   83.2780  224.3830 C   0  0  0  0  0  0  0  0  0  0  0  0
  136.5550   83.2490  225.7560 C   0  0  0  0  0  0  0  0  0  0  0  0
  136.1740   84.7510  226.5560 Cl  0  0  0  0  0  0  0  0  0  0  0  0
  136.6550   82.1160  226.5090 C   0  0  0  0  0  0  0  0  0  0  0  0
  136.9590   80.9410  225.8450 C   0  0  0  0  0  0  0  0  0  0  0  0
  137.1500   80.9410  224.4610 C   0  0  0  0  0  0  0  0  0  0  0  0
  137.4460   79.7600  223.8620 N   0  0  0  0  0  0  0  0  0  0  0  0
  141.8300   79.3160  221.5580 C   0  0  0  0  0  0  0  0  0  0  0  0
  141.2200   80.7060  221.5930 C   0  0  0  0  0  0  0  0  0  0  0  0
  140.8330   80.9640  223.0250 C   0  0  0  0  0  0  0  0  0  0  0  0
  141.5070   79.8780  223.8220 C   0  0  0  0  0  0  0  0  0  0  0  0
  141.4540   78.6990  222.8300 C   0  0  0  0  0  0  0  0  0  0  0  0
  142.1475   80.5992  219.8008 H   0  0  0  0  0  0  0  0  0  0  0  0
  142.6337   79.2916  218.6692 H   0  0  0  0  0  0  0  0  0  0  0  0
  140.9423   79.8965  218.6692 H   0  0  0  0  0  0  0  0  0  0  0  0
  142.3915   77.5025  218.9099 H   0  0  0  0  0  0  0  0  0  0  0  0
  143.1170   77.5344  220.6083 H   0  0  0  0  0  0  0  0  0  0  0  0
  141.5104   75.5378  219.4251 H   0  0  0  0  0  0  0  0  0  0  0  0
  142.1612   75.6290  221.0825 H   0  0  0  0  0  0  0  0  0  0  0  0
  139.7220   77.2920  220.4640 H   0  0  0  0  0  0  0  0  0  0  0  0
  137.4594   75.6313  221.4948 H   0  0  0  0  0  0  0  0  0  0  0  0
  138.0950   75.2467  223.1852 H   0  0  0  0  0  0  0  0  0  0  0  0
  137.6320   77.3430  223.7290 H   0  0  0  0  0  0  0  0  0  0  0  0
  137.6929   80.7841  220.7195 H   0  0  0  0  0  0  0  0  0  0  0  0
  137.1625   82.9493  221.7396 H   0  0  0  0  0  0  0  0  0  0  0  0
  136.6462   84.2205  223.8235 H   0  0  0  0  0  0  0  0  0  0  0  0
  136.5005   82.1358  227.5979 H   0  0  0  0  0  0  0  0  0  0  0  0
  137.0508   80.0016  226.4098 H   0  0  0  0  0  0  0  0  0  0  0  0
  142.9280   79.2762  221.5050 H   0  0  0  0  0  0  0  0  0  0  0  0
  141.9547   81.4525  221.2570 H   0  0  0  0  0  0  0  0  0  0  0  0
  140.3486   80.7762  220.9254 H   0  0  0  0  0  0  0  0  0  0  0  0
  141.1871   81.9543  223.3472 H   0  0  0  0  0  0  0  0  0  0  0  0
  139.7416   80.9555  223.1622 H   0  0  0  0  0  0  0  0  0  0  0  0
  142.5437   80.1469  224.0730 H   0  0  0  0  0  0  0  0  0  0  0  0
  141.0334   79.6716  224.7931 H   0  0  0  0  0  0  0  0  0  0  0  0
  142.1688   77.9124  223.1135 H   0  0  0  0  0  0  0  0  0  0  0  0
  140.4709   78.2066  222.7969 H   0  0  0  0  0  0  0  0  0  0  0  0
  1  2  1  0
  2  3  1  0
  3  4  1  0
  4  5  1  0
  5  6  1  0
  6  7  2  0
  6  8  1  0
  8  9  1  0
  9 10  1  0
 10 11  2  0
 10 12  1  0
 12 13  2  0
 13 14  1  0
 14 15  2  0
 15 16  1  0
 16 17  2  0
 17 18  1  0
 17 19  1  0
 19 20  2  0
 20 21  1  0
 21 22  2  0
  2 23  1  0
 23 24  1  0
 24 25  1  0
 25 26  1  0
 26 27  1  0
 22 12  1  0
 27 23  1  0
 21 15  1  0
  1 28  1  0
  1 29  1  0
  1 30  1  0
  3 31  1  0
  3 32  1  0
  4 33  1  0
  4 34  1  0
  5 35  1  0
  8 36  1  0
  8 37  1  0
  9 38  1  0
 13 39  1  0
 14 40  1  0
 16 41  1  0
 19 42  1  0
 20 43  1  0
 23 44  1  0
 24 45  1  0
 24 46  1  0
 25 47  1  0
 25 48  1  0
 26 49  1  0
 26 50  1  0
 27 51  1  0
 27 52  1  0
M  END
>  <smiles>  (11) 
CN(CCNC(=O)CNC(=O)c1ccc2cc(Cl)ccc2n1)C1CCCC1

>  <score_type>  (11) 
oracle

>  <origin>  (11) 
autodockgpu

>  <m_score__min__energy>  (11) 
-8.4299999999999997

>  <m_primary>  (11) 
energy

>  <rmsd>  (11) 
8.462961635385277

>  <m_score__min__rmsd>  (11) 
8.462961635385277

>  <meeko>  (11) 
{"free_energy": -5.22, "intermolecular_energy": -7.31, "internal_energy": -4.13, "cluster_size": 8, "cluster_id": 7, "rank_in_cluster": 7}

>  <energy>  (11) 
-7.75

>  <cluster_rmsd>  (11) 
0.79

>  <cluster>  (11) 
1

$$$$

     RDKit          3D

 52 54  0  0  0  0  0  0  0  0999 V2000
  145.3230   73.3940  221.2250 C   0  0  0  0  0  0  0  0  0  0  0  0
  143.9740   73.6180  220.6040 N   0  0  0  0  0  0  0  0  0  0  0  0
  144.0910   74.8320  219.8590 C   0  0  0  0  0  0  0  0  0  0  0  0
  143.0170   75.8560  220.0910 C   0  0  0  0  0  0  0  0  0  0  0  0
  141.7780   75.1350  220.4110 N   0  0  0  0  0  0  0  0  0  0  0  0
  140.5780   75.7510  220.7720 C   0  0  0  0  0  0  0  0  0  0  0  0
  140.5170   77.0330  220.8360 O   0  0  0  0  0  0  0  0  0  0  0  0
  139.3080   75.0620  221.1060 C   0  0  0  0  0  0  0  0  0  0  0  0
  139.4020   74.0170  222.0660 N   0  0  0  0  0  0  0  0  0  0  0  0
  139.9760   72.7390  221.8510 C   0  0  0  0  0  0  0  0  0  0  0  0
  140.4620   72.4340  220.7240 O   0  0  0  0  0  0  0  0  0  0  0  0
  139.9990   71.7710  222.9510 C   0  0  0  0  0  0  0  0  0  0  0  0
  139.5550   70.4750  222.8240 C   0  0  0  0  0  0  0  0  0  0  0  0
  139.5720   69.5660  223.8430 C   0  0  0  0  0  0  0  0  0  0  0  0
  140.0670   69.9790  225.0720 C   0  0  0  0  0  0  0  0  0  0  0  0
  140.1240   69.1330  226.1600 C   0  0  0  0  0  0  0  0  0  0  0  0
  140.6320   69.6210  227.3530 C   0  0  0  0  0  0  0  0  0  0  0  0
  140.6930   68.5340  228.7140 Cl  0  0  0  0  0  0  0  0  0  0  0  0
  141.0810   70.8980  227.5170 C   0  0  0  0  0  0  0  0  0  0  0  0
  141.0190   71.7370  226.4180 C   0  0  0  0  0  0  0  0  0  0  0  0
  140.5110   71.2710  225.2020 C   0  0  0  0  0  0  0  0  0  0  0  0
  140.4730   72.1360  224.1580 N   0  0  0  0  0  0  0  0  0  0  0  0
  143.8060   72.4110  219.8210 C   0  0  0  0  0  0  0  0  0  0  0  0
  145.1330   72.0230  219.1930 C   0  0  0  0  0  0  0  0  0  0  0  0
  145.1910   70.5180  219.2210 C   0  0  0  0  0  0  0  0  0  0  0  0
  143.7920   70.0710  219.5560 C   0  0  0  0  0  0  0  0  0  0  0  0
  143.3320   71.2030  220.4960 C   0  0  0  0  0  0  0  0  0  0  0  0
  145.2293   73.4096  222.3209 H   0  0  0  0  0  0  0  0  0  0  0  0
  145.7167   72.4182  220.9045 H   0  0  0  0  0  0  0  0  0  0  0  0
  146.0110   74.1902  220.9045 H   0  0  0  0  0  0  0  0  0  0  0  0
  145.0560   75.2928  220.1168 H   0  0  0  0  0  0  0  0  0  0  0  0
  143.9978   74.5403  218.8025 H   0  0  0  0  0  0  0  0  0  0  0  0
  143.2975   76.5104  220.9295 H   0  0  0  0  0  0  0  0  0  0  0  0
  142.8800   76.4817  219.1967 H   0  0  0  0  0  0  0  0  0  0  0  0
  141.8010   74.0840  220.3730 H   0  0  0  0  0  0  0  0  0  0  0  0
  138.6081   75.8158  221.4958 H   0  0  0  0  0  0  0  0  0  0  0  0
  138.9763   74.5810  220.1740 H   0  0  0  0  0  0  0  0  0  0  0  0
  139.0180   74.1950  223.0250 H   0  0  0  0  0  0  0  0  0  0  0  0
  139.1646   70.1531  221.8473 H   0  0  0  0  0  0  0  0  0  0  0  0
  139.2052   68.5396  223.6945 H   0  0  0  0  0  0  0  0  0  0  0  0
  139.7736   68.0932  226.0821 H   0  0  0  0  0  0  0  0  0  0  0  0
  141.4760   71.2468  228.4825 H   0  0  0  0  0  0  0  0  0  0  0  0
  141.3712   72.7757  226.5019 H   0  0  0  0  0  0  0  0  0  0  0  0
  143.0121   72.7068  219.1194 H   0  0  0  0  0  0  0  0  0  0  0  0
  145.1843   72.3868  218.1562 H   0  0  0  0  0  0  0  0  0  0  0  0
  145.9784   72.4656  219.7401 H   0  0  0  0  0  0  0  0  0  0  0  0
  145.4958   70.1261  218.2394 H   0  0  0  0  0  0  0  0  0  0  0  0
  145.9248   70.1500  219.9532 H   0  0  0  0  0  0  0  0  0  0  0  0
  143.1613   70.0128  218.6566 H   0  0  0  0  0  0  0  0  0  0  0  0
  143.7334   69.0655  219.9983 H   0  0  0  0  0  0  0  0  0  0  0  0
  142.2367   71.2114  220.5968 H   0  0  0  0  0  0  0  0  0  0  0  0
  143.7220   71.0993  221.5193 H   0  0  0  0  0  0  0  0  0  0  0  0
  1  2  1  0
  2  3  1  0
  3  4  1  0
  4  5  1  0
  5  6  1  0
  6  7  2  0
  6  8  1  0
  8  9  1  0
  9 10  1  0
 10 11  2  0
 10 12  1  0
 12 13  2  0
 13 14  1  0
 14 15  2  0
 15 16  1  0
 16 17  2  0
 17 18  1  0
 17 19  1  0
 19 20  2  0
 20 21  1  0
 21 22  2  0
  2 23  1  0
 23 24  1  0
 24 25  1  0
 25 26  1  0
 26 27  1  0
 22 12  1  0
 27 23  1  0
 21 15  1  0
  1 28  1  0
  1 29  1  0
  1 30  1  0
  3 31  1  0
  3 32  1  0
  4 33  1  0
  4 34  1  0
  5 35  1  0
  8 36  1  0
  8 37  1  0
  9 38  1  0
 13 39  1  0
 14 40  1  0
 16 41  1  0
 19 42  1  0
 20 43  1  0
 23 44  1  0
 24 45  1  0
 24 46  1  0
 25 47  1  0
 25 48  1  0
 26 49  1  0
 26 50  1  0
 27 51  1  0
 27 52  1  0
M  END
>  <smiles>  (12) 
CN(CCNC(=O)CNC(=O)c1ccc2cc(Cl)ccc2n1)C1CCCC1

>  <score_type>  (12) 
oracle

>  <origin>  (12) 
autodockgpu

>  <m_score__min__energy>  (12) 
-8.4299999999999997

>  <m_primary>  (12) 
energy

>  <rmsd>  (12) 
5.682767338701207

>  <m_score__min__rmsd>  (12) 
5.682767338701207

>  <meeko>  (12) 
{"free_energy": -6.91, "intermolecular_energy": -9.0, "internal_energy": -2.99, "cluster_size": 4, "cluster_id": 5, "rank_in_cluster": 1}

>  <energy>  (12) 
-7.7

>  <cluster_rmsd>  (12) 
0.82

>  <cluster>  (12) 
1

$$$$

     RDKit          3D

 52 54  0  0  0  0  0  0  0  0999 V2000
  138.5010   80.4770  223.2740 C   0  0  0  0  0  0  0  0  0  0  0  0
  139.1510   79.1620  223.5950 N   0  0  0  0  0  0  0  0  0  0  0  0
  138.9380   78.3380  222.4470 C   0  0  0  0  0  0  0  0  0  0  0  0
  138.0740   77.1280  222.6540 C   0  0  0  0  0  0  0  0  0  0  0  0
  138.9050   75.9410  222.4070 N   0  0  0  0  0  0  0  0  0  0  0  0
  139.6370   75.7190  221.2380 C   0  0  0  0  0  0  0  0  0  0  0  0
  139.6070   76.5940  220.2960 O   0  0  0  0  0  0  0  0  0  0  0  0
  140.4810   74.5370  220.9480 C   0  0  0  0  0  0  0  0  0  0  0  0
  140.4700   73.5080  221.9300 N   0  0  0  0  0  0  0  0  0  0  0  0
  139.4610   72.5260  222.0950 C   0  0  0  0  0  0  0  0  0  0  0  0
  138.4500   72.5120  221.3370 O   0  0  0  0  0  0  0  0  0  0  0  0
  139.6020   71.5270  223.1570 C   0  0  0  0  0  0  0  0  0  0  0  0
  139.1860   70.2230  223.0260 C   0  0  0  0  0  0  0  0  0  0  0  0
  139.3130   69.2850  224.0090 C   0  0  0  0  0  0  0  0  0  0  0  0
  139.8960   69.6750  225.2060 C   0  0  0  0  0  0  0  0  0  0  0  0
  140.0670   68.8000  226.2580 C   0  0  0  0  0  0  0  0  0  0  0  0
  140.6570   69.2670  227.4210 C   0  0  0  0  0  0  0  0  0  0  0  0
  140.8620   68.1420  228.7360 Cl  0  0  0  0  0  0  0  0  0  0  0  0
  141.0820   70.5520  227.5890 C   0  0  0  0  0  0  0  0  0  0  0  0
  140.9060   71.4210  226.5270 C   0  0  0  0  0  0  0  0  0  0  0  0
  140.3130   70.9760  225.3420 C   0  0  0  0  0  0  0  0  0  0  0  0
  140.1630   71.8710  224.3330 N   0  0  0  0  0  0  0  0  0  0  0  0
  140.5220   79.5630  223.8400 C   0  0  0  0  0  0  0  0  0  0  0  0
  141.4660   78.5780  223.1740 C   0  0  0  0  0  0  0  0  0  0  0  0
  142.6250   79.3880  222.6540 C   0  0  0  0  0  0  0  0  0  0  0  0
  142.4880   80.7420  223.3000 C   0  0  0  0  0  0  0  0  0  0  0  0
  140.9540   80.8820  223.3800 C   0  0  0  0  0  0  0  0  0  0  0  0
  138.2440   80.9968  224.2087 H   0  0  0  0  0  0  0  0  0  0  0  0
  139.1966   81.0967  222.6891 H   0  0  0  0  0  0  0  0  0  0  0  0
  137.5863   80.3007  222.6891 H   0  0  0  0  0  0  0  0  0  0  0  0
  138.4668   78.9586  221.6706 H   0  0  0  0  0  0  0  0  0  0  0  0
  139.9302   77.9495  222.1738 H   0  0  0  0  0  0  0  0  0  0  0  0
  137.6931   77.1111  223.6858 H   0  0  0  0  0  0  0  0  0  0  0  0
  137.2132   77.1462  221.9694 H   0  0  0  0  0  0  0  0  0  0  0  0
  138.9410   75.2060  223.1580 H   0  0  0  0  0  0  0  0  0  0  0  0
  140.1350   74.1008  219.9993 H   0  0  0  0  0  0  0  0  0  0  0  0
  141.5154   74.9102  220.9205 H   0  0  0  0  0  0  0  0  0  0  0  0
  141.2770   73.4580  222.5980 H   0  0  0  0  0  0  0  0  0  0  0  0
  138.7247   69.9186  222.0749 H   0  0  0  0  0  0  0  0  0  0  0  0
  138.9643   68.2528  223.8572 H   0  0  0  0  0  0  0  0  0  0  0  0
  139.7415   67.7525  226.1753 H   0  0  0  0  0  0  0  0  0  0  0  0
  141.5455   70.8837  228.5298 H   0  0  0  0  0  0  0  0  0  0  0  0
  141.2343   72.4671  226.6155 H   0  0  0  0  0  0  0  0  0  0  0  0
  140.5563   79.5909  224.9391 H   0  0  0  0  0  0  0  0  0  0  0  0
  141.8182   77.8347  223.9044 H   0  0  0  0  0  0  0  0  0  0  0  0
  140.9648   78.0306  222.3621 H   0  0  0  0  0  0  0  0  0  0  0  0
  143.5794   78.9207  222.9382 H   0  0  0  0  0  0  0  0  0  0  0  0
  142.6171   79.4557  221.5561 H   0  0  0  0  0  0  0  0  0  0  0  0
  142.9471   80.7601  224.2995 H   0  0  0  0  0  0  0  0  0  0  0  0
  142.9877   81.5555  222.7536 H   0  0  0  0  0  0  0  0  0  0  0  0
  140.6661   81.6640  224.0980 H   0  0  0  0  0  0  0  0  0  0  0  0
  140.4971   81.1765  222.4237 H   0  0  0  0  0  0  0  0  0  0  0  0
  1  2  1  0
  2  3  1  0
  3  4  1  0
  4  5  1  0
  5  6  1  0
  6  7  2  0
  6  8  1  0
  8  9  1  0
  9 10  1  0
 10 11  2  0
 10 12  1  0
 12 13  2  0
 13 14  1  0
 14 15  2  0
 15 16  1  0
 16 17  2  0
 17 18  1  0
 17 19  1  0
 19 20  2  0
 20 21  1  0
 21 22  2  0
  2 23  1  0
 23 24  1  0
 24 25  1  0
 25 26  1  0
 26 27  1  0
 22 12  1  0
 27 23  1  0
 21 15  1  0
  1 28  1  0
  1 29  1  0
  1 30  1  0
  3 31  1  0
  3 32  1  0
  4 33  1  0
  4 34  1  0
  5 35  1  0
  8 36  1  0
  8 37  1  0
  9 38  1  0
 13 39  1  0
 14 40  1  0
 16 41  1  0
 19 42  1  0
 20 43  1  0
 23 44  1  0
 24 45  1  0
 24 46  1  0
 25 47  1  0
 25 48  1  0
 26 49  1  0
 26 50  1  0
 27 51  1  0
 27 52  1  0
M  END
>  <smiles>  (13) 
CN(CCNC(=O)CNC(=O)c1ccc2cc(Cl)ccc2n1)C1CCCC1

>  <score_type>  (13) 
oracle

>  <origin>  (13) 
autodockgpu

>  <m_score__min__energy>  (13) 
-8.4299999999999997

>  <m_primary>  (13) 
energy

>  <rmsd>  (13) 
5.529518000133637

>  <m_score__min__rmsd>  (13) 
5.529518000133637

>  <meeko>  (13) 
{"free_energy": -7.98, "intermolecular_energy": -10.06, "internal_energy": -1.43, "cluster_size": 21, "cluster_id": 1, "rank_in_cluster": 5}

>  <energy>  (13) 
-7.61

>  <cluster_rmsd>  (13) 
1.4

>  <cluster>  (13) 
1

$$$$

     RDKit          3D

 52 54  0  0  0  0  0  0  0  0999 V2000
  145.1730   73.2980  221.1890 C   0  0  0  0  0  0  0  0  0  0  0  0
  143.8700   73.6840  220.5490 N   0  0  0  0  0  0  0  0  0  0  0  0
  144.1550   74.8530  219.7760 C   0  0  0  0  0  0  0  0  0  0  0  0
  143.0920   75.9150  219.7690 C   0  0  0  0  0  0  0  0  0  0  0  0
  141.8210   75.2740  220.1330 N   0  0  0  0  0  0  0  0  0  0  0  0
  140.7760   75.9170  220.7990 C   0  0  0  0  0  0  0  0  0  0  0  0
  140.8990   77.1540  221.1280 O   0  0  0  0  0  0  0  0  0  0  0  0
  139.4820   75.3080  221.1880 C   0  0  0  0  0  0  0  0  0  0  0  0
  139.5560   74.2230  222.1050 N   0  0  0  0  0  0  0  0  0  0  0  0
  140.0520   72.9250  221.8190 C   0  0  0  0  0  0  0  0  0  0  0  0
  140.4760   72.6400  220.6630 O   0  0  0  0  0  0  0  0  0  0  0  0
  140.0660   71.9160  222.8810 C   0  0  0  0  0  0  0  0  0  0  0  0
  139.6420   70.6200  222.6950 C   0  0  0  0  0  0  0  0  0  0  0  0
  139.6500   69.6730  223.6770 C   0  0  0  0  0  0  0  0  0  0  0  0
  140.1140   70.0430  224.9320 C   0  0  0  0  0  0  0  0  0  0  0  0
  140.1600   69.1560  225.9870 C   0  0  0  0  0  0  0  0  0  0  0  0
  140.6360   69.6040  227.2080 C   0  0  0  0  0  0  0  0  0  0  0  0
  140.6840   68.4650  228.5270 Cl  0  0  0  0  0  0  0  0  0  0  0  0
  141.0650   70.8790  227.4320 C   0  0  0  0  0  0  0  0  0  0  0  0
  141.0130   71.7590  226.3650 C   0  0  0  0  0  0  0  0  0  0  0  0
  140.5370   71.3340  225.1220 C   0  0  0  0  0  0  0  0  0  0  0  0
  140.5090   72.2400  224.1110 N   0  0  0  0  0  0  0  0  0  0  0  0
  143.5470   72.4910  219.7940 C   0  0  0  0  0  0  0  0  0  0  0  0
  144.7380   72.0910  218.9400 C   0  0  0  0  0  0  0  0  0  0  0  0
  144.7720   70.5850  218.9400 C   0  0  0  0  0  0  0  0  0  0  0  0
  143.4450   70.1560  219.5080 C   0  0  0  0  0  0  0  0  0  0  0  0
  143.1760   71.2820  220.5270 C   0  0  0  0  0  0  0  0  0  0  0  0
  145.0674   73.3293  222.2835 H   0  0  0  0  0  0  0  0  0  0  0  0
  145.4478   72.2799  220.8761 H   0  0  0  0  0  0  0  0  0  0  0  0
  145.9580   74.0022  220.8761 H   0  0  0  0  0  0  0  0  0  0  0  0
  145.0769   75.3025  220.1736 H   0  0  0  0  0  0  0  0  0  0  0  0
  144.2347   74.5072  218.7348 H   0  0  0  0  0  0  0  0  0  0  0  0
  143.3398   76.6985  220.5002 H   0  0  0  0  0  0  0  0  0  0  0  0
  143.0187   76.3816  218.7755 H   0  0  0  0  0  0  0  0  0  0  0  0
  141.6970   74.2600  219.8820 H   0  0  0  0  0  0  0  0  0  0  0  0
  138.8636   76.0943  221.6456 H   0  0  0  0  0  0  0  0  0  0  0  0
  139.0613   74.8873  220.2628 H   0  0  0  0  0  0  0  0  0  0  0  0
  139.2200   74.3830  223.0840 H   0  0  0  0  0  0  0  0  0  0  0  0
  139.2761   70.3315  221.6986 H   0  0  0  0  0  0  0  0  0  0  0  0
  139.2999   68.6488  223.4806 H   0  0  0  0  0  0  0  0  0  0  0  0
  139.8260   68.1155  225.8615 H   0  0  0  0  0  0  0  0  0  0  0  0
  141.4364   71.1944  228.4182 H   0  0  0  0  0  0  0  0  0  0  0  0
  141.3482   72.7984  226.4963 H   0  0  0  0  0  0  0  0  0  0  0  0
  142.6486   72.8091  219.2447 H   0  0  0  0  0  0  0  0  0  0  0  0
  144.6153   72.4691  217.9144 H   0  0  0  0  0  0  0  0  0  0  0  0
  145.6736   72.5119  219.3368 H   0  0  0  0  0  0  0  0  0  0  0  0
  144.8942   70.2026  217.9159 H   0  0  0  0  0  0  0  0  0  0  0  0
  145.6150   70.1945  219.5290 H   0  0  0  0  0  0  0  0  0  0  0  0
  142.6667   70.1209  218.7314 H   0  0  0  0  0  0  0  0  0  0  0  0
  143.4458   69.1454  219.9423 H   0  0  0  0  0  0  0  0  0  0  0  0
  142.1152   71.3064  220.8171 H   0  0  0  0  0  0  0  0  0  0  0  0
  143.7360   71.1575  221.4655 H   0  0  0  0  0  0  0  0  0  0  0  0
  1  2  1  0
  2  3  1  0
  3  4  1  0
  4  5  1  0
  5  6  1  0
  6  7  2  0
  6  8  1  0
  8  9  1  0
  9 10  1  0
 10 11  2  0
 10 12  1  0
 12 13  2  0
 13 14  1  0
 14 15  2  0
 15 16  1  0
 16 17  2  0
 17 18  1  0
 17 19  1  0
 19 20  2  0
 20 21  1  0
 21 22  2  0
  2 23  1  0
 23 24  1  0
 24 25  1  0
 25 26  1  0
 26 27  1  0
 22 12  1  0
 27 23  1  0
 21 15  1  0
  1 28  1  0
  1 29  1  0
  1 30  1  0
  3 31  1  0
  3 32  1  0
  4 33  1  0
  4 34  1  0
  5 35  1  0
  8 36  1  0
  8 37  1  0
  9 38  1  0
 13 39  1  0
 14 40  1  0
 16 41  1  0
 19 42  1  0
 20 43  1  0
 23 44  1  0
 24 45  1  0
 24 46  1  0
 25 47  1  0
 25 48  1  0
 26 49  1  0
 26 50  1  0
 27 51  1  0
 27 52  1  0
M  END
>  <smiles>  (14) 
CN(CCNC(=O)CNC(=O)c1ccc2cc(Cl)ccc2n1)C1CCCC1

>  <score_type>  (14) 
oracle

>  <origin>  (14) 
autodockgpu

>  <m_score__min__energy>  (14) 
-8.4299999999999997

>  <m_primary>  (14) 
energy

>  <rmsd>  (14) 
5.662651519785168

>  <m_score__min__rmsd>  (14) 
5.662651519785168

>  <meeko>  (14) 
{"free_energy": -6.72, "intermolecular_energy": -8.8, "internal_energy": -2.99, "cluster_size": 4, "cluster_id": 5, "rank_in_cluster": 3}

>  <energy>  (14) 
-7.57

>  <cluster_rmsd>  (14) 
1.44

>  <cluster>  (14) 
1

$$$$

     RDKit          3D

 52 54  0  0  0  0  0  0  0  0999 V2000
  140.2430   68.5370  226.1670 C   0  0  0  0  0  0  0  0  0  0  0  0
  139.7280   69.6580  225.3100 N   0  0  0  0  0  0  0  0  0  0  0  0
  138.3470   69.3660  225.0860 C   0  0  0  0  0  0  0  0  0  0  0  0
  137.6130   70.3050  224.1730 C   0  0  0  0  0  0  0  0  0  0  0  0
  138.5290   70.6770  223.0870 N   0  0  0  0  0  0  0  0  0  0  0  0
  138.1370   70.9090  221.7670 C   0  0  0  0  0  0  0  0  0  0  0  0
  136.8960   70.8020  221.4470 O   0  0  0  0  0  0  0  0  0  0  0  0
  139.0280   71.2800  220.6430 C   0  0  0  0  0  0  0  0  0  0  0  0
  139.4910   72.6240  220.6350 N   0  0  0  0  0  0  0  0  0  0  0  0
  140.2150   73.2610  221.6750 C   0  0  0  0  0  0  0  0  0  0  0  0
  140.5010   72.6340  222.7350 O   0  0  0  0  0  0  0  0  0  0  0  0
  140.6270   74.6570  221.5090 C   0  0  0  0  0  0  0  0  0  0  0  0
  141.5770   75.0600  220.5990 C   0  0  0  0  0  0  0  0  0  0  0  0
  141.9670   76.3580  220.4360 C   0  0  0  0  0  0  0  0  0  0  0  0
  141.3680   77.3200  221.2360 C   0  0  0  0  0  0  0  0  0  0  0  0
  141.6970   78.6570  221.1450 C   0  0  0  0  0  0  0  0  0  0  0  0
  141.0540   79.5560  221.9790 C   0  0  0  0  0  0  0  0  0  0  0  0
  141.4870   81.2390  221.8460 Cl  0  0  0  0  0  0  0  0  0  0  0  0
  140.1070   79.1960  222.8930 C   0  0  0  0  0  0  0  0  0  0  0  0
  139.7860   77.8520  222.9750 C   0  0  0  0  0  0  0  0  0  0  0  0
  140.4200   76.9230  222.1450 C   0  0  0  0  0  0  0  0  0  0  0  0
  140.0670   75.6190  222.2680 N   0  0  0  0  0  0  0  0  0  0  0  0
  140.0030   70.8130  226.1400 C   0  0  0  0  0  0  0  0  0  0  0  0
  139.9710   70.4080  227.6030 C   0  0  0  0  0  0  0  0  0  0  0  0
  141.0510   71.2050  228.2870 C   0  0  0  0  0  0  0  0  0  0  0  0
  141.4530   72.2660  227.2950 C   0  0  0  0  0  0  0  0  0  0  0  0
  141.2750   71.5120  225.9620 C   0  0  0  0  0  0  0  0  0  0  0  0
  140.1217   68.8010  227.2279 H   0  0  0  0  0  0  0  0  0  0  0  0
  139.6761   67.6196  225.9503 H   0  0  0  0  0  0  0  0  0  0  0  0
  141.3084   68.3695  225.9503 H   0  0  0  0  0  0  0  0  0  0  0  0
  138.2828   68.3570  224.6525 H   0  0  0  0  0  0  0  0  0  0  0  0
  137.8606   69.4675  226.0674 H   0  0  0  0  0  0  0  0  0  0  0  0
  136.7237   69.8070  223.7593 H   0  0  0  0  0  0  0  0  0  0  0  0
  137.2834   71.1989  224.7229 H   0  0  0  0  0  0  0  0  0  0  0  0
  139.5520   70.7640  223.3200 H   0  0  0  0  0  0  0  0  0  0  0  0
  139.9078   70.6207  220.6787 H   0  0  0  0  0  0  0  0  0  0  0  0
  138.4206   71.1691  219.7327 H   0  0  0  0  0  0  0  0  0  0  0  0
  139.2890   73.2090  219.7890 H   0  0  0  0  0  0  0  0  0  0  0  0
  142.0488   74.2931  219.9672 H   0  0  0  0  0  0  0  0  0  0  0  0
  142.7316   76.6322  219.6942 H   0  0  0  0  0  0  0  0  0  0  0  0
  142.4541   79.0013  220.4251 H   0  0  0  0  0  0  0  0  0  0  0  0
  139.6193   79.9422  223.5374 H   0  0  0  0  0  0  0  0  0  0  0  0
  139.0282   77.5134  223.6969 H   0  0  0  0  0  0  0  0  0  0  0  0
  139.2168   71.5122  225.8192 H   0  0  0  0  0  0  0  0  0  0  0  0
  138.9896   70.6419  228.0414 H   0  0  0  0  0  0  0  0  0  0  0  0
  140.1362   69.3270  227.7219 H   0  0  0  0  0  0  0  0  0  0  0  0
  140.6647   71.6657  229.2082 H   0  0  0  0  0  0  0  0  0  0  0  0
  141.9031   70.5737  228.5792 H   0  0  0  0  0  0  0  0  0  0  0  0
  140.7922   73.1435  227.3532 H   0  0  0  0  0  0  0  0  0  0  0  0
  142.4630   72.6722  227.4527 H   0  0  0  0  0  0  0  0  0  0  0  0
  141.2246   72.2132  225.1160 H   0  0  0  0  0  0  0  0  0  0  0  0
  142.1112   70.8343  225.7350 H   0  0  0  0  0  0  0  0  0  0  0  0
  1  2  1  0
  2  3  1  0
  3  4  1  0
  4  5  1  0
  5  6  1  0
  6  7  2  0
  6  8  1  0
  8  9  1  0
  9 10  1  0
 10 11  2  0
 10 12  1  0
 12 13  2  0
 13 14  1  0
 14 15  2  0
 15 16  1  0
 16 17  2  0
 17 18  1  0
 17 19  1  0
 19 20  2  0
 20 21  1  0
 21 22  2  0
  2 23  1  0
 23 24  1  0
 24 25  1  0
 25 26  1  0
 26 27  1  0
 22 12  1  0
 27 23  1  0
 21 15  1  0
  1 28  1  0
  1 29  1  0
  1 30  1  0
  3 31  1  0
  3 32  1  0
  4 33  1  0
  4 34  1  0
  5 35  1  0
  8 36  1  0
  8 37  1  0
  9 38  1  0
 13 39  1  0
 14 40  1  0
 16 41  1  0
 19 42  1  0
 20 43  1  0
 23 44  1  0
 24 45  1  0
 24 46  1  0
 25 47  1  0
 25 48  1  0
 26 49  1  0
 26 50  1  0
 27 51  1  0
 27 52  1  0
M  END
>  <smiles>  (15) 
CN(CCNC(=O)CNC(=O)c1ccc2cc(Cl)ccc2n1)C1CCCC1

>  <score_type>  (15) 
oracle

>  <origin>  (15) 
autodockgpu

>  <m_score__min__energy>  (15) 
-8.4299999999999997

>  <m_primary>  (15) 
energy

>  <rmsd>  (15) 
8.2846048628119

>  <m_score__min__rmsd>  (15) 
8.2846048628119

>  <meeko>  (15) 
{"free_energy": -6.97, "intermolecular_energy": -9.06, "internal_energy": -2.5, "cluster_size": 14, "cluster_id": 3, "rank_in_cluster": 12}

>  <energy>  (15) 
-7.55

>  <cluster_rmsd>  (15) 
1.57

>  <cluster>  (15) 
1

$$$$

     RDKit          3D

 52 54  0  0  0  0  0  0  0  0999 V2000
  141.6230   78.3620  220.1130 C   0  0  0  0  0  0  0  0  0  0  0  0
  140.8700   78.8150  221.3320 N   0  0  0  0  0  0  0  0  0  0  0  0
  140.4820   77.6170  222.0090 C   0  0  0  0  0  0  0  0  0  0  0  0
  141.0880   76.3420  221.4950 C   0  0  0  0  0  0  0  0  0  0  0  0
  140.1210   75.2620  221.7320 N   0  0  0  0  0  0  0  0  0  0  0  0
  138.8410   75.2120  221.1760 C   0  0  0  0  0  0  0  0  0  0  0  0
  138.4510   76.1570  220.3970 O   0  0  0  0  0  0  0  0  0  0  0  0
  137.8350   74.1460  221.3930 C   0  0  0  0  0  0  0  0  0  0  0  0
  138.1770   73.1550  222.3540 N   0  0  0  0  0  0  0  0  0  0  0  0
  139.3640   72.3780  222.3610 C   0  0  0  0  0  0  0  0  0  0  0  0
  140.2350   72.5280  221.4580 O   0  0  0  0  0  0  0  0  0  0  0  0
  139.5700   71.3970  223.4300 C   0  0  0  0  0  0  0  0  0  0  0  0
  139.2170   70.0720  223.3150 C   0  0  0  0  0  0  0  0  0  0  0  0
  139.4040   69.1510  224.3040 C   0  0  0  0  0  0  0  0  0  0  0  0
  139.9830   69.5800  225.4900 C   0  0  0  0  0  0  0  0  0  0  0  0
  140.2120   68.7230  226.5460 C   0  0  0  0  0  0  0  0  0  0  0  0
  140.7940   69.2300  227.6960 C   0  0  0  0  0  0  0  0  0  0  0  0
  141.0720   68.1280  229.0180 Cl  0  0  0  0  0  0  0  0  0  0  0  0
  141.1580   70.5360  227.8480 C   0  0  0  0  0  0  0  0  0  0  0  0
  140.9230   71.3850  226.7810 C   0  0  0  0  0  0  0  0  0  0  0  0
  140.3370   70.9010  225.6090 C   0  0  0  0  0  0  0  0  0  0  0  0
  140.1290   71.7780  224.5950 N   0  0  0  0  0  0  0  0  0  0  0  0
  141.8600   79.6290  222.0050 C   0  0  0  0  0  0  0  0  0  0  0  0
  141.3490   81.0540  222.1280 C   0  0  0  0  0  0  0  0  0  0  0  0
  141.8260   81.5610  223.4640 C   0  0  0  0  0  0  0  0  0  0  0  0
  142.8510   80.5590  223.9280 C   0  0  0  0  0  0  0  0  0  0  0  0
  142.2720   79.2500  223.3560 C   0  0  0  0  0  0  0  0  0  0  0  0
  142.5276   77.8178  220.4220 H   0  0  0  0  0  0  0  0  0  0  0  0
  140.9833   77.6987  219.5123 H   0  0  0  0  0  0  0  0  0  0  0  0
  141.9093   79.2379  219.5123 H   0  0  0  0  0  0  0  0  0  0  0  0
  140.7657   77.7216  223.0666 H   0  0  0  0  0  0  0  0  0  0  0  0
  139.3995   77.5191  221.8398 H   0  0  0  0  0  0  0  0  0  0  0  0
  141.2930   76.4319  220.4180 H   0  0  0  0  0  0  0  0  0  0  0  0
  142.0365   76.1305  222.0104 H   0  0  0  0  0  0  0  0  0  0  0  0
  140.4110   74.4800  222.3730 H   0  0  0  0  0  0  0  0  0  0  0  0
  136.9012   74.6258  221.7214 H   0  0  0  0  0  0  0  0  0  0  0  0
  137.7533   73.6143  220.4335 H   0  0  0  0  0  0  0  0  0  0  0  0
  137.5020   72.9720  223.1340 H   0  0  0  0  0  0  0  0  0  0  0  0
  138.7584   69.7366  222.3731 H   0  0  0  0  0  0  0  0  0  0  0  0
  139.1053   68.1014  224.1657 H   0  0  0  0  0  0  0  0  0  0  0  0
  139.9384   67.6599  226.4764 H   0  0  0  0  0  0  0  0  0  0  0  0
  141.6185   70.8985  228.7789 H   0  0  0  0  0  0  0  0  0  0  0  0
  141.1992   72.4471  226.8561 H   0  0  0  0  0  0  0  0  0  0  0  0
  142.7409   79.4897  221.3611 H   0  0  0  0  0  0  0  0  0  0  0  0
  141.7563   81.6759  221.3172 H   0  0  0  0  0  0  0  0  0  0  0  0
  140.2522   81.0929  222.0543 H   0  0  0  0  0  0  0  0  0  0  0  0
  142.2814   82.5567  223.3578 H   0  0  0  0  0  0  0  0  0  0  0  0
  140.9991   81.6636  224.1822 H   0  0  0  0  0  0  0  0  0  0  0  0
  143.8450   80.7764  223.5100 H   0  0  0  0  0  0  0  0  0  0  0  0
  143.0076   80.5451  225.0167 H   0  0  0  0  0  0  0  0  0  0  0  0
  143.0365   78.4596  223.3281 H   0  0  0  0  0  0  0  0  0  0  0  0
  141.4478   78.8427  223.9600 H   0  0  0  0  0  0  0  0  0  0  0  0
  1  2  1  0
  2  3  1  0
  3  4  1  0
  4  5  1  0
  5  6  1  0
  6  7  2  0
  6  8  1  0
  8  9  1  0
  9 10  1  0
 10 11  2  0
 10 12  1  0
 12 13  2  0
 13 14  1  0
 14 15  2  0
 15 16  1  0
 16 17  2  0
 17 18  1  0
 17 19  1  0
 19 20  2  0
 20 21  1  0
 21 22  2  0
  2 23  1  0
 23 24  1  0
 24 25  1  0
 25 26  1  0
 26 27  1  0
 22 12  1  0
 27 23  1  0
 21 15  1  0
  1 28  1  0
  1 29  1  0
  1 30  1  0
  3 31  1  0
  3 32  1  0
  4 33  1  0
  4 34  1  0
  5 35  1  0
  8 36  1  0
  8 37  1  0
  9 38  1  0
 13 39  1  0
 14 40  1  0
 16 41  1  0
 19 42  1  0
 20 43  1  0
 23 44  1  0
 24 45  1  0
 24 46  1  0
 25 47  1  0
 25 48  1  0
 26 49  1  0
 26 50  1  0
 27 51  1  0
 27 52  1  0
M  END
>  <smiles>  (16) 
CN(CCNC(=O)CNC(=O)c1ccc2cc(Cl)ccc2n1)C1CCCC1

>  <score_type>  (16) 
oracle

>  <origin>  (16) 
autodockgpu

>  <m_score__min__energy>  (16) 
-8.4299999999999997

>  <m_primary>  (16) 
energy

>  <rmsd>  (16) 
5.035220418633505

>  <m_score__min__rmsd>  (16) 
5.035220418633505

>  <meeko>  (16) 
{"free_energy": -7.75, "intermolecular_energy": -9.84, "internal_energy": -1.69, "cluster_size": 21, "cluster_id": 1, "rank_in_cluster": 11}

>  <energy>  (16) 
-7.35

>  <cluster_rmsd>  (16) 
1.36

>  <cluster>  (16) 
1

$$$$

     RDKit          3D

 52 54  0  0  0  0  0  0  0  0999 V2000
  140.7050   76.4110  221.9240 C   0  0  0  0  0  0  0  0  0  0  0  0
  139.5940   77.4030  221.7310 N   0  0  0  0  0  0  0  0  0  0  0  0
  138.6070   77.0680  222.7100 C   0  0  0  0  0  0  0  0  0  0  0  0
  137.4000   76.3330  222.2040 C   0  0  0  0  0  0  0  0  0  0  0  0
  137.8140   74.9580  221.8940 N   0  0  0  0  0  0  0  0  0  0  0  0
  138.0580   74.4770  220.6060 C   0  0  0  0  0  0  0  0  0  0  0  0
  137.9240   75.2660  219.6000 O   0  0  0  0  0  0  0  0  0  0  0  0
  138.4720   73.1000  220.2510 C   0  0  0  0  0  0  0  0  0  0  0  0
  138.7520   72.2330  221.3430 N   0  0  0  0  0  0  0  0  0  0  0  0
  139.5090   72.5650  222.4950 C   0  0  0  0  0  0  0  0  0  0  0  0
  140.0130   73.7170  222.6220 O   0  0  0  0  0  0  0  0  0  0  0  0
  139.7020   71.5550  223.5390 C   0  0  0  0  0  0  0  0  0  0  0  0
  139.3700   70.2300  223.3770 C   0  0  0  0  0  0  0  0  0  0  0  0
  139.5450   69.2820  224.3430 C   0  0  0  0  0  0  0  0  0  0  0  0
  140.0900   69.6830  225.5540 C   0  0  0  0  0  0  0  0  0  0  0  0
  140.3060   68.7980  226.5890 C   0  0  0  0  0  0  0  0  0  0  0  0
  140.8540   69.2770  227.7680 C   0  0  0  0  0  0  0  0  0  0  0  0
  141.1150   68.1400  229.0630 Cl  0  0  0  0  0  0  0  0  0  0  0  0
  141.1960   70.5820  227.9670 C   0  0  0  0  0  0  0  0  0  0  0  0
  140.9750   71.4600  226.9200 C   0  0  0  0  0  0  0  0  0  0  0  0
  140.4230   71.0040  225.7200 C   0  0  0  0  0  0  0  0  0  0  0  0
  140.2280   71.9090  224.7280 N   0  0  0  0  0  0  0  0  0  0  0  0
  140.2840   78.6610  221.9350 C   0  0  0  0  0  0  0  0  0  0  0  0
  140.2180   79.0460  223.4020 C   0  0  0  0  0  0  0  0  0  0  0  0
  141.5410   79.6870  223.7320 C   0  0  0  0  0  0  0  0  0  0  0  0
  142.1990   79.9490  222.4020 C   0  0  0  0  0  0  0  0  0  0  0  0
  141.6990   78.7460  221.5780 C   0  0  0  0  0  0  0  0  0  0  0  0
  140.8768   76.2576  222.9996 H   0  0  0  0  0  0  0  0  0  0  0  0
  140.4278   75.4545  221.4569 H   0  0  0  0  0  0  0  0  0  0  0  0
  141.6241   76.7944  221.4569 H   0  0  0  0  0  0  0  0  0  0  0  0
  139.0893   76.4382  223.4721 H   0  0  0  0  0  0  0  0  0  0  0  0
  138.2304   78.0285  223.0916 H   0  0  0  0  0  0  0  0  0  0  0  0
  136.6160   76.3236  222.9755 H   0  0  0  0  0  0  0  0  0  0  0  0
  136.9957   76.8258  221.3075 H   0  0  0  0  0  0  0  0  0  0  0  0
  137.9240   74.2890  222.6990 H   0  0  0  0  0  0  0  0  0  0  0  0
  137.6624   72.6467  219.6602 H   0  0  0  0  0  0  0  0  0  0  0  0
  139.4213   73.2066  219.7055 H   0  0  0  0  0  0  0  0  0  0  0  0
  138.3680   71.2580  221.3080 H   0  0  0  0  0  0  0  0  0  0  0  0
  138.9391   69.9169  222.4145 H   0  0  0  0  0  0  0  0  0  0  0  0
  139.2629   68.2335  224.1670 H   0  0  0  0  0  0  0  0  0  0  0  0
  140.0487   67.7340  226.4810 H   0  0  0  0  0  0  0  0  0  0  0  0
  141.6291   70.9225  228.9191 H   0  0  0  0  0  0  0  0  0  0  0  0
  141.2354   72.5227  227.0332 H   0  0  0  0  0  0  0  0  0  0  0  0
  139.7485   79.3253  221.2408 H   0  0  0  0  0  0  0  0  0  0  0  0
  139.3970   79.7581  223.5721 H   0  0  0  0  0  0  0  0  0  0  0  0
  140.0302   78.1679  224.0373 H   0  0  0  0  0  0  0  0  0  0  0  0
  141.3869   80.6295  224.2779 H   0  0  0  0  0  0  0  0  0  0  0  0
  142.1591   79.0437  224.3755 H   0  0  0  0  0  0  0  0  0  0  0  0
  141.8640   80.9024  221.9674 H   0  0  0  0  0  0  0  0  0  0  0  0
  143.2943   80.0390  222.4503 H   0  0  0  0  0  0  0  0  0  0  0  0
  141.8236   78.9271  220.5002 H   0  0  0  0  0  0  0  0  0  0  0  0
  142.2531   77.8193  221.7881 H   0  0  0  0  0  0  0  0  0  0  0  0
  1  2  1  0
  2  3  1  0
  3  4  1  0
  4  5  1  0
  5  6  1  0
  6  7  2  0
  6  8  1  0
  8  9  1  0
  9 10  1  0
 10 11  2  0
 10 12  1  0
 12 13  2  0
 13 14  1  0
 14 15  2  0
 15 16  1  0
 16 17  2  0
 17 18  1  0
 17 19  1  0
 19 20  2  0
 20 21  1  0
 21 22  2  0
  2 23  1  0
 23 24  1  0
 24 25  1  0
 25 26  1  0
 26 27  1  0
 22 12  1  0
 27 23  1  0
 21 15  1  0
  1 28  1  0
  1 29  1  0
  1 30  1  0
  3 31  1  0
  3 32  1  0
  4 33  1  0
  4 34  1  0
  5 35  1  0
  8 36  1  0
  8 37  1  0
  9 38  1  0
 13 39  1  0
 14 40  1  0
 16 41  1  0
 19 42  1  0
 20 43  1  0
 23 44  1  0
 24 45  1  0
 24 46  1  0
 25 47  1  0
 25 48  1  0
 26 49  1  0
 26 50  1  0
 27 51  1  0
 27 52  1  0
M  END
>  <smiles>  (17) 
CN(CCNC(=O)CNC(=O)c1ccc2cc(Cl)ccc2n1)C1CCCC1

>  <score_type>  (17) 
oracle

>  <origin>  (17) 
autodockgpu

>  <m_score__min__energy>  (17) 
-8.4299999999999997

>  <m_primary>  (17) 
energy

>  <rmsd>  (17) 
4.426140403675521

>  <m_score__min__rmsd>  (17) 
4.426140403675521

>  <meeko>  (17) 
{"free_energy": -7.7, "intermolecular_energy": -9.79, "internal_energy": -1.8, "cluster_size": 21, "cluster_id": 1, "rank_in_cluster": 12}

>  <energy>  (17) 
-7.16

>  <cluster_rmsd>  (17) 
1.8

>  <cluster>  (17) 
1

$$$$

     RDKit          3D

 52 54  0  0  0  0  0  0  0  0999 V2000
  140.3690   71.8490  223.8950 C   0  0  0  0  0  0  0  0  0  0  0  0
  139.5300   70.9530  224.7610 N   0  0  0  0  0  0  0  0  0  0  0  0
  139.1300   69.8700  223.9180 C   0  0  0  0  0  0  0  0  0  0  0  0
  137.7570   69.9720  223.3180 C   0  0  0  0  0  0  0  0  0  0  0  0
  137.3260   71.3720  223.4310 N   0  0  0  0  0  0  0  0  0  0  0  0
  136.3640   71.9700  222.6150 C   0  0  0  0  0  0  0  0  0  0  0  0
  135.7940   71.2760  221.6940 O   0  0  0  0  0  0  0  0  0  0  0  0
  135.9040   73.3770  222.6910 C   0  0  0  0  0  0  0  0  0  0  0  0
  136.9270   74.3640  222.7130 N   0  0  0  0  0  0  0  0  0  0  0  0
  138.0070   74.4640  221.7990 C   0  0  0  0  0  0  0  0  0  0  0  0
  138.1330   73.6270  220.8610 O   0  0  0  0  0  0  0  0  0  0  0  0
  138.9780   75.5490  221.9560 C   0  0  0  0  0  0  0  0  0  0  0  0
  140.2720   75.4760  221.4930 C   0  0  0  0  0  0  0  0  0  0  0  0
  141.1840   76.4820  221.6340 C   0  0  0  0  0  0  0  0  0  0  0  0
  140.7780   77.6400  222.2820 C   0  0  0  0  0  0  0  0  0  0  0  0
  141.6280   78.7090  222.4720 C   0  0  0  0  0  0  0  0  0  0  0  0
  141.1470   79.8300  223.1290 C   0  0  0  0  0  0  0  0  0  0  0  0
  142.2400   81.1680  223.3590 Cl  0  0  0  0  0  0  0  0  0  0  0  0
  139.8720   79.9400  223.6010 C   0  0  0  0  0  0  0  0  0  0  0  0
  139.0290   78.8610  223.4040 C   0  0  0  0  0  0  0  0  0  0  0  0
  139.4890   77.7170  222.7450 C   0  0  0  0  0  0  0  0  0  0  0  0
  138.6190   76.6880  222.5790 N   0  0  0  0  0  0  0  0  0  0  0  0
  140.4570   70.6180  225.8230 C   0  0  0  0  0  0  0  0  0  0  0  0
  140.9680   71.8920  226.4730 C   0  0  0  0  0  0  0  0  0  0  0  0
  141.1020   71.5930  227.9440 C   0  0  0  0  0  0  0  0  0  0  0  0
  140.9810   70.0960  228.0590 C   0  0  0  0  0  0  0  0  0  0  0  0
  139.9800   69.7870  226.9280 C   0  0  0  0  0  0  0  0  0  0  0  0
  140.9824   72.5041  224.5311 H   0  0  0  0  0  0  0  0  0  0  0  0
  141.0251   71.2356  223.2599 H   0  0  0  0  0  0  0  0  0  0  0  0
  139.7139   72.4634  223.2599 H   0  0  0  0  0  0  0  0  0  0  0  0
  139.8535   69.8020  223.0922 H   0  0  0  0  0  0  0  0  0  0  0  0
  139.1030   68.9835  224.5687 H   0  0  0  0  0  0  0  0  0  0  0  0
  137.7869   69.6729  222.2599 H   0  0  0  0  0  0  0  0  0  0  0  0
  137.0552   69.3080  223.8438 H   0  0  0  0  0  0  0  0  0  0  0  0
  137.7820   71.9650  224.1710 H   0  0  0  0  0  0  0  0  0  0  0  0
  135.2670   73.5712  221.8155 H   0  0  0  0  0  0  0  0  0  0  0  0
  135.3816   73.4679  223.6548 H   0  0  0  0  0  0  0  0  0  0  0  0
  136.8910   75.0930  223.4660 H   0  0  0  0  0  0  0  0  0  0  0  0
  140.5891   74.5557  220.9807 H   0  0  0  0  0  0  0  0  0  0  0  0
  142.2081   76.3780  221.2463 H   0  0  0  0  0  0  0  0  0  0  0  0
  142.6660   78.6726  222.1096 H   0  0  0  0  0  0  0  0  0  0  0  0
  139.5284   80.8488  224.1168 H   0  0  0  0  0  0  0  0  0  0  0  0
  137.9917   78.9033  223.7676 H   0  0  0  0  0  0  0  0  0  0  0  0
  141.2076   70.0196  225.2858 H   0  0  0  0  0  0  0  0  0  0  0  0
  141.9449   72.1697  226.0504 H   0  0  0  0  0  0  0  0  0  0  0  0
  140.2814   72.7332  226.2973 H   0  0  0  0  0  0  0  0  0  0  0  0
  142.0800   71.9302  228.3180 H   0  0  0  0  0  0  0  0  0  0  0  0
  140.3367   72.1128  228.5391 H   0  0  0  0  0  0  0  0  0  0  0  0
  141.9476   69.5994  227.8883 H   0  0  0  0  0  0  0  0  0  0  0  0
  140.6625   69.7444  229.0514 H   0  0  0  0  0  0  0  0  0  0  0  0
  140.0055   68.7207  226.6591 H   0  0  0  0  0  0  0  0  0  0  0  0
  138.9366   69.9968  227.2062 H   0  0  0  0  0  0  0  0  0  0  0  0
  1  2  1  0
  2  3  1  0
  3  4  1  0
  4  5  1  0
  5  6  1  0
  6  7  2  0
  6  8  1  0
  8  9  1  0
  9 10  1  0
 10 11  2  0
 10 12  1  0
 12 13  2  0
 13 14  1  0
 14 15  2  0
 15 16  1  0
 16 17  2  0
 17 18  1  0
 17 19  1  0
 19 20  2  0
 20 21  1  0
 21 22  2  0
  2 23  1  0
 23 24  1  0
 24 25  1  0
 25 26  1  0
 26 27  1  0
 22 12  1  0
 27 23  1  0
 21 15  1  0
  1 28  1  0
  1 29  1  0
  1 30  1  0
  3 31  1  0
  3 32  1  0
  4 33  1  0
  4 34  1  0
  5 35  1  0
  8 36  1  0
  8 37  1  0
  9 38  1  0
 13 39  1  0
 14 40  1  0
 16 41  1  0
 19 42  1  0
 20 43  1  0
 23 44  1  0
 24 45  1  0
 24 46  1  0
 25 47  1  0
 25 48  1  0
 26 49  1  0
 26 50  1  0
 27 51  1  0
 27 52  1  0
M  END
>  <smiles>  (18) 
CN(CCNC(=O)CNC(=O)c1ccc2cc(Cl)ccc2n1)C1CCCC1

>  <score_type>  (18) 
oracle

>  <origin>  (18) 
autodockgpu

>  <m_score__min__energy>  (18) 
-8.4299999999999997

>  <m_primary>  (18) 
energy

>  <rmsd>  (18) 
8.394432095841845

>  <m_score__min__rmsd>  (18) 
8.394432095841845

>  <meeko>  (18) 
{"free_energy": -7.24, "intermolecular_energy": -9.33, "internal_energy": -2.29, "cluster_size": 14, "cluster_id": 3, "rank_in_cluster": 5}

>  <energy>  (18) 
-7.11

>  <cluster_rmsd>  (18) 
1.54

>  <cluster>  (18) 
1

$$$$

     RDKit          3D

 52 54  0  0  0  0  0  0  0  0999 V2000
  134.9560   73.7500  223.4970 C   0  0  0  0  0  0  0  0  0  0  0  0
  135.4640   74.7640  224.4820 N   0  0  0  0  0  0  0  0  0  0  0  0
  135.1860   76.0390  223.8980 C   0  0  0  0  0  0  0  0  0  0  0  0
  136.2930   76.6510  223.0890 C   0  0  0  0  0  0  0  0  0  0  0  0
  137.2410   75.5810  222.7510 N   0  0  0  0  0  0  0  0  0  0  0  0
  138.0030   75.5410  221.5820 C   0  0  0  0  0  0  0  0  0  0  0  0
  137.8940   76.4910  220.7220 O   0  0  0  0  0  0  0  0  0  0  0  0
  138.9650   74.4800  221.2010 C   0  0  0  0  0  0  0  0  0  0  0  0
  139.1800   73.4600  222.1680 N   0  0  0  0  0  0  0  0  0  0  0  0
  138.9380   72.0750  221.9840 C   0  0  0  0  0  0  0  0  0  0  0  0
  138.4840   71.6430  220.8860 O   0  0  0  0  0  0  0  0  0  0  0  0
  139.2190   71.1480  223.0830 C   0  0  0  0  0  0  0  0  0  0  0  0
  138.8860   69.8130  223.0480 C   0  0  0  0  0  0  0  0  0  0  0  0
  139.1430   68.9420  224.0670 C   0  0  0  0  0  0  0  0  0  0  0  0
  139.7760   69.4360  225.1980 C   0  0  0  0  0  0  0  0  0  0  0  0
  140.0770   68.6330  226.2790 C   0  0  0  0  0  0  0  0  0  0  0  0
  140.7100   69.2020  227.3720 C   0  0  0  0  0  0  0  0  0  0  0  0
  141.0790   68.1680  228.7250 Cl  0  0  0  0  0  0  0  0  0  0  0  0
  141.0550   70.5200  227.4440 C   0  0  0  0  0  0  0  0  0  0  0  0
  140.7480   71.3140  226.3540 C   0  0  0  0  0  0  0  0  0  0  0  0
  140.1100   70.7660  225.2380 C   0  0  0  0  0  0  0  0  0  0  0  0
  139.8320   71.5920  224.1970 N   0  0  0  0  0  0  0  0  0  0  0  0
  134.7010   74.4320  225.6670 C   0  0  0  0  0  0  0  0  0  0  0  0
  134.1820   75.7050  226.3120 C   0  0  0  0  0  0  0  0  0  0  0  0
  132.8100   75.3820  226.8440 C   0  0  0  0  0  0  0  0  0  0  0  0
  132.7040   73.8800  226.7870 C   0  0  0  0  0  0  0  0  0  0  0  0
  133.5300   73.5690  225.5230 C   0  0  0  0  0  0  0  0  0  0  0  0
  134.5274   72.8945  224.0396 H   0  0  0  0  0  0  0  0  0  0  0  0
  134.1813   74.2088  222.8651 H   0  0  0  0  0  0  0  0  0  0  0  0
  135.7873   73.4042  222.8651 H   0  0  0  0  0  0  0  0  0  0  0  0
  134.3127   75.9236  223.2392 H   0  0  0  0  0  0  0  0  0  0  0  0
  135.0261   76.7230  224.7445 H   0  0  0  0  0  0  0  0  0  0  0  0
  135.8842   77.0942  222.1690 H   0  0  0  0  0  0  0  0  0  0  0  0
  136.7952   77.4453  223.6607 H   0  0  0  0  0  0  0  0  0  0  0  0
  137.3440   74.7870  223.4340 H   0  0  0  0  0  0  0  0  0  0  0  0
  138.5927   74.0013  220.2833 H   0  0  0  0  0  0  0  0  0  0  0  0
  139.9344   74.9861  221.0818 H   0  0  0  0  0  0  0  0  0  0  0  0
  139.5540   73.7420  223.1050 H   0  0  0  0  0  0  0  0  0  0  0  0
  138.3847   69.4263  222.1485 H   0  0  0  0  0  0  0  0  0  0  0  0
  138.8573   67.8823  223.9936 H   0  0  0  0  0  0  0  0  0  0  0  0
  139.8197   67.5635  226.2730 H   0  0  0  0  0  0  0  0  0  0  0  0
  141.5562   70.9337  228.3315 H   0  0  0  0  0  0  0  0  0  0  0  0
  141.0075   72.3829  226.3656 H   0  0  0  0  0  0  0  0  0  0  0  0
  135.4362   73.8624  226.2544 H   0  0  0  0  0  0  0  0  0  0  0  0
  134.8457   76.0136  227.1331 H   0  0  0  0  0  0  0  0  0  0  0  0
  134.1450   76.5328  225.5885 H   0  0  0  0  0  0  0  0  0  0  0  0
  132.7054   75.7365  227.8800 H   0  0  0  0  0  0  0  0  0  0  0  0
  132.0178   75.8712  226.2583 H   0  0  0  0  0  0  0  0  0  0  0  0
  133.1421   73.4108  227.6803 H   0  0  0  0  0  0  0  0  0  0  0  0
  131.6717   73.5012  226.7562 H   0  0  0  0  0  0  0  0  0  0  0  0
  133.8226   72.5090  225.4942 H   0  0  0  0  0  0  0  0  0  0  0  0
  132.9747   73.7482  224.5905 H   0  0  0  0  0  0  0  0  0  0  0  0
  1  2  1  0
  2  3  1  0
  3  4  1  0
  4  5  1  0
  5  6  1  0
  6  7  2  0
  6  8  1  0
  8  9  1  0
  9 10  1  0
 10 11  2  0
 10 12  1  0
 12 13  2  0
 13 14  1  0
 14 15  2  0
 15 16  1  0
 16 17  2  0
 17 18  1  0
 17 19  1  0
 19 20  2  0
 20 21  1  0
 21 22  2  0
  2 23  1  0
 23 24  1  0
 24 25  1  0
 25 26  1  0
 26 27  1  0
 22 12  1  0
 27 23  1  0
 21 15  1  0
  1 28  1  0
  1 29  1  0
  1 30  1  0
  3 31  1  0
  3 32  1  0
  4 33  1  0
  4 34  1  0
  5 35  1  0
  8 36  1  0
  8 37  1  0
  9 38  1  0
 13 39  1  0
 14 40  1  0
 16 41  1  0
 19 42  1  0
 20 43  1  0
 23 44  1  0
 24 45  1  0
 24 46  1  0
 25 47  1  0
 25 48  1  0
 26 49  1  0
 26 50  1  0
 27 51  1  0
 27 52  1  0
M  END
>  <smiles>  (19) 
CN(CCNC(=O)CNC(=O)c1ccc2cc(Cl)ccc2n1)C1CCCC1

>  <score_type>  (19) 
oracle

>  <origin>  (19) 
autodockgpu

>  <m_score__min__energy>  (19) 
-8.4299999999999997

>  <m_primary>  (19) 
energy

>  <rmsd>  (19) 
7.07568465512825

>  <m_score__min__rmsd>  (19) 
7.07568465512825

>  <meeko>  (19) 
{"free_energy": -6.95, "intermolecular_energy": -9.03, "internal_energy": -2.24, "cluster_size": 1, "cluster_id": 4, "rank_in_cluster": 1}

>  <energy>  (19) 
-7.05

>  <cluster_rmsd>  (19) 
1.91

>  <cluster>  (19) 
1

$$$$

     RDKit          3D

 52 54  0  0  0  0  0  0  0  0999 V2000
  140.3730   71.8930  223.7330 C   0  0  0  0  0  0  0  0  0  0  0  0
  139.4160   71.1300  224.6030 N   0  0  0  0  0  0  0  0  0  0  0  0
  138.8800   70.0990  223.7700 C   0  0  0  0  0  0  0  0  0  0  0  0
  137.4120   70.1930  223.4660 C   0  0  0  0  0  0  0  0  0  0  0  0
  137.0770   71.6160  223.3250 N   0  0  0  0  0  0  0  0  0  0  0  0
  135.8550   72.0960  222.8510 C   0  0  0  0  0  0  0  0  0  0  0  0
  134.9370   71.2630  222.5090 O   0  0  0  0  0  0  0  0  0  0  0  0
  135.4780   73.5200  222.6890 C   0  0  0  0  0  0  0  0  0  0  0  0
  136.5540   74.4500  222.6790 N   0  0  0  0  0  0  0  0  0  0  0  0
  137.8240   74.2460  222.0810 C   0  0  0  0  0  0  0  0  0  0  0  0
  138.0900   73.1590  221.4930 O   0  0  0  0  0  0  0  0  0  0  0  0
  138.8270   75.3120  222.1530 C   0  0  0  0  0  0  0  0  0  0  0  0
  140.1300   75.1500  221.7410 C   0  0  0  0  0  0  0  0  0  0  0  0
  141.0720   76.1360  221.8050 C   0  0  0  0  0  0  0  0  0  0  0  0
  140.6880   77.3680  222.3140 C   0  0  0  0  0  0  0  0  0  0  0  0
  141.5680   78.4240  222.4180 C   0  0  0  0  0  0  0  0  0  0  0  0
  141.1070   79.6230  222.9380 C   0  0  0  0  0  0  0  0  0  0  0  0
  142.2390   80.9430  223.0610 Cl  0  0  0  0  0  0  0  0  0  0  0  0
  139.8240   79.8210  223.3570 C   0  0  0  0  0  0  0  0  0  0  0  0
  138.9510   78.7540  223.2470 C   0  0  0  0  0  0  0  0  0  0  0  0
  139.3890   77.5340  222.7270 C   0  0  0  0  0  0  0  0  0  0  0  0
  138.4900   76.5210  222.6420 N   0  0  0  0  0  0  0  0  0  0  0  0
  140.2820   70.6880  225.6770 C   0  0  0  0  0  0  0  0  0  0  0  0
  140.7520   71.8880  226.4790 C   0  0  0  0  0  0  0  0  0  0  0  0
  140.8030   71.4430  227.9170 C   0  0  0  0  0  0  0  0  0  0  0  0
  140.6810   69.9420  227.8750 C   0  0  0  0  0  0  0  0  0  0  0  0
  139.7460   69.7510  226.6640 C   0  0  0  0  0  0  0  0  0  0  0  0
  141.0765   72.4539  224.3659 H   0  0  0  0  0  0  0  0  0  0  0  0
  140.9317   71.1898  223.0979 H   0  0  0  0  0  0  0  0  0  0  0  0
  139.8119   72.5943  223.0979 H   0  0  0  0  0  0  0  0  0  0  0  0
  139.4236   70.1224  222.8140 H   0  0  0  0  0  0  0  0  0  0  0  0
  139.0056   69.1649  224.3372 H   0  0  0  0  0  0  0  0  0  0  0  0
  137.1881   69.6606  222.5298 H   0  0  0  0  0  0  0  0  0  0  0  0
  136.8207   69.7354  224.2729 H   0  0  0  0  0  0  0  0  0  0  0  0
  137.8130   72.3190  223.5910 H   0  0  0  0  0  0  0  0  0  0  0  0
  134.9378   73.6193  221.7360 H   0  0  0  0  0  0  0  0  0  0  0  0
  134.8756   73.7711  223.5745 H   0  0  0  0  0  0  0  0  0  0  0  0
  136.4090   75.3750  223.1500 H   0  0  0  0  0  0  0  0  0  0  0  0
  140.4292   74.1714  221.3376 H   0  0  0  0  0  0  0  0  0  0  0  0
  142.1027   75.9592  221.4638 H   0  0  0  0  0  0  0  0  0  0  0  0
  142.6141   78.3172  222.0950 H   0  0  0  0  0  0  0  0  0  0  0  0
  139.4974   80.7888  223.7653 H   0  0  0  0  0  0  0  0  0  0  0  0
  137.9058   78.8668  223.5709 H   0  0  0  0  0  0  0  0  0  0  0  0
  141.0635   70.1447  225.1256 H   0  0  0  0  0  0  0  0  0  0  0  0
  141.7506   72.2034  226.1424 H   0  0  0  0  0  0  0  0  0  0  0  0
  140.0744   72.7449  226.3499 H   0  0  0  0  0  0  0  0  0  0  0  0
  141.7569   71.7390  228.3780 H   0  0  0  0  0  0  0  0  0  0  0  0
  140.0030   71.9022  228.5163 H   0  0  0  0  0  0  0  0  0  0  0  0
  141.6573   69.4627  227.7100 H   0  0  0  0  0  0  0  0  0  0  0  0
  140.3089   69.4931  228.8078 H   0  0  0  0  0  0  0  0  0  0  0  0
  139.7899   68.7171  226.2909 H   0  0  0  0  0  0  0  0  0  0  0  0
  138.6880   69.9342  226.9027 H   0  0  0  0  0  0  0  0  0  0  0  0
  1  2  1  0
  2  3  1  0
  3  4  1  0
  4  5  1  0
  5  6  1  0
  6  7  2  0
  6  8  1  0
  8  9  1  0
  9 10  1  0
 10 11  2  0
 10 12  1  0
 12 13  2  0
 13 14  1  0
 14 15  2  0
 15 16  1  0
 16 17  2  0
 17 18  1  0
 17 19  1  0
 19 20  2  0
 20 21  1  0
 21 22  2  0
  2 23  1  0
 23 24  1  0
 24 25  1  0
 25 26  1  0
 26 27  1  0
 22 12  1  0
 27 23  1  0
 21 15  1  0
  1 28  1  0
  1 29  1  0
  1 30  1  0
  3 31  1  0
  3 32  1  0
  4 33  1  0
  4 34  1  0
  5 35  1  0
  8 36  1  0
  8 37  1  0
  9 38  1  0
 13 39  1  0
 14 40  1  0
 16 41  1  0
 19 42  1  0
 20 43  1  0
 23 44  1  0
 24 45  1  0
 24 46  1  0
 25 47  1  0
 25 48  1  0
 26 49  1  0
 26 50  1  0
 27 51  1  0
 27 52  1  0
M  END
>  <smiles>  (20) 
CN(CCNC(=O)CNC(=O)c1ccc2cc(Cl)ccc2n1)C1CCCC1

>  <score_type>  (20) 
oracle

>  <origin>  (20) 
autodockgpu

>  <m_score__min__energy>  (20) 
-8.4299999999999997

>  <m_primary>  (20) 
energy

>  <rmsd>  (20) 
8.291491029750992

>  <m_score__min__rmsd>  (20) 
8.291491029750992

>  <meeko>  (20) 
{"free_energy": -6.92, "intermolecular_energy": -9.01, "internal_energy": -2.78, "cluster_size": 14, "cluster_id": 3, "rank_in_cluster": 14}

>  <energy>  (20) 
-6.92

>  <cluster_rmsd>  (20) 
1.6

>  <cluster>  (20) 
1

$$$$

     RDKit          3D

 52 54  0  0  0  0  0  0  0  0999 V2000
  140.3390   71.5940  223.5750 C   0  0  0  0  0  0  0  0  0  0  0  0
  139.4040   71.2340  224.6950 N   0  0  0  0  0  0  0  0  0  0  0  0
  138.4950   70.2800  224.1420 C   0  0  0  0  0  0  0  0  0  0  0  0
  137.0380   70.6380  224.2140 C   0  0  0  0  0  0  0  0  0  0  0  0
  136.8620   71.9230  223.5250 N   0  0  0  0  0  0  0  0  0  0  0  0
  135.6890   72.3180  222.8780 C   0  0  0  0  0  0  0  0  0  0  0  0
  134.6750   71.5280  222.8670 O   0  0  0  0  0  0  0  0  0  0  0  0
  135.4720   73.6010  222.1680 C   0  0  0  0  0  0  0  0  0  0  0  0
  136.5200   74.5560  222.2750 N   0  0  0  0  0  0  0  0  0  0  0  0
  137.8810   74.3380  221.9400 C   0  0  0  0  0  0  0  0  0  0  0  0
  138.2640   73.2140  221.5080 O   0  0  0  0  0  0  0  0  0  0  0  0
  138.8410   75.4320  222.1040 C   0  0  0  0  0  0  0  0  0  0  0  0
  140.1790   75.3130  221.8040 C   0  0  0  0  0  0  0  0  0  0  0  0
  141.0810   76.3260  221.9530 C   0  0  0  0  0  0  0  0  0  0  0  0
  140.6170   77.5430  222.4330 C   0  0  0  0  0  0  0  0  0  0  0  0
  141.4520   78.6250  222.6160 C   0  0  0  0  0  0  0  0  0  0  0  0
  140.9110   79.8050  223.0990 C   0  0  0  0  0  0  0  0  0  0  0  0
  141.9870   81.1580  223.3240 Cl  0  0  0  0  0  0  0  0  0  0  0  0
  139.5920   79.9620  223.4070 C   0  0  0  0  0  0  0  0  0  0  0  0
  138.7640   78.8700  223.2180 C   0  0  0  0  0  0  0  0  0  0  0  0
  139.2830   77.6670  222.7320 C   0  0  0  0  0  0  0  0  0  0  0  0
  138.4260   76.6270  222.5670 N   0  0  0  0  0  0  0  0  0  0  0  0
  140.3220   70.7280  225.6940 C   0  0  0  0  0  0  0  0  0  0  0  0
  140.9000   71.8860  226.4880 C   0  0  0  0  0  0  0  0  0  0  0  0
  141.0310   71.4020  227.9090 C   0  0  0  0  0  0  0  0  0  0  0  0
  140.8390   69.9090  227.8410 C   0  0  0  0  0  0  0  0  0  0  0  0
  139.8150   69.7900  226.6950 C   0  0  0  0  0  0  0  0  0  0  0  0
  141.2885   71.9596  223.9932 H   0  0  0  0  0  0  0  0  0  0  0  0
  140.5292   70.7048  222.9560 H   0  0  0  0  0  0  0  0  0  0  0  0
  139.8838   72.3811  222.9560 H   0  0  0  0  0  0  0  0  0  0  0  0
  138.7555   70.1425  223.0822 H   0  0  0  0  0  0  0  0  0  0  0  0
  138.6077   69.3739  224.7554 H   0  0  0  0  0  0  0  0  0  0  0  0
  136.4360   69.8615  223.7192 H   0  0  0  0  0  0  0  0  0  0  0  0
  136.7099   70.7130  225.2612 H   0  0  0  0  0  0  0  0  0  0  0  0
  137.6790   72.5850  223.5120 H   0  0  0  0  0  0  0  0  0  0  0  0
  135.3294   73.3755  221.1008 H   0  0  0  0  0  0  0  0  0  0  0  0
  134.5981   74.0634  222.6502 H   0  0  0  0  0  0  0  0  0  0  0  0
  136.2800   75.5120  222.6290 H   0  0  0  0  0  0  0  0  0  0  0  0
  140.5416   74.3470  221.4227 H   0  0  0  0  0  0  0  0  0  0  0  0
  142.1421   76.1827  221.7008 H   0  0  0  0  0  0  0  0  0  0  0  0
  142.5247   78.5525  222.3834 H   0  0  0  0  0  0  0  0  0  0  0  0
  139.2026   80.9169  223.7897 H   0  0  0  0  0  0  0  0  0  0  0  0
  137.6920   78.9490  223.4514 H   0  0  0  0  0  0  0  0  0  0  0  0
  141.0381   70.1661  225.0764 H   0  0  0  0  0  0  0  0  0  0  0  0
  141.8859   72.1667  226.0890 H   0  0  0  0  0  0  0  0  0  0  0  0
  140.2541   72.7743  226.4265 H   0  0  0  0  0  0  0  0  0  0  0  0
  142.0270   71.6444  228.3081 H   0  0  0  0  0  0  0  0  0  0  0  0
  140.2963   71.8797  228.5738 H   0  0  0  0  0  0  0  0  0  0  0  0
  141.7790   69.3925  227.5968 H   0  0  0  0  0  0  0  0  0  0  0  0
  140.5125   69.4525  228.7871 H   0  0  0  0  0  0  0  0  0  0  0  0
  139.7866   68.7652  226.2964 H   0  0  0  0  0  0  0  0  0  0  0  0
  138.7855   70.0127  227.0120 H   0  0  0  0  0  0  0  0  0  0  0  0
  1  2  1  0
  2  3  1  0
  3  4  1  0
  4  5  1  0
  5  6  1  0
  6  7  2  0
  6  8  1  0
  8  9  1  0
  9 10  1  0
 10 11  2  0
 10 12  1  0
 12 13  2  0
 13 14  1  0
 14 15  2  0
 15 16  1  0
 16 17  2  0
 17 18  1  0
 17 19  1  0
 19 20  2  0
 20 21  1  0
 21 22  2  0
  2 23  1  0
 23 24  1  0
 24 25  1  0
 25 26  1  0
 26 27  1  0
 22 12  1  0
 27 23  1  0
 21 15  1  0
  1 28  1  0
  1 29  1  0
  1 30  1  0
  3 31  1  0
  3 32  1  0
  4 33  1  0
  4 34  1  0
  5 35  1  0
  8 36  1  0
  8 37  1  0
  9 38  1  0
 13 39  1  0
 14 40  1  0
 16 41  1  0
 19 42  1  0
 20 43  1  0
 23 44  1  0
 24 45  1  0
 24 46  1  0
 25 47  1  0
 25 48  1  0
 26 49  1  0
 26 50  1  0
 27 51  1  0
 27 52  1  0
M  END
>  <smiles>  (21) 
CN(CCNC(=O)CNC(=O)c1ccc2cc(Cl)ccc2n1)C1CCCC1

>  <score_type>  (21) 
oracle

>  <origin>  (21) 
autodockgpu

>  <m_score__min__energy>  (21) 
-8.4299999999999997

>  <m_primary>  (21) 
energy

>  <rmsd>  (21) 
8.355064433928774

>  <m_score__min__rmsd>  (21) 
8.355064433928774

>  <meeko>  (21) 
{"free_energy": -7.15, "intermolecular_energy": -9.24, "internal_energy": -2.65, "cluster_size": 14, "cluster_id": 3, "rank_in_cluster": 7}

>  <energy>  (21) 
-6.9

>  <cluster_rmsd>  (21) 
1.62

>  <cluster>  (21) 
1

$$$$

     RDKit          3D

 52 54  0  0  0  0  0  0  0  0999 V2000
  140.6100   71.8990  223.5310 C   0  0  0  0  0  0  0  0  0  0  0  0
  139.5570   71.3080  224.4250 N   0  0  0  0  0  0  0  0  0  0  0  0
  138.8630   70.3530  223.6190 C   0  0  0  0  0  0  0  0  0  0  0  0
  137.3680   70.4920  223.5720 C   0  0  0  0  0  0  0  0  0  0  0  0
  137.0600   71.9100  223.3450 N   0  0  0  0  0  0  0  0  0  0  0  0
  135.8000   72.3970  222.9900 C   0  0  0  0  0  0  0  0  0  0  0  0
  134.8210   71.5760  222.8450 O   0  0  0  0  0  0  0  0  0  0  0  0
  135.4480   73.8160  222.7480 C   0  0  0  0  0  0  0  0  0  0  0  0
  136.5290   74.7400  222.7860 N   0  0  0  0  0  0  0  0  0  0  0  0
  137.7820   74.5820  222.1410 C   0  0  0  0  0  0  0  0  0  0  0  0
  138.0260   73.5470  221.4590 O   0  0  0  0  0  0  0  0  0  0  0  0
  138.7930   75.6340  222.2750 C   0  0  0  0  0  0  0  0  0  0  0  0
  140.1150   75.4550  221.9420 C   0  0  0  0  0  0  0  0  0  0  0  0
  141.0650   76.4290  222.0640 C   0  0  0  0  0  0  0  0  0  0  0  0
  140.6670   77.6650  222.5510 C   0  0  0  0  0  0  0  0  0  0  0  0
  141.5530   78.7100  222.7090 C   0  0  0  0  0  0  0  0  0  0  0  0
  141.0770   79.9140  223.2020 C   0  0  0  0  0  0  0  0  0  0  0  0
  142.2160   81.2200  223.3940 Cl  0  0  0  0  0  0  0  0  0  0  0  0
  139.7740   80.1300  223.5430 C   0  0  0  0  0  0  0  0  0  0  0  0
  138.8950   79.0740  223.3790 C   0  0  0  0  0  0  0  0  0  0  0  0
  139.3480   77.8480  222.8840 C   0  0  0  0  0  0  0  0  0  0  0  0
  138.4430   76.8470  222.7450 N   0  0  0  0  0  0  0  0  0  0  0  0
  140.3570   70.7620  225.5020 C   0  0  0  0  0  0  0  0  0  0  0  0
  141.0640   71.8900  226.2330 C   0  0  0  0  0  0  0  0  0  0  0  0
  141.0740   71.5100  227.6900 C   0  0  0  0  0  0  0  0  0  0  0  0
  140.6760   70.0580  227.7260 C   0  0  0  0  0  0  0  0  0  0  0  0
  139.6870   69.9880  226.5450 C   0  0  0  0  0  0  0  0  0  0  0  0
  141.4051   72.3453  224.1463 H   0  0  0  0  0  0  0  0  0  0  0  0
  141.0375   71.1090  222.8961 H   0  0  0  0  0  0  0  0  0  0  0  0
  140.1583   72.6754  222.8961 H   0  0  0  0  0  0  0  0  0  0  0  0
  139.2417   70.4427  222.5901 H   0  0  0  0  0  0  0  0  0  0  0  0
  139.0550   69.3759  224.0863 H   0  0  0  0  0  0  0  0  0  0  0  0
  136.9605   69.8837  222.7511 H   0  0  0  0  0  0  0  0  0  0  0  0
  136.9183   70.1454  224.5141 H   0  0  0  0  0  0  0  0  0  0  0  0
  137.8450   72.6020  223.4500 H   0  0  0  0  0  0  0  0  0  0  0  0
  134.9825   73.8828  221.7536 H   0  0  0  0  0  0  0  0  0  0  0  0
  134.7824   74.1027  223.5756 H   0  0  0  0  0  0  0  0  0  0  0  0
  136.4010   75.6230  223.3360 H   0  0  0  0  0  0  0  0  0  0  0  0
  140.4249   74.4727  221.5558 H   0  0  0  0  0  0  0  0  0  0  0  0
  142.1119   76.2391  221.7849 H   0  0  0  0  0  0  0  0  0  0  0  0
  142.6151   78.5901  222.4491 H   0  0  0  0  0  0  0  0  0  0  0  0
  139.4365   81.1021  223.9317 H   0  0  0  0  0  0  0  0  0  0  0  0
  137.8338   79.2002  223.6397 H   0  0  0  0  0  0  0  0  0  0  0  0
  141.0078   70.0577  224.9631 H   0  0  0  0  0  0  0  0  0  0  0  0
  142.0934   71.9985  225.8608 H   0  0  0  0  0  0  0  0  0  0  0  0
  140.5527   72.8509  226.0744 H   0  0  0  0  0  0  0  0  0  0  0  0
  142.0792   71.6444  228.1161 H   0  0  0  0  0  0  0  0  0  0  0  0
  140.3905   72.1369  228.2815 H   0  0  0  0  0  0  0  0  0  0  0  0
  141.5419   69.3988  227.5660 H   0  0  0  0  0  0  0  0  0  0  0  0
  140.2544   69.7296  228.6874 H   0  0  0  0  0  0  0  0  0  0  0  0
  139.5288   68.9478  226.2241 H   0  0  0  0  0  0  0  0  0  0  0  0
  138.6883   70.3752  226.7952 H   0  0  0  0  0  0  0  0  0  0  0  0
  1  2  1  0
  2  3  1  0
  3  4  1  0
  4  5  1  0
  5  6  1  0
  6  7  2  0
  6  8  1  0
  8  9  1  0
  9 10  1  0
 10 11  2  0
 10 12  1  0
 12 13  2  0
 13 14  1  0
 14 15  2  0
 15 16  1  0
 16 17  2  0
 17 18  1  0
 17 19  1  0
 19 20  2  0
 20 21  1  0
 21 22  2  0
  2 23  1  0
 23 24  1  0
 24 25  1  0
 25 26  1  0
 26 27  1  0
 22 12  1  0
 27 23  1  0
 21 15  1  0
  1 28  1  0
  1 29  1  0
  1 30  1  0
  3 31  1  0
  3 32  1  0
  4 33  1  0
  4 34  1  0
  5 35  1  0
  8 36  1  0
  8 37  1  0
  9 38  1  0
 13 39  1  0
 14 40  1  0
 16 41  1  0
 19 42  1  0
 20 43  1  0
 23 44  1  0
 24 45  1  0
 24 46  1  0
 25 47  1  0
 25 48  1  0
 26 49  1  0
 26 50  1  0
 27 51  1  0
 27 52  1  0
M  END
>  <smiles>  (22) 
CN(CCNC(=O)CNC(=O)c1ccc2cc(Cl)ccc2n1)C1CCCC1

>  <score_type>  (22) 
oracle

>  <origin>  (22) 
autodockgpu

>  <m_score__min__energy>  (22) 
-8.4299999999999997

>  <m_primary>  (22) 
energy

>  <rmsd>  (22) 
8.287826684297448

>  <m_score__min__rmsd>  (22) 
8.287826684297448

>  <meeko>  (22) 
{"free_energy": -7.01, "intermolecular_energy": -9.1, "internal_energy": -2.74, "cluster_size": 14, "cluster_id": 3, "rank_in_cluster": 11}

>  <energy>  (22) 
-8.33

>  <cluster_rmsd>  (22) 
0.0

>  <cluster>  (22) 
2

$$$$

     RDKit          3D

 52 54  0  0  0  0  0  0  0  0999 V2000
  142.1150   80.1610  219.6500 C   0  0  0  0  0  0  0  0  0  0  0  0
  141.3500   79.0790  220.3590 N   0  0  0  0  0  0  0  0  0  0  0  0
  142.1800   77.9170  220.2930 C   0  0  0  0  0  0  0  0  0  0  0  0
  141.4820   76.5970  220.4540 C   0  0  0  0  0  0  0  0  0  0  0  0
  140.1320   76.8680  220.9660 N   0  0  0  0  0  0  0  0  0  0  0  0
  139.4170   76.0070  221.8000 C   0  0  0  0  0  0  0  0  0  0  0  0
  139.9470   74.8950  222.1670 O   0  0  0  0  0  0  0  0  0  0  0  0
  138.0540   76.2390  222.3330 C   0  0  0  0  0  0  0  0  0  0  0  0
  137.7940   77.5470  222.8290 N   0  0  0  0  0  0  0  0  0  0  0  0
  137.8640   78.7490  222.0800 C   0  0  0  0  0  0  0  0  0  0  0  0
  138.1850   78.7260  220.8580 O   0  0  0  0  0  0  0  0  0  0  0  0
  137.5600   80.0210  222.7400 C   0  0  0  0  0  0  0  0  0  0  0  0
  137.4230   81.2090  222.0610 C   0  0  0  0  0  0  0  0  0  0  0  0
  137.1400   82.3990  222.6670 C   0  0  0  0  0  0  0  0  0  0  0  0
  136.9830   82.4040  224.0450 C   0  0  0  0  0  0  0  0  0  0  0  0
  136.6960   83.5570  224.7460 C   0  0  0  0  0  0  0  0  0  0  0  0
  136.5540   83.4780  226.1220 C   0  0  0  0  0  0  0  0  0  0  0  0
  136.1920   84.9480  226.9860 Cl  0  0  0  0  0  0  0  0  0  0  0  0
  136.6820   82.3190  226.8300 C   0  0  0  0  0  0  0  0  0  0  0  0
  136.9690   81.1700  226.1160 C   0  0  0  0  0  0  0  0  0  0  0  0
  137.1180   81.2210  224.7270 C   0  0  0  0  0  0  0  0  0  0  0  0
  137.4000   80.0630  224.0770 N   0  0  0  0  0  0  0  0  0  0  0  0
  141.1750   79.6570  221.6750 C   0  0  0  0  0  0  0  0  0  0  0  0
  142.1800   79.0470  222.6360 C   0  0  0  0  0  0  0  0  0  0  0  0
  142.6060   80.1560  223.5630 C   0  0  0  0  0  0  0  0  0  0  0  0
  141.6200   81.2700  223.3320 C   0  0  0  0  0  0  0  0  0  0  0  0
  141.3250   81.1030  221.8280 C   0  0  0  0  0  0  0  0  0  0  0  0
  142.5841   80.8245  220.3914 H   0  0  0  0  0  0  0  0  0  0  0  0
  142.8938   79.7067  219.0198 H   0  0  0  0  0  0  0  0  0  0  0  0
  141.4271   80.7437  219.0198 H   0  0  0  0  0  0  0  0  0  0  0  0
  142.6794   77.9158  219.3129 H   0  0  0  0  0  0  0  0  0  0  0  0
  142.8663   77.9949  221.1491 H   0  0  0  0  0  0  0  0  0  0  0  0
  141.4189   76.0851  219.4824 H   0  0  0  0  0  0  0  0  0  0  0  0
  142.0361   75.9493  221.1493 H   0  0  0  0  0  0  0  0  0  0  0  0
  139.6720   77.7680  220.6740 H   0  0  0  0  0  0  0  0  0  0  0  0
  137.3369   76.0370  221.5237 H   0  0  0  0  0  0  0  0  0  0  0  0
  137.9552   75.5677  223.1988 H   0  0  0  0  0  0  0  0  0  0  0  0
  137.5230   77.6460  223.8360 H   0  0  0  0  0  0  0  0  0  0  0  0
  137.5485   81.1998  220.9682 H   0  0  0  0  0  0  0  0  0  0  0  0
  137.0397   83.3245  222.0810 H   0  0  0  0  0  0  0  0  0  0  0  0
  136.5823   84.5184  224.2238 H   0  0  0  0  0  0  0  0  0  0  0  0
  136.5620   82.2992  227.9233 H   0  0  0  0  0  0  0  0  0  0  0  0
  137.0806   80.2113  226.6436 H   0  0  0  0  0  0  0  0  0  0  0  0
  140.1178   79.4322  221.8796 H   0  0  0  0  0  0  0  0  0  0  0  0
  141.7136   78.2310  223.2075 H   0  0  0  0  0  0  0  0  0  0  0  0
  143.0407   78.6228  222.0982 H   0  0  0  0  0  0  0  0  0  0  0  0
  142.5680   79.8190  224.6094 H   0  0  0  0  0  0  0  0  0  0  0  0
  143.6399   80.4775  223.3687 H   0  0  0  0  0  0  0  0  0  0  0  0
  140.7118   81.1364  223.9380 H   0  0  0  0  0  0  0  0  0  0  0  0
  141.9922   82.2669  223.6107 H   0  0  0  0  0  0  0  0  0  0  0  0
  140.3997   81.6274  221.5470 H   0  0  0  0  0  0  0  0  0  0  0  0
  142.1112   81.5253  221.1849 H   0  0  0  0  0  0  0  0  0  0  0  0
  1  2  1  0
  2  3  1  0
  3  4  1  0
  4  5  1  0
  5  6  1  0
  6  7  2  0
  6  8  1  0
  8  9  1  0
  9 10  1  0
 10 11  2  0
 10 12  1  0
 12 13  2  0
 13 14  1  0
 14 15  2  0
 15 16  1  0
 16 17  2  0
 17 18  1  0
 17 19  1  0
 19 20  2  0
 20 21  1  0
 21 22  2  0
  2 23  1  0
 23 24  1  0
 24 25  1  0
 25 26  1  0
 26 27  1  0
 22 12  1  0
 27 23  1  0
 21 15  1  0
  1 28  1  0
  1 29  1  0
  1 30  1  0
  3 31  1  0
  3 32  1  0
  4 33  1  0
  4 34  1  0
  5 35  1  0
  8 36  1  0
  8 37  1  0
  9 38  1  0
 13 39  1  0
 14 40  1  0
 16 41  1  0
 19 42  1  0
 20 43  1  0
 23 44  1  0
 24 45  1  0
 24 46  1  0
 25 47  1  0
 25 48  1  0
 26 49  1  0
 26 50  1  0
 27 51  1  0
 27 52  1  0
M  END
>  <smiles>  (23) 
CN(CCNC(=O)CNC(=O)c1ccc2cc(Cl)ccc2n1)C1CCCC1

>  <score_type>  (23) 
oracle

>  <origin>  (23) 
autodockgpu

>  <m_score__min__energy>  (23) 
-8.4299999999999997

>  <m_primary>  (23) 
energy

>  <rmsd>  (23) 
8.690560993509136

>  <m_score__min__rmsd>  (23) 
8.690560993509136

>  <meeko>  (23) 
{"free_energy": -5.37, "intermolecular_energy": -7.45, "internal_energy": -3.81, "cluster_size": 8, "cluster_id": 7, "rank_in_cluster": 3}

>  <energy>  (23) 
-7.68

>  <cluster_rmsd>  (23) 
0.0

>  <cluster>  (23) 
3

$$$$

     RDKit          3D

 52 54  0  0  0  0  0  0  0  0999 V2000
  140.4440   79.7290  219.4650 C   0  0  0  0  0  0  0  0  0  0  0  0
  140.8910   78.6090  220.3610 N   0  0  0  0  0  0  0  0  0  0  0  0
  142.1820   78.2260  219.8790 C   0  0  0  0  0  0  0  0  0  0  0  0
  142.4160   76.7510  219.7180 C   0  0  0  0  0  0  0  0  0  0  0  0
  141.1630   76.0630  220.0540 N   0  0  0  0  0  0  0  0  0  0  0  0
  141.0900   74.8110  220.6670 C   0  0  0  0  0  0  0  0  0  0  0  0
  142.1740   74.1920  220.9760 O   0  0  0  0  0  0  0  0  0  0  0  0
  139.8490   74.0800  221.0180 C   0  0  0  0  0  0  0  0  0  0  0  0
  139.9700   73.1070  222.0480 N   0  0  0  0  0  0  0  0  0  0  0  0
  138.9950   72.1380  222.3960 C   0  0  0  0  0  0  0  0  0  0  0  0
  137.8930   72.0860  221.7790 O   0  0  0  0  0  0  0  0  0  0  0  0
  139.2780   71.1980  223.4830 C   0  0  0  0  0  0  0  0  0  0  0  0
  138.9470   69.8630  223.4310 C   0  0  0  0  0  0  0  0  0  0  0  0
  139.2060   68.9790  224.4390 C   0  0  0  0  0  0  0  0  0  0  0  0
  139.8390   69.4600  225.5760 C   0  0  0  0  0  0  0  0  0  0  0  0
  140.1420   68.6440  226.6460 C   0  0  0  0  0  0  0  0  0  0  0  0
  140.7740   69.2000  227.7460 C   0  0  0  0  0  0  0  0  0  0  0  0
  141.1460   68.1490  229.0860 Cl  0  0  0  0  0  0  0  0  0  0  0  0
  141.1180   70.5170  227.8340 C   0  0  0  0  0  0  0  0  0  0  0  0
  140.8090   71.3250  226.7550 C   0  0  0  0  0  0  0  0  0  0  0  0
  140.1710   70.7900  225.6320 C   0  0  0  0  0  0  0  0  0  0  0  0
  139.8910   71.6290  224.6030 N   0  0  0  0  0  0  0  0  0  0  0  0
  140.8660   79.2430  221.6620 C   0  0  0  0  0  0  0  0  0  0  0  0
  140.9830   78.1860  222.7460 C   0  0  0  0  0  0  0  0  0  0  0  0
  141.8250   78.7920  223.8390 C   0  0  0  0  0  0  0  0  0  0  0  0
  141.8980   80.2620  223.5170 C   0  0  0  0  0  0  0  0  0  0  0  0
  141.8950   80.2330  221.9760 C   0  0  0  0  0  0  0  0  0  0  0  0
  140.1056   80.5768  220.0788 H   0  0  0  0  0  0  0  0  0  0  0  0
  141.2837   80.0480  218.8301 H   0  0  0  0  0  0  0  0  0  0  0  0
  139.6154   79.3822  218.8301 H   0  0  0  0  0  0  0  0  0  0  0  0
  142.3279   78.6987  218.8965 H   0  0  0  0  0  0  0  0  0  0  0  0
  142.8949   78.5561  220.6489 H   0  0  0  0  0  0  0  0  0  0  0  0
  142.6996   76.5275  218.6790 H   0  0  0  0  0  0  0  0  0  0  0  0
  143.2299   76.4149  220.3773 H   0  0  0  0  0  0  0  0  0  0  0  0
  140.2610   76.5430  219.8050 H   0  0  0  0  0  0  0  0  0  0  0  0
  139.1018   74.8202  221.3401 H   0  0  0  0  0  0  0  0  0  0  0  0
  139.5673   73.5214  220.1133 H   0  0  0  0  0  0  0  0  0  0  0  0
  140.8570   73.0900  222.6060 H   0  0  0  0  0  0  0  0  0  0  0  0
  138.4458   69.4872  222.5268 H   0  0  0  0  0  0  0  0  0  0  0  0
  138.9219   67.9198  224.3523 H   0  0  0  0  0  0  0  0  0  0  0  0
  139.8871   67.5741  226.6261 H   0  0  0  0  0  0  0  0  0  0  0  0
  141.6202   70.9196  228.7260 H   0  0  0  0  0  0  0  0  0  0  0  0
  141.0666   72.3941  226.7805 H   0  0  0  0  0  0  0  0  0  0  0  0
  139.9119   79.7892  221.6264 H   0  0  0  0  0  0  0  0  0  0  0  0
  139.9868   77.9254  223.1329 H   0  0  0  0  0  0  0  0  0  0  0  0
  141.4374   77.2629  222.3568 H   0  0  0  0  0  0  0  0  0  0  0  0
  141.3531   78.6356  224.8203 H   0  0  0  0  0  0  0  0  0  0  0  0
  142.8236   78.3334  223.8890 H   0  0  0  0  0  0  0  0  0  0  0  0
  141.0262   80.8046  223.9114 H   0  0  0  0  0  0  0  0  0  0  0  0
  142.7647   80.7774  223.9566 H   0  0  0  0  0  0  0  0  0  0  0  0
  141.6330   81.2185  221.5635 H   0  0  0  0  0  0  0  0  0  0  0  0
  142.8772   79.9847  221.5475 H   0  0  0  0  0  0  0  0  0  0  0  0
  1  2  1  0
  2  3  1  0
  3  4  1  0
  4  5  1  0
  5  6  1  0
  6  7  2  0
  6  8  1  0
  8  9  1  0
  9 10  1  0
 10 11  2  0
 10 12  1  0
 12 13  2  0
 13 14  1  0
 14 15  2  0
 15 16  1  0
 16 17  2  0
 17 18  1  0
 17 19  1  0
 19 20  2  0
 20 21  1  0
 21 22  2  0
  2 23  1  0
 23 24  1  0
 24 25  1  0
 25 26  1  0
 26 27  1  0
 22 12  1  0
 27 23  1  0
 21 15  1  0
  1 28  1  0
  1 29  1  0
  1 30  1  0
  3 31  1  0
  3 32  1  0
  4 33  1  0
  4 34  1  0
  5 35  1  0
  8 36  1  0
  8 37  1  0
  9 38  1  0
 13 39  1  0
 14 40  1  0
 16 41  1  0
 19 42  1  0
 20 43  1  0
 23 44  1  0
 24 45  1  0
 24 46  1  0
 25 47  1  0
 25 48  1  0
 26 49  1  0
 26 50  1  0
 27 51  1  0
 27 52  1  0
M  END
>  <smiles>  (24) 
CN(CCNC(=O)CNC(=O)c1ccc2cc(Cl)ccc2n1)C1CCCC1

>  <score_type>  (24) 
oracle

>  <origin>  (24) 
autodockgpu

>  <m_score__min__energy>  (24) 
-8.4299999999999997

>  <m_primary>  (24) 
energy

>  <rmsd>  (24) 
5.099870216981661

>  <m_score__min__rmsd>  (24) 
5.099870216981661

>  <meeko>  (24) 
{"free_energy": -6.9, "intermolecular_energy": -8.99, "internal_energy": -2.35, "cluster_size": 21, "cluster_id": 1, "rank_in_cluster": 21}

>  <energy>  (24) 
-7.46

>  <cluster_rmsd>  (24) 
1.18

>  <cluster>  (24) 
3

$$$$

     RDKit          3D

 52 54  0  0  0  0  0  0  0  0999 V2000
  140.2410   67.6870  226.2690 C   0  0  0  0  0  0  0  0  0  0  0  0
  140.0050   69.0690  225.7290 N   0  0  0  0  0  0  0  0  0  0  0  0
  138.5890   69.2620  225.7740 C   0  0  0  0  0  0  0  0  0  0  0  0
  137.9560   69.8030  224.5250 C   0  0  0  0  0  0  0  0  0  0  0  0
  139.0320   70.0680  223.5600 N   0  0  0  0  0  0  0  0  0  0  0  0
  138.8940   69.9620  222.1750 C   0  0  0  0  0  0  0  0  0  0  0  0
  137.7620   69.6140  221.6750 O   0  0  0  0  0  0  0  0  0  0  0  0
  139.9530   70.2160  221.1690 C   0  0  0  0  0  0  0  0  0  0  0  0
  140.2950   71.5800  220.9570 N   0  0  0  0  0  0  0  0  0  0  0  0
  140.5310   72.5450  221.9690 C   0  0  0  0  0  0  0  0  0  0  0  0
  140.4400   72.2310  223.1900 O   0  0  0  0  0  0  0  0  0  0  0  0
  140.8810   73.9150  221.5830 C   0  0  0  0  0  0  0  0  0  0  0  0
  141.7180   74.2110  220.5320 C   0  0  0  0  0  0  0  0  0  0  0  0
  142.0500   75.4830  220.1640 C   0  0  0  0  0  0  0  0  0  0  0  0
  141.5100   76.5310  220.8950 C   0  0  0  0  0  0  0  0  0  0  0  0
  141.7880   77.8490  220.6000 C   0  0  0  0  0  0  0  0  0  0  0  0
  141.2090   78.8390  221.3780 C   0  0  0  0  0  0  0  0  0  0  0  0
  141.5750   80.4980  220.9860 Cl  0  0  0  0  0  0  0  0  0  0  0  0
  140.3750   78.5850  222.4270 C   0  0  0  0  0  0  0  0  0  0  0  0
  140.1050   77.2590  222.7130 C   0  0  0  0  0  0  0  0  0  0  0  0
  140.6750   76.2400  221.9440 C   0  0  0  0  0  0  0  0  0  0  0  0
  140.3760   74.9570  222.2700 N   0  0  0  0  0  0  0  0  0  0  0  0
  140.7830   69.8790  226.6440 C   0  0  0  0  0  0  0  0  0  0  0  0
  141.1550   71.1900  225.9730 C   0  0  0  0  0  0  0  0  0  0  0  0
  141.0890   72.2480  227.0430 C   0  0  0  0  0  0  0  0  0  0  0  0
  141.0030   71.4930  228.3440 C   0  0  0  0  0  0  0  0  0  0  0  0
  140.1830   70.2580  227.9220 C   0  0  0  0  0  0  0  0  0  0  0  0
  140.2358   67.7171  227.3686 H   0  0  0  0  0  0  0  0  0  0  0  0
  139.4446   67.0148  225.9169 H   0  0  0  0  0  0  0  0  0  0  0  0
  141.2153   67.3172  225.9169 H   0  0  0  0  0  0  0  0  0  0  0  0
  138.1240   68.2893  225.9922 H   0  0  0  0  0  0  0  0  0  0  0  0
  138.4196   70.0269  226.5462 H   0  0  0  0  0  0  0  0  0  0  0  0
  137.2538   69.0647  224.1104 H   0  0  0  0  0  0  0  0  0  0  0  0
  137.3974   70.7251  224.7434 H   0  0  0  0  0  0  0  0  0  0  0  0
  139.9720   70.3480  223.9420 H   0  0  0  0  0  0  0  0  0  0  0  0
  140.8611   69.6878  221.4951 H   0  0  0  0  0  0  0  0  0  0  0  0
  139.5453   69.8594  220.2116 H   0  0  0  0  0  0  0  0  0  0  0  0
  140.3870   71.9160  219.9690 H   0  0  0  0  0  0  0  0  0  0  0  0
  142.1435   73.3760  219.9560 H   0  0  0  0  0  0  0  0  0  0  0  0
  142.7240   75.6708  219.3152 H   0  0  0  0  0  0  0  0  0  0  0  0
  142.4551   78.1091  219.7650 H   0  0  0  0  0  0  0  0  0  0  0  0
  139.9357   79.4003  223.0205 H   0  0  0  0  0  0  0  0  0  0  0  0
  139.4381   77.0048  223.5501 H   0  0  0  0  0  0  0  0  0  0  0  0
  141.6211   69.2072  226.8815 H   0  0  0  0  0  0  0  0  0  0  0  0
  142.1723   71.1304  225.5589 H   0  0  0  0  0  0  0  0  0  0  0  0
  140.4729   71.4203  225.1413 H   0  0  0  0  0  0  0  0  0  0  0  0
  141.9922   72.8754  227.0206 H   0  0  0  0  0  0  0  0  0  0  0  0
  140.2304   72.9209  226.9019 H   0  0  0  0  0  0  0  0  0  0  0  0
  142.0001   71.2082  228.7111 H   0  0  0  0  0  0  0  0  0  0  0  0
  140.5593   72.0678  229.1703 H   0  0  0  0  0  0  0  0  0  0  0  0
  140.2819   69.4481  228.6597 H   0  0  0  0  0  0  0  0  0  0  0  0
  139.1044   70.4610  227.8487 H   0  0  0  0  0  0  0  0  0  0  0  0
  1  2  1  0
  2  3  1  0
  3  4  1  0
  4  5  1  0
  5  6  1  0
  6  7  2  0
  6  8  1  0
  8  9  1  0
  9 10  1  0
 10 11  2  0
 10 12  1  0
 12 13  2  0
 13 14  1  0
 14 15  2  0
 15 16  1  0
 16 17  2  0
 17 18  1  0
 17 19  1  0
 19 20  2  0
 20 21  1  0
 21 22  2  0
  2 23  1  0
 23 24  1  0
 24 25  1  0
 25 26  1  0
 26 27  1  0
 22 12  1  0
 27 23  1  0
 21 15  1  0
  1 28  1  0
  1 29  1  0
  1 30  1  0
  3 31  1  0
  3 32  1  0
  4 33  1  0
  4 34  1  0
  5 35  1  0
  8 36  1  0
  8 37  1  0
  9 38  1  0
 13 39  1  0
 14 40  1  0
 16 41  1  0
 19 42  1  0
 20 43  1  0
 23 44  1  0
 24 45  1  0
 24 46  1  0
 25 47  1  0
 25 48  1  0
 26 49  1  0
 26 50  1  0
 27 51  1  0
 27 52  1  0
M  END
>  <smiles>  (25) 
CN(CCNC(=O)CNC(=O)c1ccc2cc(Cl)ccc2n1)C1CCCC1

>  <score_type>  (25) 
oracle

>  <origin>  (25) 
autodockgpu

>  <m_score__min__energy>  (25) 
-8.4299999999999997

>  <m_primary>  (25) 
energy

>  <rmsd>  (25) 
8.70832915222099

>  <m_score__min__rmsd>  (25) 
8.70832915222099

>  <meeko>  (25) 
{"free_energy": -7.19, "intermolecular_energy": -9.28, "internal_energy": -2.64, "cluster_size": 14, "cluster_id": 3, "rank_in_cluster": 6}

>  <energy>  (25) 
-7.45

>  <cluster_rmsd>  (25) 
1.28

>  <cluster>  (25) 
3

$$$$

     RDKit          3D

 52 54  0  0  0  0  0  0  0  0999 V2000
  139.4380   78.8770  220.6050 C   0  0  0  0  0  0  0  0  0  0  0  0
  139.1330   79.1990  222.0400 N   0  0  0  0  0  0  0  0  0  0  0  0
  139.0340   77.9360  222.7030 C   0  0  0  0  0  0  0  0  0  0  0  0
  140.0900   76.9250  222.3580 C   0  0  0  0  0  0  0  0  0  0  0  0
  139.4370   75.6120  222.2720 N   0  0  0  0  0  0  0  0  0  0  0  0
  138.6270   75.2010  221.2110 C   0  0  0  0  0  0  0  0  0  0  0  0
  138.4190   76.0000  220.2260 O   0  0  0  0  0  0  0  0  0  0  0  0
  137.9470   73.8900  221.0880 C   0  0  0  0  0  0  0  0  0  0  0  0
  138.2750   72.9240  222.0780 N   0  0  0  0  0  0  0  0  0  0  0  0
  139.5770   72.6350  222.5600 C   0  0  0  0  0  0  0  0  0  0  0  0
  140.5810   73.2530  222.1050 O   0  0  0  0  0  0  0  0  0  0  0  0
  139.7460   71.6090  223.5920 C   0  0  0  0  0  0  0  0  0  0  0  0
  139.3940   70.2920  223.4100 C   0  0  0  0  0  0  0  0  0  0  0  0
  139.5470   69.3290  224.3650 C   0  0  0  0  0  0  0  0  0  0  0  0
  140.0900   69.7050  225.5850 C   0  0  0  0  0  0  0  0  0  0  0  0
  140.2840   68.8040  226.6110 C   0  0  0  0  0  0  0  0  0  0  0  0
  140.8310   69.2590  227.7990 C   0  0  0  0  0  0  0  0  0  0  0  0
  141.0650   68.1010  229.0810 Cl  0  0  0  0  0  0  0  0  0  0  0  0
  141.1930   70.5560  228.0170 C   0  0  0  0  0  0  0  0  0  0  0  0
  140.9940   71.4500  226.9800 C   0  0  0  0  0  0  0  0  0  0  0  0
  140.4430   71.0180  225.7710 C   0  0  0  0  0  0  0  0  0  0  0  0
  140.2700   71.9390  224.7880 N   0  0  0  0  0  0  0  0  0  0  0  0
  140.2700   80.0170  222.4070 C   0  0  0  0  0  0  0  0  0  0  0  0
  140.6910   79.6960  223.8300 C   0  0  0  0  0  0  0  0  0  0  0  0
  142.1950   79.7770  223.8560 C   0  0  0  0  0  0  0  0  0  0  0  0
  142.5800   80.4460  222.5620 C   0  0  0  0  0  0  0  0  0  0  0  0
  141.4910   79.9110  221.6110 C   0  0  0  0  0  0  0  0  0  0  0  0
  140.1939   78.0790  220.5609 H   0  0  0  0  0  0  0  0  0  0  0  0
  138.5197   78.5404  220.1016 H   0  0  0  0  0  0  0  0  0  0  0  0
  139.8238   79.7757  220.1016 H   0  0  0  0  0  0  0  0  0  0  0  0
  139.0857   78.1199  223.7863 H   0  0  0  0  0  0  0  0  0  0  0  0
  138.0833   77.4980  222.3648 H   0  0  0  0  0  0  0  0  0  0  0  0
  140.5507   77.1787  221.3919 H   0  0  0  0  0  0  0  0  0  0  0  0
  140.8794   76.9143  223.1240 H   0  0  0  0  0  0  0  0  0  0  0  0
  139.5840   74.9410  223.0690 H   0  0  0  0  0  0  0  0  0  0  0  0
  136.8625   74.0672  221.1366 H   0  0  0  0  0  0  0  0  0  0  0  0
  138.2906   73.4654  220.1332 H   0  0  0  0  0  0  0  0  0  0  0  0
  137.4930   72.3680  222.5010 H   0  0  0  0  0  0  0  0  0  0  0  0
  138.9652   69.9984  222.4405 H   0  0  0  0  0  0  0  0  0  0  0  0
  139.2492   68.2876  224.1734 H   0  0  0  0  0  0  0  0  0  0  0  0
  140.0099   67.7458  226.4881 H   0  0  0  0  0  0  0  0  0  0  0  0
  141.6247   70.8774  228.9763 H   0  0  0  0  0  0  0  0  0  0  0  0
  141.2712   72.5068  227.1081 H   0  0  0  0  0  0  0  0  0  0  0  0
  139.8786   81.0315  222.2408 H   0  0  0  0  0  0  0  0  0  0  0  0
  140.2583   80.4269  224.5290 H   0  0  0  0  0  0  0  0  0  0  0  0
  140.3396   78.6993  224.1351 H   0  0  0  0  0  0  0  0  0  0  0  0
  142.5338   80.3753  224.7147 H   0  0  0  0  0  0  0  0  0  0  0  0
  142.6573   78.7840  223.9575 H   0  0  0  0  0  0  0  0  0  0  0  0
  142.5378   81.5419  222.6469 H   0  0  0  0  0  0  0  0  0  0  0  0
  143.6085   80.2350  222.2339 H   0  0  0  0  0  0  0  0  0  0  0  0
  141.4239   80.5270  220.7021 H   0  0  0  0  0  0  0  0  0  0  0  0
  141.6896   78.8874  221.2606 H   0  0  0  0  0  0  0  0  0  0  0  0
  1  2  1  0
  2  3  1  0
  3  4  1  0
  4  5  1  0
  5  6  1  0
  6  7  2  0
  6  8  1  0
  8  9  1  0
  9 10  1  0
 10 11  2  0
 10 12  1  0
 12 13  2  0
 13 14  1  0
 14 15  2  0
 15 16  1  0
 16 17  2  0
 17 18  1  0
 17 19  1  0
 19 20  2  0
 20 21  1  0
 21 22  2  0
  2 23  1  0
 23 24  1  0
 24 25  1  0
 25 26  1  0
 26 27  1  0
 22 12  1  0
 27 23  1  0
 21 15  1  0
  1 28  1  0
  1 29  1  0
  1 30  1  0
  3 31  1  0
  3 32  1  0
  4 33  1  0
  4 34  1  0
  5 35  1  0
  8 36  1  0
  8 37  1  0
  9 38  1  0
 13 39  1  0
 14 40  1  0
 16 41  1  0
 19 42  1  0
 20 43  1  0
 23 44  1  0
 24 45  1  0
 24 46  1  0
 25 47  1  0
 25 48  1  0
 26 49  1  0
 26 50  1  0
 27 51  1  0
 27 52  1  0
M  END
>  <smiles>  (26) 
CN(CCNC(=O)CNC(=O)c1ccc2cc(Cl)ccc2n1)C1CCCC1

>  <score_type>  (26) 
oracle

>  <origin>  (26) 
autodockgpu

>  <m_score__min__energy>  (26) 
-8.4299999999999997

>  <m_primary>  (26) 
energy

>  <rmsd>  (26) 
4.80930977481828

>  <m_score__min__rmsd>  (26) 
4.80930977481828

>  <meeko>  (26) 
{"free_energy": -7.75, "intermolecular_energy": -9.84, "internal_energy": -1.64, "cluster_size": 21, "cluster_id": 1, "rank_in_cluster": 10}

>  <energy>  (26) 
-7.45

>  <cluster_rmsd>  (26) 
1.26

>  <cluster>  (26) 
3

$$$$

     RDKit          3D

 52 54  0  0  0  0  0  0  0  0999 V2000
  141.8360   79.8290  219.3310 C   0  0  0  0  0  0  0  0  0  0  0  0
  141.4370   78.7680  220.3170 N   0  0  0  0  0  0  0  0  0  0  0  0
  142.1360   77.5880  219.9130 C   0  0  0  0  0  0  0  0  0  0  0  0
  141.5750   76.2860  220.4080 C   0  0  0  0  0  0  0  0  0  0  0  0
  140.2370   76.5570  220.9520 N   0  0  0  0  0  0  0  0  0  0  0  0
  139.5150   75.6680  221.7510 C   0  0  0  0  0  0  0  0  0  0  0  0
  140.0270   74.5280  222.0530 O   0  0  0  0  0  0  0  0  0  0  0  0
  138.1640   75.8990  222.3140 C   0  0  0  0  0  0  0  0  0  0  0  0
  137.8960   77.2210  222.7650 N   0  0  0  0  0  0  0  0  0  0  0  0
  137.9500   78.3970  221.9730 C   0  0  0  0  0  0  0  0  0  0  0  0
  138.2640   78.3340  220.7510 O   0  0  0  0  0  0  0  0  0  0  0  0
  137.6390   79.6890  222.5910 C   0  0  0  0  0  0  0  0  0  0  0  0
  137.5480   80.8620  221.8780 C   0  0  0  0  0  0  0  0  0  0  0  0
  137.2590   82.0700  222.4440 C   0  0  0  0  0  0  0  0  0  0  0  0
  137.0460   82.1110  223.8140 C   0  0  0  0  0  0  0  0  0  0  0  0
  136.7490   83.2840  224.4750 C   0  0  0  0  0  0  0  0  0  0  0  0
  136.5510   83.2410  225.8460 C   0  0  0  0  0  0  0  0  0  0  0  0
  136.1770   84.7370  226.6590 Cl  0  0  0  0  0  0  0  0  0  0  0  0
  136.6320   82.0980  226.5860 C   0  0  0  0  0  0  0  0  0  0  0  0
  136.9300   80.9280  225.9110 C   0  0  0  0  0  0  0  0  0  0  0  0
  137.1360   80.9430  224.5290 C   0  0  0  0  0  0  0  0  0  0  0  0
  137.4260   79.7660  223.9190 N   0  0  0  0  0  0  0  0  0  0  0  0
  141.8610   79.3560  221.5710 C   0  0  0  0  0  0  0  0  0  0  0  0
  141.4280   80.8100  221.6230 C   0  0  0  0  0  0  0  0  0  0  0  0
  141.0350   81.0840  223.0520 C   0  0  0  0  0  0  0  0  0  0  0  0
  141.5470   79.9060  223.8390 C   0  0  0  0  0  0  0  0  0  0  0  0
  141.3760   78.7650  222.8170 C   0  0  0  0  0  0  0  0  0  0  0  0
  142.1730   80.7250  219.8728 H   0  0  0  0  0  0  0  0  0  0  0  0
  142.6543   79.4533  218.6991 H   0  0  0  0  0  0  0  0  0  0  0  0
  140.9729   80.0856  218.6991 H   0  0  0  0  0  0  0  0  0  0  0  0
  142.1364   77.5574  218.8134 H   0  0  0  0  0  0  0  0  0  0  0  0
  143.1367   77.6687  220.3626 H   0  0  0  0  0  0  0  0  0  0  0  0
  141.5039   75.5682  219.5775 H   0  0  0  0  0  0  0  0  0  0  0  0
  142.2265   75.8539  221.1819 H   0  0  0  0  0  0  0  0  0  0  0  0
  139.7910   77.4790  220.7140 H   0  0  0  0  0  0  0  0  0  0  0  0
  137.4277   75.6532  221.5346 H   0  0  0  0  0  0  0  0  0  0  0  0
  138.1014   75.2614  223.2081 H   0  0  0  0  0  0  0  0  0  0  0  0
  137.6310   77.3530  223.7700 H   0  0  0  0  0  0  0  0  0  0  0  0
  137.7175   80.8243  220.7918 H   0  0  0  0  0  0  0  0  0  0  0  0
  137.1970   82.9824  221.8328 H   0  0  0  0  0  0  0  0  0  0  0  0
  136.6708   84.2339  223.9258 H   0  0  0  0  0  0  0  0  0  0  0  0
  136.4673   82.1063  227.6736 H   0  0  0  0  0  0  0  0  0  0  0  0
  137.0052   79.9807  226.4651 H   0  0  0  0  0  0  0  0  0  0  0  0
  142.9465   79.1799  221.5461 H   0  0  0  0  0  0  0  0  0  0  0  0
  142.2591   81.4657  221.3242 H   0  0  0  0  0  0  0  0  0  0  0  0
  140.5919   81.0028  220.9346 H   0  0  0  0  0  0  0  0  0  0  0  0
  141.4995   82.0157  223.4073 H   0  0  0  0  0  0  0  0  0  0  0  0
  139.9475   81.2082  223.1612 H   0  0  0  0  0  0  0  0  0  0  0  0
  142.6016   80.0384  224.1225 H   0  0  0  0  0  0  0  0  0  0  0  0
  141.0249   79.7394  224.7928 H   0  0  0  0  0  0  0  0  0  0  0  0
  141.9791   77.8894  223.0990 H   0  0  0  0  0  0  0  0  0  0  0  0
  140.3404   78.4008  222.7469 H   0  0  0  0  0  0  0  0  0  0  0  0
  1  2  1  0
  2  3  1  0
  3  4  1  0
  4  5  1  0
  5  6  1  0
  6  7  2  0
  6  8  1  0
  8  9  1  0
  9 10  1  0
 10 11  2  0
 10 12  1  0
 12 13  2  0
 13 14  1  0
 14 15  2  0
 15 16  1  0
 16 17  2  0
 17 18  1  0
 17 19  1  0
 19 20  2  0
 20 21  1  0
 21 22  2  0
  2 23  1  0
 23 24  1  0
 24 25  1  0
 25 26  1  0
 26 27  1  0
 22 12  1  0
 27 23  1  0
 21 15  1  0
  1 28  1  0
  1 29  1  0
  1 30  1  0
  3 31  1  0
  3 32  1  0
  4 33  1  0
  4 34  1  0
  5 35  1  0
  8 36  1  0
  8 37  1  0
  9 38  1  0
 13 39  1  0
 14 40  1  0
 16 41  1  0
 19 42  1  0
 20 43  1  0
 23 44  1  0
 24 45  1  0
 24 46  1  0
 25 47  1  0
 25 48  1  0
 26 49  1  0
 26 50  1  0
 27 51  1  0
 27 52  1  0
M  END
>  <smiles>  (27) 
CN(CCNC(=O)CNC(=O)c1ccc2cc(Cl)ccc2n1)C1CCCC1

>  <score_type>  (27) 
oracle

>  <origin>  (27) 
autodockgpu

>  <m_score__min__energy>  (27) 
-8.4299999999999997

>  <m_primary>  (27) 
energy

>  <rmsd>  (27) 
8.480616938304408

>  <m_score__min__rmsd>  (27) 
8.480616938304408

>  <meeko>  (27) 
{"free_energy": -5.27, "intermolecular_energy": -7.36, "internal_energy": -4.07, "cluster_size": 8, "cluster_id": 7, "rank_in_cluster": 4}

>  <energy>  (27) 
-7.24

>  <cluster_rmsd>  (27) 
1.72

>  <cluster>  (27) 
3

$$$$

     RDKit          3D

 52 54  0  0  0  0  0  0  0  0999 V2000
  139.8930   78.2730  220.5830 C   0  0  0  0  0  0  0  0  0  0  0  0
  140.9920   77.5650  221.3220 N   0  0  0  0  0  0  0  0  0  0  0  0
  142.1140   77.5700  220.4360 C   0  0  0  0  0  0  0  0  0  0  0  0
  142.6330   76.2230  220.0200 C   0  0  0  0  0  0  0  0  0  0  0  0
  141.5210   75.2690  220.1190 N   0  0  0  0  0  0  0  0  0  0  0  0
  141.3580   74.1570  219.2900 C   0  0  0  0  0  0  0  0  0  0  0  0
  142.2240   73.9220  218.3690 O   0  0  0  0  0  0  0  0  0  0  0  0
  140.2510   73.1740  219.3520 C   0  0  0  0  0  0  0  0  0  0  0  0
  140.2100   72.3570  220.5160 N   0  0  0  0  0  0  0  0  0  0  0  0
  140.0990   72.8190  221.8520 C   0  0  0  0  0  0  0  0  0  0  0  0
  140.0320   74.0560  222.1010 O   0  0  0  0  0  0  0  0  0  0  0  0
  140.0640   71.8420  222.9440 C   0  0  0  0  0  0  0  0  0  0  0  0
  139.5420   70.5770  222.8080 C   0  0  0  0  0  0  0  0  0  0  0  0
  139.5050   69.6610  223.8190 C   0  0  0  0  0  0  0  0  0  0  0  0
  140.0250   70.0320  225.0510 C   0  0  0  0  0  0  0  0  0  0  0  0
  140.0320   69.1760  226.1320 C   0  0  0  0  0  0  0  0  0  0  0  0
  140.5700   69.6220  227.3280 C   0  0  0  0  0  0  0  0  0  0  0  0
  140.5660   68.5220  228.6800 Cl  0  0  0  0  0  0  0  0  0  0  0  0
  141.0970   70.8680  227.5010 C   0  0  0  0  0  0  0  0  0  0  0  0
  141.0840   71.7170  226.4090 C   0  0  0  0  0  0  0  0  0  0  0  0
  140.5480   71.2930  225.1910 C   0  0  0  0  0  0  0  0  0  0  0  0
  140.5610   72.1680  224.1540 N   0  0  0  0  0  0  0  0  0  0  0  0
  141.1230   78.3830  222.5110 C   0  0  0  0  0  0  0  0  0  0  0  0
  142.2980   79.3310  222.3500 C   0  0  0  0  0  0  0  0  0  0  0  0
  141.8920   80.6240  223.0070 C   0  0  0  0  0  0  0  0  0  0  0  0
  140.6520   80.2980  223.7980 C   0  0  0  0  0  0  0  0  0  0  0  0
  139.9960   79.2290  222.9010 C   0  0  0  0  0  0  0  0  0  0  0  0
  139.1956   78.7223  221.3054 H   0  0  0  0  0  0  0  0  0  0  0  0
  140.3256   79.0627  219.9511 H   0  0  0  0  0  0  0  0  0  0  0  0
  139.3528   77.5526  219.9511 H   0  0  0  0  0  0  0  0  0  0  0  0
  141.8209   78.1132  219.5255 H   0  0  0  0  0  0  0  0  0  0  0  0
  142.9331   78.0416  220.9988 H   0  0  0  0  0  0  0  0  0  0  0  0
  142.9994   76.2658  218.9837 H   0  0  0  0  0  0  0  0  0  0  0  0
  143.4666   75.9133  220.6674 H   0  0  0  0  0  0  0  0  0  0  0  0
  140.7940   75.4420  220.8600 H   0  0  0  0  0  0  0  0  0  0  0  0
  139.3033   73.7297  219.2967 H   0  0  0  0  0  0  0  0  0  0  0  0
  140.4170   72.4852  218.5106 H   0  0  0  0  0  0  0  0  0  0  0  0
  140.2630   71.3180  220.3890 H   0  0  0  0  0  0  0  0  0  0  0  0
  139.1313   70.2872  221.8296 H   0  0  0  0  0  0  0  0  0  0  0  0
  139.0765   68.6601  223.6623 H   0  0  0  0  0  0  0  0  0  0  0  0
  139.6189   68.1601  226.0464 H   0  0  0  0  0  0  0  0  0  0  0  0
  141.5148   71.1844  228.4681 H   0  0  0  0  0  0  0  0  0  0  0  0
  141.4982   72.7319  226.5004 H   0  0  0  0  0  0  0  0  0  0  0  0
  141.2271   77.6215  223.2979 H   0  0  0  0  0  0  0  0  0  0  0  0
  143.1908   78.9178  222.8421 H   0  0  0  0  0  0  0  0  0  0  0  0
  142.5465   79.4827  221.2892 H   0  0  0  0  0  0  0  0  0  0  0  0
  142.6898   80.9845  223.6730 H   0  0  0  0  0  0  0  0  0  0  0  0
  141.7094   81.4186  222.2686 H   0  0  0  0  0  0  0  0  0  0  0  0
  140.9016   79.8937  224.7901 H   0  0  0  0  0  0  0  0  0  0  0  0
  140.0100   81.1660  224.0086 H   0  0  0  0  0  0  0  0  0  0  0  0
  139.2446   78.6521  223.4600 H   0  0  0  0  0  0  0  0  0  0  0  0
  139.4600   79.6571  222.0411 H   0  0  0  0  0  0  0  0  0  0  0  0
  1  2  1  0
  2  3  1  0
  3  4  1  0
  4  5  1  0
  5  6  1  0
  6  7  2  0
  6  8  1  0
  8  9  1  0
  9 10  1  0
 10 11  2  0
 10 12  1  0
 12 13  2  0
 13 14  1  0
 14 15  2  0
 15 16  1  0
 16 17  2  0
 17 18  1  0
 17 19  1  0
 19 20  2  0
 20 21  1  0
 21 22  2  0
  2 23  1  0
 23 24  1  0
 24 25  1  0
 25 26  1  0
 26 27  1  0
 22 12  1  0
 27 23  1  0
 21 15  1  0
  1 28  1  0
  1 29  1  0
  1 30  1  0
  3 31  1  0
  3 32  1  0
  4 33  1  0
  4 34  1  0
  5 35  1  0
  8 36  1  0
  8 37  1  0
  9 38  1  0
 13 39  1  0
 14 40  1  0
 16 41  1  0
 19 42  1  0
 20 43  1  0
 23 44  1  0
 24 45  1  0
 24 46  1  0
 25 47  1  0
 25 48  1  0
 26 49  1  0
 26 50  1  0
 27 51  1  0
 27 52  1  0
M  END
>  <smiles>  (28) 
CN(CCNC(=O)CNC(=O)c1ccc2cc(Cl)ccc2n1)C1CCCC1

>  <score_type>  (28) 
oracle

>  <origin>  (28) 
autodockgpu

>  <m_score__min__energy>  (28) 
-8.4299999999999997

>  <m_primary>  (28) 
energy

>  <rmsd>  (28) 
5.118210329921402

>  <m_score__min__rmsd>  (28) 
5.118210329921402

>  <meeko>  (28) 
{"free_energy": -7.16, "intermolecular_energy": -9.24, "internal_energy": -2.46, "cluster_size": 21, "cluster_id": 1, "rank_in_cluster": 17}

>  <energy>  (28) 
-7.19

>  <cluster_rmsd>  (28) 
1.56

>  <cluster>  (28) 
3

$$$$

     RDKit          3D

 52 54  0  0  0  0  0  0  0  0999 V2000
  139.1660   79.9680  221.5160 C   0  0  0  0  0  0  0  0  0  0  0  0
  139.0480   79.0590  222.7070 N   0  0  0  0  0  0  0  0  0  0  0  0
  138.9810   77.7350  222.1730 C   0  0  0  0  0  0  0  0  0  0  0  0
  137.8800   76.8640  222.7060 C   0  0  0  0  0  0  0  0  0  0  0  0
  138.1730   75.4810  222.3050 N   0  0  0  0  0  0  0  0  0  0  0  0
  137.6460   74.8590  221.1710 C   0  0  0  0  0  0  0  0  0  0  0  0
  136.8490   75.5120  220.4030 O   0  0  0  0  0  0  0  0  0  0  0  0
  137.9120   73.4680  220.7350 C   0  0  0  0  0  0  0  0  0  0  0  0
  138.2600   72.5490  221.7630 N   0  0  0  0  0  0  0  0  0  0  0  0
  139.4480   72.5790  222.5370 C   0  0  0  0  0  0  0  0  0  0  0  0
  140.3190   73.4740  222.3430 O   0  0  0  0  0  0  0  0  0  0  0  0
  139.6550   71.5580  223.5670 C   0  0  0  0  0  0  0  0  0  0  0  0
  139.3710   70.2250  223.3750 C   0  0  0  0  0  0  0  0  0  0  0  0
  139.5610   69.2660  224.3280 C   0  0  0  0  0  0  0  0  0  0  0  0
  140.0680   69.6640  225.5570 C   0  0  0  0  0  0  0  0  0  0  0  0
  140.2940   68.7680  226.5810 C   0  0  0  0  0  0  0  0  0  0  0  0
  140.8030   69.2450  227.7780 C   0  0  0  0  0  0  0  0  0  0  0  0
  141.0780   68.0940  229.0580 Cl  0  0  0  0  0  0  0  0  0  0  0  0
  141.0960   70.5570  228.0060 C   0  0  0  0  0  0  0  0  0  0  0  0
  140.8660   71.4450  226.9710 C   0  0  0  0  0  0  0  0  0  0  0  0
  140.3530   70.9920  225.7520 C   0  0  0  0  0  0  0  0  0  0  0  0
  140.1470   71.9070  224.7720 N   0  0  0  0  0  0  0  0  0  0  0  0
  140.2520   79.3830  223.4450 C   0  0  0  0  0  0  0  0  0  0  0  0
  141.4140   78.5670  222.9060 C   0  0  0  0  0  0  0  0  0  0  0  0
  142.6230   79.4650  222.9600 C   0  0  0  0  0  0  0  0  0  0  0  0
  142.2110   80.6370  223.8130 C   0  0  0  0  0  0  0  0  0  0  0  0
  140.7200   80.7680  223.4430 C   0  0  0  0  0  0  0  0  0  0  0  0
  139.3006   81.0048  221.8580 H   0  0  0  0  0  0  0  0  0  0  0  0
  140.0326   79.6666  220.9092 H   0  0  0  0  0  0  0  0  0  0  0  0
  138.2512   79.8979  220.9092 H   0  0  0  0  0  0  0  0  0  0  0  0
  138.8472   77.8178  221.0843 H   0  0  0  0  0  0  0  0  0  0  0  0
  139.9185   77.2458  222.4760 H   0  0  0  0  0  0  0  0  0  0  0  0
  137.8424   76.9364  223.8030 H   0  0  0  0  0  0  0  0  0  0  0  0
  136.9066   77.1840  222.3058 H   0  0  0  0  0  0  0  0  0  0  0  0
  138.8170   74.9210  222.9200 H   0  0  0  0  0  0  0  0  0  0  0  0
  137.0051   73.0912  220.2394 H   0  0  0  0  0  0  0  0  0  0  0  0
  138.7924   73.5260  220.0781 H   0  0  0  0  0  0  0  0  0  0  0  0
  137.5870   71.7760  221.9800 H   0  0  0  0  0  0  0  0  0  0  0  0
  138.9685   69.9150  222.3993 H   0  0  0  0  0  0  0  0  0  0  0  0
  139.3199   68.2115  224.1281 H   0  0  0  0  0  0  0  0  0  0  0  0
  140.0749   67.6980  226.4501 H   0  0  0  0  0  0  0  0  0  0  0  0
  141.4983   70.8949  228.9724 H   0  0  0  0  0  0  0  0  0  0  0  0
  141.0880   72.5137  227.1077 H   0  0  0  0  0  0  0  0  0  0  0  0
  139.9484   79.1604  224.4786 H   0  0  0  0  0  0  0  0  0  0  0  0
  141.5742   77.6748  223.5291 H   0  0  0  0  0  0  0  0  0  0  0  0
  141.2181   78.2218  221.8801 H   0  0  0  0  0  0  0  0  0  0  0  0
  143.4744   78.9378  223.4152 H   0  0  0  0  0  0  0  0  0  0  0  0
  142.9437   79.7812  221.9564 H   0  0  0  0  0  0  0  0  0  0  0  0
  142.3432   80.4224  224.8837 H   0  0  0  0  0  0  0  0  0  0  0  0
  142.8005   81.5496  223.6410 H   0  0  0  0  0  0  0  0  0  0  0  0
  140.1795   81.3680  224.1899 H   0  0  0  0  0  0  0  0  0  0  0  0
  140.5574   81.2767  222.4813 H   0  0  0  0  0  0  0  0  0  0  0  0
  1  2  1  0
  2  3  1  0
  3  4  1  0
  4  5  1  0
  5  6  1  0
  6  7  2  0
  6  8  1  0
  8  9  1  0
  9 10  1  0
 10 11  2  0
 10 12  1  0
 12 13  2  0
 13 14  1  0
 14 15  2  0
 15 16  1  0
 16 17  2  0
 17 18  1  0
 17 19  1  0
 19 20  2  0
 20 21  1  0
 21 22  2  0
  2 23  1  0
 23 24  1  0
 24 25  1  0
 25 26  1  0
 26 27  1  0
 22 12  1  0
 27 23  1  0
 21 15  1  0
  1 28  1  0
  1 29  1  0
  1 30  1  0
  3 31  1  0
  3 32  1  0
  4 33  1  0
  4 34  1  0
  5 35  1  0
  8 36  1  0
  8 37  1  0
  9 38  1  0
 13 39  1  0
 14 40  1  0
 16 41  1  0
 19 42  1  0
 20 43  1  0
 23 44  1  0
 24 45  1  0
 24 46  1  0
 25 47  1  0
 25 48  1  0
 26 49  1  0
 26 50  1  0
 27 51  1  0
 27 52  1  0
M  END
>  <smiles>  (29) 
CN(CCNC(=O)CNC(=O)c1ccc2cc(Cl)ccc2n1)C1CCCC1

>  <score_type>  (29) 
oracle

>  <origin>  (29) 
autodockgpu

>  <m_score__min__energy>  (29) 
-8.4299999999999997

>  <m_primary>  (29) 
energy

>  <rmsd>  (29) 
5.23926104868272

>  <m_score__min__rmsd>  (29) 
5.23926104868272

>  <meeko>  (29) 
{"free_energy": -8.1, "intermolecular_energy": -10.19, "internal_energy": -1.67, "cluster_size": 21, "cluster_id": 1, "rank_in_cluster": 3}

>  <energy>  (29) 
-7.15

>  <cluster_rmsd>  (29) 
1.86

>  <cluster>  (29) 
3

$$$$

     RDKit          3D

 52 54  0  0  0  0  0  0  0  0999 V2000
  140.8920   71.9480  227.1710 C   0  0  0  0  0  0  0  0  0  0  0  0
  139.9360   71.1750  226.3080 N   0  0  0  0  0  0  0  0  0  0  0  0
  140.5460   71.1210  225.0150 C   0  0  0  0  0  0  0  0  0  0  0  0
  139.6290   71.3280  223.8440 C   0  0  0  0  0  0  0  0  0  0  0  0
  138.2610   71.0380  224.2930 N   0  0  0  0  0  0  0  0  0  0  0  0
  137.6910   69.7630  224.3170 C   0  0  0  0  0  0  0  0  0  0  0  0
  138.3840   68.7520  223.9290 O   0  0  0  0  0  0  0  0  0  0  0  0
  136.3160   69.4280  224.7570 C   0  0  0  0  0  0  0  0  0  0  0  0
  135.5300   70.5180  225.2240 N   0  0  0  0  0  0  0  0  0  0  0  0
  134.3830   70.4210  226.0520 C   0  0  0  0  0  0  0  0  0  0  0  0
  133.9650   69.2930  226.4410 O   0  0  0  0  0  0  0  0  0  0  0  0
  133.6850   71.6460  226.4510 C   0  0  0  0  0  0  0  0  0  0  0  0
  132.5070   71.6440  227.1620 C   0  0  0  0  0  0  0  0  0  0  0  0
  131.8490   72.7790  227.5390 C   0  0  0  0  0  0  0  0  0  0  0  0
  132.4040   73.9990  227.1820 C   0  0  0  0  0  0  0  0  0  0  0  0
  131.8130   75.2000  227.5170 C   0  0  0  0  0  0  0  0  0  0  0  0
  132.4300   76.3750  227.1240 C   0  0  0  0  0  0  0  0  0  0  0  0
  131.6630   77.8800  227.5580 Cl  0  0  0  0  0  0  0  0  0  0  0  0
  133.5970   76.4180  226.4190 C   0  0  0  0  0  0  0  0  0  0  0  0
  134.1810   75.2070  226.0890 C   0  0  0  0  0  0  0  0  0  0  0  0
  133.5790   74.0060  226.4730 C   0  0  0  0  0  0  0  0  0  0  0  0
  134.1950   72.8480  226.1220 N   0  0  0  0  0  0  0  0  0  0  0  0
  139.8490   69.9160  227.0180 C   0  0  0  0  0  0  0  0  0  0  0  0
  140.3470   68.7920  226.1260 C   0  0  0  0  0  0  0  0  0  0  0  0
  141.0800   67.8310  227.0240 C   0  0  0  0  0  0  0  0  0  0  0  0
  140.7180   68.2410  228.4280 C   0  0  0  0  0  0  0  0  0  0  0  0
  140.5900   69.7700  228.2700 C   0  0  0  0  0  0  0  0  0  0  0  0
  140.6620   71.7620  228.2305 H   0  0  0  0  0  0  0  0  0  0  0  0
  141.9217   71.6256  226.9573 H   0  0  0  0  0  0  0  0  0  0  0  0
  140.7923   73.0224  226.9573 H   0  0  0  0  0  0  0  0  0  0  0  0
  141.3218   71.8998  224.9764 H   0  0  0  0  0  0  0  0  0  0  0  0
  140.9309   70.0957  224.9119 H   0  0  0  0  0  0  0  0  0  0  0  0
  139.6962   72.3689  223.4947 H   0  0  0  0  0  0  0  0  0  0  0  0
  139.9104   70.6660  223.0118 H   0  0  0  0  0  0  0  0  0  0  0  0
  137.6690   71.8480  224.6090 H   0  0  0  0  0  0  0  0  0  0  0  0
  135.7902   68.9745  223.9038 H   0  0  0  0  0  0  0  0  0  0  0  0
  136.4350   68.7558  225.6196 H   0  0  0  0  0  0  0  0  0  0  0  0
  135.8140   71.4860  224.9400 H   0  0  0  0  0  0  0  0  0  0  0  0
  132.0712   70.6737  227.4422 H   0  0  0  0  0  0  0  0  0  0  0  0
  130.9088   72.7277  228.1077 H   0  0  0  0  0  0  0  0  0  0  0  0
  130.8711   75.2231  228.0846 H   0  0  0  0  0  0  0  0  0  0  0  0
  134.0546   77.3742  226.1252 H   0  0  0  0  0  0  0  0  0  0  0  0
  135.1234   75.1902  225.5218 H   0  0  0  0  0  0  0  0  0  0  0  0
  138.7817   69.8807  227.2820 H   0  0  0  0  0  0  0  0  0  0  0  0
  139.4988   68.2874  225.6402 H   0  0  0  0  0  0  0  0  0  0  0  0
  141.0033   69.1747  225.3305 H   0  0  0  0  0  0  0  0  0  0  0  0
  140.7558   66.7981  226.8289 H   0  0  0  0  0  0  0  0  0  0  0  0
  142.1667   67.8614  226.8560 H   0  0  0  0  0  0  0  0  0  0  0  0
  139.7681   67.7879  228.7480 H   0  0  0  0  0  0  0  0  0  0  0  0
  141.4438   67.9252  229.1919 H   0  0  0  0  0  0  0  0  0  0  0  0
  140.0330   70.2082  229.1113 H   0  0  0  0  0  0  0  0  0  0  0  0
  141.5618   70.2852  228.2585 H   0  0  0  0  0  0  0  0  0  0  0  0
  1  2  1  0
  2  3  1  0
  3  4  1  0
  4  5  1  0
  5  6  1  0
  6  7  2  0
  6  8  1  0
  8  9  1  0
  9 10  1  0
 10 11  2  0
 10 12  1  0
 12 13  2  0
 13 14  1  0
 14 15  2  0
 15 16  1  0
 16 17  2  0
 17 18  1  0
 17 19  1  0
 19 20  2  0
 20 21  1  0
 21 22  2  0
  2 23  1  0
 23 24  1  0
 24 25  1  0
 25 26  1  0
 26 27  1  0
 22 12  1  0
 27 23  1  0
 21 15  1  0
  1 28  1  0
  1 29  1  0
  1 30  1  0
  3 31  1  0
  3 32  1  0
  4 33  1  0
  4 34  1  0
  5 35  1  0
  8 36  1  0
  8 37  1  0
  9 38  1  0
 13 39  1  0
 14 40  1  0
 16 41  1  0
 19 42  1  0
 20 43  1  0
 23 44  1  0
 24 45  1  0
 24 46  1  0
 25 47  1  0
 25 48  1  0
 26 49  1  0
 26 50  1  0
 27 51  1  0
 27 52  1  0
M  END
>  <smiles>  (30) 
CN(CCNC(=O)CNC(=O)c1ccc2cc(Cl)ccc2n1)C1CCCC1

>  <score_type>  (30) 
oracle

>  <origin>  (30) 
autodockgpu

>  <m_score__min__energy>  (30) 
-8.4299999999999997

>  <m_primary>  (30) 
energy

>  <rmsd>  (30) 
8.800390556227514

>  <m_score__min__rmsd>  (30) 
8.800390556227514

>  <meeko>  (30) 
{"free_energy": -8.33, "intermolecular_energy": -10.42, "internal_energy": -1.79, "cluster_size": 1, "cluster_id": 2, "rank_in_cluster": 1}

>  <energy>  (30) 
-7.12

>  <cluster_rmsd>  (30) 
1.5

>  <cluster>  (30) 
3

$$$$

     RDKit          3D

 52 54  0  0  0  0  0  0  0  0999 V2000
  141.5500   79.8600  219.3840 C   0  0  0  0  0  0  0  0  0  0  0  0
  141.4190   79.0490  220.6420 N   0  0  0  0  0  0  0  0  0  0  0  0
  142.1860   77.8640  220.4160 C   0  0  0  0  0  0  0  0  0  0  0  0
  141.4710   76.5620  220.6370 C   0  0  0  0  0  0  0  0  0  0  0  0
  140.0970   76.8740  221.0520 N   0  0  0  0  0  0  0  0  0  0  0  0
  139.3220   76.0660  221.8860 C   0  0  0  0  0  0  0  0  0  0  0  0
  139.8140   74.9690  222.3420 O   0  0  0  0  0  0  0  0  0  0  0  0
  137.9340   76.3410  222.3250 C   0  0  0  0  0  0  0  0  0  0  0  0
  137.6910   77.6440  222.8410 N   0  0  0  0  0  0  0  0  0  0  0  0
  137.8320   78.8610  222.1270 C   0  0  0  0  0  0  0  0  0  0  0  0
  138.2090   78.8570  220.9210 O   0  0  0  0  0  0  0  0  0  0  0  0
  137.5360   80.1250  222.8050 C   0  0  0  0  0  0  0  0  0  0  0  0
  137.4090   81.3240  222.1420 C   0  0  0  0  0  0  0  0  0  0  0  0
  137.1340   82.5080  222.7650 C   0  0  0  0  0  0  0  0  0  0  0  0
  136.9730   82.4940  224.1430 C   0  0  0  0  0  0  0  0  0  0  0  0
  136.6940   83.6380  224.8600 C   0  0  0  0  0  0  0  0  0  0  0  0
  136.5480   83.5410  226.2340 C   0  0  0  0  0  0  0  0  0  0  0  0
  136.1960   85.0020  227.1180 Cl  0  0  0  0  0  0  0  0  0  0  0  0
  136.6660   82.3720  226.9260 C   0  0  0  0  0  0  0  0  0  0  0  0
  136.9460   81.2310  226.1950 C   0  0  0  0  0  0  0  0  0  0  0  0
  137.0990   81.3000  224.8080 C   0  0  0  0  0  0  0  0  0  0  0  0
  137.3730   80.1500  224.1420 N   0  0  0  0  0  0  0  0  0  0  0  0
  141.9430   79.9610  221.6380 C   0  0  0  0  0  0  0  0  0  0  0  0
  140.8310   80.8700  222.1310 C   0  0  0  0  0  0  0  0  0  0  0  0
  141.0770   81.0800  223.6020 C   0  0  0  0  0  0  0  0  0  0  0  0
  142.4720   80.5680  223.8500 C   0  0  0  0  0  0  0  0  0  0  0  0
  142.5470   79.4010  222.8450 C   0  0  0  0  0  0  0  0  0  0  0  0
  141.7204   80.9151  219.6441 H   0  0  0  0  0  0  0  0  0  0  0  0
  142.3994   79.4861  218.7935 H   0  0  0  0  0  0  0  0  0  0  0  0
  140.6261   79.7725  218.7935 H   0  0  0  0  0  0  0  0  0  0  0  0
  142.5346   77.8831  219.3729 H   0  0  0  0  0  0  0  0  0  0  0  0
  142.9936   77.8880  221.1624 H   0  0  0  0  0  0  0  0  0  0  0  0
  141.4577   75.9785  219.7046 H   0  0  0  0  0  0  0  0  0  0  0  0
  141.9817   75.9672  221.4086 H   0  0  0  0  0  0  0  0  0  0  0  0
  139.6670   77.7630  220.6880 H   0  0  0  0  0  0  0  0  0  0  0  0
  137.2714   76.1925  221.4596 H   0  0  0  0  0  0  0  0  0  0  0  0
  137.7442   75.6506  223.1601 H   0  0  0  0  0  0  0  0  0  0  0  0
  137.3770   77.7270  223.8370 H   0  0  0  0  0  0  0  0  0  0  0  0
  137.5360   81.3293  221.0494 H   0  0  0  0  0  0  0  0  0  0  0  0
  137.0431   83.4428  222.1925 H   0  0  0  0  0  0  0  0  0  0  0  0
  136.5895   84.6078  224.3514 H   0  0  0  0  0  0  0  0  0  0  0  0
  136.5438   82.3375  228.0186 H   0  0  0  0  0  0  0  0  0  0  0  0
  137.0487   80.2639  226.7090 H   0  0  0  0  0  0  0  0  0  0  0  0
  142.7554   80.4554  221.0853 H   0  0  0  0  0  0  0  0  0  0  0  0
  140.8615   81.8321  221.5987 H   0  0  0  0  0  0  0  0  0  0  0  0
  139.8414   80.4247  221.9509 H   0  0  0  0  0  0  0  0  0  0  0  0
  141.0081   82.1482  223.8553 H   0  0  0  0  0  0  0  0  0  0  0  0
  140.3327   80.5571  224.2205 H   0  0  0  0  0  0  0  0  0  0  0  0
  143.2280   81.3367  223.6320 H   0  0  0  0  0  0  0  0  0  0  0  0
  142.6673   80.2783  224.8930 H   0  0  0  0  0  0  0  0  0  0  0  0
  143.5903   79.1038  222.6627 H   0  0  0  0  0  0  0  0  0  0  0  0
  142.0389   78.4923  223.2001 H   0  0  0  0  0  0  0  0  0  0  0  0
  1  2  1  0
  2  3  1  0
  3  4  1  0
  4  5  1  0
  5  6  1  0
  6  7  2  0
  6  8  1  0
  8  9  1  0
  9 10  1  0
 10 11  2  0
 10 12  1  0
 12 13  2  0
 13 14  1  0
 14 15  2  0
 15 16  1  0
 16 17  2  0
 17 18  1  0
 17 19  1  0
 19 20  2  0
 20 21  1  0
 21 22  2  0
  2 23  1  0
 23 24  1  0
 24 25  1  0
 25 26  1  0
 26 27  1  0
 22 12  1  0
 27 23  1  0
 21 15  1  0
  1 28  1  0
  1 29  1  0
  1 30  1  0
  3 31  1  0
  3 32  1  0
  4 33  1  0
  4 34  1  0
  5 35  1  0
  8 36  1  0
  8 37  1  0
  9 38  1  0
 13 39  1  0
 14 40  1  0
 16 41  1  0
 19 42  1  0
 20 43  1  0
 23 44  1  0
 24 45  1  0
 24 46  1  0
 25 47  1  0
 25 48  1  0
 26 49  1  0
 26 50  1  0
 27 51  1  0
 27 52  1  0
M  END
>  <smiles>  (31) 
CN(CCNC(=O)CNC(=O)c1ccc2cc(Cl)ccc2n1)C1CCCC1

>  <score_type>  (31) 
oracle

>  <origin>  (31) 
autodockgpu

>  <m_score__min__energy>  (31) 
-8.4299999999999997

>  <m_primary>  (31) 
energy

>  <rmsd>  (31) 
8.766070619614377

>  <m_score__min__rmsd>  (31) 
8.766070619614377

>  <meeko>  (31) 
{"free_energy": -5.45, "intermolecular_energy": -7.54, "internal_energy": -3.87, "cluster_size": 8, "cluster_id": 7, "rank_in_cluster": 1}

>  <energy>  (31) 
-7.06

>  <cluster_rmsd>  (31) 
1.43

>  <cluster>  (31) 
3

$$$$

     RDKit          3D

 52 54  0  0  0  0  0  0  0  0999 V2000
  145.5210   73.1900  221.1370 C   0  0  0  0  0  0  0  0  0  0  0  0
  144.1030   73.5700  220.8170 N   0  0  0  0  0  0  0  0  0  0  0  0
  144.1860   74.8330  220.1520 C   0  0  0  0  0  0  0  0  0  0  0  0
  142.9370   75.2960  219.4580 C   0  0  0  0  0  0  0  0  0  0  0  0
  141.8050   75.0290  220.3550 N   0  0  0  0  0  0  0  0  0  0  0  0
  140.6130   75.7570  220.3600 C   0  0  0  0  0  0  0  0  0  0  0  0
  140.4620   76.7310  219.5340 O   0  0  0  0  0  0  0  0  0  0  0  0
  139.4500   75.5240  221.2490 C   0  0  0  0  0  0  0  0  0  0  0  0
  139.5340   74.3840  222.0950 N   0  0  0  0  0  0  0  0  0  0  0  0
  139.9440   73.0840  221.7020 C   0  0  0  0  0  0  0  0  0  0  0  0
  140.2730   72.8500  220.5050 O   0  0  0  0  0  0  0  0  0  0  0  0
  139.9800   72.0140  222.7020 C   0  0  0  0  0  0  0  0  0  0  0  0
  139.5560   70.7300  222.4480 C   0  0  0  0  0  0  0  0  0  0  0  0
  139.5860   69.7260  223.3720 C   0  0  0  0  0  0  0  0  0  0  0  0
  140.0720   70.0230  224.6370 C   0  0  0  0  0  0  0  0  0  0  0  0
  140.1410   69.0760  225.6370 C   0  0  0  0  0  0  0  0  0  0  0  0
  140.6390   69.4520  226.8740 C   0  0  0  0  0  0  0  0  0  0  0  0
  140.7150   68.2370  228.1220 Cl  0  0  0  0  0  0  0  0  0  0  0  0
  141.0690   70.7130  227.1640 C   0  0  0  0  0  0  0  0  0  0  0  0
  140.9950   71.6550  226.1520 C   0  0  0  0  0  0  0  0  0  0  0  0
  140.4960   71.3030  224.8950 C   0  0  0  0  0  0  0  0  0  0  0  0
  140.4460   72.2660  223.9410 N   0  0  0  0  0  0  0  0  0  0  0  0
  143.6750   72.4530  220.0010 C   0  0  0  0  0  0  0  0  0  0  0  0
  144.8910   71.7370  219.4390 C   0  0  0  0  0  0  0  0  0  0  0  0
  144.5550   70.2680  219.4380 C   0  0  0  0  0  0  0  0  0  0  0  0
  143.0710   70.1980  219.6860 C   0  0  0  0  0  0  0  0  0  0  0  0
  142.8650   71.4060  220.6220 C   0  0  0  0  0  0  0  0  0  0  0  0
  145.6537   73.1544  222.2284 H   0  0  0  0  0  0  0  0  0  0  0  0
  145.7412   72.2011  220.7084 H   0  0  0  0  0  0  0  0  0  0  0  0
  146.2062   73.9362  220.7084 H   0  0  0  0  0  0  0  0  0  0  0  0
  144.4547   75.5912  220.9023 H   0  0  0  0  0  0  0  0  0  0  0  0
  144.9347   74.7005  219.3571 H   0  0  0  0  0  0  0  0  0  0  0  0
  143.0025   76.3737  219.2474 H   0  0  0  0  0  0  0  0  0  0  0  0
  142.8065   74.7655  218.5032 H   0  0  0  0  0  0  0  0  0  0  0  0
  141.9050   74.2420  221.0450 H   0  0  0  0  0  0  0  0  0  0  0  0
  139.3319   76.4108  221.8890 H   0  0  0  0  0  0  0  0  0  0  0  0
  138.5968   75.3366  220.5804 H   0  0  0  0  0  0  0  0  0  0  0  0
  139.2730   74.5010  223.1030 H   0  0  0  0  0  0  0  0  0  0  0  0
  139.1711   70.4997  221.4436 H   0  0  0  0  0  0  0  0  0  0  0  0
  139.2360   68.7136  223.1217 H   0  0  0  0  0  0  0  0  0  0  0  0
  139.8076   68.0434  225.4563 H   0  0  0  0  0  0  0  0  0  0  0  0
  141.4583   70.9710  228.1599 H   0  0  0  0  0  0  0  0  0  0  0  0
  141.3307   72.6858  226.3384 H   0  0  0  0  0  0  0  0  0  0  0  0
  143.0278   72.9496  219.2631 H   0  0  0  0  0  0  0  0  0  0  0  0
  145.0959   72.0814  218.4146 H   0  0  0  0  0  0  0  0  0  0  0  0
  145.7885   71.9411  220.0414 H   0  0  0  0  0  0  0  0  0  0  0  0
  144.8047   69.8166  218.4665 H   0  0  0  0  0  0  0  0  0  0  0  0
  145.1242   69.7172  220.2014 H   0  0  0  0  0  0  0  0  0  0  0  0
  142.5007   70.3101  218.7521 H   0  0  0  0  0  0  0  0  0  0  0  0
  142.7284   69.2400  220.1041 H   0  0  0  0  0  0  0  0  0  0  0  0
  141.8053   71.6984  220.6610 H   0  0  0  0  0  0  0  0  0  0  0  0
  143.1533   71.1986  221.6631 H   0  0  0  0  0  0  0  0  0  0  0  0
  1  2  1  0
  2  3  1  0
  3  4  1  0
  4  5  1  0
  5  6  1  0
  6  7  2  0
  6  8  1  0
  8  9  1  0
  9 10  1  0
 10 11  2  0
 10 12  1  0
 12 13  2  0
 13 14  1  0
 14 15  2  0
 15 16  1  0
 16 17  2  0
 17 18  1  0
 17 19  1  0
 19 20  2  0
 20 21  1  0
 21 22  2  0
  2 23  1  0
 23 24  1  0
 24 25  1  0
 25 26  1  0
 26 27  1  0
 22 12  1  0
 27 23  1  0
 21 15  1  0
  1 28  1  0
  1 29  1  0
  1 30  1  0
  3 31  1  0
  3 32  1  0
  4 33  1  0
  4 34  1  0
  5 35  1  0
  8 36  1  0
  8 37  1  0
  9 38  1  0
 13 39  1  0
 14 40  1  0
 16 41  1  0
 19 42  1  0
 20 43  1  0
 23 44  1  0
 24 45  1  0
 24 46  1  0
 25 47  1  0
 25 48  1  0
 26 49  1  0
 26 50  1  0
 27 51  1  0
 27 52  1  0
M  END
>  <smiles>  (32) 
CN(CCNC(=O)CNC(=O)c1ccc2cc(Cl)ccc2n1)C1CCCC1

>  <score_type>  (32) 
oracle

>  <origin>  (32) 
autodockgpu

>  <m_score__min__energy>  (32) 
-8.4299999999999997

>  <m_primary>  (32) 
energy

>  <rmsd>  (32) 
5.637585589017137

>  <m_score__min__rmsd>  (32) 
5.637585589017137

>  <meeko>  (32) 
{"free_energy": -6.55, "intermolecular_energy": -8.64, "internal_energy": -3.02, "cluster_size": 4, "cluster_id": 5, "rank_in_cluster": 4}

>  <energy>  (32) 
-7.01

>  <cluster_rmsd>  (32) 
2.0

>  <cluster>  (32) 
3

$$$$

     RDKit          3D

 52 54  0  0  0  0  0  0  0  0999 V2000
  141.0690   67.4030  226.5410 C   0  0  0  0  0  0  0  0  0  0  0  0
  140.4530   68.6570  225.9880 N   0  0  0  0  0  0  0  0  0  0  0  0
  139.0410   68.4780  226.1140 C   0  0  0  0  0  0  0  0  0  0  0  0
  138.2050   68.9980  224.9800 C   0  0  0  0  0  0  0  0  0  0  0  0
  139.1150   69.6020  223.9980 N   0  0  0  0  0  0  0  0  0  0  0  0
  138.8870   70.8210  223.3560 C   0  0  0  0  0  0  0  0  0  0  0  0
  137.8200   71.4870  223.6220 O   0  0  0  0  0  0  0  0  0  0  0  0
  139.7750   71.4630  222.3580 C   0  0  0  0  0  0  0  0  0  0  0  0
  139.7750   72.8850  222.3500 N   0  0  0  0  0  0  0  0  0  0  0  0
  138.7830   73.7140  221.7660 C   0  0  0  0  0  0  0  0  0  0  0  0
  137.7850   73.2050  221.1810 O   0  0  0  0  0  0  0  0  0  0  0  0
  138.9280   75.1690  221.8490 C   0  0  0  0  0  0  0  0  0  0  0  0
  137.9510   76.0480  221.4420 C   0  0  0  0  0  0  0  0  0  0  0  0
  138.0770   77.4060  221.5140 C   0  0  0  0  0  0  0  0  0  0  0  0
  139.2580   77.9210  222.0280 C   0  0  0  0  0  0  0  0  0  0  0  0
  139.4770   79.2780  222.1410 C   0  0  0  0  0  0  0  0  0  0  0  0
  140.6840   79.7130  222.6640 C   0  0  0  0  0  0  0  0  0  0  0  0
  140.9390   81.4330  222.7950 Cl  0  0  0  0  0  0  0  0  0  0  0  0
  141.6760   78.8730  223.0770 C   0  0  0  0  0  0  0  0  0  0  0  0
  141.4430   77.5150  222.9600 C   0  0  0  0  0  0  0  0  0  0  0  0
  140.2350   77.0480  222.4350 C   0  0  0  0  0  0  0  0  0  0  0  0
  140.0610   75.7050  222.3420 N   0  0  0  0  0  0  0  0  0  0  0  0
  141.0400   69.6730  226.8370 C   0  0  0  0  0  0  0  0  0  0  0  0
  141.3990   70.8890  226.0010 C   0  0  0  0  0  0  0  0  0  0  0  0
  141.1140   72.0930  226.8610 C   0  0  0  0  0  0  0  0  0  0  0  0
  140.9120   71.5500  228.2520 C   0  0  0  0  0  0  0  0  0  0  0  0
  140.2490   70.1910  227.9520 C   0  0  0  0  0  0  0  0  0  0  0  0
  141.0510   67.4396  227.6402 H   0  0  0  0  0  0  0  0  0  0  0  0
  140.4973   66.5297  226.1938 H   0  0  0  0  0  0  0  0  0  0  0  0
  142.1096   67.3217  226.1938 H   0  0  0  0  0  0  0  0  0  0  0  0
  138.8461   67.3995  226.2081 H   0  0  0  0  0  0  0  0  0  0  0  0
  138.7458   69.0688  226.9937 H   0  0  0  0  0  0  0  0  0  0  0  0
  137.6470   68.1715  224.5156 H   0  0  0  0  0  0  0  0  0  0  0  0
  137.4803   69.7414  225.3435 H   0  0  0  0  0  0  0  0  0  0  0  0
  139.9930   69.0750  223.7570 H   0  0  0  0  0  0  0  0  0  0  0  0
  140.8035   71.1271  222.5566 H   0  0  0  0  0  0  0  0  0  0  0  0
  139.3858   71.1599  221.3748 H   0  0  0  0  0  0  0  0  0  0  0  0
  140.5740   73.3800  222.8150 H   0  0  0  0  0  0  0  0  0  0  0  0
  137.0163   75.6339  221.0360 H   0  0  0  0  0  0  0  0  0  0  0  0
  137.2680   78.0700  221.1753 H   0  0  0  0  0  0  0  0  0  0  0  0
  138.7100   79.9994  221.8228 H   0  0  0  0  0  0  0  0  0  0  0  0
  142.6213   79.2594  223.4858 H   0  0  0  0  0  0  0  0  0  0  0  0
  142.2128   76.7983  223.2820 H   0  0  0  0  0  0  0  0  0  0  0  0
  141.8873   69.1318  227.2833 H   0  0  0  0  0  0  0  0  0  0  0  0
  142.4636   70.8610  225.7257 H   0  0  0  0  0  0  0  0  0  0  0  0
  140.8178   70.9180  225.0675 H   0  0  0  0  0  0  0  0  0  0  0  0
  141.9636   72.7914  226.8397 H   0  0  0  0  0  0  0  0  0  0  0  0
  140.2344   72.6506  226.5069 H   0  0  0  0  0  0  0  0  0  0  0  0
  141.8698   71.4235  228.7780 H   0  0  0  0  0  0  0  0  0  0  0  0
  140.3210   72.2043  228.9097 H   0  0  0  0  0  0  0  0  0  0  0  0
  140.3092   69.5218  228.8229 H   0  0  0  0  0  0  0  0  0  0  0  0
  139.1774   70.2757  227.7184 H   0  0  0  0  0  0  0  0  0  0  0  0
  1  2  1  0
  2  3  1  0
  3  4  1  0
  4  5  1  0
  5  6  1  0
  6  7  2  0
  6  8  1  0
  8  9  1  0
  9 10  1  0
 10 11  2  0
 10 12  1  0
 12 13  2  0
 13 14  1  0
 14 15  2  0
 15 16  1  0
 16 17  2  0
 17 18  1  0
 17 19  1  0
 19 20  2  0
 20 21  1  0
 21 22  2  0
  2 23  1  0
 23 24  1  0
 24 25  1  0
 25 26  1  0
 26 27  1  0
 22 12  1  0
 27 23  1  0
 21 15  1  0
  1 28  1  0
  1 29  1  0
  1 30  1  0
  3 31  1  0
  3 32  1  0
  4 33  1  0
  4 34  1  0
  5 35  1  0
  8 36  1  0
  8 37  1  0
  9 38  1  0
 13 39  1  0
 14 40  1  0
 16 41  1  0
 19 42  1  0
 20 43  1  0
 23 44  1  0
 24 45  1  0
 24 46  1  0
 25 47  1  0
 25 48  1  0
 26 49  1  0
 26 50  1  0
 27 51  1  0
 27 52  1  0
M  END
>  <smiles>  (33) 
CN(CCNC(=O)CNC(=O)c1ccc2cc(Cl)ccc2n1)C1CCCC1

>  <score_type>  (33) 
oracle

>  <origin>  (33) 
autodockgpu

>  <m_score__min__energy>  (33) 
-8.4299999999999997

>  <m_primary>  (33) 
energy

>  <rmsd>  (33) 
9.090549226814405

>  <m_score__min__rmsd>  (33) 
9.090549226814405

>  <meeko>  (33) 
{"free_energy": -7.06, "intermolecular_energy": -9.15, "internal_energy": -2.26, "cluster_size": 14, "cluster_id": 3, "rank_in_cluster": 9}

>  <energy>  (33) 
-7.01

>  <cluster_rmsd>  (33) 
1.91

>  <cluster>  (33) 
3

$$$$

     RDKit          3D

 52 54  0  0  0  0  0  0  0  0999 V2000
  141.7870   79.6980  219.3290 C   0  0  0  0  0  0  0  0  0  0  0  0
  141.4210   78.6470  220.3380 N   0  0  0  0  0  0  0  0  0  0  0  0
  142.1800   77.4900  219.9790 C   0  0  0  0  0  0  0  0  0  0  0  0
  141.5130   76.1650  220.2100 C   0  0  0  0  0  0  0  0  0  0  0  0
  140.1820   76.4290  220.7720 N   0  0  0  0  0  0  0  0  0  0  0  0
  139.5550   75.6250  221.7260 C   0  0  0  0  0  0  0  0  0  0  0  0
  140.1550   74.5770  222.1660 O   0  0  0  0  0  0  0  0  0  0  0  0
  138.2140   75.8520  222.3150 C   0  0  0  0  0  0  0  0  0  0  0  0
  137.9380   77.1810  222.7390 N   0  0  0  0  0  0  0  0  0  0  0  0
  137.9410   78.3350  221.9140 C   0  0  0  0  0  0  0  0  0  0  0  0
  138.2110   78.2440  220.6830 O   0  0  0  0  0  0  0  0  0  0  0  0
  137.6290   79.6380  222.5080 C   0  0  0  0  0  0  0  0  0  0  0  0
  137.5090   80.7930  221.7700 C   0  0  0  0  0  0  0  0  0  0  0  0
  137.2190   82.0120  222.3130 C   0  0  0  0  0  0  0  0  0  0  0  0
  137.0360   82.0830  223.6860 C   0  0  0  0  0  0  0  0  0  0  0  0
  136.7400   83.2680  224.3260 C   0  0  0  0  0  0  0  0  0  0  0  0
  136.5720   83.2560  225.7010 C   0  0  0  0  0  0  0  0  0  0  0  0
  136.2000   84.7670  226.4860 Cl  0  0  0  0  0  0  0  0  0  0  0  0
  136.6830   82.1320  226.4660 C   0  0  0  0  0  0  0  0  0  0  0  0
  136.9790   80.9490  225.8120 C   0  0  0  0  0  0  0  0  0  0  0  0
  137.1540   80.9330  224.4260 C   0  0  0  0  0  0  0  0  0  0  0  0
  137.4450   79.7450  223.8380 N   0  0  0  0  0  0  0  0  0  0  0  0
  141.7960   79.2890  221.5810 C   0  0  0  0  0  0  0  0  0  0  0  0
  141.1930   80.6810  221.6370 C   0  0  0  0  0  0  0  0  0  0  0  0
  140.7980   80.9140  223.0720 C   0  0  0  0  0  0  0  0  0  0  0  0
  141.4630   79.8110  223.8530 C   0  0  0  0  0  0  0  0  0  0  0  0
  141.4090   78.6510  222.8380 C   0  0  0  0  0  0  0  0  0  0  0  0
  142.1054   80.6124  219.8510 H   0  0  0  0  0  0  0  0  0  0  0  0
  142.6100   79.3302  218.6986 H   0  0  0  0  0  0  0  0  0  0  0  0
  140.9136   79.9210  218.6986 H   0  0  0  0  0  0  0  0  0  0  0  0
  142.4189   77.5638  218.9078 H   0  0  0  0  0  0  0  0  0  0  0  0
  143.0598   77.4971  220.6392 H   0  0  0  0  0  0  0  0  0  0  0  0
  141.4171   75.6224  219.2579 H   0  0  0  0  0  0  0  0  0  0  0  0
  142.1079   75.5484  220.8999 H   0  0  0  0  0  0  0  0  0  0  0  0
  139.6650   77.2760  220.4240 H   0  0  0  0  0  0  0  0  0  0  0  0
  137.4633   75.5766  221.5597 H   0  0  0  0  0  0  0  0  0  0  0  0
  138.1813   75.2364  223.2260 H   0  0  0  0  0  0  0  0  0  0  0  0
  137.7080   77.3370  223.7500 H   0  0  0  0  0  0  0  0  0  0  0  0
  137.6549   80.7310  220.6815 H   0  0  0  0  0  0  0  0  0  0  0  0
  137.1333   82.9088  221.6818 H   0  0  0  0  0  0  0  0  0  0  0  0
  136.6394   84.2036  223.7564 H   0  0  0  0  0  0  0  0  0  0  0  0
  136.5431   82.1647  227.5566 H   0  0  0  0  0  0  0  0  0  0  0  0
  137.0771   80.0161  226.3865 H   0  0  0  0  0  0  0  0  0  0  0  0
  142.8941   79.2445  221.5350 H   0  0  0  0  0  0  0  0  0  0  0  0
  141.9336   81.4298  221.3195 H   0  0  0  0  0  0  0  0  0  0  0  0
  140.3266   80.7684  220.9649 H   0  0  0  0  0  0  0  0  0  0  0  0
  141.1538   81.8969  223.4146 H   0  0  0  0  0  0  0  0  0  0  0  0
  139.7058   80.9070  223.2024 H   0  0  0  0  0  0  0  0  0  0  0  0
  142.4996   80.0703  224.1141 H   0  0  0  0  0  0  0  0  0  0  0  0
  140.9843   79.5891  224.8182 H   0  0  0  0  0  0  0  0  0  0  0  0
  142.1174   77.8549  223.1108 H   0  0  0  0  0  0  0  0  0  0  0  0
  140.4231   78.1654  222.7898 H   0  0  0  0  0  0  0  0  0  0  0  0
  1  2  1  0
  2  3  1  0
  3  4  1  0
  4  5  1  0
  5  6  1  0
  6  7  2  0
  6  8  1  0
  8  9  1  0
  9 10  1  0
 10 11  2  0
 10 12  1  0
 12 13  2  0
 13 14  1  0
 14 15  2  0
 15 16  1  0
 16 17  2  0
 17 18  1  0
 17 19  1  0
 19 20  2  0
 20 21  1  0
 21 22  2  0
  2 23  1  0
 23 24  1  0
 24 25  1  0
 25 26  1  0
 26 27  1  0
 22 12  1  0
 27 23  1  0
 21 15  1  0
  1 28  1  0
  1 29  1  0
  1 30  1  0
  3 31  1  0
  3 32  1  0
  4 33  1  0
  4 34  1  0
  5 35  1  0
  8 36  1  0
  8 37  1  0
  9 38  1  0
 13 39  1  0
 14 40  1  0
 16 41  1  0
 19 42  1  0
 20 43  1  0
 23 44  1  0
 24 45  1  0
 24 46  1  0
 25 47  1  0
 25 48  1  0
 26 49  1  0
 26 50  1  0
 27 51  1  0
 27 52  1  0
M  END
>  <smiles>  (34) 
CN(CCNC(=O)CNC(=O)c1ccc2cc(Cl)ccc2n1)C1CCCC1

>  <score_type>  (34) 
oracle

>  <origin>  (34) 
autodockgpu

>  <m_score__min__energy>  (34) 
-8.4299999999999997

>  <m_primary>  (34) 
energy

>  <rmsd>  (34) 
8.455732486283196

>  <m_score__min__rmsd>  (34) 
8.455732486283196

>  <meeko>  (34) 
{"free_energy": -5.18, "intermolecular_energy": -7.26, "internal_energy": -4.14, "cluster_size": 8, "cluster_id": 7, "rank_in_cluster": 8}

>  <energy>  (34) 
-6.97

>  <cluster_rmsd>  (34) 
1.37

>  <cluster>  (34) 
3

$$$$

     RDKit          3D

 52 54  0  0  0  0  0  0  0  0999 V2000
  140.2980   67.6350  226.4470 C   0  0  0  0  0  0  0  0  0  0  0  0
  140.1030   68.9790  225.8030 N   0  0  0  0  0  0  0  0  0  0  0  0
  138.6920   69.2060  225.8100 C   0  0  0  0  0  0  0  0  0  0  0  0
  138.0860   69.6340  224.5040 C   0  0  0  0  0  0  0  0  0  0  0  0
  139.1860   69.9990  223.6010 N   0  0  0  0  0  0  0  0  0  0  0  0
  139.2860   71.2200  222.9320 C   0  0  0  0  0  0  0  0  0  0  0  0
  138.3720   72.1090  223.0960 O   0  0  0  0  0  0  0  0  0  0  0  0
  140.3740   71.6250  222.0110 C   0  0  0  0  0  0  0  0  0  0  0  0
  140.5940   73.0250  221.8870 N   0  0  0  0  0  0  0  0  0  0  0  0
  141.5270   73.6470  221.0180 C   0  0  0  0  0  0  0  0  0  0  0  0
  142.2650   72.9500  220.2650 O   0  0  0  0  0  0  0  0  0  0  0  0
  141.6270   75.1080  221.0050 C   0  0  0  0  0  0  0  0  0  0  0  0
  142.3150   75.8080  220.0410 C   0  0  0  0  0  0  0  0  0  0  0  0
  142.4150   77.1700  220.0210 C   0  0  0  0  0  0  0  0  0  0  0  0
  141.7850   77.8810  221.0310 C   0  0  0  0  0  0  0  0  0  0  0  0
  141.8300   79.2580  221.0950 C   0  0  0  0  0  0  0  0  0  0  0  0
  141.1750   79.8950  222.1370 C   0  0  0  0  0  0  0  0  0  0  0  0
  141.2460   81.6360  222.1970 Cl  0  0  0  0  0  0  0  0  0  0  0  0
  140.4830   79.2370  223.1100 C   0  0  0  0  0  0  0  0  0  0  0  0
  140.4450   77.8550  223.0350 C   0  0  0  0  0  0  0  0  0  0  0  0
  141.0980   77.1870  221.9950 C   0  0  0  0  0  0  0  0  0  0  0  0
  141.0280   75.8320  221.9710 N   0  0  0  0  0  0  0  0  0  0  0  0
  140.8850   69.8370  226.6700 C   0  0  0  0  0  0  0  0  0  0  0  0
  141.2160   71.1290  225.9440 C   0  0  0  0  0  0  0  0  0  0  0  0
  141.1530   72.2230  226.9770 C   0  0  0  0  0  0  0  0  0  0  0  0
  141.1120   71.5150  228.3060 C   0  0  0  0  0  0  0  0  0  0  0  0
  140.3070   70.2500  227.9470 C   0  0  0  0  0  0  0  0  0  0  0  0
  140.2818   67.7469  227.5412 H   0  0  0  0  0  0  0  0  0  0  0  0
  139.4886   66.9583  226.1356 H   0  0  0  0  0  0  0  0  0  0  0  0
  141.2663   67.2162  226.1356 H   0  0  0  0  0  0  0  0  0  0  0  0
  138.2024   68.2701  226.1172 H   0  0  0  0  0  0  0  0  0  0  0  0
  138.5310   70.0469  226.5006 H   0  0  0  0  0  0  0  0  0  0  0  0
  137.5047   68.8064  224.0713 H   0  0  0  0  0  0  0  0  0  0  0  0
  137.4101   70.4888  224.6540 H   0  0  0  0  0  0  0  0  0  0  0  0
  139.9440   69.2860  223.4430 H   0  0  0  0  0  0  0  0  0  0  0  0
  141.3076   71.1676  222.3704 H   0  0  0  0  0  0  0  0  0  0  0  0
  140.0620   71.2831  221.0131 H   0  0  0  0  0  0  0  0  0  0  0  0
  140.0190   73.6680  222.4830 H   0  0  0  0  0  0  0  0  0  0  0  0
  142.8123   75.2390  219.2417 H   0  0  0  0  0  0  0  0  0  0  0  0
  142.9773   77.6863  219.2290 H   0  0  0  0  0  0  0  0  0  0  0  0
  142.3741   79.8382  220.3352 H   0  0  0  0  0  0  0  0  0  0  0  0
  139.9762   79.7812  223.9206 H   0  0  0  0  0  0  0  0  0  0  0  0
  139.8986   77.2801  223.7972 H   0  0  0  0  0  0  0  0  0  0  0  0
  141.7415   69.1906  226.9119 H   0  0  0  0  0  0  0  0  0  0  0  0
  142.2248   71.0737  225.5090 H   0  0  0  0  0  0  0  0  0  0  0  0
  140.5115   71.3162  225.1202 H   0  0  0  0  0  0  0  0  0  0  0  0
  142.0426   72.8667  226.9109 H   0  0  0  0  0  0  0  0  0  0  0  0
  140.2775   72.8730  226.8322 H   0  0  0  0  0  0  0  0  0  0  0  0
  142.1226   71.2628  228.6597 H   0  0  0  0  0  0  0  0  0  0  0  0
  140.6764   72.1109  229.1216 H   0  0  0  0  0  0  0  0  0  0  0  0
  140.4385   69.4690  228.7104 H   0  0  0  0  0  0  0  0  0  0  0  0
  139.2232   70.4299  227.8917 H   0  0  0  0  0  0  0  0  0  0  0  0
  1  2  1  0
  2  3  1  0
  3  4  1  0
  4  5  1  0
  5  6  1  0
  6  7  2  0
  6  8  1  0
  8  9  1  0
  9 10  1  0
 10 11  2  0
 10 12  1  0
 12 13  2  0
 13 14  1  0
 14 15  2  0
 15 16  1  0
 16 17  2  0
 17 18  1  0
 17 19  1  0
 19 20  2  0
 20 21  1  0
 21 22  2  0
  2 23  1  0
 23 24  1  0
 24 25  1  0
 25 26  1  0
 26 27  1  0
 22 12  1  0
 27 23  1  0
 21 15  1  0
  1 28  1  0
  1 29  1  0
  1 30  1  0
  3 31  1  0
  3 32  1  0
  4 33  1  0
  4 34  1  0
  5 35  1  0
  8 36  1  0
  8 37  1  0
  9 38  1  0
 13 39  1  0
 14 40  1  0
 16 41  1  0
 19 42  1  0
 20 43  1  0
 23 44  1  0
 24 45  1  0
 24 46  1  0
 25 47  1  0
 25 48  1  0
 26 49  1  0
 26 50  1  0
 27 51  1  0
 27 52  1  0
M  END
>  <smiles>  (35) 
CN(CCNC(=O)CNC(=O)c1ccc2cc(Cl)ccc2n1)C1CCCC1

>  <score_type>  (35) 
oracle

>  <origin>  (35) 
autodockgpu

>  <m_score__min__energy>  (35) 
-8.4299999999999997

>  <m_primary>  (35) 
energy

>  <rmsd>  (35) 
9.051993844945533

>  <m_score__min__rmsd>  (35) 
9.051993844945533

>  <meeko>  (35) 
{"free_energy": -7.45, "intermolecular_energy": -9.54, "internal_energy": -2.5, "cluster_size": 14, "cluster_id": 3, "rank_in_cluster": 3}

>  <energy>  (35) 
-6.94

>  <cluster_rmsd>  (35) 
1.43

>  <cluster>  (35) 
3

$$$$

     RDKit          3D

 52 54  0  0  0  0  0  0  0  0999 V2000
  138.7870   80.6670  224.2440 C   0  0  0  0  0  0  0  0  0  0  0  0
  138.9350   79.3910  223.4650 N   0  0  0  0  0  0  0  0  0  0  0  0
  137.7990   79.3370  222.6000 C   0  0  0  0  0  0  0  0  0  0  0  0
  137.2170   77.9730  222.3590 C   0  0  0  0  0  0  0  0  0  0  0  0
  138.3340   77.0450  222.1400 N   0  0  0  0  0  0  0  0  0  0  0  0
  138.2350   75.8410  221.4400 C   0  0  0  0  0  0  0  0  0  0  0  0
  137.1050   75.4920  220.9370 O   0  0  0  0  0  0  0  0  0  0  0  0
  139.3340   74.8760  221.2010 C   0  0  0  0  0  0  0  0  0  0  0  0
  139.4670   73.8350  222.1610 N   0  0  0  0  0  0  0  0  0  0  0  0
  139.4320   72.4440  221.8890 C   0  0  0  0  0  0  0  0  0  0  0  0
  139.2640   72.0240  220.7090 O   0  0  0  0  0  0  0  0  0  0  0  0
  139.5910   71.4950  222.9950 C   0  0  0  0  0  0  0  0  0  0  0  0
  139.2140   70.1750  222.9150 C   0  0  0  0  0  0  0  0  0  0  0  0
  139.3570   69.2840  223.9400 C   0  0  0  0  0  0  0  0  0  0  0  0
  139.9150   69.7420  225.1240 C   0  0  0  0  0  0  0  0  0  0  0  0
  140.1000   68.9170  226.2140 C   0  0  0  0  0  0  0  0  0  0  0  0
  140.6650   69.4510  227.3610 C   0  0  0  0  0  0  0  0  0  0  0  0
  140.8870   68.3890  228.7260 Cl  0  0  0  0  0  0  0  0  0  0  0  0
  141.0510   70.7530  227.4780 C   0  0  0  0  0  0  0  0  0  0  0  0
  140.8610   71.5700  226.3780 C   0  0  0  0  0  0  0  0  0  0  0  0
  140.2930   71.0580  225.2080 C   0  0  0  0  0  0  0  0  0  0  0  0
  140.1290   71.9050  224.1600 N   0  0  0  0  0  0  0  0  0  0  0  0
  140.2150   79.5900  222.8150 C   0  0  0  0  0  0  0  0  0  0  0  0
  140.7460   80.9720  223.1480 C   0  0  0  0  0  0  0  0  0  0  0  0
  142.2380   80.8290  223.2950 C   0  0  0  0  0  0  0  0  0  0  0  0
  142.5650   79.4690  222.7350 C   0  0  0  0  0  0  0  0  0  0  0  0
  141.3070   78.6710  223.1310 C   0  0  0  0  0  0  0  0  0  0  0  0
  138.8128   80.4442  225.3209 H   0  0  0  0  0  0  0  0  0  0  0  0
  139.6121   81.3490  223.9908 H   0  0  0  0  0  0  0  0  0  0  0  0
  137.8277   81.1421  223.9908 H   0  0  0  0  0  0  0  0  0  0  0  0
  137.0110   79.9658  223.0402 H   0  0  0  0  0  0  0  0  0  0  0  0
  138.1572   79.6833  221.6193 H   0  0  0  0  0  0  0  0  0  0  0  0
  136.6316   77.6551  223.2344 H   0  0  0  0  0  0  0  0  0  0  0  0
  136.5498   77.9871  221.4845 H   0  0  0  0  0  0  0  0  0  0  0  0
  139.2690   77.3030  222.5480 H   0  0  0  0  0  0  0  0  0  0  0  0
  139.1651   74.4094  220.2193 H   0  0  0  0  0  0  0  0  0  0  0  0
  140.2631   75.4612  221.2662 H   0  0  0  0  0  0  0  0  0  0  0  0
  139.6070   74.1060  223.1640 H   0  0  0  0  0  0  0  0  0  0  0  0
  138.7728   69.8169  221.9731 H   0  0  0  0  0  0  0  0  0  0  0  0
  139.0397   68.2365  223.8300 H   0  0  0  0  0  0  0  0  0  0  0  0
  139.8053   67.8580  226.1735 H   0  0  0  0  0  0  0  0  0  0  0  0
  141.4949   71.1379  228.4080 H   0  0  0  0  0  0  0  0  0  0  0  0
  141.1584   72.6280  226.4243 H   0  0  0  0  0  0  0  0  0  0  0  0
  139.9597   79.4171  221.7591 H   0  0  0  0  0  0  0  0  0  0  0  0
  140.5092   81.6763  222.3369 H   0  0  0  0  0  0  0  0  0  0  0  0
  140.2898   81.3637  224.0691 H   0  0  0  0  0  0  0  0  0  0  0  0
  142.7580   81.6146  222.7271 H   0  0  0  0  0  0  0  0  0  0  0  0
  142.5579   80.9285  224.3427 H   0  0  0  0  0  0  0  0  0  0  0  0
  142.6935   79.5031  221.6431 H   0  0  0  0  0  0  0  0  0  0  0  0
  143.5069   79.0415  223.1093 H   0  0  0  0  0  0  0  0  0  0  0  0
  141.2259   77.7450  222.5428 H   0  0  0  0  0  0  0  0  0  0  0  0
  141.3118   78.3528  224.1840 H   0  0  0  0  0  0  0  0  0  0  0  0
  1  2  1  0
  2  3  1  0
  3  4  1  0
  4  5  1  0
  5  6  1  0
  6  7  2  0
  6  8  1  0
  8  9  1  0
  9 10  1  0
 10 11  2  0
 10 12  1  0
 12 13  2  0
 13 14  1  0
 14 15  2  0
 15 16  1  0
 16 17  2  0
 17 18  1  0
 17 19  1  0
 19 20  2  0
 20 21  1  0
 21 22  2  0
  2 23  1  0
 23 24  1  0
 24 25  1  0
 25 26  1  0
 26 27  1  0
 22 12  1  0
 27 23  1  0
 21 15  1  0
  1 28  1  0
  1 29  1  0
  1 30  1  0
  3 31  1  0
  3 32  1  0
  4 33  1  0
  4 34  1  0
  5 35  1  0
  8 36  1  0
  8 37  1  0
  9 38  1  0
 13 39  1  0
 14 40  1  0
 16 41  1  0
 19 42  1  0
 20 43  1  0
 23 44  1  0
 24 45  1  0
 24 46  1  0
 25 47  1  0
 25 48  1  0
 26 49  1  0
 26 50  1  0
 27 51  1  0
 27 52  1  0
M  END
>  <smiles>  (36) 
CN(CCNC(=O)CNC(=O)c1ccc2cc(Cl)ccc2n1)C1CCCC1

>  <score_type>  (36) 
oracle

>  <origin>  (36) 
autodockgpu

>  <m_score__min__energy>  (36) 
-8.4299999999999997

>  <m_primary>  (36) 
energy

>  <rmsd>  (36) 
5.4966227475956675

>  <m_score__min__rmsd>  (36) 
5.4966227475956675

>  <meeko>  (36) 
{"free_energy": -7.55, "intermolecular_energy": -9.63, "internal_energy": -1.89, "cluster_size": 21, "cluster_id": 1, "rank_in_cluster": 15}

>  <energy>  (36) 
-6.92

>  <cluster_rmsd>  (36) 
1.81

>  <cluster>  (36) 
3

$$$$

     RDKit          3D

 52 54  0  0  0  0  0  0  0  0999 V2000
  141.7880   78.1820  221.0390 C   0  0  0  0  0  0  0  0  0  0  0  0
  141.0090   79.4580  220.8920 N   0  0  0  0  0  0  0  0  0  0  0  0
  139.6950   79.0600  220.4920 C   0  0  0  0  0  0  0  0  0  0  0  0
  138.8750   78.3520  221.5320 C   0  0  0  0  0  0  0  0  0  0  0  0
  138.6380   76.9820  221.0550 N   0  0  0  0  0  0  0  0  0  0  0  0
  139.1400   75.8340  221.6720 C   0  0  0  0  0  0  0  0  0  0  0  0
  139.8580   75.9460  222.7320 O   0  0  0  0  0  0  0  0  0  0  0  0
  138.9290   74.4380  221.2220 C   0  0  0  0  0  0  0  0  0  0  0  0
  139.1520   73.4300  222.2000 N   0  0  0  0  0  0  0  0  0  0  0  0
  138.9110   72.0420  222.0330 C   0  0  0  0  0  0  0  0  0  0  0  0
  138.4530   71.5960  220.9430 O   0  0  0  0  0  0  0  0  0  0  0  0
  139.2000   71.1280  223.1420 C   0  0  0  0  0  0  0  0  0  0  0  0
  138.8870   69.7890  223.1160 C   0  0  0  0  0  0  0  0  0  0  0  0
  139.1510   68.9300  224.1430 C   0  0  0  0  0  0  0  0  0  0  0  0
  139.7700   69.4420  225.2740 C   0  0  0  0  0  0  0  0  0  0  0  0
  140.0770   68.6530  226.3630 C   0  0  0  0  0  0  0  0  0  0  0  0
  140.6940   69.2410  227.4550 C   0  0  0  0  0  0  0  0  0  0  0  0
  141.0710   68.2230  228.8190 Cl  0  0  0  0  0  0  0  0  0  0  0  0
  141.0190   70.5640  227.5180 C   0  0  0  0  0  0  0  0  0  0  0  0
  140.7070   71.3450  226.4200 C   0  0  0  0  0  0  0  0  0  0  0  0
  140.0830   70.7780  225.3050 C   0  0  0  0  0  0  0  0  0  0  0  0
  139.7990   71.5910  224.2560 N   0  0  0  0  0  0  0  0  0  0  0  0
  141.1200   80.0260  222.2200 C   0  0  0  0  0  0  0  0  0  0  0  0
  142.2010   79.2950  222.9970 C   0  0  0  0  0  0  0  0  0  0  0  0
  142.8940   80.3350  223.8380 C   0  0  0  0  0  0  0  0  0  0  0  0
  142.0080   81.5520  223.7780 C   0  0  0  0  0  0  0  0  0  0  0  0
  141.4480   81.4450  222.3450 C   0  0  0  0  0  0  0  0  0  0  0  0
  141.9253   77.9572  222.1070 H   0  0  0  0  0  0  0  0  0  0  0  0
  141.2380   77.3592  220.5588 H   0  0  0  0  0  0  0  0  0  0  0  0
  142.7712   78.2952  220.5588 H   0  0  0  0  0  0  0  0  0  0  0  0
  139.1469   79.9647  220.1901 H   0  0  0  0  0  0  0  0  0  0  0  0
  139.8406   78.3298  219.6823 H   0  0  0  0  0  0  0  0  0  0  0  0
  139.4205   78.3275  222.4869 H   0  0  0  0  0  0  0  0  0  0  0  0
  137.9209   78.8751  221.6934 H   0  0  0  0  0  0  0  0  0  0  0  0
  138.0600   76.8620  220.1850 H   0  0  0  0  0  0  0  0  0  0  0  0
  137.8883   74.3487  220.8771 H   0  0  0  0  0  0  0  0  0  0  0  0
  139.6786   74.2618  220.4365 H   0  0  0  0  0  0  0  0  0  0  0  0
  139.5290   73.7240  223.1320 H   0  0  0  0  0  0  0  0  0  0  0  0
  138.3963   69.3880  222.2169 H   0  0  0  0  0  0  0  0  0  0  0  0
  138.8816   67.8656  224.0762 H   0  0  0  0  0  0  0  0  0  0  0  0
  139.8369   67.5795  226.3643 H   0  0  0  0  0  0  0  0  0  0  0  0
  141.5088   70.9921  228.4050 H   0  0  0  0  0  0  0  0  0  0  0  0
  140.9511   72.4176  226.4241 H   0  0  0  0  0  0  0  0  0  0  0  0
  140.0947   79.9099  222.6013 H   0  0  0  0  0  0  0  0  0  0  0  0
  141.7523   78.5229  223.6393 H   0  0  0  0  0  0  0  0  0  0  0  0
  142.9079   78.7915  222.3212 H   0  0  0  0  0  0  0  0  0  0  0  0
  142.9973   79.9847  224.8756 H   0  0  0  0  0  0  0  0  0  0  0  0
  143.9087   80.5487  223.4710 H   0  0  0  0  0  0  0  0  0  0  0  0
  141.2056   81.5038  224.5289 H   0  0  0  0  0  0  0  0  0  0  0  0
  142.5265   82.4986  223.9904 H   0  0  0  0  0  0  0  0  0  0  0  0
  140.5505   82.0695  222.2245 H   0  0  0  0  0  0  0  0  0  0  0  0
  142.1554   81.7935  221.5781 H   0  0  0  0  0  0  0  0  0  0  0  0
  1  2  1  0
  2  3  1  0
  3  4  1  0
  4  5  1  0
  5  6  1  0
  6  7  2  0
  6  8  1  0
  8  9  1  0
  9 10  1  0
 10 11  2  0
 10 12  1  0
 12 13  2  0
 13 14  1  0
 14 15  2  0
 15 16  1  0
 16 17  2  0
 17 18  1  0
 17 19  1  0
 19 20  2  0
 20 21  1  0
 21 22  2  0
  2 23  1  0
 23 24  1  0
 24 25  1  0
 25 26  1  0
 26 27  1  0
 22 12  1  0
 27 23  1  0
 21 15  1  0
  1 28  1  0
  1 29  1  0
  1 30  1  0
  3 31  1  0
  3 32  1  0
  4 33  1  0
  4 34  1  0
  5 35  1  0
  8 36  1  0
  8 37  1  0
  9 38  1  0
 13 39  1  0
 14 40  1  0
 16 41  1  0
 19 42  1  0
 20 43  1  0
 23 44  1  0
 24 45  1  0
 24 46  1  0
 25 47  1  0
 25 48  1  0
 26 49  1  0
 26 50  1  0
 27 51  1  0
 27 52  1  0
M  END
>  <smiles>  (37) 
CN(CCNC(=O)CNC(=O)c1ccc2cc(Cl)ccc2n1)C1CCCC1

>  <score_type>  (37) 
oracle

>  <origin>  (37) 
autodockgpu

>  <m_score__min__energy>  (37) 
-8.4299999999999997

>  <m_primary>  (37) 
energy

>  <rmsd>  (37) 
5.2973708867976015

>  <m_score__min__rmsd>  (37) 
5.2973708867976015

>  <meeko>  (37) 
{"free_energy": -7.61, "intermolecular_energy": -9.7, "internal_energy": -1.99, "cluster_size": 21, "cluster_id": 1, "rank_in_cluster": 13}

>  <energy>  (37) 
-6.95

>  <cluster_rmsd>  (37) 
0.0

>  <cluster>  (37) 
4

$$$$

     RDKit          3D

 52 54  0  0  0  0  0  0  0  0999 V2000
  141.8090   79.7120  219.3190 C   0  0  0  0  0  0  0  0  0  0  0  0
  141.4350   78.6790  220.3420 N   0  0  0  0  0  0  0  0  0  0  0  0
  142.1730   77.5060  219.9900 C   0  0  0  0  0  0  0  0  0  0  0  0
  141.5500   76.1940  220.3720 C   0  0  0  0  0  0  0  0  0  0  0  0
  140.2030   76.4740  220.8870 N   0  0  0  0  0  0  0  0  0  0  0  0
  139.5080   75.6470  221.7710 C   0  0  0  0  0  0  0  0  0  0  0  0
  140.0550   74.5600  222.1850 O   0  0  0  0  0  0  0  0  0  0  0  0
  138.1490   75.8900  222.3090 C   0  0  0  0  0  0  0  0  0  0  0  0
  137.8810   77.2160  222.7460 N   0  0  0  0  0  0  0  0  0  0  0  0
  137.9380   78.3840  221.9430 C   0  0  0  0  0  0  0  0  0  0  0  0
  138.2550   78.3080  220.7220 O   0  0  0  0  0  0  0  0  0  0  0  0
  137.6260   79.6820  222.5460 C   0  0  0  0  0  0  0  0  0  0  0  0
  137.5210   80.8460  221.8190 C   0  0  0  0  0  0  0  0  0  0  0  0
  137.2310   82.0600  222.3720 C   0  0  0  0  0  0  0  0  0  0  0  0
  137.0330   82.1170  223.7430 C   0  0  0  0  0  0  0  0  0  0  0  0
  136.7360   83.2980  224.3920 C   0  0  0  0  0  0  0  0  0  0  0  0
  136.5520   83.2720  225.7650 C   0  0  0  0  0  0  0  0  0  0  0  0
  136.1790   84.7760  226.5620 Cl  0  0  0  0  0  0  0  0  0  0  0  0
  136.6480   82.1390  226.5190 C   0  0  0  0  0  0  0  0  0  0  0  0
  136.9460   80.9620  225.8570 C   0  0  0  0  0  0  0  0  0  0  0  0
  137.1360   80.9590  224.4720 C   0  0  0  0  0  0  0  0  0  0  0  0
  137.4270   79.7760  223.8750 N   0  0  0  0  0  0  0  0  0  0  0  0
  141.8310   79.3280  221.5750 C   0  0  0  0  0  0  0  0  0  0  0  0
  141.2770   80.7410  221.6070 C   0  0  0  0  0  0  0  0  0  0  0  0
  140.8890   81.0120  223.0370 C   0  0  0  0  0  0  0  0  0  0  0  0
  141.5140   79.8990  223.8380 C   0  0  0  0  0  0  0  0  0  0  0  0
  141.4210   78.7250  222.8430 C   0  0  0  0  0  0  0  0  0  0  0  0
  142.1410   80.6288  219.8281 H   0  0  0  0  0  0  0  0  0  0  0  0
  142.6246   79.3263  218.6896 H   0  0  0  0  0  0  0  0  0  0  0  0
  140.9356   79.9378  218.6896 H   0  0  0  0  0  0  0  0  0  0  0  0
  142.3079   77.5088  218.8983 H   0  0  0  0  0  0  0  0  0  0  0  0
  143.1113   77.5649  220.5610 H   0  0  0  0  0  0  0  0  0  0  0  0
  141.4858   75.5388  219.4908 H   0  0  0  0  0  0  0  0  0  0  0  0
  142.1573   75.6863  221.1358 H   0  0  0  0  0  0  0  0  0  0  0  0
  139.7290   77.3540  220.5580 H   0  0  0  0  0  0  0  0  0  0  0  0
  137.4248   75.6429  221.5188 H   0  0  0  0  0  0  0  0  0  0  0  0
  138.0675   75.2592  223.2065 H   0  0  0  0  0  0  0  0  0  0  0  0
  137.6130   77.3590  223.7490 H   0  0  0  0  0  0  0  0  0  0  0  0
  137.6796   80.7952  220.7317 H   0  0  0  0  0  0  0  0  0  0  0  0
  137.1568   82.9640  221.7497 H   0  0  0  0  0  0  0  0  0  0  0  0
  136.6472   84.2401  223.8312 H   0  0  0  0  0  0  0  0  0  0  0  0
  136.4947   82.1608  227.6081 H   0  0  0  0  0  0  0  0  0  0  0  0
  137.0340   80.0231  226.4233 H   0  0  0  0  0  0  0  0  0  0  0  0
  142.9269   79.2439  221.5311 H   0  0  0  0  0  0  0  0  0  0  0  0
  142.0437   81.4580  221.2782 H   0  0  0  0  0  0  0  0  0  0  0  0
  140.4147   80.8472  220.9323 H   0  0  0  0  0  0  0  0  0  0  0  0
  141.2790   81.9873  223.3635 H   0  0  0  0  0  0  0  0  0  0  0  0
  139.7971   81.0458  223.1656 H   0  0  0  0  0  0  0  0  0  0  0  0
  142.5587   80.1262  224.0969 H   0  0  0  0  0  0  0  0  0  0  0  0
  141.0262   79.7103  224.8057 H   0  0  0  0  0  0  0  0  0  0  0  0
  142.1013   77.9097  223.1302 H   0  0  0  0  0  0  0  0  0  0  0  0
  140.4190   78.2731  222.8016 H   0  0  0  0  0  0  0  0  0  0  0  0
  1  2  1  0
  2  3  1  0
  3  4  1  0
  4  5  1  0
  5  6  1  0
  6  7  2  0
  6  8  1  0
  8  9  1  0
  9 10  1  0
 10 11  2  0
 10 12  1  0
 12 13  2  0
 13 14  1  0
 14 15  2  0
 15 16  1  0
 16 17  2  0
 17 18  1  0
 17 19  1  0
 19 20  2  0
 20 21  1  0
 21 22  2  0
  2 23  1  0
 23 24  1  0
 24 25  1  0
 25 26  1  0
 26 27  1  0
 22 12  1  0
 27 23  1  0
 21 15  1  0
  1 28  1  0
  1 29  1  0
  1 30  1  0
  3 31  1  0
  3 32  1  0
  4 33  1  0
  4 34  1  0
  5 35  1  0
  8 36  1  0
  8 37  1  0
  9 38  1  0
 13 39  1  0
 14 40  1  0
 16 41  1  0
 19 42  1  0
 20 43  1  0
 23 44  1  0
 24 45  1  0
 24 46  1  0
 25 47  1  0
 25 48  1  0
 26 49  1  0
 26 50  1  0
 27 51  1  0
 27 52  1  0
M  END
>  <smiles>  (38) 
CN(CCNC(=O)CNC(=O)c1ccc2cc(Cl)ccc2n1)C1CCCC1

>  <score_type>  (38) 
oracle

>  <origin>  (38) 
autodockgpu

>  <m_score__min__energy>  (38) 
-8.4299999999999997

>  <m_primary>  (38) 
energy

>  <rmsd>  (38) 
8.476425700410816

>  <m_score__min__rmsd>  (38) 
8.476425700410816

>  <meeko>  (38) 
{"free_energy": -5.24, "intermolecular_energy": -7.33, "internal_energy": -4.13, "cluster_size": 8, "cluster_id": 7, "rank_in_cluster": 6}

>  <energy>  (38) 
-6.91

>  <cluster_rmsd>  (38) 
0.0

>  <cluster>  (38) 
5

$$$$

     RDKit          3D

 52 54  0  0  0  0  0  0  0  0999 V2000
  139.6010   68.0160  226.4900 C   0  0  0  0  0  0  0  0  0  0  0  0
  139.4880   69.0520  225.4090 N   0  0  0  0  0  0  0  0  0  0  0  0
  138.1570   68.9340  224.9020 C   0  0  0  0  0  0  0  0  0  0  0  0
  137.9020   69.5640  223.5630 C   0  0  0  0  0  0  0  0  0  0  0  0
  139.1920   70.0300  223.0380 N   0  0  0  0  0  0  0  0  0  0  0  0
  139.4640   71.3480  222.6650 C   0  0  0  0  0  0  0  0  0  0  0  0
  138.5450   72.2410  222.7800 O   0  0  0  0  0  0  0  0  0  0  0  0
  140.7470   71.8580  222.1280 C   0  0  0  0  0  0  0  0  0  0  0  0
  140.8270   73.2660  221.9400 N   0  0  0  0  0  0  0  0  0  0  0  0
  141.8070   73.9480  221.1750 C   0  0  0  0  0  0  0  0  0  0  0  0
  142.7230   73.3070  220.5860 O   0  0  0  0  0  0  0  0  0  0  0  0
  141.7460   75.4090  221.0750 C   0  0  0  0  0  0  0  0  0  0  0  0
  142.2430   76.1130  220.0030 C   0  0  0  0  0  0  0  0  0  0  0  0
  142.1920   77.4730  219.9010 C   0  0  0  0  0  0  0  0  0  0  0  0
  141.6030   78.1800  220.9400 C   0  0  0  0  0  0  0  0  0  0  0  0
  141.5040   79.5550  220.9280 C   0  0  0  0  0  0  0  0  0  0  0  0
  140.9020   80.1860  222.0040 C   0  0  0  0  0  0  0  0  0  0  0  0
  140.7910   81.9260  221.9660 Cl  0  0  0  0  0  0  0  0  0  0  0  0
  140.3980   79.5240  223.0840 C   0  0  0  0  0  0  0  0  0  0  0  0
  140.5020   78.1440  223.0840 C   0  0  0  0  0  0  0  0  0  0  0  0
  141.1050   77.4810  222.0120 C   0  0  0  0  0  0  0  0  0  0  0  0
  141.1810   76.1280  222.0650 N   0  0  0  0  0  0  0  0  0  0  0  0
  139.7810   70.2700  226.1370 C   0  0  0  0  0  0  0  0  0  0  0  0
  139.9970   69.9460  227.6040 C   0  0  0  0  0  0  0  0  0  0  0  0
  141.0930   70.8630  228.0840 C   0  0  0  0  0  0  0  0  0  0  0  0
  141.2540   71.8940  226.9970 C   0  0  0  0  0  0  0  0  0  0  0  0
  140.9490   71.0550  225.7400 C   0  0  0  0  0  0  0  0  0  0  0  0
  139.5476   68.5052  227.4738 H   0  0  0  0  0  0  0  0  0  0  0  0
  138.7762   67.2945  226.3941 H   0  0  0  0  0  0  0  0  0  0  0  0
  140.5619   67.4893  226.3941 H   0  0  0  0  0  0  0  0  0  0  0  0
  137.9226   67.8624  224.8194 H   0  0  0  0  0  0  0  0  0  0  0  0
  137.5205   69.4819  225.6124 H   0  0  0  0  0  0  0  0  0  0  0  0
  137.4636   68.8237  222.8776 H   0  0  0  0  0  0  0  0  0  0  0  0
  137.1982   70.4039  223.6592 H   0  0  0  0  0  0  0  0  0  0  0  0
  139.9590   69.3190  222.9270 H   0  0  0  0  0  0  0  0  0  0  0  0
  141.5446   71.5656  222.8268 H   0  0  0  0  0  0  0  0  0  0  0  0
  140.8452   71.4180  221.1246 H   0  0  0  0  0  0  0  0  0  0  0  0
  140.1010   73.8650  222.4010 H   0  0  0  0  0  0  0  0  0  0  0  0
  142.7078   75.5480  219.1816 H   0  0  0  0  0  0  0  0  0  0  0  0
  142.6045   77.9922  219.0234 H   0  0  0  0  0  0  0  0  0  0  0  0
  141.8949   80.1388  220.0816 H   0  0  0  0  0  0  0  0  0  0  0  0
  139.9287   80.0637  223.9197 H   0  0  0  0  0  0  0  0  0  0  0  0
  140.1077   77.5658  223.9327 H   0  0  0  0  0  0  0  0  0  0  0  0
  138.8997   70.8869  225.9073 H   0  0  0  0  0  0  0  0  0  0  0  0
  139.0733   70.1260  228.1736 H   0  0  0  0  0  0  0  0  0  0  0  0
  140.2703   68.8897  227.7437 H   0  0  0  0  0  0  0  0  0  0  0  0
  140.8062   71.3433  229.0311 H   0  0  0  0  0  0  0  0  0  0  0  0
  142.0295   70.3181  228.2741 H   0  0  0  0  0  0  0  0  0  0  0  0
  140.5362   72.7192  227.1147 H   0  0  0  0  0  0  0  0  0  0  0  0
  142.2379   72.3856  226.9835 H   0  0  0  0  0  0  0  0  0  0  0  0
  140.7162   71.7017  224.8812 H   0  0  0  0  0  0  0  0  0  0  0  0
  141.7981   70.4331  225.4202 H   0  0  0  0  0  0  0  0  0  0  0  0
  1  2  1  0
  2  3  1  0
  3  4  1  0
  4  5  1  0
  5  6  1  0
  6  7  2  0
  6  8  1  0
  8  9  1  0
  9 10  1  0
 10 11  2  0
 10 12  1  0
 12 13  2  0
 13 14  1  0
 14 15  2  0
 15 16  1  0
 16 17  2  0
 17 18  1  0
 17 19  1  0
 19 20  2  0
 20 21  1  0
 21 22  2  0
  2 23  1  0
 23 24  1  0
 24 25  1  0
 25 26  1  0
 26 27  1  0
 22 12  1  0
 27 23  1  0
 21 15  1  0
  1 28  1  0
  1 29  1  0
  1 30  1  0
  3 31  1  0
  3 32  1  0
  4 33  1  0
  4 34  1  0
  5 35  1  0
  8 36  1  0
  8 37  1  0
  9 38  1  0
 13 39  1  0
 14 40  1  0
 16 41  1  0
 19 42  1  0
 20 43  1  0
 23 44  1  0
 24 45  1  0
 24 46  1  0
 25 47  1  0
 25 48  1  0
 26 49  1  0
 26 50  1  0
 27 51  1  0
 27 52  1  0
M  END
>  <smiles>  (39) 
CN(CCNC(=O)CNC(=O)c1ccc2cc(Cl)ccc2n1)C1CCCC1

>  <score_type>  (39) 
oracle

>  <origin>  (39) 
autodockgpu

>  <m_score__min__energy>  (39) 
-8.4299999999999997

>  <m_primary>  (39) 
energy

>  <rmsd>  (39) 
8.657745061970404

>  <m_score__min__rmsd>  (39) 
8.657745061970404

>  <meeko>  (39) 
{"free_energy": -6.94, "intermolecular_energy": -9.03, "internal_energy": -2.33, "cluster_size": 14, "cluster_id": 3, "rank_in_cluster": 13}

>  <energy>  (39) 
-6.72

>  <cluster_rmsd>  (39) 
0.24

>  <cluster>  (39) 
5

$$$$

     RDKit          3D

 52 54  0  0  0  0  0  0  0  0999 V2000
  139.5950   78.1770  220.5500 C   0  0  0  0  0  0  0  0  0  0  0  0
  140.5520   77.5980  221.5540 N   0  0  0  0  0  0  0  0  0  0  0  0
  141.8120   77.5240  220.8840 C   0  0  0  0  0  0  0  0  0  0  0  0
  141.9620   76.4170  219.8800 C   0  0  0  0  0  0  0  0  0  0  0  0
  140.8470   75.4810  220.0800 N   0  0  0  0  0  0  0  0  0  0  0  0
  140.6750   74.2940  219.3660 C   0  0  0  0  0  0  0  0  0  0  0  0
  141.5330   73.9640  218.4680 O   0  0  0  0  0  0  0  0  0  0  0  0
  139.5640   73.3270  219.5330 C   0  0  0  0  0  0  0  0  0  0  0  0
  139.6420   72.4820  220.6750 N   0  0  0  0  0  0  0  0  0  0  0  0
  139.8080   72.9100  222.0170 C   0  0  0  0  0  0  0  0  0  0  0  0
  139.9080   74.1390  222.2910 O   0  0  0  0  0  0  0  0  0  0  0  0
  139.8630   71.9080  223.0840 C   0  0  0  0  0  0  0  0  0  0  0  0
  139.4250   70.6130  222.9270 C   0  0  0  0  0  0  0  0  0  0  0  0
  139.4720   69.6730  223.9160 C   0  0  0  0  0  0  0  0  0  0  0  0
  139.9930   70.0500  225.1450 C   0  0  0  0  0  0  0  0  0  0  0  0
  140.0820   69.1710  226.2040 C   0  0  0  0  0  0  0  0  0  0  0  0
  140.6140   69.6240  227.3990 C   0  0  0  0  0  0  0  0  0  0  0  0
  140.7150   68.4950  228.7230 Cl  0  0  0  0  0  0  0  0  0  0  0  0
  141.0590   70.8990  227.5940 C   0  0  0  0  0  0  0  0  0  0  0  0
  140.9650   71.7710  226.5240 C   0  0  0  0  0  0  0  0  0  0  0  0
  140.4320   71.3400  225.3060 C   0  0  0  0  0  0  0  0  0  0  0  0
  140.3630   72.2380  224.2910 N   0  0  0  0  0  0  0  0  0  0  0  0
  140.4660   78.5620  222.6320 C   0  0  0  0  0  0  0  0  0  0  0  0
  141.7990   78.6360  223.3560 C   0  0  0  0  0  0  0  0  0  0  0  0
  141.9940   80.0810  223.7370 C   0  0  0  0  0  0  0  0  0  0  0  0
  140.6540   80.7350  223.5210 C   0  0  0  0  0  0  0  0  0  0  0  0
  140.1280   79.9460  222.3050 C   0  0  0  0  0  0  0  0  0  0  0  0
  138.7688   78.6769  221.0769 H   0  0  0  0  0  0  0  0  0  0  0  0
  140.1228   78.9074  219.9192 H   0  0  0  0  0  0  0  0  0  0  0  0
  139.1930   77.3705  219.9192 H   0  0  0  0  0  0  0  0  0  0  0  0
  141.9701   78.4776  220.3591 H   0  0  0  0  0  0  0  0  0  0  0  0
  142.5526   77.3131  221.6695 H   0  0  0  0  0  0  0  0  0  0  0  0
  141.9280   76.8283  218.8604 H   0  0  0  0  0  0  0  0  0  0  0  0
  142.9257   75.9035  220.0126 H   0  0  0  0  0  0  0  0  0  0  0  0
  140.1250   75.7310  220.8040 H   0  0  0  0  0  0  0  0  0  0  0  0
  138.6267   73.8988  219.6003 H   0  0  0  0  0  0  0  0  0  0  0  0
  139.6193   72.6568  218.6625 H   0  0  0  0  0  0  0  0  0  0  0  0
  139.5680   71.4470  220.5260 H   0  0  0  0  0  0  0  0  0  0  0  0
  139.0140   70.3187  221.9500 H   0  0  0  0  0  0  0  0  0  0  0  0
  139.1083   68.6493  223.7437 H   0  0  0  0  0  0  0  0  0  0  0  0
  139.7374   68.1314  226.1012 H   0  0  0  0  0  0  0  0  0  0  0  0
  141.4747   71.2199  228.5606 H   0  0  0  0  0  0  0  0  0  0  0  0
  141.3117   72.8093  226.6325 H   0  0  0  0  0  0  0  0  0  0  0  0
  139.6231   78.1677  223.2185 H   0  0  0  0  0  0  0  0  0  0  0  0
  141.7790   78.0042  224.2562 H   0  0  0  0  0  0  0  0  0  0  0  0
  142.6204   78.2762  222.7189 H   0  0  0  0  0  0  0  0  0  0  0  0
  142.2974   80.1637  224.7911 H   0  0  0  0  0  0  0  0  0  0  0  0
  142.7841   80.5590  223.1393 H   0  0  0  0  0  0  0  0  0  0  0  0
  139.9991   80.6108  224.3960 H   0  0  0  0  0  0  0  0  0  0  0  0
  140.7024   81.8230  223.3665 H   0  0  0  0  0  0  0  0  0  0  0  0
  139.0407   80.0707  222.1944 H   0  0  0  0  0  0  0  0  0  0  0  0
  140.5629   80.2822  221.3522 H   0  0  0  0  0  0  0  0  0  0  0  0
  1  2  1  0
  2  3  1  0
  3  4  1  0
  4  5  1  0
  5  6  1  0
  6  7  2  0
  6  8  1  0
  8  9  1  0
  9 10  1  0
 10 11  2  0
 10 12  1  0
 12 13  2  0
 13 14  1  0
 14 15  2  0
 15 16  1  0
 16 17  2  0
 17 18  1  0
 17 19  1  0
 19 20  2  0
 20 21  1  0
 21 22  2  0
  2 23  1  0
 23 24  1  0
 24 25  1  0
 25 26  1  0
 26 27  1  0
 22 12  1  0
 27 23  1  0
 21 15  1  0
  1 28  1  0
  1 29  1  0
  1 30  1  0
  3 31  1  0
  3 32  1  0
  4 33  1  0
  4 34  1  0
  5 35  1  0
  8 36  1  0
  8 37  1  0
  9 38  1  0
 13 39  1  0
 14 40  1  0
 16 41  1  0
 19 42  1  0
 20 43  1  0
 23 44  1  0
 24 45  1  0
 24 46  1  0
 25 47  1  0
 25 48  1  0
 26 49  1  0
 26 50  1  0
 27 51  1  0
 27 52  1  0
M  END
>  <smiles>  (40) 
CN(CCNC(=O)CNC(=O)c1ccc2cc(Cl)ccc2n1)C1CCCC1

>  <score_type>  (40) 
oracle

>  <origin>  (40) 
autodockgpu

>  <m_score__min__energy>  (40) 
-8.4299999999999997

>  <m_primary>  (40) 
energy

>  <rmsd>  (40) 
5.012573338081618

>  <m_score__min__rmsd>  (40) 
5.012573338081618

>  <meeko>  (40) 
{"free_energy": -7.11, "intermolecular_energy": -9.2, "internal_energy": -2.44, "cluster_size": 21, "cluster_id": 1, "rank_in_cluster": 18}

>  <energy>  (40) 
-6.72

>  <cluster_rmsd>  (40) 
0.28

>  <cluster>  (40) 
5

$$$$

     RDKit          3D

 52 54  0  0  0  0  0  0  0  0999 V2000
  140.3660   71.5490  223.5140 C   0  0  0  0  0  0  0  0  0  0  0  0
  139.4180   71.2520  224.6410 N   0  0  0  0  0  0  0  0  0  0  0  0
  138.4700   70.3240  224.1080 C   0  0  0  0  0  0  0  0  0  0  0  0
  137.0250   70.7190  224.2190 C   0  0  0  0  0  0  0  0  0  0  0  0
  136.8630   72.0090  223.5350 N   0  0  0  0  0  0  0  0  0  0  0  0
  135.6580   72.7080  223.4440 C   0  0  0  0  0  0  0  0  0  0  0  0
  134.5990   72.2190  223.9860 O   0  0  0  0  0  0  0  0  0  0  0  0
  135.4500   74.0060  222.7610 C   0  0  0  0  0  0  0  0  0  0  0  0
  136.5390   74.9200  222.8180 N   0  0  0  0  0  0  0  0  0  0  0  0
  137.7780   74.7800  222.1430 C   0  0  0  0  0  0  0  0  0  0  0  0
  138.0010   73.7720  221.4130 O   0  0  0  0  0  0  0  0  0  0  0  0
  138.8000   75.8180  222.3020 C   0  0  0  0  0  0  0  0  0  0  0  0
  140.1230   75.6290  221.9760 C   0  0  0  0  0  0  0  0  0  0  0  0
  141.0820   76.5890  222.1210 C   0  0  0  0  0  0  0  0  0  0  0  0
  140.6950   77.8220  222.6260 C   0  0  0  0  0  0  0  0  0  0  0  0
  141.5920   78.8540  222.8080 C   0  0  0  0  0  0  0  0  0  0  0  0
  141.1260   80.0550  223.3180 C   0  0  0  0  0  0  0  0  0  0  0  0
  142.2790   81.3430  223.5400 Cl  0  0  0  0  0  0  0  0  0  0  0  0
  139.8240   80.2800  223.6530 C   0  0  0  0  0  0  0  0  0  0  0  0
  138.9340   79.2370  223.4650 C   0  0  0  0  0  0  0  0  0  0  0  0
  139.3760   78.0140  222.9530 C   0  0  0  0  0  0  0  0  0  0  0  0
  138.4600   77.0270  222.7890 N   0  0  0  0  0  0  0  0  0  0  0  0
  140.3140   70.7290  225.6510 C   0  0  0  0  0  0  0  0  0  0  0  0
  140.7880   71.8600  226.5460 C   0  0  0  0  0  0  0  0  0  0  0  0
  140.8790   71.2900  227.9370 C   0  0  0  0  0  0  0  0  0  0  0  0
  140.7750   69.7970  227.7640 C   0  0  0  0  0  0  0  0  0  0  0  0
  139.8140   69.7010  226.5620 C   0  0  0  0  0  0  0  0  0  0  0  0
  141.3398   71.8541  223.9247 H   0  0  0  0  0  0  0  0  0  0  0  0
  140.4947   70.6481  222.8961 H   0  0  0  0  0  0  0  0  0  0  0  0
  139.9577   72.3623  222.8961 H   0  0  0  0  0  0  0  0  0  0  0  0
  138.6994   70.1845  223.0413 H   0  0  0  0  0  0  0  0  0  0  0  0
  138.5749   69.4127  224.7151 H   0  0  0  0  0  0  0  0  0  0  0  0
  136.3905   69.9585  223.7404 H   0  0  0  0  0  0  0  0  0  0  0  0
  136.7272   70.8016  225.2747 H   0  0  0  0  0  0  0  0  0  0  0  0
  137.7120   72.4270  223.0760 H   0  0  0  0  0  0  0  0  0  0  0  0
  135.2387   73.7992  221.7015 H   0  0  0  0  0  0  0  0  0  0  0  0
  134.6229   74.4949  223.2966 H   0  0  0  0  0  0  0  0  0  0  0  0
  136.4290   75.7800  223.4070 H   0  0  0  0  0  0  0  0  0  0  0  0
  140.4247   74.6496  221.5762 H   0  0  0  0  0  0  0  0  0  0  0  0
  142.1287   76.3915  221.8462 H   0  0  0  0  0  0  0  0  0  0  0  0
  142.6545   78.7262  222.5537 H   0  0  0  0  0  0  0  0  0  0  0  0
  139.4947   81.2493  224.0556 H   0  0  0  0  0  0  0  0  0  0  0  0
  137.8725   79.3714  223.7200 H   0  0  0  0  0  0  0  0  0  0  0  0
  141.0886   70.2479  225.0358 H   0  0  0  0  0  0  0  0  0  0  0  0
  141.7742   72.2186  226.2163 H   0  0  0  0  0  0  0  0  0  0  0  0
  140.0968   72.7149  226.5092 H   0  0  0  0  0  0  0  0  0  0  0  0
  141.8398   71.5579  228.4008 H   0  0  0  0  0  0  0  0  0  0  0  0
  140.0879   71.6823  228.5929 H   0  0  0  0  0  0  0  0  0  0  0  0
  141.7530   69.3486  227.5350 H   0  0  0  0  0  0  0  0  0  0  0  0
  140.4308   69.2615  228.6611 H   0  0  0  0  0  0  0  0  0  0  0  0
  139.8620   68.7051  226.0973 H   0  0  0  0  0  0  0  0  0  0  0  0
  138.7598   69.8471  226.8401 H   0  0  0  0  0  0  0  0  0  0  0  0
  1  2  1  0
  2  3  1  0
  3  4  1  0
  4  5  1  0
  5  6  1  0
  6  7  2  0
  6  8  1  0
  8  9  1  0
  9 10  1  0
 10 11  2  0
 10 12  1  0
 12 13  2  0
 13 14  1  0
 14 15  2  0
 15 16  1  0
 16 17  2  0
 17 18  1  0
 17 19  1  0
 19 20  2  0
 20 21  1  0
 21 22  2  0
  2 23  1  0
 23 24  1  0
 24 25  1  0
 25 26  1  0
 26 27  1  0
 22 12  1  0
 27 23  1  0
 21 15  1  0
  1 28  1  0
  1 29  1  0
  1 30  1  0
  3 31  1  0
  3 32  1  0
  4 33  1  0
  4 34  1  0
  5 35  1  0
  8 36  1  0
  8 37  1  0
  9 38  1  0
 13 39  1  0
 14 40  1  0
 16 41  1  0
 19 42  1  0
 20 43  1  0
 23 44  1  0
 24 45  1  0
 24 46  1  0
 25 47  1  0
 25 48  1  0
 26 49  1  0
 26 50  1  0
 27 51  1  0
 27 52  1  0
M  END
>  <smiles>  (41) 
CN(CCNC(=O)CNC(=O)c1ccc2cc(Cl)ccc2n1)C1CCCC1

>  <score_type>  (41) 
oracle

>  <origin>  (41) 
autodockgpu

>  <m_score__min__energy>  (41) 
-8.4299999999999997

>  <m_primary>  (41) 
energy

>  <rmsd>  (41) 
8.450802285695033

>  <m_score__min__rmsd>  (41) 
8.450802285695033

>  <meeko>  (41) 
{"free_energy": -7.01, "intermolecular_energy": -9.1, "internal_energy": -2.52, "cluster_size": 14, "cluster_id": 3, "rank_in_cluster": 10}

>  <energy>  (41) 
-6.55

>  <cluster_rmsd>  (41) 
0.53

>  <cluster>  (41) 
5

$$$$

     RDKit          3D

 52 54  0  0  0  0  0  0  0  0999 V2000
  141.0780   67.5370  226.4400 C   0  0  0  0  0  0  0  0  0  0  0  0
  140.4270   68.7940  225.9380 N   0  0  0  0  0  0  0  0  0  0  0  0
  139.0230   68.5990  226.1240 C   0  0  0  0  0  0  0  0  0  0  0  0
  138.1650   68.7750  224.9040 C   0  0  0  0  0  0  0  0  0  0  0  0
  138.9740   69.4570  223.8850 N   0  0  0  0  0  0  0  0  0  0  0  0
  138.8260   70.7980  223.5270 C   0  0  0  0  0  0  0  0  0  0  0  0
  137.9320   71.5150  224.1100 O   0  0  0  0  0  0  0  0  0  0  0  0
  139.6160   71.5230  222.5040 C   0  0  0  0  0  0  0  0  0  0  0  0
  139.4820   72.9380  222.5010 N   0  0  0  0  0  0  0  0  0  0  0  0
  140.3610   73.8560  221.8720 C   0  0  0  0  0  0  0  0  0  0  0  0
  141.3780   73.4440  221.2450 O   0  0  0  0  0  0  0  0  0  0  0  0
  140.0770   75.2910  221.9590 C   0  0  0  0  0  0  0  0  0  0  0  0
  138.8430   75.7970  222.2960 C   0  0  0  0  0  0  0  0  0  0  0  0
  138.5690   77.1310  222.3790 C   0  0  0  0  0  0  0  0  0  0  0  0
  139.5970   78.0230  222.1070 C   0  0  0  0  0  0  0  0  0  0  0  0
  139.4160   79.3890  222.1650 C   0  0  0  0  0  0  0  0  0  0  0  0
  140.4930   80.2120  221.8800 C   0  0  0  0  0  0  0  0  0  0  0  0
  140.2400   81.9360  221.9590 Cl  0  0  0  0  0  0  0  0  0  0  0  0
  141.7310   79.7490  221.5430 C   0  0  0  0  0  0  0  0  0  0  0  0
  141.8990   78.3770  221.4880 C   0  0  0  0  0  0  0  0  0  0  0  0
  140.8300   77.5230  221.7710 C   0  0  0  0  0  0  0  0  0  0  0  0
  141.0510   76.1860  221.7020 N   0  0  0  0  0  0  0  0  0  0  0  0
  141.0420   69.8010  226.7790 C   0  0  0  0  0  0  0  0  0  0  0  0
  141.3570   71.0330  225.9510 C   0  0  0  0  0  0  0  0  0  0  0  0
  141.0990   72.2200  226.8420 C   0  0  0  0  0  0  0  0  0  0  0  0
  140.9590   71.6530  228.2310 C   0  0  0  0  0  0  0  0  0  0  0  0
  140.2940   70.2940  227.9350 C   0  0  0  0  0  0  0  0  0  0  0  0
  141.0775   67.5379  227.5400 H   0  0  0  0  0  0  0  0  0  0  0  0
  140.5191   66.6632  226.0738 H   0  0  0  0  0  0  0  0  0  0  0  0
  142.1142   67.4893  226.0738 H   0  0  0  0  0  0  0  0  0  0  0  0
  138.8722   67.5750  226.4963 H   0  0  0  0  0  0  0  0  0  0  0  0
  138.7054   69.3850  226.8249 H   0  0  0  0  0  0  0  0  0  0  0  0
  137.8402   67.7931  224.5293 H   0  0  0  0  0  0  0  0  0  0  0  0
  137.2691   69.3662  225.1445 H   0  0  0  0  0  0  0  0  0  0  0  0
  139.7080   68.8920  223.3870 H   0  0  0  0  0  0  0  0  0  0  0  0
  140.6775   71.2858  222.6680 H   0  0  0  0  0  0  0  0  0  0  0  0
  139.2244   71.1859  221.5329 H   0  0  0  0  0  0  0  0  0  0  0  0
  138.6630   73.3550  223.0050 H   0  0  0  0  0  0  0  0  0  0  0  0
  138.0315   75.0861  222.5107 H   0  0  0  0  0  0  0  0  0  0  0  0
  137.5653   77.4882  222.6528 H   0  0  0  0  0  0  0  0  0  0  0  0
  138.4378   79.8155  222.4317 H   0  0  0  0  0  0  0  0  0  0  0  0
  142.5606   80.4374  221.3242 H   0  0  0  0  0  0  0  0  0  0  0  0
  142.8794   77.9561  221.2201 H   0  0  0  0  0  0  0  0  0  0  0  0
  141.9114   69.2591  227.1796 H   0  0  0  0  0  0  0  0  0  0  0  0
  142.4096   71.0182  225.6318 H   0  0  0  0  0  0  0  0  0  0  0  0
  140.7373   71.0731  225.0430 H   0  0  0  0  0  0  0  0  0  0  0  0
  141.9417   72.9255  226.7972 H   0  0  0  0  0  0  0  0  0  0  0  0
  140.2011   72.7759  226.5340 H   0  0  0  0  0  0  0  0  0  0  0  0
  141.9386   71.5254  228.7148 H   0  0  0  0  0  0  0  0  0  0  0  0
  140.3914   72.2916  228.9239 H   0  0  0  0  0  0  0  0  0  0  0  0
  140.3951   69.6106  228.7910 H   0  0  0  0  0  0  0  0  0  0  0  0
  139.2131   70.3743  227.7472 H   0  0  0  0  0  0  0  0  0  0  0  0
  1  2  1  0
  2  3  1  0
  3  4  1  0
  4  5  1  0
  5  6  1  0
  6  7  2  0
  6  8  1  0
  8  9  1  0
  9 10  1  0
 10 11  2  0
 10 12  1  0
 12 13  2  0
 13 14  1  0
 14 15  2  0
 15 16  1  0
 16 17  2  0
 17 18  1  0
 17 19  1  0
 19 20  2  0
 20 21  1  0
 21 22  2  0
  2 23  1  0
 23 24  1  0
 24 25  1  0
 25 26  1  0
 26 27  1  0
 22 12  1  0
 27 23  1  0
 21 15  1  0
  1 28  1  0
  1 29  1  0
  1 30  1  0
  3 31  1  0
  3 32  1  0
  4 33  1  0
  4 34  1  0
  5 35  1  0
  8 36  1  0
  8 37  1  0
  9 38  1  0
 13 39  1  0
 14 40  1  0
 16 41  1  0
 19 42  1  0
 20 43  1  0
 23 44  1  0
 24 45  1  0
 24 46  1  0
 25 47  1  0
 25 48  1  0
 26 49  1  0
 26 50  1  0
 27 51  1  0
 27 52  1  0
M  END
>  <smiles>  (42) 
CN(CCNC(=O)CNC(=O)c1ccc2cc(Cl)ccc2n1)C1CCCC1

>  <score_type>  (42) 
oracle

>  <origin>  (42) 
autodockgpu

>  <m_score__min__energy>  (42) 
-8.4299999999999997

>  <m_primary>  (42) 
energy

>  <rmsd>  (42) 
9.140000117490153

>  <m_score__min__rmsd>  (42) 
9.140000117490153

>  <meeko>  (42) 
{"free_energy": -7.46, "intermolecular_energy": -9.55, "internal_energy": -2.13, "cluster_size": 14, "cluster_id": 3, "rank_in_cluster": 2}

>  <energy>  (42) 
-6.38

>  <cluster_rmsd>  (42) 
0.0

>  <cluster>  (42) 
6

$$$$

     RDKit          3D

 52 54  0  0  0  0  0  0  0  0999 V2000
  141.8250   78.2390  220.9140 C   0  0  0  0  0  0  0  0  0  0  0  0
  141.0630   79.5320  220.8540 N   0  0  0  0  0  0  0  0  0  0  0  0
  139.7430   79.1800  220.4340 C   0  0  0  0  0  0  0  0  0  0  0  0
  138.9260   78.3900  221.4160 C   0  0  0  0  0  0  0  0  0  0  0  0
  138.8130   77.0200  220.9000 N   0  0  0  0  0  0  0  0  0  0  0  0
  139.1140   75.8720  221.6360 C   0  0  0  0  0  0  0  0  0  0  0  0
  139.5170   75.9860  222.8520 O   0  0  0  0  0  0  0  0  0  0  0  0
  139.0180   74.4740  221.1530 C   0  0  0  0  0  0  0  0  0  0  0  0
  139.2180   73.4630  222.1330 N   0  0  0  0  0  0  0  0  0  0  0  0
  139.0640   72.0670  221.9310 C   0  0  0  0  0  0  0  0  0  0  0  0
  138.7150   71.6160  220.8040 O   0  0  0  0  0  0  0  0  0  0  0  0
  139.3150   71.1520  223.0480 C   0  0  0  0  0  0  0  0  0  0  0  0
  138.9710   69.8200  223.0230 C   0  0  0  0  0  0  0  0  0  0  0  0
  139.2000   68.9600  224.0580 C   0  0  0  0  0  0  0  0  0  0  0  0
  139.8140   69.4620  225.1960 C   0  0  0  0  0  0  0  0  0  0  0  0
  140.0860   68.6710  226.2920 C   0  0  0  0  0  0  0  0  0  0  0  0
  140.7010   69.2490  227.3900 C   0  0  0  0  0  0  0  0  0  0  0  0
  141.0340   68.2280  228.7640 Cl  0  0  0  0  0  0  0  0  0  0  0  0
  141.0570   70.5640  227.4530 C   0  0  0  0  0  0  0  0  0  0  0  0
  140.7790   71.3470  226.3470 C   0  0  0  0  0  0  0  0  0  0  0  0
  140.1580   70.7910  225.2250 C   0  0  0  0  0  0  0  0  0  0  0  0
  139.9090   71.6050  224.1690 N   0  0  0  0  0  0  0  0  0  0  0  0
  141.1860   80.0100  222.2160 C   0  0  0  0  0  0  0  0  0  0  0  0
  142.4320   79.4180  222.8520 C   0  0  0  0  0  0  0  0  0  0  0  0
  143.0100   80.4940  223.7340 C   0  0  0  0  0  0  0  0  0  0  0  0
  141.9340   81.5440  223.8390 C   0  0  0  0  0  0  0  0  0  0  0  0
  141.2860   81.4510  222.4430 C   0  0  0  0  0  0  0  0  0  0  0  0
  141.9900   77.9591  221.9649 H   0  0  0  0  0  0  0  0  0  0  0  0
  141.2478   77.4495  220.4105 H   0  0  0  0  0  0  0  0  0  0  0  0
  142.7953   78.3615  220.4105 H   0  0  0  0  0  0  0  0  0  0  0  0
  139.1996   80.1115  220.2172 H   0  0  0  0  0  0  0  0  0  0  0  0
  139.8757   78.5217  219.5628 H   0  0  0  0  0  0  0  0  0  0  0  0
  139.4239   78.3814  222.3968 H   0  0  0  0  0  0  0  0  0  0  0  0
  137.9296   78.8395  221.5391 H   0  0  0  0  0  0  0  0  0  0  0  0
  138.4930   76.8980  219.9060 H   0  0  0  0  0  0  0  0  0  0  0  0
  138.0148   74.3338  220.7240 H   0  0  0  0  0  0  0  0  0  0  0  0
  139.8369   74.3525  220.4287 H   0  0  0  0  0  0  0  0  0  0  0  0
  139.5070   73.7610  223.0950 H   0  0  0  0  0  0  0  0  0  0  0  0
  138.4843   69.4262  222.1185 H   0  0  0  0  0  0  0  0  0  0  0  0
  138.9068   67.9019  223.9917 H   0  0  0  0  0  0  0  0  0  0  0  0
  139.8202   67.6036  226.2943 H   0  0  0  0  0  0  0  0  0  0  0  0
  141.5444   70.9841  228.3452 H   0  0  0  0  0  0  0  0  0  0  0  0
  141.0483   72.4135  226.3505 H   0  0  0  0  0  0  0  0  0  0  0  0
  140.2275   79.6930  222.6528 H   0  0  0  0  0  0  0  0  0  0  0  0
  142.1699   78.5341  223.4519 H   0  0  0  0  0  0  0  0  0  0  0  0
  143.1555   79.0960  222.0886 H   0  0  0  0  0  0  0  0  0  0  0  0
  143.2512   80.0890  224.7279 H   0  0  0  0  0  0  0  0  0  0  0  0
  143.9438   80.9040  223.3217 H   0  0  0  0  0  0  0  0  0  0  0  0
  141.2132   81.3041  224.6346 H   0  0  0  0  0  0  0  0  0  0  0  0
  142.3057   82.5464  224.0979 H   0  0  0  0  0  0  0  0  0  0  0  0
  140.2915   81.9210  222.4377 H   0  0  0  0  0  0  0  0  0  0  0  0
  141.8630   81.9712  221.6642 H   0  0  0  0  0  0  0  0  0  0  0  0
  1  2  1  0
  2  3  1  0
  3  4  1  0
  4  5  1  0
  5  6  1  0
  6  7  2  0
  6  8  1  0
  8  9  1  0
  9 10  1  0
 10 11  2  0
 10 12  1  0
 12 13  2  0
 13 14  1  0
 14 15  2  0
 15 16  1  0
 16 17  2  0
 17 18  1  0
 17 19  1  0
 19 20  2  0
 20 21  1  0
 21 22  2  0
  2 23  1  0
 23 24  1  0
 24 25  1  0
 25 26  1  0
 26 27  1  0
 22 12  1  0
 27 23  1  0
 21 15  1  0
  1 28  1  0
  1 29  1  0
  1 30  1  0
  3 31  1  0
  3 32  1  0
  4 33  1  0
  4 34  1  0
  5 35  1  0
  8 36  1  0
  8 37  1  0
  9 38  1  0
 13 39  1  0
 14 40  1  0
 16 41  1  0
 19 42  1  0
 20 43  1  0
 23 44  1  0
 24 45  1  0
 24 46  1  0
 25 47  1  0
 25 48  1  0
 26 49  1  0
 26 50  1  0
 27 51  1  0
 27 52  1  0
M  END
>  <smiles>  (43) 
CN(CCNC(=O)CNC(=O)c1ccc2cc(Cl)ccc2n1)C1CCCC1

>  <score_type>  (43) 
oracle

>  <origin>  (43) 
autodockgpu

>  <m_score__min__energy>  (43) 
-8.4299999999999997

>  <m_primary>  (43) 
energy

>  <rmsd>  (43) 
5.323408210075995

>  <m_score__min__rmsd>  (43) 
5.323408210075995

>  <meeko>  (43) 
{"free_energy": -7.57, "intermolecular_energy": -9.66, "internal_energy": -2.0, "cluster_size": 21, "cluster_id": 1, "rank_in_cluster": 14}

>  <energy>  (43) 
-5.45

>  <cluster_rmsd>  (43) 
0.0

>  <cluster>  (43) 
7

$$$$

     RDKit          3D

 52 54  0  0  0  0  0  0  0  0999 V2000
  138.8390   80.0170  224.2100 C   0  0  0  0  0  0  0  0  0  0  0  0
  139.2620   79.0110  223.1780 N   0  0  0  0  0  0  0  0  0  0  0  0
  138.2490   79.0490  222.1690 C   0  0  0  0  0  0  0  0  0  0  0  0
  138.0390   77.7780  221.3970 C   0  0  0  0  0  0  0  0  0  0  0  0
  139.2210   76.9310  221.6040 N   0  0  0  0  0  0  0  0  0  0  0  0
  139.6170   75.9040  220.7450 C   0  0  0  0  0  0  0  0  0  0  0  0
  138.9240   75.6590  219.6900 O   0  0  0  0  0  0  0  0  0  0  0  0
  140.7970   75.0250  220.9190 C   0  0  0  0  0  0  0  0  0  0  0  0
  140.6670   73.9950  221.8900 N   0  0  0  0  0  0  0  0  0  0  0  0
  139.7450   72.9180  221.8420 C   0  0  0  0  0  0  0  0  0  0  0  0
  138.9340   72.8100  220.8790 O   0  0  0  0  0  0  0  0  0  0  0  0
  139.7420   71.9310  222.9250 C   0  0  0  0  0  0  0  0  0  0  0  0
  139.1600   70.6890  222.8120 C   0  0  0  0  0  0  0  0  0  0  0  0
  139.1520   69.7630  223.8150 C   0  0  0  0  0  0  0  0  0  0  0  0
  139.7660   70.0990  225.0130 C   0  0  0  0  0  0  0  0  0  0  0  0
  139.8090   69.2300  226.0830 C   0  0  0  0  0  0  0  0  0  0  0  0
  140.4410   69.6410  227.2450 C   0  0  0  0  0  0  0  0  0  0  0  0
  140.4810   68.5260  228.5850 Cl  0  0  0  0  0  0  0  0  0  0  0  0
  141.0280   70.8620  227.3960 C   0  0  0  0  0  0  0  0  0  0  0  0
  140.9790   71.7250  226.3150 C   0  0  0  0  0  0  0  0  0  0  0  0
  140.3470   71.3370  225.1300 C   0  0  0  0  0  0  0  0  0  0  0  0
  140.3290   72.2220  224.1020 N   0  0  0  0  0  0  0  0  0  0  0  0
  140.5610   79.5180  222.7870 C   0  0  0  0  0  0  0  0  0  0  0  0
  140.7690   80.8990  223.3840 C   0  0  0  0  0  0  0  0  0  0  0  0
  142.2250   80.9820  223.7630 C   0  0  0  0  0  0  0  0  0  0  0  0
  142.8790   79.8010  223.0940 C   0  0  0  0  0  0  0  0  0  0  0  0
  141.7490   78.7540  223.1630 C   0  0  0  0  0  0  0  0  0  0  0  0
  139.0119   79.6057  225.2155 H   0  0  0  0  0  0  0  0  0  0  0  0
  139.4256   80.9391  224.0852 H   0  0  0  0  0  0  0  0  0  0  0  0
  137.7697   80.2429  224.0852 H   0  0  0  0  0  0  0  0  0  0  0  0
  137.2976   79.3071  222.6572 H   0  0  0  0  0  0  0  0  0  0  0  0
  138.5930   79.7896  221.4320 H   0  0  0  0  0  0  0  0  0  0  0  0
  137.1391   77.2617  221.7625 H   0  0  0  0  0  0  0  0  0  0  0  0
  137.9020   77.9945  220.3273 H   0  0  0  0  0  0  0  0  0  0  0  0
  139.8020   77.1060  222.4640 H   0  0  0  0  0  0  0  0  0  0  0  0
  141.0088   74.5496  219.9499 H   0  0  0  0  0  0  0  0  0  0  0  0
  141.6030   75.6782  221.2846 H   0  0  0  0  0  0  0  0  0  0  0  0
  141.3050   74.0190  222.7210 H   0  0  0  0  0  0  0  0  0  0  0  0
  138.6741   70.4279  221.8603 H   0  0  0  0  0  0  0  0  0  0  0  0
  138.6740   68.7818  223.6778 H   0  0  0  0  0  0  0  0  0  0  0  0
  139.3513   68.2321  226.0151 H   0  0  0  0  0  0  0  0  0  0  0  0
  141.5198   71.1492  228.3371 H   0  0  0  0  0  0  0  0  0  0  0  0
  141.4397   72.7212  226.3887 H   0  0  0  0  0  0  0  0  0  0  0  0
  140.4981   79.4745  221.6897 H   0  0  0  0  0  0  0  0  0  0  0  0
  140.5235   81.6747  222.6437 H   0  0  0  0  0  0  0  0  0  0  0  0
  140.1193   81.0587  224.2571 H   0  0  0  0  0  0  0  0  0  0  0  0
  142.6645   81.9226  223.3996 H   0  0  0  0  0  0  0  0  0  0  0  0
  142.3660   80.9648  224.8538 H   0  0  0  0  0  0  0  0  0  0  0  0
  143.1546   80.0287  222.0537 H   0  0  0  0  0  0  0  0  0  0  0  0
  143.8207   79.4805  223.5636 H   0  0  0  0  0  0  0  0  0  0  0  0
  141.9295   77.9318  222.4548 H   0  0  0  0  0  0  0  0  0  0  0  0
  141.6611   78.2793  224.1514 H   0  0  0  0  0  0  0  0  0  0  0  0
  1  2  1  0
  2  3  1  0
  3  4  1  0
  4  5  1  0
  5  6  1  0
  6  7  2  0
  6  8  1  0
  8  9  1  0
  9 10  1  0
 10 11  2  0
 10 12  1  0
 12 13  2  0
 13 14  1  0
 14 15  2  0
 15 16  1  0
 16 17  2  0
 17 18  1  0
 17 19  1  0
 19 20  2  0
 20 21  1  0
 21 22  2  0
  2 23  1  0
 23 24  1  0
 24 25  1  0
 25 26  1  0
 26 27  1  0
 22 12  1  0
 27 23  1  0
 21 15  1  0
  1 28  1  0
  1 29  1  0
  1 30  1  0
  3 31  1  0
  3 32  1  0
  4 33  1  0
  4 34  1  0
  5 35  1  0
  8 36  1  0
  8 37  1  0
  9 38  1  0
 13 39  1  0
 14 40  1  0
 16 41  1  0
 19 42  1  0
 20 43  1  0
 23 44  1  0
 24 45  1  0
 24 46  1  0
 25 47  1  0
 25 48  1  0
 26 49  1  0
 26 50  1  0
 27 51  1  0
 27 52  1  0
M  END
>  <smiles>  (44) 
CN(CCNC(=O)CNC(=O)c1ccc2cc(Cl)ccc2n1)C1CCCC1

>  <score_type>  (44) 
oracle

>  <origin>  (44) 
autodockgpu

>  <m_score__min__energy>  (44) 
-8.4299999999999997

>  <m_primary>  (44) 
energy

>  <rmsd>  (44) 
5.482282478945234

>  <m_score__min__rmsd>  (44) 
5.482282478945234

>  <meeko>  (44) 
{"free_energy": -6.92, "intermolecular_energy": -9.01, "internal_energy": -2.14, "cluster_size": 21, "cluster_id": 1, "rank_in_cluster": 20}

>  <energy>  (44) 
-5.38

>  <cluster_rmsd>  (44) 
0.21

>  <cluster>  (44) 
7

$$$$

     RDKit          3D

 52 54  0  0  0  0  0  0  0  0999 V2000
  140.4840   67.4560  226.5570 C   0  0  0  0  0  0  0  0  0  0  0  0
  140.2450   68.7850  225.8980 N   0  0  0  0  0  0  0  0  0  0  0  0
  138.8260   68.8990  225.7710 C   0  0  0  0  0  0  0  0  0  0  0  0
  138.3300   69.6650  224.5780 C   0  0  0  0  0  0  0  0  0  0  0  0
  139.5040   70.1270  223.8260 N   0  0  0  0  0  0  0  0  0  0  0  0
  139.4980   71.2000  222.9320 C   0  0  0  0  0  0  0  0  0  0  0  0
  138.4090   71.8520  222.7330 O   0  0  0  0  0  0  0  0  0  0  0  0
  140.6570   71.6930  222.1520 C   0  0  0  0  0  0  0  0  0  0  0  0
  140.7740   73.1060  222.0390 N   0  0  0  0  0  0  0  0  0  0  0  0
  140.2160   73.9080  221.0110 C   0  0  0  0  0  0  0  0  0  0  0  0
  139.5480   73.3810  220.0770 O   0  0  0  0  0  0  0  0  0  0  0  0
  140.4250   75.3580  221.0430 C   0  0  0  0  0  0  0  0  0  0  0  0
  140.2310   76.1710  219.9510 C   0  0  0  0  0  0  0  0  0  0  0  0
  140.4230   77.5230  219.9700 C   0  0  0  0  0  0  0  0  0  0  0  0
  140.8360   78.1020  221.1600 C   0  0  0  0  0  0  0  0  0  0  0  0
  141.0560   79.4590  221.2780 C   0  0  0  0  0  0  0  0  0  0  0  0
  141.4690   79.9600  222.5010 C   0  0  0  0  0  0  0  0  0  0  0  0
  141.7420   81.6780  222.6240 Cl  0  0  0  0  0  0  0  0  0  0  0  0
  141.6720   79.1870  223.6060 C   0  0  0  0  0  0  0  0  0  0  0  0
  141.4470   77.8280  223.4760 C   0  0  0  0  0  0  0  0  0  0  0  0
  141.0310   77.2950  222.2530 C   0  0  0  0  0  0  0  0  0  0  0  0
  140.8260   75.9550  222.1820 N   0  0  0  0  0  0  0  0  0  0  0  0
  140.8700   69.6950  226.8360 C   0  0  0  0  0  0  0  0  0  0  0  0
  141.4200   70.8970  226.0890 C   0  0  0  0  0  0  0  0  0  0  0  0
  141.1990   72.0890  226.9830 C   0  0  0  0  0  0  0  0  0  0  0  0
  140.8350   71.5160  228.3280 C   0  0  0  0  0  0  0  0  0  0  0  0
  140.0560   70.2520  227.9150 C   0  0  0  0  0  0  0  0  0  0  0  0
  140.4618   67.5794  227.6498 H   0  0  0  0  0  0  0  0  0  0  0  0
  139.6986   66.7489  226.2518 H   0  0  0  0  0  0  0  0  0  0  0  0
  141.4665   67.0668  226.2518 H   0  0  0  0  0  0  0  0  0  0  0  0
  138.4106   67.8820  225.7141 H   0  0  0  0  0  0  0  0  0  0  0  0
  138.4953   69.4725  226.6495 H   0  0  0  0  0  0  0  0  0  0  0  0
  137.7117   69.0124  223.9441 H   0  0  0  0  0  0  0  0  0  0  0  0
  137.7151   70.5196  224.8966 H   0  0  0  0  0  0  0  0  0  0  0  0
  140.4080   69.6060  223.9650 H   0  0  0  0  0  0  0  0  0  0  0  0
  141.5717   71.3165  222.6331 H   0  0  0  0  0  0  0  0  0  0  0  0
  140.5046   71.3240  221.1270 H   0  0  0  0  0  0  0  0  0  0  0  0
  141.3180   73.6150  222.7770 H   0  0  0  0  0  0  0  0  0  0  0  0
  139.9028   75.7064  219.0095 H   0  0  0  0  0  0  0  0  0  0  0  0
  140.2554   78.1329  219.0701 H   0  0  0  0  0  0  0  0  0  0  0  0
  140.9064   80.1289  220.4184 H   0  0  0  0  0  0  0  0  0  0  0  0
  142.0006   79.6252  224.5599 H   0  0  0  0  0  0  0  0  0  0  0  0
  141.5964   77.1636  224.3399 H   0  0  0  0  0  0  0  0  0  0  0  0
  141.6171   69.0451  227.3151 H   0  0  0  0  0  0  0  0  0  0  0  0
  142.4938   70.7635  225.8910 H   0  0  0  0  0  0  0  0  0  0  0  0
  140.9192   71.0274  225.1184 H   0  0  0  0  0  0  0  0  0  0  0  0
  142.1168   72.6909  227.0563 H   0  0  0  0  0  0  0  0  0  0  0  0
  140.4129   72.7529  226.5940 H   0  0  0  0  0  0  0  0  0  0  0  0
  141.7309   71.2636  228.9143 H   0  0  0  0  0  0  0  0  0  0  0  0
  140.2691   72.2040  228.9733 H   0  0  0  0  0  0  0  0  0  0  0  0
  139.9771   69.5455  228.7544 H   0  0  0  0  0  0  0  0  0  0  0  0
  139.0210   70.4642  227.6088 H   0  0  0  0  0  0  0  0  0  0  0  0
  1  2  1  0
  2  3  1  0
  3  4  1  0
  4  5  1  0
  5  6  1  0
  6  7  2  0
  6  8  1  0
  8  9  1  0
  9 10  1  0
 10 11  2  0
 10 12  1  0
 12 13  2  0
 13 14  1  0
 14 15  2  0
 15 16  1  0
 16 17  2  0
 17 18  1  0
 17 19  1  0
 19 20  2  0
 20 21  1  0
 21 22  2  0
  2 23  1  0
 23 24  1  0
 24 25  1  0
 25 26  1  0
 26 27  1  0
 22 12  1  0
 27 23  1  0
 21 15  1  0
  1 28  1  0
  1 29  1  0
  1 30  1  0
  3 31  1  0
  3 32  1  0
  4 33  1  0
  4 34  1  0
  5 35  1  0
  8 36  1  0
  8 37  1  0
  9 38  1  0
 13 39  1  0
 14 40  1  0
 16 41  1  0
 19 42  1  0
 20 43  1  0
 23 44  1  0
 24 45  1  0
 24 46  1  0
 25 47  1  0
 25 48  1  0
 26 49  1  0
 26 50  1  0
 27 51  1  0
 27 52  1  0
M  END
>  <smiles>  (45) 
CN(CCNC(=O)CNC(=O)c1ccc2cc(Cl)ccc2n1)C1CCCC1

>  <score_type>  (45) 
oracle

>  <origin>  (45) 
autodockgpu

>  <m_score__min__energy>  (45) 
-8.4299999999999997

>  <m_primary>  (45) 
energy

>  <rmsd>  (45) 
9.16544241368221

>  <m_score__min__rmsd>  (45) 
9.16544241368221

>  <meeko>  (45) 
{"free_energy": -7.12, "intermolecular_energy": -9.21, "internal_energy": -2.29, "cluster_size": 14, "cluster_id": 3, "rank_in_cluster": 8}

>  <energy>  (45) 
-5.37

>  <cluster_rmsd>  (45) 
0.32

>  <cluster>  (45) 
7

$$$$

     RDKit          3D

 52 54  0  0  0  0  0  0  0  0999 V2000
  145.3270   73.0430  221.4050 C   0  0  0  0  0  0  0  0  0  0  0  0
  144.0700   73.5180  220.7330 N   0  0  0  0  0  0  0  0  0  0  0  0
  144.4220   74.7410  220.0820 C   0  0  0  0  0  0  0  0  0  0  0  0
  143.3350   75.7730  219.9830 C   0  0  0  0  0  0  0  0  0  0  0  0
  142.0600   75.1050  220.2750 N   0  0  0  0  0  0  0  0  0  0  0  0
  140.9200   75.7550  220.7510 C   0  0  0  0  0  0  0  0  0  0  0  0
  140.9520   77.0240  220.9560 O   0  0  0  0  0  0  0  0  0  0  0  0
  139.6180   75.1190  221.0620 C   0  0  0  0  0  0  0  0  0  0  0  0
  139.6510   74.0730  222.0250 N   0  0  0  0  0  0  0  0  0  0  0  0
  140.1830   72.7740  221.8230 C   0  0  0  0  0  0  0  0  0  0  0  0
  140.6830   72.4510  220.7080 O   0  0  0  0  0  0  0  0  0  0  0  0
  140.1460   71.8070  222.9230 C   0  0  0  0  0  0  0  0  0  0  0  0
  139.6560   70.5290  222.7870 C   0  0  0  0  0  0  0  0  0  0  0  0
  139.6160   69.6210  223.8060 C   0  0  0  0  0  0  0  0  0  0  0  0
  140.0990   70.0150  225.0450 C   0  0  0  0  0  0  0  0  0  0  0  0
  140.1010   69.1690  226.1340 C   0  0  0  0  0  0  0  0  0  0  0  0
  140.6000   69.6390  227.3380 C   0  0  0  0  0  0  0  0  0  0  0  0
  140.5900   68.5510  228.7000 Cl  0  0  0  0  0  0  0  0  0  0  0  0
  141.0930   70.8980  227.5120 C   0  0  0  0  0  0  0  0  0  0  0  0
  141.0870   71.7380  226.4120 C   0  0  0  0  0  0  0  0  0  0  0  0
  140.5890   71.2900  225.1850 C   0  0  0  0  0  0  0  0  0  0  0  0
  140.6060   72.1550  224.1400 N   0  0  0  0  0  0  0  0  0  0  0  0
  143.7630   72.4030  219.8600 C   0  0  0  0  0  0  0  0  0  0  0  0
  144.9940   72.0390  219.0490 C   0  0  0  0  0  0  0  0  0  0  0  0
  144.9880   70.5370  218.9220 C   0  0  0  0  0  0  0  0  0  0  0  0
  143.6170   70.1050  219.3700 C   0  0  0  0  0  0  0  0  0  0  0  0
  143.3140   71.1490  220.4630 C   0  0  0  0  0  0  0  0  0  0  0  0
  145.1998   73.0910  222.4966 H   0  0  0  0  0  0  0  0  0  0  0  0
  145.5332   72.0049  221.1052 H   0  0  0  0  0  0  0  0  0  0  0  0
  146.1682   73.6852  221.1052 H   0  0  0  0  0  0  0  0  0  0  0  0
  145.2603   75.1879  220.6366 H   0  0  0  0  0  0  0  0  0  0  0  0
  144.6631   74.4651  219.0448 H   0  0  0  0  0  0  0  0  0  0  0  0
  143.5132   76.5765  220.7128 H   0  0  0  0  0  0  0  0  0  0  0  0
  143.3161   76.2187  218.9775 H   0  0  0  0  0  0  0  0  0  0  0  0
  142.0080   74.0650  220.1230 H   0  0  0  0  0  0  0  0  0  0  0  0
  138.9421   75.9014  221.4375 H   0  0  0  0  0  0  0  0  0  0  0  0
  139.2850   74.6496  220.1246 H   0  0  0  0  0  0  0  0  0  0  0  0
  139.2510   74.2650  222.9740 H   0  0  0  0  0  0  0  0  0  0  0  0
  139.2750   70.2212  221.8021 H   0  0  0  0  0  0  0  0  0  0  0  0
  139.2135   68.6093  223.6493 H   0  0  0  0  0  0  0  0  0  0  0  0
  139.7146   68.1427  226.0486 H   0  0  0  0  0  0  0  0  0  0  0  0
  141.4795   71.2324  228.4861 H   0  0  0  0  0  0  0  0  0  0  0  0
  141.4759   72.7629  226.5037 H   0  0  0  0  0  0  0  0  0  0  0  0
  142.9096   72.7941  219.2866 H   0  0  0  0  0  0  0  0  0  0  0  0
  144.9462   72.5056  218.0540 H   0  0  0  0  0  0  0  0  0  0  0  0
  145.9136   72.3954  219.5362 H   0  0  0  0  0  0  0  0  0  0  0  0
  145.1641   70.2380  217.8781 H   0  0  0  0  0  0  0  0  0  0  0  0
  145.7817   70.0716  219.5250 H   0  0  0  0  0  0  0  0  0  0  0  0
  142.8886   70.1600  218.5475 H   0  0  0  0  0  0  0  0  0  0  0  0
  143.5637   69.0621  219.7157 H   0  0  0  0  0  0  0  0  0  0  0  0
  142.2380   71.1829  220.6888 H   0  0  0  0  0  0  0  0  0  0  0  0
  143.8097   70.9284  221.4199 H   0  0  0  0  0  0  0  0  0  0  0  0
  1  2  1  0
  2  3  1  0
  3  4  1  0
  4  5  1  0
  5  6  1  0
  6  7  2  0
  6  8  1  0
  8  9  1  0
  9 10  1  0
 10 11  2  0
 10 12  1  0
 12 13  2  0
 13 14  1  0
 14 15  2  0
 15 16  1  0
 16 17  2  0
 17 18  1  0
 17 19  1  0
 19 20  2  0
 20 21  1  0
 21 22  2  0
  2 23  1  0
 23 24  1  0
 24 25  1  0
 25 26  1  0
 26 27  1  0
 22 12  1  0
 27 23  1  0
 21 15  1  0
  1 28  1  0
  1 29  1  0
  1 30  1  0
  3 31  1  0
  3 32  1  0
  4 33  1  0
  4 34  1  0
  5 35  1  0
  8 36  1  0
  8 37  1  0
  9 38  1  0
 13 39  1  0
 14 40  1  0
 16 41  1  0
 19 42  1  0
 20 43  1  0
 23 44  1  0
 24 45  1  0
 24 46  1  0
 25 47  1  0
 25 48  1  0
 26 49  1  0
 26 50  1  0
 27 51  1  0
 27 52  1  0
M  END
>  <smiles>  (46) 
CN(CCNC(=O)CNC(=O)c1ccc2cc(Cl)ccc2n1)C1CCCC1

>  <score_type>  (46) 
oracle

>  <origin>  (46) 
autodockgpu

>  <m_score__min__energy>  (46) 
-8.4299999999999997

>  <m_primary>  (46) 
energy

>  <rmsd>  (46) 
5.735793000892084

>  <m_score__min__rmsd>  (46) 
5.735793000892084

>  <meeko>  (46) 
{"free_energy": -6.72, "intermolecular_energy": -8.8, "internal_energy": -3.06, "cluster_size": 4, "cluster_id": 5, "rank_in_cluster": 2}

>  <energy>  (46) 
-5.27

>  <cluster_rmsd>  (46) 
0.58

>  <cluster>  (46) 
7

$$$$

     RDKit          3D

 52 54  0  0  0  0  0  0  0  0999 V2000
  141.6880   80.0270  219.2580 C   0  0  0  0  0  0  0  0  0  0  0  0
  141.4030   79.0640  220.3760 N   0  0  0  0  0  0  0  0  0  0  0  0
  142.1250   77.8740  220.0500 C   0  0  0  0  0  0  0  0  0  0  0  0
  141.5240   76.5850  220.5310 C   0  0  0  0  0  0  0  0  0  0  0  0
  140.1560   76.8730  220.9820 N   0  0  0  0  0  0  0  0  0  0  0  0
  139.4210   76.0570  221.8440 C   0  0  0  0  0  0  0  0  0  0  0  0
  139.9480   74.9750  222.2960 O   0  0  0  0  0  0  0  0  0  0  0  0
  138.0400   76.3080  222.3190 C   0  0  0  0  0  0  0  0  0  0  0  0
  137.7820   77.6130  222.8220 N   0  0  0  0  0  0  0  0  0  0  0  0
  137.8690   78.8210  222.0830 C   0  0  0  0  0  0  0  0  0  0  0  0
  138.2050   78.8060  220.8650 O   0  0  0  0  0  0  0  0  0  0  0  0
  137.5640   80.0900  222.7500 C   0  0  0  0  0  0  0  0  0  0  0  0
  137.4430   81.2840  222.0780 C   0  0  0  0  0  0  0  0  0  0  0  0
  137.1610   82.4710  222.6900 C   0  0  0  0  0  0  0  0  0  0  0  0
  136.9860   82.4660  224.0670 C   0  0  0  0  0  0  0  0  0  0  0  0
  136.6980   83.6150  224.7730 C   0  0  0  0  0  0  0  0  0  0  0  0
  136.5380   83.5260  226.1470 C   0  0  0  0  0  0  0  0  0  0  0  0
  136.1760   84.9920  227.0180 Cl  0  0  0  0  0  0  0  0  0  0  0  0
  136.6510   82.3610  226.8470 C   0  0  0  0  0  0  0  0  0  0  0  0
  136.9390   81.2160  226.1270 C   0  0  0  0  0  0  0  0  0  0  0  0
  137.1060   81.2760  224.7410 C   0  0  0  0  0  0  0  0  0  0  0  0
  137.3890   80.1220  224.0850 N   0  0  0  0  0  0  0  0  0  0  0  0
  141.8840   79.8000  221.5270 C   0  0  0  0  0  0  0  0  0  0  0  0
  140.8700   80.8620  221.9120 C   0  0  0  0  0  0  0  0  0  0  0  0
  140.8770   80.9290  223.4170 C   0  0  0  0  0  0  0  0  0  0  0  0
  142.0980   80.1580  223.8450 C   0  0  0  0  0  0  0  0  0  0  0  0
  142.1570   79.0630  222.7600 C   0  0  0  0  0  0  0  0  0  0  0  0
  141.9765   81.0018  219.6783 H   0  0  0  0  0  0  0  0  0  0  0  0
  142.5093   79.6372  218.6387 H   0  0  0  0  0  0  0  0  0  0  0  0
  140.7868   80.1469  218.6387 H   0  0  0  0  0  0  0  0  0  0  0  0
  142.2056   77.8192  218.9543 H   0  0  0  0  0  0  0  0  0  0  0  0
  143.0906   77.9622  220.5695 H   0  0  0  0  0  0  0  0  0  0  0  0
  141.5020   75.8524  219.7107 H   0  0  0  0  0  0  0  0  0  0  0  0
  142.1210   76.1639  221.3534 H   0  0  0  0  0  0  0  0  0  0  0  0
  139.6980   77.7490  220.6220 H   0  0  0  0  0  0  0  0  0  0  0  0
  137.3564   76.1310  221.4755 H   0  0  0  0  0  0  0  0  0  0  0  0
  137.8902   75.6269  223.1697 H   0  0  0  0  0  0  0  0  0  0  0  0
  137.5000   77.7060  223.8270 H   0  0  0  0  0  0  0  0  0  0  0  0
  137.5812   81.2822  220.9867 H   0  0  0  0  0  0  0  0  0  0  0  0
  137.0751   83.4020  222.1104 H   0  0  0  0  0  0  0  0  0  0  0  0
  136.5974   84.5812  224.2570 H   0  0  0  0  0  0  0  0  0  0  0  0
  136.5186   82.3333  227.9387 H   0  0  0  0  0  0  0  0  0  0  0  0
  137.0372   80.2524  226.6484 H   0  0  0  0  0  0  0  0  0  0  0  0
  142.8541   80.1728  221.1665 H   0  0  0  0  0  0  0  0  0  0  0  0
  141.1573   81.8348  221.4863 H   0  0  0  0  0  0  0  0  0  0  0  0
  139.8690   80.6163  221.5278 H   0  0  0  0  0  0  0  0  0  0  0  0
  140.9429   81.9735  223.7556 H   0  0  0  0  0  0  0  0  0  0  0  0
  139.9562   80.5109  223.8498 H   0  0  0  0  0  0  0  0  0  0  0  0
  142.9989   80.7891  223.8301 H   0  0  0  0  0  0  0  0  0  0  0  0
  142.0502   79.7718  224.8739 H   0  0  0  0  0  0  0  0  0  0  0  0
  143.1512   78.5934  222.7270 H   0  0  0  0  0  0  0  0  0  0  0  0
  141.4479   78.2410  222.9374 H   0  0  0  0  0  0  0  0  0  0  0  0
  1  2  1  0
  2  3  1  0
  3  4  1  0
  4  5  1  0
  5  6  1  0
  6  7  2  0
  6  8  1  0
  8  9  1  0
  9 10  1  0
 10 11  2  0
 10 12  1  0
 12 13  2  0
 13 14  1  0
 14 15  2  0
 15 16  1  0
 16 17  2  0
 17 18  1  0
 17 19  1  0
 19 20  2  0
 20 21  1  0
 21 22  2  0
  2 23  1  0
 23 24  1  0
 24 25  1  0
 25 26  1  0
 26 27  1  0
 22 12  1  0
 27 23  1  0
 21 15  1  0
  1 28  1  0
  1 29  1  0
  1 30  1  0
  3 31  1  0
  3 32  1  0
  4 33  1  0
  4 34  1  0
  5 35  1  0
  8 36  1  0
  8 37  1  0
  9 38  1  0
 13 39  1  0
 14 40  1  0
 16 41  1  0
 19 42  1  0
 20 43  1  0
 23 44  1  0
 24 45  1  0
 24 46  1  0
 25 47  1  0
 25 48  1  0
 26 49  1  0
 26 50  1  0
 27 51  1  0
 27 52  1  0
M  END
>  <smiles>  (47) 
CN(CCNC(=O)CNC(=O)c1ccc2cc(Cl)ccc2n1)C1CCCC1

>  <score_type>  (47) 
oracle

>  <origin>  (47) 
autodockgpu

>  <m_score__min__energy>  (47) 
-8.4299999999999997

>  <m_primary>  (47) 
energy

>  <rmsd>  (47) 
8.72352686483693

>  <m_score__min__rmsd>  (47) 
8.72352686483693

>  <meeko>  (47) 
{"free_energy": -5.38, "intermolecular_energy": -7.46, "internal_energy": -3.99, "cluster_size": 8, "cluster_id": 7, "rank_in_cluster": 2}

>  <energy>  (47) 
-5.27

>  <cluster_rmsd>  (47) 
0.28

>  <cluster>  (47) 
7

$$$$

     RDKit          3D

 52 54  0  0  0  0  0  0  0  0999 V2000
  138.1920   79.8040  223.3220 C   0  0  0  0  0  0  0  0  0  0  0  0
  139.2900   78.8050  223.5550 N   0  0  0  0  0  0  0  0  0  0  0  0
  139.3250   77.9920  222.3800 C   0  0  0  0  0  0  0  0  0  0  0  0
  138.3510   76.8490  222.3390 C   0  0  0  0  0  0  0  0  0  0  0  0
  139.1210   75.6160  222.1300 N   0  0  0  0  0  0  0  0  0  0  0  0
  140.1060   75.4560  221.1540 C   0  0  0  0  0  0  0  0  0  0  0  0
  140.3860   76.4360  220.3690 O   0  0  0  0  0  0  0  0  0  0  0  0
  140.9020   74.2300  220.9070 C   0  0  0  0  0  0  0  0  0  0  0  0
  140.8440   73.2370  221.9220 N   0  0  0  0  0  0  0  0  0  0  0  0
  139.6750   72.5710  222.3690 C   0  0  0  0  0  0  0  0  0  0  0  0
  138.5490   72.8420  221.8650 O   0  0  0  0  0  0  0  0  0  0  0  0
  139.7870   71.5630  223.4270 C   0  0  0  0  0  0  0  0  0  0  0  0
  139.4030   70.2520  223.2630 C   0  0  0  0  0  0  0  0  0  0  0  0
  139.5030   69.3060  224.2420 C   0  0  0  0  0  0  0  0  0  0  0  0
  140.0220   69.6940  225.4680 C   0  0  0  0  0  0  0  0  0  0  0  0
  140.1610   68.8100  226.5180 C   0  0  0  0  0  0  0  0  0  0  0  0
  140.6880   69.2760  227.7110 C   0  0  0  0  0  0  0  0  0  0  0  0
  140.8530   68.1400  229.0230 Cl  0  0  0  0  0  0  0  0  0  0  0  0
  141.0790   70.5670  227.9120 C   0  0  0  0  0  0  0  0  0  0  0  0
  140.9350   71.4440  226.8520 C   0  0  0  0  0  0  0  0  0  0  0  0
  140.4060   71.0010  225.6370 C   0  0  0  0  0  0  0  0  0  0  0  0
  140.2860   71.9040  224.6310 N   0  0  0  0  0  0  0  0  0  0  0  0
  140.4350   79.6690  223.7600 C   0  0  0  0  0  0  0  0  0  0  0  0
  141.7040   78.8350  223.7860 C   0  0  0  0  0  0  0  0  0  0  0  0
  142.7650   79.6570  223.1030 C   0  0  0  0  0  0  0  0  0  0  0  0
  142.1870   81.0430  222.9920 C   0  0  0  0  0  0  0  0  0  0  0  0
  140.6910   80.7290  222.7850 C   0  0  0  0  0  0  0  0  0  0  0  0
  137.8051   80.1560  224.2897 H   0  0  0  0  0  0  0  0  0  0  0  0
  138.5880   80.6580  222.7529 H   0  0  0  0  0  0  0  0  0  0  0  0
  137.3791   79.3293  222.7529 H   0  0  0  0  0  0  0  0  0  0  0  0
  139.1187   78.6407  221.5160 H   0  0  0  0  0  0  0  0  0  0  0  0
  140.3234   77.5304  222.3692 H   0  0  0  0  0  0  0  0  0  0  0  0
  137.8008   76.7909  223.2897 H   0  0  0  0  0  0  0  0  0  0  0  0
  137.6225   76.9915  221.5273 H   0  0  0  0  0  0  0  0  0  0  0  0
  138.9080   74.7960  222.7540 H   0  0  0  0  0  0  0  0  0  0  0  0
  140.5417   73.7771  219.9715 H   0  0  0  0  0  0  0  0  0  0  0  0
  141.9512   74.5585  220.8718 H   0  0  0  0  0  0  0  0  0  0  0  0
  141.7400   72.9600  222.3900 H   0  0  0  0  0  0  0  0  0  0  0  0
  138.9924   69.9493  222.2884 H   0  0  0  0  0  0  0  0  0  0  0  0
  139.1821   68.2690  224.0641 H   0  0  0  0  0  0  0  0  0  0  0  0
  139.8597   67.7576  226.4100 H   0  0  0  0  0  0  0  0  0  0  0  0
  141.4916   70.8971  228.8768 H   0  0  0  0  0  0  0  0  0  0  0  0
  141.2384   72.4952  226.9661 H   0  0  0  0  0  0  0  0  0  0  0  0
  140.1723   80.1707  224.7030 H   0  0  0  0  0  0  0  0  0  0  0  0
  141.9977   78.6210  224.8242 H   0  0  0  0  0  0  0  0  0  0  0  0
  141.5582   77.8699  223.2788 H   0  0  0  0  0  0  0  0  0  0  0  0
  143.6867   79.6713  223.7033 H   0  0  0  0  0  0  0  0  0  0  0  0
  143.0315   79.2448  222.1186 H   0  0  0  0  0  0  0  0  0  0  0  0
  142.3534   81.6238  223.9112 H   0  0  0  0  0  0  0  0  0  0  0  0
  142.6338   81.6557  222.1952 H   0  0  0  0  0  0  0  0  0  0  0  0
  140.0700   81.6132  222.9912 H   0  0  0  0  0  0  0  0  0  0  0  0
  140.4505   80.4337  221.7530 H   0  0  0  0  0  0  0  0  0  0  0  0
  1  2  1  0
  2  3  1  0
  3  4  1  0
  4  5  1  0
  5  6  1  0
  6  7  2  0
  6  8  1  0
  8  9  1  0
  9 10  1  0
 10 11  2  0
 10 12  1  0
 12 13  2  0
 13 14  1  0
 14 15  2  0
 15 16  1  0
 16 17  2  0
 17 18  1  0
 17 19  1  0
 19 20  2  0
 20 21  1  0
 21 22  2  0
  2 23  1  0
 23 24  1  0
 24 25  1  0
 25 26  1  0
 26 27  1  0
 22 12  1  0
 27 23  1  0
 21 15  1  0
  1 28  1  0
  1 29  1  0
  1 30  1  0
  3 31  1  0
  3 32  1  0
  4 33  1  0
  4 34  1  0
  5 35  1  0
  8 36  1  0
  8 37  1  0
  9 38  1  0
 13 39  1  0
 14 40  1  0
 16 41  1  0
 19 42  1  0
 20 43  1  0
 23 44  1  0
 24 45  1  0
 24 46  1  0
 25 47  1  0
 25 48  1  0
 26 49  1  0
 26 50  1  0
 27 51  1  0
 27 52  1  0
M  END
>  <smiles>  (48) 
CN(CCNC(=O)CNC(=O)c1ccc2cc(Cl)ccc2n1)C1CCCC1

>  <score_type>  (48) 
oracle

>  <origin>  (48) 
autodockgpu

>  <m_score__min__energy>  (48) 
-8.4299999999999997

>  <m_primary>  (48) 
energy

>  <rmsd>  (48) 
5.365758447065013

>  <m_score__min__rmsd>  (48) 
5.365758447065013

>  <meeko>  (48) 
{"free_energy": -7.93, "intermolecular_energy": -10.02, "internal_energy": -1.78, "cluster_size": 21, "cluster_id": 1, "rank_in_cluster": 6}

>  <energy>  (48) 
-5.24

>  <cluster_rmsd>  (48) 
0.6

>  <cluster>  (48) 
7

$$$$

     RDKit          3D

 52 54  0  0  0  0  0  0  0  0999 V2000
  139.4750   77.6780  220.9020 C   0  0  0  0  0  0  0  0  0  0  0  0
  140.7280   77.4300  221.6930 N   0  0  0  0  0  0  0  0  0  0  0  0
  141.8070   77.7700  220.8190 C   0  0  0  0  0  0  0  0  0  0  0  0
  142.4540   76.6260  220.0940 C   0  0  0  0  0  0  0  0  0  0  0  0
  141.4730   75.5360  220.0180 N   0  0  0  0  0  0  0  0  0  0  0  0
  141.7210   74.2890  219.4400 C   0  0  0  0  0  0  0  0  0  0  0  0
  142.8770   74.0440  218.9340 O   0  0  0  0  0  0  0  0  0  0  0  0
  140.7600   73.1650  219.3390 C   0  0  0  0  0  0  0  0  0  0  0  0
  140.5700   72.4010  220.5230 N   0  0  0  0  0  0  0  0  0  0  0  0
  140.2260   72.9150  221.7990 C   0  0  0  0  0  0  0  0  0  0  0  0
  140.0630   74.1560  221.9680 O   0  0  0  0  0  0  0  0  0  0  0  0
  140.0610   71.9880  222.9220 C   0  0  0  0  0  0  0  0  0  0  0  0
  139.3000   70.8440  222.8500 C   0  0  0  0  0  0  0  0  0  0  0  0
  139.1400   69.9750  223.8900 C   0  0  0  0  0  0  0  0  0  0  0  0
  139.7850   70.2660  225.0840 C   0  0  0  0  0  0  0  0  0  0  0  0
  139.6840   69.4490  226.1900 C   0  0  0  0  0  0  0  0  0  0  0  0
  140.3580   69.8100  227.3450 C   0  0  0  0  0  0  0  0  0  0  0  0
  140.2140   68.7610  228.7300 Cl  0  0  0  0  0  0  0  0  0  0  0  0
  141.1220   70.9340  227.4540 C   0  0  0  0  0  0  0  0  0  0  0  0
  141.2160   71.7460  226.3380 C   0  0  0  0  0  0  0  0  0  0  0  0
  140.5460   71.4060  225.1600 C   0  0  0  0  0  0  0  0  0  0  0  0
  140.6720   72.2390  224.0960 N   0  0  0  0  0  0  0  0  0  0  0  0
  140.5360   78.3070  222.8300 C   0  0  0  0  0  0  0  0  0  0  0  0
  141.8860   78.7500  223.3650 C   0  0  0  0  0  0  0  0  0  0  0  0
  141.7190   80.1810  223.8040 C   0  0  0  0  0  0  0  0  0  0  0  0
  140.2330   80.4240  223.8160 C   0  0  0  0  0  0  0  0  0  0  0  0
  139.7750   79.5400  222.6390 C   0  0  0  0  0  0  0  0  0  0  0  0
  138.6336   77.8445  221.5907 H   0  0  0  0  0  0  0  0  0  0  0  0
  139.6114   78.5666  220.2681 H   0  0  0  0  0  0  0  0  0  0  0  0
  139.2626   76.8045  220.2681 H   0  0  0  0  0  0  0  0  0  0  0  0
  141.4204   78.4708  220.0644 H   0  0  0  0  0  0  0  0  0  0  0  0
  142.5905   78.1911  221.4662 H   0  0  0  0  0  0  0  0  0  0  0  0
  142.7444   76.9404  219.0807 H   0  0  0  0  0  0  0  0  0  0  0  0
  143.3587   76.2948  220.6248 H   0  0  0  0  0  0  0  0  0  0  0  0
  140.5160   75.7120  220.4180 H   0  0  0  0  0  0  0  0  0  0  0  0
  139.7846   73.5810  219.0464 H   0  0  0  0  0  0  0  0  0  0  0  0
  141.1912   72.4704  218.6030 H   0  0  0  0  0  0  0  0  0  0  0  0
  140.6910   71.3610  220.4610 H   0  0  0  0  0  0  0  0  0  0  0  0
  138.7921   70.6171  221.9010 H   0  0  0  0  0  0  0  0  0  0  0  0
  138.5196   69.0727  223.7853 H   0  0  0  0  0  0  0  0  0  0  0  0
  139.0808   68.5298  226.1559 H   0  0  0  0  0  0  0  0  0  0  0  0
  141.6420   71.1847  228.3904 H   0  0  0  0  0  0  0  0  0  0  0  0
  141.8211   72.6637  226.3782 H   0  0  0  0  0  0  0  0  0  0  0  0
  139.9379   77.6742  223.5022 H   0  0  0  0  0  0  0  0  0  0  0  0
  142.1820   78.1221  224.2183 H   0  0  0  0  0  0  0  0  0  0  0  0
  142.6696   78.6562  222.5987 H   0  0  0  0  0  0  0  0  0  0  0  0
  142.1411   80.3271  224.8092 H   0  0  0  0  0  0  0  0  0  0  0  0
  142.2425   80.8786  223.1337 H   0  0  0  0  0  0  0  0  0  0  0  0
  139.7792   80.0996  224.7641 H   0  0  0  0  0  0  0  0  0  0  0  0
  139.9480   81.4824  223.7230 H   0  0  0  0  0  0  0  0  0  0  0  0
  138.6931   79.3472  222.6884 H   0  0  0  0  0  0  0  0  0  0  0  0
  139.9482   80.0056  221.6576 H   0  0  0  0  0  0  0  0  0  0  0  0
  1  2  1  0
  2  3  1  0
  3  4  1  0
  4  5  1  0
  5  6  1  0
  6  7  2  0
  6  8  1  0
  8  9  1  0
  9 10  1  0
 10 11  2  0
 10 12  1  0
 12 13  2  0
 13 14  1  0
 14 15  2  0
 15 16  1  0
 16 17  2  0
 17 18  1  0
 17 19  1  0
 19 20  2  0
 20 21  1  0
 21 22  2  0
  2 23  1  0
 23 24  1  0
 24 25  1  0
 25 26  1  0
 26 27  1  0
 22 12  1  0
 27 23  1  0
 21 15  1  0
  1 28  1  0
  1 29  1  0
  1 30  1  0
  3 31  1  0
  3 32  1  0
  4 33  1  0
  4 34  1  0
  5 35  1  0
  8 36  1  0
  8 37  1  0
  9 38  1  0
 13 39  1  0
 14 40  1  0
 16 41  1  0
 19 42  1  0
 20 43  1  0
 23 44  1  0
 24 45  1  0
 24 46  1  0
 25 47  1  0
 25 48  1  0
 26 49  1  0
 26 50  1  0
 27 51  1  0
 27 52  1  0
M  END
>  <smiles>  (49) 
CN(CCNC(=O)CNC(=O)c1ccc2cc(Cl)ccc2n1)C1CCCC1

>  <score_type>  (49) 
oracle

>  <origin>  (49) 
autodockgpu

>  <m_score__min__energy>  (49) 
-8.4299999999999997

>  <m_primary>  (49) 
energy

>  <rmsd>  (49) 
5.148619636208898

>  <m_score__min__rmsd>  (49) 
5.148619636208898

>  <meeko>  (49) 
{"free_energy": -7.05, "intermolecular_energy": -9.13, "internal_energy": -2.41, "cluster_size": 21, "cluster_id": 1, "rank_in_cluster": 19}

>  <energy>  (49) 
-5.22

>  <cluster_rmsd>  (49) 
0.62

>  <cluster>  (49) 
7

$$$$

     RDKit          3D

 52 54  0  0  0  0  0  0  0  0999 V2000
  141.8530   77.6630  220.1470 C   0  0  0  0  0  0  0  0  0  0  0  0
  140.9950   78.1410  221.2830 N   0  0  0  0  0  0  0  0  0  0  0  0
  140.5950   76.9610  221.9840 C   0  0  0  0  0  0  0  0  0  0  0  0
  139.1330   76.8490  222.3080 C   0  0  0  0  0  0  0  0  0  0  0  0
  138.7430   75.4450  222.1250 N   0  0  0  0  0  0  0  0  0  0  0  0
  138.4650   74.8570  220.8900 C   0  0  0  0  0  0  0  0  0  0  0  0
  138.5480   75.5630  219.8190 O   0  0  0  0  0  0  0  0  0  0  0  0
  138.0640   73.4480  220.6620 C   0  0  0  0  0  0  0  0  0  0  0  0
  138.3890   72.5340  221.7030 N   0  0  0  0  0  0  0  0  0  0  0  0
  139.5590   72.5660  222.5030 C   0  0  0  0  0  0  0  0  0  0  0  0
  140.4360   73.4580  222.3230 O   0  0  0  0  0  0  0  0  0  0  0  0
  139.7420   71.5490  223.5420 C   0  0  0  0  0  0  0  0  0  0  0  0
  139.4320   70.2210  223.3610 C   0  0  0  0  0  0  0  0  0  0  0  0
  139.5980   69.2670  224.3220 C   0  0  0  0  0  0  0  0  0  0  0  0
  140.1100   69.6650  225.5490 C   0  0  0  0  0  0  0  0  0  0  0  0
  140.3130   68.7740  226.5820 C   0  0  0  0  0  0  0  0  0  0  0  0
  140.8280   69.2500  227.7770 C   0  0  0  0  0  0  0  0  0  0  0  0
  141.0750   68.1050  229.0680 Cl  0  0  0  0  0  0  0  0  0  0  0  0
  141.1470   70.5580  227.9940 C   0  0  0  0  0  0  0  0  0  0  0  0
  140.9390   71.4420  226.9510 C   0  0  0  0  0  0  0  0  0  0  0  0
  140.4210   70.9890  225.7340 C   0  0  0  0  0  0  0  0  0  0  0  0
  140.2370   71.8990  224.7450 N   0  0  0  0  0  0  0  0  0  0  0  0
  141.9050   79.0190  221.9900 C   0  0  0  0  0  0  0  0  0  0  0  0
  141.6150   80.4620  221.6160 C   0  0  0  0  0  0  0  0  0  0  0  0
  141.8210   81.2730  222.8680 C   0  0  0  0  0  0  0  0  0  0  0  0
  142.5250   80.3520  223.8300 C   0  0  0  0  0  0  0  0  0  0  0  0
  141.9040   78.9920  223.4520 C   0  0  0  0  0  0  0  0  0  0  0  0
  142.7478   77.1645  220.5479 H   0  0  0  0  0  0  0  0  0  0  0  0
  141.2827   76.9526  219.5305 H   0  0  0  0  0  0  0  0  0  0  0  0
  142.1569   78.5218  219.5305 H   0  0  0  0  0  0  0  0  0  0  0  0
  140.8697   76.0935  221.3660 H   0  0  0  0  0  0  0  0  0  0  0  0
  141.1104   77.0049  222.9548 H   0  0  0  0  0  0  0  0  0  0  0  0
  138.9553   77.1548  223.3496 H   0  0  0  0  0  0  0  0  0  0  0  0
  138.5409   77.5028  221.6508 H   0  0  0  0  0  0  0  0  0  0  0  0
  138.6600   74.8460  222.9860 H   0  0  0  0  0  0  0  0  0  0  0  0
  136.9731   73.4262  220.5226 H   0  0  0  0  0  0  0  0  0  0  0  0
  138.6350   73.1141  219.7831 H   0  0  0  0  0  0  0  0  0  0  0  0
  137.7090   71.7640  221.9090 H   0  0  0  0  0  0  0  0  0  0  0  0
  139.0274   69.9108  222.3863 H   0  0  0  0  0  0  0  0  0  0  0  0
  139.3346   68.2163  224.1305 H   0  0  0  0  0  0  0  0  0  0  0  0
  140.0711   67.7079  226.4598 H   0  0  0  0  0  0  0  0  0  0  0  0
  141.5530   70.8960  228.9588 H   0  0  0  0  0  0  0  0  0  0  0  0
  141.1823   72.5070  227.0796 H   0  0  0  0  0  0  0  0  0  0  0  0
  142.8839   78.6301  221.6729 H   0  0  0  0  0  0  0  0  0  0  0  0
  142.3049   80.7970  220.8274 H   0  0  0  0  0  0  0  0  0  0  0  0
  140.5916   80.5767  221.2293 H   0  0  0  0  0  0  0  0  0  0  0  0
  142.4417   82.1562  222.6566 H   0  0  0  0  0  0  0  0  0  0  0  0
  140.8691   81.6422  223.2775 H   0  0  0  0  0  0  0  0  0  0  0  0
  143.6132   80.3568  223.6694 H   0  0  0  0  0  0  0  0  0  0  0  0
  142.4024   80.6256  224.8884 H   0  0  0  0  0  0  0  0  0  0  0  0
  142.5154   78.1601  223.8316 H   0  0  0  0  0  0  0  0  0  0  0  0
  140.9019   78.8415  223.8800 H   0  0  0  0  0  0  0  0  0  0  0  0
  1  2  1  0
  2  3  1  0
  3  4  1  0
  4  5  1  0
  5  6  1  0
  6  7  2  0
  6  8  1  0
  8  9  1  0
  9 10  1  0
 10 11  2  0
 10 12  1  0
 12 13  2  0
 13 14  1  0
 14 15  2  0
 15 16  1  0
 16 17  2  0
 17 18  1  0
 17 19  1  0
 19 20  2  0
 20 21  1  0
 21 22  2  0
  2 23  1  0
 23 24  1  0
 24 25  1  0
 25 26  1  0
 26 27  1  0
 22 12  1  0
 27 23  1  0
 21 15  1  0
  1 28  1  0
  1 29  1  0
  1 30  1  0
  3 31  1  0
  3 32  1  0
  4 33  1  0
  4 34  1  0
  5 35  1  0
  8 36  1  0
  8 37  1  0
  9 38  1  0
 13 39  1  0
 14 40  1  0
 16 41  1  0
 19 42  1  0
 20 43  1  0
 23 44  1  0
 24 45  1  0
 24 46  1  0
 25 47  1  0
 25 48  1  0
 26 49  1  0
 26 50  1  0
 27 51  1  0
 27 52  1  0
M  END
>  <smiles>  (50) 
CN(CCNC(=O)CNC(=O)c1ccc2cc(Cl)ccc2n1)C1CCCC1

>  <score_type>  (50) 
oracle

>  <origin>  (50) 
autodockgpu

>  <m_score__min__energy>  (50) 
-8.4299999999999997

>  <m_primary>  (50) 
energy

>  <rmsd>  (50) 
4.8494072576682985

>  <m_score__min__rmsd>  (50) 
4.8494072576682985

>  <meeko>  (50) 
{"free_energy": -8.43, "intermolecular_energy": -10.52, "internal_energy": -1.46, "cluster_size": 21, "cluster_id": 1, "rank_in_cluster": 1}

>  <energy>  (50) 
-5.18

>  <cluster_rmsd>  (50) 
0.65

>  <cluster>  (50) 
7

$$$$
