
     RDKit          3D

 56 59  0  0  0  0  0  0  0  0999 V2000
  138.9560   70.7430  221.5970 O   0  0  0  0  0  0  0  0  0  0  0  0
  139.3490   71.2630  222.6700 C   0  0  0  0  0  0  0  0  0  0  0  0
  139.6190   72.6800  222.7260 N   0  0  0  0  0  0  0  0  0  0  0  0
  139.4940   73.5810  221.6580 C   0  0  0  0  0  0  0  0  0  0  0  0
  140.5260   73.8360  220.6880 C   0  0  0  0  0  0  0  0  0  0  0  0
  140.4220   73.0790  219.6200 O   0  0  0  0  0  0  0  0  0  0  0  0
  141.6080   74.7260  220.6460 N   0  0  0  0  0  0  0  0  0  0  0  0
  143.0170   74.3010  220.5380 C   0  0  0  0  0  0  0  0  0  0  0  0
  143.5420   74.8640  219.2480 C   0  0  0  0  0  0  0  0  0  0  0  0
  143.5510   76.3860  219.4520 C   0  0  0  0  0  0  0  0  0  0  0  0
  142.0940   76.8390  219.5330 C   0  0  0  0  0  0  0  0  0  0  0  0
  141.4640   76.1940  220.7230 C   0  0  1  0  0  0  0  0  0  0  0  0
  140.1290   76.6900  221.1250 C   0  0  0  0  0  0  0  0  0  0  0  0
  140.2460   77.3930  222.4150 N   0  0  0  0  0  0  0  0  0  0  0  0
  141.0240   78.5430  222.6250 C   0  0  0  0  0  0  0  0  0  0  0  0
  141.0820   79.5110  221.6130 C   0  0  0  0  0  0  0  0  0  0  0  0
  141.8530   80.6410  221.7450 C   0  0  0  0  0  0  0  0  0  0  0  0
  142.6090   80.8900  222.8680 C   0  0  0  0  0  0  0  0  0  0  0  0
  142.5650   79.9480  223.8730 C   0  0  0  0  0  0  0  0  0  0  0  0
  141.7860   78.8090  223.7360 C   0  0  0  0  0  0  0  0  0  0  0  0
  139.5350   70.4240  223.8720 C   0  0  0  0  0  0  0  0  0  0  0  0
  139.1100   69.1140  223.8370 C   0  0  0  0  0  0  0  0  0  0  0  0
  139.2730   68.3040  224.9530 C   0  0  0  0  0  0  0  0  0  0  0  0
  139.8650   68.8200  226.1060 C   0  0  0  0  0  0  0  0  0  0  0  0
  140.0450   68.0520  227.2320 C   0  0  0  0  0  0  0  0  0  0  0  0
  140.6430   68.6560  228.3260 C   0  0  0  0  0  0  0  0  0  0  0  0
  140.8490   67.9510  229.4700 F   0  0  0  0  0  0  0  0  0  0  0  0
  141.0470   69.9660  228.3060 C   0  0  0  0  0  0  0  0  0  0  0  0
  140.8670   70.7380  227.1760 C   0  0  0  0  0  0  0  0  0  0  0  0
  140.2740   70.1510  226.0830 C   0  0  0  0  0  0  0  0  0  0  0  0
  140.1070   70.9180  224.9890 N   0  0  0  0  0  0  0  0  0  0  0  0
  139.9350   73.0040  223.6920 H   0  0  0  0  0  0  0  0  0  0  0  0
  138.6224   73.2384  221.0810 H   0  0  0  0  0  0  0  0  0  0  0  0
  139.4769   74.5394  222.1977 H   0  0  0  0  0  0  0  0  0  0  0  0
  143.5970   74.6933  221.3863 H   0  0  0  0  0  0  0  0  0  0  0  0
  143.1010   73.2043  220.5534 H   0  0  0  0  0  0  0  0  0  0  0  0
  144.5591   74.4945  219.0507 H   0  0  0  0  0  0  0  0  0  0  0  0
  142.9258   74.5666  218.3867 H   0  0  0  0  0  0  0  0  0  0  0  0
  144.0766   76.6382  220.3848 H   0  0  0  0  0  0  0  0  0  0  0  0
  144.0708   76.8883  218.6228 H   0  0  0  0  0  0  0  0  0  0  0  0
  142.0507   77.9332  219.6373 H   0  0  0  0  0  0  0  0  0  0  0  0
  141.5571   76.5486  218.6179 H   0  0  0  0  0  0  0  0  0  0  0  0
  142.0415   76.5360  221.5945 H   0  0  0  0  0  0  0  0  0  0  0  0
  139.7477   77.3831  220.3607 H   0  0  0  0  0  0  0  0  0  0  0  0
  139.4331   75.8440  221.2249 H   0  0  0  0  0  0  0  0  0  0  0  0
  139.7020   76.9830  223.2070 H   0  0  0  0  0  0  0  0  0  0  0  0
  140.4976   79.3630  220.6929 H   0  0  0  0  0  0  0  0  0  0  0  0
  141.8664   81.3727  220.9237 H   0  0  0  0  0  0  0  0  0  0  0  0
  143.2206   81.7997  222.9592 H   0  0  0  0  0  0  0  0  0  0  0  0
  143.1521   80.1008  224.7906 H   0  0  0  0  0  0  0  0  0  0  0  0
  141.7780   78.0806  224.5602 H   0  0  0  0  0  0  0  0  0  0  0  0
  138.6424   68.7105  222.9268 H   0  0  0  0  0  0  0  0  0  0  0  0
  138.9359   67.2572  224.9280 H   0  0  0  0  0  0  0  0  0  0  0  0
  139.7268   66.9995  227.2630 H   0  0  0  0  0  0  0  0  0  0  0  0
  141.5183   70.4053  229.1976 H   0  0  0  0  0  0  0  0  0  0  0  0
  141.1879   71.7898  227.1506 H   0  0  0  0  0  0  0  0  0  0  0  0
  1  2  2  0
  2  3  1  0
  3  4  1  0
  4  5  1  0
  5  6  2  0
  5  7  1  0
  7  8  1  0
  8  9  1  0
  9 10  1  0
 10 11  1  0
 11 12  1  0
 12 13  1  0
 13 14  1  0
 14 15  1  0
 15 16  2  0
 16 17  1  0
 17 18  2  0
 18 19  1  0
 19 20  2  0
  2 21  1  0
 21 22  2  0
 22 23  1  0
 23 24  2  0
 24 25  1  0
 25 26  2  0
 26 27  1  0
 26 28  1  0
 28 29  2  0
 29 30  1  0
 30 31  2  0
 12  7  1  0
 20 15  1  0
 31 21  1  0
 30 24  1  0
  3 32  1  0
  4 33  1  0
  4 34  1  0
  8 35  1  0
  8 36  1  0
  9 37  1  0
  9 38  1  0
 10 39  1  0
 10 40  1  0
 11 41  1  0
 11 42  1  0
 12 43  1  1
 13 44  1  0
 13 45  1  0
 14 46  1  0
 16 47  1  0
 17 48  1  0
 18 49  1  0
 19 50  1  0
 20 51  1  0
 22 52  1  0
 23 53  1  0
 25 54  1  0
 28 55  1  0
 29 56  1  0
M  END
>  <smiles>  (1) 
O=C(NCC(=O)N1CCCC[C@H]1CNc1ccccc1)c1ccc2cc(F)ccc2n1

>  <score_type>  (1) 
oracle

>  <origin>  (1) 
autodockgpu

>  <m_score__min__energy>  (1) 
-9.0999999999999996

>  <m_primary>  (1) 
energy

>  <rmsd>  (1) 
2.4149362409169814

>  <m_score__min__rmsd>  (1) 
2.4149362409169814

>  <meeko>  (1) 
{"free_energy": -8.56, "intermolecular_energy": -10.65, "internal_energy": -1.7, "cluster_size": 38, "cluster_id": 1, "rank_in_cluster": 15}

>  <energy>  (1) 
-9.1

>  <cluster_rmsd>  (1) 
0.0

>  <cluster>  (1) 
1

$$$$

     RDKit          3D

 56 59  0  0  0  0  0  0  0  0999 V2000
  139.2050   70.9250  221.9120 O   0  0  0  0  0  0  0  0  0  0  0  0
  139.9290   71.5600  222.7150 C   0  0  0  0  0  0  0  0  0  0  0  0
  140.5580   72.7920  222.3000 N   0  0  0  0  0  0  0  0  0  0  0  0
  140.4510   73.3780  221.0300 C   0  0  0  0  0  0  0  0  0  0  0  0
  140.9860   74.6690  220.6850 C   0  0  0  0  0  0  0  0  0  0  0  0
  142.1810   74.8780  221.1890 O   0  0  0  0  0  0  0  0  0  0  0  0
  140.5000   75.7380  219.9210 N   0  0  0  0  0  0  0  0  0  0  0  0
  140.7160   75.8730  218.4670 C   0  0  0  0  0  0  0  0  0  0  0  0
  139.3600   75.8470  217.8240 C   0  0  0  0  0  0  0  0  0  0  0  0
  138.6700   77.1360  218.2920 C   0  0  0  0  0  0  0  0  0  0  0  0
  138.4140   76.9920  219.7910 C   0  0  0  0  0  0  0  0  0  0  0  0
  139.7300   76.8660  220.4860 C   0  0  1  0  0  0  0  0  0  0  0  0
  139.7200   76.9630  221.9620 C   0  0  0  0  0  0  0  0  0  0  0  0
  141.0570   77.3750  222.4250 N   0  0  0  0  0  0  0  0  0  0  0  0
  141.3870   78.6750  222.8430 C   0  0  0  0  0  0  0  0  0  0  0  0
  142.7180   79.0990  222.7340 C   0  0  0  0  0  0  0  0  0  0  0  0
  143.1090   80.3470  223.1580 C   0  0  0  0  0  0  0  0  0  0  0  0
  142.2270   81.2480  223.7100 C   0  0  0  0  0  0  0  0  0  0  0  0
  140.9130   80.8460  223.8250 C   0  0  0  0  0  0  0  0  0  0  0  0
  140.5230   79.5860  223.3960 C   0  0  0  0  0  0  0  0  0  0  0  0
  140.1380   71.0470  224.0860 C   0  0  0  0  0  0  0  0  0  0  0  0
  140.7450   71.8650  225.0130 C   0  0  0  0  0  0  0  0  0  0  0  0
  140.9530   71.4080  226.3080 C   0  0  0  0  0  0  0  0  0  0  0  0
  140.5460   70.1220  226.6650 C   0  0  0  0  0  0  0  0  0  0  0  0
  140.7330   69.6320  227.9350 C   0  0  0  0  0  0  0  0  0  0  0  0
  140.2950   68.3430  228.1910 C   0  0  0  0  0  0  0  0  0  0  0  0
  140.4500   67.7990  229.4270 F   0  0  0  0  0  0  0  0  0  0  0  0
  139.6960   67.5710  227.2290 C   0  0  0  0  0  0  0  0  0  0  0  0
  139.5080   68.0620  225.9530 C   0  0  0  0  0  0  0  0  0  0  0  0
  139.9390   69.3410  225.6850 C   0  0  0  0  0  0  0  0  0  0  0  0
  139.7460   69.8050  224.4360 N   0  0  0  0  0  0  0  0  0  0  0  0
  141.1370   73.2430  223.0730 H   0  0  0  0  0  0  0  0  0  0  0  0
  140.9204   72.6667  220.3345 H   0  0  0  0  0  0  0  0  0  0  0  0
  139.3714   73.5847  220.9888 H   0  0  0  0  0  0  0  0  0  0  0  0
  141.2220   76.8243  218.2458 H   0  0  0  0  0  0  0  0  0  0  0  0
  141.3503   75.0598  218.0845 H   0  0  0  0  0  0  0  0  0  0  0  0
  139.4526   75.8347  216.7280 H   0  0  0  0  0  0  0  0  0  0  0  0
  138.7889   74.9493  218.1033 H   0  0  0  0  0  0  0  0  0  0  0  0
  139.3208   78.0023  218.1022 H   0  0  0  0  0  0  0  0  0  0  0  0
  137.7271   77.2941  217.7480 H   0  0  0  0  0  0  0  0  0  0  0  0
  137.8810   77.8793  220.1634 H   0  0  0  0  0  0  0  0  0  0  0  0
  137.7985   76.1011  219.9846 H   0  0  0  0  0  0  0  0  0  0  0  0
  140.2827   77.7898  220.2597 H   0  0  0  0  0  0  0  0  0  0  0  0
  138.9747   77.7080  222.2776 H   0  0  0  0  0  0  0  0  0  0  0  0
  139.4609   75.9864  222.3968 H   0  0  0  0  0  0  0  0  0  0  0  0
  141.7860   76.6270  222.4320 H   0  0  0  0  0  0  0  0  0  0  0  0
  143.4659   78.4190  222.3000 H   0  0  0  0  0  0  0  0  0  0  0  0
  144.1651   80.6359  223.0523 H   0  0  0  0  0  0  0  0  0  0  0  0
  142.5553   82.2433  224.0442 H   0  0  0  0  0  0  0  0  0  0  0  0
  140.1689   81.5294  224.2600 H   0  0  0  0  0  0  0  0  0  0  0  0
  139.4658   79.3023  223.5048 H   0  0  0  0  0  0  0  0  0  0  0  0
  141.0645   72.8784  224.7283 H   0  0  0  0  0  0  0  0  0  0  0  0
  141.4377   72.0587  227.0508 H   0  0  0  0  0  0  0  0  0  0  0  0
  141.2116   70.2393  228.7174 H   0  0  0  0  0  0  0  0  0  0  0  0
  139.3627   66.5523  227.4763 H   0  0  0  0  0  0  0  0  0  0  0  0
  139.0287   67.4501  225.1746 H   0  0  0  0  0  0  0  0  0  0  0  0
  1  2  2  0
  2  3  1  0
  3  4  1  0
  4  5  1  0
  5  6  2  0
  5  7  1  0
  7  8  1  0
  8  9  1  0
  9 10  1  0
 10 11  1  0
 11 12  1  0
 12 13  1  0
 13 14  1  0
 14 15  1  0
 15 16  2  0
 16 17  1  0
 17 18  2  0
 18 19  1  0
 19 20  2  0
  2 21  1  0
 21 22  2  0
 22 23  1  0
 23 24  2  0
 24 25  1  0
 25 26  2  0
 26 27  1  0
 26 28  1  0
 28 29  2  0
 29 30  1  0
 30 31  2  0
 12  7  1  0
 20 15  1  0
 31 21  1  0
 30 24  1  0
  3 32  1  0
  4 33  1  0
  4 34  1  0
  8 35  1  0
  8 36  1  0
  9 37  1  0
  9 38  1  0
 10 39  1  0
 10 40  1  0
 11 41  1  0
 11 42  1  0
 12 43  1  6
 13 44  1  0
 13 45  1  0
 14 46  1  0
 16 47  1  0
 17 48  1  0
 18 49  1  0
 19 50  1  0
 20 51  1  0
 22 52  1  0
 23 53  1  0
 25 54  1  0
 28 55  1  0
 29 56  1  0
M  END
>  <smiles>  (2) 
O=C(NCC(=O)N1CCCC[C@H]1CNc1ccccc1)c1ccc2cc(F)ccc2n1

>  <score_type>  (2) 
oracle

>  <origin>  (2) 
autodockgpu

>  <m_score__min__energy>  (2) 
-9.0999999999999996

>  <m_primary>  (2) 
energy

>  <rmsd>  (2) 
2.9824855211643797

>  <m_score__min__rmsd>  (2) 
2.9824855211643797

>  <meeko>  (2) 
{"free_energy": -7.83, "intermolecular_energy": -9.92, "internal_energy": -2.04, "cluster_size": 38, "cluster_id": 1, "rank_in_cluster": 35}

>  <energy>  (2) 
-9.06

>  <cluster_rmsd>  (2) 
1.17

>  <cluster>  (2) 
1

$$$$

     RDKit          3D

 56 59  0  0  0  0  0  0  0  0999 V2000
  140.5520   71.4590  221.2060 O   0  0  0  0  0  0  0  0  0  0  0  0
  140.1050   71.9190  222.2840 C   0  0  0  0  0  0  0  0  0  0  0  0
  139.6560   73.2900  222.3510 N   0  0  0  0  0  0  0  0  0  0  0  0
  139.6770   74.2120  221.2930 C   0  0  0  0  0  0  0  0  0  0  0  0
  139.3680   75.6110  221.4310 C   0  0  0  0  0  0  0  0  0  0  0  0
  139.4450   76.0310  222.6730 O   0  0  0  0  0  0  0  0  0  0  0  0
  139.0130   76.6110  220.5170 N   0  0  0  0  0  0  0  0  0  0  0  0
  137.6900   76.6960  219.8660 C   0  0  0  0  0  0  0  0  0  0  0  0
  137.0780   77.9970  220.3000 C   0  0  0  0  0  0  0  0  0  0  0  0
  137.9560   79.0840  219.6640 C   0  0  0  0  0  0  0  0  0  0  0  0
  139.3180   79.0230  220.3540 C   0  0  0  0  0  0  0  0  0  0  0  0
  139.9270   77.6870  220.0830 C   0  0  1  0  0  0  0  0  0  0  0  0
  141.3480   77.5120  220.4530 C   0  0  0  0  0  0  0  0  0  0  0  0
  141.4850   77.6490  221.9140 N   0  0  0  0  0  0  0  0  0  0  0  0
  141.6410   78.8730  222.5850 C   0  0  0  0  0  0  0  0  0  0  0  0
  142.9340   79.3840  222.7610 C   0  0  0  0  0  0  0  0  0  0  0  0
  143.1530   80.5590  223.4400 C   0  0  0  0  0  0  0  0  0  0  0  0
  142.1280   81.2990  223.9840 C   0  0  0  0  0  0  0  0  0  0  0  0
  140.8500   80.8100  223.8210 C   0  0  0  0  0  0  0  0  0  0  0  0
  140.6320   79.6240  223.1350 C   0  0  0  0  0  0  0  0  0  0  0  0
  140.0380   71.0570  223.4840 C   0  0  0  0  0  0  0  0  0  0  0  0
  139.4490   69.8170  223.3740 C   0  0  0  0  0  0  0  0  0  0  0  0
  139.3730   68.9880  224.4860 C   0  0  0  0  0  0  0  0  0  0  0  0
  139.8940   69.4130  225.7080 C   0  0  0  0  0  0  0  0  0  0  0  0
  139.8390   68.6230  226.8310 C   0  0  0  0  0  0  0  0  0  0  0  0
  140.3830   69.1360  227.9980 C   0  0  0  0  0  0  0  0  0  0  0  0
  140.3610   68.4050  229.1430 F   0  0  0  0  0  0  0  0  0  0  0  0
  140.9590   70.3800  228.0490 C   0  0  0  0  0  0  0  0  0  0  0  0
  141.0140   71.1740  226.9220 C   0  0  0  0  0  0  0  0  0  0  0  0
  140.4770   70.6770  225.7570 C   0  0  0  0  0  0  0  0  0  0  0  0
  140.5400   71.4650  224.6670 N   0  0  0  0  0  0  0  0  0  0  0  0
  139.2890   73.5590  223.3150 H   0  0  0  0  0  0  0  0  0  0  0  0
  140.6977   74.1723  220.8848 H   0  0  0  0  0  0  0  0  0  0  0  0
  138.8153   73.8677  220.7023 H   0  0  0  0  0  0  0  0  0  0  0  0
  137.8039   76.6769  218.7721 H   0  0  0  0  0  0  0  0  0  0  0  0
  137.0537   75.8451  220.1506 H   0  0  0  0  0  0  0  0  0  0  0  0
  136.0423   78.0763  219.9380 H   0  0  0  0  0  0  0  0  0  0  0  0
  137.0378   78.0884  221.3955 H   0  0  0  0  0  0  0  0  0  0  0  0
  138.0701   78.8941  218.5865 H   0  0  0  0  0  0  0  0  0  0  0  0
  137.4994   80.0772  219.7866 H   0  0  0  0  0  0  0  0  0  0  0  0
  139.9703   79.8153  219.9581 H   0  0  0  0  0  0  0  0  0  0  0  0
  139.1984   79.1699  221.4376 H   0  0  0  0  0  0  0  0  0  0  0  0
  140.0261   77.6147  218.9899 H   0  0  0  0  0  0  0  0  0  0  0  0
  141.6894   76.5134  220.1428 H   0  0  0  0  0  0  0  0  0  0  0  0
  141.9593   78.2756  219.9497 H   0  0  0  0  0  0  0  0  0  0  0  0
  141.4610   76.7580  222.4580 H   0  0  0  0  0  0  0  0  0  0  0  0
  143.7916   78.8333  222.3471 H   0  0  0  0  0  0  0  0  0  0  0  0
  144.1855   80.9211  223.5527 H   0  0  0  0  0  0  0  0  0  0  0  0
  142.3201   82.2378  224.5241 H   0  0  0  0  0  0  0  0  0  0  0  0
  139.9962   81.3642  224.2380 H   0  0  0  0  0  0  0  0  0  0  0  0
  139.5973   79.2670  223.0262 H   0  0  0  0  0  0  0  0  0  0  0  0
  139.0400   69.4841  222.4086 H   0  0  0  0  0  0  0  0  0  0  0  0
  138.9024   67.9972  224.4029 H   0  0  0  0  0  0  0  0  0  0  0  0
  139.3814   67.6231  226.8048 H   0  0  0  0  0  0  0  0  0  0  0  0
  141.3805   70.7475  228.9962 H   0  0  0  0  0  0  0  0  0  0  0  0
  141.4729   72.1732  226.9540 H   0  0  0  0  0  0  0  0  0  0  0  0
  1  2  2  0
  2  3  1  0
  3  4  1  0
  4  5  1  0
  5  6  2  0
  5  7  1  0
  7  8  1  0
  8  9  1  0
  9 10  1  0
 10 11  1  0
 11 12  1  0
 12 13  1  0
 13 14  1  0
 14 15  1  0
 15 16  2  0
 16 17  1  0
 17 18  2  0
 18 19  1  0
 19 20  2  0
  2 21  1  0
 21 22  2  0
 22 23  1  0
 23 24  2  0
 24 25  1  0
 25 26  2  0
 26 27  1  0
 26 28  1  0
 28 29  2  0
 29 30  1  0
 30 31  2  0
 12  7  1  0
 20 15  1  0
 31 21  1  0
 30 24  1  0
  3 32  1  0
  4 33  1  0
  4 34  1  0
  8 35  1  0
  8 36  1  0
  9 37  1  0
  9 38  1  0
 10 39  1  0
 10 40  1  0
 11 41  1  0
 11 42  1  0
 12 43  1  6
 13 44  1  0
 13 45  1  0
 14 46  1  0
 16 47  1  0
 17 48  1  0
 18 49  1  0
 19 50  1  0
 20 51  1  0
 22 52  1  0
 23 53  1  0
 25 54  1  0
 28 55  1  0
 29 56  1  0
M  END
>  <smiles>  (3) 
O=C(NCC(=O)N1CCCC[C@H]1CNc1ccccc1)c1ccc2cc(F)ccc2n1

>  <score_type>  (3) 
oracle

>  <origin>  (3) 
autodockgpu

>  <m_score__min__energy>  (3) 
-9.0999999999999996

>  <m_primary>  (3) 
energy

>  <rmsd>  (3) 
2.5484848979757317

>  <m_score__min__rmsd>  (3) 
2.5484848979757317

>  <meeko>  (3) 
{"free_energy": -8.32, "intermolecular_energy": -10.41, "internal_energy": -2.27, "cluster_size": 38, "cluster_id": 1, "rank_in_cluster": 26}

>  <energy>  (3) 
-8.97

>  <cluster_rmsd>  (3) 
0.95

>  <cluster>  (3) 
1

$$$$

     RDKit          3D

 56 59  0  0  0  0  0  0  0  0999 V2000
  140.4380   71.6260  221.1760 O   0  0  0  0  0  0  0  0  0  0  0  0
  139.7780   71.9620  222.1880 C   0  0  0  0  0  0  0  0  0  0  0  0
  138.9910   73.1720  222.1660 N   0  0  0  0  0  0  0  0  0  0  0  0
  138.8890   74.0630  221.0870 C   0  0  0  0  0  0  0  0  0  0  0  0
  139.9800   74.4080  220.2140 C   0  0  0  0  0  0  0  0  0  0  0  0
  139.7700   74.0510  218.9680 O   0  0  0  0  0  0  0  0  0  0  0  0
  141.2090   75.0490  220.4190 N   0  0  0  0  0  0  0  0  0  0  0  0
  142.4730   74.3360  220.6870 C   0  0  0  0  0  0  0  0  0  0  0  0
  143.4040   74.6630  219.5550 C   0  0  0  0  0  0  0  0  0  0  0  0
  143.7010   76.1620  219.7030 C   0  0  0  0  0  0  0  0  0  0  0  0
  142.4040   76.9110  219.3960 C   0  0  0  0  0  0  0  0  0  0  0  0
  141.3790   76.5170  220.4080 C   0  0  1  0  0  0  0  0  0  0  0  0
  140.1310   77.3100  220.4400 C   0  0  0  0  0  0  0  0  0  0  0  0
  140.4660   78.7240  220.6810 N   0  0  0  0  0  0  0  0  0  0  0  0
  141.1160   79.2010  221.8310 C   0  0  0  0  0  0  0  0  0  0  0  0
  141.8730   80.3770  221.7380 C   0  0  0  0  0  0  0  0  0  0  0  0
  142.5600   80.8750  222.8200 C   0  0  0  0  0  0  0  0  0  0  0  0
  142.5480   80.2550  224.0490 C   0  0  0  0  0  0  0  0  0  0  0  0
  141.8100   79.0960  224.1580 C   0  0  0  0  0  0  0  0  0  0  0  0
  141.1180   78.5980  223.0640 C   0  0  0  0  0  0  0  0  0  0  0  0
  139.8060   71.1180  223.4020 C   0  0  0  0  0  0  0  0  0  0  0  0
  139.2850   69.8440  223.3340 C   0  0  0  0  0  0  0  0  0  0  0  0
  139.2990   69.0310  224.4590 C   0  0  0  0  0  0  0  0  0  0  0  0
  139.8400   69.5060  225.6540 C   0  0  0  0  0  0  0  0  0  0  0  0
  139.8740   68.7330  226.7900 C   0  0  0  0  0  0  0  0  0  0  0  0
  140.4310   69.2950  227.9270 C   0  0  0  0  0  0  0  0  0  0  0  0
  140.4950   68.5840  229.0830 F   0  0  0  0  0  0  0  0  0  0  0  0
  140.9360   70.5710  227.9380 C   0  0  0  0  0  0  0  0  0  0  0  0
  140.9030   71.3480  226.7980 C   0  0  0  0  0  0  0  0  0  0  0  0
  140.3510   70.8010  225.6620 C   0  0  0  0  0  0  0  0  0  0  0  0
  140.3280   71.5730  224.5580 N   0  0  0  0  0  0  0  0  0  0  0  0
  138.4680   73.3440  223.0790 H   0  0  0  0  0  0  0  0  0  0  0  0
  138.1059   73.6500  220.4342 H   0  0  0  0  0  0  0  0  0  0  0  0
  138.7424   75.0145  221.6190 H   0  0  0  0  0  0  0  0  0  0  0  0
  142.9036   74.6741  221.6411 H   0  0  0  0  0  0  0  0  0  0  0  0
  142.3064   73.2512  220.7602 H   0  0  0  0  0  0  0  0  0  0  0  0
  144.3307   74.0758  219.6350 H   0  0  0  0  0  0  0  0  0  0  0  0
  142.9628   74.4246  218.5760 H   0  0  0  0  0  0  0  0  0  0  0  0
  144.0295   76.3818  220.7296 H   0  0  0  0  0  0  0  0  0  0  0  0
  144.5030   76.4713  219.0166 H   0  0  0  0  0  0  0  0  0  0  0  0
  142.5802   77.9955  219.4490 H   0  0  0  0  0  0  0  0  0  0  0  0
  142.0525   76.6577  218.3849 H   0  0  0  0  0  0  0  0  0  0  0  0
  141.7898   76.8085  221.3859 H   0  0  0  0  0  0  0  0  0  0  0  0
  139.6085   77.2140  219.4768 H   0  0  0  0  0  0  0  0  0  0  0  0
  139.4774   76.9411  221.2442 H   0  0  0  0  0  0  0  0  0  0  0  0
  140.1890   79.3920  219.9280 H   0  0  0  0  0  0  0  0  0  0  0  0
  141.9185   80.9132  220.7786 H   0  0  0  0  0  0  0  0  0  0  0  0
  143.1399   81.8019  222.6992 H   0  0  0  0  0  0  0  0  0  0  0  0
  143.1025   80.6660  224.9055 H   0  0  0  0  0  0  0  0  0  0  0  0
  141.7696   78.5624  225.1191 H   0  0  0  0  0  0  0  0  0  0  0  0
  140.5402   77.6707  223.1912 H   0  0  0  0  0  0  0  0  0  0  0  0
  138.8590   69.4722  222.3904 H   0  0  0  0  0  0  0  0  0  0  0  0
  138.8841   68.0135  224.4084 H   0  0  0  0  0  0  0  0  0  0  0  0
  139.4745   67.7081  226.7960 H   0  0  0  0  0  0  0  0  0  0  0  0
  141.3706   70.9777  228.8630 H   0  0  0  0  0  0  0  0  0  0  0  0
  141.3050   72.3719  226.7972 H   0  0  0  0  0  0  0  0  0  0  0  0
  1  2  2  0
  2  3  1  0
  3  4  1  0
  4  5  1  0
  5  6  2  0
  5  7  1  0
  7  8  1  0
  8  9  1  0
  9 10  1  0
 10 11  1  0
 11 12  1  0
 12 13  1  0
 13 14  1  0
 14 15  1  0
 15 16  2  0
 16 17  1  0
 17 18  2  0
 18 19  1  0
 19 20  2  0
  2 21  1  0
 21 22  2  0
 22 23  1  0
 23 24  2  0
 24 25  1  0
 25 26  2  0
 26 27  1  0
 26 28  1  0
 28 29  2  0
 29 30  1  0
 30 31  2  0
 12  7  1  0
 20 15  1  0
 31 21  1  0
 30 24  1  0
  3 32  1  0
  4 33  1  0
  4 34  1  0
  8 35  1  0
  8 36  1  0
  9 37  1  0
  9 38  1  0
 10 39  1  0
 10 40  1  0
 11 41  1  0
 11 42  1  0
 12 43  1  1
 13 44  1  0
 13 45  1  0
 14 46  1  0
 16 47  1  0
 17 48  1  0
 18 49  1  0
 19 50  1  0
 20 51  1  0
 22 52  1  0
 23 53  1  0
 25 54  1  0
 28 55  1  0
 29 56  1  0
M  END
>  <smiles>  (4) 
O=C(NCC(=O)N1CCCC[C@H]1CNc1ccccc1)c1ccc2cc(F)ccc2n1

>  <score_type>  (4) 
oracle

>  <origin>  (4) 
autodockgpu

>  <m_score__min__energy>  (4) 
-9.0999999999999996

>  <m_primary>  (4) 
energy

>  <rmsd>  (4) 
2.5353402599758104

>  <m_score__min__rmsd>  (4) 
2.5353402599758104

>  <meeko>  (4) 
{"free_energy": -8.5, "intermolecular_energy": -10.59, "internal_energy": -1.59, "cluster_size": 38, "cluster_id": 1, "rank_in_cluster": 18}

>  <energy>  (4) 
-8.95

>  <cluster_rmsd>  (4) 
1.6

>  <cluster>  (4) 
1

$$$$

     RDKit          3D

 56 59  0  0  0  0  0  0  0  0999 V2000
  139.1100   70.6580  221.5950 O   0  0  0  0  0  0  0  0  0  0  0  0
  139.4480   71.1760  222.6870 C   0  0  0  0  0  0  0  0  0  0  0  0
  139.6800   72.5990  222.7680 N   0  0  0  0  0  0  0  0  0  0  0  0
  139.5730   73.5080  221.7040 C   0  0  0  0  0  0  0  0  0  0  0  0
  140.3710   74.6990  221.5730 C   0  0  0  0  0  0  0  0  0  0  0  0
  139.8640   75.7260  222.2160 O   0  0  0  0  0  0  0  0  0  0  0  0
  141.5720   74.9830  220.9110 N   0  0  0  0  0  0  0  0  0  0  0  0
  142.6130   73.9750  220.6300 C   0  0  0  0  0  0  0  0  0  0  0  0
  142.7440   73.8930  219.1360 C   0  0  0  0  0  0  0  0  0  0  0  0
  143.3170   75.2530  218.7100 C   0  0  0  0  0  0  0  0  0  0  0  0
  142.2330   76.2990  218.9690 C   0  0  0  0  0  0  0  0  0  0  0  0
  141.9470   76.3310  220.4340 C   0  0  1  0  0  0  0  0  0  0  0  0
  141.1070   77.4440  220.9280 C   0  0  0  0  0  0  0  0  0  0  0  0
  141.4470   77.7140  222.3360 N   0  0  0  0  0  0  0  0  0  0  0  0
  141.6760   78.9940  222.8670 C   0  0  0  0  0  0  0  0  0  0  0  0
  140.5730   79.8030  223.1730 C   0  0  0  0  0  0  0  0  0  0  0  0
  140.7330   81.0780  223.6620 C   0  0  0  0  0  0  0  0  0  0  0  0
  141.9730   81.6340  223.8780 C   0  0  0  0  0  0  0  0  0  0  0  0
  143.0690   80.8530  223.5810 C   0  0  0  0  0  0  0  0  0  0  0  0
  142.9040   79.5670  223.0880 C   0  0  0  0  0  0  0  0  0  0  0  0
  139.6090   70.3290  223.8880 C   0  0  0  0  0  0  0  0  0  0  0  0
  139.1540   69.0300  223.8460 C   0  0  0  0  0  0  0  0  0  0  0  0
  139.2930   68.2130  224.9610 C   0  0  0  0  0  0  0  0  0  0  0  0
  139.8930   68.7110  226.1180 C   0  0  0  0  0  0  0  0  0  0  0  0
  140.0500   67.9350  227.2420 C   0  0  0  0  0  0  0  0  0  0  0  0
  140.6560   68.5220  228.3400 C   0  0  0  0  0  0  0  0  0  0  0  0
  140.8410   67.8090  229.4830 F   0  0  0  0  0  0  0  0  0  0  0  0
  141.0910   69.8230  228.3260 C   0  0  0  0  0  0  0  0  0  0  0  0
  140.9340   70.6020  227.1980 C   0  0  0  0  0  0  0  0  0  0  0  0
  140.3320   70.0320  226.1000 C   0  0  0  0  0  0  0  0  0  0  0  0
  140.1880   70.8070  225.0080 N   0  0  0  0  0  0  0  0  0  0  0  0
  139.9510   72.9200  223.7470 H   0  0  0  0  0  0  0  0  0  0  0  0
  139.7622   72.9220  220.7925 H   0  0  0  0  0  0  0  0  0  0  0  0
  138.5828   73.9437  221.9033 H   0  0  0  0  0  0  0  0  0  0  0  0
  143.5693   74.2830  221.0779 H   0  0  0  0  0  0  0  0  0  0  0  0
  142.3427   72.9981  221.0572 H   0  0  0  0  0  0  0  0  0  0  0  0
  143.4281   73.0796  218.8523 H   0  0  0  0  0  0  0  0  0  0  0  0
  141.7811   73.6802  218.6486 H   0  0  0  0  0  0  0  0  0  0  0  0
  144.2149   75.4859  219.3012 H   0  0  0  0  0  0  0  0  0  0  0  0
  143.6039   75.2415  217.6482 H   0  0  0  0  0  0  0  0  0  0  0  0
  142.5842   77.2874  218.6377 H   0  0  0  0  0  0  0  0  0  0  0  0
  141.3200   76.0420  218.4119 H   0  0  0  0  0  0  0  0  0  0  0  0
  142.8944   76.6031  220.9223 H   0  0  0  0  0  0  0  0  0  0  0  0
  141.2951   78.3440  220.3242 H   0  0  0  0  0  0  0  0  0  0  0  0
  140.0444   77.1710  220.8483 H   0  0  0  0  0  0  0  0  0  0  0  0
  141.5160   76.8760  222.9550 H   0  0  0  0  0  0  0  0  0  0  0  0
  139.5575   79.4093  223.0186 H   0  0  0  0  0  0  0  0  0  0  0  0
  139.8374   81.6751  223.8887 H   0  0  0  0  0  0  0  0  0  0  0  0
  142.0845   82.6557  224.2700 H   0  0  0  0  0  0  0  0  0  0  0  0
  144.0821   81.2524  223.7360 H   0  0  0  0  0  0  0  0  0  0  0  0
  143.8036   78.9756  222.8624 H   0  0  0  0  0  0  0  0  0  0  0  0
  138.6818   68.6403  222.9321 H   0  0  0  0  0  0  0  0  0  0  0  0
  138.9305   67.1749  224.9317 H   0  0  0  0  0  0  0  0  0  0  0  0
  139.7080   66.8899  227.2680 H   0  0  0  0  0  0  0  0  0  0  0  0
  141.5686   70.2484  229.2209 H   0  0  0  0  0  0  0  0  0  0  0  0
  141.2794   71.6462  227.1773 H   0  0  0  0  0  0  0  0  0  0  0  0
  1  2  2  0
  2  3  1  0
  3  4  1  0
  4  5  1  0
  5  6  2  0
  5  7  1  0
  7  8  1  0
  8  9  1  0
  9 10  1  0
 10 11  1  0
 11 12  1  0
 12 13  1  0
 13 14  1  0
 14 15  1  0
 15 16  2  0
 16 17  1  0
 17 18  2  0
 18 19  1  0
 19 20  2  0
  2 21  1  0
 21 22  2  0
 22 23  1  0
 23 24  2  0
 24 25  1  0
 25 26  2  0
 26 27  1  0
 26 28  1  0
 28 29  2  0
 29 30  1  0
 30 31  2  0
 12  7  1  0
 20 15  1  0
 31 21  1  0
 30 24  1  0
  3 32  1  0
  4 33  1  0
  4 34  1  0
  8 35  1  0
  8 36  1  0
  9 37  1  0
  9 38  1  0
 10 39  1  0
 10 40  1  0
 11 41  1  0
 11 42  1  0
 12 43  1  1
 13 44  1  0
 13 45  1  0
 14 46  1  0
 16 47  1  0
 17 48  1  0
 18 49  1  0
 19 50  1  0
 20 51  1  0
 22 52  1  0
 23 53  1  0
 25 54  1  0
 28 55  1  0
 29 56  1  0
M  END
>  <smiles>  (5) 
O=C(NCC(=O)N1CCCC[C@H]1CNc1ccccc1)c1ccc2cc(F)ccc2n1

>  <score_type>  (5) 
oracle

>  <origin>  (5) 
autodockgpu

>  <m_score__min__energy>  (5) 
-9.0999999999999996

>  <m_primary>  (5) 
energy

>  <rmsd>  (5) 
2.3843503894815337

>  <m_score__min__rmsd>  (5) 
2.3843503894815337

>  <meeko>  (5) 
{"free_energy": -9.1, "intermolecular_energy": -11.19, "internal_energy": -1.58, "cluster_size": 38, "cluster_id": 1, "rank_in_cluster": 1}

>  <energy>  (5) 
-8.95

>  <cluster_rmsd>  (5) 
1.6

>  <cluster>  (5) 
1

$$$$

     RDKit          3D

 56 59  0  0  0  0  0  0  0  0999 V2000
  137.0550   76.3320  222.0460 O   0  0  0  0  0  0  0  0  0  0  0  0
  138.3010   76.3960  222.1750 C   0  0  0  0  0  0  0  0  0  0  0  0
  139.1130   75.2310  221.9140 N   0  0  0  0  0  0  0  0  0  0  0  0
  138.6360   73.9700  221.5240 C   0  0  0  0  0  0  0  0  0  0  0  0
  139.3070   72.7280  221.8040 C   0  0  0  0  0  0  0  0  0  0  0  0
  140.4320   72.8920  222.4620 O   0  0  0  0  0  0  0  0  0  0  0  0
  139.0040   71.3890  221.5260 N   0  0  0  0  0  0  0  0  0  0  0  0
  139.0890   70.7900  220.1790 C   0  0  0  0  0  0  0  0  0  0  0  0
  140.1220   69.7030  220.2530 C   0  0  0  0  0  0  0  0  0  0  0  0
  139.5160   68.6360  221.1760 C   0  0  0  0  0  0  0  0  0  0  0  0
  139.4540   69.2380  222.5790 C   0  0  0  0  0  0  0  0  0  0  0  0
  138.5470   70.4230  222.5470 C   0  0  1  0  0  0  0  0  0  0  0  0
  138.1560   71.0020  223.8500 C   0  0  0  0  0  0  0  0  0  0  0  0
  139.3680   71.4350  224.5670 N   0  0  0  0  0  0  0  0  0  0  0  0
  139.8750   70.8110  225.7200 C   0  0  0  0  0  0  0  0  0  0  0  0
  140.5550   71.5930  226.6640 C   0  0  0  0  0  0  0  0  0  0  0  0
  141.1030   71.0340  227.7950 C   0  0  0  0  0  0  0  0  0  0  0  0
  141.0190   69.6870  228.0660 C   0  0  0  0  0  0  0  0  0  0  0  0
  140.3540   68.9040  227.1470 C   0  0  0  0  0  0  0  0  0  0  0  0
  139.8030   69.4720  226.0080 C   0  0  0  0  0  0  0  0  0  0  0  0
  138.9360   77.6640  222.5940 C   0  0  0  0  0  0  0  0  0  0  0  0
  138.1300   78.7430  222.8830 C   0  0  0  0  0  0  0  0  0  0  0  0
  138.7000   79.9460  223.2790 C   0  0  0  0  0  0  0  0  0  0  0  0
  140.0870   80.0570  223.3810 C   0  0  0  0  0  0  0  0  0  0  0  0
  140.6910   81.2290  223.7700 C   0  0  0  0  0  0  0  0  0  0  0  0
  142.0750   81.2390  223.8410 C   0  0  0  0  0  0  0  0  0  0  0  0
  142.7330   82.3670  224.2180 F   0  0  0  0  0  0  0  0  0  0  0  0
  142.8290   80.1340  223.5400 C   0  0  0  0  0  0  0  0  0  0  0  0
  142.2230   78.9560  223.1510 C   0  0  0  0  0  0  0  0  0  0  0  0
  140.8500   78.9330  223.0750 C   0  0  0  0  0  0  0  0  0  0  0  0
  140.2760   77.7760  222.6940 N   0  0  0  0  0  0  0  0  0  0  0  0
  140.1550   75.4130  222.0480 H   0  0  0  0  0  0  0  0  0  0  0  0
  137.6379   73.8770  221.9770 H   0  0  0  0  0  0  0  0  0  0  0  0
  138.7609   74.0306  220.4328 H   0  0  0  0  0  0  0  0  0  0  0  0
  138.1151   70.3681  219.8899 H   0  0  0  0  0  0  0  0  0  0  0  0
  139.3632   71.5450  219.4275 H   0  0  0  0  0  0  0  0  0  0  0  0
  140.3146   69.2849  219.2540 H   0  0  0  0  0  0  0  0  0  0  0  0
  141.0854   70.0756  220.6313 H   0  0  0  0  0  0  0  0  0  0  0  0
  138.5046   68.3716  220.8339 H   0  0  0  0  0  0  0  0  0  0  0  0
  140.1260   67.7206  221.1694 H   0  0  0  0  0  0  0  0  0  0  0  0
  139.0638   68.4912  223.2861 H   0  0  0  0  0  0  0  0  0  0  0  0
  140.4601   69.5425  222.9029 H   0  0  0  0  0  0  0  0  0  0  0  0
  137.5647   70.0446  222.2279 H   0  0  0  0  0  0  0  0  0  0  0  0
  137.4961   71.8667  223.6860 H   0  0  0  0  0  0  0  0  0  0  0  0
  137.6219   70.2474  224.4461 H   0  0  0  0  0  0  0  0  0  0  0  0
  139.8610   72.2640  224.1670 H   0  0  0  0  0  0  0  0  0  0  0  0
  140.6523   72.6759  226.4969 H   0  0  0  0  0  0  0  0  0  0  0  0
  141.6272   71.6868  228.5085 H   0  0  0  0  0  0  0  0  0  0  0  0
  141.4626   69.2549  228.9751 H   0  0  0  0  0  0  0  0  0  0  0  0
  140.2597   67.8215  227.3181 H   0  0  0  0  0  0  0  0  0  0  0  0
  139.2806   68.8138  225.2981 H   0  0  0  0  0  0  0  0  0  0  0  0
  137.0369   78.6520  222.8003 H   0  0  0  0  0  0  0  0  0  0  0  0
  138.0593   80.8093  223.5117 H   0  0  0  0  0  0  0  0  0  0  0  0
  140.0993   82.1233  224.0152 H   0  0  0  0  0  0  0  0  0  0  0  0
  143.9256   80.1865  223.6090 H   0  0  0  0  0  0  0  0  0  0  0  0
  142.8196   78.0639  222.9095 H   0  0  0  0  0  0  0  0  0  0  0  0
  1  2  2  0
  2  3  1  0
  3  4  1  0
  4  5  1  0
  5  6  2  0
  5  7  1  0
  7  8  1  0
  8  9  1  0
  9 10  1  0
 10 11  1  0
 11 12  1  0
 12 13  1  0
 13 14  1  0
 14 15  1  0
 15 16  2  0
 16 17  1  0
 17 18  2  0
 18 19  1  0
 19 20  2  0
  2 21  1  0
 21 22  2  0
 22 23  1  0
 23 24  2  0
 24 25  1  0
 25 26  2  0
 26 27  1  0
 26 28  1  0
 28 29  2  0
 29 30  1  0
 30 31  2  0
 12  7  1  0
 20 15  1  0
 31 21  1  0
 30 24  1  0
  3 32  1  0
  4 33  1  0
  4 34  1  0
  8 35  1  0
  8 36  1  0
  9 37  1  0
  9 38  1  0
 10 39  1  0
 10 40  1  0
 11 41  1  0
 11 42  1  0
 12 43  1  6
 13 44  1  0
 13 45  1  0
 14 46  1  0
 16 47  1  0
 17 48  1  0
 18 49  1  0
 19 50  1  0
 20 51  1  0
 22 52  1  0
 23 53  1  0
 25 54  1  0
 28 55  1  0
 29 56  1  0
M  END
>  <smiles>  (6) 
O=C(NCC(=O)N1CCCC[C@H]1CNc1ccccc1)c1ccc2cc(F)ccc2n1

>  <score_type>  (6) 
oracle

>  <origin>  (6) 
autodockgpu

>  <m_score__min__energy>  (6) 
-9.0999999999999996

>  <m_primary>  (6) 
energy

>  <rmsd>  (6) 
9.416373379908826

>  <m_score__min__rmsd>  (6) 
9.416373379908826

>  <meeko>  (6) 
{"free_energy": -7.76, "intermolecular_energy": -9.85, "internal_energy": -2.53, "cluster_size": 3, "cluster_id": 4, "rank_in_cluster": 1}

>  <energy>  (6) 
-8.9

>  <cluster_rmsd>  (6) 
1.2

>  <cluster>  (6) 
1

$$$$

     RDKit          3D

 56 59  0  0  0  0  0  0  0  0999 V2000
  141.4650   72.2700  221.6420 O   0  0  0  0  0  0  0  0  0  0  0  0
  140.5550   72.5240  222.4670 C   0  0  0  0  0  0  0  0  0  0  0  0
  139.7550   73.7160  222.3130 N   0  0  0  0  0  0  0  0  0  0  0  0
  139.9000   74.6740  221.2980 C   0  0  0  0  0  0  0  0  0  0  0  0
  140.7870   75.8050  221.3720 C   0  0  0  0  0  0  0  0  0  0  0  0
  141.0520   76.1670  222.6060 O   0  0  0  0  0  0  0  0  0  0  0  0
  141.4280   76.5880  220.4030 N   0  0  0  0  0  0  0  0  0  0  0  0
  142.7380   76.2530  219.8110 C   0  0  0  0  0  0  0  0  0  0  0  0
  142.5100   76.0530  218.3400 C   0  0  0  0  0  0  0  0  0  0  0  0
  142.1230   77.4380  217.8040 C   0  0  0  0  0  0  0  0  0  0  0  0
  140.7520   77.7800  218.3870 C   0  0  0  0  0  0  0  0  0  0  0  0
  140.8750   77.8520  219.8730 C   0  0  1  0  0  0  0  0  0  0  0  0
  139.7230   78.4100  220.6140 C   0  0  0  0  0  0  0  0  0  0  0  0
  140.0520   78.4560  222.0500 N   0  0  0  0  0  0  0  0  0  0  0  0
  140.9550   79.3630  222.6290 C   0  0  0  0  0  0  0  0  0  0  0  0
  142.3290   79.1090  222.5170 C   0  0  0  0  0  0  0  0  0  0  0  0
  143.2610   79.9400  223.0920 C   0  0  0  0  0  0  0  0  0  0  0  0
  142.9060   81.0630  223.8050 C   0  0  0  0  0  0  0  0  0  0  0  0
  141.5590   81.3270  223.9260 C   0  0  0  0  0  0  0  0  0  0  0  0
  140.6220   80.4860  223.3450 C   0  0  0  0  0  0  0  0  0  0  0  0
  140.3030   71.6020  223.5950 C   0  0  0  0  0  0  0  0  0  0  0  0
  139.6020   70.4410  223.3560 C   0  0  0  0  0  0  0  0  0  0  0  0
  139.3510   69.5580  224.3980 C   0  0  0  0  0  0  0  0  0  0  0  0
  139.8100   69.8500  225.6830 C   0  0  0  0  0  0  0  0  0  0  0  0
  139.5840   69.0020  226.7410 C   0  0  0  0  0  0  0  0  0  0  0  0
  140.0800   69.3810  227.9780 C   0  0  0  0  0  0  0  0  0  0  0  0
  139.8900   68.5880  229.0650 F   0  0  0  0  0  0  0  0  0  0  0  0
  140.7730   70.5510  228.1590 C   0  0  0  0  0  0  0  0  0  0  0  0
  141.0010   71.4020  227.0970 C   0  0  0  0  0  0  0  0  0  0  0  0
  140.5130   71.0380  225.8630 C   0  0  0  0  0  0  0  0  0  0  0  0
  140.7460   71.8800  224.8380 N   0  0  0  0  0  0  0  0  0  0  0  0
  139.0100   73.8160  223.0680 H   0  0  0  0  0  0  0  0  0  0  0  0
  140.2074   74.1137  220.4027 H   0  0  0  0  0  0  0  0  0  0  0  0
  138.9221   75.1753  221.3464 H   0  0  0  0  0  0  0  0  0  0  0  0
  143.4496   77.0755  219.9757 H   0  0  0  0  0  0  0  0  0  0  0  0
  143.1601   75.3478  220.2720 H   0  0  0  0  0  0  0  0  0  0  0  0
  143.4278   75.6927  217.8523 H   0  0  0  0  0  0  0  0  0  0  0  0
  141.7313   75.3018  218.1418 H   0  0  0  0  0  0  0  0  0  0  0  0
  142.8648   78.1858  218.1210 H   0  0  0  0  0  0  0  0  0  0  0  0
  142.0911   77.4368  216.7045 H   0  0  0  0  0  0  0  0  0  0  0  0
  140.4135   78.7505  217.9950 H   0  0  0  0  0  0  0  0  0  0  0  0
  140.0194   77.0091  218.1059 H   0  0  0  0  0  0  0  0  0  0  0  0
  141.6092   78.6451  220.0777 H   0  0  0  0  0  0  0  0  0  0  0  0
  139.5092   79.4265  220.2520 H   0  0  0  0  0  0  0  0  0  0  0  0
  138.8377   77.7765  220.4560 H   0  0  0  0  0  0  0  0  0  0  0  0
  139.5650   77.7550  222.6500 H   0  0  0  0  0  0  0  0  0  0  0  0
  142.6689   78.2255  221.9568 H   0  0  0  0  0  0  0  0  0  0  0  0
  144.3283   79.6992  222.9784 H   0  0  0  0  0  0  0  0  0  0  0  0
  143.6635   81.7198  224.2576 H   0  0  0  0  0  0  0  0  0  0  0  0
  141.2245   82.2116  224.4877 H   0  0  0  0  0  0  0  0  0  0  0  0
  139.5564   80.7315  223.4640 H   0  0  0  0  0  0  0  0  0  0  0  0
  139.2417   70.2136  222.3419 H   0  0  0  0  0  0  0  0  0  0  0  0
  138.7912   68.6298  224.2107 H   0  0  0  0  0  0  0  0  0  0  0  0
  139.0313   68.0599  226.6108 H   0  0  0  0  0  0  0  0  0  0  0  0
  141.1499   70.8129  229.1587 H   0  0  0  0  0  0  0  0  0  0  0  0
  141.5557   72.3422  227.2327 H   0  0  0  0  0  0  0  0  0  0  0  0
  1  2  2  0
  2  3  1  0
  3  4  1  0
  4  5  1  0
  5  6  2  0
  5  7  1  0
  7  8  1  0
  8  9  1  0
  9 10  1  0
 10 11  1  0
 11 12  1  0
 12 13  1  0
 13 14  1  0
 14 15  1  0
 15 16  2  0
 16 17  1  0
 17 18  2  0
 18 19  1  0
 19 20  2  0
  2 21  1  0
 21 22  2  0
 22 23  1  0
 23 24  2  0
 24 25  1  0
 25 26  2  0
 26 27  1  0
 26 28  1  0
 28 29  2  0
 29 30  1  0
 30 31  2  0
 12  7  1  0
 20 15  1  0
 31 21  1  0
 30 24  1  0
  3 32  1  0
  4 33  1  0
  4 34  1  0
  8 35  1  0
  8 36  1  0
  9 37  1  0
  9 38  1  0
 10 39  1  0
 10 40  1  0
 11 41  1  0
 11 42  1  0
 12 43  1  6
 13 44  1  0
 13 45  1  0
 14 46  1  0
 16 47  1  0
 17 48  1  0
 18 49  1  0
 19 50  1  0
 20 51  1  0
 22 52  1  0
 23 53  1  0
 25 54  1  0
 28 55  1  0
 29 56  1  0
M  END
>  <smiles>  (7) 
O=C(NCC(=O)N1CCCC[C@H]1CNc1ccccc1)c1ccc2cc(F)ccc2n1

>  <score_type>  (7) 
oracle

>  <origin>  (7) 
autodockgpu

>  <m_score__min__energy>  (7) 
-9.0999999999999996

>  <m_primary>  (7) 
energy

>  <rmsd>  (7) 
2.489451052550361

>  <m_score__min__rmsd>  (7) 
2.489451052550361

>  <meeko>  (7) 
{"free_energy": -8.65, "intermolecular_energy": -10.74, "internal_energy": -2.0, "cluster_size": 38, "cluster_id": 1, "rank_in_cluster": 12}

>  <energy>  (7) 
-8.78

>  <cluster_rmsd>  (7) 
0.84

>  <cluster>  (7) 
1

$$$$

     RDKit          3D

 56 59  0  0  0  0  0  0  0  0999 V2000
  140.9690   72.1740  221.8730 O   0  0  0  0  0  0  0  0  0  0  0  0
  139.9750   72.1020  222.6350 C   0  0  0  0  0  0  0  0  0  0  0  0
  138.8250   72.9430  222.4010 N   0  0  0  0  0  0  0  0  0  0  0  0
  138.6970   73.8870  221.3710 C   0  0  0  0  0  0  0  0  0  0  0  0
  139.7720   74.2910  220.5040 C   0  0  0  0  0  0  0  0  0  0  0  0
  139.7490   73.6790  219.3420 O   0  0  0  0  0  0  0  0  0  0  0  0
  140.8260   75.2040  220.6400 N   0  0  0  0  0  0  0  0  0  0  0  0
  142.2480   74.8520  220.4500 C   0  0  0  0  0  0  0  0  0  0  0  0
  142.7470   75.6770  219.2990 C   0  0  0  0  0  0  0  0  0  0  0  0
  142.7130   77.1270  219.8020 C   0  0  0  0  0  0  0  0  0  0  0  0
  141.2430   77.5100  219.9710 C   0  0  0  0  0  0  0  0  0  0  0  0
  140.6400   76.6230  221.0090 C   0  0  1  0  0  0  0  0  0  0  0  0
  139.2930   76.9870  221.5010 C   0  0  0  0  0  0  0  0  0  0  0  0
  139.4320   77.8100  222.7160 N   0  0  0  0  0  0  0  0  0  0  0  0
  140.3980   78.8160  222.8880 C   0  0  0  0  0  0  0  0  0  0  0  0
  140.0940   80.1200  222.4730 C   0  0  0  0  0  0  0  0  0  0  0  0
  141.0110   81.1380  222.5830 C   0  0  0  0  0  0  0  0  0  0  0  0
  142.2710   80.9430  223.1020 C   0  0  0  0  0  0  0  0  0  0  0  0
  142.5870   79.6660  223.5130 C   0  0  0  0  0  0  0  0  0  0  0  0
  141.6590   78.6410  223.4000 C   0  0  0  0  0  0  0  0  0  0  0  0
  139.9830   71.1550  223.7700 C   0  0  0  0  0  0  0  0  0  0  0  0
  139.4740   69.8890  223.5790 C   0  0  0  0  0  0  0  0  0  0  0  0
  139.4690   68.9800  224.6290 C   0  0  0  0  0  0  0  0  0  0  0  0
  139.9790   69.3520  225.8730 C   0  0  0  0  0  0  0  0  0  0  0  0
  139.9920   68.4830  226.9380 C   0  0  0  0  0  0  0  0  0  0  0  0
  140.5190   68.9470  228.1320 C   0  0  0  0  0  0  0  0  0  0  0  0
  140.5620   68.1370  229.2230 F   0  0  0  0  0  0  0  0  0  0  0  0
  141.0130   70.2190  228.2660 C   0  0  0  0  0  0  0  0  0  0  0  0
  141.0000   71.0930  227.1980 C   0  0  0  0  0  0  0  0  0  0  0  0
  140.4790   70.6450  226.0060 C   0  0  0  0  0  0  0  0  0  0  0  0
  140.4750   71.5100  224.9740 N   0  0  0  0  0  0  0  0  0  0  0  0
  138.0430   72.7820  223.1070 H   0  0  0  0  0  0  0  0  0  0  0  0
  137.9109   73.4976  220.7074 H   0  0  0  0  0  0  0  0  0  0  0  0
  138.5444   74.8078  221.9531 H   0  0  0  0  0  0  0  0  0  0  0  0
  142.8209   75.0848  221.3597 H   0  0  0  0  0  0  0  0  0  0  0  0
  142.3657   73.7774  220.2467 H   0  0  0  0  0  0  0  0  0  0  0  0
  143.7731   75.3852  219.0309 H   0  0  0  0  0  0  0  0  0  0  0  0
  142.1333   75.5393  218.3965 H   0  0  0  0  0  0  0  0  0  0  0  0
  143.2362   77.2041  220.7665 H   0  0  0  0  0  0  0  0  0  0  0  0
  143.2135   77.8000  219.0903 H   0  0  0  0  0  0  0  0  0  0  0  0
  141.1672   78.5599  220.2903 H   0  0  0  0  0  0  0  0  0  0  0  0
  140.7097   77.3904  219.0164 H   0  0  0  0  0  0  0  0  0  0  0  0
  141.2127   76.8033  221.9307 H   0  0  0  0  0  0  0  0  0  0  0  0
  138.7598   77.5588  220.7272 H   0  0  0  0  0  0  0  0  0  0  0  0
  138.7232   76.0752  221.7330 H   0  0  0  0  0  0  0  0  0  0  0  0
  138.7520   77.6080  223.4820 H   0  0  0  0  0  0  0  0  0  0  0  0
  139.1009   80.3330  222.0506 H   0  0  0  0  0  0  0  0  0  0  0  0
  140.7277   82.1453  222.2439 H   0  0  0  0  0  0  0  0  0  0  0  0
  142.9928   81.7689  223.1849 H   0  0  0  0  0  0  0  0  0  0  0  0
  143.5819   79.4581  223.9335 H   0  0  0  0  0  0  0  0  0  0  0  0
  141.9492   77.6354  223.7385 H   0  0  0  0  0  0  0  0  0  0  0  0
  139.0724   69.5988  222.5969 H   0  0  0  0  0  0  0  0  0  0  0  0
  139.0635   67.9684  224.4800 H   0  0  0  0  0  0  0  0  0  0  0  0
  139.5994   67.4596  226.8457 H   0  0  0  0  0  0  0  0  0  0  0  0
  141.4232   70.5456  229.2330 H   0  0  0  0  0  0  0  0  0  0  0  0
  141.3937   72.1154  227.2966 H   0  0  0  0  0  0  0  0  0  0  0  0
  1  2  2  0
  2  3  1  0
  3  4  1  0
  4  5  1  0
  5  6  2  0
  5  7  1  0
  7  8  1  0
  8  9  1  0
  9 10  1  0
 10 11  1  0
 11 12  1  0
 12 13  1  0
 13 14  1  0
 14 15  1  0
 15 16  2  0
 16 17  1  0
 17 18  2  0
 18 19  1  0
 19 20  2  0
  2 21  1  0
 21 22  2  0
 22 23  1  0
 23 24  2  0
 24 25  1  0
 25 26  2  0
 26 27  1  0
 26 28  1  0
 28 29  2  0
 29 30  1  0
 30 31  2  0
 12  7  1  0
 20 15  1  0
 31 21  1  0
 30 24  1  0
  3 32  1  0
  4 33  1  0
  4 34  1  0
  8 35  1  0
  8 36  1  0
  9 37  1  0
  9 38  1  0
 10 39  1  0
 10 40  1  0
 11 41  1  0
 11 42  1  0
 12 43  1  1
 13 44  1  0
 13 45  1  0
 14 46  1  0
 16 47  1  0
 17 48  1  0
 18 49  1  0
 19 50  1  0
 20 51  1  0
 22 52  1  0
 23 53  1  0
 25 54  1  0
 28 55  1  0
 29 56  1  0
M  END
>  <smiles>  (8) 
O=C(NCC(=O)N1CCCC[C@H]1CNc1ccccc1)c1ccc2cc(F)ccc2n1

>  <score_type>  (8) 
oracle

>  <origin>  (8) 
autodockgpu

>  <m_score__min__energy>  (8) 
-9.0999999999999996

>  <m_primary>  (8) 
energy

>  <rmsd>  (8) 
2.3425481579589604

>  <m_score__min__rmsd>  (8) 
2.3425481579589604

>  <meeko>  (8) 
{"free_energy": -8.5, "intermolecular_energy": -10.58, "internal_energy": -1.5, "cluster_size": 38, "cluster_id": 1, "rank_in_cluster": 19}

>  <energy>  (8) 
-8.72

>  <cluster_rmsd>  (8) 
1.27

>  <cluster>  (8) 
1

$$$$

     RDKit          3D

 56 59  0  0  0  0  0  0  0  0999 V2000
  138.2140   71.9000  223.1640 O   0  0  0  0  0  0  0  0  0  0  0  0
  139.3720   71.4380  223.3030 C   0  0  0  0  0  0  0  0  0  0  0  0
  140.4220   71.8460  222.4000 N   0  0  0  0  0  0  0  0  0  0  0  0
  140.2790   72.7370  221.3260 C   0  0  0  0  0  0  0  0  0  0  0  0
  140.6690   74.1220  221.3640 C   0  0  0  0  0  0  0  0  0  0  0  0
  139.7930   74.8830  221.9790 O   0  0  0  0  0  0  0  0  0  0  0  0
  141.7880   74.8190  220.8900 N   0  0  0  0  0  0  0  0  0  0  0  0
  143.1470   74.2440  220.8250 C   0  0  0  0  0  0  0  0  0  0  0  0
  143.5440   74.2320  219.3770 C   0  0  0  0  0  0  0  0  0  0  0  0
  143.6690   75.7110  218.9850 C   0  0  0  0  0  0  0  0  0  0  0  0
  142.2610   76.3060  219.0190 C   0  0  0  0  0  0  0  0  0  0  0  0
  141.7430   76.2170  220.4160 C   0  0  1  0  0  0  0  0  0  0  0  0
  140.4990   76.9590  220.7160 C   0  0  0  0  0  0  0  0  0  0  0  0
  140.5370   77.4110  222.1190 N   0  0  0  0  0  0  0  0  0  0  0  0
  141.2220   78.5530  222.5660 C   0  0  0  0  0  0  0  0  0  0  0  0
  141.5190   79.5650  221.6430 C   0  0  0  0  0  0  0  0  0  0  0  0
  142.2180   80.6900  222.0130 C   0  0  0  0  0  0  0  0  0  0  0  0
  142.6640   80.8900  223.3000 C   0  0  0  0  0  0  0  0  0  0  0  0
  142.3820   79.9040  224.2200 C   0  0  0  0  0  0  0  0  0  0  0  0
  141.6770   78.7700  223.8430 C   0  0  0  0  0  0  0  0  0  0  0  0
  139.6600   70.4780  224.3890 C   0  0  0  0  0  0  0  0  0  0  0  0
  139.3100   69.1570  224.2140 C   0  0  0  0  0  0  0  0  0  0  0  0
  139.5690   68.2340  225.2190 C   0  0  0  0  0  0  0  0  0  0  0  0
  140.1830   68.6470  226.4010 C   0  0  0  0  0  0  0  0  0  0  0  0
  140.4570   67.7660  227.4200 C   0  0  0  0  0  0  0  0  0  0  0  0
  141.0680   68.2740  228.5540 C   0  0  0  0  0  0  0  0  0  0  0  0
  141.3660   67.4550  229.5970 F   0  0  0  0  0  0  0  0  0  0  0  0
  141.3960   69.6010  228.6750 C   0  0  0  0  0  0  0  0  0  0  0  0
  141.1210   70.4860  227.6530 C   0  0  0  0  0  0  0  0  0  0  0  0
  140.5130   69.9950  226.5210 C   0  0  0  0  0  0  0  0  0  0  0  0
  140.2530   70.8730  225.5340 N   0  0  0  0  0  0  0  0  0  0  0  0
  141.3620   71.3950  222.6250 H   0  0  0  0  0  0  0  0  0  0  0  0
  140.8447   72.2921  220.4940 H   0  0  0  0  0  0  0  0  0  0  0  0
  139.1840   72.8325  221.2820 H   0  0  0  0  0  0  0  0  0  0  0  0
  143.8480   74.8624  221.4048 H   0  0  0  0  0  0  0  0  0  0  0  0
  143.1668   73.2289  221.2482 H   0  0  0  0  0  0  0  0  0  0  0  0
  144.5056   73.7146  219.2444 H   0  0  0  0  0  0  0  0  0  0  0  0
  142.8107   73.7004  218.7527 H   0  0  0  0  0  0  0  0  0  0  0  0
  144.3183   76.2373  219.7002 H   0  0  0  0  0  0  0  0  0  0  0  0
  144.1135   75.8144  217.9841 H   0  0  0  0  0  0  0  0  0  0  0  0
  142.2953   77.3589  218.7023 H   0  0  0  0  0  0  0  0  0  0  0  0
  141.6008   75.7513  218.3361 H   0  0  0  0  0  0  0  0  0  0  0  0
  142.4412   76.7975  221.0369 H   0  0  0  0  0  0  0  0  0  0  0  0
  140.4194   77.8306  220.0496 H   0  0  0  0  0  0  0  0  0  0  0  0
  139.6287   76.3047  220.5595 H   0  0  0  0  0  0  0  0  0  0  0  0
  140.0100   76.8220  222.8010 H   0  0  0  0  0  0  0  0  0  0  0  0
  141.1858   79.4571  220.6002 H   0  0  0  0  0  0  0  0  0  0  0  0
  142.4283   81.4575  221.2535 H   0  0  0  0  0  0  0  0  0  0  0  0
  143.2205   81.7963  223.5811 H   0  0  0  0  0  0  0  0  0  0  0  0
  142.7183   80.0166  225.2613 H   0  0  0  0  0  0  0  0  0  0  0  0
  141.4720   78.0053  224.6067 H   0  0  0  0  0  0  0  0  0  0  0  0
  138.8264   68.8340  223.2803 H   0  0  0  0  0  0  0  0  0  0  0  0
  139.2902   67.1787  225.0828 H   0  0  0  0  0  0  0  0  0  0  0  0
  140.2010   66.6994  227.3378 H   0  0  0  0  0  0  0  0  0  0  0  0
  141.8818   69.9617  229.5936 H   0  0  0  0  0  0  0  0  0  0  0  0
  141.3800   71.5515  227.7407 H   0  0  0  0  0  0  0  0  0  0  0  0
  1  2  2  0
  2  3  1  0
  3  4  1  0
  4  5  1  0
  5  6  2  0
  5  7  1  0
  7  8  1  0
  8  9  1  0
  9 10  1  0
 10 11  1  0
 11 12  1  0
 12 13  1  0
 13 14  1  0
 14 15  1  0
 15 16  2  0
 16 17  1  0
 17 18  2  0
 18 19  1  0
 19 20  2  0
  2 21  1  0
 21 22  2  0
 22 23  1  0
 23 24  2  0
 24 25  1  0
 25 26  2  0
 26 27  1  0
 26 28  1  0
 28 29  2  0
 29 30  1  0
 30 31  2  0
 12  7  1  0
 20 15  1  0
 31 21  1  0
 30 24  1  0
  3 32  1  0
  4 33  1  0
  4 34  1  0
  8 35  1  0
  8 36  1  0
  9 37  1  0
  9 38  1  0
 10 39  1  0
 10 40  1  0
 11 41  1  0
 11 42  1  0
 12 43  1  1
 13 44  1  0
 13 45  1  0
 14 46  1  0
 16 47  1  0
 17 48  1  0
 18 49  1  0
 19 50  1  0
 20 51  1  0
 22 52  1  0
 23 53  1  0
 25 54  1  0
 28 55  1  0
 29 56  1  0
M  END
>  <smiles>  (9) 
O=C(NCC(=O)N1CCCC[C@H]1CNc1ccccc1)c1ccc2cc(F)ccc2n1

>  <score_type>  (9) 
oracle

>  <origin>  (9) 
autodockgpu

>  <m_score__min__energy>  (9) 
-9.0999999999999996

>  <m_primary>  (9) 
energy

>  <rmsd>  (9) 
2.645668628759755

>  <m_score__min__rmsd>  (9) 
2.645668628759755

>  <meeko>  (9) 
{"free_energy": -8.63, "intermolecular_energy": -10.72, "internal_energy": -1.56, "cluster_size": 38, "cluster_id": 1, "rank_in_cluster": 13}

>  <energy>  (9) 
-8.7

>  <cluster_rmsd>  (9) 
1.19

>  <cluster>  (9) 
1

$$$$

     RDKit          3D

 56 59  0  0  0  0  0  0  0  0999 V2000
  140.9630   73.2590  222.3440 O   0  0  0  0  0  0  0  0  0  0  0  0
  139.9380   72.5580  222.5210 C   0  0  0  0  0  0  0  0  0  0  0  0
  138.8160   72.6830  221.6200 N   0  0  0  0  0  0  0  0  0  0  0  0
  138.7400   73.5540  220.5220 C   0  0  0  0  0  0  0  0  0  0  0  0
  139.2990   74.8800  220.4990 C   0  0  0  0  0  0  0  0  0  0  0  0
  138.5040   75.7780  221.0350 O   0  0  0  0  0  0  0  0  0  0  0  0
  140.5120   75.4040  220.0340 N   0  0  0  0  0  0  0  0  0  0  0  0
  141.0610   75.1350  218.6900 C   0  0  0  0  0  0  0  0  0  0  0  0
  141.1430   76.4580  217.9830 C   0  0  0  0  0  0  0  0  0  0  0  0
  142.2110   77.2540  218.7480 C   0  0  0  0  0  0  0  0  0  0  0  0
  141.6370   77.5640  220.1300 C   0  0  0  0  0  0  0  0  0  0  0  0
  141.3920   76.2740  220.8410 C   0  0  1  0  0  0  0  0  0  0  0  0
  141.0700   76.3550  222.2820 C   0  0  0  0  0  0  0  0  0  0  0  0
  140.2070   77.5260  222.5170 N   0  0  0  0  0  0  0  0  0  0  0  0
  140.6760   78.7910  222.9100 C   0  0  0  0  0  0  0  0  0  0  0  0
  142.0250   78.9300  223.2620 C   0  0  0  0  0  0  0  0  0  0  0  0
  142.5340   80.1340  223.6880 C   0  0  0  0  0  0  0  0  0  0  0  0
  141.7590   81.2660  223.7950 C   0  0  0  0  0  0  0  0  0  0  0  0
  140.4280   81.1460  223.4540 C   0  0  0  0  0  0  0  0  0  0  0  0
  139.9180   79.9300  223.0250 C   0  0  0  0  0  0  0  0  0  0  0  0
  139.8790   71.6060  223.6500 C   0  0  0  0  0  0  0  0  0  0  0  0
  139.1910   70.4240  223.4830 C   0  0  0  0  0  0  0  0  0  0  0  0
  139.1200   69.5120  224.5280 C   0  0  0  0  0  0  0  0  0  0  0  0
  139.7460   69.7960  225.7430 C   0  0  0  0  0  0  0  0  0  0  0  0
  139.7000   68.9200  226.8010 C   0  0  0  0  0  0  0  0  0  0  0  0
  140.3520   69.2930  227.9650 C   0  0  0  0  0  0  0  0  0  0  0  0
  140.3440   68.4730  229.0480 F   0  0  0  0  0  0  0  0  0  0  0  0
  141.0220   70.4850  228.0760 C   0  0  0  0  0  0  0  0  0  0  0  0
  141.0690   71.3650  227.0140 C   0  0  0  0  0  0  0  0  0  0  0  0
  140.4250   71.0060  225.8520 C   0  0  0  0  0  0  0  0  0  0  0  0
  140.4820   71.8760  224.8260 N   0  0  0  0  0  0  0  0  0  0  0  0
  138.0110   72.0300  221.8670 H   0  0  0  0  0  0  0  0  0  0  0  0
  139.2119   73.0184  219.6851 H   0  0  0  0  0  0  0  0  0  0  0  0
  137.6643   73.7837  220.5153 H   0  0  0  0  0  0  0  0  0  0  0  0
  142.0622   74.6868  218.7724 H   0  0  0  0  0  0  0  0  0  0  0  0
  140.4233   74.4301  218.1365 H   0  0  0  0  0  0  0  0  0  0  0  0
  141.4433   76.3176  216.9342 H   0  0  0  0  0  0  0  0  0  0  0  0
  140.1738   76.9779  217.9669 H   0  0  0  0  0  0  0  0  0  0  0  0
  143.1289   76.6559  218.8463 H   0  0  0  0  0  0  0  0  0  0  0  0
  142.4660   78.1808  218.2133 H   0  0  0  0  0  0  0  0  0  0  0  0
  142.3533   78.1725  220.7015 H   0  0  0  0  0  0  0  0  0  0  0  0
  140.6957   78.1243  220.0303 H   0  0  0  0  0  0  0  0  0  0  0  0
  142.3706   75.7769  220.9133 H   0  0  0  0  0  0  0  0  0  0  0  0
  140.5438   75.4408  222.5940 H   0  0  0  0  0  0  0  0  0  0  0  0
  141.9978   76.4549  222.8645 H   0  0  0  0  0  0  0  0  0  0  0  0
  139.1850   77.3740  222.3730 H   0  0  0  0  0  0  0  0  0  0  0  0
  142.6911   78.0571  223.1961 H   0  0  0  0  0  0  0  0  0  0  0  0
  143.5999   80.1946  223.9530 H   0  0  0  0  0  0  0  0  0  0  0  0
  142.1815   82.2224  224.1367 H   0  0  0  0  0  0  0  0  0  0  0  0
  139.7659   82.0217  223.5229 H   0  0  0  0  0  0  0  0  0  0  0  0
  138.8510   79.8751  222.7633 H   0  0  0  0  0  0  0  0  0  0  0  0
  138.6991   70.2032  222.5242 H   0  0  0  0  0  0  0  0  0  0  0  0
  138.5714   68.5674  224.3985 H   0  0  0  0  0  0  0  0  0  0  0  0
  139.1667   67.9608  226.7265 H   0  0  0  0  0  0  0  0  0  0  0  0
  141.5260   70.7415  229.0195 H   0  0  0  0  0  0  0  0  0  0  0  0
  141.6041   72.3228  227.0938 H   0  0  0  0  0  0  0  0  0  0  0  0
  1  2  2  0
  2  3  1  0
  3  4  1  0
  4  5  1  0
  5  6  2  0
  5  7  1  0
  7  8  1  0
  8  9  1  0
  9 10  1  0
 10 11  1  0
 11 12  1  0
 12 13  1  0
 13 14  1  0
 14 15  1  0
 15 16  2  0
 16 17  1  0
 17 18  2  0
 18 19  1  0
 19 20  2  0
  2 21  1  0
 21 22  2  0
 22 23  1  0
 23 24  2  0
 24 25  1  0
 25 26  2  0
 26 27  1  0
 26 28  1  0
 28 29  2  0
 29 30  1  0
 30 31  2  0
 12  7  1  0
 20 15  1  0
 31 21  1  0
 30 24  1  0
  3 32  1  0
  4 33  1  0
  4 34  1  0
  8 35  1  0
  8 36  1  0
  9 37  1  0
  9 38  1  0
 10 39  1  0
 10 40  1  0
 11 41  1  0
 11 42  1  0
 12 43  1  1
 13 44  1  0
 13 45  1  0
 14 46  1  0
 16 47  1  0
 17 48  1  0
 18 49  1  0
 19 50  1  0
 20 51  1  0
 22 52  1  0
 23 53  1  0
 25 54  1  0
 28 55  1  0
 29 56  1  0
M  END
>  <smiles>  (10) 
O=C(NCC(=O)N1CCCC[C@H]1CNc1ccccc1)c1ccc2cc(F)ccc2n1

>  <score_type>  (10) 
oracle

>  <origin>  (10) 
autodockgpu

>  <m_score__min__energy>  (10) 
-9.0999999999999996

>  <m_primary>  (10) 
energy

>  <rmsd>  (10) 
2.1622733148693243

>  <m_score__min__rmsd>  (10) 
2.1622733148693243

>  <meeko>  (10) 
{"free_energy": -8.09, "intermolecular_energy": -10.18, "internal_energy": -2.15, "cluster_size": 38, "cluster_id": 1, "rank_in_cluster": 30}

>  <energy>  (10) 
-8.68

>  <cluster_rmsd>  (10) 
1.09

>  <cluster>  (10) 
1

$$$$

     RDKit          3D

 56 59  0  0  0  0  0  0  0  0999 V2000
  139.6000   74.1790  222.0160 O   0  0  0  0  0  0  0  0  0  0  0  0
  140.7640   74.4910  221.6690 C   0  0  0  0  0  0  0  0  0  0  0  0
  141.2130   75.8570  221.8020 N   0  0  0  0  0  0  0  0  0  0  0  0
  140.4470   76.9280  222.2890 C   0  0  0  0  0  0  0  0  0  0  0  0
  141.0020   78.1340  222.8460 C   0  0  0  0  0  0  0  0  0  0  0  0
  141.9080   77.9010  223.7680 O   0  0  0  0  0  0  0  0  0  0  0  0
  140.7800   79.4950  222.6020 N   0  0  0  0  0  0  0  0  0  0  0  0
  140.4780   80.4810  223.6580 C   0  0  0  0  0  0  0  0  0  0  0  0
  141.5950   81.4850  223.6470 C   0  0  0  0  0  0  0  0  0  0  0  0
  141.4590   82.2180  222.3050 C   0  0  0  0  0  0  0  0  0  0  0  0
  141.8020   81.2120  221.2060 C   0  0  0  0  0  0  0  0  0  0  0  0
  140.8060   80.1010  221.2540 C   0  0  1  0  0  0  0  0  0  0  0  0
  140.8090   79.1500  220.1220 C   0  0  0  0  0  0  0  0  0  0  0  0
  142.0960   78.4320  220.1010 N   0  0  0  0  0  0  0  0  0  0  0  0
  142.5510   77.6480  219.0270 C   0  0  0  0  0  0  0  0  0  0  0  0
  143.1150   76.3940  219.3010 C   0  0  0  0  0  0  0  0  0  0  0  0
  143.6090   75.5960  218.2960 C   0  0  0  0  0  0  0  0  0  0  0  0
  143.5810   75.9740  216.9730 C   0  0  0  0  0  0  0  0  0  0  0  0
  143.0300   77.2050  216.6870 C   0  0  0  0  0  0  0  0  0  0  0  0
  142.5330   78.0080  217.7030 C   0  0  0  0  0  0  0  0  0  0  0  0
  141.6750   73.4610  221.1260 C   0  0  0  0  0  0  0  0  0  0  0  0
  141.1760   72.2010  220.8800 C   0  0  0  0  0  0  0  0  0  0  0  0
  142.0100   71.2150  220.3690 C   0  0  0  0  0  0  0  0  0  0  0  0
  143.3490   71.5040  220.1080 C   0  0  0  0  0  0  0  0  0  0  0  0
  144.2070   70.5560  219.6030 C   0  0  0  0  0  0  0  0  0  0  0  0
  145.5190   70.9410  219.3780 C   0  0  0  0  0  0  0  0  0  0  0  0
  146.4180   70.0520  218.8800 F   0  0  0  0  0  0  0  0  0  0  0  0
  145.9630   72.2120  219.6420 C   0  0  0  0  0  0  0  0  0  0  0  0
  145.1020   73.1630  220.1500 C   0  0  0  0  0  0  0  0  0  0  0  0
  143.7970   72.7950  220.3780 C   0  0  0  0  0  0  0  0  0  0  0  0
  142.9700   73.7360  220.8720 N   0  0  0  0  0  0  0  0  0  0  0  0
  142.2210   75.9950  221.4850 H   0  0  0  0  0  0  0  0  0  0  0  0
  139.8195   77.2519  221.4456 H   0  0  0  0  0  0  0  0  0  0  0  0
  140.0020   76.4723  223.1858 H   0  0  0  0  0  0  0  0  0  0  0  0
  139.5196   80.9786  223.4485 H   0  0  0  0  0  0  0  0  0  0  0  0
  140.3951   79.9938  224.6407 H   0  0  0  0  0  0  0  0  0  0  0  0
  141.4892   82.1899  224.4848 H   0  0  0  0  0  0  0  0  0  0  0  0
  142.5798   81.0079  223.7586 H   0  0  0  0  0  0  0  0  0  0  0  0
  140.4286   82.5809  222.1761 H   0  0  0  0  0  0  0  0  0  0  0  0
  142.1320   83.0871  222.2638 H   0  0  0  0  0  0  0  0  0  0  0  0
  141.7598   81.7061  220.2241 H   0  0  0  0  0  0  0  0  0  0  0  0
  142.8165   80.8159  221.3605 H   0  0  0  0  0  0  0  0  0  0  0  0
  139.8243   80.5665  221.0821 H   0  0  0  0  0  0  0  0  0  0  0  0
  139.9868   78.4295  220.2436 H   0  0  0  0  0  0  0  0  0  0  0  0
  140.6734   79.6969  219.1772 H   0  0  0  0  0  0  0  0  0  0  0  0
  142.6870   78.5330  220.9550 H   0  0  0  0  0  0  0  0  0  0  0  0
  143.1634   76.0411  220.3417 H   0  0  0  0  0  0  0  0  0  0  0  0
  144.0424   74.6198  218.5591 H   0  0  0  0  0  0  0  0  0  0  0  0
  143.9798   75.3239  216.1803 H   0  0  0  0  0  0  0  0  0  0  0  0
  142.9841   77.5532  215.6446 H   0  0  0  0  0  0  0  0  0  0  0  0
  142.1023   78.9836  217.4335 H   0  0  0  0  0  0  0  0  0  0  0  0
  140.1194   71.9762  221.0878 H   0  0  0  0  0  0  0  0  0  0  0  0
  141.6150   70.2078  220.1705 H   0  0  0  0  0  0  0  0  0  0  0  0
  143.8658   69.5330  219.3862 H   0  0  0  0  0  0  0  0  0  0  0  0
  147.0132   72.4748  219.4472 H   0  0  0  0  0  0  0  0  0  0  0  0
  145.4490   74.1843  220.3659 H   0  0  0  0  0  0  0  0  0  0  0  0
  1  2  2  0
  2  3  1  0
  3  4  1  0
  4  5  1  0
  5  6  2  0
  5  7  1  0
  7  8  1  0
  8  9  1  0
  9 10  1  0
 10 11  1  0
 11 12  1  0
 12 13  1  0
 13 14  1  0
 14 15  1  0
 15 16  2  0
 16 17  1  0
 17 18  2  0
 18 19  1  0
 19 20  2  0
  2 21  1  0
 21 22  2  0
 22 23  1  0
 23 24  2  0
 24 25  1  0
 25 26  2  0
 26 27  1  0
 26 28  1  0
 28 29  2  0
 29 30  1  0
 30 31  2  0
 12  7  1  0
 20 15  1  0
 31 21  1  0
 30 24  1  0
  3 32  1  0
  4 33  1  0
  4 34  1  0
  8 35  1  0
  8 36  1  0
  9 37  1  0
  9 38  1  0
 10 39  1  0
 10 40  1  0
 11 41  1  0
 11 42  1  0
 12 43  1  6
 13 44  1  0
 13 45  1  0
 14 46  1  0
 16 47  1  0
 17 48  1  0
 18 49  1  0
 19 50  1  0
 20 51  1  0
 22 52  1  0
 23 53  1  0
 25 54  1  0
 28 55  1  0
 29 56  1  0
M  END
>  <smiles>  (11) 
O=C(NCC(=O)N1CCCC[C@H]1CNc1ccccc1)c1ccc2cc(F)ccc2n1

>  <score_type>  (11) 
oracle

>  <origin>  (11) 
autodockgpu

>  <m_score__min__energy>  (11) 
-9.0999999999999996

>  <m_primary>  (11) 
energy

>  <rmsd>  (11) 
6.554557816022123

>  <m_score__min__rmsd>  (11) 
6.554557816022123

>  <meeko>  (11) 
{"free_energy": -7.29, "intermolecular_energy": -9.37, "internal_energy": -2.47, "cluster_size": 1, "cluster_id": 5, "rank_in_cluster": 1}

>  <energy>  (11) 
-8.67

>  <cluster_rmsd>  (11) 
1.11

>  <cluster>  (11) 
1

$$$$

     RDKit          3D

 56 59  0  0  0  0  0  0  0  0999 V2000
  139.5940   73.6710  222.5710 O   0  0  0  0  0  0  0  0  0  0  0  0
  140.3750   72.6890  222.5910 C   0  0  0  0  0  0  0  0  0  0  0  0
  141.4130   72.5740  221.5940 N   0  0  0  0  0  0  0  0  0  0  0  0
  141.6480   73.4780  220.5480 C   0  0  0  0  0  0  0  0  0  0  0  0
  141.7270   74.9060  220.7130 C   0  0  0  0  0  0  0  0  0  0  0  0
  141.8180   75.2700  221.9720 O   0  0  0  0  0  0  0  0  0  0  0  0
  141.7350   75.9790  219.8120 N   0  0  0  0  0  0  0  0  0  0  0  0
  142.9470   76.4620  219.1210 C   0  0  0  0  0  0  0  0  0  0  0  0
  142.7110   76.2750  217.6500 C   0  0  0  0  0  0  0  0  0  0  0  0
  141.5800   77.2520  217.2990 C   0  0  0  0  0  0  0  0  0  0  0  0
  140.3140   76.7410  217.9850 C   0  0  0  0  0  0  0  0  0  0  0  0
  140.5330   76.7630  219.4610 C   0  0  1  0  0  0  0  0  0  0  0  0
  139.3480   76.5410  220.3170 C   0  0  0  0  0  0  0  0  0  0  0  0
  139.7400   76.6920  221.7300 N   0  0  0  0  0  0  0  0  0  0  0  0
  140.0940   77.9120  222.3300 C   0  0  0  0  0  0  0  0  0  0  0  0
  141.4500   78.2600  222.4000 C   0  0  0  0  0  0  0  0  0  0  0  0
  141.8610   79.4230  223.0060 C   0  0  0  0  0  0  0  0  0  0  0  0
  140.9760   80.3100  223.5750 C   0  0  0  0  0  0  0  0  0  0  0  0
  139.6380   79.9830  223.5160 C   0  0  0  0  0  0  0  0  0  0  0  0
  139.2270   78.8080  222.9040 C   0  0  0  0  0  0  0  0  0  0  0  0
  140.2310   71.6530  223.6350 C   0  0  0  0  0  0  0  0  0  0  0  0
  139.5990   70.4720  223.3120 C   0  0  0  0  0  0  0  0  0  0  0  0
  139.4510   69.4810  224.2740 C   0  0  0  0  0  0  0  0  0  0  0  0
  139.9410   69.6850  225.5640 C   0  0  0  0  0  0  0  0  0  0  0  0
  139.8150   68.7310  226.5440 C   0  0  0  0  0  0  0  0  0  0  0  0
  140.3350   69.0280  227.7930 C   0  0  0  0  0  0  0  0  0  0  0  0
  140.2430   68.1270  228.8070 F   0  0  0  0  0  0  0  0  0  0  0  0
  140.9550   70.2220  228.0600 C   0  0  0  0  0  0  0  0  0  0  0  0
  141.0830   71.1810  227.0760 C   0  0  0  0  0  0  0  0  0  0  0  0
  140.5700   70.8990  225.8320 C   0  0  0  0  0  0  0  0  0  0  0  0
  140.7040   71.8460  224.8830 N   0  0  0  0  0  0  0  0  0  0  0  0
  142.0170   71.7050  221.7230 H   0  0  0  0  0  0  0  0  0  0  0  0
  142.6090   73.1767  220.1056 H   0  0  0  0  0  0  0  0  0  0  0  0
  140.7089   73.3875  219.9824 H   0  0  0  0  0  0  0  0  0  0  0  0
  143.1125   77.5260  219.3458 H   0  0  0  0  0  0  0  0  0  0  0  0
  143.8375   75.9073  219.4516 H   0  0  0  0  0  0  0  0  0  0  0  0
  143.6201   76.5156  217.0794 H   0  0  0  0  0  0  0  0  0  0  0  0
  142.4490   75.2355  217.4035 H   0  0  0  0  0  0  0  0  0  0  0  0
  141.8258   78.2602  217.6638 H   0  0  0  0  0  0  0  0  0  0  0  0
  141.4380   77.3106  216.2098 H   0  0  0  0  0  0  0  0  0  0  0  0
  139.4642   77.3898  217.7263 H   0  0  0  0  0  0  0  0  0  0  0  0
  140.0926   75.7162  217.6522 H   0  0  0  0  0  0  0  0  0  0  0  0
  140.7360   77.8123  219.7213 H   0  0  0  0  0  0  0  0  0  0  0  0
  138.5709   77.2790  220.0692 H   0  0  0  0  0  0  0  0  0  0  0  0
  138.9524   75.5286  220.1478 H   0  0  0  0  0  0  0  0  0  0  0  0
  139.7470   75.8150  222.2960 H   0  0  0  0  0  0  0  0  0  0  0  0
  142.2015   77.5877  221.9604 H   0  0  0  0  0  0  0  0  0  0  0  0
  142.9362   79.6532  223.0374 H   0  0  0  0  0  0  0  0  0  0  0  0
  141.3205   81.2378  224.0551 H   0  0  0  0  0  0  0  0  0  0  0  0
  138.8908   80.6589  223.9575 H   0  0  0  0  0  0  0  0  0  0  0  0
  138.1507   78.5826  222.8773 H   0  0  0  0  0  0  0  0  0  0  0  0
  139.2124   70.3143  222.2943 H   0  0  0  0  0  0  0  0  0  0  0  0
  138.9481   68.5366  224.0189 H   0  0  0  0  0  0  0  0  0  0  0  0
  139.3205   67.7688  226.3448 H   0  0  0  0  0  0  0  0  0  0  0  0
  141.3534   70.4167  229.0666 H   0  0  0  0  0  0  0  0  0  0  0  0
  141.5798   72.1409  227.2805 H   0  0  0  0  0  0  0  0  0  0  0  0
  1  2  2  0
  2  3  1  0
  3  4  1  0
  4  5  1  0
  5  6  2  0
  5  7  1  0
  7  8  1  0
  8  9  1  0
  9 10  1  0
 10 11  1  0
 11 12  1  0
 12 13  1  0
 13 14  1  0
 14 15  1  0
 15 16  2  0
 16 17  1  0
 17 18  2  0
 18 19  1  0
 19 20  2  0
  2 21  1  0
 21 22  2  0
 22 23  1  0
 23 24  2  0
 24 25  1  0
 25 26  2  0
 26 27  1  0
 26 28  1  0
 28 29  2  0
 29 30  1  0
 30 31  2  0
 12  7  1  0
 20 15  1  0
 31 21  1  0
 30 24  1  0
  3 32  1  0
  4 33  1  0
  4 34  1  0
  8 35  1  0
  8 36  1  0
  9 37  1  0
  9 38  1  0
 10 39  1  0
 10 40  1  0
 11 41  1  0
 11 42  1  0
 12 43  1  1
 13 44  1  0
 13 45  1  0
 14 46  1  0
 16 47  1  0
 17 48  1  0
 18 49  1  0
 19 50  1  0
 20 51  1  0
 22 52  1  0
 23 53  1  0
 25 54  1  0
 28 55  1  0
 29 56  1  0
M  END
>  <smiles>  (12) 
O=C(NCC(=O)N1CCCC[C@H]1CNc1ccccc1)c1ccc2cc(F)ccc2n1

>  <score_type>  (12) 
oracle

>  <origin>  (12) 
autodockgpu

>  <m_score__min__energy>  (12) 
-9.0999999999999996

>  <m_primary>  (12) 
energy

>  <rmsd>  (12) 
2.741750791324276

>  <m_score__min__rmsd>  (12) 
2.741750791324276

>  <meeko>  (12) 
{"free_energy": -7.62, "intermolecular_energy": -9.71, "internal_energy": -2.74, "cluster_size": 38, "cluster_id": 1, "rank_in_cluster": 36}

>  <energy>  (12) 
-8.65

>  <cluster_rmsd>  (12) 
1.28

>  <cluster>  (12) 
1

$$$$

     RDKit          3D

 56 59  0  0  0  0  0  0  0  0999 V2000
  140.5350   73.5670  222.2830 O   0  0  0  0  0  0  0  0  0  0  0  0
  140.4140   72.3240  222.1770 C   0  0  0  0  0  0  0  0  0  0  0  0
  140.4920   71.7010  220.8760 N   0  0  0  0  0  0  0  0  0  0  0  0
  140.6880   72.3700  219.6580 C   0  0  0  0  0  0  0  0  0  0  0  0
  141.9150   72.3420  218.9060 C   0  0  0  0  0  0  0  0  0  0  0  0
  141.7820   71.7660  217.7340 O   0  0  0  0  0  0  0  0  0  0  0  0
  143.2100   72.8080  219.1640 N   0  0  0  0  0  0  0  0  0  0  0  0
  143.7700   74.0430  218.5810 C   0  0  0  0  0  0  0  0  0  0  0  0
  144.0770   74.9630  219.7270 C   0  0  0  0  0  0  0  0  0  0  0  0
  145.2170   74.2790  220.4940 C   0  0  0  0  0  0  0  0  0  0  0  0
  144.6380   73.0140  221.1280 C   0  0  0  0  0  0  0  0  0  0  0  0
  144.1750   72.1070  220.0370 C   0  0  1  0  0  0  0  0  0  0  0  0
  143.8080   70.7280  220.4240 C   0  0  0  0  0  0  0  0  0  0  0  0
  143.7650   69.8850  219.2160 N   0  0  0  0  0  0  0  0  0  0  0  0
  144.3680   68.6210  219.1080 C   0  0  0  0  0  0  0  0  0  0  0  0
  143.5460   67.4890  219.0190 C   0  0  0  0  0  0  0  0  0  0  0  0
  144.0770   66.2220  218.9460 C   0  0  0  0  0  0  0  0  0  0  0  0
  145.4340   65.9900  218.9560 C   0  0  0  0  0  0  0  0  0  0  0  0
  146.2560   67.0930  219.0450 C   0  0  0  0  0  0  0  0  0  0  0  0
  145.7170   68.3690  219.1180 C   0  0  0  0  0  0  0  0  0  0  0  0
  140.1900   71.4970  223.3820 C   0  0  0  0  0  0  0  0  0  0  0  0
  139.4640   70.3330  223.2600 C   0  0  0  0  0  0  0  0  0  0  0  0
  139.2400   69.5380  224.3760 C   0  0  0  0  0  0  0  0  0  0  0  0
  139.7500   69.9210  225.6170 C   0  0  0  0  0  0  0  0  0  0  0  0
  139.5510   69.1630  226.7460 C   0  0  0  0  0  0  0  0  0  0  0  0
  140.0980   69.6290  227.9300 C   0  0  0  0  0  0  0  0  0  0  0  0
  139.9370   68.9260  229.0830 F   0  0  0  0  0  0  0  0  0  0  0  0
  140.8130   70.7970  227.9940 C   0  0  0  0  0  0  0  0  0  0  0  0
  141.0140   71.5590  226.8610 C   0  0  0  0  0  0  0  0  0  0  0  0
  140.4760   71.1080  225.6780 C   0  0  0  0  0  0  0  0  0  0  0  0
  140.6820   71.8640  224.5830 N   0  0  0  0  0  0  0  0  0  0  0  0
  140.3850   70.6410  220.9160 H   0  0  0  0  0  0  0  0  0  0  0  0
  139.9146   71.9823  218.9786 H   0  0  0  0  0  0  0  0  0  0  0  0
  140.6760   73.4174  219.9939 H   0  0  0  0  0  0  0  0  0  0  0  0
  144.6894   73.8148  218.0218 H   0  0  0  0  0  0  0  0  0  0  0  0
  143.0590   74.5071  217.8817 H   0  0  0  0  0  0  0  0  0  0  0  0
  144.3972   75.9480  219.3565 H   0  0  0  0  0  0  0  0  0  0  0  0
  143.1971   75.1359  220.3640 H   0  0  0  0  0  0  0  0  0  0  0  0
  146.0316   74.0158  219.8032 H   0  0  0  0  0  0  0  0  0  0  0  0
  145.6280   74.9492  221.2634 H   0  0  0  0  0  0  0  0  0  0  0  0
  145.4123   72.5106  221.7255 H   0  0  0  0  0  0  0  0  0  0  0  0
  143.7952   73.2737  221.7855 H   0  0  0  0  0  0  0  0  0  0  0  0
  145.0651   71.8820  219.4312 H   0  0  0  0  0  0  0  0  0  0  0  0
  144.5568   70.3301  221.1247 H   0  0  0  0  0  0  0  0  0  0  0  0
  142.8218   70.7292  220.9112 H   0  0  0  0  0  0  0  0  0  0  0  0
  143.2450   70.2830  218.4030 H   0  0  0  0  0  0  0  0  0  0  0  0
  142.4535   67.6165  219.0073 H   0  0  0  0  0  0  0  0  0  0  0  0
  143.3928   65.3635  218.8772 H   0  0  0  0  0  0  0  0  0  0  0  0
  145.8436   64.9709  218.8957 H   0  0  0  0  0  0  0  0  0  0  0  0
  147.3479   66.9602  219.0582 H   0  0  0  0  0  0  0  0  0  0  0  0
  146.4066   69.2232  219.1875 H   0  0  0  0  0  0  0  0  0  0  0  0
  139.0625   70.0339  222.2805 H   0  0  0  0  0  0  0  0  0  0  0  0
  138.6612   68.6073  224.2820 H   0  0  0  0  0  0  0  0  0  0  0  0
  138.9799   68.2235  226.7107 H   0  0  0  0  0  0  0  0  0  0  0  0
  141.2298   71.1295  228.9561 H   0  0  0  0  0  0  0  0  0  0  0  0
  141.5864   72.4974  226.9026 H   0  0  0  0  0  0  0  0  0  0  0  0
  1  2  2  0
  2  3  1  0
  3  4  1  0
  4  5  1  0
  5  6  2  0
  5  7  1  0
  7  8  1  0
  8  9  1  0
  9 10  1  0
 10 11  1  0
 11 12  1  0
 12 13  1  0
 13 14  1  0
 14 15  1  0
 15 16  2  0
 16 17  1  0
 17 18  2  0
 18 19  1  0
 19 20  2  0
  2 21  1  0
 21 22  2  0
 22 23  1  0
 23 24  2  0
 24 25  1  0
 25 26  2  0
 26 27  1  0
 26 28  1  0
 28 29  2  0
 29 30  1  0
 30 31  2  0
 12  7  1  0
 20 15  1  0
 31 21  1  0
 30 24  1  0
  3 32  1  0
  4 33  1  0
  4 34  1  0
  8 35  1  0
  8 36  1  0
  9 37  1  0
  9 38  1  0
 10 39  1  0
 10 40  1  0
 11 41  1  0
 11 42  1  0
 12 43  1  6
 13 44  1  0
 13 45  1  0
 14 46  1  0
 16 47  1  0
 17 48  1  0
 18 49  1  0
 19 50  1  0
 20 51  1  0
 22 52  1  0
 23 53  1  0
 25 54  1  0
 28 55  1  0
 29 56  1  0
M  END
>  <smiles>  (13) 
O=C(NCC(=O)N1CCCC[C@H]1CNc1ccccc1)c1ccc2cc(F)ccc2n1

>  <score_type>  (13) 
oracle

>  <origin>  (13) 
autodockgpu

>  <m_score__min__energy>  (13) 
-9.0999999999999996

>  <m_primary>  (13) 
energy

>  <rmsd>  (13) 
7.527044755165243

>  <m_score__min__rmsd>  (13) 
7.527044755165243

>  <meeko>  (13) 
{"free_energy": -7.86, "intermolecular_energy": -9.94, "internal_energy": -2.21, "cluster_size": 1, "cluster_id": 3, "rank_in_cluster": 1}

>  <energy>  (13) 
-8.63

>  <cluster_rmsd>  (13) 
0.97

>  <cluster>  (13) 
1

$$$$

     RDKit          3D

 56 59  0  0  0  0  0  0  0  0999 V2000
  139.8090   71.6290  221.0740 O   0  0  0  0  0  0  0  0  0  0  0  0
  139.7380   72.1440  222.2160 C   0  0  0  0  0  0  0  0  0  0  0  0
  139.5980   73.5740  222.3540 N   0  0  0  0  0  0  0  0  0  0  0  0
  139.5400   74.4970  221.2980 C   0  0  0  0  0  0  0  0  0  0  0  0
  140.6640   75.2650  220.8310 C   0  0  0  0  0  0  0  0  0  0  0  0
  141.4390   75.6810  221.8070 O   0  0  0  0  0  0  0  0  0  0  0  0
  141.1030   75.6500  219.5580 N   0  0  0  0  0  0  0  0  0  0  0  0
  141.0900   77.0440  219.0710 C   0  0  0  0  0  0  0  0  0  0  0  0
  142.5180   77.4190  218.7950 C   0  0  0  0  0  0  0  0  0  0  0  0
  142.9400   76.5390  217.6090 C   0  0  0  0  0  0  0  0  0  0  0  0
  142.9850   75.0970  218.1130 C   0  0  0  0  0  0  0  0  0  0  0  0
  141.6120   74.7030  218.5450 C   0  0  1  0  0  0  0  0  0  0  0  0
  141.3870   73.2700  218.8340 C   0  0  0  0  0  0  0  0  0  0  0  0
  142.1240   72.9050  220.0570 N   0  0  0  0  0  0  0  0  0  0  0  0
  143.5230   72.9380  220.1810 C   0  0  0  0  0  0  0  0  0  0  0  0
  144.1180   74.0460  220.8020 C   0  0  0  0  0  0  0  0  0  0  0  0
  145.4830   74.1520  220.9210 C   0  0  0  0  0  0  0  0  0  0  0  0
  146.3420   73.1890  220.4430 C   0  0  0  0  0  0  0  0  0  0  0  0
  145.7740   72.0940  219.8280 C   0  0  0  0  0  0  0  0  0  0  0  0
  144.3960   71.9900  219.7100 C   0  0  0  0  0  0  0  0  0  0  0  0
  139.7980   71.2860  223.4180 C   0  0  0  0  0  0  0  0  0  0  0  0
  139.3200   69.9960  223.3350 C   0  0  0  0  0  0  0  0  0  0  0  0
  139.3650   69.1690  224.4500 C   0  0  0  0  0  0  0  0  0  0  0  0
  139.8940   69.6460  225.6490 C   0  0  0  0  0  0  0  0  0  0  0  0
  139.9570   68.8600  226.7750 C   0  0  0  0  0  0  0  0  0  0  0  0
  140.4990   69.4260  227.9170 C   0  0  0  0  0  0  0  0  0  0  0  0
  140.5900   68.7020  229.0640 F   0  0  0  0  0  0  0  0  0  0  0  0
  140.9610   70.7170  227.9440 C   0  0  0  0  0  0  0  0  0  0  0  0
  140.8980   71.5070  226.8140 C   0  0  0  0  0  0  0  0  0  0  0  0
  140.3610   70.9580  225.6730 C   0  0  0  0  0  0  0  0  0  0  0  0
  140.3090   71.7430  224.5800 N   0  0  0  0  0  0  0  0  0  0  0  0
  139.5370   73.8890  223.3700 H   0  0  0  0  0  0  0  0  0  0  0  0
  139.1859   73.9282  220.4256 H   0  0  0  0  0  0  0  0  0  0  0  0
  138.9225   75.2879  221.7488 H   0  0  0  0  0  0  0  0  0  0  0  0
  140.4939   77.1179  218.1495 H   0  0  0  0  0  0  0  0  0  0  0  0
  140.6409   77.7185  219.8149 H   0  0  0  0  0  0  0  0  0  0  0  0
  142.5937   78.4843  218.5317 H   0  0  0  0  0  0  0  0  0  0  0  0
  143.1622   77.2642  219.6731 H   0  0  0  0  0  0  0  0  0  0  0  0
  142.2089   76.6306  216.7922 H   0  0  0  0  0  0  0  0  0  0  0  0
  143.9216   76.8490  217.2212 H   0  0  0  0  0  0  0  0  0  0  0  0
  143.3249   74.4321  217.3053 H   0  0  0  0  0  0  0  0  0  0  0  0
  143.6840   75.0150  218.9584 H   0  0  0  0  0  0  0  0  0  0  0  0
  140.9744   74.7990  217.6538 H   0  0  0  0  0  0  0  0  0  0  0  0
  140.3124   73.0883  218.9830 H   0  0  0  0  0  0  0  0  0  0  0  0
  141.7429   72.6606  217.9902 H   0  0  0  0  0  0  0  0  0  0  0  0
  141.5390   72.6060  220.8680 H   0  0  0  0  0  0  0  0  0  0  0  0
  143.4787   74.8468  221.2021 H   0  0  0  0  0  0  0  0  0  0  0  0
  145.9044   75.0391  221.4165 H   0  0  0  0  0  0  0  0  0  0  0  0
  147.4325   73.2886  220.5470 H   0  0  0  0  0  0  0  0  0  0  0  0
  146.4181   71.2971  219.4280 H   0  0  0  0  0  0  0  0  0  0  0  0
  143.9812   71.1008  219.2127 H   0  0  0  0  0  0  0  0  0  0  0  0
  138.9038   69.6222  222.3879 H   0  0  0  0  0  0  0  0  0  0  0  0
  138.9839   68.1390  224.3874 H   0  0  0  0  0  0  0  0  0  0  0  0
  139.5914   67.8225  226.7693 H   0  0  0  0  0  0  0  0  0  0  0  0
  141.3849   71.1259  228.8731 H   0  0  0  0  0  0  0  0  0  0  0  0
  141.2659   72.5436  226.8256 H   0  0  0  0  0  0  0  0  0  0  0  0
  1  2  2  0
  2  3  1  0
  3  4  1  0
  4  5  1  0
  5  6  2  0
  5  7  1  0
  7  8  1  0
  8  9  1  0
  9 10  1  0
 10 11  1  0
 11 12  1  0
 12 13  1  0
 13 14  1  0
 14 15  1  0
 15 16  2  0
 16 17  1  0
 17 18  2  0
 18 19  1  0
 19 20  2  0
  2 21  1  0
 21 22  2  0
 22 23  1  0
 23 24  2  0
 24 25  1  0
 25 26  2  0
 26 27  1  0
 26 28  1  0
 28 29  2  0
 29 30  1  0
 30 31  2  0
 12  7  1  0
 20 15  1  0
 31 21  1  0
 30 24  1  0
  3 32  1  0
  4 33  1  0
  4 34  1  0
  8 35  1  0
  8 36  1  0
  9 37  1  0
  9 38  1  0
 10 39  1  0
 10 40  1  0
 11 41  1  0
 11 42  1  0
 12 43  1  6
 13 44  1  0
 13 45  1  0
 14 46  1  0
 16 47  1  0
 17 48  1  0
 18 49  1  0
 19 50  1  0
 20 51  1  0
 22 52  1  0
 23 53  1  0
 25 54  1  0
 28 55  1  0
 29 56  1  0
M  END
>  <smiles>  (14) 
O=C(NCC(=O)N1CCCC[C@H]1CNc1ccccc1)c1ccc2cc(F)ccc2n1

>  <score_type>  (14) 
oracle

>  <origin>  (14) 
autodockgpu

>  <m_score__min__energy>  (14) 
-9.0999999999999996

>  <m_primary>  (14) 
energy

>  <rmsd>  (14) 
4.693143259102285

>  <m_score__min__rmsd>  (14) 
4.693143259102285

>  <meeko>  (14) 
{"free_energy": -7.63, "intermolecular_energy": -9.71, "internal_energy": -2.71, "cluster_size": 7, "cluster_id": 2, "rank_in_cluster": 6}

>  <energy>  (14) 
-8.58

>  <cluster_rmsd>  (14) 
1.2

>  <cluster>  (14) 
1

$$$$

     RDKit          3D

 56 59  0  0  0  0  0  0  0  0999 V2000
  140.6840   72.7840  221.9870 O   0  0  0  0  0  0  0  0  0  0  0  0
  139.6770   72.4560  222.6590 C   0  0  0  0  0  0  0  0  0  0  0  0
  138.3850   73.0160  222.3410 N   0  0  0  0  0  0  0  0  0  0  0  0
  138.1230   73.9420  221.3190 C   0  0  0  0  0  0  0  0  0  0  0  0
  138.8850   75.1430  221.0990 C   0  0  0  0  0  0  0  0  0  0  0  0
  138.3280   76.2070  221.6320 O   0  0  0  0  0  0  0  0  0  0  0  0
  140.0950   75.4070  220.4440 N   0  0  0  0  0  0  0  0  0  0  0  0
  140.4230   74.9110  219.0930 C   0  0  0  0  0  0  0  0  0  0  0  0
  140.6160   76.1200  218.2230 C   0  0  0  0  0  0  0  0  0  0  0  0
  141.8800   76.8030  218.7640 C   0  0  0  0  0  0  0  0  0  0  0  0
  141.5400   77.3470  220.1510 C   0  0  0  0  0  0  0  0  0  0  0  0
  141.1930   76.1980  221.0380 C   0  0  1  0  0  0  0  0  0  0  0  0
  141.0710   76.4820  222.4840 C   0  0  0  0  0  0  0  0  0  0  0  0
  140.4410   77.8020  222.6640 N   0  0  0  0  0  0  0  0  0  0  0  0
  141.1290   78.9640  223.0530 C   0  0  0  0  0  0  0  0  0  0  0  0
  140.3860   80.0860  223.4450 C   0  0  0  0  0  0  0  0  0  0  0  0
  141.0000   81.2630  223.8030 C   0  0  0  0  0  0  0  0  0  0  0  0
  142.3690   81.4100  223.7990 C   0  0  0  0  0  0  0  0  0  0  0  0
  143.1140   80.3160  223.4150 C   0  0  0  0  0  0  0  0  0  0  0  0
  142.4910   79.1310  223.0540 C   0  0  0  0  0  0  0  0  0  0  0  0
  139.8150   71.4950  223.7740 C   0  0  0  0  0  0  0  0  0  0  0  0
  139.4270   70.1890  223.5730 C   0  0  0  0  0  0  0  0  0  0  0  0
  139.5450   69.2660  224.6050 C   0  0  0  0  0  0  0  0  0  0  0  0
  140.0560   69.6660  225.8400 C   0  0  0  0  0  0  0  0  0  0  0  0
  140.1900   68.7840  226.8860 C   0  0  0  0  0  0  0  0  0  0  0  0
  140.7070   69.2780  228.0720 C   0  0  0  0  0  0  0  0  0  0  0  0
  140.8650   68.4580  229.1450 F   0  0  0  0  0  0  0  0  0  0  0  0
  141.0780   70.5900  228.2170 C   0  0  0  0  0  0  0  0  0  0  0  0
  140.9440   71.4760  227.1670 C   0  0  0  0  0  0  0  0  0  0  0  0
  140.4310   70.9990  225.9840 C   0  0  0  0  0  0  0  0  0  0  0  0
  140.3080   71.8770  224.9700 N   0  0  0  0  0  0  0  0  0  0  0  0
  137.6080   72.6530  222.9730 H   0  0  0  0  0  0  0  0  0  0  0  0
  138.1872   73.3734  220.3796 H   0  0  0  0  0  0  0  0  0  0  0  0
  137.1673   74.3642  221.6631 H   0  0  0  0  0  0  0  0  0  0  0  0
  141.3465   74.3141  219.1224 H   0  0  0  0  0  0  0  0  0  0  0  0
  139.6208   74.2674  218.7028 H   0  0  0  0  0  0  0  0  0  0  0  0
  140.7568   75.8223  217.1735 H   0  0  0  0  0  0  0  0  0  0  0  0
  139.7432   76.7890  218.2468 H   0  0  0  0  0  0  0  0  0  0  0  0
  142.7010   76.0744  218.8356 H   0  0  0  0  0  0  0  0  0  0  0  0
  142.2032   77.6138  218.0946 H   0  0  0  0  0  0  0  0  0  0  0  0
  142.4075   77.8842  220.5619 H   0  0  0  0  0  0  0  0  0  0  0  0
  140.6904   78.0426  220.0853 H   0  0  0  0  0  0  0  0  0  0  0  0
  142.0855   75.5557  221.0656 H   0  0  0  0  0  0  0  0  0  0  0  0
  140.4497   75.7092  222.9602 H   0  0  0  0  0  0  0  0  0  0  0  0
  142.0685   76.4808  222.9476 H   0  0  0  0  0  0  0  0  0  0  0  0
  139.4140   77.8440  222.4820 H   0  0  0  0  0  0  0  0  0  0  0  0
  139.2880   80.0236  223.4667 H   0  0  0  0  0  0  0  0  0  0  0  0
  140.3755   82.1173  224.1032 H   0  0  0  0  0  0  0  0  0  0  0  0
  142.8464   82.3576  224.0891 H   0  0  0  0  0  0  0  0  0  0  0  0
  144.2117   80.3834  223.3947 H   0  0  0  0  0  0  0  0  0  0  0  0
  143.1210   78.2810  222.7529 H   0  0  0  0  0  0  0  0  0  0  0  0
  139.0246   69.8773  222.5978 H   0  0  0  0  0  0  0  0  0  0  0  0
  139.2361   68.2219  224.4485 H   0  0  0  0  0  0  0  0  0  0  0  0
  139.8983   67.7282  226.7850 H   0  0  0  0  0  0  0  0  0  0  0  0
  141.4855   70.9391  229.1772 H   0  0  0  0  0  0  0  0  0  0  0  0
  141.2384   72.5305  227.2735 H   0  0  0  0  0  0  0  0  0  0  0  0
  1  2  2  0
  2  3  1  0
  3  4  1  0
  4  5  1  0
  5  6  2  0
  5  7  1  0
  7  8  1  0
  8  9  1  0
  9 10  1  0
 10 11  1  0
 11 12  1  0
 12 13  1  0
 13 14  1  0
 14 15  1  0
 15 16  2  0
 16 17  1  0
 17 18  2  0
 18 19  1  0
 19 20  2  0
  2 21  1  0
 21 22  2  0
 22 23  1  0
 23 24  2  0
 24 25  1  0
 25 26  2  0
 26 27  1  0
 26 28  1  0
 28 29  2  0
 29 30  1  0
 30 31  2  0
 12  7  1  0
 20 15  1  0
 31 21  1  0
 30 24  1  0
  3 32  1  0
  4 33  1  0
  4 34  1  0
  8 35  1  0
  8 36  1  0
  9 37  1  0
  9 38  1  0
 10 39  1  0
 10 40  1  0
 11 41  1  0
 11 42  1  0
 12 43  1  1
 13 44  1  0
 13 45  1  0
 14 46  1  0
 16 47  1  0
 17 48  1  0
 18 49  1  0
 19 50  1  0
 20 51  1  0
 22 52  1  0
 23 53  1  0
 25 54  1  0
 28 55  1  0
 29 56  1  0
M  END
>  <smiles>  (15) 
O=C(NCC(=O)N1CCCC[C@H]1CNc1ccccc1)c1ccc2cc(F)ccc2n1

>  <score_type>  (15) 
oracle

>  <origin>  (15) 
autodockgpu

>  <m_score__min__energy>  (15) 
-9.0999999999999996

>  <m_primary>  (15) 
energy

>  <rmsd>  (15) 
2.0650366035123944

>  <m_score__min__rmsd>  (15) 
2.0650366035123944

>  <meeko>  (15) 
{"free_energy": -8.19, "intermolecular_energy": -10.27, "internal_energy": -2.17, "cluster_size": 38, "cluster_id": 1, "rank_in_cluster": 28}

>  <energy>  (15) 
-8.56

>  <cluster_rmsd>  (15) 
1.0

>  <cluster>  (15) 
1

$$$$

     RDKit          3D

 56 59  0  0  0  0  0  0  0  0999 V2000
  138.8690   70.8400  221.1990 O   0  0  0  0  0  0  0  0  0  0  0  0
  139.0900   71.4200  222.2890 C   0  0  0  0  0  0  0  0  0  0  0  0
  139.0860   72.8630  222.3490 N   0  0  0  0  0  0  0  0  0  0  0  0
  138.8620   73.7280  221.2670 C   0  0  0  0  0  0  0  0  0  0  0  0
  139.9050   74.3000  220.4580 C   0  0  0  0  0  0  0  0  0  0  0  0
  139.4480   74.8890  219.3760 O   0  0  0  0  0  0  0  0  0  0  0  0
  141.2990   74.3650  220.5900 N   0  0  0  0  0  0  0  0  0  0  0  0
  142.1490   73.1970  220.8970 C   0  0  0  0  0  0  0  0  0  0  0  0
  143.0750   73.0170  219.7270 C   0  0  0  0  0  0  0  0  0  0  0  0
  143.9890   74.2500  219.7480 C   0  0  0  0  0  0  0  0  0  0  0  0
  143.1220   75.4600  219.4010 C   0  0  0  0  0  0  0  0  0  0  0  0
  142.0780   75.6130  220.4570 C   0  0  1  0  0  0  0  0  0  0  0  0
  141.2900   76.8640  220.4430 C   0  0  0  0  0  0  0  0  0  0  0  0
  142.1870   78.0000  220.7260 N   0  0  0  0  0  0  0  0  0  0  0  0
  141.9600   78.9600  221.7260 C   0  0  0  0  0  0  0  0  0  0  0  0
  141.4530   78.5380  222.9620 C   0  0  0  0  0  0  0  0  0  0  0  0
  141.1780   79.4350  223.9670 C   0  0  0  0  0  0  0  0  0  0  0  0
  141.3820   80.7890  223.8240 C   0  0  0  0  0  0  0  0  0  0  0  0
  141.8800   81.2210  222.6130 C   0  0  0  0  0  0  0  0  0  0  0  0
  142.1560   80.3130  221.6010 C   0  0  0  0  0  0  0  0  0  0  0  0
  139.3540   70.6280  223.5080 C   0  0  0  0  0  0  0  0  0  0  0  0
  138.9940   69.2980  223.5230 C   0  0  0  0  0  0  0  0  0  0  0  0
  139.2310   68.5310  224.6570 C   0  0  0  0  0  0  0  0  0  0  0  0
  139.8320   69.1090  225.7750 C   0  0  0  0  0  0  0  0  0  0  0  0
  140.0840   68.3850  226.9150 C   0  0  0  0  0  0  0  0  0  0  0  0
  140.6830   69.0490  227.9720 C   0  0  0  0  0  0  0  0  0  0  0  0
  140.9590   68.3900  229.1290 F   0  0  0  0  0  0  0  0  0  0  0  0
  141.0210   70.3770  227.9030 C   0  0  0  0  0  0  0  0  0  0  0  0
  140.7690   71.1050  226.7580 C   0  0  0  0  0  0  0  0  0  0  0  0
  140.1730   70.4570  225.7010 C   0  0  0  0  0  0  0  0  0  0  0  0
  139.9350   71.1830  224.5910 N   0  0  0  0  0  0  0  0  0  0  0  0
  139.2750   73.2380  223.3290 H   0  0  0  0  0  0  0  0  0  0  0  0
  138.2175   73.1716  220.5706 H   0  0  0  0  0  0  0  0  0  0  0  0
  138.4933   74.6223  221.7908 H   0  0  0  0  0  0  0  0  0  0  0  0
  142.7281   73.3802  221.8141 H   0  0  0  0  0  0  0  0  0  0  0  0
  141.5393   72.2963  221.0611 H   0  0  0  0  0  0  0  0  0  0  0  0
  143.6659   72.0961  219.8401 H   0  0  0  0  0  0  0  0  0  0  0  0
  142.5271   72.9259  218.7776 H   0  0  0  0  0  0  0  0  0  0  0  0
  144.4293   74.3760  220.7481 H   0  0  0  0  0  0  0  0  0  0  0  0
  144.8119   74.1389  219.0265 H   0  0  0  0  0  0  0  0  0  0  0  0
  143.7462   76.3649  219.3624 H   0  0  0  0  0  0  0  0  0  0  0  0
  142.6469   75.3143  218.4196 H   0  0  0  0  0  0  0  0  0  0  0  0
  142.6216   75.7655  221.4010 H   0  0  0  0  0  0  0  0  0  0  0  0
  140.8271   76.9972  219.4541 H   0  0  0  0  0  0  0  0  0  0  0  0
  140.5007   76.8145  221.2075 H   0  0  0  0  0  0  0  0  0  0  0  0
  143.0380   78.0670  220.1250 H   0  0  0  0  0  0  0  0  0  0  0  0
  141.2711   77.4665  223.1319 H   0  0  0  0  0  0  0  0  0  0  0  0
  140.7803   79.0569  224.9204 H   0  0  0  0  0  0  0  0  0  0  0  0
  141.1580   81.4937  224.6384 H   0  0  0  0  0  0  0  0  0  0  0  0
  142.0598   82.2936  222.4480 H   0  0  0  0  0  0  0  0  0  0  0  0
  142.5523   80.6970  220.6494 H   0  0  0  0  0  0  0  0  0  0  0  0
  138.5203   68.8448  222.6397 H   0  0  0  0  0  0  0  0  0  0  0  0
  138.9449   67.4690  224.6730 H   0  0  0  0  0  0  0  0  0  0  0  0
  139.8202   67.3194  226.9853 H   0  0  0  0  0  0  0  0  0  0  0  0
  141.4963   70.8650  228.7667 H   0  0  0  0  0  0  0  0  0  0  0  0
  141.0363   72.1700  226.6926 H   0  0  0  0  0  0  0  0  0  0  0  0
  1  2  2  0
  2  3  1  0
  3  4  1  0
  4  5  1  0
  5  6  2  0
  5  7  1  0
  7  8  1  0
  8  9  1  0
  9 10  1  0
 10 11  1  0
 11 12  1  0
 12 13  1  0
 13 14  1  0
 14 15  1  0
 15 16  2  0
 16 17  1  0
 17 18  2  0
 18 19  1  0
 19 20  2  0
  2 21  1  0
 21 22  2  0
 22 23  1  0
 23 24  2  0
 24 25  1  0
 25 26  2  0
 26 27  1  0
 26 28  1  0
 28 29  2  0
 29 30  1  0
 30 31  2  0
 12  7  1  0
 20 15  1  0
 31 21  1  0
 30 24  1  0
  3 32  1  0
  4 33  1  0
  4 34  1  0
  8 35  1  0
  8 36  1  0
  9 37  1  0
  9 38  1  0
 10 39  1  0
 10 40  1  0
 11 41  1  0
 11 42  1  0
 12 43  1  1
 13 44  1  0
 13 45  1  0
 14 46  1  0
 16 47  1  0
 17 48  1  0
 18 49  1  0
 19 50  1  0
 20 51  1  0
 22 52  1  0
 23 53  1  0
 25 54  1  0
 28 55  1  0
 29 56  1  0
M  END
>  <smiles>  (16) 
O=C(NCC(=O)N1CCCC[C@H]1CNc1ccccc1)c1ccc2cc(F)ccc2n1

>  <score_type>  (16) 
oracle

>  <origin>  (16) 
autodockgpu

>  <m_score__min__energy>  (16) 
-9.0999999999999996

>  <m_primary>  (16) 
energy

>  <rmsd>  (16) 
2.5759630232606012

>  <m_score__min__rmsd>  (16) 
2.5759630232606012

>  <meeko>  (16) 
{"free_energy": -8.7, "intermolecular_energy": -10.79, "internal_energy": -1.6, "cluster_size": 38, "cluster_id": 1, "rank_in_cluster": 9}

>  <energy>  (16) 
-8.56

>  <cluster_rmsd>  (16) 
1.23

>  <cluster>  (16) 
1

$$$$

     RDKit          3D

 56 59  0  0  0  0  0  0  0  0999 V2000
  139.2950   74.2860  220.2610 O   0  0  0  0  0  0  0  0  0  0  0  0
  139.1010   74.9910  221.2810 C   0  0  0  0  0  0  0  0  0  0  0  0
  138.0890   74.6090  222.2380 N   0  0  0  0  0  0  0  0  0  0  0  0
  137.2510   73.4870  222.1400 C   0  0  0  0  0  0  0  0  0  0  0  0
  137.6010   72.1710  222.6060 C   0  0  0  0  0  0  0  0  0  0  0  0
  137.0330   71.8650  223.7500 O   0  0  0  0  0  0  0  0  0  0  0  0
  138.4130   71.1530  222.0880 N   0  0  0  0  0  0  0  0  0  0  0  0
  137.9280   70.1040  221.1690 C   0  0  0  0  0  0  0  0  0  0  0  0
  138.6940   70.2640  219.8870 C   0  0  0  0  0  0  0  0  0  0  0  0
  140.1450   69.9080  220.2420 C   0  0  0  0  0  0  0  0  0  0  0  0
  140.6640   71.0060  221.1680 C   0  0  0  0  0  0  0  0  0  0  0  0
  139.8450   71.0000  222.4160 C   0  0  1  0  0  0  0  0  0  0  0  0
  140.3380   71.8190  223.5440 C   0  0  0  0  0  0  0  0  0  0  0  0
  139.5520   71.4990  224.7500 N   0  0  0  0  0  0  0  0  0  0  0  0
  140.0130   70.6970  225.8070 C   0  0  0  0  0  0  0  0  0  0  0  0
  140.5730   71.3200  226.9300 C   0  0  0  0  0  0  0  0  0  0  0  0
  141.0730   70.5880  227.9820 C   0  0  0  0  0  0  0  0  0  0  0  0
  141.0530   69.2120  227.9960 C   0  0  0  0  0  0  0  0  0  0  0  0
  140.5060   68.5830  226.8990 C   0  0  0  0  0  0  0  0  0  0  0  0
  140.0030   69.3250  225.8400 C   0  0  0  0  0  0  0  0  0  0  0  0
  139.9070   76.2100  221.5020 C   0  0  0  0  0  0  0  0  0  0  0  0
  141.0180   76.4190  220.7150 C   0  0  0  0  0  0  0  0  0  0  0  0
  141.7930   77.5560  220.9010 C   0  0  0  0  0  0  0  0  0  0  0  0
  141.4440   78.4820  221.8850 C   0  0  0  0  0  0  0  0  0  0  0  0
  142.1840   79.6200  222.1010 C   0  0  0  0  0  0  0  0  0  0  0  0
  141.7560   80.4770  223.1020 C   0  0  0  0  0  0  0  0  0  0  0  0
  142.4430   81.6200  223.3660 F   0  0  0  0  0  0  0  0  0  0  0  0
  140.6400   80.2190  223.8570 C   0  0  0  0  0  0  0  0  0  0  0  0
  139.8960   79.0760  223.6400 C   0  0  0  0  0  0  0  0  0  0  0  0
  140.3110   78.2160  222.6500 C   0  0  0  0  0  0  0  0  0  0  0  0
  139.5730   77.1070  222.4510 N   0  0  0  0  0  0  0  0  0  0  0  0
  138.0250   75.2780  223.0650 H   0  0  0  0  0  0  0  0  0  0  0  0
  136.3297   73.7568  222.6770 H   0  0  0  0  0  0  0  0  0  0  0  0
  137.2479   73.3264  221.0518 H   0  0  0  0  0  0  0  0  0  0  0  0
  138.1127   69.1085  221.5990 H   0  0  0  0  0  0  0  0  0  0  0  0
  136.8456   70.1986  220.9972 H   0  0  0  0  0  0  0  0  0  0  0  0
  138.3059   69.5808  219.1172 H   0  0  0  0  0  0  0  0  0  0  0  0
  138.6070   71.2817  219.4787 H   0  0  0  0  0  0  0  0  0  0  0  0
  140.1802   68.9350  220.7539 H   0  0  0  0  0  0  0  0  0  0  0  0
  140.7633   69.8365  219.3351 H   0  0  0  0  0  0  0  0  0  0  0  0
  141.7186   70.8148  221.4154 H   0  0  0  0  0  0  0  0  0  0  0  0
  140.5873   71.9847  220.6718 H   0  0  0  0  0  0  0  0  0  0  0  0
  139.9768   70.0027  222.8611 H   0  0  0  0  0  0  0  0  0  0  0  0
  141.3996   71.5953  223.7257 H   0  0  0  0  0  0  0  0  0  0  0  0
  140.2299   72.8868  223.3028 H   0  0  0  0  0  0  0  0  0  0  0  0
  138.5930   71.9100  224.7900 H   0  0  0  0  0  0  0  0  0  0  0  0
  140.6138   72.4185  226.9714 H   0  0  0  0  0  0  0  0  0  0  0  0
  141.5039   71.1213  228.8422 H   0  0  0  0  0  0  0  0  0  0  0  0
  141.4557   68.6400  228.8449 H   0  0  0  0  0  0  0  0  0  0  0  0
  140.4678   67.4843  226.8625 H   0  0  0  0  0  0  0  0  0  0  0  0
  139.5741   68.7858  224.9825 H   0  0  0  0  0  0  0  0  0  0  0  0
  141.2907   75.6867  219.9408 H   0  0  0  0  0  0  0  0  0  0  0  0
  142.6805   77.7265  220.2739 H   0  0  0  0  0  0  0  0  0  0  0  0
  143.0803   79.8415  221.5030 H   0  0  0  0  0  0  0  0  0  0  0  0
  140.3355   80.9279  224.6411 H   0  0  0  0  0  0  0  0  0  0  0  0
  138.9997   78.8601  224.2400 H   0  0  0  0  0  0  0  0  0  0  0  0
  1  2  2  0
  2  3  1  0
  3  4  1  0
  4  5  1  0
  5  6  2  0
  5  7  1  0
  7  8  1  0
  8  9  1  0
  9 10  1  0
 10 11  1  0
 11 12  1  0
 12 13  1  0
 13 14  1  0
 14 15  1  0
 15 16  2  0
 16 17  1  0
 17 18  2  0
 18 19  1  0
 19 20  2  0
  2 21  1  0
 21 22  2  0
 22 23  1  0
 23 24  2  0
 24 25  1  0
 25 26  2  0
 26 27  1  0
 26 28  1  0
 28 29  2  0
 29 30  1  0
 30 31  2  0
 12  7  1  0
 20 15  1  0
 31 21  1  0
 30 24  1  0
  3 32  1  0
  4 33  1  0
  4 34  1  0
  8 35  1  0
  8 36  1  0
  9 37  1  0
  9 38  1  0
 10 39  1  0
 10 40  1  0
 11 41  1  0
 11 42  1  0
 12 43  1  1
 13 44  1  0
 13 45  1  0
 14 46  1  0
 16 47  1  0
 17 48  1  0
 18 49  1  0
 19 50  1  0
 20 51  1  0
 22 52  1  0
 23 53  1  0
 25 54  1  0
 28 55  1  0
 29 56  1  0
M  END
>  <smiles>  (17) 
O=C(NCC(=O)N1CCCC[C@H]1CNc1ccccc1)c1ccc2cc(F)ccc2n1

>  <score_type>  (17) 
oracle

>  <origin>  (17) 
autodockgpu

>  <m_score__min__energy>  (17) 
-9.0999999999999996

>  <m_primary>  (17) 
energy

>  <rmsd>  (17) 
9.023599119593433

>  <m_score__min__rmsd>  (17) 
9.023599119593433

>  <meeko>  (17) 
{"free_energy": -7.35, "intermolecular_energy": -9.44, "internal_energy": -2.64, "cluster_size": 3, "cluster_id": 4, "rank_in_cluster": 2}

>  <energy>  (17) 
-8.54

>  <cluster_rmsd>  (17) 
1.19

>  <cluster>  (17) 
1

$$$$

     RDKit          3D

 56 59  0  0  0  0  0  0  0  0999 V2000
  140.7310   71.4850  221.2910 O   0  0  0  0  0  0  0  0  0  0  0  0
  140.2880   71.9840  222.3530 C   0  0  0  0  0  0  0  0  0  0  0  0
  139.9590   73.3880  222.4070 N   0  0  0  0  0  0  0  0  0  0  0  0
  140.0980   74.3030  221.3510 C   0  0  0  0  0  0  0  0  0  0  0  0
  140.3320   75.7120  221.5260 C   0  0  0  0  0  0  0  0  0  0  0  0
  139.9250   76.1570  222.6930 O   0  0  0  0  0  0  0  0  0  0  0  0
  140.9080   76.6990  220.7150 N   0  0  0  0  0  0  0  0  0  0  0  0
  142.2490   76.5830  220.1080 C   0  0  0  0  0  0  0  0  0  0  0  0
  142.0530   76.6100  218.6190 C   0  0  0  0  0  0  0  0  0  0  0  0
  141.5470   78.0260  218.3090 C   0  0  0  0  0  0  0  0  0  0  0  0
  140.1450   78.1440  218.9070 C   0  0  0  0  0  0  0  0  0  0  0  0
  140.2470   77.9790  220.3870 C   0  0  1  0  0  0  0  0  0  0  0  0
  139.0430   78.3030  221.1820 C   0  0  0  0  0  0  0  0  0  0  0  0
  139.4400   78.5430  222.5810 N   0  0  0  0  0  0  0  0  0  0  0  0
  140.4690   79.4130  222.9760 C   0  0  0  0  0  0  0  0  0  0  0  0
  140.4390   80.7400  222.5240 C   0  0  0  0  0  0  0  0  0  0  0  0
  141.4360   81.6300  222.8490 C   0  0  0  0  0  0  0  0  0  0  0  0
  142.5140   81.2760  223.6280 C   0  0  0  0  0  0  0  0  0  0  0  0
  142.5600   79.9750  224.0790 C   0  0  0  0  0  0  0  0  0  0  0  0
  141.5520   79.0800  223.7500 C   0  0  0  0  0  0  0  0  0  0  0  0
  140.1040   71.1330  223.5480 C   0  0  0  0  0  0  0  0  0  0  0  0
  139.4510   69.9280  223.4080 C   0  0  0  0  0  0  0  0  0  0  0  0
  139.2640   69.1100  224.5140 C   0  0  0  0  0  0  0  0  0  0  0  0
  139.7390   69.5110  225.7630 C   0  0  0  0  0  0  0  0  0  0  0  0
  139.5760   68.7300  226.8830 C   0  0  0  0  0  0  0  0  0  0  0  0
  140.0830   69.2160  228.0770 C   0  0  0  0  0  0  0  0  0  0  0  0
  139.9540   68.4930  229.2210 F   0  0  0  0  0  0  0  0  0  0  0  0
  140.7260   70.4250  228.1600 C   0  0  0  0  0  0  0  0  0  0  0  0
  140.8910   71.2090  227.0360 C   0  0  0  0  0  0  0  0  0  0  0  0
  140.3910   70.7390  225.8440 C   0  0  0  0  0  0  0  0  0  0  0  0
  140.5620   71.5160  224.7570 N   0  0  0  0  0  0  0  0  0  0  0  0
  139.5830   73.6910  223.3570 H   0  0  0  0  0  0  0  0  0  0  0  0
  140.9410   73.9346  220.7479 H   0  0  0  0  0  0  0  0  0  0  0  0
  139.0739   74.3121  220.9495 H   0  0  0  0  0  0  0  0  0  0  0  0
  142.8816   77.4262  220.4224 H   0  0  0  0  0  0  0  0  0  0  0  0
  142.7475   75.6549  220.4245 H   0  0  0  0  0  0  0  0  0  0  0  0
  143.0038   76.4173  218.1006 H   0  0  0  0  0  0  0  0  0  0  0  0
  141.3473   75.8366  218.2816 H   0  0  0  0  0  0  0  0  0  0  0  0
  142.2148   78.7730  218.7629 H   0  0  0  0  0  0  0  0  0  0  0  0
  141.5259   78.2051  217.2239 H   0  0  0  0  0  0  0  0  0  0  0  0
  139.7231   79.1323  218.6719 H   0  0  0  0  0  0  0  0  0  0  0  0
  139.4885   77.3687  218.4853 H   0  0  0  0  0  0  0  0  0  0  0  0
  140.9038   78.7890  220.7370 H   0  0  0  0  0  0  0  0  0  0  0  0
  138.5644   79.2058  220.7747 H   0  0  0  0  0  0  0  0  0  0  0  0
  138.3320   77.4649  221.1368 H   0  0  0  0  0  0  0  0  0  0  0  0
  138.9010   78.0150  223.3030 H   0  0  0  0  0  0  0  0  0  0  0  0
  139.6005   81.0763  221.8964 H   0  0  0  0  0  0  0  0  0  0  0  0
  141.3694   82.6615  222.4729 H   0  0  0  0  0  0  0  0  0  0  0  0
  143.3036   81.9995  223.8793 H   0  0  0  0  0  0  0  0  0  0  0  0
  143.4019   79.6434  224.7044 H   0  0  0  0  0  0  0  0  0  0  0  0
  141.6249   78.0501  224.1294 H   0  0  0  0  0  0  0  0  0  0  0  0
  139.0784   69.6146  222.4216 H   0  0  0  0  0  0  0  0  0  0  0  0
  138.7424   68.1476  224.4058 H   0  0  0  0  0  0  0  0  0  0  0  0
  139.0634   67.7580  226.8328 H   0  0  0  0  0  0  0  0  0  0  0  0
  141.1129   70.7722  229.1294 H   0  0  0  0  0  0  0  0  0  0  0  0
  141.4062   72.1793  227.0918 H   0  0  0  0  0  0  0  0  0  0  0  0
  1  2  2  0
  2  3  1  0
  3  4  1  0
  4  5  1  0
  5  6  2  0
  5  7  1  0
  7  8  1  0
  8  9  1  0
  9 10  1  0
 10 11  1  0
 11 12  1  0
 12 13  1  0
 13 14  1  0
 14 15  1  0
 15 16  2  0
 16 17  1  0
 17 18  2  0
 18 19  1  0
 19 20  2  0
  2 21  1  0
 21 22  2  0
 22 23  1  0
 23 24  2  0
 24 25  1  0
 25 26  2  0
 26 27  1  0
 26 28  1  0
 28 29  2  0
 29 30  1  0
 30 31  2  0
 12  7  1  0
 20 15  1  0
 31 21  1  0
 30 24  1  0
  3 32  1  0
  4 33  1  0
  4 34  1  0
  8 35  1  0
  8 36  1  0
  9 37  1  0
  9 38  1  0
 10 39  1  0
 10 40  1  0
 11 41  1  0
 11 42  1  0
 12 43  1  1
 13 44  1  0
 13 45  1  0
 14 46  1  0
 16 47  1  0
 17 48  1  0
 18 49  1  0
 19 50  1  0
 20 51  1  0
 22 52  1  0
 23 53  1  0
 25 54  1  0
 28 55  1  0
 29 56  1  0
M  END
>  <smiles>  (18) 
O=C(NCC(=O)N1CCCC[C@H]1CNc1ccccc1)c1ccc2cc(F)ccc2n1

>  <score_type>  (18) 
oracle

>  <origin>  (18) 
autodockgpu

>  <m_score__min__energy>  (18) 
-9.0999999999999996

>  <m_primary>  (18) 
energy

>  <rmsd>  (18) 
2.4100810957577514

>  <m_score__min__rmsd>  (18) 
2.4100810957577514

>  <meeko>  (18) 
{"free_energy": -8.4, "intermolecular_energy": -10.49, "internal_energy": -2.11, "cluster_size": 38, "cluster_id": 1, "rank_in_cluster": 25}

>  <energy>  (18) 
-8.5

>  <cluster_rmsd>  (18) 
1.44

>  <cluster>  (18) 
1

$$$$

     RDKit          3D

 56 59  0  0  0  0  0  0  0  0999 V2000
  140.4410   71.7820  221.0600 O   0  0  0  0  0  0  0  0  0  0  0  0
  139.9120   72.2040  222.1170 C   0  0  0  0  0  0  0  0  0  0  0  0
  139.2620   73.4940  222.1310 N   0  0  0  0  0  0  0  0  0  0  0  0
  139.1630   74.3730  221.0430 C   0  0  0  0  0  0  0  0  0  0  0  0
  140.1600   74.5040  220.0130 C   0  0  0  0  0  0  0  0  0  0  0  0
  139.9350   73.7220  218.9820 O   0  0  0  0  0  0  0  0  0  0  0  0
  141.3090   75.2950  219.8820 N   0  0  0  0  0  0  0  0  0  0  0  0
  142.4240   74.9790  218.9670 C   0  0  0  0  0  0  0  0  0  0  0  0
  142.5100   76.1100  217.9830 C   0  0  0  0  0  0  0  0  0  0  0  0
  142.9470   77.3270  218.8110 C   0  0  0  0  0  0  0  0  0  0  0  0
  141.7850   77.6800  219.7390 C   0  0  0  0  0  0  0  0  0  0  0  0
  141.5480   76.5290  220.6590 C   0  0  1  0  0  0  0  0  0  0  0  0
  140.6320   76.7590  221.7970 C   0  0  0  0  0  0  0  0  0  0  0  0
  141.3810   77.3980  222.8940 N   0  0  0  0  0  0  0  0  0  0  0  0
  141.4620   78.7860  223.0970 C   0  0  0  0  0  0  0  0  0  0  0  0
  142.7240   79.3950  223.0840 C   0  0  0  0  0  0  0  0  0  0  0  0
  142.8710   80.7430  223.3110 C   0  0  0  0  0  0  0  0  0  0  0  0
  141.8000   81.5690  223.5630 C   0  0  0  0  0  0  0  0  0  0  0  0
  140.5510   80.9860  223.5810 C   0  0  0  0  0  0  0  0  0  0  0  0
  140.4070   79.6250  223.3510 C   0  0  0  0  0  0  0  0  0  0  0  0
  139.9550   71.3820  223.3440 C   0  0  0  0  0  0  0  0  0  0  0  0
  139.4950   70.0840  223.2870 C   0  0  0  0  0  0  0  0  0  0  0  0
  139.5240   69.2900  224.4260 C   0  0  0  0  0  0  0  0  0  0  0  0
  140.0180   69.8080  225.6230 C   0  0  0  0  0  0  0  0  0  0  0  0
  140.0650   69.0550  226.7720 C   0  0  0  0  0  0  0  0  0  0  0  0
  140.5730   69.6600  227.9100 C   0  0  0  0  0  0  0  0  0  0  0  0
  140.6460   68.9700  229.0790 F   0  0  0  0  0  0  0  0  0  0  0  0
  141.0180   70.9580  227.9100 C   0  0  0  0  0  0  0  0  0  0  0  0
  140.9720   71.7150  226.7560 C   0  0  0  0  0  0  0  0  0  0  0  0
  140.4690   71.1260  225.6200 C   0  0  0  0  0  0  0  0  0  0  0  0
  140.4330   71.8780  224.5030 N   0  0  0  0  0  0  0  0  0  0  0  0
  138.8430   73.7360  223.0810 H   0  0  0  0  0  0  0  0  0  0  0  0
  138.2335   74.0981  220.5230 H   0  0  0  0  0  0  0  0  0  0  0  0
  139.2640   75.3429  221.5520 H   0  0  0  0  0  0  0  0  0  0  0  0
  143.3647   74.8950  219.5309 H   0  0  0  0  0  0  0  0  0  0  0  0
  142.2547   74.0208  218.4539 H   0  0  0  0  0  0  0  0  0  0  0  0
  143.2522   75.8872  217.2023 H   0  0  0  0  0  0  0  0  0  0  0  0
  141.5531   76.2830  217.4687 H   0  0  0  0  0  0  0  0  0  0  0  0
  143.8407   77.0796  219.4027 H   0  0  0  0  0  0  0  0  0  0  0  0
  143.1978   78.1755  218.1575 H   0  0  0  0  0  0  0  0  0  0  0  0
  142.0364   78.5770  220.3239 H   0  0  0  0  0  0  0  0  0  0  0  0
  140.8794   77.8837  219.1487 H   0  0  0  0  0  0  0  0  0  0  0  0
  142.4842   76.3911  221.2197 H   0  0  0  0  0  0  0  0  0  0  0  0
  139.8086   77.4163  221.4807 H   0  0  0  0  0  0  0  0  0  0  0  0
  140.2168   75.7998  222.1397 H   0  0  0  0  0  0  0  0  0  0  0  0
  141.8730   76.7490  223.5470 H   0  0  0  0  0  0  0  0  0  0  0  0
  143.6158   78.7816  222.8880 H   0  0  0  0  0  0  0  0  0  0  0  0
  143.8816   81.1768  223.2904 H   0  0  0  0  0  0  0  0  0  0  0  0
  141.9343   82.6460  223.7420 H   0  0  0  0  0  0  0  0  0  0  0  0
  139.6626   81.6036  223.7790 H   0  0  0  0  0  0  0  0  0  0  0  0
  139.3940   79.1968  223.3736 H   0  0  0  0  0  0  0  0  0  0  0  0
  139.1058   69.6780  222.3416 H   0  0  0  0  0  0  0  0  0  0  0  0
  139.1577   68.2536  224.3841 H   0  0  0  0  0  0  0  0  0  0  0  0
  139.7131   68.0129  226.7873 H   0  0  0  0  0  0  0  0  0  0  0  0
  141.4145   71.3990  228.8365 H   0  0  0  0  0  0  0  0  0  0  0  0
  141.3265   72.7562  226.7459 H   0  0  0  0  0  0  0  0  0  0  0  0
  1  2  2  0
  2  3  1  0
  3  4  1  0
  4  5  1  0
  5  6  2  0
  5  7  1  0
  7  8  1  0
  8  9  1  0
  9 10  1  0
 10 11  1  0
 11 12  1  0
 12 13  1  0
 13 14  1  0
 14 15  1  0
 15 16  2  0
 16 17  1  0
 17 18  2  0
 18 19  1  0
 19 20  2  0
  2 21  1  0
 21 22  2  0
 22 23  1  0
 23 24  2  0
 24 25  1  0
 25 26  2  0
 26 27  1  0
 26 28  1  0
 28 29  2  0
 29 30  1  0
 30 31  2  0
 12  7  1  0
 20 15  1  0
 31 21  1  0
 30 24  1  0
  3 32  1  0
  4 33  1  0
  4 34  1  0
  8 35  1  0
  8 36  1  0
  9 37  1  0
  9 38  1  0
 10 39  1  0
 10 40  1  0
 11 41  1  0
 11 42  1  0
 12 43  1  1
 13 44  1  0
 13 45  1  0
 14 46  1  0
 16 47  1  0
 17 48  1  0
 18 49  1  0
 19 50  1  0
 20 51  1  0
 22 52  1  0
 23 53  1  0
 25 54  1  0
 28 55  1  0
 29 56  1  0
M  END
>  <smiles>  (19) 
O=C(NCC(=O)N1CCCC[C@H]1CNc1ccccc1)c1ccc2cc(F)ccc2n1

>  <score_type>  (19) 
oracle

>  <origin>  (19) 
autodockgpu

>  <m_score__min__energy>  (19) 
-9.0999999999999996

>  <m_primary>  (19) 
energy

>  <rmsd>  (19) 
2.23167192579664

>  <m_score__min__rmsd>  (19) 
2.23167192579664

>  <meeko>  (19) 
{"free_energy": -8.9, "intermolecular_energy": -10.98, "internal_energy": -1.22, "cluster_size": 38, "cluster_id": 1, "rank_in_cluster": 6}

>  <energy>  (19) 
-8.5

>  <cluster_rmsd>  (19) 
1.34

>  <cluster>  (19) 
1

$$$$

     RDKit          3D

 56 59  0  0  0  0  0  0  0  0999 V2000
  139.5180   71.6110  221.0820 O   0  0  0  0  0  0  0  0  0  0  0  0
  139.5810   72.1580  222.2090 C   0  0  0  0  0  0  0  0  0  0  0  0
  139.4860   73.5950  222.3180 N   0  0  0  0  0  0  0  0  0  0  0  0
  139.3330   74.4900  221.2480 C   0  0  0  0  0  0  0  0  0  0  0  0
  140.4070   74.9180  220.3910 C   0  0  0  0  0  0  0  0  0  0  0  0
  139.9870   75.5740  219.3330 O   0  0  0  0  0  0  0  0  0  0  0  0
  141.8010   74.7870  220.4570 N   0  0  0  0  0  0  0  0  0  0  0  0
  142.4890   73.6070  221.0180 C   0  0  0  0  0  0  0  0  0  0  0  0
  143.2910   73.0030  219.9010 C   0  0  0  0  0  0  0  0  0  0  0  0
  144.3770   74.0400  219.5820 C   0  0  0  0  0  0  0  0  0  0  0  0
  143.6750   75.2530  218.9710 C   0  0  0  0  0  0  0  0  0  0  0  0
  142.7450   75.8230  219.9890 C   0  0  1  0  0  0  0  0  0  0  0  0
  142.1520   77.1440  219.6890 C   0  0  0  0  0  0  0  0  0  0  0  0
  141.2920   77.5530  220.8140 N   0  0  0  0  0  0  0  0  0  0  0  0
  141.6620   78.4830  221.7990 C   0  0  0  0  0  0  0  0  0  0  0  0
  141.4510   78.1570  223.1460 C   0  0  0  0  0  0  0  0  0  0  0  0
  141.7610   79.0400  224.1540 C   0  0  0  0  0  0  0  0  0  0  0  0
  142.2910   80.2850  223.9050 C   0  0  0  0  0  0  0  0  0  0  0  0
  142.5040   80.6220  222.5860 C   0  0  0  0  0  0  0  0  0  0  0  0
  142.1910   79.7290  221.5720 C   0  0  0  0  0  0  0  0  0  0  0  0
  139.7530   71.3320  223.4220 C   0  0  0  0  0  0  0  0  0  0  0  0
  139.4030   70.0010  223.3710 C   0  0  0  0  0  0  0  0  0  0  0  0
  139.5550   69.2020  224.4970 C   0  0  0  0  0  0  0  0  0  0  0  0
  140.0620   69.7510  225.6760 C   0  0  0  0  0  0  0  0  0  0  0  0
  140.2280   68.9950  226.8120 C   0  0  0  0  0  0  0  0  0  0  0  0
  140.7370   69.6320  227.9310 C   0  0  0  0  0  0  0  0  0  0  0  0
  140.9260   68.9410  229.0870 F   0  0  0  0  0  0  0  0  0  0  0  0
  141.0700   70.9630  227.9260 C   0  0  0  0  0  0  0  0  0  0  0  0
  140.9040   71.7230  226.7860 C   0  0  0  0  0  0  0  0  0  0  0  0
  140.3980   71.1020  225.6670 C   0  0  0  0  0  0  0  0  0  0  0  0
  140.2430   71.8580  224.5630 N   0  0  0  0  0  0  0  0  0  0  0  0
  139.5420   73.9390  223.3250 H   0  0  0  0  0  0  0  0  0  0  0  0
  138.5862   74.0325  220.5825 H   0  0  0  0  0  0  0  0  0  0  0  0
  139.1154   75.4230  221.7884 H   0  0  0  0  0  0  0  0  0  0  0  0
  143.1534   73.9110  221.8403 H   0  0  0  0  0  0  0  0  0  0  0  0
  141.7663   72.8830  221.4224 H   0  0  0  0  0  0  0  0  0  0  0  0
  143.7455   72.0539  220.2214 H   0  0  0  0  0  0  0  0  0  0  0  0
  142.6684   72.7750  219.0233 H   0  0  0  0  0  0  0  0  0  0  0  0
  144.9018   74.3324  220.5035 H   0  0  0  0  0  0  0  0  0  0  0  0
  145.1208   73.6261  218.8853 H   0  0  0  0  0  0  0  0  0  0  0  0
  144.4213   76.0090  218.6854 H   0  0  0  0  0  0  0  0  0  0  0  0
  143.1140   74.9520  218.0740 H   0  0  0  0  0  0  0  0  0  0  0  0
  143.3728   76.1091  220.8457 H   0  0  0  0  0  0  0  0  0  0  0  0
  142.9534   77.8845  219.5497 H   0  0  0  0  0  0  0  0  0  0  0  0
  141.5532   77.0811  218.7684 H   0  0  0  0  0  0  0  0  0  0  0  0
  140.3510   77.1020  220.8540 H   0  0  0  0  0  0  0  0  0  0  0  0
  141.0286   77.1742  223.4022 H   0  0  0  0  0  0  0  0  0  0  0  0
  141.5787   78.7401  225.1965 H   0  0  0  0  0  0  0  0  0  0  0  0
  142.5338   80.9802  224.7222 H   0  0  0  0  0  0  0  0  0  0  0  0
  142.9254   81.6067  222.3354 H   0  0  0  0  0  0  0  0  0  0  0  0
  142.3763   80.0352  220.5319 H   0  0  0  0  0  0  0  0  0  0  0  0
  139.0038   69.5715  222.4403 H   0  0  0  0  0  0  0  0  0  0  0  0
  139.2763   68.1385  224.4597 H   0  0  0  0  0  0  0  0  0  0  0  0
  139.9669   67.9266  226.8313 H   0  0  0  0  0  0  0  0  0  0  0  0
  141.4725   71.4281  228.8379 H   0  0  0  0  0  0  0  0  0  0  0  0
  141.1677   72.7908  226.7723 H   0  0  0  0  0  0  0  0  0  0  0  0
  1  2  2  0
  2  3  1  0
  3  4  1  0
  4  5  1  0
  5  6  2  0
  5  7  1  0
  7  8  1  0
  8  9  1  0
  9 10  1  0
 10 11  1  0
 11 12  1  0
 12 13  1  0
 13 14  1  0
 14 15  1  0
 15 16  2  0
 16 17  1  0
 17 18  2  0
 18 19  1  0
 19 20  2  0
  2 21  1  0
 21 22  2  0
 22 23  1  0
 23 24  2  0
 24 25  1  0
 25 26  2  0
 26 27  1  0
 26 28  1  0
 28 29  2  0
 29 30  1  0
 30 31  2  0
 12  7  1  0
 20 15  1  0
 31 21  1  0
 30 24  1  0
  3 32  1  0
  4 33  1  0
  4 34  1  0
  8 35  1  0
  8 36  1  0
  9 37  1  0
  9 38  1  0
 10 39  1  0
 10 40  1  0
 11 41  1  0
 11 42  1  0
 12 43  1  1
 13 44  1  0
 13 45  1  0
 14 46  1  0
 16 47  1  0
 17 48  1  0
 18 49  1  0
 19 50  1  0
 20 51  1  0
 22 52  1  0
 23 53  1  0
 25 54  1  0
 28 55  1  0
 29 56  1  0
M  END
>  <smiles>  (20) 
O=C(NCC(=O)N1CCCC[C@H]1CNc1ccccc1)c1ccc2cc(F)ccc2n1

>  <score_type>  (20) 
oracle

>  <origin>  (20) 
autodockgpu

>  <m_score__min__energy>  (20) 
-9.0999999999999996

>  <m_primary>  (20) 
energy

>  <rmsd>  (20) 
2.861524471257503

>  <m_score__min__rmsd>  (20) 
2.861524471257503

>  <meeko>  (20) 
{"free_energy": -8.41, "intermolecular_energy": -10.5, "internal_energy": -2.21, "cluster_size": 38, "cluster_id": 1, "rank_in_cluster": 23}

>  <energy>  (20) 
-8.46

>  <cluster_rmsd>  (20) 
0.94

>  <cluster>  (20) 
1

$$$$

     RDKit          3D

 56 59  0  0  0  0  0  0  0  0999 V2000
  140.2790   70.8580  221.7280 O   0  0  0  0  0  0  0  0  0  0  0  0
  140.0080   71.5820  222.7150 C   0  0  0  0  0  0  0  0  0  0  0  0
  139.5080   72.9220  222.5110 N   0  0  0  0  0  0  0  0  0  0  0  0
  139.2920   73.5340  221.2670 C   0  0  0  0  0  0  0  0  0  0  0  0
  140.3430   73.9450  220.3730 C   0  0  0  0  0  0  0  0  0  0  0  0
  140.2760   73.3550  219.2010 O   0  0  0  0  0  0  0  0  0  0  0  0
  141.4100   74.8440  220.4930 N   0  0  0  0  0  0  0  0  0  0  0  0
  142.8310   74.4500  220.4100 C   0  0  0  0  0  0  0  0  0  0  0  0
  143.4110   75.1670  219.2250 C   0  0  0  0  0  0  0  0  0  0  0  0
  143.3850   76.6540  219.6060 C   0  0  0  0  0  0  0  0  0  0  0  0
  141.9180   77.0790  219.6630 C   0  0  0  0  0  0  0  0  0  0  0  0
  141.2390   76.2920  220.7350 C   0  0  1  0  0  0  0  0  0  0  0  0
  139.8780   76.7230  221.1210 C   0  0  0  0  0  0  0  0  0  0  0  0
  139.9290   77.3300  222.4630 N   0  0  0  0  0  0  0  0  0  0  0  0
  140.6430   78.4980  222.7790 C   0  0  0  0  0  0  0  0  0  0  0  0
  140.1510   79.7300  222.3270 C   0  0  0  0  0  0  0  0  0  0  0  0
  140.8230   80.9040  222.5750 C   0  0  0  0  0  0  0  0  0  0  0  0
  142.0080   80.9410  223.2750 C   0  0  0  0  0  0  0  0  0  0  0  0
  142.5060   79.7370  223.7250 C   0  0  0  0  0  0  0  0  0  0  0  0
  141.8250   78.5550  223.4740 C   0  0  0  0  0  0  0  0  0  0  0  0
  140.2000   71.0640  224.0860 C   0  0  0  0  0  0  0  0  0  0  0  0
  140.7660   71.8910  225.0320 C   0  0  0  0  0  0  0  0  0  0  0  0
  140.9580   71.4300  226.3280 C   0  0  0  0  0  0  0  0  0  0  0  0
  140.5770   70.1310  226.6670 C   0  0  0  0  0  0  0  0  0  0  0  0
  140.7500   69.6360  227.9370 C   0  0  0  0  0  0  0  0  0  0  0  0
  140.3400   68.3340  228.1750 C   0  0  0  0  0  0  0  0  0  0  0  0
  140.4820   67.7850  229.4100 F   0  0  0  0  0  0  0  0  0  0  0  0
  139.7810   67.5550  227.1940 C   0  0  0  0  0  0  0  0  0  0  0  0
  139.6070   68.0510  225.9180 C   0  0  0  0  0  0  0  0  0  0  0  0
  140.0110   69.3420  225.6690 C   0  0  0  0  0  0  0  0  0  0  0  0
  139.8330   69.8100  224.4190 N   0  0  0  0  0  0  0  0  0  0  0  0
  139.3040   73.4330  223.4240 H   0  0  0  0  0  0  0  0  0  0  0  0
  138.6725   72.8293  220.6929 H   0  0  0  0  0  0  0  0  0  0  0  0
  138.8963   74.5104  221.5832 H   0  0  0  0  0  0  0  0  0  0  0  0
  143.3603   74.7456  221.3279 H   0  0  0  0  0  0  0  0  0  0  0  0
  142.9329   73.3602  220.3009 H   0  0  0  0  0  0  0  0  0  0  0  0
  144.4427   74.8339  219.0390 H   0  0  0  0  0  0  0  0  0  0  0  0
  142.8437   74.9673  218.3040 H   0  0  0  0  0  0  0  0  0  0  0  0
  143.8583   76.8000  220.5882 H   0  0  0  0  0  0  0  0  0  0  0  0
  143.9382   77.2559  218.8700 H   0  0  0  0  0  0  0  0  0  0  0  0
  141.8512   78.1528  219.8920 H   0  0  0  0  0  0  0  0  0  0  0  0
  141.4332   76.8924  218.6934 H   0  0  0  0  0  0  0  0  0  0  0  0
  141.7658   76.5347  221.6696 H   0  0  0  0  0  0  0  0  0  0  0  0
  139.5057   77.4618  220.3961 H   0  0  0  0  0  0  0  0  0  0  0  0
  139.2024   75.8550  221.1314 H   0  0  0  0  0  0  0  0  0  0  0  0
  139.3880   76.8350  223.2060 H   0  0  0  0  0  0  0  0  0  0  0  0
  139.2076   79.7585  221.7620 H   0  0  0  0  0  0  0  0  0  0  0  0
  140.3985   81.8472  222.2007 H   0  0  0  0  0  0  0  0  0  0  0  0
  142.5334   81.8882  223.4664 H   0  0  0  0  0  0  0  0  0  0  0  0
  143.4509   79.7134  224.2876 H   0  0  0  0  0  0  0  0  0  0  0  0
  142.2543   77.6152  223.8513 H   0  0  0  0  0  0  0  0  0  0  0  0
  141.0652   72.9143  224.7612 H   0  0  0  0  0  0  0  0  0  0  0  0
  141.4094   72.0874  227.0856 H   0  0  0  0  0  0  0  0  0  0  0  0
  141.1965   70.2493  228.7336 H   0  0  0  0  0  0  0  0  0  0  0  0
  139.4688   66.5262  227.4264 H   0  0  0  0  0  0  0  0  0  0  0  0
  139.1594   67.4335  225.1253 H   0  0  0  0  0  0  0  0  0  0  0  0
  1  2  2  0
  2  3  1  0
  3  4  1  0
  4  5  1  0
  5  6  2  0
  5  7  1  0
  7  8  1  0
  8  9  1  0
  9 10  1  0
 10 11  1  0
 11 12  1  0
 12 13  1  0
 13 14  1  0
 14 15  1  0
 15 16  2  0
 16 17  1  0
 17 18  2  0
 18 19  1  0
 19 20  2  0
  2 21  1  0
 21 22  2  0
 22 23  1  0
 23 24  2  0
 24 25  1  0
 25 26  2  0
 26 27  1  0
 26 28  1  0
 28 29  2  0
 29 30  1  0
 30 31  2  0
 12  7  1  0
 20 15  1  0
 31 21  1  0
 30 24  1  0
  3 32  1  0
  4 33  1  0
  4 34  1  0
  8 35  1  0
  8 36  1  0
  9 37  1  0
  9 38  1  0
 10 39  1  0
 10 40  1  0
 11 41  1  0
 11 42  1  0
 12 43  1  1
 13 44  1  0
 13 45  1  0
 14 46  1  0
 16 47  1  0
 17 48  1  0
 18 49  1  0
 19 50  1  0
 20 51  1  0
 22 52  1  0
 23 53  1  0
 25 54  1  0
 28 55  1  0
 29 56  1  0
M  END
>  <smiles>  (21) 
O=C(NCC(=O)N1CCCC[C@H]1CNc1ccccc1)c1ccc2cc(F)ccc2n1

>  <score_type>  (21) 
oracle

>  <origin>  (21) 
autodockgpu

>  <m_score__min__energy>  (21) 
-9.0999999999999996

>  <m_primary>  (21) 
energy

>  <rmsd>  (21) 
3.1022386858135658

>  <m_score__min__rmsd>  (21) 
3.1022386858135658

>  <meeko>  (21) 
{"free_energy": -8.56, "intermolecular_energy": -10.64, "internal_energy": -1.47, "cluster_size": 38, "cluster_id": 1, "rank_in_cluster": 16}

>  <energy>  (21) 
-8.45

>  <cluster_rmsd>  (21) 
1.27

>  <cluster>  (21) 
1

$$$$

     RDKit          3D

 56 59  0  0  0  0  0  0  0  0999 V2000
  139.0040   71.0460  221.4930 O   0  0  0  0  0  0  0  0  0  0  0  0
  139.3410   71.5570  222.5880 C   0  0  0  0  0  0  0  0  0  0  0  0
  139.5330   72.9850  222.6870 N   0  0  0  0  0  0  0  0  0  0  0  0
  139.3870   73.9060  221.6380 C   0  0  0  0  0  0  0  0  0  0  0  0
  140.3020   74.0280  220.5340 C   0  0  0  0  0  0  0  0  0  0  0  0
  139.9300   73.3350  219.4830 O   0  0  0  0  0  0  0  0  0  0  0  0
  141.4960   74.7380  220.3500 N   0  0  0  0  0  0  0  0  0  0  0  0
  142.6940   74.1740  219.6960 C   0  0  0  0  0  0  0  0  0  0  0  0
  142.9500   75.0050  218.4720 C   0  0  0  0  0  0  0  0  0  0  0  0
  143.3460   76.3900  219.0050 C   0  0  0  0  0  0  0  0  0  0  0  0
  142.1020   76.9940  219.6560 C   0  0  0  0  0  0  0  0  0  0  0  0
  141.7020   76.1280  220.8040 C   0  0  1  0  0  0  0  0  0  0  0  0
  140.6710   76.6650  221.7190 C   0  0  0  0  0  0  0  0  0  0  0  0
  141.3350   77.3400  222.8490 N   0  0  0  0  0  0  0  0  0  0  0  0
  141.3560   78.7320  223.0410 C   0  0  0  0  0  0  0  0  0  0  0  0
  142.5910   79.3930  223.0410 C   0  0  0  0  0  0  0  0  0  0  0  0
  142.6790   80.7480  223.2580 C   0  0  0  0  0  0  0  0  0  0  0  0
  141.5700   81.5300  223.4880 C   0  0  0  0  0  0  0  0  0  0  0  0
  140.3470   80.8950  223.4940 C   0  0  0  0  0  0  0  0  0  0  0  0
  140.2620   79.5280  223.2730 C   0  0  0  0  0  0  0  0  0  0  0  0
  139.5410   70.6980  223.7740 C   0  0  0  0  0  0  0  0  0  0  0  0
  139.1420   69.3810  223.7110 C   0  0  0  0  0  0  0  0  0  0  0  0
  139.3190   68.5520  224.8110 C   0  0  0  0  0  0  0  0  0  0  0  0
  139.8990   69.0560  225.9750 C   0  0  0  0  0  0  0  0  0  0  0  0
  140.0920   68.2690  227.0860 C   0  0  0  0  0  0  0  0  0  0  0  0
  140.6760   68.8620  228.1930 C   0  0  0  0  0  0  0  0  0  0  0  0
  140.8950   68.1390  229.3230 F   0  0  0  0  0  0  0  0  0  0  0  0
  141.0550   70.1800  228.2000 C   0  0  0  0  0  0  0  0  0  0  0  0
  140.8620   70.9710  227.0860 C   0  0  0  0  0  0  0  0  0  0  0  0
  140.2820   70.3950  225.9800 C   0  0  0  0  0  0  0  0  0  0  0  0
  140.1020   71.1810  224.9010 N   0  0  0  0  0  0  0  0  0  0  0  0
  139.8060   73.3000  223.6680 H   0  0  0  0  0  0  0  0  0  0  0  0
  138.4063   73.6910  221.1885 H   0  0  0  0  0  0  0  0  0  0  0  0
  139.5741   74.8523  222.1667 H   0  0  0  0  0  0  0  0  0  0  0  0
  143.5568   74.2256  220.3763 H   0  0  0  0  0  0  0  0  0  0  0  0
  142.5395   73.1176  219.4313 H   0  0  0  0  0  0  0  0  0  0  0  0
  143.7668   74.5726  217.8755 H   0  0  0  0  0  0  0  0  0  0  0  0
  142.0696   75.0525  217.8143 H   0  0  0  0  0  0  0  0  0  0  0  0
  144.1510   76.2922  219.7483 H   0  0  0  0  0  0  0  0  0  0  0  0
  143.7127   77.0324  218.1909 H   0  0  0  0  0  0  0  0  0  0  0  0
  142.3272   78.0084  220.0170 H   0  0  0  0  0  0  0  0  0  0  0  0
  141.2832   77.0520  218.9237 H   0  0  0  0  0  0  0  0  0  0  0  0
  142.5585   76.1251  221.4942 H   0  0  0  0  0  0  0  0  0  0  0  0
  140.0385   77.3854  221.1795 H   0  0  0  0  0  0  0  0  0  0  0  0
  140.0436   75.8432  222.0944 H   0  0  0  0  0  0  0  0  0  0  0  0
  141.8140   76.7150  223.5340 H   0  0  0  0  0  0  0  0  0  0  0  0
  143.5103   78.8156  222.8636 H   0  0  0  0  0  0  0  0  0  0  0  0
  143.6707   81.2237  223.2474 H   0  0  0  0  0  0  0  0  0  0  0  0
  141.6560   82.6132  223.6593 H   0  0  0  0  0  0  0  0  0  0  0  0
  139.4311   81.4765  223.6754 H   0  0  0  0  0  0  0  0  0  0  0  0
  139.2674   79.0582  223.2842 H   0  0  0  0  0  0  0  0  0  0  0  0
  138.6843   68.9870  222.7916 H   0  0  0  0  0  0  0  0  0  0  0  0
  139.0023   67.4996  224.7644 H   0  0  0  0  0  0  0  0  0  0  0  0
  139.7943   67.2101  227.0951 H   0  0  0  0  0  0  0  0  0  0  0  0
  141.5166   70.6101  229.1011 H   0  0  0  0  0  0  0  0  0  0  0  0
  141.1626   72.0291  227.0826 H   0  0  0  0  0  0  0  0  0  0  0  0
  1  2  2  0
  2  3  1  0
  3  4  1  0
  4  5  1  0
  5  6  2  0
  5  7  1  0
  7  8  1  0
  8  9  1  0
  9 10  1  0
 10 11  1  0
 11 12  1  0
 12 13  1  0
 13 14  1  0
 14 15  1  0
 15 16  2  0
 16 17  1  0
 17 18  2  0
 18 19  1  0
 19 20  2  0
  2 21  1  0
 21 22  2  0
 22 23  1  0
 23 24  2  0
 24 25  1  0
 25 26  2  0
 26 27  1  0
 26 28  1  0
 28 29  2  0
 29 30  1  0
 30 31  2  0
 12  7  1  0
 20 15  1  0
 31 21  1  0
 30 24  1  0
  3 32  1  0
  4 33  1  0
  4 34  1  0
  8 35  1  0
  8 36  1  0
  9 37  1  0
  9 38  1  0
 10 39  1  0
 10 40  1  0
 11 41  1  0
 11 42  1  0
 12 43  1  1
 13 44  1  0
 13 45  1  0
 14 46  1  0
 16 47  1  0
 17 48  1  0
 18 49  1  0
 19 50  1  0
 20 51  1  0
 22 52  1  0
 23 53  1  0
 25 54  1  0
 28 55  1  0
 29 56  1  0
M  END
>  <smiles>  (22) 
O=C(NCC(=O)N1CCCC[C@H]1CNc1ccccc1)c1ccc2cc(F)ccc2n1

>  <score_type>  (22) 
oracle

>  <origin>  (22) 
autodockgpu

>  <m_score__min__energy>  (22) 
-9.0999999999999996

>  <m_primary>  (22) 
energy

>  <rmsd>  (22) 
2.2902878061553893

>  <m_score__min__rmsd>  (22) 
2.2902878061553893

>  <meeko>  (22) 
{"free_energy": -8.78, "intermolecular_energy": -10.87, "internal_energy": -1.46, "cluster_size": 38, "cluster_id": 1, "rank_in_cluster": 7}

>  <energy>  (22) 
-8.42

>  <cluster_rmsd>  (22) 
1.27

>  <cluster>  (22) 
1

$$$$

     RDKit          3D

 56 59  0  0  0  0  0  0  0  0999 V2000
  140.8240   71.7310  221.2570 O   0  0  0  0  0  0  0  0  0  0  0  0
  140.2650   72.1580  222.2960 C   0  0  0  0  0  0  0  0  0  0  0  0
  139.7600   73.5100  222.3370 N   0  0  0  0  0  0  0  0  0  0  0  0
  139.8400   74.4470  221.2960 C   0  0  0  0  0  0  0  0  0  0  0  0
  141.0020   75.2490  221.0140 C   0  0  0  0  0  0  0  0  0  0  0  0
  141.4210   75.9260  222.0590 O   0  0  0  0  0  0  0  0  0  0  0  0
  141.7770   75.4480  219.8640 N   0  0  0  0  0  0  0  0  0  0  0  0
  142.6410   74.4100  219.2670 C   0  0  0  0  0  0  0  0  0  0  0  0
  142.1100   74.1460  217.8870 C   0  0  0  0  0  0  0  0  0  0  0  0
  142.3670   75.4420  217.1050 C   0  0  0  0  0  0  0  0  0  0  0  0
  141.4530   76.5140  217.6970 C   0  0  0  0  0  0  0  0  0  0  0  0
  141.8340   76.7260  219.1250 C   0  0  1  0  0  0  0  0  0  0  0  0
  141.2380   77.8930  219.8110 C   0  0  0  0  0  0  0  0  0  0  0  0
  142.1590   78.3510  220.8670 N   0  0  0  0  0  0  0  0  0  0  0  0
  141.8490   79.3380  221.8170 C   0  0  0  0  0  0  0  0  0  0  0  0
  142.8380   79.7270  222.7310 C   0  0  0  0  0  0  0  0  0  0  0  0
  142.5840   80.6620  223.7060 C   0  0  0  0  0  0  0  0  0  0  0  0
  141.3570   81.2690  223.8440 C   0  0  0  0  0  0  0  0  0  0  0  0
  140.3720   80.8970  222.9540 C   0  0  0  0  0  0  0  0  0  0  0  0
  140.6320   79.9530  221.9710 C   0  0  0  0  0  0  0  0  0  0  0  0
  140.1250   71.2780  223.4750 C   0  0  0  0  0  0  0  0  0  0  0  0
  139.5520   70.0360  223.3080 C   0  0  0  0  0  0  0  0  0  0  0  0
  139.4080   69.1890  224.3990 C   0  0  0  0  0  0  0  0  0  0  0  0
  139.8440   69.5980  225.6590 C   0  0  0  0  0  0  0  0  0  0  0  0
  139.7200   68.7900  226.7640 C   0  0  0  0  0  0  0  0  0  0  0  0
  140.1820   69.2870  227.9720 C   0  0  0  0  0  0  0  0  0  0  0  0
  140.0890   68.5380  229.1020 F   0  0  0  0  0  0  0  0  0  0  0  0
  140.7460   70.5330  228.0800 C   0  0  0  0  0  0  0  0  0  0  0  0
  140.8700   71.3460  226.9710 C   0  0  0  0  0  0  0  0  0  0  0  0
  140.4140   70.8640  225.7660 C   0  0  0  0  0  0  0  0  0  0  0  0
  140.5450   71.6690  224.6950 N   0  0  0  0  0  0  0  0  0  0  0  0
  139.2980   73.7520  223.2670 H   0  0  0  0  0  0  0  0  0  0  0  0
  139.6374   73.8835  220.3733 H   0  0  0  0  0  0  0  0  0  0  0  0
  139.1416   75.2162  221.6572 H   0  0  0  0  0  0  0  0  0  0  0  0
  143.6797   74.7677  219.2113 H   0  0  0  0  0  0  0  0  0  0  0  0
  142.6349   73.4932  219.8748 H   0  0  0  0  0  0  0  0  0  0  0  0
  142.6427   73.3029  217.4230 H   0  0  0  0  0  0  0  0  0  0  0  0
  141.0434   73.8771  217.9002 H   0  0  0  0  0  0  0  0  0  0  0  0
  143.4196   75.7436  217.2104 H   0  0  0  0  0  0  0  0  0  0  0  0
  142.1605   75.3000  216.0339 H   0  0  0  0  0  0  0  0  0  0  0  0
  141.5725   77.4536  217.1377 H   0  0  0  0  0  0  0  0  0  0  0  0
  140.4031   76.1924  217.6309 H   0  0  0  0  0  0  0  0  0  0  0  0
  142.8837   77.0545  219.1136 H   0  0  0  0  0  0  0  0  0  0  0  0
  141.0760   78.7040  219.0857 H   0  0  0  0  0  0  0  0  0  0  0  0
  140.2732   77.6092  220.2568 H   0  0  0  0  0  0  0  0  0  0  0  0
  143.0960   77.8920  220.8830 H   0  0  0  0  0  0  0  0  0  0  0  0
  143.8385   79.2744  222.6666 H   0  0  0  0  0  0  0  0  0  0  0  0
  143.3914   80.9350  224.4014 H   0  0  0  0  0  0  0  0  0  0  0  0
  141.1704   82.0170  224.6287 H   0  0  0  0  0  0  0  0  0  0  0  0
  139.3729   81.3518  223.0237 H   0  0  0  0  0  0  0  0  0  0  0  0
  139.8204   79.6836  221.2791 H   0  0  0  0  0  0  0  0  0  0  0  0
  139.2095   69.7162  222.3128 H   0  0  0  0  0  0  0  0  0  0  0  0
  138.9507   68.1970  224.2696 H   0  0  0  0  0  0  0  0  0  0  0  0
  139.2716   67.7881  226.6921 H   0  0  0  0  0  0  0  0  0  0  0  0
  141.1024   70.8873  229.0585 H   0  0  0  0  0  0  0  0  0  0  0  0
  141.3191   72.3472  227.0485 H   0  0  0  0  0  0  0  0  0  0  0  0
  1  2  2  0
  2  3  1  0
  3  4  1  0
  4  5  1  0
  5  6  2  0
  5  7  1  0
  7  8  1  0
  8  9  1  0
  9 10  1  0
 10 11  1  0
 11 12  1  0
 12 13  1  0
 13 14  1  0
 14 15  1  0
 15 16  2  0
 16 17  1  0
 17 18  2  0
 18 19  1  0
 19 20  2  0
  2 21  1  0
 21 22  2  0
 22 23  1  0
 23 24  2  0
 24 25  1  0
 25 26  2  0
 26 27  1  0
 26 28  1  0
 28 29  2  0
 29 30  1  0
 30 31  2  0
 12  7  1  0
 20 15  1  0
 31 21  1  0
 30 24  1  0
  3 32  1  0
  4 33  1  0
  4 34  1  0
  8 35  1  0
  8 36  1  0
  9 37  1  0
  9 38  1  0
 10 39  1  0
 10 40  1  0
 11 41  1  0
 11 42  1  0
 12 43  1  6
 13 44  1  0
 13 45  1  0
 14 46  1  0
 16 47  1  0
 17 48  1  0
 18 49  1  0
 19 50  1  0
 20 51  1  0
 22 52  1  0
 23 53  1  0
 25 54  1  0
 28 55  1  0
 29 56  1  0
M  END
>  <smiles>  (23) 
O=C(NCC(=O)N1CCCC[C@H]1CNc1ccccc1)c1ccc2cc(F)ccc2n1

>  <score_type>  (23) 
oracle

>  <origin>  (23) 
autodockgpu

>  <m_score__min__energy>  (23) 
-9.0999999999999996

>  <m_primary>  (23) 
energy

>  <rmsd>  (23) 
2.257288101875574

>  <m_score__min__rmsd>  (23) 
2.257288101875574

>  <meeko>  (23) 
{"free_energy": -8.58, "intermolecular_energy": -10.67, "internal_energy": -1.57, "cluster_size": 38, "cluster_id": 1, "rank_in_cluster": 14}

>  <energy>  (23) 
-8.41

>  <cluster_rmsd>  (23) 
1.24

>  <cluster>  (23) 
1

$$$$

     RDKit          3D

 56 59  0  0  0  0  0  0  0  0999 V2000
  139.2760   70.9400  221.2560 O   0  0  0  0  0  0  0  0  0  0  0  0
  139.4990   71.4830  222.3650 C   0  0  0  0  0  0  0  0  0  0  0  0
  139.6170   72.9190  222.4520 N   0  0  0  0  0  0  0  0  0  0  0  0
  139.5160   73.8160  221.3780 C   0  0  0  0  0  0  0  0  0  0  0  0
  139.2790   75.2290  221.5210 C   0  0  0  0  0  0  0  0  0  0  0  0
  139.5520   75.6730  222.7260 O   0  0  0  0  0  0  0  0  0  0  0  0
  138.8260   76.2210  220.6420 N   0  0  0  0  0  0  0  0  0  0  0  0
  137.4410   76.3020  220.1370 C   0  0  0  0  0  0  0  0  0  0  0  0
  136.8790   77.6070  220.6230 C   0  0  0  0  0  0  0  0  0  0  0  0
  137.6840   78.6880  219.8860 C   0  0  0  0  0  0  0  0  0  0  0  0
  139.1130   78.6310  220.4260 C   0  0  0  0  0  0  0  0  0  0  0  0
  139.6890   77.2930  220.1020 C   0  0  1  0  0  0  0  0  0  0  0  0
  141.1410   77.1190  220.3180 C   0  0  0  0  0  0  0  0  0  0  0  0
  141.4490   77.3700  221.7370 N   0  0  0  0  0  0  0  0  0  0  0  0
  141.6940   78.6400  222.2850 C   0  0  0  0  0  0  0  0  0  0  0  0
  141.8690   79.7260  221.4150 C   0  0  0  0  0  0  0  0  0  0  0  0
  142.1450   80.9860  221.8900 C   0  0  0  0  0  0  0  0  0  0  0  0
  142.2650   81.2580  223.2330 C   0  0  0  0  0  0  0  0  0  0  0  0
  142.0980   80.2010  224.1020 C   0  0  0  0  0  0  0  0  0  0  0  0
  141.8190   78.9310  223.6200 C   0  0  0  0  0  0  0  0  0  0  0  0
  139.6410   70.6520  223.5790 C   0  0  0  0  0  0  0  0  0  0  0  0
  139.1820   69.3530  223.5490 C   0  0  0  0  0  0  0  0  0  0  0  0
  139.3030   68.5510  224.6770 C   0  0  0  0  0  0  0  0  0  0  0  0
  139.8880   69.0630  225.8350 C   0  0  0  0  0  0  0  0  0  0  0  0
  140.0270   68.3030  226.9710 C   0  0  0  0  0  0  0  0  0  0  0  0
  140.6200   68.9020  228.0700 C   0  0  0  0  0  0  0  0  0  0  0  0
  140.7870   68.2050  229.2250 F   0  0  0  0  0  0  0  0  0  0  0  0
  141.0600   70.2020  228.0440 C   0  0  0  0  0  0  0  0  0  0  0  0
  140.9210   70.9660  226.9040 C   0  0  0  0  0  0  0  0  0  0  0  0
  140.3320   70.3830  225.8060 C   0  0  0  0  0  0  0  0  0  0  0  0
  140.2060   71.1430  224.7010 N   0  0  0  0  0  0  0  0  0  0  0  0
  139.7960   73.2610  223.4460 H   0  0  0  0  0  0  0  0  0  0  0  0
  140.4645   73.7284  220.8279 H   0  0  0  0  0  0  0  0  0  0  0  0
  138.5660   73.4923  220.9278 H   0  0  0  0  0  0  0  0  0  0  0  0
  137.4363   76.2735  219.0374 H   0  0  0  0  0  0  0  0  0  0  0  0
  136.8391   75.4542  220.4962 H   0  0  0  0  0  0  0  0  0  0  0  0
  135.8104   77.6841  220.3739 H   0  0  0  0  0  0  0  0  0  0  0  0
  136.9567   77.7081  221.7156 H   0  0  0  0  0  0  0  0  0  0  0  0
  137.6812   78.4887  218.8042 H   0  0  0  0  0  0  0  0  0  0  0  0
  137.2436   79.6829  220.0483 H   0  0  0  0  0  0  0  0  0  0  0  0
  139.7190   79.4195  219.9558 H   0  0  0  0  0  0  0  0  0  0  0  0
  139.1107   78.7865  221.5149 H   0  0  0  0  0  0  0  0  0  0  0  0
  139.6701   77.2120  219.0051 H   0  0  0  0  0  0  0  0  0  0  0  0
  141.4326   76.0919  220.0535 H   0  0  0  0  0  0  0  0  0  0  0  0
  141.6979   77.8267  219.6863 H   0  0  0  0  0  0  0  0  0  0  0  0
  141.4810   76.5260  222.3510 H   0  0  0  0  0  0  0  0  0  0  0  0
  141.7836   79.5661  220.3300 H   0  0  0  0  0  0  0  0  0  0  0  0
  142.2747   81.8071  221.1696 H   0  0  0  0  0  0  0  0  0  0  0  0
  142.4842   82.2726  223.5970 H   0  0  0  0  0  0  0  0  0  0  0  0
  142.1867   80.3662  225.1859 H   0  0  0  0  0  0  0  0  0  0  0  0
  141.6912   78.1143  224.3458 H   0  0  0  0  0  0  0  0  0  0  0  0
  138.7210   68.9521  222.6343 H   0  0  0  0  0  0  0  0  0  0  0  0
  138.9379   67.5136  224.6568 H   0  0  0  0  0  0  0  0  0  0  0  0
  139.6808   67.2595  227.0063 H   0  0  0  0  0  0  0  0  0  0  0  0
  141.5271   70.6379  228.9394 H   0  0  0  0  0  0  0  0  0  0  0  0
  141.2702   72.0087  226.8738 H   0  0  0  0  0  0  0  0  0  0  0  0
  1  2  2  0
  2  3  1  0
  3  4  1  0
  4  5  1  0
  5  6  2  0
  5  7  1  0
  7  8  1  0
  8  9  1  0
  9 10  1  0
 10 11  1  0
 11 12  1  0
 12 13  1  0
 13 14  1  0
 14 15  1  0
 15 16  2  0
 16 17  1  0
 17 18  2  0
 18 19  1  0
 19 20  2  0
  2 21  1  0
 21 22  2  0
 22 23  1  0
 23 24  2  0
 24 25  1  0
 25 26  2  0
 26 27  1  0
 26 28  1  0
 28 29  2  0
 29 30  1  0
 30 31  2  0
 12  7  1  0
 20 15  1  0
 31 21  1  0
 30 24  1  0
  3 32  1  0
  4 33  1  0
  4 34  1  0
  8 35  1  0
  8 36  1  0
  9 37  1  0
  9 38  1  0
 10 39  1  0
 10 40  1  0
 11 41  1  0
 11 42  1  0
 12 43  1  6
 13 44  1  0
 13 45  1  0
 14 46  1  0
 16 47  1  0
 17 48  1  0
 18 49  1  0
 19 50  1  0
 20 51  1  0
 22 52  1  0
 23 53  1  0
 25 54  1  0
 28 55  1  0
 29 56  1  0
M  END
>  <smiles>  (24) 
O=C(NCC(=O)N1CCCC[C@H]1CNc1ccccc1)c1ccc2cc(F)ccc2n1

>  <score_type>  (24) 
oracle

>  <origin>  (24) 
autodockgpu

>  <m_score__min__energy>  (24) 
-9.0999999999999996

>  <m_primary>  (24) 
energy

>  <rmsd>  (24) 
2.3690926408333133

>  <m_score__min__rmsd>  (24) 
2.3690926408333133

>  <meeko>  (24) 
{"free_energy": -8.05, "intermolecular_energy": -10.13, "internal_energy": -2.47, "cluster_size": 38, "cluster_id": 1, "rank_in_cluster": 32}

>  <energy>  (24) 
-8.4

>  <cluster_rmsd>  (24) 
1.38

>  <cluster>  (24) 
1

$$$$

     RDKit          3D

 56 59  0  0  0  0  0  0  0  0999 V2000
  139.9050   71.5970  221.0880 O   0  0  0  0  0  0  0  0  0  0  0  0
  139.7590   72.1070  222.2250 C   0  0  0  0  0  0  0  0  0  0  0  0
  139.4910   73.5200  222.3510 N   0  0  0  0  0  0  0  0  0  0  0  0
  139.3810   74.4310  221.2890 C   0  0  0  0  0  0  0  0  0  0  0  0
  140.4290   74.6980  220.3390 C   0  0  0  0  0  0  0  0  0  0  0  0
  139.9740   75.1040  219.1760 O   0  0  0  0  0  0  0  0  0  0  0  0
  141.8270   74.6220  220.4030 N   0  0  0  0  0  0  0  0  0  0  0  0
  142.5660   73.4090  220.8050 C   0  0  0  0  0  0  0  0  0  0  0  0
  143.4010   73.0000  219.6250 C   0  0  0  0  0  0  0  0  0  0  0  0
  144.4400   74.1190  219.4640 C   0  0  0  0  0  0  0  0  0  0  0  0
  143.6860   75.3720  219.0180 C   0  0  0  0  0  0  0  0  0  0  0  0
  142.7240   75.7540  220.0940 C   0  0  1  0  0  0  0  0  0  0  0  0
  142.0730   77.0760  219.9700 C   0  0  0  0  0  0  0  0  0  0  0  0
  141.4720   77.4390  221.2670 N   0  0  0  0  0  0  0  0  0  0  0  0
  141.7440   78.6290  221.9620 C   0  0  0  0  0  0  0  0  0  0  0  0
  141.8150   78.5890  223.3620 C   0  0  0  0  0  0  0  0  0  0  0  0
  142.0430   79.7260  224.1000 C   0  0  0  0  0  0  0  0  0  0  0  0
  142.2130   80.9620  223.5170 C   0  0  0  0  0  0  0  0  0  0  0  0
  142.1440   81.0190  222.1410 C   0  0  0  0  0  0  0  0  0  0  0  0
  141.9140   79.8690  221.4000 C   0  0  0  0  0  0  0  0  0  0  0  0
  139.8610   71.2610  223.4330 C   0  0  0  0  0  0  0  0  0  0  0  0
  139.4460   69.9500  223.3590 C   0  0  0  0  0  0  0  0  0  0  0  0
  139.5310   69.1340  224.4800 C   0  0  0  0  0  0  0  0  0  0  0  0
  140.0380   69.6440  225.6750 C   0  0  0  0  0  0  0  0  0  0  0  0
  140.1390   68.8700  226.8060 C   0  0  0  0  0  0  0  0  0  0  0  0
  140.6550   69.4690  227.9440 C   0  0  0  0  0  0  0  0  0  0  0  0
  140.7810   68.7580  229.0950 F   0  0  0  0  0  0  0  0  0  0  0  0
  141.0540   70.7810  227.9610 C   0  0  0  0  0  0  0  0  0  0  0  0
  140.9520   71.5600  226.8250 C   0  0  0  0  0  0  0  0  0  0  0  0
  140.4420   70.9770  225.6890 C   0  0  0  0  0  0  0  0  0  0  0  0
  140.3510   71.7510  224.5900 N   0  0  0  0  0  0  0  0  0  0  0  0
  139.3760   73.8320  223.3640 H   0  0  0  0  0  0  0  0  0  0  0  0
  138.5204   74.0911  220.6941 H   0  0  0  0  0  0  0  0  0  0  0  0
  139.3513   75.3843  221.8370 H   0  0  0  0  0  0  0  0  0  0  0  0
  143.2115   73.6273  221.6685 H   0  0  0  0  0  0  0  0  0  0  0  0
  141.8755   72.6046  221.0984 H   0  0  0  0  0  0  0  0  0  0  0  0
  143.8969   72.0372  219.8178 H   0  0  0  0  0  0  0  0  0  0  0  0
  142.7945   72.8666  218.7170 H   0  0  0  0  0  0  0  0  0  0  0  0
  144.9463   74.3046  220.4228 H   0  0  0  0  0  0  0  0  0  0  0  0
  145.2055   73.8391  218.7253 H   0  0  0  0  0  0  0  0  0  0  0  0
  144.3982   76.1930  218.8484 H   0  0  0  0  0  0  0  0  0  0  0  0
  143.1444   75.1727  218.0815 H   0  0  0  0  0  0  0  0  0  0  0  0
  143.3313   75.9472  220.9906 H   0  0  0  0  0  0  0  0  0  0  0  0
  142.8215   77.8305  219.6863 H   0  0  0  0  0  0  0  0  0  0  0  0
  141.2915   77.0343  219.1970 H   0  0  0  0  0  0  0  0  0  0  0  0
  140.8050   76.7440  221.6690 H   0  0  0  0  0  0  0  0  0  0  0  0
  141.6855   77.6275  223.8804 H   0  0  0  0  0  0  0  0  0  0  0  0
  142.0914   79.6457  225.1960 H   0  0  0  0  0  0  0  0  0  0  0  0
  142.3955   81.8627  224.1214 H   0  0  0  0  0  0  0  0  0  0  0  0
  142.2722   81.9832  221.6273 H   0  0  0  0  0  0  0  0  0  0  0  0
  141.8654   79.9559  220.3045 H   0  0  0  0  0  0  0  0  0  0  0  0
  139.0482   69.5500  222.4147 H   0  0  0  0  0  0  0  0  0  0  0  0
  139.1988   68.0868  224.4252 H   0  0  0  0  0  0  0  0  0  0  0  0
  139.8227   67.8165  226.8079 H   0  0  0  0  0  0  0  0  0  0  0  0
  141.4585   71.2164  228.8867 H   0  0  0  0  0  0  0  0  0  0  0  0
  141.2687   72.6134  226.8290 H   0  0  0  0  0  0  0  0  0  0  0  0
  1  2  2  0
  2  3  1  0
  3  4  1  0
  4  5  1  0
  5  6  2  0
  5  7  1  0
  7  8  1  0
  8  9  1  0
  9 10  1  0
 10 11  1  0
 11 12  1  0
 12 13  1  0
 13 14  1  0
 14 15  1  0
 15 16  2  0
 16 17  1  0
 17 18  2  0
 18 19  1  0
 19 20  2  0
  2 21  1  0
 21 22  2  0
 22 23  1  0
 23 24  2  0
 24 25  1  0
 25 26  2  0
 26 27  1  0
 26 28  1  0
 28 29  2  0
 29 30  1  0
 30 31  2  0
 12  7  1  0
 20 15  1  0
 31 21  1  0
 30 24  1  0
  3 32  1  0
  4 33  1  0
  4 34  1  0
  8 35  1  0
  8 36  1  0
  9 37  1  0
  9 38  1  0
 10 39  1  0
 10 40  1  0
 11 41  1  0
 11 42  1  0
 12 43  1  1
 13 44  1  0
 13 45  1  0
 14 46  1  0
 16 47  1  0
 17 48  1  0
 18 49  1  0
 19 50  1  0
 20 51  1  0
 22 52  1  0
 23 53  1  0
 25 54  1  0
 28 55  1  0
 29 56  1  0
M  END
>  <smiles>  (25) 
O=C(NCC(=O)N1CCCC[C@H]1CNc1ccccc1)c1ccc2cc(F)ccc2n1

>  <score_type>  (25) 
oracle

>  <origin>  (25) 
autodockgpu

>  <m_score__min__energy>  (25) 
-9.0999999999999996

>  <m_primary>  (25) 
energy

>  <rmsd>  (25) 
2.75657625510496

>  <m_score__min__rmsd>  (25) 
2.75657625510496

>  <meeko>  (25) 
{"free_energy": -8.54, "intermolecular_energy": -10.63, "internal_energy": -1.75, "cluster_size": 38, "cluster_id": 1, "rank_in_cluster": 17}

>  <energy>  (25) 
-8.4

>  <cluster_rmsd>  (25) 
1.28

>  <cluster>  (25) 
1

$$$$

     RDKit          3D

 56 59  0  0  0  0  0  0  0  0999 V2000
  141.4250   72.3150  221.7960 O   0  0  0  0  0  0  0  0  0  0  0  0
  140.4490   72.4780  222.5670 C   0  0  0  0  0  0  0  0  0  0  0  0
  139.5350   73.5750  222.3490 N   0  0  0  0  0  0  0  0  0  0  0  0
  139.6310   74.5300  221.3260 C   0  0  0  0  0  0  0  0  0  0  0  0
  140.7610   75.4000  221.1330 C   0  0  0  0  0  0  0  0  0  0  0  0
  141.1190   76.0240  222.2320 O   0  0  0  0  0  0  0  0  0  0  0  0
  141.5570   75.7100  220.0230 N   0  0  0  0  0  0  0  0  0  0  0  0
  142.4000   74.7250  219.3160 C   0  0  0  0  0  0  0  0  0  0  0  0
  141.8800   74.6410  217.9100 C   0  0  0  0  0  0  0  0  0  0  0  0
  142.1850   76.0110  217.2890 C   0  0  0  0  0  0  0  0  0  0  0  0
  141.2930   77.0330  217.9940 C   0  0  0  0  0  0  0  0  0  0  0  0
  141.6600   77.0640  219.4400 C   0  0  1  0  0  0  0  0  0  0  0  0
  141.0880   78.1590  220.2530 C   0  0  0  0  0  0  0  0  0  0  0  0
  141.8980   78.3250  221.4740 N   0  0  0  0  0  0  0  0  0  0  0  0
  141.8330   79.4410  222.3240 C   0  0  0  0  0  0  0  0  0  0  0  0
  142.9880   79.8260  223.0190 C   0  0  0  0  0  0  0  0  0  0  0  0
  142.9780   80.8890  223.8910 C   0  0  0  0  0  0  0  0  0  0  0  0
  141.8460   81.6320  224.1350 C   0  0  0  0  0  0  0  0  0  0  0  0
  140.7000   81.2650  223.4610 C   0  0  0  0  0  0  0  0  0  0  0  0
  140.7140   80.1930  222.5810 C   0  0  0  0  0  0  0  0  0  0  0  0
  140.2350   71.5480  223.6960 C   0  0  0  0  0  0  0  0  0  0  0  0
  139.5670   70.3670  223.4630 C   0  0  0  0  0  0  0  0  0  0  0  0
  139.3530   69.4760  224.5060 C   0  0  0  0  0  0  0  0  0  0  0  0
  139.8160   69.7800  225.7870 C   0  0  0  0  0  0  0  0  0  0  0  0
  139.6260   68.9250  226.8460 C   0  0  0  0  0  0  0  0  0  0  0  0
  140.1220   69.3180  228.0780 C   0  0  0  0  0  0  0  0  0  0  0  0
  139.9670   68.5180  229.1660 F   0  0  0  0  0  0  0  0  0  0  0  0
  140.7820   70.5080  228.2540 C   0  0  0  0  0  0  0  0  0  0  0  0
  140.9740   71.3670  227.1910 C   0  0  0  0  0  0  0  0  0  0  0  0
  140.4850   70.9890  225.9620 C   0  0  0  0  0  0  0  0  0  0  0  0
  140.6820   71.8390  224.9350 N   0  0  0  0  0  0  0  0  0  0  0  0
  138.7420   73.6020  223.0610 H   0  0  0  0  0  0  0  0  0  0  0  0
  139.5239   73.9694  220.3856 H   0  0  0  0  0  0  0  0  0  0  0  0
  138.8665   75.2530  221.6466 H   0  0  0  0  0  0  0  0  0  0  0  0
  143.4488   75.0567  219.3130 H   0  0  0  0  0  0  0  0  0  0  0  0
  142.3610   73.7435  219.8112 H   0  0  0  0  0  0  0  0  0  0  0  0
  142.3940   73.8423  217.3551 H   0  0  0  0  0  0  0  0  0  0  0  0
  140.8060   74.4049  217.8809 H   0  0  0  0  0  0  0  0  0  0  0  0
  143.2441   76.2665  217.4405 H   0  0  0  0  0  0  0  0  0  0  0  0
  141.9901   76.0022  216.2064 H   0  0  0  0  0  0  0  0  0  0  0  0
  141.4467   78.0279  217.5508 H   0  0  0  0  0  0  0  0  0  0  0  0
  140.2355   76.7528  217.8795 H   0  0  0  0  0  0  0  0  0  0  0  0
  142.7187   77.3603  219.4774 H   0  0  0  0  0  0  0  0  0  0  0  0
  141.0996   79.0936  219.6730 H   0  0  0  0  0  0  0  0  0  0  0  0
  140.0505   77.9159  220.5259 H   0  0  0  0  0  0  0  0  0  0  0  0
  142.5540   77.5430  221.6930 H   0  0  0  0  0  0  0  0  0  0  0  0
  143.9219   79.2659  222.8634 H   0  0  0  0  0  0  0  0  0  0  0  0
  143.9091   81.1552  224.4127 H   0  0  0  0  0  0  0  0  0  0  0  0
  141.8546   82.4800  224.8356 H   0  0  0  0  0  0  0  0  0  0  0  0
  139.7681   81.8266  223.6226 H   0  0  0  0  0  0  0  0  0  0  0  0
  139.7798   79.9320  222.0621 H   0  0  0  0  0  0  0  0  0  0  0  0
  139.2035   70.1297  222.4523 H   0  0  0  0  0  0  0  0  0  0  0  0
  138.8192   68.5317  224.3230 H   0  0  0  0  0  0  0  0  0  0  0  0
  139.1009   67.9666  226.7202 H   0  0  0  0  0  0  0  0  0  0  0  0
  141.1611   70.7795  229.2503 H   0  0  0  0  0  0  0  0  0  0  0  0
  141.5012   72.3234  227.3223 H   0  0  0  0  0  0  0  0  0  0  0  0
  1  2  2  0
  2  3  1  0
  3  4  1  0
  4  5  1  0
  5  6  2  0
  5  7  1  0
  7  8  1  0
  8  9  1  0
  9 10  1  0
 10 11  1  0
 11 12  1  0
 12 13  1  0
 13 14  1  0
 14 15  1  0
 15 16  2  0
 16 17  1  0
 17 18  2  0
 18 19  1  0
 19 20  2  0
  2 21  1  0
 21 22  2  0
 22 23  1  0
 23 24  2  0
 24 25  1  0
 25 26  2  0
 26 27  1  0
 26 28  1  0
 28 29  2  0
 29 30  1  0
 30 31  2  0
 12  7  1  0
 20 15  1  0
 31 21  1  0
 30 24  1  0
  3 32  1  0
  4 33  1  0
  4 34  1  0
  8 35  1  0
  8 36  1  0
  9 37  1  0
  9 38  1  0
 10 39  1  0
 10 40  1  0
 11 41  1  0
 11 42  1  0
 12 43  1  6
 13 44  1  0
 13 45  1  0
 14 46  1  0
 16 47  1  0
 17 48  1  0
 18 49  1  0
 19 50  1  0
 20 51  1  0
 22 52  1  0
 23 53  1  0
 25 54  1  0
 28 55  1  0
 29 56  1  0
M  END
>  <smiles>  (26) 
O=C(NCC(=O)N1CCCC[C@H]1CNc1ccccc1)c1ccc2cc(F)ccc2n1

>  <score_type>  (26) 
oracle

>  <origin>  (26) 
autodockgpu

>  <m_score__min__energy>  (26) 
-9.0999999999999996

>  <m_primary>  (26) 
energy

>  <rmsd>  (26) 
2.2660491245713383

>  <m_score__min__rmsd>  (26) 
2.2660491245713383

>  <meeko>  (26) 
{"free_energy": -9.06, "intermolecular_energy": -11.15, "internal_energy": -1.87, "cluster_size": 38, "cluster_id": 1, "rank_in_cluster": 2}

>  <energy>  (26) 
-8.32

>  <cluster_rmsd>  (26) 
1.54

>  <cluster>  (26) 
1

$$$$

     RDKit          3D

 56 59  0  0  0  0  0  0  0  0999 V2000
  140.1020   70.6470  221.5530 O   0  0  0  0  0  0  0  0  0  0  0  0
  139.8610   71.4330  222.5010 C   0  0  0  0  0  0  0  0  0  0  0  0
  139.3490   72.7550  222.2280 N   0  0  0  0  0  0  0  0  0  0  0  0
  139.0890   73.2860  220.9560 C   0  0  0  0  0  0  0  0  0  0  0  0
  139.6660   74.5050  220.4530 C   0  0  0  0  0  0  0  0  0  0  0  0
  138.7640   75.3730  220.0560 O   0  0  0  0  0  0  0  0  0  0  0  0
  140.9850   74.9550  220.3080 N   0  0  0  0  0  0  0  0  0  0  0  0
  142.0470   74.1830  219.6310 C   0  0  0  0  0  0  0  0  0  0  0  0
  142.4890   74.9990  218.4510 C   0  0  0  0  0  0  0  0  0  0  0  0
  143.1600   76.2420  219.0530 C   0  0  0  0  0  0  0  0  0  0  0  0
  142.0610   77.0630  219.7290 C   0  0  0  0  0  0  0  0  0  0  0  0
  141.4720   76.2480  220.8320 C   0  0  1  0  0  0  0  0  0  0  0  0
  140.5640   76.9450  221.7680 C   0  0  0  0  0  0  0  0  0  0  0  0
  141.3570   77.5060  222.8770 N   0  0  0  0  0  0  0  0  0  0  0  0
  141.4830   78.8790  223.1480 C   0  0  0  0  0  0  0  0  0  0  0  0
  142.7620   79.4530  223.1330 C   0  0  0  0  0  0  0  0  0  0  0  0
  142.9540   80.7820  223.4240 C   0  0  0  0  0  0  0  0  0  0  0  0
  141.9130   81.6240  223.7450 C   0  0  0  0  0  0  0  0  0  0  0  0
  140.6490   81.0760  223.7650 C   0  0  0  0  0  0  0  0  0  0  0  0
  140.4590   79.7330  223.4710 C   0  0  0  0  0  0  0  0  0  0  0  0
  140.1020   71.0040  223.8950 C   0  0  0  0  0  0  0  0  0  0  0  0
  140.6960   71.8920  224.7660 C   0  0  0  0  0  0  0  0  0  0  0  0
  140.9330   71.5150  226.0820 C   0  0  0  0  0  0  0  0  0  0  0  0
  140.5710   70.2400  226.5160 C   0  0  0  0  0  0  0  0  0  0  0  0
  140.7890   69.8280  227.8090 C   0  0  0  0  0  0  0  0  0  0  0  0
  140.3940   68.5420  228.1430 C   0  0  0  0  0  0  0  0  0  0  0  0
  140.5810   68.0740  229.4050 F   0  0  0  0  0  0  0  0  0  0  0  0
  139.8060   67.7000  227.2340 C   0  0  0  0  0  0  0  0  0  0  0  0
  139.5870   68.1130  225.9350 C   0  0  0  0  0  0  0  0  0  0  0  0
  139.9760   69.3860  225.5900 C   0  0  0  0  0  0  0  0  0  0  0  0
  139.7530   69.7730  224.3190 N   0  0  0  0  0  0  0  0  0  0  0  0
  139.1740   73.3230  223.1130 H   0  0  0  0  0  0  0  0  0  0  0  0
  139.3816   72.5023  220.2417 H   0  0  0  0  0  0  0  0  0  0  0  0
  138.0372   73.5873  221.0695 H   0  0  0  0  0  0  0  0  0  0  0  0
  142.8918   74.0191  220.3162 H   0  0  0  0  0  0  0  0  0  0  0  0
  141.6776   73.1967  219.3136 H   0  0  0  0  0  0  0  0  0  0  0  0
  143.2047   74.4332  217.8365 H   0  0  0  0  0  0  0  0  0  0  0  0
  141.6473   75.2626  217.7937 H   0  0  0  0  0  0  0  0  0  0  0  0
  143.9160   75.9415  219.7933 H   0  0  0  0  0  0  0  0  0  0  0  0
  143.6651   76.8308  218.2731 H   0  0  0  0  0  0  0  0  0  0  0  0
  142.4892   77.9892  220.1399 H   0  0  0  0  0  0  0  0  0  0  0  0
  141.2827   77.3258  218.9974 H   0  0  0  0  0  0  0  0  0  0  0  0
  142.2986   76.0336  221.5254 H   0  0  0  0  0  0  0  0  0  0  0  0
  140.0422   77.7568  221.2401 H   0  0  0  0  0  0  0  0  0  0  0  0
  139.8216   76.2360  222.1632 H   0  0  0  0  0  0  0  0  0  0  0  0
  141.8450   76.8110  223.4840 H   0  0  0  0  0  0  0  0  0  0  0  0
  143.6304   78.8259  222.8829 H   0  0  0  0  0  0  0  0  0  0  0  0
  143.9761   81.1879  223.3996 H   0  0  0  0  0  0  0  0  0  0  0  0
  142.0828   82.6862  223.9751 H   0  0  0  0  0  0  0  0  0  0  0  0
  139.7841   81.7076  224.0159 H   0  0  0  0  0  0  0  0  0  0  0  0
  139.4348   79.3327  223.4983 H   0  0  0  0  0  0  0  0  0  0  0  0
  140.9816   72.8964  224.4201 H   0  0  0  0  0  0  0  0  0  0  0  0
  141.4055   72.2211  226.7807 H   0  0  0  0  0  0  0  0  0  0  0  0
  141.2583   70.4925  228.5494 H   0  0  0  0  0  0  0  0  0  0  0  0
  139.5065   66.6875  227.5424 H   0  0  0  0  0  0  0  0  0  0  0  0
  139.1161   67.4447  225.1990 H   0  0  0  0  0  0  0  0  0  0  0  0
  1  2  2  0
  2  3  1  0
  3  4  1  0
  4  5  1  0
  5  6  2  0
  5  7  1  0
  7  8  1  0
  8  9  1  0
  9 10  1  0
 10 11  1  0
 11 12  1  0
 12 13  1  0
 13 14  1  0
 14 15  1  0
 15 16  2  0
 16 17  1  0
 17 18  2  0
 18 19  1  0
 19 20  2  0
  2 21  1  0
 21 22  2  0
 22 23  1  0
 23 24  2  0
 24 25  1  0
 25 26  2  0
 26 27  1  0
 26 28  1  0
 28 29  2  0
 29 30  1  0
 30 31  2  0
 12  7  1  0
 20 15  1  0
 31 21  1  0
 30 24  1  0
  3 32  1  0
  4 33  1  0
  4 34  1  0
  8 35  1  0
  8 36  1  0
  9 37  1  0
  9 38  1  0
 10 39  1  0
 10 40  1  0
 11 41  1  0
 11 42  1  0
 12 43  1  1
 13 44  1  0
 13 45  1  0
 14 46  1  0
 16 47  1  0
 17 48  1  0
 18 49  1  0
 19 50  1  0
 20 51  1  0
 22 52  1  0
 23 53  1  0
 25 54  1  0
 28 55  1  0
 29 56  1  0
M  END
>  <smiles>  (27) 
O=C(NCC(=O)N1CCCC[C@H]1CNc1ccccc1)c1ccc2cc(F)ccc2n1

>  <score_type>  (27) 
oracle

>  <origin>  (27) 
autodockgpu

>  <m_score__min__energy>  (27) 
-9.0999999999999996

>  <m_primary>  (27) 
energy

>  <rmsd>  (27) 
2.911641223891506

>  <m_score__min__rmsd>  (27) 
2.911641223891506

>  <meeko>  (27) 
{"free_energy": -8.97, "intermolecular_energy": -11.06, "internal_energy": -1.24, "cluster_size": 38, "cluster_id": 1, "rank_in_cluster": 3}

>  <energy>  (27) 
-8.28

>  <cluster_rmsd>  (27) 
1.64

>  <cluster>  (27) 
1

$$$$

     RDKit          3D

 56 59  0  0  0  0  0  0  0  0999 V2000
  140.3020   71.5490  221.1500 O   0  0  0  0  0  0  0  0  0  0  0  0
  139.6880   71.9180  222.1800 C   0  0  0  0  0  0  0  0  0  0  0  0
  138.9380   73.1530  222.1690 N   0  0  0  0  0  0  0  0  0  0  0  0
  138.8260   74.0320  221.0810 C   0  0  0  0  0  0  0  0  0  0  0  0
  139.9340   74.4680  220.2730 C   0  0  0  0  0  0  0  0  0  0  0  0
  139.6070   74.6530  219.0140 O   0  0  0  0  0  0  0  0  0  0  0  0
  141.2800   74.7400  220.5530 N   0  0  0  0  0  0  0  0  0  0  0  0
  142.2940   73.6970  220.8020 C   0  0  0  0  0  0  0  0  0  0  0  0
  143.3270   73.8290  219.7200 C   0  0  0  0  0  0  0  0  0  0  0  0
  144.0070   75.1810  219.9800 C   0  0  0  0  0  0  0  0  0  0  0  0
  142.9720   76.2680  219.6940 C   0  0  0  0  0  0  0  0  0  0  0  0
  141.8370   76.1050  220.6490 C   0  0  1  0  0  0  0  0  0  0  0  0
  140.8460   77.2020  220.7050 C   0  0  0  0  0  0  0  0  0  0  0  0
  140.6440   77.5950  222.1110 N   0  0  0  0  0  0  0  0  0  0  0  0
  141.0980   78.8020  222.6710 C   0  0  0  0  0  0  0  0  0  0  0  0
  142.4750   79.0630  222.6800 C   0  0  0  0  0  0  0  0  0  0  0  0
  142.9830   80.2100  223.2440 C   0  0  0  0  0  0  0  0  0  0  0  0
  142.1790   81.1620  223.8290 C   0  0  0  0  0  0  0  0  0  0  0  0
  140.8220   80.9190  223.8300 C   0  0  0  0  0  0  0  0  0  0  0  0
  140.3130   79.7610  223.2600 C   0  0  0  0  0  0  0  0  0  0  0  0
  139.7330   71.0900  223.4040 C   0  0  0  0  0  0  0  0  0  0  0  0
  139.1870   69.8260  223.3660 C   0  0  0  0  0  0  0  0  0  0  0  0
  139.2150   69.0260  224.5020 C   0  0  0  0  0  0  0  0  0  0  0  0
  139.7970   69.5060  225.6750 C   0  0  0  0  0  0  0  0  0  0  0  0
  139.8460   68.7470  226.8200 C   0  0  0  0  0  0  0  0  0  0  0  0
  140.4440   69.3130  227.9340 C   0  0  0  0  0  0  0  0  0  0  0  0
  140.5250   68.6150  229.0980 F   0  0  0  0  0  0  0  0  0  0  0  0
  140.9730   70.5780  227.9150 C   0  0  0  0  0  0  0  0  0  0  0  0
  140.9240   71.3410  226.7660 C   0  0  0  0  0  0  0  0  0  0  0  0
  140.3320   70.7920  225.6530 C   0  0  0  0  0  0  0  0  0  0  0  0
  140.2940   71.5500  224.5400 N   0  0  0  0  0  0  0  0  0  0  0  0
  138.4530   73.3520  223.0960 H   0  0  0  0  0  0  0  0  0  0  0  0
  138.1212   73.5539  220.3848 H   0  0  0  0  0  0  0  0  0  0  0  0
  138.5679   74.9678  221.5983 H   0  0  0  0  0  0  0  0  0  0  0  0
  142.7574   73.8471  221.7883 H   0  0  0  0  0  0  0  0  0  0  0  0
  141.8399   72.6951  220.7940 H   0  0  0  0  0  0  0  0  0  0  0  0
  144.0588   73.0101  219.7826 H   0  0  0  0  0  0  0  0  0  0  0  0
  142.8812   73.7779  218.7157 H   0  0  0  0  0  0  0  0  0  0  0  0
  144.3379   75.2415  221.0273 H   0  0  0  0  0  0  0  0  0  0  0  0
  144.8912   75.3041  219.3373 H   0  0  0  0  0  0  0  0  0  0  0  0
  143.4291   77.2596  219.8269 H   0  0  0  0  0  0  0  0  0  0  0  0
  142.6092   76.1797  218.6593 H   0  0  0  0  0  0  0  0  0  0  0  0
  142.2686   76.2153  221.6547 H   0  0  0  0  0  0  0  0  0  0  0  0
  141.2170   78.0638  220.1309 H   0  0  0  0  0  0  0  0  0  0  0  0
  139.8925   76.8638  220.2730 H   0  0  0  0  0  0  0  0  0  0  0  0
  140.1270   76.9110  222.7050 H   0  0  0  0  0  0  0  0  0  0  0  0
  143.1639   78.3352  222.2264 H   0  0  0  0  0  0  0  0  0  0  0  0
  144.0708   80.3724  223.2270 H   0  0  0  0  0  0  0  0  0  0  0  0
  142.6001   82.0750  224.2753 H   0  0  0  0  0  0  0  0  0  0  0  0
  140.1373   81.6490  224.2864 H   0  0  0  0  0  0  0  0  0  0  0  0
  139.2245   79.6036  223.2813 H   0  0  0  0  0  0  0  0  0  0  0  0
  138.7298   69.4506  222.4386 H   0  0  0  0  0  0  0  0  0  0  0  0
  138.7791   68.0164  224.4761 H   0  0  0  0  0  0  0  0  0  0  0  0
  139.4269   67.7304  226.8505 H   0  0  0  0  0  0  0  0  0  0  0  0
  141.4401   70.9878  228.8227 H   0  0  0  0  0  0  0  0  0  0  0  0
  141.3454   72.3568  226.7414 H   0  0  0  0  0  0  0  0  0  0  0  0
  1  2  2  0
  2  3  1  0
  3  4  1  0
  4  5  1  0
  5  6  2  0
  5  7  1  0
  7  8  1  0
  8  9  1  0
  9 10  1  0
 10 11  1  0
 11 12  1  0
 12 13  1  0
 13 14  1  0
 14 15  1  0
 15 16  2  0
 16 17  1  0
 17 18  2  0
 18 19  1  0
 19 20  2  0
  2 21  1  0
 21 22  2  0
 22 23  1  0
 23 24  2  0
 24 25  1  0
 25 26  2  0
 26 27  1  0
 26 28  1  0
 28 29  2  0
 29 30  1  0
 30 31  2  0
 12  7  1  0
 20 15  1  0
 31 21  1  0
 30 24  1  0
  3 32  1  0
  4 33  1  0
  4 34  1  0
  8 35  1  0
  8 36  1  0
  9 37  1  0
  9 38  1  0
 10 39  1  0
 10 40  1  0
 11 41  1  0
 11 42  1  0
 12 43  1  1
 13 44  1  0
 13 45  1  0
 14 46  1  0
 16 47  1  0
 17 48  1  0
 18 49  1  0
 19 50  1  0
 20 51  1  0
 22 52  1  0
 23 53  1  0
 25 54  1  0
 28 55  1  0
 29 56  1  0
M  END
>  <smiles>  (28) 
O=C(NCC(=O)N1CCCC[C@H]1CNc1ccccc1)c1ccc2cc(F)ccc2n1

>  <score_type>  (28) 
oracle

>  <origin>  (28) 
autodockgpu

>  <m_score__min__energy>  (28) 
-9.0999999999999996

>  <m_primary>  (28) 
energy

>  <rmsd>  (28) 
2.5360615433436644

>  <m_score__min__rmsd>  (28) 
2.5360615433436644

>  <meeko>  (28) 
{"free_energy": -8.68, "intermolecular_energy": -10.77, "internal_energy": -1.54, "cluster_size": 38, "cluster_id": 1, "rank_in_cluster": 10}

>  <energy>  (28) 
-8.19

>  <cluster_rmsd>  (28) 
1.32

>  <cluster>  (28) 
1

$$$$

     RDKit          3D

 56 59  0  0  0  0  0  0  0  0999 V2000
  141.4040   72.7170  221.9660 O   0  0  0  0  0  0  0  0  0  0  0  0
  140.3260   72.6220  222.6000 C   0  0  0  0  0  0  0  0  0  0  0  0
  139.2210   73.4940  222.2770 N   0  0  0  0  0  0  0  0  0  0  0  0
  139.2270   74.4920  221.2900 C   0  0  0  0  0  0  0  0  0  0  0  0
  140.1050   75.6320  221.2950 C   0  0  0  0  0  0  0  0  0  0  0  0
  140.8940   75.6640  222.3450 O   0  0  0  0  0  0  0  0  0  0  0  0
  140.2940   76.7040  220.4130 N   0  0  0  0  0  0  0  0  0  0  0  0
  139.4550   77.9190  220.4050 C   0  0  0  0  0  0  0  0  0  0  0  0
  140.3620   79.0720  220.7280 C   0  0  0  0  0  0  0  0  0  0  0  0
  141.3120   79.1810  219.5270 C   0  0  0  0  0  0  0  0  0  0  0  0
  142.2060   77.9410  219.5460 C   0  0  0  0  0  0  0  0  0  0  0  0
  141.3440   76.7350  219.3740 C   0  0  1  0  0  0  0  0  0  0  0  0
  142.0320   75.4510  219.1180 C   0  0  0  0  0  0  0  0  0  0  0  0
  142.8530   75.1040  220.2910 N   0  0  0  0  0  0  0  0  0  0  0  0
  143.8630   74.1270  220.2930 C   0  0  0  0  0  0  0  0  0  0  0  0
  145.1760   74.5160  220.5940 C   0  0  0  0  0  0  0  0  0  0  0  0
  146.2120   73.6130  220.5780 C   0  0  0  0  0  0  0  0  0  0  0  0
  146.0270   72.2840  220.2680 C   0  0  0  0  0  0  0  0  0  0  0  0
  144.7420   71.8850  219.9680 C   0  0  0  0  0  0  0  0  0  0  0  0
  143.6990   72.7990  219.9860 C   0  0  0  0  0  0  0  0  0  0  0  0
  140.1880   71.6190  223.6770 C   0  0  0  0  0  0  0  0  0  0  0  0
  139.5400   70.4360  223.3980 C   0  0  0  0  0  0  0  0  0  0  0  0
  139.3960   69.4760  224.3920 C   0  0  0  0  0  0  0  0  0  0  0  0
  139.9090   69.7130  225.6680 C   0  0  0  0  0  0  0  0  0  0  0  0
  139.7880   68.7900  226.6780 C   0  0  0  0  0  0  0  0  0  0  0  0
  140.3300   69.1190  227.9100 C   0  0  0  0  0  0  0  0  0  0  0  0
  140.2450   68.2500  228.9510 F   0  0  0  0  0  0  0  0  0  0  0  0
  140.9660   70.3140  228.1320 C   0  0  0  0  0  0  0  0  0  0  0  0
  141.0880   71.2420  227.1170 C   0  0  0  0  0  0  0  0  0  0  0  0
  140.5540   70.9280  225.8890 C   0  0  0  0  0  0  0  0  0  0  0  0
  140.6820   71.8440  224.9110 N   0  0  0  0  0  0  0  0  0  0  0  0
  138.3590   73.3100  222.8750 H   0  0  0  0  0  0  0  0  0  0  0  0
  139.4235   73.9703  220.3417 H   0  0  0  0  0  0  0  0  0  0  0  0
  138.2586   74.9771  221.4818 H   0  0  0  0  0  0  0  0  0  0  0  0
  139.0013   78.0599  219.4129 H   0  0  0  0  0  0  0  0  0  0  0  0
  138.6383   77.8407  221.1377 H   0  0  0  0  0  0  0  0  0  0  0  0
  139.7814   79.9987  220.8467 H   0  0  0  0  0  0  0  0  0  0  0  0
  140.9059   78.9172  221.6715 H   0  0  0  0  0  0  0  0  0  0  0  0
  140.7347   79.2154  218.5913 H   0  0  0  0  0  0  0  0  0  0  0  0
  141.9150   80.0990  219.5873 H   0  0  0  0  0  0  0  0  0  0  0  0
  142.9353   77.9964  218.7244 H   0  0  0  0  0  0  0  0  0  0  0  0
  142.7507   77.8828  220.4999 H   0  0  0  0  0  0  0  0  0  0  0  0
  140.8438   76.8570  218.4019 H   0  0  0  0  0  0  0  0  0  0  0  0
  141.2862   74.6615  218.9434 H   0  0  0  0  0  0  0  0  0  0  0  0
  142.6741   75.5443  218.2297 H   0  0  0  0  0  0  0  0  0  0  0  0
  142.6460   75.6370  221.1650 H   0  0  0  0  0  0  0  0  0  0  0  0
  145.3813   75.5663  220.8484 H   0  0  0  0  0  0  0  0  0  0  0  0
  147.2255   73.9645  220.8216 H   0  0  0  0  0  0  0  0  0  0  0  0
  146.8664   71.5731  220.2601 H   0  0  0  0  0  0  0  0  0  0  0  0
  144.5424   70.8339  219.7124 H   0  0  0  0  0  0  0  0  0  0  0  0
  142.6879   72.4413  219.7416 H   0  0  0  0  0  0  0  0  0  0  0  0
  139.1376   70.2518  222.3909 H   0  0  0  0  0  0  0  0  0  0  0  0
  138.8783   68.5304  224.1735 H   0  0  0  0  0  0  0  0  0  0  0  0
  139.2808   67.8276  226.5152 H   0  0  0  0  0  0  0  0  0  0  0  0
  141.3819   70.5346  229.1262 H   0  0  0  0  0  0  0  0  0  0  0  0
  141.5965   72.2028  227.2853 H   0  0  0  0  0  0  0  0  0  0  0  0
  1  2  2  0
  2  3  1  0
  3  4  1  0
  4  5  1  0
  5  6  2  0
  5  7  1  0
  7  8  1  0
  8  9  1  0
  9 10  1  0
 10 11  1  0
 11 12  1  0
 12 13  1  0
 13 14  1  0
 14 15  1  0
 15 16  2  0
 16 17  1  0
 17 18  2  0
 18 19  1  0
 19 20  2  0
  2 21  1  0
 21 22  2  0
 22 23  1  0
 23 24  2  0
 24 25  1  0
 25 26  2  0
 26 27  1  0
 26 28  1  0
 28 29  2  0
 29 30  1  0
 30 31  2  0
 12  7  1  0
 20 15  1  0
 31 21  1  0
 30 24  1  0
  3 32  1  0
  4 33  1  0
  4 34  1  0
  8 35  1  0
  8 36  1  0
  9 37  1  0
  9 38  1  0
 10 39  1  0
 10 40  1  0
 11 41  1  0
 11 42  1  0
 12 43  1  6
 13 44  1  0
 13 45  1  0
 14 46  1  0
 16 47  1  0
 17 48  1  0
 18 49  1  0
 19 50  1  0
 20 51  1  0
 22 52  1  0
 23 53  1  0
 25 54  1  0
 28 55  1  0
 29 56  1  0
M  END
>  <smiles>  (29) 
O=C(NCC(=O)N1CCCC[C@H]1CNc1ccccc1)c1ccc2cc(F)ccc2n1

>  <score_type>  (29) 
oracle

>  <origin>  (29) 
autodockgpu

>  <m_score__min__energy>  (29) 
-9.0999999999999996

>  <m_primary>  (29) 
energy

>  <rmsd>  (29) 
4.692714266674583

>  <m_score__min__rmsd>  (29) 
4.692714266674583

>  <meeko>  (29) 
{"free_energy": -8.77, "intermolecular_energy": -10.86, "internal_energy": -2.33, "cluster_size": 7, "cluster_id": 2, "rank_in_cluster": 1}

>  <energy>  (29) 
-8.17

>  <cluster_rmsd>  (29) 
1.58

>  <cluster>  (29) 
1

$$$$

     RDKit          3D

 56 59  0  0  0  0  0  0  0  0999 V2000
  139.8220   71.6990  221.0250 O   0  0  0  0  0  0  0  0  0  0  0  0
  139.7270   72.2220  222.1610 C   0  0  0  0  0  0  0  0  0  0  0  0
  139.4860   73.6400  222.2830 N   0  0  0  0  0  0  0  0  0  0  0  0
  139.3490   74.5430  221.2170 C   0  0  0  0  0  0  0  0  0  0  0  0
  140.4220   74.9250  220.3380 C   0  0  0  0  0  0  0  0  0  0  0  0
  140.0000   75.5250  219.2480 O   0  0  0  0  0  0  0  0  0  0  0  0
  141.8160   74.7980  220.4090 N   0  0  0  0  0  0  0  0  0  0  0  0
  142.5050   73.6070  220.9440 C   0  0  0  0  0  0  0  0  0  0  0  0
  143.3160   73.0340  219.8180 C   0  0  0  0  0  0  0  0  0  0  0  0
  144.4000   74.0830  219.5310 C   0  0  0  0  0  0  0  0  0  0  0  0
  143.6970   75.3080  218.9470 C   0  0  0  0  0  0  0  0  0  0  0  0
  142.7580   75.8490  219.9730 C   0  0  1  0  0  0  0  0  0  0  0  0
  142.1620   77.1750  219.7020 C   0  0  0  0  0  0  0  0  0  0  0  0
  141.2560   77.5300  220.8090 N   0  0  0  0  0  0  0  0  0  0  0  0
  141.5840   78.4130  221.8510 C   0  0  0  0  0  0  0  0  0  0  0  0
  142.1310   79.6630  221.5280 C   0  0  0  0  0  0  0  0  0  0  0  0
  142.5040   80.5560  222.5040 C   0  0  0  0  0  0  0  0  0  0  0  0
  142.3660   80.2810  223.8460 C   0  0  0  0  0  0  0  0  0  0  0  0
  141.8300   79.0560  224.1810 C   0  0  0  0  0  0  0  0  0  0  0  0
  141.4550   78.1580  223.1930 C   0  0  0  0  0  0  0  0  0  0  0  0
  139.8630   71.3860  223.3730 C   0  0  0  0  0  0  0  0  0  0  0  0
  139.4790   70.0650  223.3120 C   0  0  0  0  0  0  0  0  0  0  0  0
  139.5960   69.2580  224.4360 C   0  0  0  0  0  0  0  0  0  0  0  0
  140.1030   69.7880  225.6230 C   0  0  0  0  0  0  0  0  0  0  0  0
  140.2360   69.0230  226.7570 C   0  0  0  0  0  0  0  0  0  0  0  0
  140.7490   69.6410  227.8850 C   0  0  0  0  0  0  0  0  0  0  0  0
  140.9060   68.9410  229.0400 F   0  0  0  0  0  0  0  0  0  0  0  0
  141.1170   70.9620  227.8900 C   0  0  0  0  0  0  0  0  0  0  0  0
  140.9840   71.7310  226.7520 C   0  0  0  0  0  0  0  0  0  0  0  0
  140.4750   71.1300  225.6240 C   0  0  0  0  0  0  0  0  0  0  0  0
  140.3530   71.8940  224.5220 N   0  0  0  0  0  0  0  0  0  0  0  0
  139.4150   73.9640  223.2970 H   0  0  0  0  0  0  0  0  0  0  0  0
  138.5689   74.1196  220.5672 H   0  0  0  0  0  0  0  0  0  0  0  0
  139.1834   75.4837  221.7625 H   0  0  0  0  0  0  0  0  0  0  0  0
  143.1632   73.8927  221.7778 H   0  0  0  0  0  0  0  0  0  0  0  0
  141.7824   72.8704  221.3252 H   0  0  0  0  0  0  0  0  0  0  0  0
  143.7725   72.0792  220.1179 H   0  0  0  0  0  0  0  0  0  0  0  0
  142.6997   72.8252  218.9311 H   0  0  0  0  0  0  0  0  0  0  0  0
  144.9187   74.3540  220.4624 H   0  0  0  0  0  0  0  0  0  0  0  0
  145.1491   73.6895  218.8281 H   0  0  0  0  0  0  0  0  0  0  0  0
  144.4421   76.0738  218.6854 H   0  0  0  0  0  0  0  0  0  0  0  0
  143.1426   75.0274  218.0393 H   0  0  0  0  0  0  0  0  0  0  0  0
  143.3785   76.1164  220.8410 H   0  0  0  0  0  0  0  0  0  0  0  0
  142.9596   77.9284  219.6223 H   0  0  0  0  0  0  0  0  0  0  0  0
  141.5993   77.1431  218.7573 H   0  0  0  0  0  0  0  0  0  0  0  0
  140.3150   77.0790  220.7890 H   0  0  0  0  0  0  0  0  0  0  0  0
  142.2645   79.9349  220.4705 H   0  0  0  0  0  0  0  0  0  0  0  0
  142.9279   81.5251  222.2021 H   0  0  0  0  0  0  0  0  0  0  0  0
  142.6696   81.0058  224.6157 H   0  0  0  0  0  0  0  0  0  0  0  0
  141.6987   78.7888  225.2399 H   0  0  0  0  0  0  0  0  0  0  0  0
  141.0320   77.1906  223.5013 H   0  0  0  0  0  0  0  0  0  0  0  0
  139.0803   69.6498  222.3746 H   0  0  0  0  0  0  0  0  0  0  0  0
  139.2894   68.2026  224.3907 H   0  0  0  0  0  0  0  0  0  0  0  0
  139.9464   67.9619  226.7681 H   0  0  0  0  0  0  0  0  0  0  0  0
  141.5215   71.4122  228.8085 H   0  0  0  0  0  0  0  0  0  0  0  0
  141.2758   72.7916  226.7469 H   0  0  0  0  0  0  0  0  0  0  0  0
  1  2  2  0
  2  3  1  0
  3  4  1  0
  4  5  1  0
  5  6  2  0
  5  7  1  0
  7  8  1  0
  8  9  1  0
  9 10  1  0
 10 11  1  0
 11 12  1  0
 12 13  1  0
 13 14  1  0
 14 15  1  0
 15 16  2  0
 16 17  1  0
 17 18  2  0
 18 19  1  0
 19 20  2  0
  2 21  1  0
 21 22  2  0
 22 23  1  0
 23 24  2  0
 24 25  1  0
 25 26  2  0
 26 27  1  0
 26 28  1  0
 28 29  2  0
 29 30  1  0
 30 31  2  0
 12  7  1  0
 20 15  1  0
 31 21  1  0
 30 24  1  0
  3 32  1  0
  4 33  1  0
  4 34  1  0
  8 35  1  0
  8 36  1  0
  9 37  1  0
  9 38  1  0
 10 39  1  0
 10 40  1  0
 11 41  1  0
 11 42  1  0
 12 43  1  1
 13 44  1  0
 13 45  1  0
 14 46  1  0
 16 47  1  0
 17 48  1  0
 18 49  1  0
 19 50  1  0
 20 51  1  0
 22 52  1  0
 23 53  1  0
 25 54  1  0
 28 55  1  0
 29 56  1  0
M  END
>  <smiles>  (30) 
O=C(NCC(=O)N1CCCC[C@H]1CNc1ccccc1)c1ccc2cc(F)ccc2n1

>  <score_type>  (30) 
oracle

>  <origin>  (30) 
autodockgpu

>  <m_score__min__energy>  (30) 
-9.0999999999999996

>  <m_primary>  (30) 
energy

>  <rmsd>  (30) 
2.7843868931571345

>  <m_score__min__rmsd>  (30) 
2.7843868931571345

>  <meeko>  (30) 
{"free_energy": -8.45, "intermolecular_energy": -10.54, "internal_energy": -2.18, "cluster_size": 38, "cluster_id": 1, "rank_in_cluster": 21}

>  <energy>  (30) 
-8.09

>  <cluster_rmsd>  (30) 
1.34

>  <cluster>  (30) 
1

$$$$

     RDKit          3D

 56 59  0  0  0  0  0  0  0  0999 V2000
  139.5000   71.0750  221.3930 O   0  0  0  0  0  0  0  0  0  0  0  0
  139.6310   71.5860  222.5310 C   0  0  0  0  0  0  0  0  0  0  0  0
  139.7110   73.0210  222.6710 N   0  0  0  0  0  0  0  0  0  0  0  0
  139.6660   73.9500  221.6200 C   0  0  0  0  0  0  0  0  0  0  0  0
  140.7360   74.8570  221.2950 C   0  0  0  0  0  0  0  0  0  0  0  0
  141.0260   75.6780  222.2770 O   0  0  0  0  0  0  0  0  0  0  0  0
  141.5310   75.0350  220.1550 N   0  0  0  0  0  0  0  0  0  0  0  0
  142.3810   73.9780  219.5720 C   0  0  0  0  0  0  0  0  0  0  0  0
  141.8630   73.7210  218.1860 C   0  0  0  0  0  0  0  0  0  0  0  0
  142.1580   75.0090  217.4040 C   0  0  0  0  0  0  0  0  0  0  0  0
  141.2590   76.1020  217.9810 C   0  0  0  0  0  0  0  0  0  0  0  0
  141.6250   76.3100  219.4130 C   0  0  1  0  0  0  0  0  0  0  0  0
  141.0440   77.4910  220.0870 C   0  0  0  0  0  0  0  0  0  0  0  0
  141.8740   77.8320  221.2570 N   0  0  0  0  0  0  0  0  0  0  0  0
  141.8400   79.0690  221.9210 C   0  0  0  0  0  0  0  0  0  0  0  0
  141.4940   80.2150  221.1920 C   0  0  0  0  0  0  0  0  0  0  0  0
  141.4760   81.4590  221.7780 C   0  0  0  0  0  0  0  0  0  0  0  0
  141.7950   81.6540  223.1030 C   0  0  0  0  0  0  0  0  0  0  0  0
  142.1390   80.5370  223.8340 C   0  0  0  0  0  0  0  0  0  0  0  0
  142.1550   79.2840  223.2400 C   0  0  0  0  0  0  0  0  0  0  0  0
  139.7040   70.7200  223.7270 C   0  0  0  0  0  0  0  0  0  0  0  0
  139.1950   69.4420  223.6490 C   0  0  0  0  0  0  0  0  0  0  0  0
  139.2500   68.6070  224.7580 C   0  0  0  0  0  0  0  0  0  0  0  0
  139.8210   69.0650  225.9450 C   0  0  0  0  0  0  0  0  0  0  0  0
  139.8960   68.2710  227.0650 C   0  0  0  0  0  0  0  0  0  0  0  0
  140.4810   68.8180  228.1950 C   0  0  0  0  0  0  0  0  0  0  0  0
  140.5860   68.0850  229.3350 F   0  0  0  0  0  0  0  0  0  0  0  0
  140.9730   70.0980  228.2160 C   0  0  0  0  0  0  0  0  0  0  0  0
  140.8980   70.8960  227.0930 C   0  0  0  0  0  0  0  0  0  0  0  0
  140.3190   70.3660  225.9640 C   0  0  0  0  0  0  0  0  0  0  0  0
  140.2560   71.1580  224.8760 N   0  0  0  0  0  0  0  0  0  0  0  0
  139.8100   73.3340  223.6850 H   0  0  0  0  0  0  0  0  0  0  0  0
  139.4899   73.3595  220.7088 H   0  0  0  0  0  0  0  0  0  0  0  0
  138.9072   74.6517  221.9965 H   0  0  0  0  0  0  0  0  0  0  0  0
  143.4275   74.3141  219.5290 H   0  0  0  0  0  0  0  0  0  0  0  0
  142.3480   73.0632  220.1820 H   0  0  0  0  0  0  0  0  0  0  0  0
  142.3838   72.8653  217.7315 H   0  0  0  0  0  0  0  0  0  0  0  0
  140.7909   73.4748  218.1856 H   0  0  0  0  0  0  0  0  0  0  0  0
  143.2152   75.2885  217.5227 H   0  0  0  0  0  0  0  0  0  0  0  0
  141.9629   74.8683  216.3306 H   0  0  0  0  0  0  0  0  0  0  0  0
  141.4060   77.0373  217.4209 H   0  0  0  0  0  0  0  0  0  0  0  0
  140.2035   75.8025  217.9016 H   0  0  0  0  0  0  0  0  0  0  0  0
  142.6816   76.6160  219.4154 H   0  0  0  0  0  0  0  0  0  0  0  0
  141.0233   78.3410  219.3891 H   0  0  0  0  0  0  0  0  0  0  0  0
  140.0175   77.2660  220.4121 H   0  0  0  0  0  0  0  0  0  0  0  0
  142.5190   77.0820  221.5900 H   0  0  0  0  0  0  0  0  0  0  0  0
  141.2312   80.1173  220.1283 H   0  0  0  0  0  0  0  0  0  0  0  0
  141.1967   82.3294  221.1661 H   0  0  0  0  0  0  0  0  0  0  0  0
  141.7762   82.6555  223.5576 H   0  0  0  0  0  0  0  0  0  0  0  0
  142.4029   80.6404  224.8969 H   0  0  0  0  0  0  0  0  0  0  0  0
  142.4345   78.4176  223.8574 H   0  0  0  0  0  0  0  0  0  0  0  0
  138.7462   69.0837  222.7108 H   0  0  0  0  0  0  0  0  0  0  0  0
  138.8439   67.5864  224.6999 H   0  0  0  0  0  0  0  0  0  0  0  0
  139.5068   67.2422  227.0636 H   0  0  0  0  0  0  0  0  0  0  0  0
  141.4310   70.4915  229.1354 H   0  0  0  0  0  0  0  0  0  0  0  0
  141.2891   71.9241  227.1006 H   0  0  0  0  0  0  0  0  0  0  0  0
  1  2  2  0
  2  3  1  0
  3  4  1  0
  4  5  1  0
  5  6  2  0
  5  7  1  0
  7  8  1  0
  8  9  1  0
  9 10  1  0
 10 11  1  0
 11 12  1  0
 12 13  1  0
 13 14  1  0
 14 15  1  0
 15 16  2  0
 16 17  1  0
 17 18  2  0
 18 19  1  0
 19 20  2  0
  2 21  1  0
 21 22  2  0
 22 23  1  0
 23 24  2  0
 24 25  1  0
 25 26  2  0
 26 27  1  0
 26 28  1  0
 28 29  2  0
 29 30  1  0
 30 31  2  0
 12  7  1  0
 20 15  1  0
 31 21  1  0
 30 24  1  0
  3 32  1  0
  4 33  1  0
  4 34  1  0
  8 35  1  0
  8 36  1  0
  9 37  1  0
  9 38  1  0
 10 39  1  0
 10 40  1  0
 11 41  1  0
 11 42  1  0
 12 43  1  6
 13 44  1  0
 13 45  1  0
 14 46  1  0
 16 47  1  0
 17 48  1  0
 18 49  1  0
 19 50  1  0
 20 51  1  0
 22 52  1  0
 23 53  1  0
 25 54  1  0
 28 55  1  0
 29 56  1  0
M  END
>  <smiles>  (31) 
O=C(NCC(=O)N1CCCC[C@H]1CNc1ccccc1)c1ccc2cc(F)ccc2n1

>  <score_type>  (31) 
oracle

>  <origin>  (31) 
autodockgpu

>  <m_score__min__energy>  (31) 
-9.0999999999999996

>  <m_primary>  (31) 
energy

>  <rmsd>  (31) 
1.9586055488974563

>  <m_score__min__rmsd>  (31) 
1.9586055488974563

>  <meeko>  (31) 
{"free_energy": -8.46, "intermolecular_energy": -10.55, "internal_energy": -2.05, "cluster_size": 38, "cluster_id": 1, "rank_in_cluster": 20}

>  <energy>  (31) 
-8.09

>  <cluster_rmsd>  (31) 
1.58

>  <cluster>  (31) 
1

$$$$

     RDKit          3D

 56 59  0  0  0  0  0  0  0  0999 V2000
  140.7090   71.5870  221.2130 O   0  0  0  0  0  0  0  0  0  0  0  0
  140.2770   72.0770  222.2840 C   0  0  0  0  0  0  0  0  0  0  0  0
  139.9510   73.4830  222.3520 N   0  0  0  0  0  0  0  0  0  0  0  0
  140.0810   74.4060  221.3030 C   0  0  0  0  0  0  0  0  0  0  0  0
  140.5240   75.7650  221.4710 C   0  0  0  0  0  0  0  0  0  0  0  0
  140.3680   76.2060  222.6980 O   0  0  0  0  0  0  0  0  0  0  0  0
  141.0900   76.7050  220.6000 N   0  0  0  0  0  0  0  0  0  0  0  0
  142.4470   76.5850  220.0310 C   0  0  0  0  0  0  0  0  0  0  0  0
  142.2850   76.4960  218.5410 C   0  0  0  0  0  0  0  0  0  0  0  0
  141.7460   77.8690  218.1150 C   0  0  0  0  0  0  0  0  0  0  0  0
  140.3280   77.9890  218.6740 C   0  0  0  0  0  0  0  0  0  0  0  0
  140.4010   77.9380  220.1640 C   0  0  1  0  0  0  0  0  0  0  0  0
  139.1700   78.2830  220.9070 C   0  0  0  0  0  0  0  0  0  0  0  0
  139.5060   78.4830  222.3280 N   0  0  0  0  0  0  0  0  0  0  0  0
  140.4850   79.3760  222.7940 C   0  0  0  0  0  0  0  0  0  0  0  0
  140.3400   80.7420  222.5130 C   0  0  0  0  0  0  0  0  0  0  0  0
  141.2830   81.6590  222.9120 C   0  0  0  0  0  0  0  0  0  0  0  0
  142.4160   81.2980  223.6050 C   0  0  0  0  0  0  0  0  0  0  0  0
  142.5750   79.9590  223.8880 C   0  0  0  0  0  0  0  0  0  0  0  0
  141.6220   79.0360  223.4840 C   0  0  0  0  0  0  0  0  0  0  0  0
  140.1030   71.2170  223.4730 C   0  0  0  0  0  0  0  0  0  0  0  0
  139.4590   70.0090  223.3260 C   0  0  0  0  0  0  0  0  0  0  0  0
  139.2820   69.1810  224.4280 C   0  0  0  0  0  0  0  0  0  0  0  0
  139.7570   69.5770  225.6780 C   0  0  0  0  0  0  0  0  0  0  0  0
  139.6030   68.7880  226.7930 C   0  0  0  0  0  0  0  0  0  0  0  0
  140.1090   69.2690  227.9890 C   0  0  0  0  0  0  0  0  0  0  0  0
  139.9890   68.5380  229.1280 F   0  0  0  0  0  0  0  0  0  0  0  0
  140.7430   70.4820  228.0780 C   0  0  0  0  0  0  0  0  0  0  0  0
  140.8980   71.2760  226.9590 C   0  0  0  0  0  0  0  0  0  0  0  0
  140.3990   70.8100  225.7650 C   0  0  0  0  0  0  0  0  0  0  0  0
  140.5610   71.5960  224.6840 N   0  0  0  0  0  0  0  0  0  0  0  0
  139.5850   73.7770  223.3090 H   0  0  0  0  0  0  0  0  0  0  0  0
  140.7850   73.9498  220.5914 H   0  0  0  0  0  0  0  0  0  0  0  0
  139.0260   74.5641  221.0348 H   0  0  0  0  0  0  0  0  0  0  0  0
  143.0479   77.4678  220.2947 H   0  0  0  0  0  0  0  0  0  0  0  0
  142.9641   75.6981  220.4260 H   0  0  0  0  0  0  0  0  0  0  0  0
  143.2528   76.2944  218.0586 H   0  0  0  0  0  0  0  0  0  0  0  0
  141.6096   75.6788  218.2478 H   0  0  0  0  0  0  0  0  0  0  0  0
  142.3819   78.6676  218.5248 H   0  0  0  0  0  0  0  0  0  0  0  0
  141.7442   77.9659  217.0193 H   0  0  0  0  0  0  0  0  0  0  0  0
  139.8835   78.9438  218.3566 H   0  0  0  0  0  0  0  0  0  0  0  0
  139.7036   77.1648  218.2986 H   0  0  0  0  0  0  0  0  0  0  0  0
  141.0262   78.7911  220.4663 H   0  0  0  0  0  0  0  0  0  0  0  0
  138.7387   79.2079  220.4965 H   0  0  0  0  0  0  0  0  0  0  0  0
  138.4373   77.4683  220.8100 H   0  0  0  0  0  0  0  0  0  0  0  0
  138.9630   77.9080  223.0090 H   0  0  0  0  0  0  0  0  0  0  0  0
  139.4529   81.0871  221.9616 H   0  0  0  0  0  0  0  0  0  0  0  0
  141.1264   82.7202  222.6685 H   0  0  0  0  0  0  0  0  0  0  0  0
  143.1606   82.0444  223.9186 H   0  0  0  0  0  0  0  0  0  0  0  0
  143.4647   79.6194  224.4386 H   0  0  0  0  0  0  0  0  0  0  0  0
  141.7857   77.9763  223.7292 H   0  0  0  0  0  0  0  0  0  0  0  0
  139.0855   69.7000  222.3386 H   0  0  0  0  0  0  0  0  0  0  0  0
  138.7682   68.2150  224.3145 H   0  0  0  0  0  0  0  0  0  0  0  0
  139.0975   67.8126  226.7374 H   0  0  0  0  0  0  0  0  0  0  0  0
  141.1310   70.8250  229.0485 H   0  0  0  0  0  0  0  0  0  0  0  0
  141.4046   72.2505  227.0205 H   0  0  0  0  0  0  0  0  0  0  0  0
  1  2  2  0
  2  3  1  0
  3  4  1  0
  4  5  1  0
  5  6  2  0
  5  7  1  0
  7  8  1  0
  8  9  1  0
  9 10  1  0
 10 11  1  0
 11 12  1  0
 12 13  1  0
 13 14  1  0
 14 15  1  0
 15 16  2  0
 16 17  1  0
 17 18  2  0
 18 19  1  0
 19 20  2  0
  2 21  1  0
 21 22  2  0
 22 23  1  0
 23 24  2  0
 24 25  1  0
 25 26  2  0
 26 27  1  0
 26 28  1  0
 28 29  2  0
 29 30  1  0
 30 31  2  0
 12  7  1  0
 20 15  1  0
 31 21  1  0
 30 24  1  0
  3 32  1  0
  4 33  1  0
  4 34  1  0
  8 35  1  0
  8 36  1  0
  9 37  1  0
  9 38  1  0
 10 39  1  0
 10 40  1  0
 11 41  1  0
 11 42  1  0
 12 43  1  1
 13 44  1  0
 13 45  1  0
 14 46  1  0
 16 47  1  0
 17 48  1  0
 18 49  1  0
 19 50  1  0
 20 51  1  0
 22 52  1  0
 23 53  1  0
 25 54  1  0
 28 55  1  0
 29 56  1  0
M  END
>  <smiles>  (32) 
O=C(NCC(=O)N1CCCC[C@H]1CNc1ccccc1)c1ccc2cc(F)ccc2n1

>  <score_type>  (32) 
oracle

>  <origin>  (32) 
autodockgpu

>  <m_score__min__energy>  (32) 
-9.0999999999999996

>  <m_primary>  (32) 
energy

>  <rmsd>  (32) 
2.397926896529905

>  <m_score__min__rmsd>  (32) 
2.397926896529905

>  <meeko>  (32) 
{"free_energy": -8.42, "intermolecular_energy": -10.51, "internal_energy": -2.16, "cluster_size": 38, "cluster_id": 1, "rank_in_cluster": 22}

>  <energy>  (32) 
-8.05

>  <cluster_rmsd>  (32) 
1.55

>  <cluster>  (32) 
1

$$$$

     RDKit          3D

 56 59  0  0  0  0  0  0  0  0999 V2000
  140.1460   71.0960  221.5910 O   0  0  0  0  0  0  0  0  0  0  0  0
  139.5750   71.5740  222.6010 C   0  0  0  0  0  0  0  0  0  0  0  0
  138.5840   72.6120  222.4430 N   0  0  0  0  0  0  0  0  0  0  0  0
  138.1770   73.1780  221.2250 C   0  0  0  0  0  0  0  0  0  0  0  0
  139.0680   73.4830  220.1360 C   0  0  0  0  0  0  0  0  0  0  0  0
  139.4850   72.4110  219.5020 O   0  0  0  0  0  0  0  0  0  0  0  0
  139.5700   74.6810  219.6120 N   0  0  0  0  0  0  0  0  0  0  0  0
  139.1010   75.2860  218.3500 C   0  0  0  0  0  0  0  0  0  0  0  0
  138.5140   76.6230  218.7020 C   0  0  0  0  0  0  0  0  0  0  0  0
  139.7030   77.4670  219.1830 C   0  0  0  0  0  0  0  0  0  0  0  0
  140.1750   76.8660  220.5070 C   0  0  0  0  0  0  0  0  0  0  0  0
  140.6420   75.4710  220.2540 C   0  0  1  0  0  0  0  0  0  0  0  0
  141.3660   74.7970  221.3540 C   0  0  0  0  0  0  0  0  0  0  0  0
  141.8960   73.5120  220.8630 N   0  0  0  0  0  0  0  0  0  0  0  0
  143.2520   73.2650  220.5890 C   0  0  0  0  0  0  0  0  0  0  0  0
  143.6170   72.0130  220.0760 C   0  0  0  0  0  0  0  0  0  0  0  0
  144.9310   71.7000  219.8190 C   0  0  0  0  0  0  0  0  0  0  0  0
  145.9580   72.5870  220.0480 C   0  0  0  0  0  0  0  0  0  0  0  0
  145.6160   73.8230  220.5540 C   0  0  0  0  0  0  0  0  0  0  0  0
  144.2900   74.1350  220.8110 C   0  0  0  0  0  0  0  0  0  0  0  0
  139.9190   71.0760  223.9490 C   0  0  0  0  0  0  0  0  0  0  0  0
  140.6710   71.8780  224.7790 C   0  0  0  0  0  0  0  0  0  0  0  0
  141.0070   71.4330  226.0510 C   0  0  0  0  0  0  0  0  0  0  0  0
  140.5820   70.1770  226.4840 C   0  0  0  0  0  0  0  0  0  0  0  0
  140.8930   69.7000  227.7350 C   0  0  0  0  0  0  0  0  0  0  0  0
  140.4250   68.4410  228.0710 C   0  0  0  0  0  0  0  0  0  0  0  0
  140.6980   67.9110  229.2930 F   0  0  0  0  0  0  0  0  0  0  0  0
  139.6790   67.6840  227.2040 C   0  0  0  0  0  0  0  0  0  0  0  0
  139.3660   68.1620  225.9480 C   0  0  0  0  0  0  0  0  0  0  0  0
  139.8250   69.4110  225.6010 C   0  0  0  0  0  0  0  0  0  0  0  0
  139.5100   69.8620  224.3720 N   0  0  0  0  0  0  0  0  0  0  0  0
  138.1630   72.9280  223.3700 H   0  0  0  0  0  0  0  0  0  0  0  0
  137.4283   72.4863  220.8115 H   0  0  0  0  0  0  0  0  0  0  0  0
  137.8954   74.1900  221.5513 H   0  0  0  0  0  0  0  0  0  0  0  0
  139.9439   75.4136  217.6549 H   0  0  0  0  0  0  0  0  0  0  0  0
  138.3551   74.6445  217.8579 H   0  0  0  0  0  0  0  0  0  0  0  0
  138.0453   77.0834  217.8198 H   0  0  0  0  0  0  0  0  0  0  0  0
  137.7300   76.5401  219.4691 H   0  0  0  0  0  0  0  0  0  0  0  0
  140.5151   77.4316  218.4419 H   0  0  0  0  0  0  0  0  0  0  0  0
  139.4089   78.5189  219.3135 H   0  0  0  0  0  0  0  0  0  0  0  0
  141.0024   77.4664  220.9130 H   0  0  0  0  0  0  0  0  0  0  0  0
  139.3497   76.8612  221.2343 H   0  0  0  0  0  0  0  0  0  0  0  0
  141.4684   75.5545  219.5328 H   0  0  0  0  0  0  0  0  0  0  0  0
  142.1968   75.4332  221.6931 H   0  0  0  0  0  0  0  0  0  0  0  0
  140.6808   74.6191  222.1959 H   0  0  0  0  0  0  0  0  0  0  0  0
  141.1920   72.7550  220.7210 H   0  0  0  0  0  0  0  0  0  0  0  0
  142.8360   71.2650  219.8747 H   0  0  0  0  0  0  0  0  0  0  0  0
  145.1699   70.7048  219.4159 H   0  0  0  0  0  0  0  0  0  0  0  0
  147.0045   72.3218  219.8369 H   0  0  0  0  0  0  0  0  0  0  0  0
  146.4009   74.5669  220.7552 H   0  0  0  0  0  0  0  0  0  0  0  0
  144.0576   75.1318  221.2139 H   0  0  0  0  0  0  0  0  0  0  0  0
  141.0045   72.8683  224.4352 H   0  0  0  0  0  0  0  0  0  0  0  0
  141.6077   72.0705  226.7164 H   0  0  0  0  0  0  0  0  0  0  0  0
  141.4903   70.2951  228.4415 H   0  0  0  0  0  0  0  0  0  0  0  0
  139.3276   66.6883  227.5123 H   0  0  0  0  0  0  0  0  0  0  0  0
  138.7678   67.5625  225.2460 H   0  0  0  0  0  0  0  0  0  0  0  0
  1  2  2  0
  2  3  1  0
  3  4  1  0
  4  5  1  0
  5  6  2  0
  5  7  1  0
  7  8  1  0
  8  9  1  0
  9 10  1  0
 10 11  1  0
 11 12  1  0
 12 13  1  0
 13 14  1  0
 14 15  1  0
 15 16  2  0
 16 17  1  0
 17 18  2  0
 18 19  1  0
 19 20  2  0
  2 21  1  0
 21 22  2  0
 22 23  1  0
 23 24  2  0
 24 25  1  0
 25 26  2  0
 26 27  1  0
 26 28  1  0
 28 29  2  0
 29 30  1  0
 30 31  2  0
 12  7  1  0
 20 15  1  0
 31 21  1  0
 30 24  1  0
  3 32  1  0
  4 33  1  0
  4 34  1  0
  8 35  1  0
  8 36  1  0
  9 37  1  0
  9 38  1  0
 10 39  1  0
 10 40  1  0
 11 41  1  0
 11 42  1  0
 12 43  1  6
 13 44  1  0
 13 45  1  0
 14 46  1  0
 16 47  1  0
 17 48  1  0
 18 49  1  0
 19 50  1  0
 20 51  1  0
 22 52  1  0
 23 53  1  0
 25 54  1  0
 28 55  1  0
 29 56  1  0
M  END
>  <smiles>  (33) 
O=C(NCC(=O)N1CCCC[C@H]1CNc1ccccc1)c1ccc2cc(F)ccc2n1

>  <score_type>  (33) 
oracle

>  <origin>  (33) 
autodockgpu

>  <m_score__min__energy>  (33) 
-9.0999999999999996

>  <m_primary>  (33) 
energy

>  <rmsd>  (33) 
4.887570678244595

>  <m_score__min__rmsd>  (33) 
4.887570678244595

>  <meeko>  (33) 
{"free_energy": -6.82, "intermolecular_energy": -8.91, "internal_energy": -2.93, "cluster_size": 7, "cluster_id": 2, "rank_in_cluster": 7}

>  <energy>  (33) 
-7.91

>  <cluster_rmsd>  (33) 
1.46

>  <cluster>  (33) 
1

$$$$

     RDKit          3D

 56 59  0  0  0  0  0  0  0  0999 V2000
  138.9580   72.4790  221.2650 O   0  0  0  0  0  0  0  0  0  0  0  0
  139.9590   72.3060  222.0000 C   0  0  0  0  0  0  0  0  0  0  0  0
  141.2410   72.8430  221.6090 N   0  0  0  0  0  0  0  0  0  0  0  0
  141.5040   73.5610  220.4320 C   0  0  0  0  0  0  0  0  0  0  0  0
  141.2880   74.9770  220.2820 C   0  0  0  0  0  0  0  0  0  0  0  0
  142.3800   75.6820  220.4640 O   0  0  0  0  0  0  0  0  0  0  0  0
  140.1600   75.7490  219.9760 N   0  0  0  0  0  0  0  0  0  0  0  0
  139.7110   76.0370  218.5990 C   0  0  0  0  0  0  0  0  0  0  0  0
  138.3430   75.4360  218.4550 C   0  0  0  0  0  0  0  0  0  0  0  0
  137.4460   76.2540  219.3940 C   0  0  0  0  0  0  0  0  0  0  0  0
  137.8830   75.9370  220.8240 C   0  0  0  0  0  0  0  0  0  0  0  0
  139.2980   76.3820  220.9960 C   0  0  1  0  0  0  0  0  0  0  0  0
  139.8340   76.3920  222.3740 C   0  0  0  0  0  0  0  0  0  0  0  0
  141.0770   77.1830  222.4000 N   0  0  0  0  0  0  0  0  0  0  0  0
  141.1550   78.5280  222.8000 C   0  0  0  0  0  0  0  0  0  0  0  0
  142.4190   79.1050  222.9790 C   0  0  0  0  0  0  0  0  0  0  0  0
  142.5590   80.4060  223.4020 C   0  0  0  0  0  0  0  0  0  0  0  0
  141.4780   81.2130  223.6740 C   0  0  0  0  0  0  0  0  0  0  0  0
  140.2270   80.6600  223.5030 C   0  0  0  0  0  0  0  0  0  0  0  0
  140.0890   79.3480  223.0760 C   0  0  0  0  0  0  0  0  0  0  0  0
  139.8260   71.5540  223.2660 C   0  0  0  0  0  0  0  0  0  0  0  0
  138.9500   70.4920  223.3140 C   0  0  0  0  0  0  0  0  0  0  0  0
  138.8060   69.7680  224.4910 C   0  0  0  0  0  0  0  0  0  0  0  0
  139.5470   70.1190  225.6190 C   0  0  0  0  0  0  0  0  0  0  0  0
  139.4340   69.4290  226.8020 C   0  0  0  0  0  0  0  0  0  0  0  0
  140.2130   69.8560  227.8650 C   0  0  0  0  0  0  0  0  0  0  0  0
  140.1480   69.2160  229.0630 F   0  0  0  0  0  0  0  0  0  0  0  0
  141.0700   70.9220  227.7610 C   0  0  0  0  0  0  0  0  0  0  0  0
  141.1840   71.6160  226.5730 C   0  0  0  0  0  0  0  0  0  0  0  0
  140.4160   71.2030  225.5100 C   0  0  0  0  0  0  0  0  0  0  0  0
  140.5410   71.8900  224.3580 N   0  0  0  0  0  0  0  0  0  0  0  0
  142.0100   72.6400  222.3190 H   0  0  0  0  0  0  0  0  0  0  0  0
  142.5705   73.3987  220.2170 H   0  0  0  0  0  0  0  0  0  0  0  0
  140.7241   73.1612  219.7672 H   0  0  0  0  0  0  0  0  0  0  0  0
  139.6665   77.1237  218.4345 H   0  0  0  0  0  0  0  0  0  0  0  0
  140.4077   75.6147  217.8599 H   0  0  0  0  0  0  0  0  0  0  0  0
  137.9920   75.5194  217.4159 H   0  0  0  0  0  0  0  0  0  0  0  0
  138.3348   74.3651  218.7064 H   0  0  0  0  0  0  0  0  0  0  0  0
  137.5685   77.3283  219.1916 H   0  0  0  0  0  0  0  0  0  0  0  0
  136.3866   75.9991  219.2432 H   0  0  0  0  0  0  0  0  0  0  0  0
  137.2368   76.4707  221.5365 H   0  0  0  0  0  0  0  0  0  0  0  0
  137.8019   74.8563  221.0124 H   0  0  0  0  0  0  0  0  0  0  0  0
  139.3007   77.4654  220.8054 H   0  0  0  0  0  0  0  0  0  0  0  0
  139.0958   76.8428  223.0535 H   0  0  0  0  0  0  0  0  0  0  0  0
  140.0423   75.3620  222.6990 H   0  0  0  0  0  0  0  0  0  0  0  0
  141.9410   76.6830  222.0950 H   0  0  0  0  0  0  0  0  0  0  0  0
  143.3184   78.5048  222.7770 H   0  0  0  0  0  0  0  0  0  0  0  0
  143.5718   80.8165  223.5275 H   0  0  0  0  0  0  0  0  0  0  0  0
  141.6064   82.2518  224.0124 H   0  0  0  0  0  0  0  0  0  0  0  0
  139.3309   81.2644  223.7070 H   0  0  0  0  0  0  0  0  0  0  0  0
  139.0736   78.9435  222.9521 H   0  0  0  0  0  0  0  0  0  0  0  0
  138.3661   70.2179  222.4229 H   0  0  0  0  0  0  0  0  0  0  0  0
  138.1082   68.9187  224.5331 H   0  0  0  0  0  0  0  0  0  0  0  0
  138.7520   68.5716  226.9010 H   0  0  0  0  0  0  0  0  0  0  0  0
  141.6709   71.2262  228.6307 H   0  0  0  0  0  0  0  0  0  0  0  0
  141.8679   72.4725  226.4798 H   0  0  0  0  0  0  0  0  0  0  0  0
  1  2  2  0
  2  3  1  0
  3  4  1  0
  4  5  1  0
  5  6  2  0
  5  7  1  0
  7  8  1  0
  8  9  1  0
  9 10  1  0
 10 11  1  0
 11 12  1  0
 12 13  1  0
 13 14  1  0
 14 15  1  0
 15 16  2  0
 16 17  1  0
 17 18  2  0
 18 19  1  0
 19 20  2  0
  2 21  1  0
 21 22  2  0
 22 23  1  0
 23 24  2  0
 24 25  1  0
 25 26  2  0
 26 27  1  0
 26 28  1  0
 28 29  2  0
 29 30  1  0
 30 31  2  0
 12  7  1  0
 20 15  1  0
 31 21  1  0
 30 24  1  0
  3 32  1  0
  4 33  1  0
  4 34  1  0
  8 35  1  0
  8 36  1  0
  9 37  1  0
  9 38  1  0
 10 39  1  0
 10 40  1  0
 11 41  1  0
 11 42  1  0
 12 43  1  6
 13 44  1  0
 13 45  1  0
 14 46  1  0
 16 47  1  0
 17 48  1  0
 18 49  1  0
 19 50  1  0
 20 51  1  0
 22 52  1  0
 23 53  1  0
 25 54  1  0
 28 55  1  0
 29 56  1  0
M  END
>  <smiles>  (34) 
O=C(NCC(=O)N1CCCC[C@H]1CNc1ccccc1)c1ccc2cc(F)ccc2n1

>  <score_type>  (34) 
oracle

>  <origin>  (34) 
autodockgpu

>  <m_score__min__energy>  (34) 
-9.0999999999999996

>  <m_primary>  (34) 
energy

>  <rmsd>  (34) 
2.6552830889040906

>  <m_score__min__rmsd>  (34) 
2.6552830889040906

>  <meeko>  (34) 
{"free_energy": -7.58, "intermolecular_energy": -9.67, "internal_energy": -2.53, "cluster_size": 38, "cluster_id": 1, "rank_in_cluster": 37}

>  <energy>  (34) 
-7.83

>  <cluster_rmsd>  (34) 
1.99

>  <cluster>  (34) 
1

$$$$

     RDKit          3D

 56 59  0  0  0  0  0  0  0  0999 V2000
  140.6440   74.0190  222.3390 O   0  0  0  0  0  0  0  0  0  0  0  0
  140.1990   72.8590  222.1660 C   0  0  0  0  0  0  0  0  0  0  0  0
  139.7780   72.4390  220.8500 N   0  0  0  0  0  0  0  0  0  0  0  0
  139.8040   73.2280  219.6910 C   0  0  0  0  0  0  0  0  0  0  0  0
  139.0390   74.4350  219.5150 C   0  0  0  0  0  0  0  0  0  0  0  0
  139.0390   74.8630  218.2730 O   0  0  0  0  0  0  0  0  0  0  0  0
  138.2940   75.2360  220.3900 N   0  0  0  0  0  0  0  0  0  0  0  0
  136.8600   75.0290  220.6730 C   0  0  0  0  0  0  0  0  0  0  0  0
  136.7480   74.7250  222.1400 C   0  0  0  0  0  0  0  0  0  0  0  0
  137.1570   76.0230  222.8490 C   0  0  0  0  0  0  0  0  0  0  0  0
  138.6490   76.2290  222.5870 C   0  0  0  0  0  0  0  0  0  0  0  0
  138.8520   76.3950  221.1170 C   0  0  1  0  0  0  0  0  0  0  0  0
  140.1880   76.8500  220.6730 C   0  0  0  0  0  0  0  0  0  0  0  0
  141.0610   76.9970  221.8520 N   0  0  0  0  0  0  0  0  0  0  0  0
  141.4600   78.2300  222.3950 C   0  0  0  0  0  0  0  0  0  0  0  0
  141.7300   79.2940  221.5230 C   0  0  0  0  0  0  0  0  0  0  0  0
  142.1580   80.5140  221.9920 C   0  0  0  0  0  0  0  0  0  0  0  0
  142.3460   80.7630  223.3320 C   0  0  0  0  0  0  0  0  0  0  0  0
  142.0870   79.7260  224.2040 C   0  0  0  0  0  0  0  0  0  0  0  0
  141.6550   78.4980  223.7270 C   0  0  0  0  0  0  0  0  0  0  0  0
  140.1060   71.9250  223.3080 C   0  0  0  0  0  0  0  0  0  0  0  0
  139.4640   70.7210  223.1260 C   0  0  0  0  0  0  0  0  0  0  0  0
  139.3620   69.8250  224.1820 C   0  0  0  0  0  0  0  0  0  0  0  0
  139.9120   70.1480  225.4230 C   0  0  0  0  0  0  0  0  0  0  0  0
  139.8330   69.2890  226.4940 C   0  0  0  0  0  0  0  0  0  0  0  0
  140.4090   69.7010  227.6840 C   0  0  0  0  0  0  0  0  0  0  0  0
  140.3670   68.8990  228.7810 F   0  0  0  0  0  0  0  0  0  0  0  0
  141.0390   70.9140  227.8090 C   0  0  0  0  0  0  0  0  0  0  0  0
  141.1180   71.7770  226.7350 C   0  0  0  0  0  0  0  0  0  0  0  0
  140.5490   71.3800  225.5470 C   0  0  0  0  0  0  0  0  0  0  0  0
  140.6360   72.2330  224.5090 N   0  0  0  0  0  0  0  0  0  0  0  0
  139.4300   71.4310  220.8280 H   0  0  0  0  0  0  0  0  0  0  0  0
  140.8556   73.5204  219.5544 H   0  0  0  0  0  0  0  0  0  0  0  0
  139.3028   72.5598  218.9752 H   0  0  0  0  0  0  0  0  0  0  0  0
  136.2907   75.9383  220.4299 H   0  0  0  0  0  0  0  0  0  0  0  0
  136.4521   74.2068  220.0667 H   0  0  0  0  0  0  0  0  0  0  0  0
  135.7147   74.4519  222.4001 H   0  0  0  0  0  0  0  0  0  0  0  0
  137.3827   73.8764  222.4349 H   0  0  0  0  0  0  0  0  0  0  0  0
  136.5828   76.8701  222.4456 H   0  0  0  0  0  0  0  0  0  0  0  0
  136.9547   75.9594  223.9284 H   0  0  0  0  0  0  0  0  0  0  0  0
  138.9977   77.1294  223.1140 H   0  0  0  0  0  0  0  0  0  0  0  0
  139.2195   75.3619  222.9513 H   0  0  0  0  0  0  0  0  0  0  0  0
  138.2661   77.2798  220.8276 H   0  0  0  0  0  0  0  0  0  0  0  0
  140.6200   76.1090  219.9843 H   0  0  0  0  0  0  0  0  0  0  0  0
  140.0984   77.8157  220.1541 H   0  0  0  0  0  0  0  0  0  0  0  0
  141.3880   76.1080  222.2890 H   0  0  0  0  0  0  0  0  0  0  0  0
  141.5967   79.1500  220.4406 H   0  0  0  0  0  0  0  0  0  0  0  0
  142.3572   81.3195  221.2699 H   0  0  0  0  0  0  0  0  0  0  0  0
  142.6874   81.7448  223.6918 H   0  0  0  0  0  0  0  0  0  0  0  0
  142.2242   79.8744  225.2853 H   0  0  0  0  0  0  0  0  0  0  0  0
  141.4582   77.6964  224.4541 H   0  0  0  0  0  0  0  0  0  0  0  0
  139.0326   70.4691  222.1460 H   0  0  0  0  0  0  0  0  0  0  0  0
  138.8486   68.8625  224.0404 H   0  0  0  0  0  0  0  0  0  0  0  0
  139.3321   68.3134  226.4088 H   0  0  0  0  0  0  0  0  0  0  0  0
  141.4845   71.2006  228.7730 H   0  0  0  0  0  0  0  0  0  0  0  0
  141.6200   72.7515  226.8259 H   0  0  0  0  0  0  0  0  0  0  0  0
  1  2  2  0
  2  3  1  0
  3  4  1  0
  4  5  1  0
  5  6  2  0
  5  7  1  0
  7  8  1  0
  8  9  1  0
  9 10  1  0
 10 11  1  0
 11 12  1  0
 12 13  1  0
 13 14  1  0
 14 15  1  0
 15 16  2  0
 16 17  1  0
 17 18  2  0
 18 19  1  0
 19 20  2  0
  2 21  1  0
 21 22  2  0
 22 23  1  0
 23 24  2  0
 24 25  1  0
 25 26  2  0
 26 27  1  0
 26 28  1  0
 28 29  2  0
 29 30  1  0
 30 31  2  0
 12  7  1  0
 20 15  1  0
 31 21  1  0
 30 24  1  0
  3 32  1  0
  4 33  1  0
  4 34  1  0
  8 35  1  0
  8 36  1  0
  9 37  1  0
  9 38  1  0
 10 39  1  0
 10 40  1  0
 11 41  1  0
 11 42  1  0
 12 43  1  6
 13 44  1  0
 13 45  1  0
 14 46  1  0
 16 47  1  0
 17 48  1  0
 18 49  1  0
 19 50  1  0
 20 51  1  0
 22 52  1  0
 23 53  1  0
 25 54  1  0
 28 55  1  0
 29 56  1  0
M  END
>  <smiles>  (35) 
O=C(NCC(=O)N1CCCC[C@H]1CNc1ccccc1)c1ccc2cc(F)ccc2n1

>  <score_type>  (35) 
oracle

>  <origin>  (35) 
autodockgpu

>  <m_score__min__energy>  (35) 
-9.0999999999999996

>  <m_primary>  (35) 
energy

>  <rmsd>  (35) 
3.135803059752909

>  <m_score__min__rmsd>  (35) 
3.135803059752909

>  <meeko>  (35) 
{"free_energy": -7.83, "intermolecular_energy": -9.92, "internal_energy": -2.47, "cluster_size": 38, "cluster_id": 1, "rank_in_cluster": 34}

>  <energy>  (35) 
-7.83

>  <cluster_rmsd>  (35) 
1.44

>  <cluster>  (35) 
1

$$$$

     RDKit          3D

 56 59  0  0  0  0  0  0  0  0999 V2000
  141.3250   72.7520  221.9190 O   0  0  0  0  0  0  0  0  0  0  0  0
  140.2770   72.6630  222.6020 C   0  0  0  0  0  0  0  0  0  0  0  0
  139.1700   73.5540  222.3440 N   0  0  0  0  0  0  0  0  0  0  0  0
  139.1440   74.5660  221.3720 C   0  0  0  0  0  0  0  0  0  0  0  0
  140.0680   75.6680  221.3240 C   0  0  0  0  0  0  0  0  0  0  0  0
  140.7980   75.7710  222.4110 O   0  0  0  0  0  0  0  0  0  0  0  0
  140.3530   76.6420  220.3580 N   0  0  0  0  0  0  0  0  0  0  0  0
  139.6030   77.9060  220.2200 C   0  0  0  0  0  0  0  0  0  0  0  0
  140.5800   79.0190  220.4690 C   0  0  0  0  0  0  0  0  0  0  0  0
  141.5650   78.9570  219.2920 C   0  0  0  0  0  0  0  0  0  0  0  0
  142.3680   77.6650  219.4450 C   0  0  0  0  0  0  0  0  0  0  0  0
  141.4280   76.5100  219.3520 C   0  0  1  0  0  0  0  0  0  0  0  0
  142.0310   75.1650  219.2290 C   0  0  0  0  0  0  0  0  0  0  0  0
  142.8890   74.9140  220.4000 N   0  0  0  0  0  0  0  0  0  0  0  0
  144.0490   74.1220  220.3800 C   0  0  0  0  0  0  0  0  0  0  0  0
  143.9600   72.8100  219.8930 C   0  0  0  0  0  0  0  0  0  0  0  0
  145.0520   71.9750  219.8800 C   0  0  0  0  0  0  0  0  0  0  0  0
  146.2880   72.3710  220.3390 C   0  0  0  0  0  0  0  0  0  0  0  0
  146.3930   73.6580  220.8220 C   0  0  0  0  0  0  0  0  0  0  0  0
  145.2880   74.4970  220.8340 C   0  0  0  0  0  0  0  0  0  0  0  0
  140.1750   71.6450  223.6690 C   0  0  0  0  0  0  0  0  0  0  0  0
  139.5690   70.4420  223.3810 C   0  0  0  0  0  0  0  0  0  0  0  0
  139.4600   69.4690  224.3660 C   0  0  0  0  0  0  0  0  0  0  0  0
  139.9650   69.7130  225.6430 C   0  0  0  0  0  0  0  0  0  0  0  0
  139.8780   68.7770  226.6450 C   0  0  0  0  0  0  0  0  0  0  0  0
  140.4100   69.1140  227.8800 C   0  0  0  0  0  0  0  0  0  0  0  0
  140.3560   68.2320  228.9130 F   0  0  0  0  0  0  0  0  0  0  0  0
  141.0040   70.3280  228.1120 C   0  0  0  0  0  0  0  0  0  0  0  0
  141.0910   71.2690  227.1060 C   0  0  0  0  0  0  0  0  0  0  0  0
  140.5670   70.9470  225.8750 C   0  0  0  0  0  0  0  0  0  0  0  0
  140.6620   71.8770  224.9050 N   0  0  0  0  0  0  0  0  0  0  0  0
  138.3340   73.3730  222.9800 H   0  0  0  0  0  0  0  0  0  0  0  0
  139.2455   74.0514  220.4051 H   0  0  0  0  0  0  0  0  0  0  0  0
  138.2146   75.0882  221.6433 H   0  0  0  0  0  0  0  0  0  0  0  0
  139.1843   77.9893  219.2062 H   0  0  0  0  0  0  0  0  0  0  0  0
  138.7660   77.9484  220.9325 H   0  0  0  0  0  0  0  0  0  0  0  0
  140.0628   79.9896  220.4891 H   0  0  0  0  0  0  0  0  0  0  0  0
  141.0887   78.9119  221.4384 H   0  0  0  0  0  0  0  0  0  0  0  0
  141.0147   78.9486  218.3396 H   0  0  0  0  0  0  0  0  0  0  0  0
  142.2299   79.8333  219.2915 H   0  0  0  0  0  0  0  0  0  0  0  0
  143.1190   77.5977  218.6441 H   0  0  0  0  0  0  0  0  0  0  0  0
  142.8835   77.6543  220.4167 H   0  0  0  0  0  0  0  0  0  0  0  0
  140.9606   76.5792  218.3587 H   0  0  0  0  0  0  0  0  0  0  0  0
  141.2352   74.4068  219.1858 H   0  0  0  0  0  0  0  0  0  0  0  0
  142.6325   75.1105  218.3096 H   0  0  0  0  0  0  0  0  0  0  0  0
  142.5870   75.3690  221.2900 H   0  0  0  0  0  0  0  0  0  0  0  0
  142.9958   72.4411  219.5133 H   0  0  0  0  0  0  0  0  0  0  0  0
  144.9339   70.9537  219.4888 H   0  0  0  0  0  0  0  0  0  0  0  0
  147.1527   71.6913  220.3212 H   0  0  0  0  0  0  0  0  0  0  0  0
  147.3595   74.0222  221.2005 H   0  0  0  0  0  0  0  0  0  0  0  0
  145.4120   75.5164  221.2283 H   0  0  0  0  0  0  0  0  0  0  0  0
  139.1721   70.2523  222.3728 H   0  0  0  0  0  0  0  0  0  0  0  0
  138.9762   68.5075  224.1394 H   0  0  0  0  0  0  0  0  0  0  0  0
  139.4049   67.7988  226.4740 H   0  0  0  0  0  0  0  0  0  0  0  0
  141.4142   70.5536  229.1074 H   0  0  0  0  0  0  0  0  0  0  0  0
  141.5645   72.2460  227.2828 H   0  0  0  0  0  0  0  0  0  0  0  0
  1  2  2  0
  2  3  1  0
  3  4  1  0
  4  5  1  0
  5  6  2  0
  5  7  1  0
  7  8  1  0
  8  9  1  0
  9 10  1  0
 10 11  1  0
 11 12  1  0
 12 13  1  0
 13 14  1  0
 14 15  1  0
 15 16  2  0
 16 17  1  0
 17 18  2  0
 18 19  1  0
 19 20  2  0
  2 21  1  0
 21 22  2  0
 22 23  1  0
 23 24  2  0
 24 25  1  0
 25 26  2  0
 26 27  1  0
 26 28  1  0
 28 29  2  0
 29 30  1  0
 30 31  2  0
 12  7  1  0
 20 15  1  0
 31 21  1  0
 30 24  1  0
  3 32  1  0
  4 33  1  0
  4 34  1  0
  8 35  1  0
  8 36  1  0
  9 37  1  0
  9 38  1  0
 10 39  1  0
 10 40  1  0
 11 41  1  0
 11 42  1  0
 12 43  1  6
 13 44  1  0
 13 45  1  0
 14 46  1  0
 16 47  1  0
 17 48  1  0
 18 49  1  0
 19 50  1  0
 20 51  1  0
 22 52  1  0
 23 53  1  0
 25 54  1  0
 28 55  1  0
 29 56  1  0
M  END
>  <smiles>  (36) 
O=C(NCC(=O)N1CCCC[C@H]1CNc1ccccc1)c1ccc2cc(F)ccc2n1

>  <score_type>  (36) 
oracle

>  <origin>  (36) 
autodockgpu

>  <m_score__min__energy>  (36) 
-9.0999999999999996

>  <m_primary>  (36) 
energy

>  <rmsd>  (36) 
4.660285172326277

>  <m_score__min__rmsd>  (36) 
4.660285172326277

>  <meeko>  (36) 
{"free_energy": -8.71, "intermolecular_energy": -10.79, "internal_energy": -2.39, "cluster_size": 7, "cluster_id": 2, "rank_in_cluster": 2}

>  <energy>  (36) 
-7.62

>  <cluster_rmsd>  (36) 
1.51

>  <cluster>  (36) 
1

$$$$

     RDKit          3D

 56 59  0  0  0  0  0  0  0  0999 V2000
  139.5890   73.5610  222.3800 O   0  0  0  0  0  0  0  0  0  0  0  0
  139.8780   72.3480  222.2430 C   0  0  0  0  0  0  0  0  0  0  0  0
  140.1720   71.8210  220.9300 N   0  0  0  0  0  0  0  0  0  0  0  0
  140.1580   72.5520  219.7330 C   0  0  0  0  0  0  0  0  0  0  0  0
  140.2700   73.9850  219.6570 C   0  0  0  0  0  0  0  0  0  0  0  0
  139.1270   74.5990  219.8590 O   0  0  0  0  0  0  0  0  0  0  0  0
  141.3440   74.8540  219.4210 N   0  0  0  0  0  0  0  0  0  0  0  0
  142.0570   74.9470  218.1310 C   0  0  0  0  0  0  0  0  0  0  0  0
  141.8580   76.3480  217.6270 C   0  0  0  0  0  0  0  0  0  0  0  0
  142.6170   77.2410  218.6190 C   0  0  0  0  0  0  0  0  0  0  0  0
  141.8670   77.1740  219.9490 C   0  0  0  0  0  0  0  0  0  0  0  0
  141.9000   75.7660  220.4420 C   0  0  1  0  0  0  0  0  0  0  0  0
  141.4460   75.5310  221.8290 C   0  0  0  0  0  0  0  0  0  0  0  0
  140.1440   76.1930  222.0280 N   0  0  0  0  0  0  0  0  0  0  0  0
  139.9830   77.4860  222.5530 C   0  0  0  0  0  0  0  0  0  0  0  0
  141.1020   78.1390  223.0910 C   0  0  0  0  0  0  0  0  0  0  0  0
  141.0010   79.3900  223.6510 C   0  0  0  0  0  0  0  0  0  0  0  0
  139.8080   80.0730  223.7180 C   0  0  0  0  0  0  0  0  0  0  0  0
  138.6970   79.4450  223.1950 C   0  0  0  0  0  0  0  0  0  0  0  0
  138.8030   78.1830  222.6310 C   0  0  0  0  0  0  0  0  0  0  0  0
  139.9160   71.4590  223.4240 C   0  0  0  0  0  0  0  0  0  0  0  0
  139.4040   70.1860  223.3090 C   0  0  0  0  0  0  0  0  0  0  0  0
  139.4270   69.3300  224.4040 C   0  0  0  0  0  0  0  0  0  0  0  0
  139.9700   69.7640  225.6130 C   0  0  0  0  0  0  0  0  0  0  0  0
  140.0130   68.9490  226.7190 C   0  0  0  0  0  0  0  0  0  0  0  0
  140.5720   69.4720  227.8740 C   0  0  0  0  0  0  0  0  0  0  0  0
  140.6440   68.7180  229.0030 F   0  0  0  0  0  0  0  0  0  0  0  0
  141.0680   70.7490  227.9320 C   0  0  0  0  0  0  0  0  0  0  0  0
  141.0250   71.5680  226.8220 C   0  0  0  0  0  0  0  0  0  0  0  0
  140.4730   71.0610  225.6680 C   0  0  0  0  0  0  0  0  0  0  0  0
  140.4400   71.8740  224.5950 N   0  0  0  0  0  0  0  0  0  0  0  0
  140.4120   70.7830  220.9440 H   0  0  0  0  0  0  0  0  0  0  0  0
  140.9919   72.1569  219.1342 H   0  0  0  0  0  0  0  0  0  0  0  0
  139.1141   72.4098  219.4168 H   0  0  0  0  0  0  0  0  0  0  0  0
  143.1286   74.7446  218.2748 H   0  0  0  0  0  0  0  0  0  0  0  0
  141.6710   74.2096  217.4118 H   0  0  0  0  0  0  0  0  0  0  0  0
  142.2728   76.4566  216.6140 H   0  0  0  0  0  0  0  0  0  0  0  0
  140.7930   76.6157  217.5626 H   0  0  0  0  0  0  0  0  0  0  0  0
  143.6457   76.8731  218.7470 H   0  0  0  0  0  0  0  0  0  0  0  0
  142.6708   78.2764  218.2516 H   0  0  0  0  0  0  0  0  0  0  0  0
  142.3523   77.8351  220.6821 H   0  0  0  0  0  0  0  0  0  0  0  0
  140.8256   77.5001  219.8108 H   0  0  0  0  0  0  0  0  0  0  0  0
  142.9633   75.5137  220.5672 H   0  0  0  0  0  0  0  0  0  0  0  0
  141.3405   74.4502  222.0041 H   0  0  0  0  0  0  0  0  0  0  0  0
  142.1828   75.9416  222.5351 H   0  0  0  0  0  0  0  0  0  0  0  0
  139.3050   75.6390  221.7500 H   0  0  0  0  0  0  0  0  0  0  0  0
  142.0814   77.6389  223.0641 H   0  0  0  0  0  0  0  0  0  0  0  0
  141.9062   79.8624  224.0604 H   0  0  0  0  0  0  0  0  0  0  0  0
  139.7435   81.0745  224.1683 H   0  0  0  0  0  0  0  0  0  0  0  0
  137.7198   79.9491  223.2256 H   0  0  0  0  0  0  0  0  0  0  0  0
  137.8938   77.7157  222.2247 H   0  0  0  0  0  0  0  0  0  0  0  0
  138.9779   69.8473  222.3531 H   0  0  0  0  0  0  0  0  0  0  0  0
  139.0178   68.3126  224.3171 H   0  0  0  0  0  0  0  0  0  0  0  0
  139.6193   67.9223  226.6884 H   0  0  0  0  0  0  0  0  0  0  0  0
  141.5034   71.1235  228.8702 H   0  0  0  0  0  0  0  0  0  0  0  0
  141.4197   72.5941  226.8587 H   0  0  0  0  0  0  0  0  0  0  0  0
  1  2  2  0
  2  3  1  0
  3  4  1  0
  4  5  1  0
  5  6  2  0
  5  7  1  0
  7  8  1  0
  8  9  1  0
  9 10  1  0
 10 11  1  0
 11 12  1  0
 12 13  1  0
 13 14  1  0
 14 15  1  0
 15 16  2  0
 16 17  1  0
 17 18  2  0
 18 19  1  0
 19 20  2  0
  2 21  1  0
 21 22  2  0
 22 23  1  0
 23 24  2  0
 24 25  1  0
 25 26  2  0
 26 27  1  0
 26 28  1  0
 28 29  2  0
 29 30  1  0
 30 31  2  0
 12  7  1  0
 20 15  1  0
 31 21  1  0
 30 24  1  0
  3 32  1  0
  4 33  1  0
  4 34  1  0
  8 35  1  0
  8 36  1  0
  9 37  1  0
  9 38  1  0
 10 39  1  0
 10 40  1  0
 11 41  1  0
 11 42  1  0
 12 43  1  1
 13 44  1  0
 13 45  1  0
 14 46  1  0
 16 47  1  0
 17 48  1  0
 18 49  1  0
 19 50  1  0
 20 51  1  0
 22 52  1  0
 23 53  1  0
 25 54  1  0
 28 55  1  0
 29 56  1  0
M  END
>  <smiles>  (37) 
O=C(NCC(=O)N1CCCC[C@H]1CNc1ccccc1)c1ccc2cc(F)ccc2n1

>  <score_type>  (37) 
oracle

>  <origin>  (37) 
autodockgpu

>  <m_score__min__energy>  (37) 
-9.0999999999999996

>  <m_primary>  (37) 
energy

>  <rmsd>  (37) 
2.6151330140368376

>  <m_score__min__rmsd>  (37) 
2.6151330140368376

>  <meeko>  (37) 
{"free_energy": -7.38, "intermolecular_energy": -9.47, "internal_energy": -2.75, "cluster_size": 38, "cluster_id": 1, "rank_in_cluster": 38}

>  <energy>  (37) 
-7.58

>  <cluster_rmsd>  (37) 
1.78

>  <cluster>  (37) 
1

$$$$

     RDKit          3D

 56 59  0  0  0  0  0  0  0  0999 V2000
  141.3780   72.3470  221.8860 O   0  0  0  0  0  0  0  0  0  0  0  0
  140.3520   72.3770  222.6070 C   0  0  0  0  0  0  0  0  0  0  0  0
  139.3200   73.3550  222.3520 N   0  0  0  0  0  0  0  0  0  0  0  0
  139.3460   74.3290  221.3420 C   0  0  0  0  0  0  0  0  0  0  0  0
  140.1870   75.4970  221.3660 C   0  0  0  0  0  0  0  0  0  0  0  0
  141.1800   75.3950  222.2190 O   0  0  0  0  0  0  0  0  0  0  0  0
  140.1670   76.7100  220.6640 N   0  0  0  0  0  0  0  0  0  0  0  0
  139.1600   77.7670  220.8790 C   0  0  0  0  0  0  0  0  0  0  0  0
  139.9030   78.9820  221.3570 C   0  0  0  0  0  0  0  0  0  0  0  0
  140.7590   79.4220  220.1610 C   0  0  0  0  0  0  0  0  0  0  0  0
  141.8250   78.3470  219.9500 C   0  0  0  0  0  0  0  0  0  0  0  0
  141.1420   77.0630  219.6110 C   0  0  1  0  0  0  0  0  0  0  0  0
  141.9970   75.9570  219.1280 C   0  0  0  0  0  0  0  0  0  0  0  0
  142.8870   75.5260  220.2210 N   0  0  0  0  0  0  0  0  0  0  0  0
  143.7280   74.4030  220.1630 C   0  0  0  0  0  0  0  0  0  0  0  0
  145.0610   74.5380  220.5780 C   0  0  0  0  0  0  0  0  0  0  0  0
  145.9420   73.4840  220.5120 C   0  0  0  0  0  0  0  0  0  0  0  0
  145.5740   72.2450  220.0400 C   0  0  0  0  0  0  0  0  0  0  0  0
  144.2680   72.0950  219.6270 C   0  0  0  0  0  0  0  0  0  0  0  0
  143.3820   73.1600  219.6950 C   0  0  0  0  0  0  0  0  0  0  0  0
  140.2010   71.4130  223.7170 C   0  0  0  0  0  0  0  0  0  0  0  0
  139.5600   70.2180  223.4720 C   0  0  0  0  0  0  0  0  0  0  0  0
  139.4040   69.2940  224.4970 C   0  0  0  0  0  0  0  0  0  0  0  0
  139.8980   69.5790  225.7710 C   0  0  0  0  0  0  0  0  0  0  0  0
  139.7660   68.6910  226.8120 C   0  0  0  0  0  0  0  0  0  0  0  0
  140.2890   69.0660  228.0390 C   0  0  0  0  0  0  0  0  0  0  0  0
  140.1910   68.2340  229.1090 F   0  0  0  0  0  0  0  0  0  0  0  0
  140.9190   70.2700  228.2260 C   0  0  0  0  0  0  0  0  0  0  0  0
  141.0530   71.1620  227.1810 C   0  0  0  0  0  0  0  0  0  0  0  0
  140.5370   70.8020  225.9580 C   0  0  0  0  0  0  0  0  0  0  0  0
  140.6770   71.6830  224.9490 N   0  0  0  0  0  0  0  0  0  0  0  0
  138.4960   73.2730  223.0230 H   0  0  0  0  0  0  0  0  0  0  0  0
  139.6088   73.7925  220.4184 H   0  0  0  0  0  0  0  0  0  0  0  0
  138.3535   74.7859  221.4694 H   0  0  0  0  0  0  0  0  0  0  0  0
  138.6368   77.9890  219.9372 H   0  0  0  0  0  0  0  0  0  0  0  0
  138.4057   77.4504  221.6143 H   0  0  0  0  0  0  0  0  0  0  0  0
  139.1993   79.7779  221.6421 H   0  0  0  0  0  0  0  0  0  0  0  0
  140.5147   78.7684  222.2459 H   0  0  0  0  0  0  0  0  0  0  0  0
  140.1321   79.5130  219.2617 H   0  0  0  0  0  0  0  0  0  0  0  0
  141.2232   80.4009  220.3514 H   0  0  0  0  0  0  0  0  0  0  0  0
  142.4913   78.6418  219.1259 H   0  0  0  0  0  0  0  0  0  0  0  0
  142.4240   78.2254  220.8645 H   0  0  0  0  0  0  0  0  0  0  0  0
  140.5759   77.2541  218.6874 H   0  0  0  0  0  0  0  0  0  0  0  0
  141.3655   75.1135  218.8123 H   0  0  0  0  0  0  0  0  0  0  0  0
  142.5979   76.2983  218.2721 H   0  0  0  0  0  0  0  0  0  0  0  0
  142.8670   76.1150  221.0830 H   0  0  0  0  0  0  0  0  0  0  0  0
  145.4091   75.5073  220.9644 H   0  0  0  0  0  0  0  0  0  0  0  0
  146.9780   73.6370  220.8486 H   0  0  0  0  0  0  0  0  0  0  0  0
  146.2904   71.4115  219.9944 H   0  0  0  0  0  0  0  0  0  0  0  0
  143.9256   71.1237  219.2406 H   0  0  0  0  0  0  0  0  0  0  0  0
  142.3478   73.0000  219.3561 H   0  0  0  0  0  0  0  0  0  0  0  0
  139.1726   69.9964  222.4666 H   0  0  0  0  0  0  0  0  0  0  0  0
  138.8922   68.3394  224.3052 H   0  0  0  0  0  0  0  0  0  0  0  0
  139.2650   67.7212  226.6763 H   0  0  0  0  0  0  0  0  0  0  0  0
  141.3209   70.5270  229.2172 H   0  0  0  0  0  0  0  0  0  0  0  0
  141.5564   72.1298  227.3220 H   0  0  0  0  0  0  0  0  0  0  0  0
  1  2  2  0
  2  3  1  0
  3  4  1  0
  4  5  1  0
  5  6  2  0
  5  7  1  0
  7  8  1  0
  8  9  1  0
  9 10  1  0
 10 11  1  0
 11 12  1  0
 12 13  1  0
 13 14  1  0
 14 15  1  0
 15 16  2  0
 16 17  1  0
 17 18  2  0
 18 19  1  0
 19 20  2  0
  2 21  1  0
 21 22  2  0
 22 23  1  0
 23 24  2  0
 24 25  1  0
 25 26  2  0
 26 27  1  0
 26 28  1  0
 28 29  2  0
 29 30  1  0
 30 31  2  0
 12  7  1  0
 20 15  1  0
 31 21  1  0
 30 24  1  0
  3 32  1  0
  4 33  1  0
  4 34  1  0
  8 35  1  0
  8 36  1  0
  9 37  1  0
  9 38  1  0
 10 39  1  0
 10 40  1  0
 11 41  1  0
 11 42  1  0
 12 43  1  6
 13 44  1  0
 13 45  1  0
 14 46  1  0
 16 47  1  0
 17 48  1  0
 18 49  1  0
 19 50  1  0
 20 51  1  0
 22 52  1  0
 23 53  1  0
 25 54  1  0
 28 55  1  0
 29 56  1  0
M  END
>  <smiles>  (38) 
O=C(NCC(=O)N1CCCC[C@H]1CNc1ccccc1)c1ccc2cc(F)ccc2n1

>  <score_type>  (38) 
oracle

>  <origin>  (38) 
autodockgpu

>  <m_score__min__energy>  (38) 
-9.0999999999999996

>  <m_primary>  (38) 
energy

>  <rmsd>  (38) 
4.6499067008090815

>  <m_score__min__rmsd>  (38) 
4.6499067008090815

>  <meeko>  (38) 
{"free_energy": -8.7, "intermolecular_energy": -10.79, "internal_energy": -2.24, "cluster_size": 7, "cluster_id": 2, "rank_in_cluster": 3}

>  <energy>  (38) 
-7.38

>  <cluster_rmsd>  (38) 
1.65

>  <cluster>  (38) 
1

$$$$

     RDKit          3D

 56 59  0  0  0  0  0  0  0  0999 V2000
  140.9880   72.5430  221.8020 O   0  0  0  0  0  0  0  0  0  0  0  0
  139.9890   72.4530  222.5550 C   0  0  0  0  0  0  0  0  0  0  0  0
  138.8400   73.2990  222.3320 N   0  0  0  0  0  0  0  0  0  0  0  0
  138.7190   74.2660  221.3230 C   0  0  0  0  0  0  0  0  0  0  0  0
  139.3690   75.5500  221.3480 C   0  0  0  0  0  0  0  0  0  0  0  0
  138.6200   76.4910  221.8750 O   0  0  0  0  0  0  0  0  0  0  0  0
  140.6310   75.9970  220.9350 N   0  0  0  0  0  0  0  0  0  0  0  0
  141.8870   75.2660  221.1960 C   0  0  0  0  0  0  0  0  0  0  0  0
  142.4650   74.9070  219.8580 C   0  0  0  0  0  0  0  0  0  0  0  0
  142.8570   76.2480  219.2200 C   0  0  0  0  0  0  0  0  0  0  0  0
  141.5600   76.9980  218.9170 C   0  0  0  0  0  0  0  0  0  0  0  0
  140.8540   77.2620  220.2050 C   0  0  1  0  0  0  0  0  0  0  0  0
  139.7030   78.1900  220.1600 C   0  0  0  0  0  0  0  0  0  0  0  0
  139.5190   78.7920  221.4920 N   0  0  0  0  0  0  0  0  0  0  0  0
  140.5190   79.4820  222.1970 C   0  0  0  0  0  0  0  0  0  0  0  0
  141.2260   78.8040  223.2000 C   0  0  0  0  0  0  0  0  0  0  0  0
  142.1920   79.4350  223.9480 C   0  0  0  0  0  0  0  0  0  0  0  0
  142.5220   80.7580  223.7600 C   0  0  0  0  0  0  0  0  0  0  0  0
  141.8350   81.4400  222.7780 C   0  0  0  0  0  0  0  0  0  0  0  0
  140.8610   80.8000  222.0260 C   0  0  0  0  0  0  0  0  0  0  0  0
  139.9890   71.4810  223.6700 C   0  0  0  0  0  0  0  0  0  0  0  0
  139.4630   70.2270  223.4530 C   0  0  0  0  0  0  0  0  0  0  0  0
  139.4500   69.2950  224.4820 C   0  0  0  0  0  0  0  0  0  0  0  0
  139.9700   69.6320  225.7320 C   0  0  0  0  0  0  0  0  0  0  0  0
  139.9770   68.7400  226.7770 C   0  0  0  0  0  0  0  0  0  0  0  0
  140.5150   69.1700  227.9790 C   0  0  0  0  0  0  0  0  0  0  0  0
  140.5520   68.3360  229.0510 F   0  0  0  0  0  0  0  0  0  0  0  0
  141.0260   70.4320  228.1390 C   0  0  0  0  0  0  0  0  0  0  0  0
  141.0200   71.3300  227.0910 C   0  0  0  0  0  0  0  0  0  0  0  0
  140.4880   70.9150  225.8920 C   0  0  0  0  0  0  0  0  0  0  0  0
  140.4910   71.8030  224.8790 N   0  0  0  0  0  0  0  0  0  0  0  0
  138.0530   73.1220  223.0290 H   0  0  0  0  0  0  0  0  0  0  0  0
  139.0640   73.7767  220.4002 H   0  0  0  0  0  0  0  0  0  0  0  0
  137.6679   74.5648  221.4492 H   0  0  0  0  0  0  0  0  0  0  0  0
  142.5885   75.9048  221.7526 H   0  0  0  0  0  0  0  0  0  0  0  0
  141.7019   74.3660  221.8007 H   0  0  0  0  0  0  0  0  0  0  0  0
  143.3490   74.2636  219.9790 H   0  0  0  0  0  0  0  0  0  0  0  0
  141.7503   74.3476  219.2365 H   0  0  0  0  0  0  0  0  0  0  0  0
  143.4759   76.8312  219.9178 H   0  0  0  0  0  0  0  0  0  0  0  0
  143.4408   76.0886  218.3014 H   0  0  0  0  0  0  0  0  0  0  0  0
  141.7902   77.9508  218.4179 H   0  0  0  0  0  0  0  0  0  0  0  0
  140.9220   76.3952  218.2540 H   0  0  0  0  0  0  0  0  0  0  0  0
  141.5416   77.8739  220.8073 H   0  0  0  0  0  0  0  0  0  0  0  0
  139.8964   78.9817  219.4212 H   0  0  0  0  0  0  0  0  0  0  0  0
  138.7944   77.6410  219.8719 H   0  0  0  0  0  0  0  0  0  0  0  0
  138.5710   78.6810  221.9140 H   0  0  0  0  0  0  0  0  0  0  0  0
  141.0031   77.7442  223.3928 H   0  0  0  0  0  0  0  0  0  0  0  0
  142.7200   78.8619  224.7244 H   0  0  0  0  0  0  0  0  0  0  0  0
  143.2983   81.2488  224.3654 H   0  0  0  0  0  0  0  0  0  0  0  0
  142.0612   82.4999  222.5896 H   0  0  0  0  0  0  0  0  0  0  0  0
  140.3354   81.3790  221.2524 H   0  0  0  0  0  0  0  0  0  0  0  0
  139.0539   69.9642  222.4663 H   0  0  0  0  0  0  0  0  0  0  0  0
  139.0304   68.2925  224.3120 H   0  0  0  0  0  0  0  0  0  0  0  0
  139.5712   67.7239  226.6636 H   0  0  0  0  0  0  0  0  0  0  0  0
  141.4445   70.7315  229.1112 H   0  0  0  0  0  0  0  0  0  0  0  0
  141.4274   72.3448  227.2105 H   0  0  0  0  0  0  0  0  0  0  0  0
  1  2  2  0
  2  3  1  0
  3  4  1  0
  4  5  1  0
  5  6  2  0
  5  7  1  0
  7  8  1  0
  8  9  1  0
  9 10  1  0
 10 11  1  0
 11 12  1  0
 12 13  1  0
 13 14  1  0
 14 15  1  0
 15 16  2  0
 16 17  1  0
 17 18  2  0
 18 19  1  0
 19 20  2  0
  2 21  1  0
 21 22  2  0
 22 23  1  0
 23 24  2  0
 24 25  1  0
 25 26  2  0
 26 27  1  0
 26 28  1  0
 28 29  2  0
 29 30  1  0
 30 31  2  0
 12  7  1  0
 20 15  1  0
 31 21  1  0
 30 24  1  0
  3 32  1  0
  4 33  1  0
  4 34  1  0
  8 35  1  0
  8 36  1  0
  9 37  1  0
  9 38  1  0
 10 39  1  0
 10 40  1  0
 11 41  1  0
 11 42  1  0
 12 43  1  1
 13 44  1  0
 13 45  1  0
 14 46  1  0
 16 47  1  0
 17 48  1  0
 18 49  1  0
 19 50  1  0
 20 51  1  0
 22 52  1  0
 23 53  1  0
 25 54  1  0
 28 55  1  0
 29 56  1  0
M  END
>  <smiles>  (39) 
O=C(NCC(=O)N1CCCC[C@H]1CNc1ccccc1)c1ccc2cc(F)ccc2n1

>  <score_type>  (39) 
oracle

>  <origin>  (39) 
autodockgpu

>  <m_score__min__energy>  (39) 
-9.0999999999999996

>  <m_primary>  (39) 
energy

>  <rmsd>  (39) 
2.4964003374855435

>  <m_score__min__rmsd>  (39) 
2.4964003374855435

>  <meeko>  (39) 
{"free_energy": -8.4, "intermolecular_energy": -10.49, "internal_energy": -1.95, "cluster_size": 38, "cluster_id": 1, "rank_in_cluster": 24}

>  <energy>  (39) 
-8.77

>  <cluster_rmsd>  (39) 
0.0

>  <cluster>  (39) 
2

$$$$

     RDKit          3D

 56 59  0  0  0  0  0  0  0  0999 V2000
  141.3650   72.0310  221.4920 O   0  0  0  0  0  0  0  0  0  0  0  0
  140.5710   72.4240  222.3810 C   0  0  0  0  0  0  0  0  0  0  0  0
  139.9410   73.7180  222.2620 N   0  0  0  0  0  0  0  0  0  0  0  0
  140.1370   74.6320  221.2160 C   0  0  0  0  0  0  0  0  0  0  0  0
  139.4570   75.8960  221.1060 C   0  0  0  0  0  0  0  0  0  0  0  0
  138.1660   75.7640  220.9000 O   0  0  0  0  0  0  0  0  0  0  0  0
  139.8850   77.2280  221.1790 N   0  0  0  0  0  0  0  0  0  0  0  0
  139.2040   78.2660  221.9780 C   0  0  0  0  0  0  0  0  0  0  0  0
  140.1900   78.7350  223.0100 C   0  0  0  0  0  0  0  0  0  0  0  0
  141.2950   79.4410  222.2130 C   0  0  0  0  0  0  0  0  0  0  0  0
  142.0260   78.3680  221.4070 C   0  0  0  0  0  0  0  0  0  0  0  0
  141.0580   77.7530  220.4520 C   0  0  1  0  0  0  0  0  0  0  0  0
  141.6190   76.8660  219.4090 C   0  0  0  0  0  0  0  0  0  0  0  0
  142.9850   76.4730  219.7970 N   0  0  0  0  0  0  0  0  0  0  0  0
  143.4420   75.1450  219.8620 C   0  0  0  0  0  0  0  0  0  0  0  0
  144.6710   74.8860  220.4820 C   0  0  0  0  0  0  0  0  0  0  0  0
  145.1870   73.6130  220.5450 C   0  0  0  0  0  0  0  0  0  0  0  0
  144.5350   72.5260  220.0090 C   0  0  0  0  0  0  0  0  0  0  0  0
  143.3240   72.7640  219.3940 C   0  0  0  0  0  0  0  0  0  0  0  0
  142.8070   74.0500  219.3320 C   0  0  0  0  0  0  0  0  0  0  0  0
  140.2830   71.5630  223.5470 C   0  0  0  0  0  0  0  0  0  0  0  0
  139.5640   70.4040  223.3510 C   0  0  0  0  0  0  0  0  0  0  0  0
  139.2790   69.5770  224.4300 C   0  0  0  0  0  0  0  0  0  0  0  0
  139.7220   69.9220  225.7070 C   0  0  0  0  0  0  0  0  0  0  0  0
  139.4620   69.1310  226.8000 C   0  0  0  0  0  0  0  0  0  0  0  0
  139.9440   69.5600  228.0260 C   0  0  0  0  0  0  0  0  0  0  0  0
  139.7210   68.8240  229.1470 F   0  0  0  0  0  0  0  0  0  0  0  0
  140.6550   70.7250  228.1630 C   0  0  0  0  0  0  0  0  0  0  0  0
  140.9170   71.5200  227.0660 C   0  0  0  0  0  0  0  0  0  0  0  0
  140.4440   71.1050  225.8430 C   0  0  0  0  0  0  0  0  0  0  0  0
  140.7090   71.8930  224.7830 N   0  0  0  0  0  0  0  0  0  0  0  0
  139.2810   73.9330  223.0710 H   0  0  0  0  0  0  0  0  0  0  0  0
  141.2103   74.8725  221.2292 H   0  0  0  0  0  0  0  0  0  0  0  0
  139.6882   74.0826  220.3753 H   0  0  0  0  0  0  0  0  0  0  0  0
  138.9036   79.1045  221.3325 H   0  0  0  0  0  0  0  0  0  0  0  0
  138.2956   77.8665  222.4525 H   0  0  0  0  0  0  0  0  0  0  0  0
  139.7120   79.4348  223.7112 H   0  0  0  0  0  0  0  0  0  0  0  0
  140.5832   77.9034  223.6132 H   0  0  0  0  0  0  0  0  0  0  0  0
  140.8534   80.1862  221.5351 H   0  0  0  0  0  0  0  0  0  0  0  0
  141.9893   79.9642  222.8869 H   0  0  0  0  0  0  0  0  0  0  0  0
  142.8578   78.8242  220.8502 H   0  0  0  0  0  0  0  0  0  0  0  0
  142.4304   77.5992  222.0818 H   0  0  0  0  0  0  0  0  0  0  0  0
  140.7061   78.5719  219.8074 H   0  0  0  0  0  0  0  0  0  0  0  0
  140.9908   75.9684  219.3114 H   0  0  0  0  0  0  0  0  0  0  0  0
  141.6444   77.3956  218.4452 H   0  0  0  0  0  0  0  0  0  0  0  0
  143.6330   77.2560  220.0340 H   0  0  0  0  0  0  0  0  0  0  0  0
  145.2352   75.7184  220.9278 H   0  0  0  0  0  0  0  0  0  0  0  0
  146.1561   73.4578  221.0418 H   0  0  0  0  0  0  0  0  0  0  0  0
  144.9606   71.5134  220.0685 H   0  0  0  0  0  0  0  0  0  0  0  0
  142.7638   71.9283  218.9493 H   0  0  0  0  0  0  0  0  0  0  0  0
  141.8385   74.1995  218.8324 H   0  0  0  0  0  0  0  0  0  0  0  0
  139.2166   70.1344  222.3427 H   0  0  0  0  0  0  0  0  0  0  0  0
  138.7047   68.6512  224.2777 H   0  0  0  0  0  0  0  0  0  0  0  0
  138.8936   68.1940  226.7053 H   0  0  0  0  0  0  0  0  0  0  0  0
  141.0194   71.0280  229.1557 H   0  0  0  0  0  0  0  0  0  0  0  0
  141.4861   72.4560  227.1664 H   0  0  0  0  0  0  0  0  0  0  0  0
  1  2  2  0
  2  3  1  0
  3  4  1  0
  4  5  1  0
  5  6  2  0
  5  7  1  0
  7  8  1  0
  8  9  1  0
  9 10  1  0
 10 11  1  0
 11 12  1  0
 12 13  1  0
 13 14  1  0
 14 15  1  0
 15 16  2  0
 16 17  1  0
 17 18  2  0
 18 19  1  0
 19 20  2  0
  2 21  1  0
 21 22  2  0
 22 23  1  0
 23 24  2  0
 24 25  1  0
 25 26  2  0
 26 27  1  0
 26 28  1  0
 28 29  2  0
 29 30  1  0
 30 31  2  0
 12  7  1  0
 20 15  1  0
 31 21  1  0
 30 24  1  0
  3 32  1  0
  4 33  1  0
  4 34  1  0
  8 35  1  0
  8 36  1  0
  9 37  1  0
  9 38  1  0
 10 39  1  0
 10 40  1  0
 11 41  1  0
 11 42  1  0
 12 43  1  6
 13 44  1  0
 13 45  1  0
 14 46  1  0
 16 47  1  0
 17 48  1  0
 18 49  1  0
 19 50  1  0
 20 51  1  0
 22 52  1  0
 23 53  1  0
 25 54  1  0
 28 55  1  0
 29 56  1  0
M  END
>  <smiles>  (40) 
O=C(NCC(=O)N1CCCC[C@H]1CNc1ccccc1)c1ccc2cc(F)ccc2n1

>  <score_type>  (40) 
oracle

>  <origin>  (40) 
autodockgpu

>  <m_score__min__energy>  (40) 
-9.0999999999999996

>  <m_primary>  (40) 
energy

>  <rmsd>  (40) 
4.722957920611096

>  <m_score__min__rmsd>  (40) 
4.722957920611096

>  <meeko>  (40) 
{"free_energy": -8.5, "intermolecular_energy": -10.59, "internal_energy": -1.76, "cluster_size": 7, "cluster_id": 2, "rank_in_cluster": 4}

>  <energy>  (40) 
-8.71

>  <cluster_rmsd>  (40) 
0.2

>  <cluster>  (40) 
2

$$$$

     RDKit          3D

 56 59  0  0  0  0  0  0  0  0999 V2000
  139.7840   73.7710  222.6000 O   0  0  0  0  0  0  0  0  0  0  0  0
  140.3440   72.6530  222.4950 C   0  0  0  0  0  0  0  0  0  0  0  0
  141.1190   72.3440  221.3160 N   0  0  0  0  0  0  0  0  0  0  0  0
  141.3130   73.1950  220.2170 C   0  0  0  0  0  0  0  0  0  0  0  0
  142.3690   74.1690  220.1230 C   0  0  0  0  0  0  0  0  0  0  0  0
  143.4510   73.8150  220.7780 O   0  0  0  0  0  0  0  0  0  0  0  0
  142.4810   75.4050  219.4740 N   0  0  0  0  0  0  0  0  0  0  0  0
  143.6910   75.8490  218.7540 C   0  0  0  0  0  0  0  0  0  0  0  0
  143.2950   76.0380  217.3180 C   0  0  0  0  0  0  0  0  0  0  0  0
  142.3220   77.2260  217.3250 C   0  0  0  0  0  0  0  0  0  0  0  0
  141.0540   76.7660  218.0420 C   0  0  0  0  0  0  0  0  0  0  0  0
  141.4050   76.4190  219.4500 C   0  0  1  0  0  0  0  0  0  0  0  0
  140.2810   76.1860  220.3830 C   0  0  0  0  0  0  0  0  0  0  0  0
  140.7090   76.5380  221.7480 N   0  0  0  0  0  0  0  0  0  0  0  0
  141.2240   77.7910  222.1210 C   0  0  0  0  0  0  0  0  0  0  0  0
  141.4640   78.0430  223.4790 C   0  0  0  0  0  0  0  0  0  0  0  0
  141.9340   79.2610  223.9090 C   0  0  0  0  0  0  0  0  0  0  0  0
  142.1950   80.2980  223.0420 C   0  0  0  0  0  0  0  0  0  0  0  0
  141.9620   80.0670  221.7030 C   0  0  0  0  0  0  0  0  0  0  0  0
  141.4880   78.8370  221.2730 C   0  0  0  0  0  0  0  0  0  0  0  0
  140.2100   71.6550  223.5770 C   0  0  0  0  0  0  0  0  0  0  0  0
  139.5890   70.4570  223.2980 C   0  0  0  0  0  0  0  0  0  0  0  0
  139.4510   69.5020  224.2970 C   0  0  0  0  0  0  0  0  0  0  0  0
  139.9400   69.7590  225.5780 C   0  0  0  0  0  0  0  0  0  0  0  0
  139.8230   68.8400  226.5930 C   0  0  0  0  0  0  0  0  0  0  0  0
  140.3410   69.1890  227.8300 C   0  0  0  0  0  0  0  0  0  0  0  0
  140.2580   68.3250  228.8760 F   0  0  0  0  0  0  0  0  0  0  0  0
  140.9510   70.3980  228.0520 C   0  0  0  0  0  0  0  0  0  0  0  0
  141.0680   71.3210  227.0320 C   0  0  0  0  0  0  0  0  0  0  0  0
  140.5580   70.9870  225.7990 C   0  0  0  0  0  0  0  0  0  0  0  0
  140.6830   71.8990  224.8160 N   0  0  0  0  0  0  0  0  0  0  0  0
  141.5530   71.3710  221.3480 H   0  0  0  0  0  0  0  0  0  0  0  0
  141.4413   72.5331  219.3479 H   0  0  0  0  0  0  0  0  0  0  0  0
  140.4345   73.8509  220.3062 H   0  0  0  0  0  0  0  0  0  0  0  0
  144.0554   76.7978  219.1746 H   0  0  0  0  0  0  0  0  0  0  0  0
  144.4998   75.1093  218.8468 H   0  0  0  0  0  0  0  0  0  0  0  0
  144.1768   76.2646  216.7007 H   0  0  0  0  0  0  0  0  0  0  0  0
  142.8369   75.1323  216.8939 H   0  0  0  0  0  0  0  0  0  0  0  0
  142.7697   78.0769  217.8594 H   0  0  0  0  0  0  0  0  0  0  0  0
  142.0948   77.5511  216.2990 H   0  0  0  0  0  0  0  0  0  0  0  0
  140.3091   77.5753  218.0341 H   0  0  0  0  0  0  0  0  0  0  0  0
  140.6304   75.8882  217.5321 H   0  0  0  0  0  0  0  0  0  0  0  0
  141.8081   77.3395  219.8973 H   0  0  0  0  0  0  0  0  0  0  0  0
  139.4246   76.8121  220.0922 H   0  0  0  0  0  0  0  0  0  0  0  0
  139.9831   75.1277  220.3485 H   0  0  0  0  0  0  0  0  0  0  0  0
  140.6110   75.7840  222.4640 H   0  0  0  0  0  0  0  0  0  0  0  0
  141.2722   77.2493  224.2160 H   0  0  0  0  0  0  0  0  0  0  0  0
  142.1078   79.4126  224.9845 H   0  0  0  0  0  0  0  0  0  0  0  0
  142.5723   81.2668  223.4013 H   0  0  0  0  0  0  0  0  0  0  0  0
  142.1536   80.8646  220.9701 H   0  0  0  0  0  0  0  0  0  0  0  0
  141.3146   78.6922  220.1964 H   0  0  0  0  0  0  0  0  0  0  0  0
  139.2037   70.2576  222.2872 H   0  0  0  0  0  0  0  0  0  0  0  0
  138.9566   68.5440  224.0783 H   0  0  0  0  0  0  0  0  0  0  0  0
  139.3376   67.8664  226.4301 H   0  0  0  0  0  0  0  0  0  0  0  0
  141.3496   70.6334  229.0498 H   0  0  0  0  0  0  0  0  0  0  0  0
  141.5540   72.2934  227.2001 H   0  0  0  0  0  0  0  0  0  0  0  0
  1  2  2  0
  2  3  1  0
  3  4  1  0
  4  5  1  0
  5  6  2  0
  5  7  1  0
  7  8  1  0
  8  9  1  0
  9 10  1  0
 10 11  1  0
 11 12  1  0
 12 13  1  0
 13 14  1  0
 14 15  1  0
 15 16  2  0
 16 17  1  0
 17 18  2  0
 18 19  1  0
 19 20  2  0
  2 21  1  0
 21 22  2  0
 22 23  1  0
 23 24  2  0
 24 25  1  0
 25 26  2  0
 26 27  1  0
 26 28  1  0
 28 29  2  0
 29 30  1  0
 30 31  2  0
 12  7  1  0
 20 15  1  0
 31 21  1  0
 30 24  1  0
  3 32  1  0
  4 33  1  0
  4 34  1  0
  8 35  1  0
  8 36  1  0
  9 37  1  0
  9 38  1  0
 10 39  1  0
 10 40  1  0
 11 41  1  0
 11 42  1  0
 12 43  1  1
 13 44  1  0
 13 45  1  0
 14 46  1  0
 16 47  1  0
 17 48  1  0
 18 49  1  0
 19 50  1  0
 20 51  1  0
 22 52  1  0
 23 53  1  0
 25 54  1  0
 28 55  1  0
 29 56  1  0
M  END
>  <smiles>  (41) 
O=C(NCC(=O)N1CCCC[C@H]1CNc1ccccc1)c1ccc2cc(F)ccc2n1

>  <score_type>  (41) 
oracle

>  <origin>  (41) 
autodockgpu

>  <m_score__min__energy>  (41) 
-9.0999999999999996

>  <m_primary>  (41) 
energy

>  <rmsd>  (41) 
2.8256568815824106

>  <m_score__min__rmsd>  (41) 
2.8256568815824106

>  <meeko>  (41) 
{"free_energy": -8.17, "intermolecular_energy": -10.26, "internal_energy": -2.19, "cluster_size": 38, "cluster_id": 1, "rank_in_cluster": 29}

>  <energy>  (41) 
-8.7

>  <cluster_rmsd>  (41) 
0.39

>  <cluster>  (41) 
2

$$$$

     RDKit          3D

 56 59  0  0  0  0  0  0  0  0999 V2000
  138.6700   70.6380  221.7010 O   0  0  0  0  0  0  0  0  0  0  0  0
  139.1760   71.1350  222.7360 C   0  0  0  0  0  0  0  0  0  0  0  0
  139.5070   72.5400  222.7720 N   0  0  0  0  0  0  0  0  0  0  0  0
  139.3250   73.4520  221.7210 C   0  0  0  0  0  0  0  0  0  0  0  0
  139.4810   74.8770  221.8490 C   0  0  0  0  0  0  0  0  0  0  0  0
  140.6550   75.2220  222.3270 O   0  0  0  0  0  0  0  0  0  0  0  0
  138.6460   75.9650  221.5620 N   0  0  0  0  0  0  0  0  0  0  0  0
  137.1870   75.9630  221.7880 C   0  0  0  0  0  0  0  0  0  0  0  0
  136.9030   77.0410  222.7930 C   0  0  0  0  0  0  0  0  0  0  0  0
  137.2380   78.3560  222.0740 C   0  0  0  0  0  0  0  0  0  0  0  0
  138.7520   78.3810  221.8640 C   0  0  0  0  0  0  0  0  0  0  0  0
  139.1270   77.2370  220.9820 C   0  0  1  0  0  0  0  0  0  0  0  0
  140.5090   77.2220  220.4550 C   0  0  0  0  0  0  0  0  0  0  0  0
  141.4470   77.4740  221.5630 N   0  0  0  0  0  0  0  0  0  0  0  0
  141.7260   78.7440  222.0950 C   0  0  0  0  0  0  0  0  0  0  0  0
  141.9410   78.8640  223.4750 C   0  0  0  0  0  0  0  0  0  0  0  0
  142.1830   80.0850  224.0590 C   0  0  0  0  0  0  0  0  0  0  0  0
  142.2280   81.2530  223.3330 C   0  0  0  0  0  0  0  0  0  0  0  0
  142.0170   81.1530  221.9740 C   0  0  0  0  0  0  0  0  0  0  0  0
  141.7730   79.9200  221.3890 C   0  0  0  0  0  0  0  0  0  0  0  0
  139.4330   70.2820  223.9150 C   0  0  0  0  0  0  0  0  0  0  0  0
  139.0760   68.9530  223.8600 C   0  0  0  0  0  0  0  0  0  0  0  0
  139.3070   68.1290  224.9550 C   0  0  0  0  0  0  0  0  0  0  0  0
  139.8990   68.6510  226.1050 C   0  0  0  0  0  0  0  0  0  0  0  0
  140.1450   67.8700  227.2090 C   0  0  0  0  0  0  0  0  0  0  0  0
  140.7360   68.4820  228.3030 C   0  0  0  0  0  0  0  0  0  0  0  0
  141.0050   67.7650  229.4260 F   0  0  0  0  0  0  0  0  0  0  0  0
  141.0710   69.8120  228.3030 C   0  0  0  0  0  0  0  0  0  0  0  0
  140.8250   70.5970  227.1950 C   0  0  0  0  0  0  0  0  0  0  0  0
  140.2380   70.0020  226.1020 C   0  0  0  0  0  0  0  0  0  0  0  0
  140.0060   70.7830  225.0290 N   0  0  0  0  0  0  0  0  0  0  0  0
  139.9200   72.8450  223.7060 H   0  0  0  0  0  0  0  0  0  0  0  0
  140.0318   73.1452  220.9359 H   0  0  0  0  0  0  0  0  0  0  0  0
  138.2384   73.3762  221.5678 H   0  0  0  0  0  0  0  0  0  0  0  0
  136.6576   76.1734  220.8470 H   0  0  0  0  0  0  0  0  0  0  0  0
  136.8452   74.9831  222.1526 H   0  0  0  0  0  0  0  0  0  0  0  0
  135.8442   77.0224  223.0906 H   0  0  0  0  0  0  0  0  0  0  0  0
  137.4920   76.9125  223.7131 H   0  0  0  0  0  0  0  0  0  0  0  0
  136.7218   78.3974  221.1035 H   0  0  0  0  0  0  0  0  0  0  0  0
  136.9111   79.2216  222.6690 H   0  0  0  0  0  0  0  0  0  0  0  0
  139.0449   79.3283  221.3876 H   0  0  0  0  0  0  0  0  0  0  0  0
  139.2681   78.2956  222.8317 H   0  0  0  0  0  0  0  0  0  0  0  0
  138.5875   77.3938  220.0363 H   0  0  0  0  0  0  0  0  0  0  0  0
  140.7224   76.2403  220.0071 H   0  0  0  0  0  0  0  0  0  0  0  0
  140.6226   78.0013  219.6870 H   0  0  0  0  0  0  0  0  0  0  0  0
  141.9220   76.6320  221.9580 H   0  0  0  0  0  0  0  0  0  0  0  0
  141.9155   77.9620  224.1041 H   0  0  0  0  0  0  0  0  0  0  0  0
  142.3465   80.1297  225.1459 H   0  0  0  0  0  0  0  0  0  0  0  0
  142.4234   82.2224  223.8148 H   0  0  0  0  0  0  0  0  0  0  0  0
  142.0425   82.0582  221.3495 H   0  0  0  0  0  0  0  0  0  0  0  0
  141.6084   79.8823  220.3020 H   0  0  0  0  0  0  0  0  0  0  0  0
  138.6091   68.5447  222.9515 H   0  0  0  0  0  0  0  0  0  0  0  0
  139.0235   67.0669  224.9148 H   0  0  0  0  0  0  0  0  0  0  0  0
  139.8832   66.8017  227.2236 H   0  0  0  0  0  0  0  0  0  0  0  0
  141.5396   70.2566  229.1934 H   0  0  0  0  0  0  0  0  0  0  0  0
  141.0898   71.6646  227.1859 H   0  0  0  0  0  0  0  0  0  0  0  0
  1  2  2  0
  2  3  1  0
  3  4  1  0
  4  5  1  0
  5  6  2  0
  5  7  1  0
  7  8  1  0
  8  9  1  0
  9 10  1  0
 10 11  1  0
 11 12  1  0
 12 13  1  0
 13 14  1  0
 14 15  1  0
 15 16  2  0
 16 17  1  0
 17 18  2  0
 18 19  1  0
 19 20  2  0
  2 21  1  0
 21 22  2  0
 22 23  1  0
 23 24  2  0
 24 25  1  0
 25 26  2  0
 26 27  1  0
 26 28  1  0
 28 29  2  0
 29 30  1  0
 30 31  2  0
 12  7  1  0
 20 15  1  0
 31 21  1  0
 30 24  1  0
  3 32  1  0
  4 33  1  0
  4 34  1  0
  8 35  1  0
  8 36  1  0
  9 37  1  0
  9 38  1  0
 10 39  1  0
 10 40  1  0
 11 41  1  0
 11 42  1  0
 12 43  1  6
 13 44  1  0
 13 45  1  0
 14 46  1  0
 16 47  1  0
 17 48  1  0
 18 49  1  0
 19 50  1  0
 20 51  1  0
 22 52  1  0
 23 53  1  0
 25 54  1  0
 28 55  1  0
 29 56  1  0
M  END
>  <smiles>  (42) 
O=C(NCC(=O)N1CCCC[C@H]1CNc1ccccc1)c1ccc2cc(F)ccc2n1

>  <score_type>  (42) 
oracle

>  <origin>  (42) 
autodockgpu

>  <m_score__min__energy>  (42) 
-9.0999999999999996

>  <m_primary>  (42) 
energy

>  <rmsd>  (42) 
2.9775102968473366

>  <m_score__min__rmsd>  (42) 
2.9775102968473366

>  <meeko>  (42) 
{"free_energy": -8.95, "intermolecular_energy": -11.04, "internal_energy": -2.12, "cluster_size": 38, "cluster_id": 1, "rank_in_cluster": 4}

>  <energy>  (42) 
-8.5

>  <cluster_rmsd>  (42) 
1.18

>  <cluster>  (42) 
2

$$$$

     RDKit          3D

 56 59  0  0  0  0  0  0  0  0999 V2000
  139.2830   74.1020  220.2980 O   0  0  0  0  0  0  0  0  0  0  0  0
  139.0990   74.8290  221.3030 C   0  0  0  0  0  0  0  0  0  0  0  0
  138.0960   74.4700  222.2770 N   0  0  0  0  0  0  0  0  0  0  0  0
  137.2560   73.3470  222.2130 C   0  0  0  0  0  0  0  0  0  0  0  0
  137.6700   72.0060  222.5320 C   0  0  0  0  0  0  0  0  0  0  0  0
  136.9520   71.4640  223.4890 O   0  0  0  0  0  0  0  0  0  0  0  0
  138.6700   71.1630  222.0280 N   0  0  0  0  0  0  0  0  0  0  0  0
  138.4290   70.1200  221.0110 C   0  0  0  0  0  0  0  0  0  0  0  0
  139.2560   70.4860  219.8120 C   0  0  0  0  0  0  0  0  0  0  0  0
  140.7140   70.3320  220.2700 C   0  0  0  0  0  0  0  0  0  0  0  0
  140.9800   71.4290  221.3000 C   0  0  0  0  0  0  0  0  0  0  0  0
  140.0790   71.2090  222.4700 C   0  0  1  0  0  0  0  0  0  0  0  0
  140.3480   72.0120  223.6820 C   0  0  0  0  0  0  0  0  0  0  0  0
  139.5160   71.5050  224.7880 N   0  0  0  0  0  0  0  0  0  0  0  0
  139.9530   70.5800  225.7520 C   0  0  0  0  0  0  0  0  0  0  0  0
  140.5190   71.0630  226.9400 C   0  0  0  0  0  0  0  0  0  0  0  0
  140.9970   70.2080  227.9040 C   0  0  0  0  0  0  0  0  0  0  0  0
  140.9500   68.8400  227.7650 C   0  0  0  0  0  0  0  0  0  0  0  0
  140.3980   68.3480  226.6020 C   0  0  0  0  0  0  0  0  0  0  0  0
  139.9170   69.2140  225.6310 C   0  0  0  0  0  0  0  0  0  0  0  0
  139.9080   76.0520  221.4890 C   0  0  0  0  0  0  0  0  0  0  0  0
  141.0330   76.2250  220.7120 C   0  0  0  0  0  0  0  0  0  0  0  0
  141.8110   77.3650  220.8670 C   0  0  0  0  0  0  0  0  0  0  0  0
  141.4520   78.3300  221.8070 C   0  0  0  0  0  0  0  0  0  0  0  0
  142.1940   79.4720  221.9910 C   0  0  0  0  0  0  0  0  0  0  0  0
  141.7550   80.3700  222.9500 C   0  0  0  0  0  0  0  0  0  0  0  0
  142.4440   81.5180  223.1810 F   0  0  0  0  0  0  0  0  0  0  0  0
  140.6260   80.1470  223.6960 C   0  0  0  0  0  0  0  0  0  0  0  0
  139.8790   79.0000  223.5130 C   0  0  0  0  0  0  0  0  0  0  0  0
  140.3050   78.1000  222.5640 C   0  0  0  0  0  0  0  0  0  0  0  0
  139.5640   76.9870  222.3970 N   0  0  0  0  0  0  0  0  0  0  0  0
  138.0410   75.1580  223.0900 H   0  0  0  0  0  0  0  0  0  0  0  0
  136.4152   73.5664  222.8874 H   0  0  0  0  0  0  0  0  0  0  0  0
  137.1059   73.2635  221.1265 H   0  0  0  0  0  0  0  0  0  0  0  0
  138.7354   69.1365  221.3968 H   0  0  0  0  0  0  0  0  0  0  0  0
  137.3617   70.0598  220.7517 H   0  0  0  0  0  0  0  0  0  0  0  0
  139.0410   69.8079  218.9729 H   0  0  0  0  0  0  0  0  0  0  0  0
  139.0405   71.5049  219.4579 H   0  0  0  0  0  0  0  0  0  0  0  0
  140.8637   69.3422  220.7259 H   0  0  0  0  0  0  0  0  0  0  0  0
  141.4035   70.4201  219.4174 H   0  0  0  0  0  0  0  0  0  0  0  0
  142.0295   71.3848  221.6265 H   0  0  0  0  0  0  0  0  0  0  0  0
  140.7873   72.4170  220.8565 H   0  0  0  0  0  0  0  0  0  0  0  0
  140.3327   70.2149  222.8667 H   0  0  0  0  0  0  0  0  0  0  0  0
  141.4111   71.9279  223.9517 H   0  0  0  0  0  0  0  0  0  0  0  0
  140.1069   73.0678  223.4894 H   0  0  0  0  0  0  0  0  0  0  0  0
  138.5410   71.8760  224.8310 H   0  0  0  0  0  0  0  0  0  0  0  0
  140.5819   72.1489  227.1041 H   0  0  0  0  0  0  0  0  0  0  0  0
  141.4331   70.6329  228.8201 H   0  0  0  0  0  0  0  0  0  0  0  0
  141.3356   68.1692  228.5469 H   0  0  0  0  0  0  0  0  0  0  0  0
  140.3384   67.2612  226.4427 H   0  0  0  0  0  0  0  0  0  0  0  0
  139.4841   68.7829  224.7162 H   0  0  0  0  0  0  0  0  0  0  0  0
  141.3140   75.4622  219.9710 H   0  0  0  0  0  0  0  0  0  0  0  0
  142.7097   77.5064  220.2486 H   0  0  0  0  0  0  0  0  0  0  0  0
  143.1012   79.6655  221.3998 H   0  0  0  0  0  0  0  0  0  0  0  0
  140.3129   80.8879  224.4463 H   0  0  0  0  0  0  0  0  0  0  0  0
  138.9725   78.8121  224.1071 H   0  0  0  0  0  0  0  0  0  0  0  0
  1  2  2  0
  2  3  1  0
  3  4  1  0
  4  5  1  0
  5  6  2  0
  5  7  1  0
  7  8  1  0
  8  9  1  0
  9 10  1  0
 10 11  1  0
 11 12  1  0
 12 13  1  0
 13 14  1  0
 14 15  1  0
 15 16  2  0
 16 17  1  0
 17 18  2  0
 18 19  1  0
 19 20  2  0
  2 21  1  0
 21 22  2  0
 22 23  1  0
 23 24  2  0
 24 25  1  0
 25 26  2  0
 26 27  1  0
 26 28  1  0
 28 29  2  0
 29 30  1  0
 30 31  2  0
 12  7  1  0
 20 15  1  0
 31 21  1  0
 30 24  1  0
  3 32  1  0
  4 33  1  0
  4 34  1  0
  8 35  1  0
  8 36  1  0
  9 37  1  0
  9 38  1  0
 10 39  1  0
 10 40  1  0
 11 41  1  0
 11 42  1  0
 12 43  1  1
 13 44  1  0
 13 45  1  0
 14 46  1  0
 16 47  1  0
 17 48  1  0
 18 49  1  0
 19 50  1  0
 20 51  1  0
 22 52  1  0
 23 53  1  0
 25 54  1  0
 28 55  1  0
 29 56  1  0
M  END
>  <smiles>  (43) 
O=C(NCC(=O)N1CCCC[C@H]1CNc1ccccc1)c1ccc2cc(F)ccc2n1

>  <score_type>  (43) 
oracle

>  <origin>  (43) 
autodockgpu

>  <m_score__min__energy>  (43) 
-9.0999999999999996

>  <m_primary>  (43) 
energy

>  <rmsd>  (43) 
8.994746250454874

>  <m_score__min__rmsd>  (43) 
8.994746250454874

>  <meeko>  (43) 
{"free_energy": -7.25, "intermolecular_energy": -9.34, "internal_energy": -2.78, "cluster_size": 3, "cluster_id": 4, "rank_in_cluster": 3}

>  <energy>  (43) 
-8.26

>  <cluster_rmsd>  (43) 
1.11

>  <cluster>  (43) 
2

$$$$

     RDKit          3D

 56 59  0  0  0  0  0  0  0  0999 V2000
  140.2860   73.3670  222.7140 O   0  0  0  0  0  0  0  0  0  0  0  0
  139.9400   72.1740  222.5450 C   0  0  0  0  0  0  0  0  0  0  0  0
  139.5320   71.7200  221.2360 N   0  0  0  0  0  0  0  0  0  0  0  0
  139.4670   72.5110  220.0790 C   0  0  0  0  0  0  0  0  0  0  0  0
  140.6060   73.1410  219.4630 C   0  0  0  0  0  0  0  0  0  0  0  0
  140.7640   72.7940  218.2060 O   0  0  0  0  0  0  0  0  0  0  0  0
  141.5680   74.0480  219.9240 N   0  0  0  0  0  0  0  0  0  0  0  0
  143.0240   73.8070  219.8570 C   0  0  0  0  0  0  0  0  0  0  0  0
  143.6010   74.8780  218.9780 C   0  0  0  0  0  0  0  0  0  0  0  0
  143.4030   76.1850  219.7580 C   0  0  0  0  0  0  0  0  0  0  0  0
  141.9000   76.4590  219.8040 C   0  0  0  0  0  0  0  0  0  0  0  0
  141.2390   75.3470  220.5470 C   0  0  1  0  0  0  0  0  0  0  0  0
  139.8200   75.5400  220.9190 C   0  0  0  0  0  0  0  0  0  0  0  0
  139.7490   76.0220  222.3100 N   0  0  0  0  0  0  0  0  0  0  0  0
  140.0920   77.3220  222.7180 C   0  0  0  0  0  0  0  0  0  0  0  0
  141.4190   77.5840  223.0870 C   0  0  0  0  0  0  0  0  0  0  0  0
  141.8080   78.8260  223.5280 C   0  0  0  0  0  0  0  0  0  0  0  0
  140.9280   79.8790  223.6350 C   0  0  0  0  0  0  0  0  0  0  0  0
  139.6190   79.6380  223.2770 C   0  0  0  0  0  0  0  0  0  0  0  0
  139.2300   78.3830  222.8320 C   0  0  0  0  0  0  0  0  0  0  0  0
  139.9490   71.2330  223.6860 C   0  0  0  0  0  0  0  0  0  0  0  0
  139.4100   69.9770  223.5110 C   0  0  0  0  0  0  0  0  0  0  0  0
  139.4070   69.0740  224.5660 C   0  0  0  0  0  0  0  0  0  0  0  0
  139.9480   69.4420  225.7980 C   0  0  0  0  0  0  0  0  0  0  0  0
  139.9650   68.5780  226.8670 C   0  0  0  0  0  0  0  0  0  0  0  0
  140.5240   69.0370  228.0480 C   0  0  0  0  0  0  0  0  0  0  0  0
  140.5710   68.2320  229.1430 F   0  0  0  0  0  0  0  0  0  0  0  0
  141.0470   70.2990  228.1660 C   0  0  0  0  0  0  0  0  0  0  0  0
  141.0310   71.1670  227.0930 C   0  0  0  0  0  0  0  0  0  0  0  0
  140.4780   70.7240  225.9150 C   0  0  0  0  0  0  0  0  0  0  0  0
  140.4720   71.5840  224.8780 N   0  0  0  0  0  0  0  0  0  0  0  0
  139.2720   70.6870  221.2170 H   0  0  0  0  0  0  0  0  0  0  0  0
  139.0283   71.8666  219.3030 H   0  0  0  0  0  0  0  0  0  0  0  0
  138.9259   73.3898  220.4598 H   0  0  0  0  0  0  0  0  0  0  0  0
  143.4642   73.8652  220.8634 H   0  0  0  0  0  0  0  0  0  0  0  0
  143.2403   72.8066  219.4539 H   0  0  0  0  0  0  0  0  0  0  0  0
  144.6704   74.6945  218.7970 H   0  0  0  0  0  0  0  0  0  0  0  0
  143.1143   74.9086  217.9920 H   0  0  0  0  0  0  0  0  0  0  0  0
  143.7983   76.0785  220.7790 H   0  0  0  0  0  0  0  0  0  0  0  0
  143.9371   77.0150  219.2723 H   0  0  0  0  0  0  0  0  0  0  0  0
  141.7122   77.4126  220.3191 H   0  0  0  0  0  0  0  0  0  0  0  0
  141.4968   76.5220  218.7825 H   0  0  0  0  0  0  0  0  0  0  0  0
  141.6812   75.3518  221.5542 H   0  0  0  0  0  0  0  0  0  0  0  0
  139.3605   76.2809  220.2482 H   0  0  0  0  0  0  0  0  0  0  0  0
  139.2795   74.5863  220.8285 H   0  0  0  0  0  0  0  0  0  0  0  0
  139.4190   75.3270  223.0150 H   0  0  0  0  0  0  0  0  0  0  0  0
  142.1648   76.7780  223.0221 H   0  0  0  0  0  0  0  0  0  0  0  0
  142.8606   78.9844  223.8055 H   0  0  0  0  0  0  0  0  0  0  0  0
  141.2545   80.8676  223.9900 H   0  0  0  0  0  0  0  0  0  0  0  0
  138.8769   80.4472  223.3447 H   0  0  0  0  0  0  0  0  0  0  0  0
  138.1760   78.2308  222.5564 H   0  0  0  0  0  0  0  0  0  0  0  0
  138.9833   69.6905  222.5385 H   0  0  0  0  0  0  0  0  0  0  0  0
  138.9786   68.0700  224.4304 H   0  0  0  0  0  0  0  0  0  0  0  0
  139.5509   67.5620  226.7875 H   0  0  0  0  0  0  0  0  0  0  0  0
  141.4826   70.6221  229.1230 H   0  0  0  0  0  0  0  0  0  0  0  0
  141.4477   72.1815  227.1778 H   0  0  0  0  0  0  0  0  0  0  0  0
  1  2  2  0
  2  3  1  0
  3  4  1  0
  4  5  1  0
  5  6  2  0
  5  7  1  0
  7  8  1  0
  8  9  1  0
  9 10  1  0
 10 11  1  0
 11 12  1  0
 12 13  1  0
 13 14  1  0
 14 15  1  0
 15 16  2  0
 16 17  1  0
 17 18  2  0
 18 19  1  0
 19 20  2  0
  2 21  1  0
 21 22  2  0
 22 23  1  0
 23 24  2  0
 24 25  1  0
 25 26  2  0
 26 27  1  0
 26 28  1  0
 28 29  2  0
 29 30  1  0
 30 31  2  0
 12  7  1  0
 20 15  1  0
 31 21  1  0
 30 24  1  0
  3 32  1  0
  4 33  1  0
  4 34  1  0
  8 35  1  0
  8 36  1  0
  9 37  1  0
  9 38  1  0
 10 39  1  0
 10 40  1  0
 11 41  1  0
 11 42  1  0
 12 43  1  1
 13 44  1  0
 13 45  1  0
 14 46  1  0
 16 47  1  0
 17 48  1  0
 18 49  1  0
 19 50  1  0
 20 51  1  0
 22 52  1  0
 23 53  1  0
 25 54  1  0
 28 55  1  0
 29 56  1  0
M  END
>  <smiles>  (44) 
O=C(NCC(=O)N1CCCC[C@H]1CNc1ccccc1)c1ccc2cc(F)ccc2n1

>  <score_type>  (44) 
oracle

>  <origin>  (44) 
autodockgpu

>  <m_score__min__energy>  (44) 
-9.0999999999999996

>  <m_primary>  (44) 
energy

>  <rmsd>  (44) 
2.869430786090809

>  <m_score__min__rmsd>  (44) 
2.869430786090809

>  <meeko>  (44) 
{"free_energy": -8.28, "intermolecular_energy": -10.37, "internal_energy": -2.2, "cluster_size": 38, "cluster_id": 1, "rank_in_cluster": 27}

>  <energy>  (44) 
-7.63

>  <cluster_rmsd>  (44) 
1.16

>  <cluster>  (44) 
2

$$$$

     RDKit          3D

 56 59  0  0  0  0  0  0  0  0999 V2000
  138.5460   70.6860  221.7530 O   0  0  0  0  0  0  0  0  0  0  0  0
  139.1130   71.1660  222.7640 C   0  0  0  0  0  0  0  0  0  0  0  0
  139.5060   72.5560  222.7770 N   0  0  0  0  0  0  0  0  0  0  0  0
  139.3240   73.4680  221.7260 C   0  0  0  0  0  0  0  0  0  0  0  0
  139.4730   74.8940  221.8560 C   0  0  0  0  0  0  0  0  0  0  0  0
  140.6420   75.2430  222.3430 O   0  0  0  0  0  0  0  0  0  0  0  0
  138.6360   75.9780  221.5640 N   0  0  0  0  0  0  0  0  0  0  0  0
  137.1760   75.9710  221.7840 C   0  0  0  0  0  0  0  0  0  0  0  0
  136.8840   77.0510  222.7860 C   0  0  0  0  0  0  0  0  0  0  0  0
  137.2180   78.3650  222.0670 C   0  0  0  0  0  0  0  0  0  0  0  0
  138.7330   78.3950  221.8630 C   0  0  0  0  0  0  0  0  0  0  0  0
  139.1150   77.2500  220.9840 C   0  0  1  0  0  0  0  0  0  0  0  0
  140.4990   77.2390  220.4640 C   0  0  0  0  0  0  0  0  0  0  0  0
  141.4320   77.5000  221.5740 N   0  0  0  0  0  0  0  0  0  0  0  0
  141.7040   78.7750  222.0990 C   0  0  0  0  0  0  0  0  0  0  0  0
  141.9470   78.8980  223.4740 C   0  0  0  0  0  0  0  0  0  0  0  0
  142.1850   80.1230  224.0530 C   0  0  0  0  0  0  0  0  0  0  0  0
  142.1990   81.2910  223.3250 C   0  0  0  0  0  0  0  0  0  0  0  0
  141.9600   81.1880  221.9720 C   0  0  0  0  0  0  0  0  0  0  0  0
  141.7210   79.9510  221.3920 C   0  0  0  0  0  0  0  0  0  0  0  0
  139.3770   70.3100  223.9400 C   0  0  0  0  0  0  0  0  0  0  0  0
  139.0070   68.9840  223.8890 C   0  0  0  0  0  0  0  0  0  0  0  0
  139.2440   68.1580  224.9800 C   0  0  0  0  0  0  0  0  0  0  0  0
  139.8550   68.6730  226.1230 C   0  0  0  0  0  0  0  0  0  0  0  0
  140.1080   67.8890  227.2230 C   0  0  0  0  0  0  0  0  0  0  0  0
  140.7180   68.4940  228.3090 C   0  0  0  0  0  0  0  0  0  0  0  0
  140.9950   67.7750  229.4290 F   0  0  0  0  0  0  0  0  0  0  0  0
  141.0660   69.8210  228.3060 C   0  0  0  0  0  0  0  0  0  0  0  0
  140.8130   70.6090  227.2010 C   0  0  0  0  0  0  0  0  0  0  0  0
  140.2060   70.0210  226.1160 C   0  0  0  0  0  0  0  0  0  0  0  0
  139.9680   70.8040  225.0470 N   0  0  0  0  0  0  0  0  0  0  0  0
  139.9670   72.8480  223.6930 H   0  0  0  0  0  0  0  0  0  0  0  0
  140.0353   73.1652  220.9435 H   0  0  0  0  0  0  0  0  0  0  0  0
  138.2384   73.3873  221.5682 H   0  0  0  0  0  0  0  0  0  0  0  0
  136.6497   76.1773  220.8404 H   0  0  0  0  0  0  0  0  0  0  0  0
  136.8362   74.9907  222.1494 H   0  0  0  0  0  0  0  0  0  0  0  0
  135.8239   77.0297  223.0787 H   0  0  0  0  0  0  0  0  0  0  0  0
  137.4695   76.9260  223.7088 H   0  0  0  0  0  0  0  0  0  0  0  0
  136.7057   78.4034  221.0943 H   0  0  0  0  0  0  0  0  0  0  0  0
  136.8861   79.2302  222.6597 H   0  0  0  0  0  0  0  0  0  0  0  0
  139.0246   79.3424  221.3861 H   0  0  0  0  0  0  0  0  0  0  0  0
  139.2458   78.3134  222.8328 H   0  0  0  0  0  0  0  0  0  0  0  0
  138.5786   77.4027  220.0359 H   0  0  0  0  0  0  0  0  0  0  0  0
  140.7186   76.2562  220.0213 H   0  0  0  0  0  0  0  0  0  0  0  0
  140.6121   78.0161  219.6937 H   0  0  0  0  0  0  0  0  0  0  0  0
  141.9070   76.6620  221.9750 H   0  0  0  0  0  0  0  0  0  0  0  0
  141.9474   77.9959  224.1034 H   0  0  0  0  0  0  0  0  0  0  0  0
  142.3707   80.1707  225.1362 H   0  0  0  0  0  0  0  0  0  0  0  0
  142.3923   82.2632  223.8020 H   0  0  0  0  0  0  0  0  0  0  0  0
  141.9587   82.0934  221.3473 H   0  0  0  0  0  0  0  0  0  0  0  0
  141.5353   79.9105  220.3085 H   0  0  0  0  0  0  0  0  0  0  0  0
  138.5250   68.5804  222.9863 H   0  0  0  0  0  0  0  0  0  0  0  0
  138.9501   67.0986  224.9426 H   0  0  0  0  0  0  0  0  0  0  0  0
  139.8367   66.8231  227.2401 H   0  0  0  0  0  0  0  0  0  0  0  0
  141.5502   70.2604  229.1906 H   0  0  0  0  0  0  0  0  0  0  0  0
  141.0883   71.6739  227.1888 H   0  0  0  0  0  0  0  0  0  0  0  0
  1  2  2  0
  2  3  1  0
  3  4  1  0
  4  5  1  0
  5  6  2  0
  5  7  1  0
  7  8  1  0
  8  9  1  0
  9 10  1  0
 10 11  1  0
 11 12  1  0
 12 13  1  0
 13 14  1  0
 14 15  1  0
 15 16  2  0
 16 17  1  0
 17 18  2  0
 18 19  1  0
 19 20  2  0
  2 21  1  0
 21 22  2  0
 22 23  1  0
 23 24  2  0
 24 25  1  0
 25 26  2  0
 26 27  1  0
 26 28  1  0
 28 29  2  0
 29 30  1  0
 30 31  2  0
 12  7  1  0
 20 15  1  0
 31 21  1  0
 30 24  1  0
  3 32  1  0
  4 33  1  0
  4 34  1  0
  8 35  1  0
  8 36  1  0
  9 37  1  0
  9 38  1  0
 10 39  1  0
 10 40  1  0
 11 41  1  0
 11 42  1  0
 12 43  1  6
 13 44  1  0
 13 45  1  0
 14 46  1  0
 16 47  1  0
 17 48  1  0
 18 49  1  0
 19 50  1  0
 20 51  1  0
 22 52  1  0
 23 53  1  0
 25 54  1  0
 28 55  1  0
 29 56  1  0
M  END
>  <smiles>  (45) 
O=C(NCC(=O)N1CCCC[C@H]1CNc1ccccc1)c1ccc2cc(F)ccc2n1

>  <score_type>  (45) 
oracle

>  <origin>  (45) 
autodockgpu

>  <m_score__min__energy>  (45) 
-9.0999999999999996

>  <m_primary>  (45) 
energy

>  <rmsd>  (45) 
2.9762451303467983

>  <m_score__min__rmsd>  (45) 
2.9762451303467983

>  <meeko>  (45) 
{"free_energy": -8.95, "intermolecular_energy": -11.03, "internal_energy": -2.13, "cluster_size": 38, "cluster_id": 1, "rank_in_cluster": 5}

>  <energy>  (45) 
-6.82

>  <cluster_rmsd>  (45) 
1.54

>  <cluster>  (45) 
2

$$$$

     RDKit          3D

 56 59  0  0  0  0  0  0  0  0999 V2000
  140.2640   70.8510  221.7340 O   0  0  0  0  0  0  0  0  0  0  0  0
  139.9590   71.5640  222.7200 C   0  0  0  0  0  0  0  0  0  0  0  0
  139.4150   72.8860  222.5120 N   0  0  0  0  0  0  0  0  0  0  0  0
  139.1900   73.4930  221.2670 C   0  0  0  0  0  0  0  0  0  0  0  0
  140.2310   73.8500  220.3400 C   0  0  0  0  0  0  0  0  0  0  0  0
  139.8850   73.6640  219.0870 O   0  0  0  0  0  0  0  0  0  0  0  0
  141.5260   74.3590  220.4990 N   0  0  0  0  0  0  0  0  0  0  0  0
  142.7440   73.5240  220.4920 C   0  0  0  0  0  0  0  0  0  0  0  0
  143.5740   73.9790  219.3260 C   0  0  0  0  0  0  0  0  0  0  0  0
  144.0170   75.4050  219.6830 C   0  0  0  0  0  0  0  0  0  0  0  0
  142.7660   76.2830  219.6620 C   0  0  0  0  0  0  0  0  0  0  0  0
  141.8240   75.7910  220.7110 C   0  0  1  0  0  0  0  0  0  0  0  0
  140.6610   76.6500  221.0230 C   0  0  0  0  0  0  0  0  0  0  0  0
  140.7800   77.1330  222.4100 N   0  0  0  0  0  0  0  0  0  0  0  0
  141.0270   78.4690  222.7670 C   0  0  0  0  0  0  0  0  0  0  0  0
  142.2850   79.0200  222.4830 C   0  0  0  0  0  0  0  0  0  0  0  0
  142.5980   80.3100  222.8390 C   0  0  0  0  0  0  0  0  0  0  0  0
  141.7070   81.1330  223.4900 C   0  0  0  0  0  0  0  0  0  0  0  0
  140.4660   80.6060  223.7780 C   0  0  0  0  0  0  0  0  0  0  0  0
  140.1530   79.3040  223.4170 C   0  0  0  0  0  0  0  0  0  0  0  0
  140.1560   71.0510  224.0920 C   0  0  0  0  0  0  0  0  0  0  0  0
  140.7280   71.8810  225.0320 C   0  0  0  0  0  0  0  0  0  0  0  0
  140.9240   71.4240  226.3290 C   0  0  0  0  0  0  0  0  0  0  0  0
  140.5430   70.1270  226.6750 C   0  0  0  0  0  0  0  0  0  0  0  0
  140.7210   69.6370  227.9460 C   0  0  0  0  0  0  0  0  0  0  0  0
  140.3100   68.3360  228.1900 C   0  0  0  0  0  0  0  0  0  0  0  0
  140.4570   67.7910  229.4270 F   0  0  0  0  0  0  0  0  0  0  0  0
  139.7460   67.5540  227.2150 C   0  0  0  0  0  0  0  0  0  0  0  0
  139.5680   68.0450  225.9380 C   0  0  0  0  0  0  0  0  0  0  0  0
  139.9720   69.3350  225.6820 C   0  0  0  0  0  0  0  0  0  0  0  0
  139.7890   69.7990  224.4310 N   0  0  0  0  0  0  0  0  0  0  0  0
  139.1860   73.3880  223.4240 H   0  0  0  0  0  0  0  0  0  0  0  0
  138.5261   72.8085  220.7186 H   0  0  0  0  0  0  0  0  0  0  0  0
  138.8442   74.4885  221.5823 H   0  0  0  0  0  0  0  0  0  0  0  0
  143.3019   73.6599  221.4302 H   0  0  0  0  0  0  0  0  0  0  0  0
  142.4911   72.4570  220.4046 H   0  0  0  0  0  0  0  0  0  0  0  0
  144.4482   73.3243  219.1954 H   0  0  0  0  0  0  0  0  0  0  0  0
  143.0110   73.9465  218.3816 H   0  0  0  0  0  0  0  0  0  0  0  0
  144.4712   75.4193  220.6847 H   0  0  0  0  0  0  0  0  0  0  0  0
  144.7657   75.7733  218.9662 H   0  0  0  0  0  0  0  0  0  0  0  0
  143.0419   77.3271  219.8713 H   0  0  0  0  0  0  0  0  0  0  0  0
  142.2875   76.2336  218.6727 H   0  0  0  0  0  0  0  0  0  0  0  0
  142.3614   75.8793  221.6667 H   0  0  0  0  0  0  0  0  0  0  0  0
  140.6405   77.5075  220.3343 H   0  0  0  0  0  0  0  0  0  0  0  0
  139.7314   76.0731  220.9087 H   0  0  0  0  0  0  0  0  0  0  0  0
  140.6680   76.4100  223.1540 H   0  0  0  0  0  0  0  0  0  0  0  0
  143.0369   78.4069  221.9645 H   0  0  0  0  0  0  0  0  0  0  0  0
  143.5974   80.6992  222.5947 H   0  0  0  0  0  0  0  0  0  0  0  0
  141.9729   82.1636  223.7676 H   0  0  0  0  0  0  0  0  0  0  0  0
  139.7184   81.2229  224.2981 H   0  0  0  0  0  0  0  0  0  0  0  0
  139.1521   78.9206  223.6646 H   0  0  0  0  0  0  0  0  0  0  0  0
  141.0285   72.9025  224.7559 H   0  0  0  0  0  0  0  0  0  0  0  0
  141.3790   72.0838  227.0824 H   0  0  0  0  0  0  0  0  0  0  0  0
  141.1717   70.2526  228.7384 H   0  0  0  0  0  0  0  0  0  0  0  0
  139.4329   66.5267  227.4530 H   0  0  0  0  0  0  0  0  0  0  0  0
  139.1172   67.4246  225.1494 H   0  0  0  0  0  0  0  0  0  0  0  0
  1  2  2  0
  2  3  1  0
  3  4  1  0
  4  5  1  0
  5  6  2  0
  5  7  1  0
  7  8  1  0
  8  9  1  0
  9 10  1  0
 10 11  1  0
 11 12  1  0
 12 13  1  0
 13 14  1  0
 14 15  1  0
 15 16  2  0
 16 17  1  0
 17 18  2  0
 18 19  1  0
 19 20  2  0
  2 21  1  0
 21 22  2  0
 22 23  1  0
 23 24  2  0
 24 25  1  0
 25 26  2  0
 26 27  1  0
 26 28  1  0
 28 29  2  0
 29 30  1  0
 30 31  2  0
 12  7  1  0
 20 15  1  0
 31 21  1  0
 30 24  1  0
  3 32  1  0
  4 33  1  0
  4 34  1  0
  8 35  1  0
  8 36  1  0
  9 37  1  0
  9 38  1  0
 10 39  1  0
 10 40  1  0
 11 41  1  0
 11 42  1  0
 12 43  1  1
 13 44  1  0
 13 45  1  0
 14 46  1  0
 16 47  1  0
 17 48  1  0
 18 49  1  0
 19 50  1  0
 20 51  1  0
 22 52  1  0
 23 53  1  0
 25 54  1  0
 28 55  1  0
 29 56  1  0
M  END
>  <smiles>  (46) 
O=C(NCC(=O)N1CCCC[C@H]1CNc1ccccc1)c1ccc2cc(F)ccc2n1

>  <score_type>  (46) 
oracle

>  <origin>  (46) 
autodockgpu

>  <m_score__min__energy>  (46) 
-9.0999999999999996

>  <m_primary>  (46) 
energy

>  <rmsd>  (46) 
3.185332910770846

>  <m_score__min__rmsd>  (46) 
3.185332910770846

>  <meeko>  (46) 
{"free_energy": -8.67, "intermolecular_energy": -10.76, "internal_energy": -1.41, "cluster_size": 38, "cluster_id": 1, "rank_in_cluster": 11}

>  <energy>  (46) 
-7.86

>  <cluster_rmsd>  (46) 
0.0

>  <cluster>  (46) 
3

$$$$

     RDKit          3D

 56 59  0  0  0  0  0  0  0  0999 V2000
  141.3100   71.9710  221.3950 O   0  0  0  0  0  0  0  0  0  0  0  0
  140.5700   72.3680  222.3260 C   0  0  0  0  0  0  0  0  0  0  0  0
  139.9690   73.6800  222.2590 N   0  0  0  0  0  0  0  0  0  0  0  0
  140.1400   74.6070  221.2200 C   0  0  0  0  0  0  0  0  0  0  0  0
  140.9340   75.8030  221.3240 C   0  0  0  0  0  0  0  0  0  0  0  0
  141.0670   76.2220  222.5610 O   0  0  0  0  0  0  0  0  0  0  0  0
  141.5960   76.6010  220.3820 N   0  0  0  0  0  0  0  0  0  0  0  0
  142.9360   76.2950  219.8430 C   0  0  0  0  0  0  0  0  0  0  0  0
  142.7720   76.0930  218.3640 C   0  0  0  0  0  0  0  0  0  0  0  0
  142.3760   77.4710  217.8140 C   0  0  0  0  0  0  0  0  0  0  0  0
  140.9760   77.7810  218.3420 C   0  0  0  0  0  0  0  0  0  0  0  0
  141.0380   77.8540  219.8320 C   0  0  1  0  0  0  0  0  0  0  0  0
  139.8450   78.3860  220.5260 C   0  0  0  0  0  0  0  0  0  0  0  0
  140.1150   78.4370  221.9740 N   0  0  0  0  0  0  0  0  0  0  0  0
  141.0510   79.2940  222.5770 C   0  0  0  0  0  0  0  0  0  0  0  0
  140.5830   80.3880  223.3180 C   0  0  0  0  0  0  0  0  0  0  0  0
  141.4490   81.2810  223.9020 C   0  0  0  0  0  0  0  0  0  0  0  0
  142.8160   81.1580  223.7970 C   0  0  0  0  0  0  0  0  0  0  0  0
  143.2940   80.0880  223.0710 C   0  0  0  0  0  0  0  0  0  0  0  0
  142.4160   79.1890  222.4830 C   0  0  0  0  0  0  0  0  0  0  0  0
  140.3140   71.4940  223.4910 C   0  0  0  0  0  0  0  0  0  0  0  0
  139.6460   70.3070  223.2920 C   0  0  0  0  0  0  0  0  0  0  0  0
  139.3920   69.4670  224.3690 C   0  0  0  0  0  0  0  0  0  0  0  0
  139.8160   69.8300  225.6480 C   0  0  0  0  0  0  0  0  0  0  0  0
  139.5860   69.0270  226.7400 C   0  0  0  0  0  0  0  0  0  0  0  0
  140.0450   69.4760  227.9680 C   0  0  0  0  0  0  0  0  0  0  0  0
  139.8490   68.7290  229.0870 F   0  0  0  0  0  0  0  0  0  0  0  0
  140.7060   70.6690  228.1080 C   0  0  0  0  0  0  0  0  0  0  0  0
  140.9380   71.4750  227.0120 C   0  0  0  0  0  0  0  0  0  0  0  0
  140.4860   71.0420  225.7870 C   0  0  0  0  0  0  0  0  0  0  0  0
  140.7220   71.8410  224.7290 N   0  0  0  0  0  0  0  0  0  0  0  0
  139.3540   73.8980  223.1030 H   0  0  0  0  0  0  0  0  0  0  0  0
  140.5687   74.0379  220.3819 H   0  0  0  0  0  0  0  0  0  0  0  0
  139.1288   75.0354  221.1571 H   0  0  0  0  0  0  0  0  0  0  0  0
  143.6227   77.1321  220.0372 H   0  0  0  0  0  0  0  0  0  0  0  0
  143.3583   75.3981  220.3198 H   0  0  0  0  0  0  0  0  0  0  0  0
  143.7165   75.7541  217.9134 H   0  0  0  0  0  0  0  0  0  0  0  0
  142.0188   75.3251  218.1337 H   0  0  0  0  0  0  0  0  0  0  0  0
  143.0877   78.2345  218.1613 H   0  0  0  0  0  0  0  0  0  0  0  0
  142.3882   77.4714  216.7141 H   0  0  0  0  0  0  0  0  0  0  0  0
  140.6314   78.7440  217.9372 H   0  0  0  0  0  0  0  0  0  0  0  0
  140.2729   76.9939  218.0318 H   0  0  0  0  0  0  0  0  0  0  0  0
  141.7460   78.6622  220.0676 H   0  0  0  0  0  0  0  0  0  0  0  0
  139.6240   79.3981  220.1562 H   0  0  0  0  0  0  0  0  0  0  0  0
  138.9806   77.7339  220.3319 H   0  0  0  0  0  0  0  0  0  0  0  0
  139.5580   77.7810  222.5640 H   0  0  0  0  0  0  0  0  0  0  0  0
  139.4991   80.5349  223.4345 H   0  0  0  0  0  0  0  0  0  0  0  0
  141.0349   82.1244  224.4739 H   0  0  0  0  0  0  0  0  0  0  0  0
  143.4963   81.8809  224.2710 H   0  0  0  0  0  0  0  0  0  0  0  0
  144.3788   79.9460  222.9571 H   0  0  0  0  0  0  0  0  0  0  0  0
  142.8360   78.3481  221.9116 H   0  0  0  0  0  0  0  0  0  0  0  0
  139.3139   70.0241  222.2822 H   0  0  0  0  0  0  0  0  0  0  0  0
  138.8579   68.5180  224.2139 H   0  0  0  0  0  0  0  0  0  0  0  0
  139.0587   68.0665  226.6428 H   0  0  0  0  0  0  0  0  0  0  0  0
  141.0542   70.9863  229.1020 H   0  0  0  0  0  0  0  0  0  0  0  0
  141.4677   72.4336  227.1147 H   0  0  0  0  0  0  0  0  0  0  0  0
  1  2  2  0
  2  3  1  0
  3  4  1  0
  4  5  1  0
  5  6  2  0
  5  7  1  0
  7  8  1  0
  8  9  1  0
  9 10  1  0
 10 11  1  0
 11 12  1  0
 12 13  1  0
 13 14  1  0
 14 15  1  0
 15 16  2  0
 16 17  1  0
 17 18  2  0
 18 19  1  0
 19 20  2  0
  2 21  1  0
 21 22  2  0
 22 23  1  0
 23 24  2  0
 24 25  1  0
 25 26  2  0
 26 27  1  0
 26 28  1  0
 28 29  2  0
 29 30  1  0
 30 31  2  0
 12  7  1  0
 20 15  1  0
 31 21  1  0
 30 24  1  0
  3 32  1  0
  4 33  1  0
  4 34  1  0
  8 35  1  0
  8 36  1  0
  9 37  1  0
  9 38  1  0
 10 39  1  0
 10 40  1  0
 11 41  1  0
 11 42  1  0
 12 43  1  6
 13 44  1  0
 13 45  1  0
 14 46  1  0
 16 47  1  0
 17 48  1  0
 18 49  1  0
 19 50  1  0
 20 51  1  0
 22 52  1  0
 23 53  1  0
 25 54  1  0
 28 55  1  0
 29 56  1  0
M  END
>  <smiles>  (47) 
O=C(NCC(=O)N1CCCC[C@H]1CNc1ccccc1)c1ccc2cc(F)ccc2n1

>  <score_type>  (47) 
oracle

>  <origin>  (47) 
autodockgpu

>  <m_score__min__energy>  (47) 
-9.0999999999999996

>  <m_primary>  (47) 
energy

>  <rmsd>  (47) 
2.5510885568359662

>  <m_score__min__rmsd>  (47) 
2.5510885568359662

>  <meeko>  (47) 
{"free_energy": -8.72, "intermolecular_energy": -10.81, "internal_energy": -1.97, "cluster_size": 38, "cluster_id": 1, "rank_in_cluster": 8}

>  <energy>  (47) 
-7.76

>  <cluster_rmsd>  (47) 
0.0

>  <cluster>  (47) 
4

$$$$

     RDKit          3D

 56 59  0  0  0  0  0  0  0  0999 V2000
  138.8090   71.1040  221.2320 O   0  0  0  0  0  0  0  0  0  0  0  0
  139.1210   71.6820  222.3010 C   0  0  0  0  0  0  0  0  0  0  0  0
  139.1810   73.1240  222.3510 N   0  0  0  0  0  0  0  0  0  0  0  0
  138.9250   73.9910  221.2780 C   0  0  0  0  0  0  0  0  0  0  0  0
  139.1190   75.4160  221.3240 C   0  0  0  0  0  0  0  0  0  0  0  0
  139.4200   75.8520  222.5260 O   0  0  0  0  0  0  0  0  0  0  0  0
  139.0610   76.4260  220.3550 N   0  0  0  0  0  0  0  0  0  0  0  0
  137.8880   76.6710  219.4920 C   0  0  0  0  0  0  0  0  0  0  0  0
  137.4000   78.0560  219.8070 C   0  0  0  0  0  0  0  0  0  0  0  0
  138.5140   78.9920  219.3170 C   0  0  0  0  0  0  0  0  0  0  0  0
  139.7230   78.7680  220.2250 C   0  0  0  0  0  0  0  0  0  0  0  0
  140.1750   77.3540  220.0700 C   0  0  1  0  0  0  0  0  0  0  0  0
  141.4780   76.9980  220.6720 C   0  0  0  0  0  0  0  0  0  0  0  0
  141.4410   77.3060  222.1130 N   0  0  0  0  0  0  0  0  0  0  0  0
  141.5340   78.6000  222.6520 C   0  0  0  0  0  0  0  0  0  0  0  0
  140.4010   79.1590  223.2590 C   0  0  0  0  0  0  0  0  0  0  0  0
  140.4200   80.4340  223.7730 C   0  0  0  0  0  0  0  0  0  0  0  0
  141.5400   81.2330  223.7230 C   0  0  0  0  0  0  0  0  0  0  0  0
  142.6630   80.6980  223.1280 C   0  0  0  0  0  0  0  0  0  0  0  0
  142.6400   79.4110  222.6110 C   0  0  0  0  0  0  0  0  0  0  0  0
  139.4280   70.8850  223.5090 C   0  0  0  0  0  0  0  0  0  0  0  0
  139.1540   69.5360  223.4980 C   0  0  0  0  0  0  0  0  0  0  0  0
  139.4320   68.7640  224.6190 C   0  0  0  0  0  0  0  0  0  0  0  0
  139.9890   69.3590  225.7510 C   0  0  0  0  0  0  0  0  0  0  0  0
  140.2800   68.6320  226.8800 C   0  0  0  0  0  0  0  0  0  0  0  0
  140.8300   69.3140  227.9530 C   0  0  0  0  0  0  0  0  0  0  0  0
  141.1410   68.6530  229.0990 F   0  0  0  0  0  0  0  0  0  0  0  0
  141.0830   70.6610  227.9090 C   0  0  0  0  0  0  0  0  0  0  0  0
  140.7910   71.3930  226.7760 C   0  0  0  0  0  0  0  0  0  0  0  0
  140.2440   70.7270  225.7030 C   0  0  0  0  0  0  0  0  0  0  0  0
  139.9670   71.4560  224.6050 N   0  0  0  0  0  0  0  0  0  0  0  0
  139.4460   73.4950  223.3140 H   0  0  0  0  0  0  0  0  0  0  0  0
  139.5540   73.6323  220.4499 H   0  0  0  0  0  0  0  0  0  0  0  0
  137.8278   73.9338  221.2238 H   0  0  0  0  0  0  0  0  0  0  0  0
  138.1763   76.6028  218.4326 H   0  0  0  0  0  0  0  0  0  0  0  0
  137.1011   75.9241  219.6737 H   0  0  0  0  0  0  0  0  0  0  0  0
  136.4591   78.2642  219.2765 H   0  0  0  0  0  0  0  0  0  0  0  0
  137.1930   78.1867  220.8794 H   0  0  0  0  0  0  0  0  0  0  0  0
  138.7755   78.7540  218.2754 H   0  0  0  0  0  0  0  0  0  0  0  0
  138.1869   80.0416  219.3534 H   0  0  0  0  0  0  0  0  0  0  0  0
  140.5355   79.4512  219.9366 H   0  0  0  0  0  0  0  0  0  0  0  0
  139.4498   78.9641  221.2723 H   0  0  0  0  0  0  0  0  0  0  0  0
  140.4398   77.2355  219.0090 H   0  0  0  0  0  0  0  0  0  0  0  0
  141.6692   75.9242  220.5292 H   0  0  0  0  0  0  0  0  0  0  0  0
  142.2805   77.5749  220.1891 H   0  0  0  0  0  0  0  0  0  0  0  0
  141.3380   76.4850  222.7500 H   0  0  0  0  0  0  0  0  0  0  0  0
  139.4774   78.5652  223.3255 H   0  0  0  0  0  0  0  0  0  0  0  0
  139.5069   80.8302  224.2413 H   0  0  0  0  0  0  0  0  0  0  0  0
  141.5391   82.2515  224.1386 H   0  0  0  0  0  0  0  0  0  0  0  0
  143.5838   81.2962  223.0629 H   0  0  0  0  0  0  0  0  0  0  0  0
  143.5560   79.0203  222.1439 H   0  0  0  0  0  0  0  0  0  0  0  0
  138.7157   69.0701  222.6031 H   0  0  0  0  0  0  0  0  0  0  0  0
  139.2134   67.6860  224.6139 H   0  0  0  0  0  0  0  0  0  0  0  0
  140.0839   67.5508  226.9299 H   0  0  0  0  0  0  0  0  0  0  0  0
  141.5223   71.1623  228.7840 H   0  0  0  0  0  0  0  0  0  0  0  0
  140.9891   72.4741  226.7320 H   0  0  0  0  0  0  0  0  0  0  0  0
  1  2  2  0
  2  3  1  0
  3  4  1  0
  4  5  1  0
  5  6  2  0
  5  7  1  0
  7  8  1  0
  8  9  1  0
  9 10  1  0
 10 11  1  0
 11 12  1  0
 12 13  1  0
 13 14  1  0
 14 15  1  0
 15 16  2  0
 16 17  1  0
 17 18  2  0
 18 19  1  0
 19 20  2  0
  2 21  1  0
 21 22  2  0
 22 23  1  0
 23 24  2  0
 24 25  1  0
 25 26  2  0
 26 27  1  0
 26 28  1  0
 28 29  2  0
 29 30  1  0
 30 31  2  0
 12  7  1  0
 20 15  1  0
 31 21  1  0
 30 24  1  0
  3 32  1  0
  4 33  1  0
  4 34  1  0
  8 35  1  0
  8 36  1  0
  9 37  1  0
  9 38  1  0
 10 39  1  0
 10 40  1  0
 11 41  1  0
 11 42  1  0
 12 43  1  6
 13 44  1  0
 13 45  1  0
 14 46  1  0
 16 47  1  0
 17 48  1  0
 18 49  1  0
 19 50  1  0
 20 51  1  0
 22 52  1  0
 23 53  1  0
 25 54  1  0
 28 55  1  0
 29 56  1  0
M  END
>  <smiles>  (48) 
O=C(NCC(=O)N1CCCC[C@H]1CNc1ccccc1)c1ccc2cc(F)ccc2n1

>  <score_type>  (48) 
oracle

>  <origin>  (48) 
autodockgpu

>  <m_score__min__energy>  (48) 
-9.0999999999999996

>  <m_primary>  (48) 
energy

>  <rmsd>  (48) 
2.301553026854854

>  <m_score__min__rmsd>  (48) 
2.301553026854854

>  <meeko>  (48) 
{"free_energy": -7.91, "intermolecular_energy": -10.0, "internal_energy": -2.43, "cluster_size": 38, "cluster_id": 1, "rank_in_cluster": 33}

>  <energy>  (48) 
-7.35

>  <cluster_rmsd>  (48) 
1.59

>  <cluster>  (48) 
4

$$$$

     RDKit          3D

 56 59  0  0  0  0  0  0  0  0999 V2000
  139.6830   71.1890  221.2530 O   0  0  0  0  0  0  0  0  0  0  0  0
  139.6800   71.6850  222.4060 C   0  0  0  0  0  0  0  0  0  0  0  0
  139.6230   73.1180  222.5720 N   0  0  0  0  0  0  0  0  0  0  0  0
  139.5800   74.0630  221.5350 C   0  0  0  0  0  0  0  0  0  0  0  0
  140.5070   75.1540  221.3930 C   0  0  0  0  0  0  0  0  0  0  0  0
  141.7520   74.7980  221.6120 O   0  0  0  0  0  0  0  0  0  0  0  0
  140.3560   76.5070  221.0630 N   0  0  0  0  0  0  0  0  0  0  0  0
  139.4710   77.4370  221.7930 C   0  0  0  0  0  0  0  0  0  0  0  0
  140.3520   78.5060  222.3740 C   0  0  0  0  0  0  0  0  0  0  0  0
  140.8990   79.2740  221.1620 C   0  0  0  0  0  0  0  0  0  0  0  0
  141.8410   78.3280  220.4180 C   0  0  0  0  0  0  0  0  0  0  0  0
  141.0510   77.1580  219.9330 C   0  0  1  0  0  0  0  0  0  0  0  0
  141.7210   76.2470  218.9790 C   0  0  0  0  0  0  0  0  0  0  0  0
  143.1560   76.1790  219.3070 N   0  0  0  0  0  0  0  0  0  0  0  0
  143.8800   74.9850  219.4590 C   0  0  0  0  0  0  0  0  0  0  0  0
  144.8240   74.8960  220.4910 C   0  0  0  0  0  0  0  0  0  0  0  0
  145.5870   73.7670  220.6690 C   0  0  0  0  0  0  0  0  0  0  0  0
  145.4740   72.6650  219.8520 C   0  0  0  0  0  0  0  0  0  0  0  0
  144.5520   72.7360  218.8310 C   0  0  0  0  0  0  0  0  0  0  0  0
  143.7830   73.8770  218.6550 C   0  0  0  0  0  0  0  0  0  0  0  0
  139.7350   70.8030  223.5900 C   0  0  0  0  0  0  0  0  0  0  0  0
  139.2190   69.5300  223.4910 C   0  0  0  0  0  0  0  0  0  0  0  0
  139.2580   68.6800  224.5890 C   0  0  0  0  0  0  0  0  0  0  0  0
  139.8200   69.1190  225.7880 C   0  0  0  0  0  0  0  0  0  0  0  0
  139.8780   68.3100  226.8980 C   0  0  0  0  0  0  0  0  0  0  0  0
  140.4550   68.8380  228.0410 C   0  0  0  0  0  0  0  0  0  0  0  0
  140.5440   68.0900  229.1730 F   0  0  0  0  0  0  0  0  0  0  0  0
  140.9540   70.1150  228.0840 C   0  0  0  0  0  0  0  0  0  0  0  0
  140.8960   70.9280  226.9710 C   0  0  0  0  0  0  0  0  0  0  0  0
  140.3250   70.4160  225.8290 C   0  0  0  0  0  0  0  0  0  0  0  0
  140.2780   71.2230  224.7510 N   0  0  0  0  0  0  0  0  0  0  0  0
  139.6160   73.4170  223.5950 H   0  0  0  0  0  0  0  0  0  0  0  0
  139.6580   73.4842  220.6028 H   0  0  0  0  0  0  0  0  0  0  0  0
  138.6591   74.6075  221.7910 H   0  0  0  0  0  0  0  0  0  0  0  0
  138.7385   77.8827  221.1039 H   0  0  0  0  0  0  0  0  0  0  0  0
  138.9119   76.9132  222.5823 H   0  0  0  0  0  0  0  0  0  0  0  0
  139.7699   79.1750  223.0248 H   0  0  0  0  0  0  0  0  0  0  0  0
  141.1575   78.0852  222.9938 H   0  0  0  0  0  0  0  0  0  0  0  0
  140.0720   79.5780  220.5034 H   0  0  0  0  0  0  0  0  0  0  0  0
  141.4294   80.1832  221.4816 H   0  0  0  0  0  0  0  0  0  0  0  0
  142.2927   78.8512  219.5623 H   0  0  0  0  0  0  0  0  0  0  0  0
  142.6430   77.9889  221.0902 H   0  0  0  0  0  0  0  0  0  0  0  0
  140.2806   77.5682  219.2635 H   0  0  0  0  0  0  0  0  0  0  0  0
  141.2776   75.2432  219.0544 H   0  0  0  0  0  0  0  0  0  0  0  0
  141.5918   76.6229  217.9533 H   0  0  0  0  0  0  0  0  0  0  0  0
  143.6380   77.0970  219.4280 H   0  0  0  0  0  0  0  0  0  0  0  0
  144.9571   75.7484  221.1734 H   0  0  0  0  0  0  0  0  0  0  0  0
  146.3142   73.7431  221.4940 H   0  0  0  0  0  0  0  0  0  0  0  0
  146.0919   71.7683  220.0074 H   0  0  0  0  0  0  0  0  0  0  0  0
  144.4246   71.8815  218.1501 H   0  0  0  0  0  0  0  0  0  0  0  0
  143.0578   73.8946  217.8281 H   0  0  0  0  0  0  0  0  0  0  0  0
  138.7767   69.1869  222.5441 H   0  0  0  0  0  0  0  0  0  0  0  0
  138.8465   67.6627  224.5132 H   0  0  0  0  0  0  0  0  0  0  0  0
  139.4818   67.2840  226.8791 H   0  0  0  0  0  0  0  0  0  0  0  0
  141.4040   70.4939  229.0135 H   0  0  0  0  0  0  0  0  0  0  0  0
  141.2938   71.9533  226.9959 H   0  0  0  0  0  0  0  0  0  0  0  0
  1  2  2  0
  2  3  1  0
  3  4  1  0
  4  5  1  0
  5  6  2  0
  5  7  1  0
  7  8  1  0
  8  9  1  0
  9 10  1  0
 10 11  1  0
 11 12  1  0
 12 13  1  0
 13 14  1  0
 14 15  1  0
 15 16  2  0
 16 17  1  0
 17 18  2  0
 18 19  1  0
 19 20  2  0
  2 21  1  0
 21 22  2  0
 22 23  1  0
 23 24  2  0
 24 25  1  0
 25 26  2  0
 26 27  1  0
 26 28  1  0
 28 29  2  0
 29 30  1  0
 30 31  2  0
 12  7  1  0
 20 15  1  0
 31 21  1  0
 30 24  1  0
  3 32  1  0
  4 33  1  0
  4 34  1  0
  8 35  1  0
  8 36  1  0
  9 37  1  0
  9 38  1  0
 10 39  1  0
 10 40  1  0
 11 41  1  0
 11 42  1  0
 12 43  1  6
 13 44  1  0
 13 45  1  0
 14 46  1  0
 16 47  1  0
 17 48  1  0
 18 49  1  0
 19 50  1  0
 20 51  1  0
 22 52  1  0
 23 53  1  0
 25 54  1  0
 28 55  1  0
 29 56  1  0
M  END
>  <smiles>  (49) 
O=C(NCC(=O)N1CCCC[C@H]1CNc1ccccc1)c1ccc2cc(F)ccc2n1

>  <score_type>  (49) 
oracle

>  <origin>  (49) 
autodockgpu

>  <m_score__min__energy>  (49) 
-9.0999999999999996

>  <m_primary>  (49) 
energy

>  <rmsd>  (49) 
4.602168369554209

>  <m_score__min__rmsd>  (49) 
4.602168369554209

>  <meeko>  (49) 
{"free_energy": -8.26, "intermolecular_energy": -10.35, "internal_energy": -1.73, "cluster_size": 7, "cluster_id": 2, "rank_in_cluster": 5}

>  <energy>  (49) 
-7.25

>  <cluster_rmsd>  (49) 
1.66

>  <cluster>  (49) 
4

$$$$

     RDKit          3D

 56 59  0  0  0  0  0  0  0  0999 V2000
  140.7040   71.9690  221.1940 O   0  0  0  0  0  0  0  0  0  0  0  0
  140.1810   72.3900  222.2530 C   0  0  0  0  0  0  0  0  0  0  0  0
  139.7000   73.7490  222.3280 N   0  0  0  0  0  0  0  0  0  0  0  0
  139.7660   74.6990  221.2970 C   0  0  0  0  0  0  0  0  0  0  0  0
  140.5510   75.9050  221.3550 C   0  0  0  0  0  0  0  0  0  0  0  0
  141.4520   75.8820  222.3090 O   0  0  0  0  0  0  0  0  0  0  0  0
  140.5550   77.0860  220.6010 N   0  0  0  0  0  0  0  0  0  0  0  0
  141.6610   77.4870  219.7090 C   0  0  0  0  0  0  0  0  0  0  0  0
  141.0950   77.5520  218.3200 C   0  0  0  0  0  0  0  0  0  0  0  0
  140.1010   78.7230  218.3480 C   0  0  0  0  0  0  0  0  0  0  0  0
  138.9370   78.3030  219.2450 C   0  0  0  0  0  0  0  0  0  0  0  0
  139.4600   78.0770  220.6250 C   0  0  1  0  0  0  0  0  0  0  0  0
  138.4590   77.9040  221.7000 C   0  0  0  0  0  0  0  0  0  0  0  0
  139.0670   78.2850  222.9880 N   0  0  0  0  0  0  0  0  0  0  0  0
  140.2150   79.0840  223.1190 C   0  0  0  0  0  0  0  0  0  0  0  0
  140.0960   80.4690  222.9350 C   0  0  0  0  0  0  0  0  0  0  0  0
  141.1890   81.2990  223.0160 C   0  0  0  0  0  0  0  0  0  0  0  0
  142.4550   80.8270  223.2790 C   0  0  0  0  0  0  0  0  0  0  0  0
  142.5900   79.4670  223.4600 C   0  0  0  0  0  0  0  0  0  0  0  0
  141.4850   78.6330  223.3790 C   0  0  0  0  0  0  0  0  0  0  0  0
  140.0600   71.4960  223.4240 C   0  0  0  0  0  0  0  0  0  0  0  0
  139.5160   70.2430  223.2450 C   0  0  0  0  0  0  0  0  0  0  0  0
  139.3900   69.3820  224.3280 C   0  0  0  0  0  0  0  0  0  0  0  0
  139.8140   69.7900  225.5920 C   0  0  0  0  0  0  0  0  0  0  0  0
  139.7080   68.9690  226.6900 C   0  0  0  0  0  0  0  0  0  0  0  0
  140.1570   69.4650  227.9020 C   0  0  0  0  0  0  0  0  0  0  0  0
  140.0790   68.7040  229.0260 F   0  0  0  0  0  0  0  0  0  0  0  0
  140.6910   70.7230  228.0240 C   0  0  0  0  0  0  0  0  0  0  0  0
  140.7980   71.5480  226.9230 C   0  0  0  0  0  0  0  0  0  0  0  0
  140.3550   71.0680  225.7120 C   0  0  0  0  0  0  0  0  0  0  0  0
  140.4690   71.8850  224.6480 N   0  0  0  0  0  0  0  0  0  0  0  0
  139.2680   73.9860  223.2730 H   0  0  0  0  0  0  0  0  0  0  0  0
  140.1258   74.1528  220.4126 H   0  0  0  0  0  0  0  0  0  0  0  0
  138.7478   75.1136  221.3330 H   0  0  0  0  0  0  0  0  0  0  0  0
  142.0493   78.4723  220.0064 H   0  0  0  0  0  0  0  0  0  0  0  0
  142.4926   76.7691  219.7635 H   0  0  0  0  0  0  0  0  0  0  0  0
  141.8927   77.7399  217.5862 H   0  0  0  0  0  0  0  0  0  0  0  0
  140.6122   76.6081  218.0268 H   0  0  0  0  0  0  0  0  0  0  0  0
  140.5873   79.6211  218.7567 H   0  0  0  0  0  0  0  0  0  0  0  0
  139.7477   78.9610  217.3338 H   0  0  0  0  0  0  0  0  0  0  0  0
  138.1763   79.0973  219.2620 H   0  0  0  0  0  0  0  0  0  0  0  0
  138.4783   77.3803  218.8600 H   0  0  0  0  0  0  0  0  0  0  0  0
  139.8908   79.0365  220.9472 H   0  0  0  0  0  0  0  0  0  0  0  0
  137.5879   78.5451  221.4994 H   0  0  0  0  0  0  0  0  0  0  0  0
  138.1333   76.8541  221.7390 H   0  0  0  0  0  0  0  0  0  0  0  0
  138.5900   77.9200  223.8420 H   0  0  0  0  0  0  0  0  0  0  0  0
  139.1070   80.9006  222.7213 H   0  0  0  0  0  0  0  0  0  0  0  0
  141.0467   82.3793  222.8652 H   0  0  0  0  0  0  0  0  0  0  0  0
  143.3196   81.5041  223.3419 H   0  0  0  0  0  0  0  0  0  0  0  0
  143.5818   79.0401  223.6703 H   0  0  0  0  0  0  0  0  0  0  0  0
  141.6341   77.5538  223.5310 H   0  0  0  0  0  0  0  0  0  0  0  0
  139.1820   69.9248  222.2464 H   0  0  0  0  0  0  0  0  0  0  0  0
  138.9567   68.3806  224.1886 H   0  0  0  0  0  0  0  0  0  0  0  0
  139.2830   67.9577  226.6085 H   0  0  0  0  0  0  0  0  0  0  0  0
  141.0364   71.0765  229.0067 H   0  0  0  0  0  0  0  0  0  0  0  0
  141.2243   72.5582  227.0108 H   0  0  0  0  0  0  0  0  0  0  0  0
  1  2  2  0
  2  3  1  0
  3  4  1  0
  4  5  1  0
  5  6  2  0
  5  7  1  0
  7  8  1  0
  8  9  1  0
  9 10  1  0
 10 11  1  0
 11 12  1  0
 12 13  1  0
 13 14  1  0
 14 15  1  0
 15 16  2  0
 16 17  1  0
 17 18  2  0
 18 19  1  0
 19 20  2  0
  2 21  1  0
 21 22  2  0
 22 23  1  0
 23 24  2  0
 24 25  1  0
 25 26  2  0
 26 27  1  0
 26 28  1  0
 28 29  2  0
 29 30  1  0
 30 31  2  0
 12  7  1  0
 20 15  1  0
 31 21  1  0
 30 24  1  0
  3 32  1  0
  4 33  1  0
  4 34  1  0
  8 35  1  0
  8 36  1  0
  9 37  1  0
  9 38  1  0
 10 39  1  0
 10 40  1  0
 11 41  1  0
 11 42  1  0
 12 43  1  1
 13 44  1  0
 13 45  1  0
 14 46  1  0
 16 47  1  0
 17 48  1  0
 18 49  1  0
 19 50  1  0
 20 51  1  0
 22 52  1  0
 23 53  1  0
 25 54  1  0
 28 55  1  0
 29 56  1  0
M  END
>  <smiles>  (50) 
O=C(NCC(=O)N1CCCC[C@H]1CNc1ccccc1)c1ccc2cc(F)ccc2n1

>  <score_type>  (50) 
oracle

>  <origin>  (50) 
autodockgpu

>  <m_score__min__energy>  (50) 
-9.0999999999999996

>  <m_primary>  (50) 
energy

>  <rmsd>  (50) 
2.5453044635077626

>  <m_score__min__rmsd>  (50) 
2.5453044635077626

>  <meeko>  (50) 
{"free_energy": -8.09, "intermolecular_energy": -10.18, "internal_energy": -1.88, "cluster_size": 38, "cluster_id": 1, "rank_in_cluster": 31}

>  <energy>  (50) 
-7.29

>  <cluster_rmsd>  (50) 
0.0

>  <cluster>  (50) 
5

$$$$
