
     RDKit          3D

 45 47  0  0  0  0  0  0  0  0999 V2000
  141.8280   78.8810  219.1540 C   0  0  0  0  0  0  0  0  0  0  0  0
  140.9110   79.1260  220.2180 O   0  0  0  0  0  0  0  0  0  0  0  0
  141.4480   79.4320  221.4710 C   0  0  0  0  0  0  0  0  0  0  0  0
  142.3100   80.5110  221.6480 C   0  0  0  0  0  0  0  0  0  0  0  0
  142.8270   80.7920  222.9000 C   0  0  0  0  0  0  0  0  0  0  0  0
  142.4990   80.0130  223.9920 C   0  0  0  0  0  0  0  0  0  0  0  0
  141.6510   78.9600  223.7920 C   0  0  0  0  0  0  0  0  0  0  0  0
  141.1060   78.6380  222.5550 C   0  0  0  0  0  0  0  0  0  0  0  0
  140.1990   77.5060  222.3340 C   0  0  0  0  0  0  0  0  0  0  0  0
  140.8170   76.2840  221.9240 N   0  0  0  0  0  0  0  0  0  0  0  0
  140.4720   75.6300  220.7120 C   0  0  0  0  0  0  0  0  0  0  0  0
  139.5940   76.1280  219.9560 O   0  0  0  0  0  0  0  0  0  0  0  0
  141.1780   74.3670  220.3920 C   0  0  0  0  0  0  0  0  0  0  0  0
  141.3170   73.4890  221.5280 N   0  0  0  0  0  0  0  0  0  0  0  0
  140.1110   72.8330  221.9720 C   0  0  0  0  0  0  0  0  0  0  0  0
  139.0780   73.1090  221.3080 O   0  0  0  0  0  0  0  0  0  0  0  0
  140.1190   71.9210  223.1090 C   0  0  0  0  0  0  0  0  0  0  0  0
  139.5810   70.6610  222.8950 C   0  0  0  0  0  0  0  0  0  0  0  0
  139.5520   69.7350  223.9210 C   0  0  0  0  0  0  0  0  0  0  0  0
  140.0670   70.0980  225.1450 C   0  0  0  0  0  0  0  0  0  0  0  0
  140.0340   69.1640  226.1690 C   0  0  0  0  0  0  0  0  0  0  0  0
  140.5370   69.4820  227.4100 C   0  0  0  0  0  0  0  0  0  0  0  0
  140.4960   68.2990  228.7050 Cl  0  0  0  0  0  0  0  0  0  0  0  0
  141.0670   70.7470  227.5950 C   0  0  0  0  0  0  0  0  0  0  0  0
  141.0920   71.6700  226.5600 C   0  0  0  0  0  0  0  0  0  0  0  0
  140.5910   71.3610  225.3120 C   0  0  0  0  0  0  0  0  0  0  0  0
  140.6140   72.2490  224.3150 N   0  0  0  0  0  0  0  0  0  0  0  0
  142.8115   78.6182  219.5708 H   0  0  0  0  0  0  0  0  0  0  0  0
  141.4582   78.0502  218.5352 H   0  0  0  0  0  0  0  0  0  0  0  0
  141.9218   79.7856  218.5352 H   0  0  0  0  0  0  0  0  0  0  0  0
  142.5810   81.1424  220.7890 H   0  0  0  0  0  0  0  0  0  0  0  0
  143.5078   81.6466  223.0272 H   0  0  0  0  0  0  0  0  0  0  0  0
  142.9067   80.2327  224.9898 H   0  0  0  0  0  0  0  0  0  0  0  0
  141.3857   78.3338  224.6566 H   0  0  0  0  0  0  0  0  0  0  0  0
  139.6635   77.3140  223.2754 H   0  0  0  0  0  0  0  0  0  0  0  0
  139.5462   77.8047  221.5005 H   0  0  0  0  0  0  0  0  0  0  0  0
  141.5500   75.8590  222.5410 H   0  0  0  0  0  0  0  0  0  0  0  0
  140.6128   73.8393  219.6096 H   0  0  0  0  0  0  0  0  0  0  0  0
  142.1921   74.6348  220.0604 H   0  0  0  0  0  0  0  0  0  0  0  0
  142.2320   73.3190  222.0240 H   0  0  0  0  0  0  0  0  0  0  0  0
  139.1764   70.3977  221.9066 H   0  0  0  0  0  0  0  0  0  0  0  0
  139.1277   68.7325  223.7632 H   0  0  0  0  0  0  0  0  0  0  0  0
  139.6051   68.1671  225.9893 H   0  0  0  0  0  0  0  0  0  0  0  0
  141.4748   71.0248  228.5781 H   0  0  0  0  0  0  0  0  0  0  0  0
  141.5196   72.6678  226.7375 H   0  0  0  0  0  0  0  0  0  0  0  0
  1  2  1  0
  2  3  1  0
  3  4  2  0
  4  5  1  0
  5  6  2  0
  6  7  1  0
  7  8  2  0
  8  9  1  0
  9 10  1  0
 10 11  1  0
 11 12  2  0
 11 13  1  0
 13 14  1  0
 14 15  1  0
 15 16  2  0
 15 17  1  0
 17 18  2  0
 18 19  1  0
 19 20  2  0
 20 21  1  0
 21 22  2  0
 22 23  1  0
 22 24  1  0
 24 25  2  0
 25 26  1  0
 26 27  2  0
  8  3  1  0
 27 17  1  0
 26 20  1  0
  1 28  1  0
  1 29  1  0
  1 30  1  0
  4 31  1  0
  5 32  1  0
  6 33  1  0
  7 34  1  0
  9 35  1  0
  9 36  1  0
 10 37  1  0
 13 38  1  0
 13 39  1  0
 14 40  1  0
 18 41  1  0
 19 42  1  0
 21 43  1  0
 24 44  1  0
 25 45  1  0
M  END
>  <smiles>  (1) 
COc1ccccc1CNC(=O)CNC(=O)c1ccc2cc(Cl)ccc2n1

>  <score_type>  (1) 
oracle

>  <origin>  (1) 
autodockgpu

>  <m_score__min__energy>  (1) 
-8.1300000000000008

>  <m_primary>  (1) 
energy

>  <rmsd>  (1) 
3.551877197528611

>  <m_score__min__rmsd>  (1) 
3.551877197528611

>  <meeko>  (1) 
{"free_energy": -7.63, "intermolecular_energy": -9.42, "internal_energy": -0.98, "cluster_size": 13, "cluster_id": 1, "rank_in_cluster": 8}

>  <energy>  (1) 
-8.13

>  <cluster_rmsd>  (1) 
0.0

>  <cluster>  (1) 
1

$$$$

     RDKit          3D

 45 47  0  0  0  0  0  0  0  0999 V2000
  143.7140   75.3240  219.7140 C   0  0  0  0  0  0  0  0  0  0  0  0
  142.3910   75.8420  219.8210 O   0  0  0  0  0  0  0  0  0  0  0  0
  142.2280   77.2230  219.6840 C   0  0  0  0  0  0  0  0  0  0  0  0
  142.7200   77.9060  218.5740 C   0  0  0  0  0  0  0  0  0  0  0  0
  142.5450   79.2740  218.4640 C   0  0  0  0  0  0  0  0  0  0  0  0
  141.8830   79.9840  219.4450 C   0  0  0  0  0  0  0  0  0  0  0  0
  141.4100   79.2910  220.5240 C   0  0  0  0  0  0  0  0  0  0  0  0
  141.5600   77.9190  220.6810 C   0  0  0  0  0  0  0  0  0  0  0  0
  141.0590   77.1700  221.8380 C   0  0  0  0  0  0  0  0  0  0  0  0
  140.4570   75.9060  221.5480 N   0  0  0  0  0  0  0  0  0  0  0  0
  139.0480   75.7320  221.4990 C   0  0  0  0  0  0  0  0  0  0  0  0
  138.2850   76.7130  221.7140 O   0  0  0  0  0  0  0  0  0  0  0  0
  138.5380   74.3750  221.1900 C   0  0  0  0  0  0  0  0  0  0  0  0
  138.5890   73.4770  222.3180 N   0  0  0  0  0  0  0  0  0  0  0  0
  139.8340   72.7730  222.5100 C   0  0  0  0  0  0  0  0  0  0  0  0
  140.7290   73.0310  221.6640 O   0  0  0  0  0  0  0  0  0  0  0  0
  140.0130   71.8380  223.6130 C   0  0  0  0  0  0  0  0  0  0  0  0
  139.6830   70.5140  223.3630 C   0  0  0  0  0  0  0  0  0  0  0  0
  139.8260   69.5630  224.3550 C   0  0  0  0  0  0  0  0  0  0  0  0
  140.3000   69.9650  225.5840 C   0  0  0  0  0  0  0  0  0  0  0  0
  140.4410   69.0050  226.5730 C   0  0  0  0  0  0  0  0  0  0  0  0
  140.9110   69.3590  227.8180 C   0  0  0  0  0  0  0  0  0  0  0  0
  141.0900   68.1440  229.0700 Cl  0  0  0  0  0  0  0  0  0  0  0  0
  141.2330   70.6870  228.0390 C   0  0  0  0  0  0  0  0  0  0  0  0
  141.0870   71.6350  227.0380 C   0  0  0  0  0  0  0  0  0  0  0  0
  140.6160   71.2900  225.7880 C   0  0  0  0  0  0  0  0  0  0  0  0
  140.4740   72.2020  224.8220 N   0  0  0  0  0  0  0  0  0  0  0  0
  144.1270   75.1623  220.7206 H   0  0  0  0  0  0  0  0  0  0  0  0
  143.6908   74.3686  219.1694 H   0  0  0  0  0  0  0  0  0  0  0  0
  144.3457   76.0412  219.1694 H   0  0  0  0  0  0  0  0  0  0  0  0
  143.2495   77.3557  217.7822 H   0  0  0  0  0  0  0  0  0  0  0  0
  142.9386   79.8026  217.5833 H   0  0  0  0  0  0  0  0  0  0  0  0
  141.7407   81.0715  219.3613 H   0  0  0  0  0  0  0  0  0  0  0  0
  140.8820   79.8500  221.3106 H   0  0  0  0  0  0  0  0  0  0  0  0
  141.9057   76.9926  222.5175 H   0  0  0  0  0  0  0  0  0  0  0  0
  140.2596   77.7891  222.2712 H   0  0  0  0  0  0  0  0  0  0  0  0
  141.0770   75.0820  221.3650 H   0  0  0  0  0  0  0  0  0  0  0  0
  137.4924   74.4616  220.8594 H   0  0  0  0  0  0  0  0  0  0  0  0
  139.1859   73.9532  220.4075 H   0  0  0  0  0  0  0  0  0  0  0  0
  137.7820   73.3240  222.9780 H   0  0  0  0  0  0  0  0  0  0  0  0
  139.3064   70.2204  222.3721 H   0  0  0  0  0  0  0  0  0  0  0  0
  139.5675   68.5103  224.1677 H   0  0  0  0  0  0  0  0  0  0  0  0
  140.1770   67.9580  226.3633 H   0  0  0  0  0  0  0  0  0  0  0  0
  141.6109   70.9952  229.0250 H   0  0  0  0  0  0  0  0  0  0  0  0
  141.3518   72.6825  227.2444 H   0  0  0  0  0  0  0  0  0  0  0  0
  1  2  1  0
  2  3  1  0
  3  4  2  0
  4  5  1  0
  5  6  2  0
  6  7  1  0
  7  8  2  0
  8  9  1  0
  9 10  1  0
 10 11  1  0
 11 12  2  0
 11 13  1  0
 13 14  1  0
 14 15  1  0
 15 16  2  0
 15 17  1  0
 17 18  2  0
 18 19  1  0
 19 20  2  0
 20 21  1  0
 21 22  2  0
 22 23  1  0
 22 24  1  0
 24 25  2  0
 25 26  1  0
 26 27  2  0
  8  3  1  0
 27 17  1  0
 26 20  1  0
  1 28  1  0
  1 29  1  0
  1 30  1  0
  4 31  1  0
  5 32  1  0
  6 33  1  0
  7 34  1  0
  9 35  1  0
  9 36  1  0
 10 37  1  0
 13 38  1  0
 13 39  1  0
 14 40  1  0
 18 41  1  0
 19 42  1  0
 21 43  1  0
 24 44  1  0
 25 45  1  0
M  END
>  <smiles>  (2) 
COc1ccccc1CNC(=O)CNC(=O)c1ccc2cc(Cl)ccc2n1

>  <score_type>  (2) 
oracle

>  <origin>  (2) 
autodockgpu

>  <m_score__min__energy>  (2) 
-8.1300000000000008

>  <m_primary>  (2) 
energy

>  <rmsd>  (2) 
2.598945681263898

>  <m_score__min__rmsd>  (2) 
2.598945681263898

>  <meeko>  (2) 
{"free_energy": -6.9, "intermolecular_energy": -8.69, "internal_energy": -2.11, "cluster_size": 3, "cluster_id": 3, "rank_in_cluster": 2}

>  <energy>  (2) 
-7.98

>  <cluster_rmsd>  (2) 
1.39

>  <cluster>  (2) 
1

$$$$

     RDKit          3D

 45 47  0  0  0  0  0  0  0  0999 V2000
  140.3010   67.3610  226.4140 C   0  0  0  0  0  0  0  0  0  0  0  0
  139.8270   68.5880  225.8660 O   0  0  0  0  0  0  0  0  0  0  0  0
  139.9830   69.7420  226.6400 C   0  0  0  0  0  0  0  0  0  0  0  0
  139.4760   69.8220  227.9340 C   0  0  0  0  0  0  0  0  0  0  0  0
  139.6440   70.9760  228.6780 C   0  0  0  0  0  0  0  0  0  0  0  0
  140.3150   72.0620  228.1560 C   0  0  0  0  0  0  0  0  0  0  0  0
  140.8040   71.9590  226.8840 C   0  0  0  0  0  0  0  0  0  0  0  0
  140.6610   70.8230  226.0970 C   0  0  0  0  0  0  0  0  0  0  0  0
  141.1790   70.7070  224.7300 C   0  0  0  0  0  0  0  0  0  0  0  0
  140.4230   71.3780  223.7190 N   0  0  0  0  0  0  0  0  0  0  0  0
  139.0880   71.0090  223.4020 C   0  0  0  0  0  0  0  0  0  0  0  0
  138.5330   70.0620  224.0230 O   0  0  0  0  0  0  0  0  0  0  0  0
  138.4020   71.7750  222.3350 C   0  0  0  0  0  0  0  0  0  0  0  0
  138.7240   73.1820  222.3480 N   0  0  0  0  0  0  0  0  0  0  0  0
  139.9290   73.5620  221.6500 C   0  0  0  0  0  0  0  0  0  0  0  0
  140.5560   72.6120  221.1110 O   0  0  0  0  0  0  0  0  0  0  0  0
  140.3630   74.9510  221.5900 C   0  0  0  0  0  0  0  0  0  0  0  0
  141.3630   75.2480  220.6760 C   0  0  0  0  0  0  0  0  0  0  0  0
  141.8300   76.5430  220.5540 C   0  0  0  0  0  0  0  0  0  0  0  0
  141.2790   77.5170  221.3570 C   0  0  0  0  0  0  0  0  0  0  0  0
  141.7530   78.8130  221.2280 C   0  0  0  0  0  0  0  0  0  0  0  0
  141.2320   79.8190  222.0090 C   0  0  0  0  0  0  0  0  0  0  0  0
  141.8310   81.4600  221.8460 Cl  0  0  0  0  0  0  0  0  0  0  0  0
  140.2350   79.4940  222.9120 C   0  0  0  0  0  0  0  0  0  0  0  0
  139.7710   78.1920  223.0280 C   0  0  0  0  0  0  0  0  0  0  0  0
  140.2870   77.1770  222.2500 C   0  0  0  0  0  0  0  0  0  0  0  0
  139.8430   75.9220  222.3610 N   0  0  0  0  0  0  0  0  0  0  0  0
  140.2792   67.4173  227.5123 H   0  0  0  0  0  0  0  0  0  0  0  0
  139.6570   66.5356  226.0763 H   0  0  0  0  0  0  0  0  0  0  0  0
  141.3326   67.1829  226.0763 H   0  0  0  0  0  0  0  0  0  0  0  0
  138.9398   68.9644  228.3665 H   0  0  0  0  0  0  0  0  0  0  0  0
  139.2373   71.0282  229.6987 H   0  0  0  0  0  0  0  0  0  0  0  0
  140.4521   72.9812  228.7444 H   0  0  0  0  0  0  0  0  0  0  0  0
  141.3394   72.8216  226.4606 H   0  0  0  0  0  0  0  0  0  0  0  0
  142.1984   71.1202  224.7192 H   0  0  0  0  0  0  0  0  0  0  0  0
  141.1273   69.6369  224.4808 H   0  0  0  0  0  0  0  0  0  0  0  0
  140.8690   72.1680  223.1950 H   0  0  0  0  0  0  0  0  0  0  0  0
  138.6967   71.3580  221.3607 H   0  0  0  0  0  0  0  0  0  0  0  0
  137.3201   71.6857  222.5127 H   0  0  0  0  0  0  0  0  0  0  0  0
  138.1340   73.9090  222.8310 H   0  0  0  0  0  0  0  0  0  0  0  0
  141.7855   74.4509  220.0466 H   0  0  0  0  0  0  0  0  0  0  0  0
  142.6229   76.7900  219.8327 H   0  0  0  0  0  0  0  0  0  0  0  0
  142.5467   79.0377  220.5003 H   0  0  0  0  0  0  0  0  0  0  0  0
  139.8035   80.2809  223.5481 H   0  0  0  0  0  0  0  0  0  0  0  0
  138.9766   77.9648  223.7541 H   0  0  0  0  0  0  0  0  0  0  0  0
  1  2  1  0
  2  3  1  0
  3  4  2  0
  4  5  1  0
  5  6  2  0
  6  7  1  0
  7  8  2  0
  8  9  1  0
  9 10  1  0
 10 11  1  0
 11 12  2  0
 11 13  1  0
 13 14  1  0
 14 15  1  0
 15 16  2  0
 15 17  1  0
 17 18  2  0
 18 19  1  0
 19 20  2  0
 20 21  1  0
 21 22  2  0
 22 23  1  0
 22 24  1  0
 24 25  2  0
 25 26  1  0
 26 27  2  0
  8  3  1  0
 27 17  1  0
 26 20  1  0
  1 28  1  0
  1 29  1  0
  1 30  1  0
  4 31  1  0
  5 32  1  0
  6 33  1  0
  7 34  1  0
  9 35  1  0
  9 36  1  0
 10 37  1  0
 13 38  1  0
 13 39  1  0
 14 40  1  0
 18 41  1  0
 19 42  1  0
 21 43  1  0
 24 44  1  0
 25 45  1  0
M  END
>  <smiles>  (3) 
COc1ccccc1CNC(=O)CNC(=O)c1ccc2cc(Cl)ccc2n1

>  <score_type>  (3) 
oracle

>  <origin>  (3) 
autodockgpu

>  <m_score__min__energy>  (3) 
-8.1300000000000008

>  <m_primary>  (3) 
energy

>  <rmsd>  (3) 
8.211203918070456

>  <m_score__min__rmsd>  (3) 
8.211203918070456

>  <meeko>  (3) 
{"free_energy": -7.65, "intermolecular_energy": -9.44, "internal_energy": -1.69, "cluster_size": 11, "cluster_id": 2, "rank_in_cluster": 3}

>  <energy>  (3) 
-7.94

>  <cluster_rmsd>  (3) 
1.39

>  <cluster>  (3) 
1

$$$$

     RDKit          3D

 45 47  0  0  0  0  0  0  0  0999 V2000
  142.1520   71.5090  218.7340 C   0  0  0  0  0  0  0  0  0  0  0  0
  142.3120   72.5290  219.7160 O   0  0  0  0  0  0  0  0  0  0  0  0
  143.6170   72.8790  220.0730 C   0  0  0  0  0  0  0  0  0  0  0  0
  144.6380   71.9310  220.1150 C   0  0  0  0  0  0  0  0  0  0  0  0
  145.9210   72.3040  220.4720 C   0  0  0  0  0  0  0  0  0  0  0  0
  146.2140   73.6140  220.7910 C   0  0  0  0  0  0  0  0  0  0  0  0
  145.1960   74.5250  220.7420 C   0  0  0  0  0  0  0  0  0  0  0  0
  143.8920   74.2000  220.3900 C   0  0  0  0  0  0  0  0  0  0  0  0
  142.7940   75.1730  220.3390 C   0  0  0  0  0  0  0  0  0  0  0  0
  141.5060   74.6750  220.7090 N   0  0  0  0  0  0  0  0  0  0  0  0
  140.3050   75.3440  220.3500 C   0  0  0  0  0  0  0  0  0  0  0  0
  140.3550   76.4120  219.6810 O   0  0  0  0  0  0  0  0  0  0  0  0
  139.0270   74.7350  220.7900 C   0  0  0  0  0  0  0  0  0  0  0  0
  139.1480   73.9810  222.0150 N   0  0  0  0  0  0  0  0  0  0  0  0
  139.6610   72.6390  221.8840 C   0  0  0  0  0  0  0  0  0  0  0  0
  139.9430   72.2880  220.7080 O   0  0  0  0  0  0  0  0  0  0  0  0
  139.8300   71.7760  223.0450 C   0  0  0  0  0  0  0  0  0  0  0  0
  139.4380   70.4540  222.8960 C   0  0  0  0  0  0  0  0  0  0  0  0
  139.5680   69.5680  223.9500 C   0  0  0  0  0  0  0  0  0  0  0  0
  140.0920   70.0330  225.1350 C   0  0  0  0  0  0  0  0  0  0  0  0
  140.2190   69.1390  226.1860 C   0  0  0  0  0  0  0  0  0  0  0  0
  140.7370   69.5580  227.3910 C   0  0  0  0  0  0  0  0  0  0  0  0
  140.8990   68.4250  228.7210 Cl  0  0  0  0  0  0  0  0  0  0  0  0
  141.1200   70.8820  227.5110 C   0  0  0  0  0  0  0  0  0  0  0  0
  140.9860   71.7640  226.4490 C   0  0  0  0  0  0  0  0  0  0  0  0
  140.4680   71.3540  225.2380 C   0  0  0  0  0  0  0  0  0  0  0  0
  140.3380   72.2030  224.2140 N   0  0  0  0  0  0  0  0  0  0  0  0
  142.0001   70.5404  219.2328 H   0  0  0  0  0  0  0  0  0  0  0  0
  141.2789   71.7388  218.1056 H   0  0  0  0  0  0  0  0  0  0  0  0
  143.0535   71.4604  218.1056 H   0  0  0  0  0  0  0  0  0  0  0  0
  144.4224   70.8821  219.8632 H   0  0  0  0  0  0  0  0  0  0  0  0
  146.7181   71.5466  220.5020 H   0  0  0  0  0  0  0  0  0  0  0  0
  147.2330   73.9153  221.0753 H   0  0  0  0  0  0  0  0  0  0  0  0
  145.4214   75.5715  220.9949 H   0  0  0  0  0  0  0  0  0  0  0  0
  143.0443   76.0008  221.0189 H   0  0  0  0  0  0  0  0  0  0  0  0
  142.7077   75.4723  219.2840 H   0  0  0  0  0  0  0  0  0  0  0  0
  141.4480   73.7880  221.2630 H   0  0  0  0  0  0  0  0  0  0  0  0
  138.2921   75.5386  220.9453 H   0  0  0  0  0  0  0  0  0  0  0  0
  138.7119   74.0329  220.0040 H   0  0  0  0  0  0  0  0  0  0  0  0
  138.8830   74.3620  222.9620 H   0  0  0  0  0  0  0  0  0  0  0  0
  139.0228   70.1094  221.9374 H   0  0  0  0  0  0  0  0  0  0  0  0
  139.2601   68.5173  223.8440 H   0  0  0  0  0  0  0  0  0  0  0  0
  139.9054   68.0925  226.0575 H   0  0  0  0  0  0  0  0  0  0  0  0
  141.5373   71.2408  228.4635 H   0  0  0  0  0  0  0  0  0  0  0  0
  141.2989   72.8110  226.5749 H   0  0  0  0  0  0  0  0  0  0  0  0
  1  2  1  0
  2  3  1  0
  3  4  2  0
  4  5  1  0
  5  6  2  0
  6  7  1  0
  7  8  2  0
  8  9  1  0
  9 10  1  0
 10 11  1  0
 11 12  2  0
 11 13  1  0
 13 14  1  0
 14 15  1  0
 15 16  2  0
 15 17  1  0
 17 18  2  0
 18 19  1  0
 19 20  2  0
 20 21  1  0
 21 22  2  0
 22 23  1  0
 22 24  1  0
 24 25  2  0
 25 26  1  0
 26 27  2  0
  8  3  1  0
 27 17  1  0
 26 20  1  0
  1 28  1  0
  1 29  1  0
  1 30  1  0
  4 31  1  0
  5 32  1  0
  6 33  1  0
  7 34  1  0
  9 35  1  0
  9 36  1  0
 10 37  1  0
 13 38  1  0
 13 39  1  0
 14 40  1  0
 18 41  1  0
 19 42  1  0
 21 43  1  0
 24 44  1  0
 25 45  1  0
M  END
>  <smiles>  (4) 
COc1ccccc1CNC(=O)CNC(=O)c1ccc2cc(Cl)ccc2n1

>  <score_type>  (4) 
oracle

>  <origin>  (4) 
autodockgpu

>  <m_score__min__energy>  (4) 
-8.1300000000000008

>  <m_primary>  (4) 
energy

>  <rmsd>  (4) 
3.2242034132805997

>  <m_score__min__rmsd>  (4) 
3.2242034132805997

>  <meeko>  (4) 
{"free_energy": -7.12, "intermolecular_energy": -8.91, "internal_energy": -2.21, "cluster_size": 12, "cluster_id": 5, "rank_in_cluster": 6}

>  <energy>  (4) 
-7.72

>  <cluster_rmsd>  (4) 
1.38

>  <cluster>  (4) 
1

$$$$

     RDKit          3D

 45 47  0  0  0  0  0  0  0  0999 V2000
  140.8000   71.8850  222.2730 C   0  0  0  0  0  0  0  0  0  0  0  0
  140.0410   72.3070  223.4030 O   0  0  0  0  0  0  0  0  0  0  0  0
  140.0150   71.4580  224.5130 C   0  0  0  0  0  0  0  0  0  0  0  0
  140.9140   71.6110  225.5660 C   0  0  0  0  0  0  0  0  0  0  0  0
  140.8660   70.7570  226.6530 C   0  0  0  0  0  0  0  0  0  0  0  0
  139.9310   69.7430  226.7150 C   0  0  0  0  0  0  0  0  0  0  0  0
  139.0600   69.6140  225.6700 C   0  0  0  0  0  0  0  0  0  0  0  0
  139.0680   70.4460  224.5570 C   0  0  0  0  0  0  0  0  0  0  0  0
  138.1390   70.3100  223.4300 C   0  0  0  0  0  0  0  0  0  0  0  0
  137.5620   71.5260  222.9490 N   0  0  0  0  0  0  0  0  0  0  0  0
  136.2140   71.8840  223.2190 C   0  0  0  0  0  0  0  0  0  0  0  0
  135.4860   71.1170  223.9070 O   0  0  0  0  0  0  0  0  0  0  0  0
  135.7250   73.1690  222.6680 C   0  0  0  0  0  0  0  0  0  0  0  0
  136.5760   74.2880  222.9920 N   0  0  0  0  0  0  0  0  0  0  0  0
  137.6320   74.5740  222.0500 C   0  0  0  0  0  0  0  0  0  0  0  0
  137.6800   73.8050  221.0540 O   0  0  0  0  0  0  0  0  0  0  0  0
  138.5580   75.6780  222.2620 C   0  0  0  0  0  0  0  0  0  0  0  0
  139.8900   75.4350  221.9600 C   0  0  0  0  0  0  0  0  0  0  0  0
  140.8330   76.4300  222.1300 C   0  0  0  0  0  0  0  0  0  0  0  0
  140.4160   77.6540  222.6040 C   0  0  0  0  0  0  0  0  0  0  0  0
  141.3680   78.6470  222.7720 C   0  0  0  0  0  0  0  0  0  0  0  0
  140.9980   79.8860  223.2430 C   0  0  0  0  0  0  0  0  0  0  0  0
  142.2040   81.1430  223.4560 Cl  0  0  0  0  0  0  0  0  0  0  0  0
  139.6630   80.1000  223.5370 C   0  0  0  0  0  0  0  0  0  0  0  0
  138.7220   79.0960  223.3630 C   0  0  0  0  0  0  0  0  0  0  0  0
  139.0840   77.8500  222.8910 C   0  0  0  0  0  0  0  0  0  0  0  0
  138.1790   76.8820  222.7240 N   0  0  0  0  0  0  0  0  0  0  0  0
  141.7140   71.3768  222.6142 H   0  0  0  0  0  0  0  0  0  0  0  0
  140.1995   71.1912  221.6663 H   0  0  0  0  0  0  0  0  0  0  0  0
  141.0724   72.7612  221.6663 H   0  0  0  0  0  0  0  0  0  0  0  0
  141.6650   72.4141  225.5329 H   0  0  0  0  0  0  0  0  0  0  0  0
  141.5816   70.8873  227.4782 H   0  0  0  0  0  0  0  0  0  0  0  0
  139.8886   69.0613  227.5773 H   0  0  0  0  0  0  0  0  0  0  0  0
  138.3123   68.8082  225.7121 H   0  0  0  0  0  0  0  0  0  0  0  0
  138.6850   69.8430  222.5971 H   0  0  0  0  0  0  0  0  0  0  0  0
  137.2983   69.7091  223.8068 H   0  0  0  0  0  0  0  0  0  0  0  0
  138.1550   72.1740  222.3780 H   0  0  0  0  0  0  0  0  0  0  0  0
  135.6665   73.0800  221.5732 H   0  0  0  0  0  0  0  0  0  0  0  0
  134.7417   73.3650  223.1203 H   0  0  0  0  0  0  0  0  0  0  0  0
  136.4580   74.8780  223.8570 H   0  0  0  0  0  0  0  0  0  0  0  0
  140.1960   74.4475  221.5842 H   0  0  0  0  0  0  0  0  0  0  0  0
  141.8917   76.2490  221.8925 H   0  0  0  0  0  0  0  0  0  0  0  0
  142.4214   78.4444  222.5284 H   0  0  0  0  0  0  0  0  0  0  0  0
  139.3428   81.0822  223.9148 H   0  0  0  0  0  0  0  0  0  0  0  0
  137.6679   79.2961  223.6055 H   0  0  0  0  0  0  0  0  0  0  0  0
  1  2  1  0
  2  3  1  0
  3  4  2  0
  4  5  1  0
  5  6  2  0
  6  7  1  0
  7  8  2  0
  8  9  1  0
  9 10  1  0
 10 11  1  0
 11 12  2  0
 11 13  1  0
 13 14  1  0
 14 15  1  0
 15 16  2  0
 15 17  1  0
 17 18  2  0
 18 19  1  0
 19 20  2  0
 20 21  1  0
 21 22  2  0
 22 23  1  0
 22 24  1  0
 24 25  2  0
 25 26  1  0
 26 27  2  0
  8  3  1  0
 27 17  1  0
 26 20  1  0
  1 28  1  0
  1 29  1  0
  1 30  1  0
  4 31  1  0
  5 32  1  0
  6 33  1  0
  7 34  1  0
  9 35  1  0
  9 36  1  0
 10 37  1  0
 13 38  1  0
 13 39  1  0
 14 40  1  0
 18 41  1  0
 19 42  1  0
 21 43  1  0
 24 44  1  0
 25 45  1  0
M  END
>  <smiles>  (5) 
COc1ccccc1CNC(=O)CNC(=O)c1ccc2cc(Cl)ccc2n1

>  <score_type>  (5) 
oracle

>  <origin>  (5) 
autodockgpu

>  <m_score__min__energy>  (5) 
-8.1300000000000008

>  <m_primary>  (5) 
energy

>  <rmsd>  (5) 
7.972063967211427

>  <m_score__min__rmsd>  (5) 
7.972063967211427

>  <meeko>  (5) 
{"free_energy": -6.65, "intermolecular_energy": -8.44, "internal_energy": -2.56, "cluster_size": 11, "cluster_id": 2, "rank_in_cluster": 11}

>  <energy>  (5) 
-7.67

>  <cluster_rmsd>  (5) 
1.53

>  <cluster>  (5) 
1

$$$$

     RDKit          3D

 45 47  0  0  0  0  0  0  0  0999 V2000
  141.0450   71.8560  222.4160 C   0  0  0  0  0  0  0  0  0  0  0  0
  140.2120   72.2690  223.4960 O   0  0  0  0  0  0  0  0  0  0  0  0
  140.2240   71.4870  224.6540 C   0  0  0  0  0  0  0  0  0  0  0  0
  141.0720   71.7790  225.7200 C   0  0  0  0  0  0  0  0  0  0  0  0
  141.0640   70.9870  226.8540 C   0  0  0  0  0  0  0  0  0  0  0  0
  140.2200   69.9000  226.9520 C   0  0  0  0  0  0  0  0  0  0  0  0
  139.3970   69.6340  225.8930 C   0  0  0  0  0  0  0  0  0  0  0  0
  139.3680   70.3990  224.7330 C   0  0  0  0  0  0  0  0  0  0  0  0
  138.4910   70.1160  223.5910 C   0  0  0  0  0  0  0  0  0  0  0  0
  137.9490   71.2590  222.9260 N   0  0  0  0  0  0  0  0  0  0  0  0
  136.6110   71.6910  223.1300 C   0  0  0  0  0  0  0  0  0  0  0  0
  135.8600   71.0590  223.9230 O   0  0  0  0  0  0  0  0  0  0  0  0
  136.1580   72.8890  222.3850 C   0  0  0  0  0  0  0  0  0  0  0  0
  136.9200   74.0740  222.6960 N   0  0  0  0  0  0  0  0  0  0  0  0
  138.0690   74.3250  221.8610 C   0  0  0  0  0  0  0  0  0  0  0  0
  138.2680   73.4730  220.9560 O   0  0  0  0  0  0  0  0  0  0  0  0
  138.9200   75.4890  222.0730 C   0  0  0  0  0  0  0  0  0  0  0  0
  140.2550   75.3520  221.7220 C   0  0  0  0  0  0  0  0  0  0  0  0
  141.1290   76.4100  221.8890 C   0  0  0  0  0  0  0  0  0  0  0  0
  140.6390   77.5880  222.4070 C   0  0  0  0  0  0  0  0  0  0  0  0
  141.5220   78.6440  222.5700 C   0  0  0  0  0  0  0  0  0  0  0  0
  141.0780   79.8420  223.0850 C   0  0  0  0  0  0  0  0  0  0  0  0
  142.1950   81.1790  223.2910 Cl  0  0  0  0  0  0  0  0  0  0  0  0
  139.7410   79.9500  223.4260 C   0  0  0  0  0  0  0  0  0  0  0  0
  138.8710   78.8830  223.2550 C   0  0  0  0  0  0  0  0  0  0  0  0
  139.3060   77.6790  222.7410 C   0  0  0  0  0  0  0  0  0  0  0  0
  138.4690   76.6510  222.5760 N   0  0  0  0  0  0  0  0  0  0  0  0
  141.9635   71.4006  222.8147 H   0  0  0  0  0  0  0  0  0  0  0  0
  140.5083   71.1196  221.7998 H   0  0  0  0  0  0  0  0  0  0  0  0
  141.3062   72.7290  221.7998 H   0  0  0  0  0  0  0  0  0  0  0  0
  141.7505   72.6427  225.6597 H   0  0  0  0  0  0  0  0  0  0  0  0
  141.7393   71.2269  227.6885 H   0  0  0  0  0  0  0  0  0  0  0  0
  140.2095   69.2682  227.8524 H   0  0  0  0  0  0  0  0  0  0  0  0
  138.7219   68.7684  225.9629 H   0  0  0  0  0  0  0  0  0  0  0  0
  139.0707   69.5402  222.8546 H   0  0  0  0  0  0  0  0  0  0  0  0
  137.6281   69.5729  224.0038 H   0  0  0  0  0  0  0  0  0  0  0  0
  138.5600   71.7960  222.2660 H   0  0  0  0  0  0  0  0  0  0  0  0
  136.2508   72.6865  221.3078 H   0  0  0  0  0  0  0  0  0  0  0  0
  135.1165   73.0833  222.6809 H   0  0  0  0  0  0  0  0  0  0  0  0
  136.6750   74.7340  223.4810 H   0  0  0  0  0  0  0  0  0  0  0  0
  140.6190   74.3993  221.3098 H   0  0  0  0  0  0  0  0  0  0  0  0
  142.1899   76.3132  221.6148 H   0  0  0  0  0  0  0  0  0  0  0  0
  142.5785   78.5252  222.2878 H   0  0  0  0  0  0  0  0  0  0  0  0
  139.3623   80.8966  223.8390 H   0  0  0  0  0  0  0  0  0  0  0  0
  137.8136   78.9993  223.5348 H   0  0  0  0  0  0  0  0  0  0  0  0
  1  2  1  0
  2  3  1  0
  3  4  2  0
  4  5  1  0
  5  6  2  0
  6  7  1  0
  7  8  2  0
  8  9  1  0
  9 10  1  0
 10 11  1  0
 11 12  2  0
 11 13  1  0
 13 14  1  0
 14 15  1  0
 15 16  2  0
 15 17  1  0
 17 18  2  0
 18 19  1  0
 19 20  2  0
 20 21  1  0
 21 22  2  0
 22 23  1  0
 22 24  1  0
 24 25  2  0
 25 26  1  0
 26 27  2  0
  8  3  1  0
 27 17  1  0
 26 20  1  0
  1 28  1  0
  1 29  1  0
  1 30  1  0
  4 31  1  0
  5 32  1  0
  6 33  1  0
  7 34  1  0
  9 35  1  0
  9 36  1  0
 10 37  1  0
 13 38  1  0
 13 39  1  0
 14 40  1  0
 18 41  1  0
 19 42  1  0
 21 43  1  0
 24 44  1  0
 25 45  1  0
M  END
>  <smiles>  (6) 
COc1ccccc1CNC(=O)CNC(=O)c1ccc2cc(Cl)ccc2n1

>  <score_type>  (6) 
oracle

>  <origin>  (6) 
autodockgpu

>  <m_score__min__energy>  (6) 
-8.1300000000000008

>  <m_primary>  (6) 
energy

>  <rmsd>  (6) 
7.96114201613971

>  <m_score__min__rmsd>  (6) 
7.96114201613971

>  <meeko>  (6) 
{"free_energy": -6.7, "intermolecular_energy": -8.49, "internal_energy": -2.54, "cluster_size": 11, "cluster_id": 2, "rank_in_cluster": 10}

>  <energy>  (6) 
-7.67

>  <cluster_rmsd>  (6) 
1.09

>  <cluster>  (6) 
1

$$$$

     RDKit          3D

 45 47  0  0  0  0  0  0  0  0999 V2000
  137.7050   69.0840  225.2010 C   0  0  0  0  0  0  0  0  0  0  0  0
  139.1240   69.1740  225.1110 O   0  0  0  0  0  0  0  0  0  0  0  0
  139.7760   69.9940  226.0360 C   0  0  0  0  0  0  0  0  0  0  0  0
  139.6910   69.7550  227.4060 C   0  0  0  0  0  0  0  0  0  0  0  0
  140.3470   70.5830  228.2990 C   0  0  0  0  0  0  0  0  0  0  0  0
  141.0940   71.6540  227.8540 C   0  0  0  0  0  0  0  0  0  0  0  0
  141.1630   71.8670  226.5060 C   0  0  0  0  0  0  0  0  0  0  0  0
  140.5230   71.0650  225.5690 C   0  0  0  0  0  0  0  0  0  0  0  0
  140.5880   71.2910  224.1210 C   0  0  0  0  0  0  0  0  0  0  0  0
  139.3310   71.4420  223.4570 N   0  0  0  0  0  0  0  0  0  0  0  0
  139.0670   72.5200  222.5710 C   0  0  0  0  0  0  0  0  0  0  0  0
  139.9590   73.3830  222.3470 O   0  0  0  0  0  0  0  0  0  0  0  0
  137.7260   72.5740  221.9420 C   0  0  0  0  0  0  0  0  0  0  0  0
  136.7710   73.3450  222.7010 N   0  0  0  0  0  0  0  0  0  0  0  0
  136.1750   72.6760  223.8320 C   0  0  0  0  0  0  0  0  0  0  0  0
  136.5640   71.4930  224.0180 O   0  0  0  0  0  0  0  0  0  0  0  0
  135.1970   73.3450  224.6790 C   0  0  0  0  0  0  0  0  0  0  0  0
  134.3590   72.5270  225.4240 C   0  0  0  0  0  0  0  0  0  0  0  0
  133.4050   73.0830  226.2550 C   0  0  0  0  0  0  0  0  0  0  0  0
  133.3120   74.4550  226.3200 C   0  0  0  0  0  0  0  0  0  0  0  0
  132.3530   75.0050  227.1560 C   0  0  0  0  0  0  0  0  0  0  0  0
  132.2230   76.3720  227.2540 C   0  0  0  0  0  0  0  0  0  0  0  0
  131.0090   77.0670  228.3130 Cl  0  0  0  0  0  0  0  0  0  0  0  0
  133.0720   77.1630  226.4990 C   0  0  0  0  0  0  0  0  0  0  0  0
  134.0270   76.5970  225.6680 C   0  0  0  0  0  0  0  0  0  0  0  0
  134.1650   75.2280  225.5630 C   0  0  0  0  0  0  0  0  0  0  0  0
  135.0840   74.6820  224.7620 N   0  0  0  0  0  0  0  0  0  0  0  0
  137.4052   69.0650  226.2592 H   0  0  0  0  0  0  0  0  0  0  0  0
  137.2503   69.9551  224.7067 H   0  0  0  0  0  0  0  0  0  0  0  0
  137.3640   68.1624  224.7067 H   0  0  0  0  0  0  0  0  0  0  0  0
  139.1003   68.9052  227.7787 H   0  0  0  0  0  0  0  0  0  0  0  0
  140.2720   70.3848  229.3784 H   0  0  0  0  0  0  0  0  0  0  0  0
  141.6169   72.3148  228.5611 H   0  0  0  0  0  0  0  0  0  0  0  0
  141.7569   72.7189  226.1432 H   0  0  0  0  0  0  0  0  0  0  0  0
  141.1728   72.2065  223.9484 H   0  0  0  0  0  0  0  0  0  0  0  0
  141.0420   70.3830  223.6974 H   0  0  0  0  0  0  0  0  0  0  0  0
  138.5800   70.7320  223.6320 H   0  0  0  0  0  0  0  0  0  0  0  0
  137.8261   73.0264  220.9443 H   0  0  0  0  0  0  0  0  0  0  0  0
  137.3470   71.5425  221.8928 H   0  0  0  0  0  0  0  0  0  0  0  0
  136.5060   74.3380  222.4670 H   0  0  0  0  0  0  0  0  0  0  0  0
  134.4544   71.4335  225.3528 H   0  0  0  0  0  0  0  0  0  0  0  0
  132.7358   72.4445  226.8504 H   0  0  0  0  0  0  0  0  0  0  0  0
  131.6943   74.3477  227.7425 H   0  0  0  0  0  0  0  0  0  0  0  0
  132.9877   78.2581  226.5592 H   0  0  0  0  0  0  0  0  0  0  0  0
  134.6875   77.2521  225.0810 H   0  0  0  0  0  0  0  0  0  0  0  0
  1  2  1  0
  2  3  1  0
  3  4  2  0
  4  5  1  0
  5  6  2  0
  6  7  1  0
  7  8  2  0
  8  9  1  0
  9 10  1  0
 10 11  1  0
 11 12  2  0
 11 13  1  0
 13 14  1  0
 14 15  1  0
 15 16  2  0
 15 17  1  0
 17 18  2  0
 18 19  1  0
 19 20  2  0
 20 21  1  0
 21 22  2  0
 22 23  1  0
 22 24  1  0
 24 25  2  0
 25 26  1  0
 26 27  2  0
  8  3  1  0
 27 17  1  0
 26 20  1  0
  1 28  1  0
  1 29  1  0
  1 30  1  0
  4 31  1  0
  5 32  1  0
  6 33  1  0
  7 34  1  0
  9 35  1  0
  9 36  1  0
 10 37  1  0
 13 38  1  0
 13 39  1  0
 14 40  1  0
 18 41  1  0
 19 42  1  0
 21 43  1  0
 24 44  1  0
 25 45  1  0
M  END
>  <smiles>  (7) 
COc1ccccc1CNC(=O)CNC(=O)c1ccc2cc(Cl)ccc2n1

>  <score_type>  (7) 
oracle

>  <origin>  (7) 
autodockgpu

>  <m_score__min__energy>  (7) 
-8.1300000000000008

>  <m_primary>  (7) 
energy

>  <rmsd>  (7) 
7.641051150323792

>  <m_score__min__rmsd>  (7) 
7.641051150323792

>  <meeko>  (7) 
{"free_energy": -6.87, "intermolecular_energy": -8.66, "internal_energy": -2.4, "cluster_size": 7, "cluster_id": 4, "rank_in_cluster": 3}

>  <energy>  (7) 
-7.65

>  <cluster_rmsd>  (7) 
1.01

>  <cluster>  (7) 
1

$$$$

     RDKit          3D

 45 47  0  0  0  0  0  0  0  0999 V2000
  139.5580   67.3810  226.4840 C   0  0  0  0  0  0  0  0  0  0  0  0
  139.5690   68.5730  225.7030 O   0  0  0  0  0  0  0  0  0  0  0  0
  140.0890   69.7260  226.2970 C   0  0  0  0  0  0  0  0  0  0  0  0
  140.2250   69.8340  227.6790 C   0  0  0  0  0  0  0  0  0  0  0  0
  140.7420   70.9870  228.2410 C   0  0  0  0  0  0  0  0  0  0  0  0
  141.1320   72.0470  227.4480 C   0  0  0  0  0  0  0  0  0  0  0  0
  140.9890   71.9170  226.0950 C   0  0  0  0  0  0  0  0  0  0  0  0
  140.4750   70.7800  225.4830 C   0  0  0  0  0  0  0  0  0  0  0  0
  140.3150   70.6360  224.0320 C   0  0  0  0  0  0  0  0  0  0  0  0
  139.3760   71.5230  223.4190 N   0  0  0  0  0  0  0  0  0  0  0  0
  138.1810   71.0580  222.8090 C   0  0  0  0  0  0  0  0  0  0  0  0
  137.9200   69.8240  222.8000 O   0  0  0  0  0  0  0  0  0  0  0  0
  137.2830   72.0700  222.2040 C   0  0  0  0  0  0  0  0  0  0  0  0
  137.7640   73.4220  222.3580 N   0  0  0  0  0  0  0  0  0  0  0  0
  139.0030   73.7330  221.6870 C   0  0  0  0  0  0  0  0  0  0  0  0
  139.5160   72.7800  221.0440 O   0  0  0  0  0  0  0  0  0  0  0  0
  139.5930   75.0620  221.7640 C   0  0  0  0  0  0  0  0  0  0  0  0
  140.8160   75.2350  221.1320 C   0  0  0  0  0  0  0  0  0  0  0  0
  141.4420   76.4670  221.1550 C   0  0  0  0  0  0  0  0  0  0  0  0
  140.8240   77.5030  221.8180 C   0  0  0  0  0  0  0  0  0  0  0  0
  141.4590   78.7350  221.8370 C   0  0  0  0  0  0  0  0  0  0  0  0
  140.8790   79.8010  222.4870 C   0  0  0  0  0  0  0  0  0  0  0  0
  141.6820   81.3610  222.5110 Cl  0  0  0  0  0  0  0  0  0  0  0  0
  139.6590   79.6000  223.1100 C   0  0  0  0  0  0  0  0  0  0  0  0
  139.0370   78.3600  223.0810 C   0  0  0  0  0  0  0  0  0  0  0  0
  139.6110   77.2860  222.4320 C   0  0  0  0  0  0  0  0  0  0  0  0
  139.0120   76.0920  222.4040 N   0  0  0  0  0  0  0  0  0  0  0  0
  139.5604   67.6426  227.5524 H   0  0  0  0  0  0  0  0  0  0  0  0
  138.6544   66.7984  226.2512 H   0  0  0  0  0  0  0  0  0  0  0  0
  140.4507   66.7819  226.2512 H   0  0  0  0  0  0  0  0  0  0  0  0
  139.9199   68.9985  228.3262 H   0  0  0  0  0  0  0  0  0  0  0  0
  140.8436   71.0601  229.3338 H   0  0  0  0  0  0  0  0  0  0  0  0
  141.5443   72.9660  227.8902 H   0  0  0  0  0  0  0  0  0  0  0  0
  141.2973   72.7576  225.4560 H   0  0  0  0  0  0  0  0  0  0  0  0
  141.2962   70.8081  223.5654 H   0  0  0  0  0  0  0  0  0  0  0  0
  139.9164   69.6230  223.8742 H   0  0  0  0  0  0  0  0  0  0  0  0
  139.5790   72.5520  223.4210 H   0  0  0  0  0  0  0  0  0  0  0  0
  137.1861   71.8537  221.1298 H   0  0  0  0  0  0  0  0  0  0  0  0
  136.3178   72.0050  222.7275 H   0  0  0  0  0  0  0  0  0  0  0  0
  137.2630   74.1570  222.9220 H   0  0  0  0  0  0  0  0  0  0  0  0
  141.2887   74.3893  220.6112 H   0  0  0  0  0  0  0  0  0  0  0  0
  142.4107   76.6160  220.6556 H   0  0  0  0  0  0  0  0  0  0  0  0
  142.4280   78.8611  221.3319 H   0  0  0  0  0  0  0  0  0  0  0  0
  139.1753   80.4362  223.6361 H   0  0  0  0  0  0  0  0  0  0  0  0
  138.0678   78.2307  223.5850 H   0  0  0  0  0  0  0  0  0  0  0  0
  1  2  1  0
  2  3  1  0
  3  4  2  0
  4  5  1  0
  5  6  2  0
  6  7  1  0
  7  8  2  0
  8  9  1  0
  9 10  1  0
 10 11  1  0
 11 12  2  0
 11 13  1  0
 13 14  1  0
 14 15  1  0
 15 16  2  0
 15 17  1  0
 17 18  2  0
 18 19  1  0
 19 20  2  0
 20 21  1  0
 21 22  2  0
 22 23  1  0
 22 24  1  0
 24 25  2  0
 25 26  1  0
 26 27  2  0
  8  3  1  0
 27 17  1  0
 26 20  1  0
  1 28  1  0
  1 29  1  0
  1 30  1  0
  4 31  1  0
  5 32  1  0
  6 33  1  0
  7 34  1  0
  9 35  1  0
  9 36  1  0
 10 37  1  0
 13 38  1  0
 13 39  1  0
 14 40  1  0
 18 41  1  0
 19 42  1  0
 21 43  1  0
 24 44  1  0
 25 45  1  0
M  END
>  <smiles>  (8) 
COc1ccccc1CNC(=O)CNC(=O)c1ccc2cc(Cl)ccc2n1

>  <score_type>  (8) 
oracle

>  <origin>  (8) 
autodockgpu

>  <m_score__min__energy>  (8) 
-8.1300000000000008

>  <m_primary>  (8) 
energy

>  <rmsd>  (8) 
7.930464980108164

>  <m_score__min__rmsd>  (8) 
7.930464980108164

>  <meeko>  (8) 
{"free_energy": -7.77, "intermolecular_energy": -9.56, "internal_energy": -1.31, "cluster_size": 11, "cluster_id": 2, "rank_in_cluster": 2}

>  <energy>  (8) 
-7.63

>  <cluster_rmsd>  (8) 
1.64

>  <cluster>  (8) 
1

$$$$

     RDKit          3D

 45 47  0  0  0  0  0  0  0  0999 V2000
  142.5850   70.5830  219.7190 C   0  0  0  0  0  0  0  0  0  0  0  0
  142.3750   71.9930  219.7330 O   0  0  0  0  0  0  0  0  0  0  0  0
  143.4510   72.8000  220.1110 C   0  0  0  0  0  0  0  0  0  0  0  0
  144.5760   72.2660  220.7350 C   0  0  0  0  0  0  0  0  0  0  0  0
  145.6270   73.0880  221.0990 C   0  0  0  0  0  0  0  0  0  0  0  0
  145.5830   74.4440  220.8510 C   0  0  0  0  0  0  0  0  0  0  0  0
  144.4680   74.9450  220.2380 C   0  0  0  0  0  0  0  0  0  0  0  0
  143.3870   74.1610  219.8540 C   0  0  0  0  0  0  0  0  0  0  0  0
  142.1860   74.6920  219.1990 C   0  0  0  0  0  0  0  0  0  0  0  0
  140.9400   74.1830  219.6790 N   0  0  0  0  0  0  0  0  0  0  0  0
  140.0400   74.9760  220.4400 C   0  0  0  0  0  0  0  0  0  0  0  0
  140.3310   76.1730  220.7100 O   0  0  0  0  0  0  0  0  0  0  0  0
  138.7780   74.3410  220.8850 C   0  0  0  0  0  0  0  0  0  0  0  0
  138.9160   73.6000  222.1160 N   0  0  0  0  0  0  0  0  0  0  0  0
  139.5180   72.2930  222.0040 C   0  0  0  0  0  0  0  0  0  0  0  0
  139.8510   71.9570  220.8370 O   0  0  0  0  0  0  0  0  0  0  0  0
  139.7140   71.4470  223.1730 C   0  0  0  0  0  0  0  0  0  0  0  0
  139.3380   70.1180  223.0460 C   0  0  0  0  0  0  0  0  0  0  0  0
  139.4940   69.2470  224.1080 C   0  0  0  0  0  0  0  0  0  0  0  0
  140.0260   69.7330  225.2810 C   0  0  0  0  0  0  0  0  0  0  0  0
  140.1790   68.8530  226.3400 C   0  0  0  0  0  0  0  0  0  0  0  0
  140.7070   69.2940  227.5330 C   0  0  0  0  0  0  0  0  0  0  0  0
  140.9010   68.1800  228.8750 Cl  0  0  0  0  0  0  0  0  0  0  0  0
  141.0740   70.6250  227.6320 C   0  0  0  0  0  0  0  0  0  0  0  0
  140.9150   71.4920  226.5610 C   0  0  0  0  0  0  0  0  0  0  0  0
  140.3860   71.0600  225.3620 C   0  0  0  0  0  0  0  0  0  0  0  0
  140.2310   71.8940  224.3300 N   0  0  0  0  0  0  0  0  0  0  0  0
  142.6405   70.2103  220.7524 H   0  0  0  0  0  0  0  0  0  0  0  0
  141.7499   70.0931  219.1969 H   0  0  0  0  0  0  0  0  0  0  0  0
  143.5266   70.3577  219.1969 H   0  0  0  0  0  0  0  0  0  0  0  0
  144.6287   71.1864  220.9391 H   0  0  0  0  0  0  0  0  0  0  0  0
  146.5094   72.6547  221.5927 H   0  0  0  0  0  0  0  0  0  0  0  0
  146.4176   75.1010  221.1370 H   0  0  0  0  0  0  0  0  0  0  0  0
  144.4246   76.0259  220.0383 H   0  0  0  0  0  0  0  0  0  0  0  0
  142.1806   75.7833  219.3372 H   0  0  0  0  0  0  0  0  0  0  0  0
  142.2536   74.3748  218.1479 H   0  0  0  0  0  0  0  0  0  0  0  0
  140.6830   73.1900  219.4610 H   0  0  0  0  0  0  0  0  0  0  0  0
  138.0243   75.1283  221.0338 H   0  0  0  0  0  0  0  0  0  0  0  0
  138.4802   73.6250  220.1048 H   0  0  0  0  0  0  0  0  0  0  0  0
  138.6050   73.9660  223.0540 H   0  0  0  0  0  0  0  0  0  0  0  0
  138.9145   69.7561  222.0975 H   0  0  0  0  0  0  0  0  0  0  0  0
  139.2001   68.1908  224.0180 H   0  0  0  0  0  0  0  0  0  0  0  0
  139.8784   67.8008  226.2278 H   0  0  0  0  0  0  0  0  0  0  0  0
  141.4983   71.0010  228.5746 H   0  0  0  0  0  0  0  0  0  0  0  0
  141.2164   72.5443  226.6696 H   0  0  0  0  0  0  0  0  0  0  0  0
  1  2  1  0
  2  3  1  0
  3  4  2  0
  4  5  1  0
  5  6  2  0
  6  7  1  0
  7  8  2  0
  8  9  1  0
  9 10  1  0
 10 11  1  0
 11 12  2  0
 11 13  1  0
 13 14  1  0
 14 15  1  0
 15 16  2  0
 15 17  1  0
 17 18  2  0
 18 19  1  0
 19 20  2  0
 20 21  1  0
 21 22  2  0
 22 23  1  0
 22 24  1  0
 24 25  2  0
 25 26  1  0
 26 27  2  0
  8  3  1  0
 27 17  1  0
 26 20  1  0
  1 28  1  0
  1 29  1  0
  1 30  1  0
  4 31  1  0
  5 32  1  0
  6 33  1  0
  7 34  1  0
  9 35  1  0
  9 36  1  0
 10 37  1  0
 13 38  1  0
 13 39  1  0
 14 40  1  0
 18 41  1  0
 19 42  1  0
 21 43  1  0
 24 44  1  0
 25 45  1  0
M  END
>  <smiles>  (9) 
COc1ccccc1CNC(=O)CNC(=O)c1ccc2cc(Cl)ccc2n1

>  <score_type>  (9) 
oracle

>  <origin>  (9) 
autodockgpu

>  <m_score__min__energy>  (9) 
-8.1300000000000008

>  <m_primary>  (9) 
energy

>  <rmsd>  (9) 
2.7338038895384633

>  <m_score__min__rmsd>  (9) 
2.7338038895384633

>  <meeko>  (9) 
{"free_energy": -7.02, "intermolecular_energy": -8.81, "internal_energy": -2.45, "cluster_size": 12, "cluster_id": 5, "rank_in_cluster": 10}

>  <energy>  (9) 
-7.39

>  <cluster_rmsd>  (9) 
1.29

>  <cluster>  (9) 
1

$$$$

     RDKit          3D

 45 47  0  0  0  0  0  0  0  0999 V2000
  137.6340   79.3500  222.7040 C   0  0  0  0  0  0  0  0  0  0  0  0
  138.7010   78.4080  222.6450 O   0  0  0  0  0  0  0  0  0  0  0  0
  140.0000   78.8950  222.8120 C   0  0  0  0  0  0  0  0  0  0  0  0
  140.3300   79.7330  223.8760 C   0  0  0  0  0  0  0  0  0  0  0  0
  141.6230   80.2020  224.0180 C   0  0  0  0  0  0  0  0  0  0  0  0
  142.6060   79.8500  223.1160 C   0  0  0  0  0  0  0  0  0  0  0  0
  142.2580   79.0270  222.0820 C   0  0  0  0  0  0  0  0  0  0  0  0
  140.9730   78.5300  221.8950 C   0  0  0  0  0  0  0  0  0  0  0  0
  140.5920   77.6500  220.7850 C   0  0  0  0  0  0  0  0  0  0  0  0
  139.6410   76.6310  221.0990 N   0  0  0  0  0  0  0  0  0  0  0  0
  139.7290   75.3200  220.5590 C   0  0  0  0  0  0  0  0  0  0  0  0
  140.6740   75.0250  219.7770 O   0  0  0  0  0  0  0  0  0  0  0  0
  138.6850   74.3460  220.9540 C   0  0  0  0  0  0  0  0  0  0  0  0
  139.0000   73.6350  222.1700 N   0  0  0  0  0  0  0  0  0  0  0  0
  139.0030   72.1950  222.0780 C   0  0  0  0  0  0  0  0  0  0  0  0
  138.7290   71.7320  220.9390 O   0  0  0  0  0  0  0  0  0  0  0  0
  139.3070   71.3630  223.2340 C   0  0  0  0  0  0  0  0  0  0  0  0
  138.9600   70.0230  223.1410 C   0  0  0  0  0  0  0  0  0  0  0  0
  139.2160   69.1640  224.1930 C   0  0  0  0  0  0  0  0  0  0  0  0
  139.8170   69.6730  225.3230 C   0  0  0  0  0  0  0  0  0  0  0  0
  140.0700   68.8060  226.3730 C   0  0  0  0  0  0  0  0  0  0  0  0
  140.6690   69.2690  227.5230 C   0  0  0  0  0  0  0  0  0  0  0  0
  140.9900   68.1710  228.8530 Cl  0  0  0  0  0  0  0  0  0  0  0  0
  141.0040   70.6110  227.5880 C   0  0  0  0  0  0  0  0  0  0  0  0
  140.7450   71.4660  226.5270 C   0  0  0  0  0  0  0  0  0  0  0  0
  140.1440   71.0100  225.3710 C   0  0  0  0  0  0  0  0  0  0  0  0
  139.8930   71.8330  224.3490 N   0  0  0  0  0  0  0  0  0  0  0  0
  137.3916   79.5640  223.7554 H   0  0  0  0  0  0  0  0  0  0  0  0
  137.9377   80.2800  222.2011 H   0  0  0  0  0  0  0  0  0  0  0  0
  136.7488   78.9334  222.2011 H   0  0  0  0  0  0  0  0  0  0  0  0
  139.5590   80.0222  224.6053 H   0  0  0  0  0  0  0  0  0  0  0  0
  141.8711   80.8641  224.8607 H   0  0  0  0  0  0  0  0  0  0  0  0
  143.6362   80.2198  223.2256 H   0  0  0  0  0  0  0  0  0  0  0  0
  143.0364   78.7424  221.3587 H   0  0  0  0  0  0  0  0  0  0  0  0
  140.1647   78.2768  219.9884 H   0  0  0  0  0  0  0  0  0  0  0  0
  141.5114   77.1215  220.4929 H   0  0  0  0  0  0  0  0  0  0  0  0
  138.8510   76.8600  221.7490 H   0  0  0  0  0  0  0  0  0  0  0  0
  137.7392   74.8881  221.1012 H   0  0  0  0  0  0  0  0  0  0  0  0
  138.6133   73.5999  220.1489 H   0  0  0  0  0  0  0  0  0  0  0  0
  139.2170   74.1120  223.0840 H   0  0  0  0  0  0  0  0  0  0  0  0
  138.4797   69.6431  222.2273 H   0  0  0  0  0  0  0  0  0  0  0  0
  138.9463   68.0995  224.1294 H   0  0  0  0  0  0  0  0  0  0  0  0
  139.7918   67.7452  226.2880 H   0  0  0  0  0  0  0  0  0  0  0  0
  141.4834   71.0055  228.4960 H   0  0  0  0  0  0  0  0  0  0  0  0
  141.0237   72.5270  226.6082 H   0  0  0  0  0  0  0  0  0  0  0  0
  1  2  1  0
  2  3  1  0
  3  4  2  0
  4  5  1  0
  5  6  2  0
  6  7  1  0
  7  8  2  0
  8  9  1  0
  9 10  1  0
 10 11  1  0
 11 12  2  0
 11 13  1  0
 13 14  1  0
 14 15  1  0
 15 16  2  0
 15 17  1  0
 17 18  2  0
 18 19  1  0
 19 20  2  0
 20 21  1  0
 21 22  2  0
 22 23  1  0
 22 24  1  0
 24 25  2  0
 25 26  1  0
 26 27  2  0
  8  3  1  0
 27 17  1  0
 26 20  1  0
  1 28  1  0
  1 29  1  0
  1 30  1  0
  4 31  1  0
  5 32  1  0
  6 33  1  0
  7 34  1  0
  9 35  1  0
  9 36  1  0
 10 37  1  0
 13 38  1  0
 13 39  1  0
 14 40  1  0
 18 41  1  0
 19 42  1  0
 21 43  1  0
 24 44  1  0
 25 45  1  0
M  END
>  <smiles>  (10) 
COc1ccccc1CNC(=O)CNC(=O)c1ccc2cc(Cl)ccc2n1

>  <score_type>  (10) 
oracle

>  <origin>  (10) 
autodockgpu

>  <m_score__min__energy>  (10) 
-8.1300000000000008

>  <m_primary>  (10) 
energy

>  <rmsd>  (10) 
3.04205973910991

>  <m_score__min__rmsd>  (10) 
3.04205973910991

>  <meeko>  (10) 
{"free_energy": -7.25, "intermolecular_energy": -9.04, "internal_energy": -1.46, "cluster_size": 13, "cluster_id": 1, "rank_in_cluster": 12}

>  <energy>  (10) 
-7.39

>  <cluster_rmsd>  (10) 
0.84

>  <cluster>  (10) 
1

$$$$

     RDKit          3D

 45 47  0  0  0  0  0  0  0  0999 V2000
  141.0330   71.8100  222.4690 C   0  0  0  0  0  0  0  0  0  0  0  0
  140.3160   72.2710  223.6110 O   0  0  0  0  0  0  0  0  0  0  0  0
  140.2880   71.4380  224.7320 C   0  0  0  0  0  0  0  0  0  0  0  0
  141.0590   71.7100  225.8600 C   0  0  0  0  0  0  0  0  0  0  0  0
  141.0130   70.8680  226.9560 C   0  0  0  0  0  0  0  0  0  0  0  0
  140.2050   69.7500  226.9550 C   0  0  0  0  0  0  0  0  0  0  0  0
  139.4570   69.5040  225.8380 C   0  0  0  0  0  0  0  0  0  0  0  0
  139.4700   70.3180  224.7120 C   0  0  0  0  0  0  0  0  0  0  0  0
  138.6730   70.0580  223.5080 C   0  0  0  0  0  0  0  0  0  0  0  0
  138.0380   71.1980  222.9240 N   0  0  0  0  0  0  0  0  0  0  0  0
  136.6520   71.4630  223.0950 C   0  0  0  0  0  0  0  0  0  0  0  0
  135.9430   70.6800  223.7830 O   0  0  0  0  0  0  0  0  0  0  0  0
  136.1030   72.6740  222.4420 C   0  0  0  0  0  0  0  0  0  0  0  0
  136.8680   73.8660  222.7180 N   0  0  0  0  0  0  0  0  0  0  0  0
  138.0240   74.0840  221.8820 C   0  0  0  0  0  0  0  0  0  0  0  0
  138.2250   73.2010  221.0070 O   0  0  0  0  0  0  0  0  0  0  0  0
  138.8790   75.2500  222.0590 C   0  0  0  0  0  0  0  0  0  0  0  0
  140.1980   75.1190  221.6530 C   0  0  0  0  0  0  0  0  0  0  0  0
  141.0740   76.1800  221.7840 C   0  0  0  0  0  0  0  0  0  0  0  0
  140.6030   77.3550  222.3240 C   0  0  0  0  0  0  0  0  0  0  0  0
  141.4880   78.4140  222.4520 C   0  0  0  0  0  0  0  0  0  0  0  0
  141.0620   79.6090  222.9870 C   0  0  0  0  0  0  0  0  0  0  0  0
  142.1830   80.9500  223.1490 Cl  0  0  0  0  0  0  0  0  0  0  0  0
  139.7400   79.7120  223.3840 C   0  0  0  0  0  0  0  0  0  0  0  0
  138.8680   78.6420  223.2480 C   0  0  0  0  0  0  0  0  0  0  0  0
  139.2850   77.4410  222.7140 C   0  0  0  0  0  0  0  0  0  0  0  0
  138.4460   76.4100  222.5840 N   0  0  0  0  0  0  0  0  0  0  0  0
  141.9166   71.2419  222.7955 H   0  0  0  0  0  0  0  0  0  0  0  0
  140.3822   71.1606  221.8650 H   0  0  0  0  0  0  0  0  0  0  0  0
  141.3537   72.6716  221.8650 H   0  0  0  0  0  0  0  0  0  0  0  0
  141.7073   72.5985  225.8789 H   0  0  0  0  0  0  0  0  0  0  0  0
  141.6284   71.0926  227.8396 H   0  0  0  0  0  0  0  0  0  0  0  0
  140.1641   69.0782  227.8251 H   0  0  0  0  0  0  0  0  0  0  0  0
  138.8103   68.6143  225.8299 H   0  0  0  0  0  0  0  0  0  0  0  0
  139.3388   69.6179  222.7511 H   0  0  0  0  0  0  0  0  0  0  0  0
  137.8574   69.3927  223.8276 H   0  0  0  0  0  0  0  0  0  0  0  0
  138.6150   71.8590  222.3510 H   0  0  0  0  0  0  0  0  0  0  0  0
  136.0919   72.5099  221.3544 H   0  0  0  0  0  0  0  0  0  0  0  0
  135.0926   72.8335  222.8466 H   0  0  0  0  0  0  0  0  0  0  0  0
  136.6220   74.5530  223.4780 H   0  0  0  0  0  0  0  0  0  0  0  0
  140.5484   74.1680  221.2254 H   0  0  0  0  0  0  0  0  0  0  0  0
  142.1225   76.0875  221.4643 H   0  0  0  0  0  0  0  0  0  0  0  0
  142.5322   78.2996  222.1257 H   0  0  0  0  0  0  0  0  0  0  0  0
  139.3755   80.6567  223.8138 H   0  0  0  0  0  0  0  0  0  0  0  0
  137.8229   78.7537  223.5726 H   0  0  0  0  0  0  0  0  0  0  0  0
  1  2  1  0
  2  3  1  0
  3  4  2  0
  4  5  1  0
  5  6  2  0
  6  7  1  0
  7  8  2  0
  8  9  1  0
  9 10  1  0
 10 11  1  0
 11 12  2  0
 11 13  1  0
 13 14  1  0
 14 15  1  0
 15 16  2  0
 15 17  1  0
 17 18  2  0
 18 19  1  0
 19 20  2  0
 20 21  1  0
 21 22  2  0
 22 23  1  0
 22 24  1  0
 24 25  2  0
 25 26  1  0
 26 27  2  0
  8  3  1  0
 27 17  1  0
 26 20  1  0
  1 28  1  0
  1 29  1  0
  1 30  1  0
  4 31  1  0
  5 32  1  0
  6 33  1  0
  7 34  1  0
  9 35  1  0
  9 36  1  0
 10 37  1  0
 13 38  1  0
 13 39  1  0
 14 40  1  0
 18 41  1  0
 19 42  1  0
 21 43  1  0
 24 44  1  0
 25 45  1  0
M  END
>  <smiles>  (11) 
COc1ccccc1CNC(=O)CNC(=O)c1ccc2cc(Cl)ccc2n1

>  <score_type>  (11) 
oracle

>  <origin>  (11) 
autodockgpu

>  <m_score__min__energy>  (11) 
-8.1300000000000008

>  <m_primary>  (11) 
energy

>  <rmsd>  (11) 
7.894058449780719

>  <m_score__min__rmsd>  (11) 
7.894058449780719

>  <meeko>  (11) 
{"free_energy": -6.73, "intermolecular_energy": -8.52, "internal_energy": -2.52, "cluster_size": 11, "cluster_id": 2, "rank_in_cluster": 9}

>  <energy>  (11) 
-7.38

>  <cluster_rmsd>  (11) 
1.07

>  <cluster>  (11) 
1

$$$$

     RDKit          3D

 45 47  0  0  0  0  0  0  0  0999 V2000
  140.6750   71.6840  222.8230 C   0  0  0  0  0  0  0  0  0  0  0  0
  140.0440   72.1570  224.0100 O   0  0  0  0  0  0  0  0  0  0  0  0
  140.0940   71.3320  225.1370 C   0  0  0  0  0  0  0  0  0  0  0  0
  141.0340   71.5340  226.1450 C   0  0  0  0  0  0  0  0  0  0  0  0
  141.0610   70.7030  227.2500 C   0  0  0  0  0  0  0  0  0  0  0  0
  140.1620   69.6640  227.3750 C   0  0  0  0  0  0  0  0  0  0  0  0
  139.2490   69.4860  226.3740 C   0  0  0  0  0  0  0  0  0  0  0  0
  139.1820   70.2940  225.2440 C   0  0  0  0  0  0  0  0  0  0  0  0
  138.2070   70.1060  224.1640 C   0  0  0  0  0  0  0  0  0  0  0  0
  137.6090   71.2990  223.6520 N   0  0  0  0  0  0  0  0  0  0  0  0
  136.6610   71.2770  222.5940 C   0  0  0  0  0  0  0  0  0  0  0  0
  136.3200   70.1780  222.0780 O   0  0  0  0  0  0  0  0  0  0  0  0
  136.1090   72.5760  222.1440 C   0  0  0  0  0  0  0  0  0  0  0  0
  136.9070   73.7070  222.5550 N   0  0  0  0  0  0  0  0  0  0  0  0
  137.9380   74.1210  221.6340 C   0  0  0  0  0  0  0  0  0  0  0  0
  138.0150   73.4400  220.5780 O   0  0  0  0  0  0  0  0  0  0  0  0
  138.8110   75.2480  221.9320 C   0  0  0  0  0  0  0  0  0  0  0  0
  140.1640   75.0650  221.6870 C   0  0  0  0  0  0  0  0  0  0  0  0
  141.0600   76.0870  221.9410 C   0  0  0  0  0  0  0  0  0  0  0  0
  140.5750   77.2760  222.4370 C   0  0  0  0  0  0  0  0  0  0  0  0
  141.4790   78.2950  222.6880 C   0  0  0  0  0  0  0  0  0  0  0  0
  141.0410   79.5010  223.1850 C   0  0  0  0  0  0  0  0  0  0  0  0
  142.1860   80.7920  223.5020 Cl  0  0  0  0  0  0  0  0  0  0  0  0
  139.6850   79.6560  223.4190 C   0  0  0  0  0  0  0  0  0  0  0  0
  138.7930   78.6260  223.1620 C   0  0  0  0  0  0  0  0  0  0  0  0
  139.2230   77.4130  222.6650 C   0  0  0  0  0  0  0  0  0  0  0  0
  138.3650   76.4200  222.4170 N   0  0  0  0  0  0  0  0  0  0  0  0
  141.5285   71.0442  223.0915 H   0  0  0  0  0  0  0  0  0  0  0  0
  139.9531   71.1027  222.2306 H   0  0  0  0  0  0  0  0  0  0  0  0
  141.0305   72.5400  222.2306 H   0  0  0  0  0  0  0  0  0  0  0  0
  141.7579   72.3580  226.0617 H   0  0  0  0  0  0  0  0  0  0  0  0
  141.8085   70.8725  228.0390 H   0  0  0  0  0  0  0  0  0  0  0  0
  140.1796   69.0004  228.2521 H   0  0  0  0  0  0  0  0  0  0  0  0
  138.5288   68.6598  226.4669 H   0  0  0  0  0  0  0  0  0  0  0  0
  138.7185   69.6006  223.3316 H   0  0  0  0  0  0  0  0  0  0  0  0
  137.3836   69.5232  224.6026 H   0  0  0  0  0  0  0  0  0  0  0  0
  137.8810   72.2200  224.0710 H   0  0  0  0  0  0  0  0  0  0  0  0
  136.0515   72.5696  221.0455 H   0  0  0  0  0  0  0  0  0  0  0  0
  135.1187   72.6888  222.6093 H   0  0  0  0  0  0  0  0  0  0  0  0
  136.7680   74.2170  223.4670 H   0  0  0  0  0  0  0  0  0  0  0  0
  140.5249   74.1048  221.2898 H   0  0  0  0  0  0  0  0  0  0  0  0
  142.1352   75.9531  221.7512 H   0  0  0  0  0  0  0  0  0  0  0  0
  142.5498   78.1397  222.4895 H   0  0  0  0  0  0  0  0  0  0  0  0
  139.3096   80.6111  223.8150 H   0  0  0  0  0  0  0  0  0  0  0  0
  137.7215   78.7790  223.3582 H   0  0  0  0  0  0  0  0  0  0  0  0
  1  2  1  0
  2  3  1  0
  3  4  2  0
  4  5  1  0
  5  6  2  0
  6  7  1  0
  7  8  2  0
  8  9  1  0
  9 10  1  0
 10 11  1  0
 11 12  2  0
 11 13  1  0
 13 14  1  0
 14 15  1  0
 15 16  2  0
 15 17  1  0
 17 18  2  0
 18 19  1  0
 19 20  2  0
 20 21  1  0
 21 22  2  0
 22 23  1  0
 22 24  1  0
 24 25  2  0
 25 26  1  0
 26 27  2  0
  8  3  1  0
 27 17  1  0
 26 20  1  0
  1 28  1  0
  1 29  1  0
  1 30  1  0
  4 31  1  0
  5 32  1  0
  6 33  1  0
  7 34  1  0
  9 35  1  0
  9 36  1  0
 10 37  1  0
 13 38  1  0
 13 39  1  0
 14 40  1  0
 18 41  1  0
 19 42  1  0
 21 43  1  0
 24 44  1  0
 25 45  1  0
M  END
>  <smiles>  (12) 
COc1ccccc1CNC(=O)CNC(=O)c1ccc2cc(Cl)ccc2n1

>  <score_type>  (12) 
oracle

>  <origin>  (12) 
autodockgpu

>  <m_score__min__energy>  (12) 
-8.1300000000000008

>  <m_primary>  (12) 
energy

>  <rmsd>  (12) 
8.008835456235223

>  <m_score__min__rmsd>  (12) 
8.008835456235223

>  <meeko>  (12) 
{"free_energy": -7.4, "intermolecular_energy": -9.19, "internal_energy": -1.83, "cluster_size": 11, "cluster_id": 2, "rank_in_cluster": 5}

>  <energy>  (12) 
-7.25

>  <cluster_rmsd>  (12) 
1.07

>  <cluster>  (12) 
1

$$$$

     RDKit          3D

 45 47  0  0  0  0  0  0  0  0999 V2000
  138.4790   78.2670  222.6620 C   0  0  0  0  0  0  0  0  0  0  0  0
  139.4010   78.9140  221.7890 O   0  0  0  0  0  0  0  0  0  0  0  0
  140.5500   79.4670  222.3610 C   0  0  0  0  0  0  0  0  0  0  0  0
  140.4760   80.3190  223.4600 C   0  0  0  0  0  0  0  0  0  0  0  0
  141.6290   80.8530  224.0070 C   0  0  0  0  0  0  0  0  0  0  0  0
  142.8670   80.5520  223.4780 C   0  0  0  0  0  0  0  0  0  0  0  0
  142.9140   79.7130  222.4000 C   0  0  0  0  0  0  0  0  0  0  0  0
  141.7850   79.1520  221.8150 C   0  0  0  0  0  0  0  0  0  0  0  0
  141.8270   78.2550  220.6550 C   0  0  0  0  0  0  0  0  0  0  0  0
  140.9870   77.1010  220.7310 N   0  0  0  0  0  0  0  0  0  0  0  0
  141.4650   75.7960  220.4370 C   0  0  0  0  0  0  0  0  0  0  0  0
  142.6680   75.6280  220.0980 O   0  0  0  0  0  0  0  0  0  0  0  0
  140.5020   74.6750  220.5480 C   0  0  0  0  0  0  0  0  0  0  0  0
  140.7050   73.8650  221.7250 N   0  0  0  0  0  0  0  0  0  0  0  0
  139.7820   72.7720  221.9080 C   0  0  0  0  0  0  0  0  0  0  0  0
  138.9060   72.6570  221.0110 O   0  0  0  0  0  0  0  0  0  0  0  0
  139.8800   71.8800  223.0560 C   0  0  0  0  0  0  0  0  0  0  0  0
  139.4160   70.5860  222.8770 C   0  0  0  0  0  0  0  0  0  0  0  0
  139.4760   69.6770  223.9160 C   0  0  0  0  0  0  0  0  0  0  0  0
  140.0030   70.0900  225.1190 C   0  0  0  0  0  0  0  0  0  0  0  0
  140.0600   69.1720  226.1560 C   0  0  0  0  0  0  0  0  0  0  0  0
  140.5780   69.5400  227.3760 C   0  0  0  0  0  0  0  0  0  0  0  0
  140.6510   68.3780  228.6890 Cl  0  0  0  0  0  0  0  0  0  0  0  0
  141.0340   70.8380  227.5270 C   0  0  0  0  0  0  0  0  0  0  0  0
  140.9710   71.7450  226.4790 C   0  0  0  0  0  0  0  0  0  0  0  0
  140.4520   71.3850  225.2520 C   0  0  0  0  0  0  0  0  0  0  0  0
  140.3900   72.2570  224.2420 N   0  0  0  0  0  0  0  0  0  0  0  0
  138.7618   78.4655  223.7063 H   0  0  0  0  0  0  0  0  0  0  0  0
  137.4658   78.6532  222.4768 H   0  0  0  0  0  0  0  0  0  0  0  0
  138.4977   77.1829  222.4768 H   0  0  0  0  0  0  0  0  0  0  0  0
  139.4969   80.5684  223.8949 H   0  0  0  0  0  0  0  0  0  0  0  0
  141.5578   81.5258  224.8743 H   0  0  0  0  0  0  0  0  0  0  0  0
  143.7867   80.9736  223.9098 H   0  0  0  0  0  0  0  0  0  0  0  0
  143.8978   79.4688  221.9727 H   0  0  0  0  0  0  0  0  0  0  0  0
  141.5260   78.8340  219.7695 H   0  0  0  0  0  0  0  0  0  0  0  0
  142.8573   77.8724  220.6100 H   0  0  0  0  0  0  0  0  0  0  0  0
  139.9860   77.2230  221.0130 H   0  0  0  0  0  0  0  0  0  0  0  0
  139.4841   75.0906  220.5811 H   0  0  0  0  0  0  0  0  0  0  0  0
  140.6550   74.0251  219.6738 H   0  0  0  0  0  0  0  0  0  0  0  0
  141.4720   74.0400  222.4270 H   0  0  0  0  0  0  0  0  0  0  0  0
  138.9990   70.2821  221.9055 H   0  0  0  0  0  0  0  0  0  0  0  0
  139.1112   68.6475  223.7850 H   0  0  0  0  0  0  0  0  0  0  0  0
  139.6903   68.1473  226.0031 H   0  0  0  0  0  0  0  0  0  0  0  0
  141.4530   71.1555  228.4932 H   0  0  0  0  0  0  0  0  0  0  0  0
  141.3415   72.7698  226.6289 H   0  0  0  0  0  0  0  0  0  0  0  0
  1  2  1  0
  2  3  1  0
  3  4  2  0
  4  5  1  0
  5  6  2  0
  6  7  1  0
  7  8  2  0
  8  9  1  0
  9 10  1  0
 10 11  1  0
 11 12  2  0
 11 13  1  0
 13 14  1  0
 14 15  1  0
 15 16  2  0
 15 17  1  0
 17 18  2  0
 18 19  1  0
 19 20  2  0
 20 21  1  0
 21 22  2  0
 22 23  1  0
 22 24  1  0
 24 25  2  0
 25 26  1  0
 26 27  2  0
  8  3  1  0
 27 17  1  0
 26 20  1  0
  1 28  1  0
  1 29  1  0
  1 30  1  0
  4 31  1  0
  5 32  1  0
  6 33  1  0
  7 34  1  0
  9 35  1  0
  9 36  1  0
 10 37  1  0
 13 38  1  0
 13 39  1  0
 14 40  1  0
 18 41  1  0
 19 42  1  0
 21 43  1  0
 24 44  1  0
 25 45  1  0
M  END
>  <smiles>  (13) 
COc1ccccc1CNC(=O)CNC(=O)c1ccc2cc(Cl)ccc2n1

>  <score_type>  (13) 
oracle

>  <origin>  (13) 
autodockgpu

>  <m_score__min__energy>  (13) 
-8.1300000000000008

>  <m_primary>  (13) 
energy

>  <rmsd>  (13) 
3.55689721614326

>  <m_score__min__rmsd>  (13) 
3.55689721614326

>  <meeko>  (13) 
{"free_energy": -7.16, "intermolecular_energy": -8.95, "internal_energy": -1.47, "cluster_size": 13, "cluster_id": 1, "rank_in_cluster": 13}

>  <energy>  (13) 
-7.16

>  <cluster_rmsd>  (13) 
1.6

>  <cluster>  (13) 
1

$$$$

     RDKit          3D

 45 47  0  0  0  0  0  0  0  0999 V2000
  142.0290   78.1580  219.5150 C   0  0  0  0  0  0  0  0  0  0  0  0
  141.8070   77.6740  220.8370 O   0  0  0  0  0  0  0  0  0  0  0  0
  141.5510   78.6190  221.8340 C   0  0  0  0  0  0  0  0  0  0  0  0
  142.5810   79.3470  222.4260 C   0  0  0  0  0  0  0  0  0  0  0  0
  142.3000   80.2760  223.4110 C   0  0  0  0  0  0  0  0  0  0  0  0
  141.0020   80.5000  223.8230 C   0  0  0  0  0  0  0  0  0  0  0  0
  140.0100   79.7750  223.2270 C   0  0  0  0  0  0  0  0  0  0  0  0
  140.2410   78.8300  222.2340 C   0  0  0  0  0  0  0  0  0  0  0  0
  139.1800   78.0440  221.5930 C   0  0  0  0  0  0  0  0  0  0  0  0
  139.4790   76.6650  221.3660 N   0  0  0  0  0  0  0  0  0  0  0  0
  138.4640   75.6750  221.2750 C   0  0  0  0  0  0  0  0  0  0  0  0
  137.2520   76.0050  221.3920 O   0  0  0  0  0  0  0  0  0  0  0  0
  138.8930   74.2760  221.0400 C   0  0  0  0  0  0  0  0  0  0  0  0
  139.2210   73.5690  222.2540 N   0  0  0  0  0  0  0  0  0  0  0  0
  139.1250   72.1310  222.1950 C   0  0  0  0  0  0  0  0  0  0  0  0
  138.7650   71.6650  221.0820 O   0  0  0  0  0  0  0  0  0  0  0  0
  139.4300   71.3030  223.3540 C   0  0  0  0  0  0  0  0  0  0  0  0
  139.1260   69.9530  223.2480 C   0  0  0  0  0  0  0  0  0  0  0  0
  139.3860   69.0980  224.3020 C   0  0  0  0  0  0  0  0  0  0  0  0
  139.9490   69.6200  225.4450 C   0  0  0  0  0  0  0  0  0  0  0  0
  140.2070   68.7560  226.4970 C   0  0  0  0  0  0  0  0  0  0  0  0
  140.7690   69.2310  227.6600 C   0  0  0  0  0  0  0  0  0  0  0  0
  141.0960   68.1370  228.9920 Cl  0  0  0  0  0  0  0  0  0  0  0  0
  141.0620   70.5820  227.7380 C   0  0  0  0  0  0  0  0  0  0  0  0
  140.7980   71.4330  226.6750 C   0  0  0  0  0  0  0  0  0  0  0  0
  140.2350   70.9660  225.5060 C   0  0  0  0  0  0  0  0  0  0  0  0
  139.9790   71.7850  224.4820 N   0  0  0  0  0  0  0  0  0  0  0  0
  142.4872   79.1569  219.5624 H   0  0  0  0  0  0  0  0  0  0  0  0
  142.7019   77.4709  218.9811 H   0  0  0  0  0  0  0  0  0  0  0  0
  141.0692   78.2198  218.9811 H   0  0  0  0  0  0  0  0  0  0  0  0
  143.6213   79.1822  222.1087 H   0  0  0  0  0  0  0  0  0  0  0  0
  143.1216   80.8438  223.8721 H   0  0  0  0  0  0  0  0  0  0  0  0
  140.7740   81.2384  224.6058 H   0  0  0  0  0  0  0  0  0  0  0  0
  138.9728   79.9480  223.5499 H   0  0  0  0  0  0  0  0  0  0  0  0
  138.2878   78.0948  222.2344 H   0  0  0  0  0  0  0  0  0  0  0  0
  139.0399   78.4876  220.5962 H   0  0  0  0  0  0  0  0  0  0  0  0
  140.4810   76.3760  221.2650 H   0  0  0  0  0  0  0  0  0  0  0  0
  138.0763   73.7406  220.5337 H   0  0  0  0  0  0  0  0  0  0  0  0
  139.8059   74.3133  220.4275 H   0  0  0  0  0  0  0  0  0  0  0  0
  139.5140   74.0490  223.1460 H   0  0  0  0  0  0  0  0  0  0  0  0
  138.6770   69.5627  222.3228 H   0  0  0  0  0  0  0  0  0  0  0  0
  139.1489   68.0263  224.2296 H   0  0  0  0  0  0  0  0  0  0  0  0
  139.9620   67.6878  226.4024 H   0  0  0  0  0  0  0  0  0  0  0  0
  141.5110   70.9866  228.6571 H   0  0  0  0  0  0  0  0  0  0  0  0
  141.0426   72.5016  226.7663 H   0  0  0  0  0  0  0  0  0  0  0  0
  1  2  1  0
  2  3  1  0
  3  4  2  0
  4  5  1  0
  5  6  2  0
  6  7  1  0
  7  8  2  0
  8  9  1  0
  9 10  1  0
 10 11  1  0
 11 12  2  0
 11 13  1  0
 13 14  1  0
 14 15  1  0
 15 16  2  0
 15 17  1  0
 17 18  2  0
 18 19  1  0
 19 20  2  0
 20 21  1  0
 21 22  2  0
 22 23  1  0
 22 24  1  0
 24 25  2  0
 25 26  1  0
 26 27  2  0
  8  3  1  0
 27 17  1  0
 26 20  1  0
  1 28  1  0
  1 29  1  0
  1 30  1  0
  4 31  1  0
  5 32  1  0
  6 33  1  0
  7 34  1  0
  9 35  1  0
  9 36  1  0
 10 37  1  0
 13 38  1  0
 13 39  1  0
 14 40  1  0
 18 41  1  0
 19 42  1  0
 21 43  1  0
 24 44  1  0
 25 45  1  0
M  END
>  <smiles>  (14) 
COc1ccccc1CNC(=O)CNC(=O)c1ccc2cc(Cl)ccc2n1

>  <score_type>  (14) 
oracle

>  <origin>  (14) 
autodockgpu

>  <m_score__min__energy>  (14) 
-8.1300000000000008

>  <m_primary>  (14) 
energy

>  <rmsd>  (14) 
3.160900698535418

>  <m_score__min__rmsd>  (14) 
3.160900698535418

>  <meeko>  (14) 
{"free_energy": -7.39, "intermolecular_energy": -9.18, "internal_energy": -1.46, "cluster_size": 13, "cluster_id": 1, "rank_in_cluster": 9}

>  <energy>  (14) 
-8.01

>  <cluster_rmsd>  (14) 
0.0

>  <cluster>  (14) 
2

$$$$

     RDKit          3D

 45 47  0  0  0  0  0  0  0  0999 V2000
  140.9590   71.6900  222.7200 C   0  0  0  0  0  0  0  0  0  0  0  0
  140.1900   72.2020  223.8050 O   0  0  0  0  0  0  0  0  0  0  0  0
  140.2190   71.4890  225.0070 C   0  0  0  0  0  0  0  0  0  0  0  0
  141.0620   71.8600  226.0520 C   0  0  0  0  0  0  0  0  0  0  0  0
  141.0710   71.1360  227.2310 C   0  0  0  0  0  0  0  0  0  0  0  0
  140.2480   70.0400  227.3940 C   0  0  0  0  0  0  0  0  0  0  0  0
  139.4300   69.6960  226.3550 C   0  0  0  0  0  0  0  0  0  0  0  0
  139.3850   70.3910  225.1510 C   0  0  0  0  0  0  0  0  0  0  0  0
  138.5120   70.0240  224.0300 C   0  0  0  0  0  0  0  0  0  0  0  0
  137.9670   71.1150  223.2850 N   0  0  0  0  0  0  0  0  0  0  0  0
  136.5740   71.3920  223.2570 C   0  0  0  0  0  0  0  0  0  0  0  0
  135.7750   70.6630  223.9060 O   0  0  0  0  0  0  0  0  0  0  0  0
  136.1230   72.5490  222.4480 C   0  0  0  0  0  0  0  0  0  0  0  0
  136.8710   73.7540  222.7130 N   0  0  0  0  0  0  0  0  0  0  0  0
  138.0500   73.9570  221.9070 C   0  0  0  0  0  0  0  0  0  0  0  0
  138.2830   73.0520  221.0640 O   0  0  0  0  0  0  0  0  0  0  0  0
  138.8900   75.1350  222.0770 C   0  0  0  0  0  0  0  0  0  0  0  0
  140.2240   75.0010  221.7210 C   0  0  0  0  0  0  0  0  0  0  0  0
  141.0880   76.0720  221.8490 C   0  0  0  0  0  0  0  0  0  0  0  0
  140.5910   77.2610  222.3350 C   0  0  0  0  0  0  0  0  0  0  0  0
  141.4630   78.3300  222.4600 C   0  0  0  0  0  0  0  0  0  0  0  0
  141.0120   79.5370  222.9420 C   0  0  0  0  0  0  0  0  0  0  0  0
  142.1170   80.8910  223.1000 Cl  0  0  0  0  0  0  0  0  0  0  0  0
  139.6760   79.6430  223.2900 C   0  0  0  0  0  0  0  0  0  0  0  0
  138.8160   78.5630  223.1570 C   0  0  0  0  0  0  0  0  0  0  0  0
  139.2590   77.3480  222.6760 C   0  0  0  0  0  0  0  0  0  0  0  0
  138.4310   76.3080  222.5490 N   0  0  0  0  0  0  0  0  0  0  0  0
  141.8141   71.1207  223.1132 H   0  0  0  0  0  0  0  0  0  0  0  0
  140.3305   71.0295  222.1047 H   0  0  0  0  0  0  0  0  0  0  0  0
  141.3260   72.5247  222.1047 H   0  0  0  0  0  0  0  0  0  0  0  0
  141.7231   72.7319  225.9394 H   0  0  0  0  0  0  0  0  0  0  0  0
  141.7423   71.4376  228.0485 H   0  0  0  0  0  0  0  0  0  0  0  0
  140.2506   69.4622  228.3300 H   0  0  0  0  0  0  0  0  0  0  0  0
  138.7720   68.8230  226.4772 H   0  0  0  0  0  0  0  0  0  0  0  0
  139.0959   69.4002  223.3373 H   0  0  0  0  0  0  0  0  0  0  0  0
  137.6504   69.5073  224.4781 H   0  0  0  0  0  0  0  0  0  0  0  0
  138.6180   71.7310  222.7420 H   0  0  0  0  0  0  0  0  0  0  0  0
  136.2340   72.2957  221.3833 H   0  0  0  0  0  0  0  0  0  0  0  0
  135.0755   72.7484  222.7183 H   0  0  0  0  0  0  0  0  0  0  0  0
  136.5960   74.4600  223.4460 H   0  0  0  0  0  0  0  0  0  0  0  0
  140.5951   74.0398  221.3358 H   0  0  0  0  0  0  0  0  0  0  0  0
  142.1476   75.9771  221.5693 H   0  0  0  0  0  0  0  0  0  0  0  0
  142.5185   78.2135  222.1732 H   0  0  0  0  0  0  0  0  0  0  0  0
  139.2911   80.5978  223.6776 H   0  0  0  0  0  0  0  0  0  0  0  0
  137.7594   78.6774  223.4407 H   0  0  0  0  0  0  0  0  0  0  0  0
  1  2  1  0
  2  3  1  0
  3  4  2  0
  4  5  1  0
  5  6  2  0
  6  7  1  0
  7  8  2  0
  8  9  1  0
  9 10  1  0
 10 11  1  0
 11 12  2  0
 11 13  1  0
 13 14  1  0
 14 15  1  0
 15 16  2  0
 15 17  1  0
 17 18  2  0
 18 19  1  0
 19 20  2  0
 20 21  1  0
 21 22  2  0
 22 23  1  0
 22 24  1  0
 24 25  2  0
 25 26  1  0
 26 27  2  0
  8  3  1  0
 27 17  1  0
 26 20  1  0
  1 28  1  0
  1 29  1  0
  1 30  1  0
  4 31  1  0
  5 32  1  0
  6 33  1  0
  7 34  1  0
  9 35  1  0
  9 36  1  0
 10 37  1  0
 13 38  1  0
 13 39  1  0
 14 40  1  0
 18 41  1  0
 19 42  1  0
 21 43  1  0
 24 44  1  0
 25 45  1  0
M  END
>  <smiles>  (15) 
COc1ccccc1CNC(=O)CNC(=O)c1ccc2cc(Cl)ccc2n1

>  <score_type>  (15) 
oracle

>  <origin>  (15) 
autodockgpu

>  <m_score__min__energy>  (15) 
-8.1300000000000008

>  <m_primary>  (15) 
energy

>  <rmsd>  (15) 
7.960506039416172

>  <m_score__min__rmsd>  (15) 
7.960506039416172

>  <meeko>  (15) 
{"free_energy": -6.78, "intermolecular_energy": -8.57, "internal_energy": -2.52, "cluster_size": 11, "cluster_id": 2, "rank_in_cluster": 7}

>  <energy>  (15) 
-7.77

>  <cluster_rmsd>  (15) 
0.57

>  <cluster>  (15) 
2

$$$$

     RDKit          3D

 45 47  0  0  0  0  0  0  0  0999 V2000
  137.9420   79.9290  223.4680 C   0  0  0  0  0  0  0  0  0  0  0  0
  139.0810   79.0970  223.6750 O   0  0  0  0  0  0  0  0  0  0  0  0
  140.3380   79.6540  223.4260 C   0  0  0  0  0  0  0  0  0  0  0  0
  140.5460   81.0300  223.4780 C   0  0  0  0  0  0  0  0  0  0  0  0
  141.8010   81.5550  223.2270 C   0  0  0  0  0  0  0  0  0  0  0  0
  142.8650   80.7310  222.9240 C   0  0  0  0  0  0  0  0  0  0  0  0
  142.6360   79.3840  222.8800 C   0  0  0  0  0  0  0  0  0  0  0  0
  141.3940   78.8090  223.1230 C   0  0  0  0  0  0  0  0  0  0  0  0
  141.1410   77.3640  223.0730 C   0  0  0  0  0  0  0  0  0  0  0  0
  139.9480   76.9660  222.3930 N   0  0  0  0  0  0  0  0  0  0  0  0
  139.7770   75.6580  221.8670 C   0  0  0  0  0  0  0  0  0  0  0  0
  140.6960   74.8030  221.9970 O   0  0  0  0  0  0  0  0  0  0  0  0
  138.4990   75.3590  221.1800 C   0  0  0  0  0  0  0  0  0  0  0  0
  137.4970   74.8020  222.0580 N   0  0  0  0  0  0  0  0  0  0  0  0
  136.8320   75.7380  222.9320 C   0  0  0  0  0  0  0  0  0  0  0  0
  137.2090   76.9340  222.8200 O   0  0  0  0  0  0  0  0  0  0  0  0
  135.8010   75.3010  223.8650 C   0  0  0  0  0  0  0  0  0  0  0  0
  135.0660   76.3000  224.4860 C   0  0  0  0  0  0  0  0  0  0  0  0
  134.0670   75.9710  225.3840 C   0  0  0  0  0  0  0  0  0  0  0  0
  133.8290   74.6390  225.6390 C   0  0  0  0  0  0  0  0  0  0  0  0
  132.8260   74.3170  226.5390 C   0  0  0  0  0  0  0  0  0  0  0  0
  132.5520   72.9990  226.8260 C   0  0  0  0  0  0  0  0  0  0  0  0
  131.2820   72.5920  227.9660 Cl  0  0  0  0  0  0  0  0  0  0  0  0
  133.3020   72.0240  226.1910 C   0  0  0  0  0  0  0  0  0  0  0  0
  134.3020   72.3630  225.2920 C   0  0  0  0  0  0  0  0  0  0  0  0
  134.5840   73.6810  224.9990 C   0  0  0  0  0  0  0  0  0  0  0  0
  135.5470   74.0090  224.1330 N   0  0  0  0  0  0  0  0  0  0  0  0
  137.5275   80.2318  224.4409 H   0  0  0  0  0  0  0  0  0  0  0  0
  138.2396   80.8238  222.9017 H   0  0  0  0  0  0  0  0  0  0  0  0
  137.1801   79.3733  222.9017 H   0  0  0  0  0  0  0  0  0  0  0  0
  139.7092   81.7019  223.7196 H   0  0  0  0  0  0  0  0  0  0  0  0
  141.9524   82.6437  223.2696 H   0  0  0  0  0  0  0  0  0  0  0  0
  143.8647   81.1442  222.7244 H   0  0  0  0  0  0  0  0  0  0  0  0
  143.4793   78.7199  222.6396 H   0  0  0  0  0  0  0  0  0  0  0  0
  141.9936   76.8891  222.5654 H   0  0  0  0  0  0  0  0  0  0  0  0
  141.0102   77.0465  224.1180 H   0  0  0  0  0  0  0  0  0  0  0  0
  139.1750   77.6640  222.2790 H   0  0  0  0  0  0  0  0  0  0  0  0
  138.1068   76.2923  220.7498 H   0  0  0  0  0  0  0  0  0  0  0  0
  138.7120   74.6051  220.4078 H   0  0  0  0  0  0  0  0  0  0  0  0
  137.2480   73.7790  222.0810 H   0  0  0  0  0  0  0  0  0  0  0  0
  135.2781   77.3562  224.2637 H   0  0  0  0  0  0  0  0  0  0  0  0
  133.4770   76.7543  225.8824 H   0  0  0  0  0  0  0  0  0  0  0  0
  132.2475   75.1163  227.0252 H   0  0  0  0  0  0  0  0  0  0  0  0
  133.1015   70.9634  226.4029 H   0  0  0  0  0  0  0  0  0  0  0  0
  134.8813   71.5657  224.8034 H   0  0  0  0  0  0  0  0  0  0  0  0
  1  2  1  0
  2  3  1  0
  3  4  2  0
  4  5  1  0
  5  6  2  0
  6  7  1  0
  7  8  2  0
  8  9  1  0
  9 10  1  0
 10 11  1  0
 11 12  2  0
 11 13  1  0
 13 14  1  0
 14 15  1  0
 15 16  2  0
 15 17  1  0
 17 18  2  0
 18 19  1  0
 19 20  2  0
 20 21  1  0
 21 22  2  0
 22 23  1  0
 22 24  1  0
 24 25  2  0
 25 26  1  0
 26 27  2  0
  8  3  1  0
 27 17  1  0
 26 20  1  0
  1 28  1  0
  1 29  1  0
  1 30  1  0
  4 31  1  0
  5 32  1  0
  6 33  1  0
  7 34  1  0
  9 35  1  0
  9 36  1  0
 10 37  1  0
 13 38  1  0
 13 39  1  0
 14 40  1  0
 18 41  1  0
 19 42  1  0
 21 43  1  0
 24 44  1  0
 25 45  1  0
M  END
>  <smiles>  (16) 
COc1ccccc1CNC(=O)CNC(=O)c1ccc2cc(Cl)ccc2n1

>  <score_type>  (16) 
oracle

>  <origin>  (16) 
autodockgpu

>  <m_score__min__energy>  (16) 
-8.1300000000000008

>  <m_primary>  (16) 
energy

>  <rmsd>  (16) 
6.57952743428869

>  <m_score__min__rmsd>  (16) 
6.57952743428869

>  <meeko>  (16) 
{"free_energy": -6.46, "intermolecular_energy": -8.25, "internal_energy": -2.33, "cluster_size": 3, "cluster_id": 7, "rank_in_cluster": 1}

>  <energy>  (16) 
-7.65

>  <cluster_rmsd>  (16) 
0.93

>  <cluster>  (16) 
2

$$$$

     RDKit          3D

 45 47  0  0  0  0  0  0  0  0999 V2000
  137.7000   69.0660  225.1510 C   0  0  0  0  0  0  0  0  0  0  0  0
  139.1200   69.1580  225.0640 O   0  0  0  0  0  0  0  0  0  0  0  0
  139.7720   69.9560  226.0070 C   0  0  0  0  0  0  0  0  0  0  0  0
  139.6870   69.6850  227.3710 C   0  0  0  0  0  0  0  0  0  0  0  0
  140.3420   70.4920  228.2840 C   0  0  0  0  0  0  0  0  0  0  0  0
  141.0900   71.5730  227.8640 C   0  0  0  0  0  0  0  0  0  0  0  0
  141.1580   71.8180  226.5210 C   0  0  0  0  0  0  0  0  0  0  0  0
  140.5180   71.0380  225.5650 C   0  0  0  0  0  0  0  0  0  0  0  0
  140.5840   71.2970  224.1230 C   0  0  0  0  0  0  0  0  0  0  0  0
  139.3260   71.4550  223.4610 N   0  0  0  0  0  0  0  0  0  0  0  0
  139.0680   72.5320  222.5720 C   0  0  0  0  0  0  0  0  0  0  0  0
  139.9660   73.3870  222.3430 O   0  0  0  0  0  0  0  0  0  0  0  0
  137.7260   72.5930  221.9450 C   0  0  0  0  0  0  0  0  0  0  0  0
  136.7770   73.3680  222.7070 N   0  0  0  0  0  0  0  0  0  0  0  0
  136.1790   72.7010  223.8390 C   0  0  0  0  0  0  0  0  0  0  0  0
  136.5630   71.5170  224.0240 O   0  0  0  0  0  0  0  0  0  0  0  0
  135.2070   73.3750  224.6890 C   0  0  0  0  0  0  0  0  0  0  0  0
  134.3730   72.5610  225.4410 C   0  0  0  0  0  0  0  0  0  0  0  0
  133.4240   73.1220  226.2750 C   0  0  0  0  0  0  0  0  0  0  0  0
  133.3320   74.4940  226.3350 C   0  0  0  0  0  0  0  0  0  0  0  0
  132.3780   75.0480  227.1740 C   0  0  0  0  0  0  0  0  0  0  0  0
  132.2500   76.4150  227.2670 C   0  0  0  0  0  0  0  0  0  0  0  0
  131.0420   77.1160  228.3290 Cl  0  0  0  0  0  0  0  0  0  0  0  0
  133.0950   77.2030  226.5040 C   0  0  0  0  0  0  0  0  0  0  0  0
  134.0450   76.6320  225.6700 C   0  0  0  0  0  0  0  0  0  0  0  0
  134.1810   75.2630  225.5700 C   0  0  0  0  0  0  0  0  0  0  0  0
  135.0950   74.7130  224.7660 N   0  0  0  0  0  0  0  0  0  0  0  0
  137.3979   69.0464  226.2085 H   0  0  0  0  0  0  0  0  0  0  0  0
  137.2451   69.9366  224.6558 H   0  0  0  0  0  0  0  0  0  0  0  0
  137.3613   68.1440  224.6558 H   0  0  0  0  0  0  0  0  0  0  0  0
  139.0969   68.8261  227.7233 H   0  0  0  0  0  0  0  0  0  0  0  0
  140.2656   70.2692  229.3585 H   0  0  0  0  0  0  0  0  0  0  0  0
  141.6142   72.2162  228.5862 H   0  0  0  0  0  0  0  0  0  0  0  0
  141.7511   72.6787  226.1784 H   0  0  0  0  0  0  0  0  0  0  0  0
  141.1632   72.2199  223.9720 H   0  0  0  0  0  0  0  0  0  0  0  0
  141.0448   70.4021  223.6794 H   0  0  0  0  0  0  0  0  0  0  0  0
  138.5710   70.7510  223.6400 H   0  0  0  0  0  0  0  0  0  0  0  0
  137.8264   73.0459  220.9476 H   0  0  0  0  0  0  0  0  0  0  0  0
  137.3417   71.5635  221.8947 H   0  0  0  0  0  0  0  0  0  0  0  0
  136.5160   74.3620  222.4740 H   0  0  0  0  0  0  0  0  0  0  0  0
  134.4669   71.4671  225.3736 H   0  0  0  0  0  0  0  0  0  0  0  0
  132.7577   72.4865  226.8768 H   0  0  0  0  0  0  0  0  0  0  0  0
  131.7219   74.3937  227.7667 H   0  0  0  0  0  0  0  0  0  0  0  0
  133.0117   78.2984  226.5601 H   0  0  0  0  0  0  0  0  0  0  0  0
  134.7030   77.2839  225.0766 H   0  0  0  0  0  0  0  0  0  0  0  0
  1  2  1  0
  2  3  1  0
  3  4  2  0
  4  5  1  0
  5  6  2  0
  6  7  1  0
  7  8  2  0
  8  9  1  0
  9 10  1  0
 10 11  1  0
 11 12  2  0
 11 13  1  0
 13 14  1  0
 14 15  1  0
 15 16  2  0
 15 17  1  0
 17 18  2  0
 18 19  1  0
 19 20  2  0
 20 21  1  0
 21 22  2  0
 22 23  1  0
 22 24  1  0
 24 25  2  0
 25 26  1  0
 26 27  2  0
  8  3  1  0
 27 17  1  0
 26 20  1  0
  1 28  1  0
  1 29  1  0
  1 30  1  0
  4 31  1  0
  5 32  1  0
  6 33  1  0
  7 34  1  0
  9 35  1  0
  9 36  1  0
 10 37  1  0
 13 38  1  0
 13 39  1  0
 14 40  1  0
 18 41  1  0
 19 42  1  0
 21 43  1  0
 24 44  1  0
 25 45  1  0
M  END
>  <smiles>  (17) 
COc1ccccc1CNC(=O)CNC(=O)c1ccc2cc(Cl)ccc2n1

>  <score_type>  (17) 
oracle

>  <origin>  (17) 
autodockgpu

>  <m_score__min__energy>  (17) 
-8.1300000000000008

>  <m_primary>  (17) 
energy

>  <rmsd>  (17) 
7.653153250340845

>  <m_score__min__rmsd>  (17) 
7.653153250340845

>  <meeko>  (17) 
{"free_energy": -6.87, "intermolecular_energy": -8.66, "internal_energy": -2.41, "cluster_size": 7, "cluster_id": 4, "rank_in_cluster": 4}

>  <energy>  (17) 
-7.49

>  <cluster_rmsd>  (17) 
1.56

>  <cluster>  (17) 
2

$$$$

     RDKit          3D

 45 47  0  0  0  0  0  0  0  0999 V2000
  142.5040   70.8550  219.1790 C   0  0  0  0  0  0  0  0  0  0  0  0
  142.6820   72.2600  219.0260 O   0  0  0  0  0  0  0  0  0  0  0  0
  143.7910   72.8400  219.6490 C   0  0  0  0  0  0  0  0  0  0  0  0
  144.8760   72.0710  220.0630 C   0  0  0  0  0  0  0  0  0  0  0  0
  145.9600   72.6700  220.6780 C   0  0  0  0  0  0  0  0  0  0  0  0
  145.9890   74.0340  220.8900 C   0  0  0  0  0  0  0  0  0  0  0  0
  144.9130   74.7660  220.4750 C   0  0  0  0  0  0  0  0  0  0  0  0
  143.8000   74.2110  219.8530 C   0  0  0  0  0  0  0  0  0  0  0  0
  142.6400   74.9920  219.4090 C   0  0  0  0  0  0  0  0  0  0  0  0
  141.3620   74.4640  219.7690 N   0  0  0  0  0  0  0  0  0  0  0  0
  140.4640   75.1670  220.6160 C   0  0  0  0  0  0  0  0  0  0  0  0
  140.7860   76.2970  221.0750 O   0  0  0  0  0  0  0  0  0  0  0  0
  139.1660   74.5210  220.9220 C   0  0  0  0  0  0  0  0  0  0  0  0
  139.1910   73.7400  222.1360 N   0  0  0  0  0  0  0  0  0  0  0  0
  139.8800   72.4750  222.0600 C   0  0  0  0  0  0  0  0  0  0  0  0
  140.3790   72.2050  220.9360 O   0  0  0  0  0  0  0  0  0  0  0  0
  139.9760   71.5940  223.2170 C   0  0  0  0  0  0  0  0  0  0  0  0
  139.5210   70.2950  223.0460 C   0  0  0  0  0  0  0  0  0  0  0  0
  139.5790   69.3950  224.0930 C   0  0  0  0  0  0  0  0  0  0  0  0
  140.0960   69.8220  225.2960 C   0  0  0  0  0  0  0  0  0  0  0  0
  140.1510   68.9140  226.3410 C   0  0  0  0  0  0  0  0  0  0  0  0
  140.6600   69.2950  227.5620 C   0  0  0  0  0  0  0  0  0  0  0  0
  140.7300   68.1440  228.8840 Cl  0  0  0  0  0  0  0  0  0  0  0  0
  141.1070   70.5970  227.7040 C   0  0  0  0  0  0  0  0  0  0  0  0
  141.0450   71.4940  226.6470 C   0  0  0  0  0  0  0  0  0  0  0  0
  140.5370   71.1210  225.4200 C   0  0  0  0  0  0  0  0  0  0  0  0
  140.4760   71.9840  224.4020 N   0  0  0  0  0  0  0  0  0  0  0  0
  142.4722   70.6039  220.2495 H   0  0  0  0  0  0  0  0  0  0  0  0
  141.5602   70.5510  218.7028 H   0  0  0  0  0  0  0  0  0  0  0  0
  143.3422   70.3252  218.7028 H   0  0  0  0  0  0  0  0  0  0  0  0
  144.8706   70.9831  219.9001 H   0  0  0  0  0  0  0  0  0  0  0  0
  146.8101   72.0519  221.0025 H   0  0  0  0  0  0  0  0  0  0  0  0
  146.8500   74.5152  221.3769 H   0  0  0  0  0  0  0  0  0  0  0  0
  144.9277   75.8532  220.6419 H   0  0  0  0  0  0  0  0  0  0  0  0
  142.7242   75.9989  219.8439 H   0  0  0  0  0  0  0  0  0  0  0  0
  142.6715   74.9764  218.3096 H   0  0  0  0  0  0  0  0  0  0  0  0
  141.0780   73.5270  219.3940 H   0  0  0  0  0  0  0  0  0  0  0  0
  138.4015   75.3050  221.0264 H   0  0  0  0  0  0  0  0  0  0  0  0
  138.9411   73.8317  220.0948 H   0  0  0  0  0  0  0  0  0  0  0  0
  138.7400   74.0500  223.0370 H   0  0  0  0  0  0  0  0  0  0  0  0
  139.1128   69.9803  222.0742 H   0  0  0  0  0  0  0  0  0  0  0  0
  139.2209   68.3624  223.9686 H   0  0  0  0  0  0  0  0  0  0  0  0
  139.7871   67.8863  226.1947 H   0  0  0  0  0  0  0  0  0  0  0  0
  141.5179   70.9260  228.6699 H   0  0  0  0  0  0  0  0  0  0  0  0
  141.4080   72.5224  226.7904 H   0  0  0  0  0  0  0  0  0  0  0  0
  1  2  1  0
  2  3  1  0
  3  4  2  0
  4  5  1  0
  5  6  2  0
  6  7  1  0
  7  8  2  0
  8  9  1  0
  9 10  1  0
 10 11  1  0
 11 12  2  0
 11 13  1  0
 13 14  1  0
 14 15  1  0
 15 16  2  0
 15 17  1  0
 17 18  2  0
 18 19  1  0
 19 20  2  0
 20 21  1  0
 21 22  2  0
 22 23  1  0
 22 24  1  0
 24 25  2  0
 25 26  1  0
 26 27  2  0
  8  3  1  0
 27 17  1  0
 26 20  1  0
  1 28  1  0
  1 29  1  0
  1 30  1  0
  4 31  1  0
  5 32  1  0
  6 33  1  0
  7 34  1  0
  9 35  1  0
  9 36  1  0
 10 37  1  0
 13 38  1  0
 13 39  1  0
 14 40  1  0
 18 41  1  0
 19 42  1  0
 21 43  1  0
 24 44  1  0
 25 45  1  0
M  END
>  <smiles>  (18) 
COc1ccccc1CNC(=O)CNC(=O)c1ccc2cc(Cl)ccc2n1

>  <score_type>  (18) 
oracle

>  <origin>  (18) 
autodockgpu

>  <m_score__min__energy>  (18) 
-8.1300000000000008

>  <m_primary>  (18) 
energy

>  <rmsd>  (18) 
2.969750110442606

>  <m_score__min__rmsd>  (18) 
2.969750110442606

>  <meeko>  (18) 
{"free_energy": -7.28, "intermolecular_energy": -9.06, "internal_energy": -2.39, "cluster_size": 12, "cluster_id": 5, "rank_in_cluster": 1}

>  <energy>  (18) 
-7.4

>  <cluster_rmsd>  (18) 
1.44

>  <cluster>  (18) 
2

$$$$

     RDKit          3D

 45 47  0  0  0  0  0  0  0  0999 V2000
  142.1010   71.0360  219.5220 C   0  0  0  0  0  0  0  0  0  0  0  0
  142.5860   72.2960  219.0670 O   0  0  0  0  0  0  0  0  0  0  0  0
  143.7680   72.7740  219.6380 C   0  0  0  0  0  0  0  0  0  0  0  0
  144.8340   71.9230  219.9220 C   0  0  0  0  0  0  0  0  0  0  0  0
  145.9930   72.4220  220.4870 C   0  0  0  0  0  0  0  0  0  0  0  0
  146.1170   73.7650  220.7770 C   0  0  0  0  0  0  0  0  0  0  0  0
  145.0580   74.5800  220.4890 C   0  0  0  0  0  0  0  0  0  0  0  0
  143.8730   74.1270  219.9220 C   0  0  0  0  0  0  0  0  0  0  0  0
  142.7320   74.9950  219.6140 C   0  0  0  0  0  0  0  0  0  0  0  0
  141.4660   74.5600  220.1150 N   0  0  0  0  0  0  0  0  0  0  0  0
  140.4720   75.4720  220.5590 C   0  0  0  0  0  0  0  0  0  0  0  0
  140.6940   76.7130  220.5160 O   0  0  0  0  0  0  0  0  0  0  0  0
  139.1980   74.9050  221.0600 C   0  0  0  0  0  0  0  0  0  0  0  0
  139.3600   74.1040  222.2490 N   0  0  0  0  0  0  0  0  0  0  0  0
  139.5940   72.6960  222.0370 C   0  0  0  0  0  0  0  0  0  0  0  0
  139.6290   72.3370  220.8310 O   0  0  0  0  0  0  0  0  0  0  0  0
  139.7750   71.7810  223.1560 C   0  0  0  0  0  0  0  0  0  0  0  0
  139.4010   70.4620  222.9440 C   0  0  0  0  0  0  0  0  0  0  0  0
  139.5420   69.5290  223.9540 C   0  0  0  0  0  0  0  0  0  0  0  0
  140.0590   69.9430  225.1610 C   0  0  0  0  0  0  0  0  0  0  0  0
  140.1980   69.0020  226.1680 C   0  0  0  0  0  0  0  0  0  0  0  0
  140.7090   69.3700  227.3920 C   0  0  0  0  0  0  0  0  0  0  0  0
  140.8860   68.1770  228.6670 Cl  0  0  0  0  0  0  0  0  0  0  0  0
  141.0750   70.6920  227.5750 C   0  0  0  0  0  0  0  0  0  0  0  0
  140.9300   71.6220  226.5560 C   0  0  0  0  0  0  0  0  0  0  0  0
  140.4170   71.2630  225.3270 C   0  0  0  0  0  0  0  0  0  0  0  0
  140.2770   72.1580  224.3450 N   0  0  0  0  0  0  0  0  0  0  0  0
  142.0952   71.0208  220.6219 H   0  0  0  0  0  0  0  0  0  0  0  0
  141.0785   70.8798  219.1477 H   0  0  0  0  0  0  0  0  0  0  0  0
  142.7549   70.2345  219.1477 H   0  0  0  0  0  0  0  0  0  0  0  0
  144.7531   70.8496  219.6957 H   0  0  0  0  0  0  0  0  0  0  0  0
  146.8268   71.7395  220.7081 H   0  0  0  0  0  0  0  0  0  0  0  0
  147.0377   74.1668  221.2252 H   0  0  0  0  0  0  0  0  0  0  0  0
  145.1488   75.6520  220.7184 H   0  0  0  0  0  0  0  0  0  0  0  0
  142.9395   75.9884  220.0383 H   0  0  0  0  0  0  0  0  0  0  0  0
  142.6381   74.9871  218.5180 H   0  0  0  0  0  0  0  0  0  0  0  0
  141.2660   73.5320  220.1550 H   0  0  0  0  0  0  0  0  0  0  0  0
  138.5122   75.7343  221.2881 H   0  0  0  0  0  0  0  0  0  0  0  0
  138.8025   74.2455  220.2735 H   0  0  0  0  0  0  0  0  0  0  0  0
  139.3150   74.4960  223.2260 H   0  0  0  0  0  0  0  0  0  0  0  0
  138.9912   70.1579  221.9696 H   0  0  0  0  0  0  0  0  0  0  0  0
  139.2482   68.4806  223.7972 H   0  0  0  0  0  0  0  0  0  0  0  0
  139.8994   67.9585  225.9891 H   0  0  0  0  0  0  0  0  0  0  0  0
  141.4874   71.0104  228.5438 H   0  0  0  0  0  0  0  0  0  0  0  0
  141.2298   72.6657  226.7314 H   0  0  0  0  0  0  0  0  0  0  0  0
  1  2  1  0
  2  3  1  0
  3  4  2  0
  4  5  1  0
  5  6  2  0
  6  7  1  0
  7  8  2  0
  8  9  1  0
  9 10  1  0
 10 11  1  0
 11 12  2  0
 11 13  1  0
 13 14  1  0
 14 15  1  0
 15 16  2  0
 15 17  1  0
 17 18  2  0
 18 19  1  0
 19 20  2  0
 20 21  1  0
 21 22  2  0
 22 23  1  0
 22 24  1  0
 24 25  2  0
 25 26  1  0
 26 27  2  0
  8  3  1  0
 27 17  1  0
 26 20  1  0
  1 28  1  0
  1 29  1  0
  1 30  1  0
  4 31  1  0
  5 32  1  0
  6 33  1  0
  7 34  1  0
  9 35  1  0
  9 36  1  0
 10 37  1  0
 13 38  1  0
 13 39  1  0
 14 40  1  0
 18 41  1  0
 19 42  1  0
 21 43  1  0
 24 44  1  0
 25 45  1  0
M  END
>  <smiles>  (19) 
COc1ccccc1CNC(=O)CNC(=O)c1ccc2cc(Cl)ccc2n1

>  <score_type>  (19) 
oracle

>  <origin>  (19) 
autodockgpu

>  <m_score__min__energy>  (19) 
-8.1300000000000008

>  <m_primary>  (19) 
energy

>  <rmsd>  (19) 
3.098372297089345

>  <m_score__min__rmsd>  (19) 
3.098372297089345

>  <meeko>  (19) 
{"free_energy": -7.07, "intermolecular_energy": -8.86, "internal_energy": -2.48, "cluster_size": 12, "cluster_id": 5, "rank_in_cluster": 9}

>  <energy>  (19) 
-6.88

>  <cluster_rmsd>  (19) 
1.74

>  <cluster>  (19) 
2

$$$$

     RDKit          3D

 45 47  0  0  0  0  0  0  0  0999 V2000
  138.4470   80.3190  220.6370 C   0  0  0  0  0  0  0  0  0  0  0  0
  139.0420   79.3200  221.4610 O   0  0  0  0  0  0  0  0  0  0  0  0
  140.2220   79.6560  222.1290 C   0  0  0  0  0  0  0  0  0  0  0  0
  140.2230   80.5550  223.1940 C   0  0  0  0  0  0  0  0  0  0  0  0
  141.4060   80.8710  223.8370 C   0  0  0  0  0  0  0  0  0  0  0  0
  142.6000   80.3050  223.4410 C   0  0  0  0  0  0  0  0  0  0  0  0
  142.5730   79.4260  222.3950 C   0  0  0  0  0  0  0  0  0  0  0  0
  141.4120   79.0760  221.7160 C   0  0  0  0  0  0  0  0  0  0  0  0
  141.3760   78.1370  220.5900 C   0  0  0  0  0  0  0  0  0  0  0  0
  140.3330   77.1610  220.6270 N   0  0  0  0  0  0  0  0  0  0  0  0
  140.5790   75.8010  220.9570 C   0  0  0  0  0  0  0  0  0  0  0  0
  141.7510   75.4230  221.2320 O   0  0  0  0  0  0  0  0  0  0  0  0
  139.4190   74.8790  220.9630 C   0  0  0  0  0  0  0  0  0  0  0  0
  139.3620   74.0430  222.1380 N   0  0  0  0  0  0  0  0  0  0  0  0
  140.0920   72.8000  222.0660 C   0  0  0  0  0  0  0  0  0  0  0  0
  140.6930   72.5960  220.9790 O   0  0  0  0  0  0  0  0  0  0  0  0
  140.1130   71.8690  223.1860 C   0  0  0  0  0  0  0  0  0  0  0  0
  139.6040   70.6010  222.9480 C   0  0  0  0  0  0  0  0  0  0  0  0
  139.5910   69.6570  223.9570 C   0  0  0  0  0  0  0  0  0  0  0  0
  140.0910   70.0090  225.1900 C   0  0  0  0  0  0  0  0  0  0  0  0
  140.0740   69.0560  226.1970 C   0  0  0  0  0  0  0  0  0  0  0  0
  140.5620   69.3630  227.4460 C   0  0  0  0  0  0  0  0  0  0  0  0
  140.5410   68.1560  228.7200 Cl  0  0  0  0  0  0  0  0  0  0  0  0
  141.0640   70.6360  227.6560 C   0  0  0  0  0  0  0  0  0  0  0  0
  141.0750   71.5770  226.6380 C   0  0  0  0  0  0  0  0  0  0  0  0
  140.5860   71.2790  225.3820 C   0  0  0  0  0  0  0  0  0  0  0  0
  140.5950   72.1860  224.4010 N   0  0  0  0  0  0  0  0  0  0  0  0
  137.9871   81.0912  221.2712 H   0  0  0  0  0  0  0  0  0  0  0  0
  139.2190   80.7780  220.0019 H   0  0  0  0  0  0  0  0  0  0  0  0
  137.6757   79.8588  220.0019 H   0  0  0  0  0  0  0  0  0  0  0  0
  139.2798   81.0147  223.5242 H   0  0  0  0  0  0  0  0  0  0  0  0
  141.3946   81.5831  224.6753 H   0  0  0  0  0  0  0  0  0  0  0  0
  143.5429   80.5530  223.9504 H   0  0  0  0  0  0  0  0  0  0  0  0
  143.5213   78.9709  222.0731 H   0  0  0  0  0  0  0  0  0  0  0  0
  141.2578   78.7223  219.6662 H   0  0  0  0  0  0  0  0  0  0  0  0
  142.3173   77.5703  220.6435 H   0  0  0  0  0  0  0  0  0  0  0  0
  139.3540   77.4600  220.4040 H   0  0  0  0  0  0  0  0  0  0  0  0
  138.4971   75.4771  220.9146 H   0  0  0  0  0  0  0  0  0  0  0  0
  139.5266   74.2135  220.0938 H   0  0  0  0  0  0  0  0  0  0  0  0
  138.8280   74.2990  223.0090 H   0  0  0  0  0  0  0  0  0  0  0  0
  139.2096   70.3461  221.9533 H   0  0  0  0  0  0  0  0  0  0  0  0
  139.1905   68.6481  223.7790 H   0  0  0  0  0  0  0  0  0  0  0  0
  139.6696   68.0528  225.9968 H   0  0  0  0  0  0  0  0  0  0  0  0
  141.4604   70.9051  228.6462 H   0  0  0  0  0  0  0  0  0  0  0  0
  141.4811   72.5802  226.8349 H   0  0  0  0  0  0  0  0  0  0  0  0
  1  2  1  0
  2  3  1  0
  3  4  2  0
  4  5  1  0
  5  6  2  0
  6  7  1  0
  7  8  2  0
  8  9  1  0
  9 10  1  0
 10 11  1  0
 11 12  2  0
 11 13  1  0
 13 14  1  0
 14 15  1  0
 15 16  2  0
 15 17  1  0
 17 18  2  0
 18 19  1  0
 19 20  2  0
 20 21  1  0
 21 22  2  0
 22 23  1  0
 22 24  1  0
 24 25  2  0
 25 26  1  0
 26 27  2  0
  8  3  1  0
 27 17  1  0
 26 20  1  0
  1 28  1  0
  1 29  1  0
  1 30  1  0
  4 31  1  0
  5 32  1  0
  6 33  1  0
  7 34  1  0
  9 35  1  0
  9 36  1  0
 10 37  1  0
 13 38  1  0
 13 39  1  0
 14 40  1  0
 18 41  1  0
 19 42  1  0
 21 43  1  0
 24 44  1  0
 25 45  1  0
M  END
>  <smiles>  (20) 
COc1ccccc1CNC(=O)CNC(=O)c1ccc2cc(Cl)ccc2n1

>  <score_type>  (20) 
oracle

>  <origin>  (20) 
autodockgpu

>  <m_score__min__energy>  (20) 
-8.1300000000000008

>  <m_primary>  (20) 
energy

>  <rmsd>  (20) 
3.329800737965119

>  <m_score__min__rmsd>  (20) 
3.329800737965119

>  <meeko>  (20) 
{"free_energy": -7.67, "intermolecular_energy": -9.46, "internal_energy": -1.41, "cluster_size": 13, "cluster_id": 1, "rank_in_cluster": 5}

>  <energy>  (20) 
-6.78

>  <cluster_rmsd>  (20) 
1.52

>  <cluster>  (20) 
2

$$$$

     RDKit          3D

 45 47  0  0  0  0  0  0  0  0999 V2000
  142.1530   70.9230  219.8360 C   0  0  0  0  0  0  0  0  0  0  0  0
  142.6150   72.1240  219.2240 O   0  0  0  0  0  0  0  0  0  0  0  0
  143.7250   72.7510  219.7950 C   0  0  0  0  0  0  0  0  0  0  0  0
  144.8240   72.0190  220.2400 C   0  0  0  0  0  0  0  0  0  0  0  0
  145.9100   72.6650  220.8020 C   0  0  0  0  0  0  0  0  0  0  0  0
  145.9280   74.0390  220.9300 C   0  0  0  0  0  0  0  0  0  0  0  0
  144.8390   74.7350  220.4850 C   0  0  0  0  0  0  0  0  0  0  0  0
  143.7240   74.1320  219.9150 C   0  0  0  0  0  0  0  0  0  0  0  0
  142.5500   74.8730  219.4390 C   0  0  0  0  0  0  0  0  0  0  0  0
  141.2930   74.4550  219.9760 N   0  0  0  0  0  0  0  0  0  0  0  0
  140.3760   75.3710  220.5590 C   0  0  0  0  0  0  0  0  0  0  0  0
  140.6620   76.5980  220.6130 O   0  0  0  0  0  0  0  0  0  0  0  0
  139.1030   74.8230  221.0830 C   0  0  0  0  0  0  0  0  0  0  0  0
  139.2740   74.0300  222.2770 N   0  0  0  0  0  0  0  0  0  0  0  0
  139.5330   72.6260  222.0730 C   0  0  0  0  0  0  0  0  0  0  0  0
  139.5800   72.2610  220.8680 O   0  0  0  0  0  0  0  0  0  0  0  0
  139.7250   71.7190  223.1970 C   0  0  0  0  0  0  0  0  0  0  0  0
  139.3420   70.4000  223.0010 C   0  0  0  0  0  0  0  0  0  0  0  0
  139.4930   69.4750  224.0160 C   0  0  0  0  0  0  0  0  0  0  0  0
  140.0270   69.8970  225.2130 C   0  0  0  0  0  0  0  0  0  0  0  0
  140.1750   68.9630  226.2260 C   0  0  0  0  0  0  0  0  0  0  0  0
  140.7040   69.3390  227.4400 C   0  0  0  0  0  0  0  0  0  0  0  0
  140.8920   68.1560  228.7220 Cl  0  0  0  0  0  0  0  0  0  0  0  0
  141.0770   70.6610  227.6080 C   0  0  0  0  0  0  0  0  0  0  0  0
  140.9230   71.5830  226.5830 C   0  0  0  0  0  0  0  0  0  0  0  0
  140.3930   71.2160  225.3630 C   0  0  0  0  0  0  0  0  0  0  0  0
  140.2430   72.1040  224.3760 N   0  0  0  0  0  0  0  0  0  0  0  0
  142.1940   71.0297  220.9300 H   0  0  0  0  0  0  0  0  0  0  0  0
  141.1159   70.7285  219.5252 H   0  0  0  0  0  0  0  0  0  0  0  0
  142.7924   70.0836  219.5252 H   0  0  0  0  0  0  0  0  0  0  0  0
  144.8278   70.9232  220.1439 H   0  0  0  0  0  0  0  0  0  0  0  0
  146.7707   72.0760  221.1516 H   0  0  0  0  0  0  0  0  0  0  0  0
  146.7902   74.5569  221.3754 H   0  0  0  0  0  0  0  0  0  0  0  0
  144.8454   75.8306  220.5832 H   0  0  0  0  0  0  0  0  0  0  0  0
  142.6920   75.9328  219.6970 H   0  0  0  0  0  0  0  0  0  0  0  0
  142.4926   74.6807  218.3575 H   0  0  0  0  0  0  0  0  0  0  0  0
  141.0400   73.4390  219.9360 H   0  0  0  0  0  0  0  0  0  0  0  0
  138.4300   75.6619  221.3139 H   0  0  0  0  0  0  0  0  0  0  0  0
  138.6882   74.1617  220.3080 H   0  0  0  0  0  0  0  0  0  0  0  0
  139.2170   74.4270  223.2520 H   0  0  0  0  0  0  0  0  0  0  0  0
  138.9170   70.0899  222.0350 H   0  0  0  0  0  0  0  0  0  0  0  0
  139.1938   68.4264  223.8714 H   0  0  0  0  0  0  0  0  0  0  0  0
  139.8693   67.9195  226.0597 H   0  0  0  0  0  0  0  0  0  0  0  0
  141.5022   70.9858  228.5691 H   0  0  0  0  0  0  0  0  0  0  0  0
  141.2293   72.6268  226.7459 H   0  0  0  0  0  0  0  0  0  0  0  0
  1  2  1  0
  2  3  1  0
  3  4  2  0
  4  5  1  0
  5  6  2  0
  6  7  1  0
  7  8  2  0
  8  9  1  0
  9 10  1  0
 10 11  1  0
 11 12  2  0
 11 13  1  0
 13 14  1  0
 14 15  1  0
 15 16  2  0
 15 17  1  0
 17 18  2  0
 18 19  1  0
 19 20  2  0
 20 21  1  0
 21 22  2  0
 22 23  1  0
 22 24  1  0
 24 25  2  0
 25 26  1  0
 26 27  2  0
  8  3  1  0
 27 17  1  0
 26 20  1  0
  1 28  1  0
  1 29  1  0
  1 30  1  0
  4 31  1  0
  5 32  1  0
  6 33  1  0
  7 34  1  0
  9 35  1  0
  9 36  1  0
 10 37  1  0
 13 38  1  0
 13 39  1  0
 14 40  1  0
 18 41  1  0
 19 42  1  0
 21 43  1  0
 24 44  1  0
 25 45  1  0
M  END
>  <smiles>  (21) 
COc1ccccc1CNC(=O)CNC(=O)c1ccc2cc(Cl)ccc2n1

>  <score_type>  (21) 
oracle

>  <origin>  (21) 
autodockgpu

>  <m_score__min__energy>  (21) 
-8.1300000000000008

>  <m_primary>  (21) 
energy

>  <rmsd>  (21) 
2.9792195501516225

>  <m_score__min__rmsd>  (21) 
2.9792195501516225

>  <meeko>  (21) 
{"free_energy": -7.09, "intermolecular_energy": -8.88, "internal_energy": -2.52, "cluster_size": 12, "cluster_id": 5, "rank_in_cluster": 8}

>  <energy>  (21) 
-6.76

>  <cluster_rmsd>  (21) 
1.57

>  <cluster>  (21) 
2

$$$$

     RDKit          3D

 45 47  0  0  0  0  0  0  0  0999 V2000
  140.6810   71.6110  222.9780 C   0  0  0  0  0  0  0  0  0  0  0  0
  139.9650   71.8960  224.1760 O   0  0  0  0  0  0  0  0  0  0  0  0
  140.0520   70.9650  225.2150 C   0  0  0  0  0  0  0  0  0  0  0  0
  141.1150   70.9800  226.1160 C   0  0  0  0  0  0  0  0  0  0  0  0
  141.1770   70.0470  227.1350 C   0  0  0  0  0  0  0  0  0  0  0  0
  140.1930   69.0900  227.2790 C   0  0  0  0  0  0  0  0  0  0  0  0
  139.1610   69.0960  226.3830 C   0  0  0  0  0  0  0  0  0  0  0  0
  139.0540   70.0120  225.3430 C   0  0  0  0  0  0  0  0  0  0  0  0
  137.9510   70.0220  224.3750 C   0  0  0  0  0  0  0  0  0  0  0  0
  137.7440   71.2540  223.6810 N   0  0  0  0  0  0  0  0  0  0  0  0
  137.0880   71.3140  222.4230 C   0  0  0  0  0  0  0  0  0  0  0  0
  136.6640   70.2550  221.8840 O   0  0  0  0  0  0  0  0  0  0  0  0
  136.9320   72.6480  221.7960 C   0  0  0  0  0  0  0  0  0  0  0  0
  137.9430   73.5920  222.2080 N   0  0  0  0  0  0  0  0  0  0  0  0
  137.7820   74.9420  221.7240 C   0  0  0  0  0  0  0  0  0  0  0  0
  136.7710   75.1320  220.9980 O   0  0  0  0  0  0  0  0  0  0  0  0
  138.7350   75.9890  222.0690 C   0  0  0  0  0  0  0  0  0  0  0  0
  140.0770   75.6880  221.8900 C   0  0  0  0  0  0  0  0  0  0  0  0
  141.0450   76.6270  222.1910 C   0  0  0  0  0  0  0  0  0  0  0  0
  140.6420   77.8540  222.6680 C   0  0  0  0  0  0  0  0  0  0  0  0
  141.6190   78.7900  222.9670 C   0  0  0  0  0  0  0  0  0  0  0  0
  141.2640   80.0300  223.4480 C   0  0  0  0  0  0  0  0  0  0  0  0
  142.5020   81.2150  223.8260 Cl  0  0  0  0  0  0  0  0  0  0  0  0
  139.9180   80.3020  223.6170 C   0  0  0  0  0  0  0  0  0  0  0  0
  138.9520   79.3540  223.3120 C   0  0  0  0  0  0  0  0  0  0  0  0
  139.2990   78.1090  222.8310 C   0  0  0  0  0  0  0  0  0  0  0  0
  138.3690   77.1950  222.5380 N   0  0  0  0  0  0  0  0  0  0  0  0
  141.6757   71.2151  223.2307 H   0  0  0  0  0  0  0  0  0  0  0  0
  140.1280   70.8645  222.3891 H   0  0  0  0  0  0  0  0  0  0  0  0
  140.7923   72.5334  222.3891 H   0  0  0  0  0  0  0  0  0  0  0  0
  141.9074   71.7364  226.0164 H   0  0  0  0  0  0  0  0  0  0  0  0
  142.0214   70.0679  227.8397 H   0  0  0  0  0  0  0  0  0  0  0  0
  140.2379   68.3466  228.0886 H   0  0  0  0  0  0  0  0  0  0  0  0
  138.3734   68.3357  226.4905 H   0  0  0  0  0  0  0  0  0  0  0  0
  138.1524   69.2422  223.6257 H   0  0  0  0  0  0  0  0  0  0  0  0
  137.0365   69.8525  224.9623 H   0  0  0  0  0  0  0  0  0  0  0  0
  138.0890   72.1430  224.1170 H   0  0  0  0  0  0  0  0  0  0  0  0
  136.9886   72.5297  220.7039 H   0  0  0  0  0  0  0  0  0  0  0  0
  135.9598   73.0489  222.1186 H   0  0  0  0  0  0  0  0  0  0  0  0
  138.7600   73.3380  222.8220 H   0  0  0  0  0  0  0  0  0  0  0  0
  140.3714   74.6995  221.5076 H   0  0  0  0  0  0  0  0  0  0  0  0
  142.1123   76.3995  222.0528 H   0  0  0  0  0  0  0  0  0  0  0  0
  142.6804   78.5417  222.8197 H   0  0  0  0  0  0  0  0  0  0  0  0
  139.6087   81.2859  223.9994 H   0  0  0  0  0  0  0  0  0  0  0  0
  137.8896   79.6000  223.4565 H   0  0  0  0  0  0  0  0  0  0  0  0
  1  2  1  0
  2  3  1  0
  3  4  2  0
  4  5  1  0
  5  6  2  0
  6  7  1  0
  7  8  2  0
  8  9  1  0
  9 10  1  0
 10 11  1  0
 11 12  2  0
 11 13  1  0
 13 14  1  0
 14 15  1  0
 15 16  2  0
 15 17  1  0
 17 18  2  0
 18 19  1  0
 19 20  2  0
 20 21  1  0
 21 22  2  0
 22 23  1  0
 22 24  1  0
 24 25  2  0
 25 26  1  0
 26 27  2  0
  8  3  1  0
 27 17  1  0
 26 20  1  0
  1 28  1  0
  1 29  1  0
  1 30  1  0
  4 31  1  0
  5 32  1  0
  6 33  1  0
  7 34  1  0
  9 35  1  0
  9 36  1  0
 10 37  1  0
 13 38  1  0
 13 39  1  0
 14 40  1  0
 18 41  1  0
 19 42  1  0
 21 43  1  0
 24 44  1  0
 25 45  1  0
M  END
>  <smiles>  (22) 
COc1ccccc1CNC(=O)CNC(=O)c1ccc2cc(Cl)ccc2n1

>  <score_type>  (22) 
oracle

>  <origin>  (22) 
autodockgpu

>  <m_score__min__energy>  (22) 
-8.1300000000000008

>  <m_primary>  (22) 
energy

>  <rmsd>  (22) 
8.31446199476387

>  <m_score__min__rmsd>  (22) 
8.31446199476387

>  <meeko>  (22) 
{"free_energy": -7.49, "intermolecular_energy": -9.28, "internal_energy": -1.7, "cluster_size": 11, "cluster_id": 2, "rank_in_cluster": 4}

>  <energy>  (22) 
-6.73

>  <cluster_rmsd>  (22) 
1.54

>  <cluster>  (22) 
2

$$$$

     RDKit          3D

 45 47  0  0  0  0  0  0  0  0999 V2000
  143.6780   74.9880  220.0260 C   0  0  0  0  0  0  0  0  0  0  0  0
  142.3880   75.5380  219.7750 O   0  0  0  0  0  0  0  0  0  0  0  0
  142.3090   76.9160  219.5540 C   0  0  0  0  0  0  0  0  0  0  0  0
  142.8970   77.5080  218.4390 C   0  0  0  0  0  0  0  0  0  0  0  0
  142.8030   78.8740  218.2440 C   0  0  0  0  0  0  0  0  0  0  0  0
  142.1280   79.6720  219.1440 C   0  0  0  0  0  0  0  0  0  0  0  0
  141.5590   79.0680  220.2310 C   0  0  0  0  0  0  0  0  0  0  0  0
  141.6260   77.7010  220.4710 C   0  0  0  0  0  0  0  0  0  0  0  0
  141.0210   77.0470  221.6360 C   0  0  0  0  0  0  0  0  0  0  0  0
  140.3630   75.8040  221.3800 N   0  0  0  0  0  0  0  0  0  0  0  0
  138.9660   75.7230  221.1350 C   0  0  0  0  0  0  0  0  0  0  0  0
  138.2660   76.7720  221.1380 O   0  0  0  0  0  0  0  0  0  0  0  0
  138.3930   74.3800  220.8830 C   0  0  0  0  0  0  0  0  0  0  0  0
  138.4520   73.5110  222.0340 N   0  0  0  0  0  0  0  0  0  0  0  0
  139.6360   72.6930  222.1480 C   0  0  0  0  0  0  0  0  0  0  0  0
  140.4770   72.8400  221.2230 O   0  0  0  0  0  0  0  0  0  0  0  0
  139.8160   71.7740  223.2640 C   0  0  0  0  0  0  0  0  0  0  0  0
  139.4400   70.4560  223.0480 C   0  0  0  0  0  0  0  0  0  0  0  0
  139.5810   69.5200  224.0550 C   0  0  0  0  0  0  0  0  0  0  0  0
  140.1000   69.9300  225.2630 C   0  0  0  0  0  0  0  0  0  0  0  0
  140.2380   68.9850  226.2670 C   0  0  0  0  0  0  0  0  0  0  0  0
  140.7520   69.3490  227.4910 C   0  0  0  0  0  0  0  0  0  0  0  0
  140.9280   68.1520  228.7630 Cl  0  0  0  0  0  0  0  0  0  0  0  0
  141.1190   70.6700  227.6780 C   0  0  0  0  0  0  0  0  0  0  0  0
  140.9750   71.6030  226.6620 C   0  0  0  0  0  0  0  0  0  0  0  0
  140.4600   71.2490  225.4320 C   0  0  0  0  0  0  0  0  0  0  0  0
  140.3200   72.1470  224.4530 N   0  0  0  0  0  0  0  0  0  0  0  0
  143.8419   74.9181  221.1115 H   0  0  0  0  0  0  0  0  0  0  0  0
  143.7418   73.9844  219.5802 H   0  0  0  0  0  0  0  0  0  0  0  0
  144.4463   75.6368  219.5802 H   0  0  0  0  0  0  0  0  0  0  0  0
  143.4384   76.8867  217.7104 H   0  0  0  0  0  0  0  0  0  0  0  0
  143.2725   79.3299  217.3599 H   0  0  0  0  0  0  0  0  0  0  0  0
  142.0499   80.7587  218.9924 H   0  0  0  0  0  0  0  0  0  0  0  0
  141.0196   79.6978  220.9538 H   0  0  0  0  0  0  0  0  0  0  0  0
  141.8183   76.8617  222.3708 H   0  0  0  0  0  0  0  0  0  0  0  0
  140.2369   77.7327  221.9897 H   0  0  0  0  0  0  0  0  0  0  0  0
  140.9320   74.9240  221.3730 H   0  0  0  0  0  0  0  0  0  0  0  0
  137.3399   74.4990  220.5885 H   0  0  0  0  0  0  0  0  0  0  0  0
  138.9940   73.9121  220.0893 H   0  0  0  0  0  0  0  0  0  0  0  0
  137.6920   73.4560  222.7610 H   0  0  0  0  0  0  0  0  0  0  0  0
  139.0288   70.1554  222.0731 H   0  0  0  0  0  0  0  0  0  0  0  0
  139.2857   68.4725  223.8954 H   0  0  0  0  0  0  0  0  0  0  0  0
  139.9365   67.9428  226.0857 H   0  0  0  0  0  0  0  0  0  0  0  0
  141.5315   70.9851  228.6478 H   0  0  0  0  0  0  0  0  0  0  0  0
  141.2773   72.6455  226.8403 H   0  0  0  0  0  0  0  0  0  0  0  0
  1  2  1  0
  2  3  1  0
  3  4  2  0
  4  5  1  0
  5  6  2  0
  6  7  1  0
  7  8  2  0
  8  9  1  0
  9 10  1  0
 10 11  1  0
 11 12  2  0
 11 13  1  0
 13 14  1  0
 14 15  1  0
 15 16  2  0
 15 17  1  0
 17 18  2  0
 18 19  1  0
 19 20  2  0
 20 21  1  0
 21 22  2  0
 22 23  1  0
 22 24  1  0
 24 25  2  0
 25 26  1  0
 26 27  2  0
  8  3  1  0
 27 17  1  0
 26 20  1  0
  1 28  1  0
  1 29  1  0
  1 30  1  0
  4 31  1  0
  5 32  1  0
  6 33  1  0
  7 34  1  0
  9 35  1  0
  9 36  1  0
 10 37  1  0
 13 38  1  0
 13 39  1  0
 14 40  1  0
 18 41  1  0
 19 42  1  0
 21 43  1  0
 24 44  1  0
 25 45  1  0
M  END
>  <smiles>  (23) 
COc1ccccc1CNC(=O)CNC(=O)c1ccc2cc(Cl)ccc2n1

>  <score_type>  (23) 
oracle

>  <origin>  (23) 
autodockgpu

>  <m_score__min__energy>  (23) 
-8.1300000000000008

>  <m_primary>  (23) 
energy

>  <rmsd>  (23) 
2.466489166356911

>  <m_score__min__rmsd>  (23) 
2.466489166356911

>  <meeko>  (23) 
{"free_energy": -6.83, "intermolecular_energy": -8.62, "internal_energy": -2.09, "cluster_size": 3, "cluster_id": 3, "rank_in_cluster": 3}

>  <energy>  (23) 
-6.7

>  <cluster_rmsd>  (23) 
1.57

>  <cluster>  (23) 
2

$$$$

     RDKit          3D

 45 47  0  0  0  0  0  0  0  0999 V2000
  137.4670   80.6750  224.0880 C   0  0  0  0  0  0  0  0  0  0  0  0
  137.9390   79.6110  223.2660 O   0  0  0  0  0  0  0  0  0  0  0  0
  139.3040   79.3140  223.3190 C   0  0  0  0  0  0  0  0  0  0  0  0
  140.2460   80.2840  223.6530 C   0  0  0  0  0  0  0  0  0  0  0  0
  141.5910   79.9620  223.6980 C   0  0  0  0  0  0  0  0  0  0  0  0
  142.0220   78.6820  223.4160 C   0  0  0  0  0  0  0  0  0  0  0  0
  141.0780   77.7480  223.0920 C   0  0  0  0  0  0  0  0  0  0  0  0
  139.7170   78.0220  223.0330 C   0  0  0  0  0  0  0  0  0  0  0  0
  138.6990   77.0250  222.6810 C   0  0  0  0  0  0  0  0  0  0  0  0
  139.1940   75.7830  222.1770 N   0  0  0  0  0  0  0  0  0  0  0  0
  140.0480   75.7110  221.0440 C   0  0  0  0  0  0  0  0  0  0  0  0
  140.3950   76.7690  220.4510 O   0  0  0  0  0  0  0  0  0  0  0  0
  140.4980   74.3670  220.6110 C   0  0  0  0  0  0  0  0  0  0  0  0
  140.7830   73.4800  221.7130 N   0  0  0  0  0  0  0  0  0  0  0  0
  139.6590   72.7450  222.2400 C   0  0  0  0  0  0  0  0  0  0  0  0
  138.5590   72.9690  221.6700 O   0  0  0  0  0  0  0  0  0  0  0  0
  139.8150   71.8170  223.3520 C   0  0  0  0  0  0  0  0  0  0  0  0
  139.3950   70.5120  223.1340 C   0  0  0  0  0  0  0  0  0  0  0  0
  139.5110   69.5690  224.1360 C   0  0  0  0  0  0  0  0  0  0  0  0
  140.0480   69.9570  225.3430 C   0  0  0  0  0  0  0  0  0  0  0  0
  140.1610   69.0050  226.3430 C   0  0  0  0  0  0  0  0  0  0  0  0
  140.6920   69.3470  227.5660 C   0  0  0  0  0  0  0  0  0  0  0  0
  140.8350   68.1400  228.8320 Cl  0  0  0  0  0  0  0  0  0  0  0  0
  141.1020   70.6550  227.7560 C   0  0  0  0  0  0  0  0  0  0  0  0
  140.9830   71.5960  226.7450 C   0  0  0  0  0  0  0  0  0  0  0  0
  140.4520   71.2630  225.5160 C   0  0  0  0  0  0  0  0  0  0  0  0
  140.3350   72.1690  224.5400 N   0  0  0  0  0  0  0  0  0  0  0  0
  137.5881   80.4019  225.1467 H   0  0  0  0  0  0  0  0  0  0  0  0
  138.0452   81.5864  223.8759 H   0  0  0  0  0  0  0  0  0  0  0  0
  136.4033   80.8580  223.8759 H   0  0  0  0  0  0  0  0  0  0  0  0
  139.9198   81.3093  223.8817 H   0  0  0  0  0  0  0  0  0  0  0  0
  142.3261   80.7365  223.9620 H   0  0  0  0  0  0  0  0  0  0  0  0
  143.0902   78.4217  223.4508 H   0  0  0  0  0  0  0  0  0  0  0  0
  141.4136   76.7251  222.8659 H   0  0  0  0  0  0  0  0  0  0  0  0
  138.1088   76.8116  223.5844 H   0  0  0  0  0  0  0  0  0  0  0  0
  138.1161   77.4695  221.8609 H   0  0  0  0  0  0  0  0  0  0  0  0
  138.9160   74.8960  222.6610 H   0  0  0  0  0  0  0  0  0  0  0  0
  139.7069   73.9154  219.9944 H   0  0  0  0  0  0  0  0  0  0  0  0
  141.4341   74.5012  220.0492 H   0  0  0  0  0  0  0  0  0  0  0  0
  141.7440   73.3580  222.1280 H   0  0  0  0  0  0  0  0  0  0  0  0
  138.9687   70.2284  222.1605 H   0  0  0  0  0  0  0  0  0  0  0  0
  139.1820   68.5320  223.9737 H   0  0  0  0  0  0  0  0  0  0  0  0
  139.8257   67.9736  226.1593 H   0  0  0  0  0  0  0  0  0  0  0  0
  141.5292   70.9528  228.7249 H   0  0  0  0  0  0  0  0  0  0  0  0
  141.3184   72.6279  226.9261 H   0  0  0  0  0  0  0  0  0  0  0  0
  1  2  1  0
  2  3  1  0
  3  4  2  0
  4  5  1  0
  5  6  2  0
  6  7  1  0
  7  8  2  0
  8  9  1  0
  9 10  1  0
 10 11  1  0
 11 12  2  0
 11 13  1  0
 13 14  1  0
 14 15  1  0
 15 16  2  0
 15 17  1  0
 17 18  2  0
 18 19  1  0
 19 20  2  0
 20 21  1  0
 21 22  2  0
 22 23  1  0
 22 24  1  0
 24 25  2  0
 25 26  1  0
 26 27  2  0
  8  3  1  0
 27 17  1  0
 26 20  1  0
  1 28  1  0
  1 29  1  0
  1 30  1  0
  4 31  1  0
  5 32  1  0
  6 33  1  0
  7 34  1  0
  9 35  1  0
  9 36  1  0
 10 37  1  0
 13 38  1  0
 13 39  1  0
 14 40  1  0
 18 41  1  0
 19 42  1  0
 21 43  1  0
 24 44  1  0
 25 45  1  0
M  END
>  <smiles>  (24) 
COc1ccccc1CNC(=O)CNC(=O)c1ccc2cc(Cl)ccc2n1

>  <score_type>  (24) 
oracle

>  <origin>  (24) 
autodockgpu

>  <m_score__min__energy>  (24) 
-8.1300000000000008

>  <m_primary>  (24) 
energy

>  <rmsd>  (24) 
3.481798073570153

>  <m_score__min__rmsd>  (24) 
3.481798073570153

>  <meeko>  (24) 
{"free_energy": -7.39, "intermolecular_energy": -9.17, "internal_energy": -1.47, "cluster_size": 13, "cluster_id": 1, "rank_in_cluster": 10}

>  <energy>  (24) 
-6.65

>  <cluster_rmsd>  (24) 
1.76

>  <cluster>  (24) 
2

$$$$

     RDKit          3D

 45 47  0  0  0  0  0  0  0  0999 V2000
  137.7590   79.7840  223.2310 C   0  0  0  0  0  0  0  0  0  0  0  0
  138.9510   79.0780  223.5660 O   0  0  0  0  0  0  0  0  0  0  0  0
  140.1690   79.6970  223.2720 C   0  0  0  0  0  0  0  0  0  0  0  0
  140.2870   81.0840  223.2240 C   0  0  0  0  0  0  0  0  0  0  0  0
  141.5050   81.6700  222.9300 C   0  0  0  0  0  0  0  0  0  0  0  0
  142.6200   80.8970  222.6810 C   0  0  0  0  0  0  0  0  0  0  0  0
  142.4800   79.5390  222.7340 C   0  0  0  0  0  0  0  0  0  0  0  0
  141.2780   78.9020  223.0250 C   0  0  0  0  0  0  0  0  0  0  0  0
  141.1200   77.4450  223.0790 C   0  0  0  0  0  0  0  0  0  0  0  0
  139.9620   76.9210  222.4250 N   0  0  0  0  0  0  0  0  0  0  0  0
  139.9240   75.6060  221.8900 C   0  0  0  0  0  0  0  0  0  0  0  0
  140.9360   74.8580  221.9870 O   0  0  0  0  0  0  0  0  0  0  0  0
  138.6700   75.1710  221.2320 C   0  0  0  0  0  0  0  0  0  0  0  0
  137.6920   74.6510  222.1580 N   0  0  0  0  0  0  0  0  0  0  0  0
  136.8430   75.6280  222.7950 C   0  0  0  0  0  0  0  0  0  0  0  0
  137.0600   76.8220  222.4630 O   0  0  0  0  0  0  0  0  0  0  0  0
  135.8160   75.2310  223.7490 C   0  0  0  0  0  0  0  0  0  0  0  0
  135.1060   76.2560  224.3580 C   0  0  0  0  0  0  0  0  0  0  0  0
  134.1130   75.9640  225.2730 C   0  0  0  0  0  0  0  0  0  0  0  0
  133.8530   74.6430  225.5600 C   0  0  0  0  0  0  0  0  0  0  0  0
  132.8560   74.3590  226.4790 C   0  0  0  0  0  0  0  0  0  0  0  0
  132.5610   73.0530  226.7980 C   0  0  0  0  0  0  0  0  0  0  0  0
  131.2980   72.6940  227.9610 Cl  0  0  0  0  0  0  0  0  0  0  0  0
  133.2850   72.0510  226.1760 C   0  0  0  0  0  0  0  0  0  0  0  0
  134.2800   72.3520  225.2570 C   0  0  0  0  0  0  0  0  0  0  0  0
  134.5830   73.6580  224.9320 C   0  0  0  0  0  0  0  0  0  0  0  0
  135.5420   73.9490  224.0480 N   0  0  0  0  0  0  0  0  0  0  0  0
  137.2426   80.0898  224.1529 H   0  0  0  0  0  0  0  0  0  0  0  0
  138.0149   80.6763  222.6408 H   0  0  0  0  0  0  0  0  0  0  0  0
  137.0995   79.1307  222.6408 H   0  0  0  0  0  0  0  0  0  0  0  0
  139.4083   81.7158  223.4206 H   0  0  0  0  0  0  0  0  0  0  0  0
  141.5855   82.7665  222.8943 H   0  0  0  0  0  0  0  0  0  0  0  0
  143.5905   81.3590  222.4473 H   0  0  0  0  0  0  0  0  0  0  0  0
  143.3648   78.9162  222.5360 H   0  0  0  0  0  0  0  0  0  0  0  0
  142.0063   76.9917  222.6110 H   0  0  0  0  0  0  0  0  0  0  0  0
  141.0004   77.1963  224.1438 H   0  0  0  0  0  0  0  0  0  0  0  0
  139.1130   77.5290  222.3380 H   0  0  0  0  0  0  0  0  0  0  0  0
  138.2320   76.0340  220.7092 H   0  0  0  0  0  0  0  0  0  0  0  0
  138.9298   74.3565  220.5398 H   0  0  0  0  0  0  0  0  0  0  0  0
  137.5840   73.6260  222.3750 H   0  0  0  0  0  0  0  0  0  0  0  0
  135.3344   77.3034  224.1116 H   0  0  0  0  0  0  0  0  0  0  0  0
  133.5432   76.7685  225.7610 H   0  0  0  0  0  0  0  0  0  0  0  0
  132.2987   75.1793  226.9550 H   0  0  0  0  0  0  0  0  0  0  0  0
  133.0682   70.9992  226.4139 H   0  0  0  0  0  0  0  0  0  0  0  0
  134.8379   71.5336  224.7784 H   0  0  0  0  0  0  0  0  0  0  0  0
  1  2  1  0
  2  3  1  0
  3  4  2  0
  4  5  1  0
  5  6  2  0
  6  7  1  0
  7  8  2  0
  8  9  1  0
  9 10  1  0
 10 11  1  0
 11 12  2  0
 11 13  1  0
 13 14  1  0
 14 15  1  0
 15 16  2  0
 15 17  1  0
 17 18  2  0
 18 19  1  0
 19 20  2  0
 20 21  1  0
 21 22  2  0
 22 23  1  0
 22 24  1  0
 24 25  2  0
 25 26  1  0
 26 27  2  0
  8  3  1  0
 27 17  1  0
 26 20  1  0
  1 28  1  0
  1 29  1  0
  1 30  1  0
  4 31  1  0
  5 32  1  0
  6 33  1  0
  7 34  1  0
  9 35  1  0
  9 36  1  0
 10 37  1  0
 13 38  1  0
 13 39  1  0
 14 40  1  0
 18 41  1  0
 19 42  1  0
 21 43  1  0
 24 44  1  0
 25 45  1  0
M  END
>  <smiles>  (25) 
COc1ccccc1CNC(=O)CNC(=O)c1ccc2cc(Cl)ccc2n1

>  <score_type>  (25) 
oracle

>  <origin>  (25) 
autodockgpu

>  <m_score__min__energy>  (25) 
-8.1300000000000008

>  <m_primary>  (25) 
energy

>  <rmsd>  (25) 
6.544707329370906

>  <m_score__min__rmsd>  (25) 
6.544707329370906

>  <meeko>  (25) 
{"free_energy": -6.3, "intermolecular_energy": -8.09, "internal_energy": -2.39, "cluster_size": 3, "cluster_id": 7, "rank_in_cluster": 3}

>  <energy>  (25) 
-7.66

>  <cluster_rmsd>  (25) 
0.0

>  <cluster>  (25) 
3

$$$$

     RDKit          3D

 45 47  0  0  0  0  0  0  0  0999 V2000
  140.0550   71.8010  223.4370 C   0  0  0  0  0  0  0  0  0  0  0  0
  140.3080   70.6110  224.1790 O   0  0  0  0  0  0  0  0  0  0  0  0
  140.4480   70.7340  225.5640 C   0  0  0  0  0  0  0  0  0  0  0  0
  141.0600   71.8470  226.1360 C   0  0  0  0  0  0  0  0  0  0  0  0
  141.1850   71.9430  227.5110 C   0  0  0  0  0  0  0  0  0  0  0  0
  140.7090   70.9460  228.3360 C   0  0  0  0  0  0  0  0  0  0  0  0
  140.1120   69.8640  227.7510 C   0  0  0  0  0  0  0  0  0  0  0  0
  139.9620   69.7210  226.3760 C   0  0  0  0  0  0  0  0  0  0  0  0
  139.3270   68.5610  225.7420 C   0  0  0  0  0  0  0  0  0  0  0  0
  138.1120   68.8260  225.0370 N   0  0  0  0  0  0  0  0  0  0  0  0
  138.0390   68.8050  223.6180 C   0  0  0  0  0  0  0  0  0  0  0  0
  139.0700   68.5430  222.9400 O   0  0  0  0  0  0  0  0  0  0  0  0
  136.7260   69.0970  222.9970 C   0  0  0  0  0  0  0  0  0  0  0  0
  136.0740   70.2540  223.5620 N   0  0  0  0  0  0  0  0  0  0  0  0
  135.2300   70.0080  224.7070 C   0  0  0  0  0  0  0  0  0  0  0  0
  135.1670   68.8060  225.0750 O   0  0  0  0  0  0  0  0  0  0  0  0
  134.5170   71.0930  225.3680 C   0  0  0  0  0  0  0  0  0  0  0  0
  133.5590   70.7240  226.3010 C   0  0  0  0  0  0  0  0  0  0  0  0
  132.8390   71.6920  226.9760 C   0  0  0  0  0  0  0  0  0  0  0  0
  133.0980   73.0150  226.6970 C   0  0  0  0  0  0  0  0  0  0  0  0
  132.3720   73.9790  227.3780 C   0  0  0  0  0  0  0  0  0  0  0  0
  132.5960   75.3150  227.1320 C   0  0  0  0  0  0  0  0  0  0  0  0
  131.6770   76.5360  227.9950 Cl  0  0  0  0  0  0  0  0  0  0  0  0
  133.5580   75.6530  226.1960 C   0  0  0  0  0  0  0  0  0  0  0  0
  134.2770   74.6760  225.5240 C   0  0  0  0  0  0  0  0  0  0  0  0
  134.0590   73.3350  225.7630 C   0  0  0  0  0  0  0  0  0  0  0  0
  134.7490   72.3920  225.1160 N   0  0  0  0  0  0  0  0  0  0  0  0
  139.8776   72.6354  224.1315 H   0  0  0  0  0  0  0  0  0  0  0  0
  140.9246   72.0299  222.8034 H   0  0  0  0  0  0  0  0  0  0  0  0
  139.1675   71.6563  222.8034 H   0  0  0  0  0  0  0  0  0  0  0  0
  141.4451   72.6520  225.4929 H   0  0  0  0  0  0  0  0  0  0  0  0
  141.6705   72.8263  227.9515 H   0  0  0  0  0  0  0  0  0  0  0  0
  140.8064   71.0188  229.4293 H   0  0  0  0  0  0  0  0  0  0  0  0
  139.7301   69.0642  228.4026 H   0  0  0  0  0  0  0  0  0  0  0  0
  140.0449   68.1314  225.0279 H   0  0  0  0  0  0  0  0  0  0  0  0
  139.0541   67.8829  226.5640 H   0  0  0  0  0  0  0  0  0  0  0  0
  137.2470   69.0440  225.5860 H   0  0  0  0  0  0  0  0  0  0  0  0
  136.8791   69.2723  221.9219 H   0  0  0  0  0  0  0  0  0  0  0  0
  136.0753   68.2305  223.1861 H   0  0  0  0  0  0  0  0  0  0  0  0
  136.1870   71.2300  223.1810 H   0  0  0  0  0  0  0  0  0  0  0  0
  133.3719   69.6592  226.5041 H   0  0  0  0  0  0  0  0  0  0  0  0
  132.0772   71.4118  227.7184 H   0  0  0  0  0  0  0  0  0  0  0  0
  131.6152   73.6762  228.1166 H   0  0  0  0  0  0  0  0  0  0  0  0
  133.7554   76.7137  225.9817 H   0  0  0  0  0  0  0  0  0  0  0  0
  135.0357   74.9761  224.7862 H   0  0  0  0  0  0  0  0  0  0  0  0
  1  2  1  0
  2  3  1  0
  3  4  2  0
  4  5  1  0
  5  6  2  0
  6  7  1  0
  7  8  2  0
  8  9  1  0
  9 10  1  0
 10 11  1  0
 11 12  2  0
 11 13  1  0
 13 14  1  0
 14 15  1  0
 15 16  2  0
 15 17  1  0
 17 18  2  0
 18 19  1  0
 19 20  2  0
 20 21  1  0
 21 22  2  0
 22 23  1  0
 22 24  1  0
 24 25  2  0
 25 26  1  0
 26 27  2  0
  8  3  1  0
 27 17  1  0
 26 20  1  0
  1 28  1  0
  1 29  1  0
  1 30  1  0
  4 31  1  0
  5 32  1  0
  6 33  1  0
  7 34  1  0
  9 35  1  0
  9 36  1  0
 10 37  1  0
 13 38  1  0
 13 39  1  0
 14 40  1  0
 18 41  1  0
 19 42  1  0
 21 43  1  0
 24 44  1  0
 25 45  1  0
M  END
>  <smiles>  (26) 
COc1ccccc1CNC(=O)CNC(=O)c1ccc2cc(Cl)ccc2n1

>  <score_type>  (26) 
oracle

>  <origin>  (26) 
autodockgpu

>  <m_score__min__energy>  (26) 
-8.1300000000000008

>  <m_primary>  (26) 
energy

>  <rmsd>  (26) 
8.296363272095356

>  <m_score__min__rmsd>  (26) 
8.296363272095356

>  <meeko>  (26) 
{"free_energy": -7.32, "intermolecular_energy": -9.11, "internal_energy": -1.79, "cluster_size": 7, "cluster_id": 4, "rank_in_cluster": 1}

>  <energy>  (26) 
-6.9

>  <cluster_rmsd>  (26) 
1.79

>  <cluster>  (26) 
3

$$$$

     RDKit          3D

 45 47  0  0  0  0  0  0  0  0999 V2000
  137.8660   80.9460  224.7440 C   0  0  0  0  0  0  0  0  0  0  0  0
  138.2180   80.3440  223.5010 O   0  0  0  0  0  0  0  0  0  0  0  0
  139.5120   79.8320  223.3780 C   0  0  0  0  0  0  0  0  0  0  0  0
  140.6330   80.6180  223.6330 C   0  0  0  0  0  0  0  0  0  0  0  0
  141.9030   80.0850  223.5030 C   0  0  0  0  0  0  0  0  0  0  0  0
  142.0830   78.7720  223.1210 C   0  0  0  0  0  0  0  0  0  0  0  0
  140.9680   78.0200  222.8760 C   0  0  0  0  0  0  0  0  0  0  0  0
  139.6720   78.5090  222.9930 C   0  0  0  0  0  0  0  0  0  0  0  0
  138.4710   77.7090  222.7270 C   0  0  0  0  0  0  0  0  0  0  0  0
  138.6980   76.3310  222.4220 N   0  0  0  0  0  0  0  0  0  0  0  0
  139.1650   75.9040  221.1500 C   0  0  0  0  0  0  0  0  0  0  0  0
  139.3960   76.7540  220.2470 O   0  0  0  0  0  0  0  0  0  0  0  0
  139.3620   74.4500  220.9480 C   0  0  0  0  0  0  0  0  0  0  0  0
  139.5200   73.7190  222.1820 N   0  0  0  0  0  0  0  0  0  0  0  0
  139.6490   72.2880  222.0590 C   0  0  0  0  0  0  0  0  0  0  0  0
  139.6080   71.8480  220.8790 O   0  0  0  0  0  0  0  0  0  0  0  0
  139.8150   71.4380  223.2300 C   0  0  0  0  0  0  0  0  0  0  0  0
  139.4250   70.1130  223.0950 C   0  0  0  0  0  0  0  0  0  0  0  0
  139.5520   69.2400  224.1580 C   0  0  0  0  0  0  0  0  0  0  0  0
  140.0690   69.7180  225.3410 C   0  0  0  0  0  0  0  0  0  0  0  0
  140.1930   68.8360  226.4020 C   0  0  0  0  0  0  0  0  0  0  0  0
  140.7050   69.2690  227.6040 C   0  0  0  0  0  0  0  0  0  0  0  0
  140.8620   68.1520  228.9480 Cl  0  0  0  0  0  0  0  0  0  0  0  0
  141.0850   70.5960  227.7110 C   0  0  0  0  0  0  0  0  0  0  0  0
  140.9550   71.4660  226.6390 C   0  0  0  0  0  0  0  0  0  0  0  0
  140.4430   71.0410  225.4300 C   0  0  0  0  0  0  0  0  0  0  0  0
  140.3160   71.8780  224.3970 N   0  0  0  0  0  0  0  0  0  0  0  0
  138.2320   80.3201  225.5712 H   0  0  0  0  0  0  0  0  0  0  0  0
  138.3225   81.9446  224.8101 H   0  0  0  0  0  0  0  0  0  0  0  0
  136.7718   81.0379  224.8101 H   0  0  0  0  0  0  0  0  0  0  0  0
  140.5081   81.6671  223.9391 H   0  0  0  0  0  0  0  0  0  0  0  0
  142.7804   80.7164  223.7069 H   0  0  0  0  0  0  0  0  0  0  0  0
  143.0909   78.3439  223.0169 H   0  0  0  0  0  0  0  0  0  0  0  0
  141.1035   76.9721  222.5700 H   0  0  0  0  0  0  0  0  0  0  0  0
  137.8293   77.7562  223.6192 H   0  0  0  0  0  0  0  0  0  0  0  0
  138.0151   78.1440  221.8254 H   0  0  0  0  0  0  0  0  0  0  0  0
  138.5120   75.6130  223.1620 H   0  0  0  0  0  0  0  0  0  0  0  0
  138.4872   74.0498  220.4146 H   0  0  0  0  0  0  0  0  0  0  0  0
  140.2912   74.3237  220.3730 H   0  0  0  0  0  0  0  0  0  0  0  0
  139.5420   74.1780  223.1310 H   0  0  0  0  0  0  0  0  0  0  0  0
  139.0136   69.7570  222.1390 H   0  0  0  0  0  0  0  0  0  0  0  0
  139.2472   68.1875  224.0615 H   0  0  0  0  0  0  0  0  0  0  0  0
  139.8817   67.7876  226.2836 H   0  0  0  0  0  0  0  0  0  0  0  0
  141.4966   70.9661  228.6616 H   0  0  0  0  0  0  0  0  0  0  0  0
  141.2659   72.5148  226.7545 H   0  0  0  0  0  0  0  0  0  0  0  0
  1  2  1  0
  2  3  1  0
  3  4  2  0
  4  5  1  0
  5  6  2  0
  6  7  1  0
  7  8  2  0
  8  9  1  0
  9 10  1  0
 10 11  1  0
 11 12  2  0
 11 13  1  0
 13 14  1  0
 14 15  1  0
 15 16  2  0
 15 17  1  0
 17 18  2  0
 18 19  1  0
 19 20  2  0
 20 21  1  0
 21 22  2  0
 22 23  1  0
 22 24  1  0
 24 25  2  0
 25 26  1  0
 26 27  2  0
  8  3  1  0
 27 17  1  0
 26 20  1  0
  1 28  1  0
  1 29  1  0
  1 30  1  0
  4 31  1  0
  5 32  1  0
  6 33  1  0
  7 34  1  0
  9 35  1  0
  9 36  1  0
 10 37  1  0
 13 38  1  0
 13 39  1  0
 14 40  1  0
 18 41  1  0
 19 42  1  0
 21 43  1  0
 24 44  1  0
 25 45  1  0
M  END
>  <smiles>  (27) 
COc1ccccc1CNC(=O)CNC(=O)c1ccc2cc(Cl)ccc2n1

>  <score_type>  (27) 
oracle

>  <origin>  (27) 
autodockgpu

>  <m_score__min__energy>  (27) 
-8.1300000000000008

>  <m_primary>  (27) 
energy

>  <rmsd>  (27) 
3.435106741419529

>  <m_score__min__rmsd>  (27) 
3.435106741419529

>  <meeko>  (27) 
{"free_energy": -8.13, "intermolecular_energy": -9.92, "internal_energy": -0.94, "cluster_size": 13, "cluster_id": 1, "rank_in_cluster": 1}

>  <energy>  (27) 
-6.83

>  <cluster_rmsd>  (27) 
1.68

>  <cluster>  (27) 
3

$$$$

     RDKit          3D

 45 47  0  0  0  0  0  0  0  0999 V2000
  137.3930   80.6570  224.1920 C   0  0  0  0  0  0  0  0  0  0  0  0
  137.7220   79.5630  223.3400 O   0  0  0  0  0  0  0  0  0  0  0  0
  139.0740   79.2350  223.2070 C   0  0  0  0  0  0  0  0  0  0  0  0
  140.0780   80.1490  223.5230 C   0  0  0  0  0  0  0  0  0  0  0  0
  141.4080   79.7980  223.3820 C   0  0  0  0  0  0  0  0  0  0  0  0
  141.7650   78.5450  222.9290 C   0  0  0  0  0  0  0  0  0  0  0  0
  140.7630   77.6670  222.6250 C   0  0  0  0  0  0  0  0  0  0  0  0
  139.4130   77.9710  222.7500 C   0  0  0  0  0  0  0  0  0  0  0  0
  138.3320   77.0350  222.4220 C   0  0  0  0  0  0  0  0  0  0  0  0
  138.7440   75.7560  221.9340 N   0  0  0  0  0  0  0  0  0  0  0  0
  138.1460   75.1500  220.7960 C   0  0  0  0  0  0  0  0  0  0  0  0
  137.2200   75.7460  220.1810 O   0  0  0  0  0  0  0  0  0  0  0  0
  138.6550   73.8210  220.3830 C   0  0  0  0  0  0  0  0  0  0  0  0
  138.6370   72.8490  221.4490 N   0  0  0  0  0  0  0  0  0  0  0  0
  139.8110   72.8080  222.2880 C   0  0  0  0  0  0  0  0  0  0  0  0
  140.7120   73.6330  221.9850 O   0  0  0  0  0  0  0  0  0  0  0  0
  139.9160   71.8720  223.3990 C   0  0  0  0  0  0  0  0  0  0  0  0
  139.4470   70.5860  223.1710 C   0  0  0  0  0  0  0  0  0  0  0  0
  139.5130   69.6360  224.1720 C   0  0  0  0  0  0  0  0  0  0  0  0
  140.0510   69.9990  225.3860 C   0  0  0  0  0  0  0  0  0  0  0  0
  140.1140   69.0400  226.3850 C   0  0  0  0  0  0  0  0  0  0  0  0
  140.6430   69.3570  227.6150 C   0  0  0  0  0  0  0  0  0  0  0  0
  140.7230   68.1420  228.8790 Cl  0  0  0  0  0  0  0  0  0  0  0  0
  141.1040   70.6470  227.8140 C   0  0  0  0  0  0  0  0  0  0  0  0
  141.0340   71.5950  226.8040 C   0  0  0  0  0  0  0  0  0  0  0  0
  140.5050   71.2870  225.5680 C   0  0  0  0  0  0  0  0  0  0  0  0
  140.4370   72.1990  224.5940 N   0  0  0  0  0  0  0  0  0  0  0  0
  137.4869   80.3447  225.2426 H   0  0  0  0  0  0  0  0  0  0  0  0
  138.0792   81.4940  223.9955 H   0  0  0  0  0  0  0  0  0  0  0  0
  136.3590   80.9767  223.9955 H   0  0  0  0  0  0  0  0  0  0  0  0
  139.8114   81.1527  223.8857 H   0  0  0  0  0  0  0  0  0  0  0  0
  142.1916   80.5275  223.6344 H   0  0  0  0  0  0  0  0  0  0  0  0
  142.8219   78.2618  222.8161 H   0  0  0  0  0  0  0  0  0  0  0  0
  141.0399   76.6662  222.2620 H   0  0  0  0  0  0  0  0  0  0  0  0
  137.7374   76.8732  223.3332 H   0  0  0  0  0  0  0  0  0  0  0  0
  137.7710   77.5024  221.5993 H   0  0  0  0  0  0  0  0  0  0  0  0
  139.5130   75.2490  222.4330 H   0  0  0  0  0  0  0  0  0  0  0  0
  138.0293   73.4477  219.5589 H   0  0  0  0  0  0  0  0  0  0  0  0
  139.7038   73.9529  220.0786 H   0  0  0  0  0  0  0  0  0  0  0  0
  137.8310   72.1940  221.6270 H   0  0  0  0  0  0  0  0  0  0  0  0
  139.0218   70.3224  222.1913 H   0  0  0  0  0  0  0  0  0  0  0  0
  139.1443   68.6135  224.0028 H   0  0  0  0  0  0  0  0  0  0  0  0
  139.7402   68.0232  226.1940 H   0  0  0  0  0  0  0  0  0  0  0  0
  141.5325   70.9246  228.7883 H   0  0  0  0  0  0  0  0  0  0  0  0
  141.4076   72.6123  226.9924 H   0  0  0  0  0  0  0  0  0  0  0  0
  1  2  1  0
  2  3  1  0
  3  4  2  0
  4  5  1  0
  5  6  2  0
  6  7  1  0
  7  8  2  0
  8  9  1  0
  9 10  1  0
 10 11  1  0
 11 12  2  0
 11 13  1  0
 13 14  1  0
 14 15  1  0
 15 16  2  0
 15 17  1  0
 17 18  2  0
 18 19  1  0
 19 20  2  0
 20 21  1  0
 21 22  2  0
 22 23  1  0
 22 24  1  0
 24 25  2  0
 25 26  1  0
 26 27  2  0
  8  3  1  0
 27 17  1  0
 26 20  1  0
  1 28  1  0
  1 29  1  0
  1 30  1  0
  4 31  1  0
  5 32  1  0
  6 33  1  0
  7 34  1  0
  9 35  1  0
  9 36  1  0
 10 37  1  0
 13 38  1  0
 13 39  1  0
 14 40  1  0
 18 41  1  0
 19 42  1  0
 21 43  1  0
 24 44  1  0
 25 45  1  0
M  END
>  <smiles>  (28) 
COc1ccccc1CNC(=O)CNC(=O)c1ccc2cc(Cl)ccc2n1

>  <score_type>  (28) 
oracle

>  <origin>  (28) 
autodockgpu

>  <m_score__min__energy>  (28) 
-8.1300000000000008

>  <m_primary>  (28) 
energy

>  <rmsd>  (28) 
3.3131035615943727

>  <m_score__min__rmsd>  (28) 
3.3131035615943727

>  <meeko>  (28) 
{"free_energy": -7.38, "intermolecular_energy": -9.16, "internal_energy": -1.51, "cluster_size": 13, "cluster_id": 1, "rank_in_cluster": 11}

>  <energy>  (28) 
-7.32

>  <cluster_rmsd>  (28) 
0.0

>  <cluster>  (28) 
4

$$$$

     RDKit          3D

 45 47  0  0  0  0  0  0  0  0999 V2000
  138.2480   79.1660  222.7130 C   0  0  0  0  0  0  0  0  0  0  0  0
  139.4060   79.2480  221.8860 O   0  0  0  0  0  0  0  0  0  0  0  0
  140.5900   79.6920  222.4810 C   0  0  0  0  0  0  0  0  0  0  0  0
  140.5890   80.7110  223.4310 C   0  0  0  0  0  0  0  0  0  0  0  0
  141.7760   81.1310  224.0030 C   0  0  0  0  0  0  0  0  0  0  0  0
  142.9770   80.5530  223.6470 C   0  0  0  0  0  0  0  0  0  0  0  0
  142.9520   79.5550  222.7130 C   0  0  0  0  0  0  0  0  0  0  0  0
  141.7870   79.0980  222.1100 C   0  0  0  0  0  0  0  0  0  0  0  0
  141.7540   78.0300  221.1040 C   0  0  0  0  0  0  0  0  0  0  0  0
  140.6240   77.1570  221.1620 N   0  0  0  0  0  0  0  0  0  0  0  0
  140.7290   75.7650  220.8950 C   0  0  0  0  0  0  0  0  0  0  0  0
  141.8470   75.2640  220.5980 O   0  0  0  0  0  0  0  0  0  0  0  0
  139.4890   74.9570  220.9840 C   0  0  0  0  0  0  0  0  0  0  0  0
  139.4360   74.1260  222.1620 N   0  0  0  0  0  0  0  0  0  0  0  0
  140.0980   72.8470  222.0650 C   0  0  0  0  0  0  0  0  0  0  0  0
  140.6460   72.6130  220.9560 O   0  0  0  0  0  0  0  0  0  0  0  0
  140.1160   71.9160  223.1850 C   0  0  0  0  0  0  0  0  0  0  0  0
  139.5970   70.6520  222.9470 C   0  0  0  0  0  0  0  0  0  0  0  0
  139.5790   69.7080  223.9570 C   0  0  0  0  0  0  0  0  0  0  0  0
  140.0840   70.0570  225.1890 C   0  0  0  0  0  0  0  0  0  0  0  0
  140.0630   69.1040  226.1950 C   0  0  0  0  0  0  0  0  0  0  0  0
  140.5570   69.4070  227.4440 C   0  0  0  0  0  0  0  0  0  0  0  0
  140.5300   68.2010  228.7180 Cl  0  0  0  0  0  0  0  0  0  0  0  0
  141.0680   70.6760  227.6520 C   0  0  0  0  0  0  0  0  0  0  0  0
  141.0830   71.6180  226.6340 C   0  0  0  0  0  0  0  0  0  0  0  0
  140.5900   71.3230  225.3800 C   0  0  0  0  0  0  0  0  0  0  0  0
  140.6030   72.2300  224.3980 N   0  0  0  0  0  0  0  0  0  0  0  0
  138.5503   79.1874  223.7704 H   0  0  0  0  0  0  0  0  0  0  0  0
  137.5866   80.0196  222.5034 H   0  0  0  0  0  0  0  0  0  0  0  0
  137.7134   78.2278  222.5034 H   0  0  0  0  0  0  0  0  0  0  0  0
  139.6407   81.1832  223.7272 H   0  0  0  0  0  0  0  0  0  0  0  0
  141.7623   81.9367  224.7518 H   0  0  0  0  0  0  0  0  0  0  0  0
  143.9233   80.8841  224.0996 H   0  0  0  0  0  0  0  0  0  0  0  0
  143.9054   79.0889  222.4235 H   0  0  0  0  0  0  0  0  0  0  0  0
  141.7657   78.5016  220.1103 H   0  0  0  0  0  0  0  0  0  0  0  0
  142.6309   77.3984  221.3092 H   0  0  0  0  0  0  0  0  0  0  0  0
  139.6880   77.5570  221.4090 H   0  0  0  0  0  0  0  0  0  0  0  0
  138.6269   75.6400  220.9988 H   0  0  0  0  0  0  0  0  0  0  0  0
  139.4710   74.2882  220.1109 H   0  0  0  0  0  0  0  0  0  0  0  0
  138.9480   74.4080  223.0520 H   0  0  0  0  0  0  0  0  0  0  0  0
  139.1990   70.4001  221.9529 H   0  0  0  0  0  0  0  0  0  0  0  0
  139.1708   68.7020  223.7802 H   0  0  0  0  0  0  0  0  0  0  0  0
  139.6510   68.1038  225.9953 H   0  0  0  0  0  0  0  0  0  0  0  0
  141.4690   70.9422  228.6411 H   0  0  0  0  0  0  0  0  0  0  0  0
  141.4956   72.6186  226.8303 H   0  0  0  0  0  0  0  0  0  0  0  0
  1  2  1  0
  2  3  1  0
  3  4  2  0
  4  5  1  0
  5  6  2  0
  6  7  1  0
  7  8  2  0
  8  9  1  0
  9 10  1  0
 10 11  1  0
 11 12  2  0
 11 13  1  0
 13 14  1  0
 14 15  1  0
 15 16  2  0
 15 17  1  0
 17 18  2  0
 18 19  1  0
 19 20  2  0
 20 21  1  0
 21 22  2  0
 22 23  1  0
 22 24  1  0
 24 25  2  0
 25 26  1  0
 26 27  2  0
  8  3  1  0
 27 17  1  0
 26 20  1  0
  1 28  1  0
  1 29  1  0
  1 30  1  0
  4 31  1  0
  5 32  1  0
  6 33  1  0
  7 34  1  0
  9 35  1  0
  9 36  1  0
 10 37  1  0
 13 38  1  0
 13 39  1  0
 14 40  1  0
 18 41  1  0
 19 42  1  0
 21 43  1  0
 24 44  1  0
 25 45  1  0
M  END
>  <smiles>  (29) 
COc1ccccc1CNC(=O)CNC(=O)c1ccc2cc(Cl)ccc2n1

>  <score_type>  (29) 
oracle

>  <origin>  (29) 
autodockgpu

>  <m_score__min__energy>  (29) 
-8.1300000000000008

>  <m_primary>  (29) 
energy

>  <rmsd>  (29) 
3.5363250791676157

>  <m_score__min__rmsd>  (29) 
3.5363250791676157

>  <meeko>  (29) 
{"free_energy": -7.98, "intermolecular_energy": -9.77, "internal_energy": -1.35, "cluster_size": 13, "cluster_id": 1, "rank_in_cluster": 2}

>  <energy>  (29) 
-6.93

>  <cluster_rmsd>  (29) 
1.89

>  <cluster>  (29) 
4

$$$$

     RDKit          3D

 45 47  0  0  0  0  0  0  0  0999 V2000
  142.5110   71.0550  219.0400 C   0  0  0  0  0  0  0  0  0  0  0  0
  142.9900   72.3680  218.7600 O   0  0  0  0  0  0  0  0  0  0  0  0
  144.1000   72.8150  219.4820 C   0  0  0  0  0  0  0  0  0  0  0  0
  145.1820   71.9780  219.7440 C   0  0  0  0  0  0  0  0  0  0  0  0
  146.2680   72.4470  220.4620 C   0  0  0  0  0  0  0  0  0  0  0  0
  146.3000   73.7460  220.9280 C   0  0  0  0  0  0  0  0  0  0  0  0
  145.2270   74.5470  220.6580 C   0  0  0  0  0  0  0  0  0  0  0  0
  144.1130   74.1230  219.9420 C   0  0  0  0  0  0  0  0  0  0  0  0
  142.9560   74.9770  219.6530 C   0  0  0  0  0  0  0  0  0  0  0  0
  141.6800   74.4340  220.0010 N   0  0  0  0  0  0  0  0  0  0  0  0
  140.6590   75.2220  220.5970 C   0  0  0  0  0  0  0  0  0  0  0  0
  140.8650   76.4440  220.8330 O   0  0  0  0  0  0  0  0  0  0  0  0
  139.3770   74.5510  220.9160 C   0  0  0  0  0  0  0  0  0  0  0  0
  139.4220   73.7910  222.1420 N   0  0  0  0  0  0  0  0  0  0  0  0
  139.8980   72.4330  222.0280 C   0  0  0  0  0  0  0  0  0  0  0  0
  140.2190   72.0760  220.8640 O   0  0  0  0  0  0  0  0  0  0  0  0
  139.9910   71.5630  223.1930 C   0  0  0  0  0  0  0  0  0  0  0  0
  139.5410   70.2610  223.0300 C   0  0  0  0  0  0  0  0  0  0  0  0
  139.5970   69.3700  224.0850 C   0  0  0  0  0  0  0  0  0  0  0  0
  140.1070   69.8090  225.2870 C   0  0  0  0  0  0  0  0  0  0  0  0
  140.1600   68.9090  226.3400 C   0  0  0  0  0  0  0  0  0  0  0  0
  140.6600   69.3030  227.5600 C   0  0  0  0  0  0  0  0  0  0  0  0
  140.7280   68.1640  228.8930 Cl  0  0  0  0  0  0  0  0  0  0  0  0
  141.1020   70.6080  227.6930 C   0  0  0  0  0  0  0  0  0  0  0  0
  141.0430   71.4950  226.6290 C   0  0  0  0  0  0  0  0  0  0  0  0
  140.5420   71.1100  225.4030 C   0  0  0  0  0  0  0  0  0  0  0  0
  140.4840   71.9650  224.3770 N   0  0  0  0  0  0  0  0  0  0  0  0
  142.4576   70.9086  220.1289 H   0  0  0  0  0  0  0  0  0  0  0  0
  141.5091   70.9294  218.6036 H   0  0  0  0  0  0  0  0  0  0  0  0
  143.1966   70.3137  218.6036 H   0  0  0  0  0  0  0  0  0  0  0  0
  145.1732   70.9404  219.3789 H   0  0  0  0  0  0  0  0  0  0  0  0
  147.1163   71.7764  220.6639 H   0  0  0  0  0  0  0  0  0  0  0  0
  147.1615   74.1238  221.4982 H   0  0  0  0  0  0  0  0  0  0  0  0
  145.2452   75.5832  221.0268 H   0  0  0  0  0  0  0  0  0  0  0  0
  143.0846   75.9186  220.2070 H   0  0  0  0  0  0  0  0  0  0  0  0
  142.9406   75.0998  218.5600 H   0  0  0  0  0  0  0  0  0  0  0  0
  141.4940   73.4210  219.8090 H   0  0  0  0  0  0  0  0  0  0  0  0
  138.5945   75.3185  221.0091 H   0  0  0  0  0  0  0  0  0  0  0  0
  139.1671   73.8432  220.1005 H   0  0  0  0  0  0  0  0  0  0  0  0
  139.1300   74.1780  223.0780 H   0  0  0  0  0  0  0  0  0  0  0  0
  139.1387   69.9370  222.0588 H   0  0  0  0  0  0  0  0  0  0  0  0
  139.2429   68.3352  223.9677 H   0  0  0  0  0  0  0  0  0  0  0  0
  139.8019   67.8784  226.2001 H   0  0  0  0  0  0  0  0  0  0  0  0
  141.5065   70.9467  228.6582 H   0  0  0  0  0  0  0  0  0  0  0  0
  141.4027   72.5256  226.7653 H   0  0  0  0  0  0  0  0  0  0  0  0
  1  2  1  0
  2  3  1  0
  3  4  2  0
  4  5  1  0
  5  6  2  0
  6  7  1  0
  7  8  2  0
  8  9  1  0
  9 10  1  0
 10 11  1  0
 11 12  2  0
 11 13  1  0
 13 14  1  0
 14 15  1  0
 15 16  2  0
 15 17  1  0
 17 18  2  0
 18 19  1  0
 19 20  2  0
 20 21  1  0
 21 22  2  0
 22 23  1  0
 22 24  1  0
 24 25  2  0
 25 26  1  0
 26 27  2  0
  8  3  1  0
 27 17  1  0
 26 20  1  0
  1 28  1  0
  1 29  1  0
  1 30  1  0
  4 31  1  0
  5 32  1  0
  6 33  1  0
  7 34  1  0
  9 35  1  0
  9 36  1  0
 10 37  1  0
 13 38  1  0
 13 39  1  0
 14 40  1  0
 18 41  1  0
 19 42  1  0
 21 43  1  0
 24 44  1  0
 25 45  1  0
M  END
>  <smiles>  (30) 
COc1ccccc1CNC(=O)CNC(=O)c1ccc2cc(Cl)ccc2n1

>  <score_type>  (30) 
oracle

>  <origin>  (30) 
autodockgpu

>  <m_score__min__energy>  (30) 
-8.1300000000000008

>  <m_primary>  (30) 
energy

>  <rmsd>  (30) 
3.1543388272059905

>  <m_score__min__rmsd>  (30) 
3.1543388272059905

>  <meeko>  (30) 
{"free_energy": -7.22, "intermolecular_energy": -9.01, "internal_energy": -2.4, "cluster_size": 12, "cluster_id": 5, "rank_in_cluster": 3}

>  <energy>  (30) 
-6.87

>  <cluster_rmsd>  (30) 
1.91

>  <cluster>  (30) 
4

$$$$

     RDKit          3D

 45 47  0  0  0  0  0  0  0  0999 V2000
  137.8300   79.6610  223.5010 C   0  0  0  0  0  0  0  0  0  0  0  0
  138.9880   78.8300  223.4840 O   0  0  0  0  0  0  0  0  0  0  0  0
  140.2090   79.4350  223.1720 C   0  0  0  0  0  0  0  0  0  0  0  0
  140.3750   80.8160  223.2430 C   0  0  0  0  0  0  0  0  0  0  0  0
  141.5940   81.3880  222.9280 C   0  0  0  0  0  0  0  0  0  0  0  0
  142.6640   80.6060  222.5410 C   0  0  0  0  0  0  0  0  0  0  0  0
  142.4760   79.2540  222.4790 C   0  0  0  0  0  0  0  0  0  0  0  0
  141.2710   78.6320  222.7850 C   0  0  0  0  0  0  0  0  0  0  0  0
  141.0620   77.1810  222.7180 C   0  0  0  0  0  0  0  0  0  0  0  0
  139.7610   76.7600  222.3010 N   0  0  0  0  0  0  0  0  0  0  0  0
  139.4370   75.3920  222.0970 C   0  0  0  0  0  0  0  0  0  0  0  0
  140.3120   74.5040  222.2870 O   0  0  0  0  0  0  0  0  0  0  0  0
  138.0560   75.0740  221.6630 C   0  0  0  0  0  0  0  0  0  0  0  0
  137.0780   75.2420  222.7110 N   0  0  0  0  0  0  0  0  0  0  0  0
  136.4620   76.5440  222.7980 C   0  0  0  0  0  0  0  0  0  0  0  0
  136.8560   77.3800  221.9420 O   0  0  0  0  0  0  0  0  0  0  0  0
  135.4580   76.8410  223.8120 C   0  0  0  0  0  0  0  0  0  0  0  0
  134.9540   78.1340  223.8240 C   0  0  0  0  0  0  0  0  0  0  0  0
  133.9970   78.4970  224.7520 C   0  0  0  0  0  0  0  0  0  0  0  0
  133.5650   77.5500  225.6530 C   0  0  0  0  0  0  0  0  0  0  0  0
  132.6050   77.9220  226.5800 C   0  0  0  0  0  0  0  0  0  0  0  0
  132.1430   77.0090  227.5010 C   0  0  0  0  0  0  0  0  0  0  0  0
  130.9270   77.4800  228.6750 Cl  0  0  0  0  0  0  0  0  0  0  0  0
  132.6640   75.7270  227.4660 C   0  0  0  0  0  0  0  0  0  0  0  0
  133.6240   75.3700  226.5300 C   0  0  0  0  0  0  0  0  0  0  0  0
  134.0940   76.2790  225.6040 C   0  0  0  0  0  0  0  0  0  0  0  0
  135.0190   75.9370  224.7030 N   0  0  0  0  0  0  0  0  0  0  0  0
  137.5422   79.8675  224.5424 H   0  0  0  0  0  0  0  0  0  0  0  0
  138.0507   80.6081  222.9869 H   0  0  0  0  0  0  0  0  0  0  0  0
  137.0035   79.1487  222.9869 H   0  0  0  0  0  0  0  0  0  0  0  0
  139.5334   81.4540  223.5507 H   0  0  0  0  0  0  0  0  0  0  0  0
  141.7127   82.4800  222.9865 H   0  0  0  0  0  0  0  0  0  0  0  0
  143.6358   81.0565  222.2908 H   0  0  0  0  0  0  0  0  0  0  0  0
  143.3234   78.6241  222.1705 H   0  0  0  0  0  0  0  0  0  0  0  0
  141.7944   76.7666  222.0096 H   0  0  0  0  0  0  0  0  0  0  0  0
  141.1798   76.8135  223.7481 H   0  0  0  0  0  0  0  0  0  0  0  0
  139.0220   77.4860  222.1410 H   0  0  0  0  0  0  0  0  0  0  0  0
  137.7905   75.7381  220.8272 H   0  0  0  0  0  0  0  0  0  0  0  0
  138.0415   74.0141  221.3691 H   0  0  0  0  0  0  0  0  0  0  0  0
  136.8110   74.4790  223.3860 H   0  0  0  0  0  0  0  0  0  0  0  0
  135.3173   78.8714  223.0931 H   0  0  0  0  0  0  0  0  0  0  0  0
  133.5898   79.5187  224.7705 H   0  0  0  0  0  0  0  0  0  0  0  0
  132.2111   78.9490  226.5801 H   0  0  0  0  0  0  0  0  0  0  0  0
  132.3113   74.9794  228.1918 H   0  0  0  0  0  0  0  0  0  0  0  0
  134.0179   74.3430  226.5259 H   0  0  0  0  0  0  0  0  0  0  0  0
  1  2  1  0
  2  3  1  0
  3  4  2  0
  4  5  1  0
  5  6  2  0
  6  7  1  0
  7  8  2  0
  8  9  1  0
  9 10  1  0
 10 11  1  0
 11 12  2  0
 11 13  1  0
 13 14  1  0
 14 15  1  0
 15 16  2  0
 15 17  1  0
 17 18  2  0
 18 19  1  0
 19 20  2  0
 20 21  1  0
 21 22  2  0
 22 23  1  0
 22 24  1  0
 24 25  2  0
 25 26  1  0
 26 27  2  0
  8  3  1  0
 27 17  1  0
 26 20  1  0
  1 28  1  0
  1 29  1  0
  1 30  1  0
  4 31  1  0
  5 32  1  0
  6 33  1  0
  7 34  1  0
  9 35  1  0
  9 36  1  0
 10 37  1  0
 13 38  1  0
 13 39  1  0
 14 40  1  0
 18 41  1  0
 19 42  1  0
 21 43  1  0
 24 44  1  0
 25 45  1  0
M  END
>  <smiles>  (31) 
COc1ccccc1CNC(=O)CNC(=O)c1ccc2cc(Cl)ccc2n1

>  <score_type>  (31) 
oracle

>  <origin>  (31) 
autodockgpu

>  <m_score__min__energy>  (31) 
-8.1300000000000008

>  <m_primary>  (31) 
energy

>  <rmsd>  (31) 
7.574689758637206

>  <m_score__min__rmsd>  (31) 
7.574689758637206

>  <meeko>  (31) 
{"free_energy": -6.31, "intermolecular_energy": -8.1, "internal_energy": -2.4, "cluster_size": 3, "cluster_id": 7, "rank_in_cluster": 2}

>  <energy>  (31) 
-6.87

>  <cluster_rmsd>  (31) 
1.91

>  <cluster>  (31) 
4

$$$$

     RDKit          3D

 45 47  0  0  0  0  0  0  0  0999 V2000
  142.4430   70.8190  219.3050 C   0  0  0  0  0  0  0  0  0  0  0  0
  142.6060   72.2260  219.1500 O   0  0  0  0  0  0  0  0  0  0  0  0
  143.7400   72.8100  219.7220 C   0  0  0  0  0  0  0  0  0  0  0  0
  144.8530   72.0480  220.0670 C   0  0  0  0  0  0  0  0  0  0  0  0
  145.9620   72.6510  220.6330 C   0  0  0  0  0  0  0  0  0  0  0  0
  145.9870   74.0110  220.8630 C   0  0  0  0  0  0  0  0  0  0  0  0
  144.8830   74.7370  220.5150 C   0  0  0  0  0  0  0  0  0  0  0  0
  143.7450   74.1780  219.9450 C   0  0  0  0  0  0  0  0  0  0  0  0
  142.5550   74.9510  219.5730 C   0  0  0  0  0  0  0  0  0  0  0  0
  141.2990   74.3650  219.9240 N   0  0  0  0  0  0  0  0  0  0  0  0
  140.2690   75.1070  220.5610 C   0  0  0  0  0  0  0  0  0  0  0  0
  140.4480   76.3260  220.8340 O   0  0  0  0  0  0  0  0  0  0  0  0
  139.0090   74.3940  220.8780 C   0  0  0  0  0  0  0  0  0  0  0  0
  139.0760   73.6390  222.1070 N   0  0  0  0  0  0  0  0  0  0  0  0
  139.7150   72.3480  222.0220 C   0  0  0  0  0  0  0  0  0  0  0  0
  140.1400   72.0360  220.8790 O   0  0  0  0  0  0  0  0  0  0  0  0
  139.8470   71.4900  223.1920 C   0  0  0  0  0  0  0  0  0  0  0  0
  139.4130   70.1800  223.0510 C   0  0  0  0  0  0  0  0  0  0  0  0
  139.5050   69.2990  224.1120 C   0  0  0  0  0  0  0  0  0  0  0  0
  140.0330   69.7570  225.2990 C   0  0  0  0  0  0  0  0  0  0  0  0
  140.1220   68.8680  226.3580 C   0  0  0  0  0  0  0  0  0  0  0  0
  140.6430   69.2800  227.5640 C   0  0  0  0  0  0  0  0  0  0  0  0
  140.7560   68.1540  228.9050 Cl  0  0  0  0  0  0  0  0  0  0  0  0
  141.0670   70.5920  227.6760 C   0  0  0  0  0  0  0  0  0  0  0  0
  140.9720   71.4690  226.6060 C   0  0  0  0  0  0  0  0  0  0  0  0
  140.4510   71.0660  225.3940 C   0  0  0  0  0  0  0  0  0  0  0  0
  140.3580   71.9100  224.3620 N   0  0  0  0  0  0  0  0  0  0  0  0
  142.4140   70.5690  220.3758 H   0  0  0  0  0  0  0  0  0  0  0  0
  141.5024   70.5043  218.8294 H   0  0  0  0  0  0  0  0  0  0  0  0
  143.2867   70.2975  218.8294 H   0  0  0  0  0  0  0  0  0  0  0  0
  144.8505   70.9625  219.8889 H   0  0  0  0  0  0  0  0  0  0  0  0
  146.8348   72.0384  220.9030 H   0  0  0  0  0  0  0  0  0  0  0  0
  146.8669   74.4951  221.3119 H   0  0  0  0  0  0  0  0  0  0  0  0
  144.8954   75.8220  220.6956 H   0  0  0  0  0  0  0  0  0  0  0  0
  142.6205   75.9311  220.0681 H   0  0  0  0  0  0  0  0  0  0  0  0
  142.5639   75.0040  218.4743 H   0  0  0  0  0  0  0  0  0  0  0  0
  141.1350   73.3540  219.7020 H   0  0  0  0  0  0  0  0  0  0  0  0
  138.2008   75.1350  220.9666 H   0  0  0  0  0  0  0  0  0  0  0  0
  138.8254   73.6774  220.0639 H   0  0  0  0  0  0  0  0  0  0  0  0
  138.6900   73.9850  223.0240 H   0  0  0  0  0  0  0  0  0  0  0  0
  138.9943   69.8413  222.0918 H   0  0  0  0  0  0  0  0  0  0  0  0
  139.1650   68.2578  224.0110 H   0  0  0  0  0  0  0  0  0  0  0  0
  139.7758   67.8312  226.2350 H   0  0  0  0  0  0  0  0  0  0  0  0
  141.4864   70.9454  228.6295 H   0  0  0  0  0  0  0  0  0  0  0  0
  141.3188   72.5060  226.7261 H   0  0  0  0  0  0  0  0  0  0  0  0
  1  2  1  0
  2  3  1  0
  3  4  2  0
  4  5  1  0
  5  6  2  0
  6  7  1  0
  7  8  2  0
  8  9  1  0
  9 10  1  0
 10 11  1  0
 11 12  2  0
 11 13  1  0
 13 14  1  0
 14 15  1  0
 15 16  2  0
 15 17  1  0
 17 18  2  0
 18 19  1  0
 19 20  2  0
 20 21  1  0
 21 22  2  0
 22 23  1  0
 22 24  1  0
 24 25  2  0
 25 26  1  0
 26 27  2  0
  8  3  1  0
 27 17  1  0
 26 20  1  0
  1 28  1  0
  1 29  1  0
  1 30  1  0
  4 31  1  0
  5 32  1  0
  6 33  1  0
  7 34  1  0
  9 35  1  0
  9 36  1  0
 10 37  1  0
 13 38  1  0
 13 39  1  0
 14 40  1  0
 18 41  1  0
 19 42  1  0
 21 43  1  0
 24 44  1  0
 25 45  1  0
M  END
>  <smiles>  (32) 
COc1ccccc1CNC(=O)CNC(=O)c1ccc2cc(Cl)ccc2n1

>  <score_type>  (32) 
oracle

>  <origin>  (32) 
autodockgpu

>  <m_score__min__energy>  (32) 
-8.1300000000000008

>  <m_primary>  (32) 
energy

>  <rmsd>  (32) 
2.944118847953623

>  <m_score__min__rmsd>  (32) 
2.944118847953623

>  <meeko>  (32) 
{"free_energy": -7.21, "intermolecular_energy": -9.0, "internal_energy": -2.39, "cluster_size": 12, "cluster_id": 5, "rank_in_cluster": 4}

>  <energy>  (32) 
-6.86

>  <cluster_rmsd>  (32) 
1.89

>  <cluster>  (32) 
4

$$$$

     RDKit          3D

 45 47  0  0  0  0  0  0  0  0999 V2000
  142.4110   70.7660  219.6990 C   0  0  0  0  0  0  0  0  0  0  0  0
  142.3610   72.1760  219.9030 O   0  0  0  0  0  0  0  0  0  0  0  0
  143.5580   72.8230  220.2200 C   0  0  0  0  0  0  0  0  0  0  0  0
  144.6950   72.1080  220.5920 C   0  0  0  0  0  0  0  0  0  0  0  0
  145.8670   72.7740  220.9000 C   0  0  0  0  0  0  0  0  0  0  0  0
  145.9340   74.1510  220.8450 C   0  0  0  0  0  0  0  0  0  0  0  0
  144.8060   74.8300  220.4770 C   0  0  0  0  0  0  0  0  0  0  0  0
  143.6050   74.2070  220.1580 C   0  0  0  0  0  0  0  0  0  0  0  0
  142.3900   74.9300  219.7660 C   0  0  0  0  0  0  0  0  0  0  0  0
  141.1570   74.3600  220.2100 N   0  0  0  0  0  0  0  0  0  0  0  0
  139.9830   75.1400  220.3910 C   0  0  0  0  0  0  0  0  0  0  0  0
  140.0090   76.3780  220.1540 O   0  0  0  0  0  0  0  0  0  0  0  0
  138.7630   74.4400  220.8570 C   0  0  0  0  0  0  0  0  0  0  0  0
  138.9650   73.6970  222.0770 N   0  0  0  0  0  0  0  0  0  0  0  0
  139.4150   72.3350  221.9220 C   0  0  0  0  0  0  0  0  0  0  0  0
  139.5780   71.9590  220.7310 O   0  0  0  0  0  0  0  0  0  0  0  0
  139.6550   71.4800  223.0770 C   0  0  0  0  0  0  0  0  0  0  0  0
  139.2940   70.1470  222.9460 C   0  0  0  0  0  0  0  0  0  0  0  0
  139.4910   69.2680  223.9950 C   0  0  0  0  0  0  0  0  0  0  0  0
  140.0500   69.7500  225.1570 C   0  0  0  0  0  0  0  0  0  0  0  0
  140.2440   68.8630  226.2030 C   0  0  0  0  0  0  0  0  0  0  0  0
  140.7990   69.2990  227.3850 C   0  0  0  0  0  0  0  0  0  0  0  0
  141.0460   68.1750  228.7100 Cl  0  0  0  0  0  0  0  0  0  0  0  0
  141.1500   70.6340  227.4870 C   0  0  0  0  0  0  0  0  0  0  0  0
  140.9490   71.5090  226.4300 C   0  0  0  0  0  0  0  0  0  0  0  0
  140.3930   71.0810  225.2420 C   0  0  0  0  0  0  0  0  0  0  0  0
  140.1980   71.9230  224.2230 N   0  0  0  0  0  0  0  0  0  0  0  0
  142.4291   70.2550  220.6730 H   0  0  0  0  0  0  0  0  0  0  0  0
  141.5236   70.4457  219.1333 H   0  0  0  0  0  0  0  0  0  0  0  0
  143.3188   70.5093  219.1333 H   0  0  0  0  0  0  0  0  0  0  0  0
  144.6599   71.0096  220.6408 H   0  0  0  0  0  0  0  0  0  0  0  0
  146.7576   72.1985  221.1927 H   0  0  0  0  0  0  0  0  0  0  0  0
  146.8643   74.6848  221.0892 H   0  0  0  0  0  0  0  0  0  0  0  0
  144.8512   75.9281  220.4309 H   0  0  0  0  0  0  0  0  0  0  0  0
  142.4571   75.9492  220.1743 H   0  0  0  0  0  0  0  0  0  0  0  0
  142.3595   74.8896  218.6672 H   0  0  0  0  0  0  0  0  0  0  0  0
  141.1200   73.3320  220.4100 H   0  0  0  0  0  0  0  0  0  0  0  0
  137.9752   75.1880  221.0296 H   0  0  0  0  0  0  0  0  0  0  0  0
  138.4827   73.7171  220.0767 H   0  0  0  0  0  0  0  0  0  0  0  0
  138.8000   74.0990  223.0380 H   0  0  0  0  0  0  0  0  0  0  0  0
  138.8501   69.7885  222.0056 H   0  0  0  0  0  0  0  0  0  0  0  0
  139.2078   68.2090  223.9032 H   0  0  0  0  0  0  0  0  0  0  0  0
  139.9540   67.8080  226.0890 H   0  0  0  0  0  0  0  0  0  0  0  0
  141.5954   71.0068  228.4212 H   0  0  0  0  0  0  0  0  0  0  0  0
  141.2384   72.5644  226.5409 H   0  0  0  0  0  0  0  0  0  0  0  0
  1  2  1  0
  2  3  1  0
  3  4  2  0
  4  5  1  0
  5  6  2  0
  6  7  1  0
  7  8  2  0
  8  9  1  0
  9 10  1  0
 10 11  1  0
 11 12  2  0
 11 13  1  0
 13 14  1  0
 14 15  1  0
 15 16  2  0
 15 17  1  0
 17 18  2  0
 18 19  1  0
 19 20  2  0
 20 21  1  0
 21 22  2  0
 22 23  1  0
 22 24  1  0
 24 25  2  0
 25 26  1  0
 26 27  2  0
  8  3  1  0
 27 17  1  0
 26 20  1  0
  1 28  1  0
  1 29  1  0
  1 30  1  0
  4 31  1  0
  5 32  1  0
  6 33  1  0
  7 34  1  0
  9 35  1  0
  9 36  1  0
 10 37  1  0
 13 38  1  0
 13 39  1  0
 14 40  1  0
 18 41  1  0
 19 42  1  0
 21 43  1  0
 24 44  1  0
 25 45  1  0
M  END
>  <smiles>  (33) 
COc1ccccc1CNC(=O)CNC(=O)c1ccc2cc(Cl)ccc2n1

>  <score_type>  (33) 
oracle

>  <origin>  (33) 
autodockgpu

>  <m_score__min__energy>  (33) 
-8.1300000000000008

>  <m_primary>  (33) 
energy

>  <rmsd>  (33) 
2.932375343178895

>  <m_score__min__rmsd>  (33) 
2.932375343178895

>  <meeko>  (33) 
{"free_energy": -7.09, "intermolecular_energy": -8.88, "internal_energy": -2.44, "cluster_size": 12, "cluster_id": 5, "rank_in_cluster": 7}

>  <energy>  (33) 
-6.85

>  <cluster_rmsd>  (33) 
1.9

>  <cluster>  (33) 
4

$$$$

     RDKit          3D

 45 47  0  0  0  0  0  0  0  0999 V2000
  138.2590   79.3280  222.6860 C   0  0  0  0  0  0  0  0  0  0  0  0
  139.4300   79.3520  221.8730 O   0  0  0  0  0  0  0  0  0  0  0  0
  140.6240   79.7540  222.4780 C   0  0  0  0  0  0  0  0  0  0  0  0
  140.6490   80.7650  223.4360 C   0  0  0  0  0  0  0  0  0  0  0  0
  141.8450   81.1440  224.0180 C   0  0  0  0  0  0  0  0  0  0  0  0
  143.0300   80.5310  223.6630 C   0  0  0  0  0  0  0  0  0  0  0  0
  142.9790   79.5420  222.7210 C   0  0  0  0  0  0  0  0  0  0  0  0
  141.8040   79.1260  222.1080 C   0  0  0  0  0  0  0  0  0  0  0  0
  141.7430   78.0680  221.0930 C   0  0  0  0  0  0  0  0  0  0  0  0
  140.6240   77.1840  221.1830 N   0  0  0  0  0  0  0  0  0  0  0  0
  140.7240   75.8020  220.8700 C   0  0  0  0  0  0  0  0  0  0  0  0
  141.8290   75.3190  220.5000 O   0  0  0  0  0  0  0  0  0  0  0  0
  139.4960   74.9810  220.9990 C   0  0  0  0  0  0  0  0  0  0  0  0
  139.4830   74.1600  222.1850 N   0  0  0  0  0  0  0  0  0  0  0  0
  140.0790   72.8530  222.0570 C   0  0  0  0  0  0  0  0  0  0  0  0
  140.5420   72.5870  220.9160 O   0  0  0  0  0  0  0  0  0  0  0  0
  140.1280   71.9280  223.1820 C   0  0  0  0  0  0  0  0  0  0  0  0
  139.6390   70.6500  222.9550 C   0  0  0  0  0  0  0  0  0  0  0  0
  139.6520   69.7120  223.9700 C   0  0  0  0  0  0  0  0  0  0  0  0
  140.1580   70.0800  225.1960 C   0  0  0  0  0  0  0  0  0  0  0  0
  140.1680   69.1330  226.2080 C   0  0  0  0  0  0  0  0  0  0  0  0
  140.6640   69.4550  227.4510 C   0  0  0  0  0  0  0  0  0  0  0  0
  140.6770   68.2560  228.7320 Cl  0  0  0  0  0  0  0  0  0  0  0  0
  141.1460   70.7380  227.6480 C   0  0  0  0  0  0  0  0  0  0  0  0
  141.1300   71.6740  226.6240 C   0  0  0  0  0  0  0  0  0  0  0  0
  140.6340   71.3600  225.3760 C   0  0  0  0  0  0  0  0  0  0  0  0
  140.6170   72.2610  224.3890 N   0  0  0  0  0  0  0  0  0  0  0  0
  138.5491   79.3339  223.7470 H   0  0  0  0  0  0  0  0  0  0  0  0
  137.6438   80.2137  222.4691 H   0  0  0  0  0  0  0  0  0  0  0  0
  137.6806   78.4178  222.4691 H   0  0  0  0  0  0  0  0  0  0  0  0
  139.7139   81.2638  223.7307 H   0  0  0  0  0  0  0  0  0  0  0  0
  141.8522   81.9438  224.7732 H   0  0  0  0  0  0  0  0  0  0  0  0
  143.9838   80.8287  224.1231 H   0  0  0  0  0  0  0  0  0  0  0  0
  143.9191   79.0489  222.4328 H   0  0  0  0  0  0  0  0  0  0  0  0
  141.7139   78.5498  220.1046 H   0  0  0  0  0  0  0  0  0  0  0  0
  142.6323   77.4424  221.2596 H   0  0  0  0  0  0  0  0  0  0  0  0
  139.7000   77.5690  221.4910 H   0  0  0  0  0  0  0  0  0  0  0  0
  138.6269   75.6546  221.0306 H   0  0  0  0  0  0  0  0  0  0  0  0
  139.4630   74.3041  220.1326 H   0  0  0  0  0  0  0  0  0  0  0  0
  139.0680   74.4710  223.1030 H   0  0  0  0  0  0  0  0  0  0  0  0
  139.2402   70.3825  221.9654 H   0  0  0  0  0  0  0  0  0  0  0  0
  139.2670   68.6954  223.8020 H   0  0  0  0  0  0  0  0  0  0  0  0
  139.7787   68.1220  226.0174 H   0  0  0  0  0  0  0  0  0  0  0  0
  141.5481   71.0197  228.6323 H   0  0  0  0  0  0  0  0  0  0  0  0
  141.5202   72.6853  226.8110 H   0  0  0  0  0  0  0  0  0  0  0  0
  1  2  1  0
  2  3  1  0
  3  4  2  0
  4  5  1  0
  5  6  2  0
  6  7  1  0
  7  8  2  0
  8  9  1  0
  9 10  1  0
 10 11  1  0
 11 12  2  0
 11 13  1  0
 13 14  1  0
 14 15  1  0
 15 16  2  0
 15 17  1  0
 17 18  2  0
 18 19  1  0
 19 20  2  0
 20 21  1  0
 21 22  2  0
 22 23  1  0
 22 24  1  0
 24 25  2  0
 25 26  1  0
 26 27  2  0
  8  3  1  0
 27 17  1  0
 26 20  1  0
  1 28  1  0
  1 29  1  0
  1 30  1  0
  4 31  1  0
  5 32  1  0
  6 33  1  0
  7 34  1  0
  9 35  1  0
  9 36  1  0
 10 37  1  0
 13 38  1  0
 13 39  1  0
 14 40  1  0
 18 41  1  0
 19 42  1  0
 21 43  1  0
 24 44  1  0
 25 45  1  0
M  END
>  <smiles>  (34) 
COc1ccccc1CNC(=O)CNC(=O)c1ccc2cc(Cl)ccc2n1

>  <score_type>  (34) 
oracle

>  <origin>  (34) 
autodockgpu

>  <m_score__min__energy>  (34) 
-8.1300000000000008

>  <m_primary>  (34) 
energy

>  <rmsd>  (34) 
3.551038206985149

>  <m_score__min__rmsd>  (34) 
3.551038206985149

>  <meeko>  (34) 
{"free_energy": -7.94, "intermolecular_energy": -9.73, "internal_energy": -1.38, "cluster_size": 13, "cluster_id": 1, "rank_in_cluster": 3}

>  <energy>  (34) 
-6.73

>  <cluster_rmsd>  (34) 
1.59

>  <cluster>  (34) 
4

$$$$

     RDKit          3D

 45 47  0  0  0  0  0  0  0  0999 V2000
  142.4450   70.9250  219.0890 C   0  0  0  0  0  0  0  0  0  0  0  0
  142.6180   72.3350  218.9790 O   0  0  0  0  0  0  0  0  0  0  0  0
  143.7250   72.8990  219.6200 C   0  0  0  0  0  0  0  0  0  0  0  0
  144.8030   72.1170  220.0300 C   0  0  0  0  0  0  0  0  0  0  0  0
  145.8860   72.7010  220.6620 C   0  0  0  0  0  0  0  0  0  0  0  0
  145.9200   74.0600  220.8960 C   0  0  0  0  0  0  0  0  0  0  0  0
  144.8510   74.8060  220.4850 C   0  0  0  0  0  0  0  0  0  0  0  0
  143.7400   74.2660  219.8460 C   0  0  0  0  0  0  0  0  0  0  0  0
  142.5870   75.0600  219.4060 C   0  0  0  0  0  0  0  0  0  0  0  0
  141.3030   74.5300  219.7420 N   0  0  0  0  0  0  0  0  0  0  0  0
  140.4310   75.1800  220.6550 C   0  0  0  0  0  0  0  0  0  0  0  0
  140.7810   76.2640  221.1960 O   0  0  0  0  0  0  0  0  0  0  0  0
  139.1240   74.5360  220.9280 C   0  0  0  0  0  0  0  0  0  0  0  0
  139.1210   73.7440  222.1340 N   0  0  0  0  0  0  0  0  0  0  0  0
  139.9170   72.5400  222.1020 C   0  0  0  0  0  0  0  0  0  0  0  0
  140.5210   72.3280  221.0180 O   0  0  0  0  0  0  0  0  0  0  0  0
  139.9980   71.6550  223.2560 C   0  0  0  0  0  0  0  0  0  0  0  0
  139.5310   70.3600  223.0770 C   0  0  0  0  0  0  0  0  0  0  0  0
  139.5750   69.4560  224.1210 C   0  0  0  0  0  0  0  0  0  0  0  0
  140.0870   69.8740  225.3290 C   0  0  0  0  0  0  0  0  0  0  0  0
  140.1270   68.9610  226.3710 C   0  0  0  0  0  0  0  0  0  0  0  0
  140.6310   69.3330  227.5960 C   0  0  0  0  0  0  0  0  0  0  0  0
  140.6820   68.1770  228.9150 Cl  0  0  0  0  0  0  0  0  0  0  0  0
  141.0890   70.6310  227.7470 C   0  0  0  0  0  0  0  0  0  0  0  0
  141.0430   71.5320  226.6930 C   0  0  0  0  0  0  0  0  0  0  0  0
  140.5390   71.1680  225.4610 C   0  0  0  0  0  0  0  0  0  0  0  0
  140.4930   72.0360  224.4460 N   0  0  0  0  0  0  0  0  0  0  0  0
  142.4102   70.6416  220.1513 H   0  0  0  0  0  0  0  0  0  0  0  0
  141.5042   70.6318  218.6003 H   0  0  0  0  0  0  0  0  0  0  0  0
  143.2871   70.4130  218.6003 H   0  0  0  0  0  0  0  0  0  0  0  0
  144.7927   71.0318  219.8505 H   0  0  0  0  0  0  0  0  0  0  0  0
  146.7310   72.0736  220.9821 H   0  0  0  0  0  0  0  0  0  0  0  0
  146.7799   74.5283  221.3973 H   0  0  0  0  0  0  0  0  0  0  0  0
  144.8704   75.8903  220.6693 H   0  0  0  0  0  0  0  0  0  0  0  0
  142.6703   76.0576  219.8619 H   0  0  0  0  0  0  0  0  0  0  0  0
  142.6298   75.0658  218.3069 H   0  0  0  0  0  0  0  0  0  0  0  0
  140.9970   73.6310  219.2990 H   0  0  0  0  0  0  0  0  0  0  0  0
  138.3604   75.3219  221.0241 H   0  0  0  0  0  0  0  0  0  0  0  0
  138.9137   73.8555  220.0897 H   0  0  0  0  0  0  0  0  0  0  0  0
  138.5790   74.0030  223.0000 H   0  0  0  0  0  0  0  0  0  0  0  0
  139.1251   70.0529  222.1019 H   0  0  0  0  0  0  0  0  0  0  0  0
  139.2096   68.4267  223.9903 H   0  0  0  0  0  0  0  0  0  0  0  0
  139.7551   67.9371  226.2183 H   0  0  0  0  0  0  0  0  0  0  0  0
  141.4954   70.9526  228.7172 H   0  0  0  0  0  0  0  0  0  0  0  0
  141.4154   72.5562  226.8422 H   0  0  0  0  0  0  0  0  0  0  0  0
  1  2  1  0
  2  3  1  0
  3  4  2  0
  4  5  1  0
  5  6  2  0
  6  7  1  0
  7  8  2  0
  8  9  1  0
  9 10  1  0
 10 11  1  0
 11 12  2  0
 11 13  1  0
 13 14  1  0
 14 15  1  0
 15 16  2  0
 15 17  1  0
 17 18  2  0
 18 19  1  0
 19 20  2  0
 20 21  1  0
 21 22  2  0
 22 23  1  0
 22 24  1  0
 24 25  2  0
 25 26  1  0
 26 27  2  0
  8  3  1  0
 27 17  1  0
 26 20  1  0
  1 28  1  0
  1 29  1  0
  1 30  1  0
  4 31  1  0
  5 32  1  0
  6 33  1  0
  7 34  1  0
  9 35  1  0
  9 36  1  0
 10 37  1  0
 13 38  1  0
 13 39  1  0
 14 40  1  0
 18 41  1  0
 19 42  1  0
 21 43  1  0
 24 44  1  0
 25 45  1  0
M  END
>  <smiles>  (35) 
COc1ccccc1CNC(=O)CNC(=O)c1ccc2cc(Cl)ccc2n1

>  <score_type>  (35) 
oracle

>  <origin>  (35) 
autodockgpu

>  <m_score__min__energy>  (35) 
-8.1300000000000008

>  <m_primary>  (35) 
energy

>  <rmsd>  (35) 
2.9428557654001213

>  <m_score__min__rmsd>  (35) 
2.9428557654001213

>  <meeko>  (35) 
{"free_energy": -7.26, "intermolecular_energy": -9.05, "internal_energy": -2.32, "cluster_size": 12, "cluster_id": 5, "rank_in_cluster": 2}

>  <energy>  (35) 
-7.28

>  <cluster_rmsd>  (35) 
0.0

>  <cluster>  (35) 
5

$$$$

     RDKit          3D

 45 47  0  0  0  0  0  0  0  0999 V2000
  142.3160   70.9080  219.5060 C   0  0  0  0  0  0  0  0  0  0  0  0
  142.6200   72.2490  219.1310 O   0  0  0  0  0  0  0  0  0  0  0  0
  143.7280   72.8500  219.7320 C   0  0  0  0  0  0  0  0  0  0  0  0
  144.8050   72.0940  220.1910 C   0  0  0  0  0  0  0  0  0  0  0  0
  145.8900   72.7150  220.7830 C   0  0  0  0  0  0  0  0  0  0  0  0
  145.9270   74.0870  220.9290 C   0  0  0  0  0  0  0  0  0  0  0  0
  144.8590   74.8060  220.4710 C   0  0  0  0  0  0  0  0  0  0  0  0
  143.7470   74.2290  219.8700 C   0  0  0  0  0  0  0  0  0  0  0  0
  142.5950   74.9950  219.3800 C   0  0  0  0  0  0  0  0  0  0  0  0
  141.3150   74.5520  219.8350 N   0  0  0  0  0  0  0  0  0  0  0  0
  140.3860   75.4290  220.4570 C   0  0  0  0  0  0  0  0  0  0  0  0
  140.6820   76.6440  220.6200 O   0  0  0  0  0  0  0  0  0  0  0  0
  139.0890   74.8560  220.8890 C   0  0  0  0  0  0  0  0  0  0  0  0
  139.1870   74.0740  222.0970 N   0  0  0  0  0  0  0  0  0  0  0  0
  139.6590   72.7190  221.9380 C   0  0  0  0  0  0  0  0  0  0  0  0
  139.9300   72.3840  220.7550 O   0  0  0  0  0  0  0  0  0  0  0  0
  139.8020   71.8280  223.0810 C   0  0  0  0  0  0  0  0  0  0  0  0
  139.3610   70.5240  222.9090 C   0  0  0  0  0  0  0  0  0  0  0  0
  139.4640   69.6140  223.9440 C   0  0  0  0  0  0  0  0  0  0  0  0
  140.0100   70.0350  225.1360 C   0  0  0  0  0  0  0  0  0  0  0  0
  140.1090   69.1160  226.1680 C   0  0  0  0  0  0  0  0  0  0  0  0
  140.6480   69.4920  227.3780 C   0  0  0  0  0  0  0  0  0  0  0  0
  140.7740   68.3280  228.6850 Cl  0  0  0  0  0  0  0  0  0  0  0  0
  141.0800   70.7990  227.5210 C   0  0  0  0  0  0  0  0  0  0  0  0
  140.9740   71.7060  226.4780 C   0  0  0  0  0  0  0  0  0  0  0  0
  140.4350   71.3390  225.2620 C   0  0  0  0  0  0  0  0  0  0  0  0
  140.3310   72.2120  224.2560 N   0  0  0  0  0  0  0  0  0  0  0  0
  142.2981   70.8291  220.6030 H   0  0  0  0  0  0  0  0  0  0  0  0
  141.3317   70.6285  219.1022 H   0  0  0  0  0  0  0  0  0  0  0  0
  143.0835   70.2314  219.1022 H   0  0  0  0  0  0  0  0  0  0  0  0
  144.7922   70.9995  220.0821 H   0  0  0  0  0  0  0  0  0  0  0  0
  146.7340   72.1077  221.1420 H   0  0  0  0  0  0  0  0  0  0  0  0
  146.7879   74.5853  221.3986 H   0  0  0  0  0  0  0  0  0  0  0  0
  144.8808   75.8999  220.5841 H   0  0  0  0  0  0  0  0  0  0  0  0
  142.7238   76.0397  219.6994 H   0  0  0  0  0  0  0  0  0  0  0  0
  142.5878   74.8587  218.2885 H   0  0  0  0  0  0  0  0  0  0  0  0
  141.0540   73.5450  219.7040 H   0  0  0  0  0  0  0  0  0  0  0  0
  138.3830   75.6813  221.0632 H   0  0  0  0  0  0  0  0  0  0  0  0
  138.7475   74.1815  220.0900 H   0  0  0  0  0  0  0  0  0  0  0  0
  138.9350   74.4430  223.0520 H   0  0  0  0  0  0  0  0  0  0  0  0
  138.9283   70.2136  221.9465 H   0  0  0  0  0  0  0  0  0  0  0  0
  139.1179   68.5774  223.8185 H   0  0  0  0  0  0  0  0  0  0  0  0
  139.7565   68.0845  226.0205 H   0  0  0  0  0  0  0  0  0  0  0  0
  141.5146   71.1235  228.4780 H   0  0  0  0  0  0  0  0  0  0  0  0
  141.3263   72.7380  226.6225 H   0  0  0  0  0  0  0  0  0  0  0  0
  1  2  1  0
  2  3  1  0
  3  4  2  0
  4  5  1  0
  5  6  2  0
  6  7  1  0
  7  8  2  0
  8  9  1  0
  9 10  1  0
 10 11  1  0
 11 12  2  0
 11 13  1  0
 13 14  1  0
 14 15  1  0
 15 16  2  0
 15 17  1  0
 17 18  2  0
 18 19  1  0
 19 20  2  0
 20 21  1  0
 21 22  2  0
 22 23  1  0
 22 24  1  0
 24 25  2  0
 25 26  1  0
 26 27  2  0
  8  3  1  0
 27 17  1  0
 26 20  1  0
  1 28  1  0
  1 29  1  0
  1 30  1  0
  4 31  1  0
  5 32  1  0
  6 33  1  0
  7 34  1  0
  9 35  1  0
  9 36  1  0
 10 37  1  0
 13 38  1  0
 13 39  1  0
 14 40  1  0
 18 41  1  0
 19 42  1  0
 21 43  1  0
 24 44  1  0
 25 45  1  0
M  END
>  <smiles>  (36) 
COc1ccccc1CNC(=O)CNC(=O)c1ccc2cc(Cl)ccc2n1

>  <score_type>  (36) 
oracle

>  <origin>  (36) 
autodockgpu

>  <m_score__min__energy>  (36) 
-8.1300000000000008

>  <m_primary>  (36) 
energy

>  <rmsd>  (36) 
2.991604612908264

>  <m_score__min__rmsd>  (36) 
2.991604612908264

>  <meeko>  (36) 
{"free_energy": -7.18, "intermolecular_energy": -8.97, "internal_energy": -2.48, "cluster_size": 12, "cluster_id": 5, "rank_in_cluster": 5}

>  <energy>  (36) 
-7.26

>  <cluster_rmsd>  (36) 
0.1

>  <cluster>  (36) 
5

$$$$

     RDKit          3D

 45 47  0  0  0  0  0  0  0  0999 V2000
  138.0040   79.0300  222.5590 C   0  0  0  0  0  0  0  0  0  0  0  0
  139.0450   79.4570  221.6850 O   0  0  0  0  0  0  0  0  0  0  0  0
  140.2720   79.7960  222.2640 C   0  0  0  0  0  0  0  0  0  0  0  0
  140.3500   80.6870  223.3320 C   0  0  0  0  0  0  0  0  0  0  0  0
  141.5770   81.0050  223.8850 C   0  0  0  0  0  0  0  0  0  0  0  0
  142.7400   80.4480  223.3940 C   0  0  0  0  0  0  0  0  0  0  0  0
  142.6370   79.5760  222.3460 C   0  0  0  0  0  0  0  0  0  0  0  0
  141.4290   79.2260  221.7560 C   0  0  0  0  0  0  0  0  0  0  0  0
  141.3120   78.2940  220.6280 C   0  0  0  0  0  0  0  0  0  0  0  0
  140.2970   77.2950  220.7510 N   0  0  0  0  0  0  0  0  0  0  0  0
  140.6040   75.9340  221.0200 C   0  0  0  0  0  0  0  0  0  0  0  0
  141.8050   75.5760  221.1620 O   0  0  0  0  0  0  0  0  0  0  0  0
  139.4700   74.9860  221.1240 C   0  0  0  0  0  0  0  0  0  0  0  0
  139.5220   74.1640  222.3090 N   0  0  0  0  0  0  0  0  0  0  0  0
  139.9150   72.7900  222.1090 C   0  0  0  0  0  0  0  0  0  0  0  0
  140.1660   72.4750  220.9160 O   0  0  0  0  0  0  0  0  0  0  0  0
  140.0060   71.8580  223.2250 C   0  0  0  0  0  0  0  0  0  0  0  0
  139.5710   70.5620  222.9870 C   0  0  0  0  0  0  0  0  0  0  0  0
  139.6270   69.6150  223.9920 C   0  0  0  0  0  0  0  0  0  0  0  0
  140.1200   69.9930  225.2210 C   0  0  0  0  0  0  0  0  0  0  0  0
  140.1730   69.0380  226.2230 C   0  0  0  0  0  0  0  0  0  0  0  0
  140.6580   69.3690  227.4680 C   0  0  0  0  0  0  0  0  0  0  0  0
  140.7250   68.1590  228.7380 Cl  0  0  0  0  0  0  0  0  0  0  0  0
  141.0850   70.6680  227.6780 C   0  0  0  0  0  0  0  0  0  0  0  0
  141.0260   71.6130  226.6630 C   0  0  0  0  0  0  0  0  0  0  0  0
  140.5410   71.2900  225.4120 C   0  0  0  0  0  0  0  0  0  0  0  0
  140.4830   72.1990  224.4350 N   0  0  0  0  0  0  0  0  0  0  0  0
  138.3247   79.1615  223.6030 H   0  0  0  0  0  0  0  0  0  0  0  0
  137.1009   79.6303  222.3744 H   0  0  0  0  0  0  0  0  0  0  0  0
  137.7826   77.9684  222.3744 H   0  0  0  0  0  0  0  0  0  0  0  0
  139.4326   81.1391  223.7368 H   0  0  0  0  0  0  0  0  0  0  0  0
  141.6265   81.7110  224.7271 H   0  0  0  0  0  0  0  0  0  0  0  0
  143.7180   80.6974  223.8314 H   0  0  0  0  0  0  0  0  0  0  0  0
  143.5597   79.1277  221.9489 H   0  0  0  0  0  0  0  0  0  0  0  0
  141.0984   78.8830  219.7239 H   0  0  0  0  0  0  0  0  0  0  0  0
  142.2663   77.7482  220.5903 H   0  0  0  0  0  0  0  0  0  0  0  0
  139.2950   77.5770  220.6370 H   0  0  0  0  0  0  0  0  0  0  0  0
  138.5331   75.5622  221.1392 H   0  0  0  0  0  0  0  0  0  0  0  0
  139.5271   74.3122  220.2564 H   0  0  0  0  0  0  0  0  0  0  0  0
  139.2910   74.5180  223.2740 H   0  0  0  0  0  0  0  0  0  0  0  0
  139.1806   70.2877  221.9959 H   0  0  0  0  0  0  0  0  0  0  0  0
  139.2861   68.5843  223.8145 H   0  0  0  0  0  0  0  0  0  0  0  0
  139.8269   68.0131  226.0234 H   0  0  0  0  0  0  0  0  0  0  0  0
  141.4773   70.9564  228.6644 H   0  0  0  0  0  0  0  0  0  0  0  0
  141.3723   72.6384  226.8594 H   0  0  0  0  0  0  0  0  0  0  0  0
  1  2  1  0
  2  3  1  0
  3  4  2  0
  4  5  1  0
  5  6  2  0
  6  7  1  0
  7  8  2  0
  8  9  1  0
  9 10  1  0
 10 11  1  0
 11 12  2  0
 11 13  1  0
 13 14  1  0
 14 15  1  0
 15 16  2  0
 15 17  1  0
 17 18  2  0
 18 19  1  0
 19 20  2  0
 20 21  1  0
 21 22  2  0
 22 23  1  0
 22 24  1  0
 24 25  2  0
 25 26  1  0
 26 27  2  0
  8  3  1  0
 27 17  1  0
 26 20  1  0
  1 28  1  0
  1 29  1  0
  1 30  1  0
  4 31  1  0
  5 32  1  0
  6 33  1  0
  7 34  1  0
  9 35  1  0
  9 36  1  0
 10 37  1  0
 13 38  1  0
 13 39  1  0
 14 40  1  0
 18 41  1  0
 19 42  1  0
 21 43  1  0
 24 44  1  0
 25 45  1  0
M  END
>  <smiles>  (37) 
COc1ccccc1CNC(=O)CNC(=O)c1ccc2cc(Cl)ccc2n1

>  <score_type>  (37) 
oracle

>  <origin>  (37) 
autodockgpu

>  <m_score__min__energy>  (37) 
-8.1300000000000008

>  <m_primary>  (37) 
energy

>  <rmsd>  (37) 
3.392102939510244

>  <m_score__min__rmsd>  (37) 
3.392102939510244

>  <meeko>  (37) 
{"free_energy": -7.72, "intermolecular_energy": -9.51, "internal_energy": -1.48, "cluster_size": 13, "cluster_id": 1, "rank_in_cluster": 4}

>  <energy>  (37) 
-7.22

>  <cluster_rmsd>  (37) 
0.29

>  <cluster>  (37) 
5

$$$$

     RDKit          3D

 45 47  0  0  0  0  0  0  0  0999 V2000
  141.0670   78.0750  222.7860 C   0  0  0  0  0  0  0  0  0  0  0  0
  141.1260   77.2710  221.6120 O   0  0  0  0  0  0  0  0  0  0  0  0
  141.6850   77.8450  220.4660 C   0  0  0  0  0  0  0  0  0  0  0  0
  141.5550   79.2060  220.1990 C   0  0  0  0  0  0  0  0  0  0  0  0
  142.1180   79.7480  219.0580 C   0  0  0  0  0  0  0  0  0  0  0  0
  142.8150   78.9570  218.1680 C   0  0  0  0  0  0  0  0  0  0  0  0
  142.9280   77.6250  218.4520 C   0  0  0  0  0  0  0  0  0  0  0  0
  142.3810   77.0330  219.5850 C   0  0  0  0  0  0  0  0  0  0  0  0
  142.4960   75.6030  219.8940 C   0  0  0  0  0  0  0  0  0  0  0  0
  141.2640   74.9170  220.1250 N   0  0  0  0  0  0  0  0  0  0  0  0
  140.9480   73.6900  219.4830 C   0  0  0  0  0  0  0  0  0  0  0  0
  141.7700   73.1710  218.6800 O   0  0  0  0  0  0  0  0  0  0  0  0
  139.6400   73.0700  219.8000 C   0  0  0  0  0  0  0  0  0  0  0  0
  139.7180   72.0760  220.8430 N   0  0  0  0  0  0  0  0  0  0  0  0
  139.8910   72.5800  222.1840 C   0  0  0  0  0  0  0  0  0  0  0  0
  139.9510   73.8340  222.2800 O   0  0  0  0  0  0  0  0  0  0  0  0
  139.9840   71.6790  223.3260 C   0  0  0  0  0  0  0  0  0  0  0  0
  139.5410   70.3800  223.1270 C   0  0  0  0  0  0  0  0  0  0  0  0
  139.5970   69.4610  224.1580 C   0  0  0  0  0  0  0  0  0  0  0  0
  140.0990   69.8700  225.3730 C   0  0  0  0  0  0  0  0  0  0  0  0
  140.1530   68.9430  226.4010 C   0  0  0  0  0  0  0  0  0  0  0  0
  140.6470   69.3070  227.6340 C   0  0  0  0  0  0  0  0  0  0  0  0
  140.7140   68.1320  228.9360 Cl  0  0  0  0  0  0  0  0  0  0  0  0
  141.0820   70.6090  227.8040 C   0  0  0  0  0  0  0  0  0  0  0  0
  141.0220   71.5250  226.7630 C   0  0  0  0  0  0  0  0  0  0  0  0
  140.5280   71.1700  225.5250 C   0  0  0  0  0  0  0  0  0  0  0  0
  140.4690   72.0510  224.5230 N   0  0  0  0  0  0  0  0  0  0  0  0
  141.1144   77.4294  223.6753 H   0  0  0  0  0  0  0  0  0  0  0  0
  141.9163   78.7741  222.7947 H   0  0  0  0  0  0  0  0  0  0  0  0
  140.1248   78.6426  222.7947 H   0  0  0  0  0  0  0  0  0  0  0  0
  141.0028   79.8516  220.8978 H   0  0  0  0  0  0  0  0  0  0  0  0
  142.0086   80.8240  218.8574 H   0  0  0  0  0  0  0  0  0  0  0  0
  143.2649   79.3844  217.2598 H   0  0  0  0  0  0  0  0  0  0  0  0
  143.4811   76.9873  217.7467 H   0  0  0  0  0  0  0  0  0  0  0  0
  143.0013   75.1142  219.0480 H   0  0  0  0  0  0  0  0  0  0  0  0
  143.0530   75.5451  220.8408 H   0  0  0  0  0  0  0  0  0  0  0  0
  140.5710   75.3350  220.7910 H   0  0  0  0  0  0  0  0  0  0  0  0
  138.9475   73.8613  220.1228 H   0  0  0  0  0  0  0  0  0  0  0  0
  139.2914   72.5606  218.8895 H   0  0  0  0  0  0  0  0  0  0  0  0
  139.6580   71.0390  220.6650 H   0  0  0  0  0  0  0  0  0  0  0  0
  139.1440   70.0801  222.1460 H   0  0  0  0  0  0  0  0  0  0  0  0
  139.2489   68.4279  224.0113 H   0  0  0  0  0  0  0  0  0  0  0  0
  139.8008   67.9147  226.2323 H   0  0  0  0  0  0  0  0  0  0  0  0
  141.4817   70.9233  228.7794 H   0  0  0  0  0  0  0  0  0  0  0  0
  141.3751   72.5536  226.9283 H   0  0  0  0  0  0  0  0  0  0  0  0
  1  2  1  0
  2  3  1  0
  3  4  2  0
  4  5  1  0
  5  6  2  0
  6  7  1  0
  7  8  2  0
  8  9  1  0
  9 10  1  0
 10 11  1  0
 11 12  2  0
 11 13  1  0
 13 14  1  0
 14 15  1  0
 15 16  2  0
 15 17  1  0
 17 18  2  0
 18 19  1  0
 19 20  2  0
 20 21  1  0
 21 22  2  0
 22 23  1  0
 22 24  1  0
 24 25  2  0
 25 26  1  0
 26 27  2  0
  8  3  1  0
 27 17  1  0
 26 20  1  0
  1 28  1  0
  1 29  1  0
  1 30  1  0
  4 31  1  0
  5 32  1  0
  6 33  1  0
  7 34  1  0
  9 35  1  0
  9 36  1  0
 10 37  1  0
 13 38  1  0
 13 39  1  0
 14 40  1  0
 18 41  1  0
 19 42  1  0
 21 43  1  0
 24 44  1  0
 25 45  1  0
M  END
>  <smiles>  (38) 
COc1ccccc1CNC(=O)CNC(=O)c1ccc2cc(Cl)ccc2n1

>  <score_type>  (38) 
oracle

>  <origin>  (38) 
autodockgpu

>  <m_score__min__energy>  (38) 
-8.1300000000000008

>  <m_primary>  (38) 
energy

>  <rmsd>  (38) 
2.6985351936617246

>  <m_score__min__rmsd>  (38) 
2.6985351936617246

>  <meeko>  (38) 
{"free_energy": -6.71, "intermolecular_energy": -8.5, "internal_energy": -2.05, "cluster_size": 1, "cluster_id": 6, "rank_in_cluster": 1}

>  <energy>  (38) 
-7.21

>  <cluster_rmsd>  (38) 
0.17

>  <cluster>  (38) 
5

$$$$

     RDKit          3D

 45 47  0  0  0  0  0  0  0  0999 V2000
  141.2010   72.4580  221.7210 C   0  0  0  0  0  0  0  0  0  0  0  0
  140.8240   73.8050  221.9950 O   0  0  0  0  0  0  0  0  0  0  0  0
  141.3940   74.8060  221.2030 C   0  0  0  0  0  0  0  0  0  0  0  0
  142.5790   74.5920  220.5040 C   0  0  0  0  0  0  0  0  0  0  0  0
  143.1220   75.6000  219.7270 C   0  0  0  0  0  0  0  0  0  0  0  0
  142.5020   76.8290  219.6300 C   0  0  0  0  0  0  0  0  0  0  0  0
  141.3400   77.0140  220.3250 C   0  0  0  0  0  0  0  0  0  0  0  0
  140.7560   76.0340  221.1180 C   0  0  0  0  0  0  0  0  0  0  0  0
  139.5110   76.2270  221.8700 C   0  0  0  0  0  0  0  0  0  0  0  0
  138.7110   75.0580  222.0590 N   0  0  0  0  0  0  0  0  0  0  0  0
  137.6240   74.7370  221.2020 C   0  0  0  0  0  0  0  0  0  0  0  0
  137.3420   75.4950  220.2340 O   0  0  0  0  0  0  0  0  0  0  0  0
  136.8640   73.5000  221.4960 C   0  0  0  0  0  0  0  0  0  0  0  0
  137.3070   72.8320  222.6960 N   0  0  0  0  0  0  0  0  0  0  0  0
  138.1920   71.7080  222.5050 C   0  0  0  0  0  0  0  0  0  0  0  0
  138.4720   71.4470  221.3060 O   0  0  0  0  0  0  0  0  0  0  0  0
  138.7090   70.9510  223.6370 C   0  0  0  0  0  0  0  0  0  0  0  0
  138.4340   69.5910  223.6500 C   0  0  0  0  0  0  0  0  0  0  0  0
  138.8910   68.8000  224.6870 C   0  0  0  0  0  0  0  0  0  0  0  0
  139.6180   69.3950  225.6940 C   0  0  0  0  0  0  0  0  0  0  0  0
  140.0720   68.5950  226.7300 C   0  0  0  0  0  0  0  0  0  0  0  0
  140.8020   69.1450  227.7590 C   0  0  0  0  0  0  0  0  0  0  0  0
  141.3790   68.1320  229.0700 Cl  0  0  0  0  0  0  0  0  0  0  0  0
  141.0620   70.5040  227.7200 C   0  0  0  0  0  0  0  0  0  0  0  0
  140.6000   71.2910  226.6750 C   0  0  0  0  0  0  0  0  0  0  0  0
  139.8670   70.7480  225.6400 C   0  0  0  0  0  0  0  0  0  0  0  0
  139.4210   71.5050  224.6340 N   0  0  0  0  0  0  0  0  0  0  0  0
  141.3517   71.9195  222.6683 H   0  0  0  0  0  0  0  0  0  0  0  0
  140.4062   71.9654  221.1416 H   0  0  0  0  0  0  0  0  0  0  0  0
  142.1360   72.4496  221.1416 H   0  0  0  0  0  0  0  0  0  0  0  0
  143.0855   73.6178  220.5697 H   0  0  0  0  0  0  0  0  0  0  0  0
  144.0592   75.4195  219.1801 H   0  0  0  0  0  0  0  0  0  0  0  0
  142.9292   77.6335  219.0134 H   0  0  0  0  0  0  0  0  0  0  0  0
  140.8402   77.9912  220.2527 H   0  0  0  0  0  0  0  0  0  0  0  0
  139.7741   76.6201  222.8631 H   0  0  0  0  0  0  0  0  0  0  0  0
  138.8997   76.9127  221.2649 H   0  0  0  0  0  0  0  0  0  0  0  0
  138.9340   74.4170  222.8570 H   0  0  0  0  0  0  0  0  0  0  0  0
  135.8021   73.7617  221.6134 H   0  0  0  0  0  0  0  0  0  0  0  0
  137.0288   72.8080  220.6570 H   0  0  0  0  0  0  0  0  0  0  0  0
  137.0170   73.1250  223.6660 H   0  0  0  0  0  0  0  0  0  0  0  0
  137.8508   69.1414  222.8329 H   0  0  0  0  0  0  0  0  0  0  0  0
  138.6791   67.7208  224.7076 H   0  0  0  0  0  0  0  0  0  0  0  0
  139.8486   67.5179  226.7301 H   0  0  0  0  0  0  0  0  0  0  0  0
  141.6441   70.9673  228.5303 H   0  0  0  0  0  0  0  0  0  0  0  0
  140.8223   72.3683  226.6716 H   0  0  0  0  0  0  0  0  0  0  0  0
  1  2  1  0
  2  3  1  0
  3  4  2  0
  4  5  1  0
  5  6  2  0
  6  7  1  0
  7  8  2  0
  8  9  1  0
  9 10  1  0
 10 11  1  0
 11 12  2  0
 11 13  1  0
 13 14  1  0
 14 15  1  0
 15 16  2  0
 15 17  1  0
 17 18  2  0
 18 19  1  0
 19 20  2  0
 20 21  1  0
 21 22  2  0
 22 23  1  0
 22 24  1  0
 24 25  2  0
 25 26  1  0
 26 27  2  0
  8  3  1  0
 27 17  1  0
 26 20  1  0
  1 28  1  0
  1 29  1  0
  1 30  1  0
  4 31  1  0
  5 32  1  0
  6 33  1  0
  7 34  1  0
  9 35  1  0
  9 36  1  0
 10 37  1  0
 13 38  1  0
 13 39  1  0
 14 40  1  0
 18 41  1  0
 19 42  1  0
 21 43  1  0
 24 44  1  0
 25 45  1  0
M  END
>  <smiles>  (39) 
COc1ccccc1CNC(=O)CNC(=O)c1ccc2cc(Cl)ccc2n1

>  <score_type>  (39) 
oracle

>  <origin>  (39) 
autodockgpu

>  <m_score__min__energy>  (39) 
-8.1300000000000008

>  <m_primary>  (39) 
energy

>  <rmsd>  (39) 
2.338445888080099

>  <m_score__min__rmsd>  (39) 
2.338445888080099

>  <meeko>  (39) 
{"free_energy": -7.66, "intermolecular_energy": -9.45, "internal_energy": -1.78, "cluster_size": 3, "cluster_id": 3, "rank_in_cluster": 1}

>  <energy>  (39) 
-7.18

>  <cluster_rmsd>  (39) 
0.29

>  <cluster>  (39) 
5

$$$$

     RDKit          3D

 45 47  0  0  0  0  0  0  0  0999 V2000
  140.3000   71.8880  223.0850 C   0  0  0  0  0  0  0  0  0  0  0  0
  139.4900   71.0570  223.9120 O   0  0  0  0  0  0  0  0  0  0  0  0
  139.8470   70.9460  225.2580 C   0  0  0  0  0  0  0  0  0  0  0  0
  140.8280   71.7600  225.8190 C   0  0  0  0  0  0  0  0  0  0  0  0
  141.1620   71.6300  227.1550 C   0  0  0  0  0  0  0  0  0  0  0  0
  140.5320   70.6970  227.9540 C   0  0  0  0  0  0  0  0  0  0  0  0
  139.5720   69.9100  227.3810 C   0  0  0  0  0  0  0  0  0  0  0  0
  139.2020   70.0030  226.0440 C   0  0  0  0  0  0  0  0  0  0  0  0
  138.1760   69.1590  225.4210 C   0  0  0  0  0  0  0  0  0  0  0  0
  137.2110   69.8430  224.6200 N   0  0  0  0  0  0  0  0  0  0  0  0
  135.8470   69.4490  224.5760 C   0  0  0  0  0  0  0  0  0  0  0  0
  135.4540   68.4660  225.2620 O   0  0  0  0  0  0  0  0  0  0  0  0
  134.9370   70.2330  223.7080 C   0  0  0  0  0  0  0  0  0  0  0  0
  134.3020   71.3320  224.3940 N   0  0  0  0  0  0  0  0  0  0  0  0
  135.1090   72.5140  224.5770 C   0  0  0  0  0  0  0  0  0  0  0  0
  136.2770   72.4410  224.1120 O   0  0  0  0  0  0  0  0  0  0  0  0
  134.5840   73.6930  225.2550 C   0  0  0  0  0  0  0  0  0  0  0  0
  135.1870   74.9040  224.9470 C   0  0  0  0  0  0  0  0  0  0  0  0
  134.7470   76.0700  225.5440 C   0  0  0  0  0  0  0  0  0  0  0  0
  133.7060   75.9940  226.4420 C   0  0  0  0  0  0  0  0  0  0  0  0
  133.2700   77.1670  227.0360 C   0  0  0  0  0  0  0  0  0  0  0  0
  132.2330   77.1410  227.9400 C   0  0  0  0  0  0  0  0  0  0  0  0
  131.6810   78.6270  228.6910 Cl  0  0  0  0  0  0  0  0  0  0  0  0
  131.6500   75.9190  228.2280 C   0  0  0  0  0  0  0  0  0  0  0  0
  132.0980   74.7530  227.6240 C   0  0  0  0  0  0  0  0  0  0  0  0
  133.1370   74.7700  226.7170 C   0  0  0  0  0  0  0  0  0  0  0  0
  133.5700   73.6470  226.1350 N   0  0  0  0  0  0  0  0  0  0  0  0
  140.9285   72.5328  223.7168 H   0  0  0  0  0  0  0  0  0  0  0  0
  140.9415   71.2594  222.4499 H   0  0  0  0  0  0  0  0  0  0  0  0
  139.6552   72.5132  222.4499 H   0  0  0  0  0  0  0  0  0  0  0  0
  141.3394   72.5095  225.1970 H   0  0  0  0  0  0  0  0  0  0  0  0
  141.9393   72.2781  227.5861 H   0  0  0  0  0  0  0  0  0  0  0  0
  140.7938   70.5902  229.0170 H   0  0  0  0  0  0  0  0  0  0  0  0
  139.0657   69.1639  228.0110 H   0  0  0  0  0  0  0  0  0  0  0  0
  138.6863   68.4243  224.7808 H   0  0  0  0  0  0  0  0  0  0  0  0
  137.6114   68.7119  226.2525 H   0  0  0  0  0  0  0  0  0  0  0  0
  137.5210   70.6630  224.0460 H   0  0  0  0  0  0  0  0  0  0  0  0
  135.5186   70.6361  222.8658 H   0  0  0  0  0  0  0  0  0  0  0  0
  134.1398   69.5533  223.3726 H   0  0  0  0  0  0  0  0  0  0  0  0
  133.3110   71.3010  224.7520 H   0  0  0  0  0  0  0  0  0  0  0  0
  136.0171   74.9360  224.2260 H   0  0  0  0  0  0  0  0  0  0  0  0
  135.2172   77.0359  225.3075 H   0  0  0  0  0  0  0  0  0  0  0  0
  133.7542   78.1221  226.7842 H   0  0  0  0  0  0  0  0  0  0  0  0
  130.8187   75.8716  228.9468 H   0  0  0  0  0  0  0  0  0  0  0  0
  131.6153   73.7965  227.8733 H   0  0  0  0  0  0  0  0  0  0  0  0
  1  2  1  0
  2  3  1  0
  3  4  2  0
  4  5  1  0
  5  6  2  0
  6  7  1  0
  7  8  2  0
  8  9  1  0
  9 10  1  0
 10 11  1  0
 11 12  2  0
 11 13  1  0
 13 14  1  0
 14 15  1  0
 15 16  2  0
 15 17  1  0
 17 18  2  0
 18 19  1  0
 19 20  2  0
 20 21  1  0
 21 22  2  0
 22 23  1  0
 22 24  1  0
 24 25  2  0
 25 26  1  0
 26 27  2  0
  8  3  1  0
 27 17  1  0
 26 20  1  0
  1 28  1  0
  1 29  1  0
  1 30  1  0
  4 31  1  0
  5 32  1  0
  6 33  1  0
  7 34  1  0
  9 35  1  0
  9 36  1  0
 10 37  1  0
 13 38  1  0
 13 39  1  0
 14 40  1  0
 18 41  1  0
 19 42  1  0
 21 43  1  0
 24 44  1  0
 25 45  1  0
M  END
>  <smiles>  (40) 
COc1ccccc1CNC(=O)CNC(=O)c1ccc2cc(Cl)ccc2n1

>  <score_type>  (40) 
oracle

>  <origin>  (40) 
autodockgpu

>  <m_score__min__energy>  (40) 
-8.1300000000000008

>  <m_primary>  (40) 
energy

>  <rmsd>  (40) 
8.900313354515815

>  <m_score__min__rmsd>  (40) 
8.900313354515815

>  <meeko>  (40) 
{"free_energy": -6.73, "intermolecular_energy": -8.52, "internal_energy": -2.36, "cluster_size": 7, "cluster_id": 4, "rank_in_cluster": 7}

>  <energy>  (40) 
-7.12

>  <cluster_rmsd>  (40) 
0.65

>  <cluster>  (40) 
5

$$$$

     RDKit          3D

 45 47  0  0  0  0  0  0  0  0999 V2000
  143.3760   76.7170  218.8860 C   0  0  0  0  0  0  0  0  0  0  0  0
  143.2710   75.9620  220.0900 O   0  0  0  0  0  0  0  0  0  0  0  0
  143.8670   74.6970  220.1090 C   0  0  0  0  0  0  0  0  0  0  0  0
  145.0540   74.4640  220.8000 C   0  0  0  0  0  0  0  0  0  0  0  0
  145.6220   73.2020  220.8020 C   0  0  0  0  0  0  0  0  0  0  0  0
  145.0270   72.1580  220.1250 C   0  0  0  0  0  0  0  0  0  0  0  0
  143.8630   72.4120  219.4550 C   0  0  0  0  0  0  0  0  0  0  0  0
  143.2530   73.6600  219.4230 C   0  0  0  0  0  0  0  0  0  0  0  0
  142.0070   73.9410  218.7030 C   0  0  0  0  0  0  0  0  0  0  0  0
  140.8010   73.7090  219.4340 N   0  0  0  0  0  0  0  0  0  0  0  0
  140.1670   74.7280  220.1940 C   0  0  0  0  0  0  0  0  0  0  0  0
  140.6690   75.8840  220.2360 O   0  0  0  0  0  0  0  0  0  0  0  0
  138.9220   74.3710  220.9120 C   0  0  0  0  0  0  0  0  0  0  0  0
  139.1590   73.6500  222.1400 N   0  0  0  0  0  0  0  0  0  0  0  0
  139.3620   72.2270  222.0090 C   0  0  0  0  0  0  0  0  0  0  0  0
  139.3070   71.7860  220.8310 O   0  0  0  0  0  0  0  0  0  0  0  0
  139.6120   71.3870  223.1730 C   0  0  0  0  0  0  0  0  0  0  0  0
  139.2860   70.0450  223.0490 C   0  0  0  0  0  0  0  0  0  0  0  0
  139.4940   69.1790  224.1060 C   0  0  0  0  0  0  0  0  0  0  0  0
  140.0270   69.6840  225.2710 C   0  0  0  0  0  0  0  0  0  0  0  0
  140.2330   68.8100  226.3260 C   0  0  0  0  0  0  0  0  0  0  0  0
  140.7640   69.2690  227.5110 C   0  0  0  0  0  0  0  0  0  0  0  0
  141.0250   68.1620  228.8460 Cl  0  0  0  0  0  0  0  0  0  0  0  0
  141.0790   70.6130  227.6060 C   0  0  0  0  0  0  0  0  0  0  0  0
  140.8670   71.4750  226.5400 C   0  0  0  0  0  0  0  0  0  0  0  0
  140.3360   71.0240  225.3500 C   0  0  0  0  0  0  0  0  0  0  0  0
  140.1310   71.8530  224.3220 N   0  0  0  0  0  0  0  0  0  0  0  0
  143.5237   77.7792  219.1310 H   0  0  0  0  0  0  0  0  0  0  0  0
  144.2323   76.3536  218.2988 H   0  0  0  0  0  0  0  0  0  0  0  0
  142.4531   76.6011  218.2988 H   0  0  0  0  0  0  0  0  0  0  0  0
  145.5412   75.2855  221.3456 H   0  0  0  0  0  0  0  0  0  0  0  0
  146.5598   73.0294  221.3504 H   0  0  0  0  0  0  0  0  0  0  0  0
  145.4748   71.1533  220.1243 H   0  0  0  0  0  0  0  0  0  0  0  0
  143.3835   71.5841  218.9121 H   0  0  0  0  0  0  0  0  0  0  0  0
  142.0217   74.9992  218.4030 H   0  0  0  0  0  0  0  0  0  0  0  0
  141.9846   73.2370  217.8580 H   0  0  0  0  0  0  0  0  0  0  0  0
  140.3700   72.7540  219.4070 H   0  0  0  0  0  0  0  0  0  0  0  0
  138.3782   75.2971  221.1500 H   0  0  0  0  0  0  0  0  0  0  0  0
  138.3428   73.7090  220.2515 H   0  0  0  0  0  0  0  0  0  0  0  0
  139.1870   74.1090  223.0880 H   0  0  0  0  0  0  0  0  0  0  0  0
  138.8607   69.6686  222.1070 H   0  0  0  0  0  0  0  0  0  0  0  0
  139.2400   68.1123  224.0187 H   0  0  0  0  0  0  0  0  0  0  0  0
  139.9719   67.7470  226.2170 H   0  0  0  0  0  0  0  0  0  0  0  0
  141.5044   71.0042  228.5419 H   0  0  0  0  0  0  0  0  0  0  0  0
  141.1274   72.5385  226.6460 H   0  0  0  0  0  0  0  0  0  0  0  0
  1  2  1  0
  2  3  1  0
  3  4  2  0
  4  5  1  0
  5  6  2  0
  6  7  1  0
  7  8  2  0
  8  9  1  0
  9 10  1  0
 10 11  1  0
 11 12  2  0
 11 13  1  0
 13 14  1  0
 14 15  1  0
 15 16  2  0
 15 17  1  0
 17 18  2  0
 18 19  1  0
 19 20  2  0
 20 21  1  0
 21 22  2  0
 22 23  1  0
 22 24  1  0
 24 25  2  0
 25 26  1  0
 26 27  2  0
  8  3  1  0
 27 17  1  0
 26 20  1  0
  1 28  1  0
  1 29  1  0
  1 30  1  0
  4 31  1  0
  5 32  1  0
  6 33  1  0
  7 34  1  0
  9 35  1  0
  9 36  1  0
 10 37  1  0
 13 38  1  0
 13 39  1  0
 14 40  1  0
 18 41  1  0
 19 42  1  0
 21 43  1  0
 24 44  1  0
 25 45  1  0
M  END
>  <smiles>  (41) 
COc1ccccc1CNC(=O)CNC(=O)c1ccc2cc(Cl)ccc2n1

>  <score_type>  (41) 
oracle

>  <origin>  (41) 
autodockgpu

>  <m_score__min__energy>  (41) 
-8.1300000000000008

>  <m_primary>  (41) 
energy

>  <rmsd>  (41) 
2.9755649983029877

>  <m_score__min__rmsd>  (41) 
2.9755649983029877

>  <meeko>  (41) 
{"free_energy": -6.86, "intermolecular_energy": -8.65, "internal_energy": -1.67, "cluster_size": 12, "cluster_id": 5, "rank_in_cluster": 12}

>  <energy>  (41) 
-7.09

>  <cluster_rmsd>  (41) 
0.5

>  <cluster>  (41) 
5

$$$$

     RDKit          3D

 45 47  0  0  0  0  0  0  0  0999 V2000
  140.2690   67.3870  226.4030 C   0  0  0  0  0  0  0  0  0  0  0  0
  139.5060   68.5890  226.3320 O   0  0  0  0  0  0  0  0  0  0  0  0
  140.1440   69.7780  226.6970 C   0  0  0  0  0  0  0  0  0  0  0  0
  140.4690   70.0500  228.0240 C   0  0  0  0  0  0  0  0  0  0  0  0
  141.1000   71.2350  228.3580 C   0  0  0  0  0  0  0  0  0  0  0  0
  141.4190   72.1640  227.3890 C   0  0  0  0  0  0  0  0  0  0  0  0
  141.0900   71.8740  226.0950 C   0  0  0  0  0  0  0  0  0  0  0  0
  140.4560   70.6990  225.7090 C   0  0  0  0  0  0  0  0  0  0  0  0
  140.0960   70.3830  224.3220 C   0  0  0  0  0  0  0  0  0  0  0  0
  139.1960   71.2960  223.6900 N   0  0  0  0  0  0  0  0  0  0  0  0
  138.6830   71.0730  222.3840 C   0  0  0  0  0  0  0  0  0  0  0  0
  139.0200   70.0390  221.7450 O   0  0  0  0  0  0  0  0  0  0  0  0
  137.7570   72.0890  221.8310 C   0  0  0  0  0  0  0  0  0  0  0  0
  138.1990   73.4440  222.0560 N   0  0  0  0  0  0  0  0  0  0  0  0
  139.3830   73.8510  221.3380 C   0  0  0  0  0  0  0  0  0  0  0  0
  139.8890   72.9670  220.5980 O   0  0  0  0  0  0  0  0  0  0  0  0
  139.9310   75.1930  221.4790 C   0  0  0  0  0  0  0  0  0  0  0  0
  141.0600   75.4840  220.7270 C   0  0  0  0  0  0  0  0  0  0  0  0
  141.6400   76.7360  220.8000 C   0  0  0  0  0  0  0  0  0  0  0  0
  141.0710   77.6740  221.6330 C   0  0  0  0  0  0  0  0  0  0  0  0
  141.6580   78.9270  221.7000 C   0  0  0  0  0  0  0  0  0  0  0  0
  141.1250   79.8970  222.5190 C   0  0  0  0  0  0  0  0  0  0  0  0
  141.8680   81.4840  222.6040 Cl  0  0  0  0  0  0  0  0  0  0  0  0
  139.9980   79.5790  223.2580 C   0  0  0  0  0  0  0  0  0  0  0  0
  139.4220   78.3200  223.1780 C   0  0  0  0  0  0  0  0  0  0  0  0
  139.9500   77.3420  222.3610 C   0  0  0  0  0  0  0  0  0  0  0  0
  139.3960   76.1280  222.2830 N   0  0  0  0  0  0  0  0  0  0  0  0
  140.4376   67.1214  227.4571 H   0  0  0  0  0  0  0  0  0  0  0  0
  139.7208   66.5747  225.9034 H   0  0  0  0  0  0  0  0  0  0  0  0
  141.2374   67.5373  225.9034 H   0  0  0  0  0  0  0  0  0  0  0  0
  140.2230   69.3199  228.8092 H   0  0  0  0  0  0  0  0  0  0  0  0
  141.3506   71.4392  229.4094 H   0  0  0  0  0  0  0  0  0  0  0  0
  141.9217   73.1071  227.6497 H   0  0  0  0  0  0  0  0  0  0  0  0
  141.3404   72.6101  225.3169 H   0  0  0  0  0  0  0  0  0  0  0  0
  141.0227   70.3582  223.7300 H   0  0  0  0  0  0  0  0  0  0  0  0
  139.5655   69.4202  224.3627 H   0  0  0  0  0  0  0  0  0  0  0  0
  138.9050   72.1590  224.2100 H   0  0  0  0  0  0  0  0  0  0  0  0
  137.6667   71.9263  220.7468 H   0  0  0  0  0  0  0  0  0  0  0  0
  136.7939   71.9694  222.3487 H   0  0  0  0  0  0  0  0  0  0  0  0
  137.7070   74.1180  222.7000 H   0  0  0  0  0  0  0  0  0  0  0  0
  141.4947   74.7157  220.0707 H   0  0  0  0  0  0  0  0  0  0  0  0
  142.5345   76.9778  220.2072 H   0  0  0  0  0  0  0  0  0  0  0  0
  142.5517   79.1474  221.0977 H   0  0  0  0  0  0  0  0  0  0  0  0
  139.5525   80.3370  223.9190 H   0  0  0  0  0  0  0  0  0  0  0  0
  138.5270   78.0970  223.7775 H   0  0  0  0  0  0  0  0  0  0  0  0
  1  2  1  0
  2  3  1  0
  3  4  2  0
  4  5  1  0
  5  6  2  0
  6  7  1  0
  7  8  2  0
  8  9  1  0
  9 10  1  0
 10 11  1  0
 11 12  2  0
 11 13  1  0
 13 14  1  0
 14 15  1  0
 15 16  2  0
 15 17  1  0
 17 18  2  0
 18 19  1  0
 19 20  2  0
 20 21  1  0
 21 22  2  0
 22 23  1  0
 22 24  1  0
 24 25  2  0
 25 26  1  0
 26 27  2  0
  8  3  1  0
 27 17  1  0
 26 20  1  0
  1 28  1  0
  1 29  1  0
  1 30  1  0
  4 31  1  0
  5 32  1  0
  6 33  1  0
  7 34  1  0
  9 35  1  0
  9 36  1  0
 10 37  1  0
 13 38  1  0
 13 39  1  0
 14 40  1  0
 18 41  1  0
 19 42  1  0
 21 43  1  0
 24 44  1  0
 25 45  1  0
M  END
>  <smiles>  (42) 
COc1ccccc1CNC(=O)CNC(=O)c1ccc2cc(Cl)ccc2n1

>  <score_type>  (42) 
oracle

>  <origin>  (42) 
autodockgpu

>  <m_score__min__energy>  (42) 
-8.1300000000000008

>  <m_primary>  (42) 
energy

>  <rmsd>  (42) 
8.04581625647548

>  <m_score__min__rmsd>  (42) 
8.04581625647548

>  <meeko>  (42) 
{"free_energy": -8.01, "intermolecular_energy": -9.8, "internal_energy": -1.03, "cluster_size": 11, "cluster_id": 2, "rank_in_cluster": 1}

>  <energy>  (42) 
-7.09

>  <cluster_rmsd>  (42) 
0.34

>  <cluster>  (42) 
5

$$$$

     RDKit          3D

 45 47  0  0  0  0  0  0  0  0999 V2000
  137.7390   78.9350  222.7050 C   0  0  0  0  0  0  0  0  0  0  0  0
  139.0020   78.4590  222.2470 O   0  0  0  0  0  0  0  0  0  0  0  0
  140.1410   79.1510  222.6650 C   0  0  0  0  0  0  0  0  0  0  0  0
  140.0480   80.2910  223.4610 C   0  0  0  0  0  0  0  0  0  0  0  0
  141.1920   80.9570  223.8610 C   0  0  0  0  0  0  0  0  0  0  0  0
  142.4410   80.5080  223.4830 C   0  0  0  0  0  0  0  0  0  0  0  0
  142.5070   79.3880  222.7030 C   0  0  0  0  0  0  0  0  0  0  0  0
  141.3870   78.6840  222.2750 C   0  0  0  0  0  0  0  0  0  0  0  0
  141.4510   77.4840  221.4340 C   0  0  0  0  0  0  0  0  0  0  0  0
  140.3760   76.5550  221.5940 N   0  0  0  0  0  0  0  0  0  0  0  0
  139.9550   75.6960  220.5440 C   0  0  0  0  0  0  0  0  0  0  0  0
  140.5380   75.7360  219.4260 O   0  0  0  0  0  0  0  0  0  0  0  0
  138.8280   74.7750  220.8250 C   0  0  0  0  0  0  0  0  0  0  0  0
  138.9970   74.0240  222.0450 N   0  0  0  0  0  0  0  0  0  0  0  0
  139.5210   72.6870  221.8970 C   0  0  0  0  0  0  0  0  0  0  0  0
  139.7670   72.3380  220.7130 O   0  0  0  0  0  0  0  0  0  0  0  0
  139.7380   71.8270  223.0530 C   0  0  0  0  0  0  0  0  0  0  0  0
  139.3670   70.4970  222.9140 C   0  0  0  0  0  0  0  0  0  0  0  0
  139.5430   69.6140  223.9620 C   0  0  0  0  0  0  0  0  0  0  0  0
  140.0890   70.0880  225.1330 C   0  0  0  0  0  0  0  0  0  0  0  0
  140.2620   69.1960  226.1800 C   0  0  0  0  0  0  0  0  0  0  0  0
  140.8050   69.6240  227.3700 C   0  0  0  0  0  0  0  0  0  0  0  0
  141.0250   68.4940  228.6950 Cl  0  0  0  0  0  0  0  0  0  0  0  0
  141.1660   70.9560  227.4810 C   0  0  0  0  0  0  0  0  0  0  0  0
  140.9870   71.8350  226.4230 C   0  0  0  0  0  0  0  0  0  0  0  0
  140.4430   71.4160  225.2270 C   0  0  0  0  0  0  0  0  0  0  0  0
  140.2700   72.2620  224.2080 N   0  0  0  0  0  0  0  0  0  0  0  0
  137.7259   78.9399  223.8049 H   0  0  0  0  0  0  0  0  0  0  0  0
  137.5749   79.9567  222.3318 H   0  0  0  0  0  0  0  0  0  0  0  0
  136.9414   78.2758  222.3318 H   0  0  0  0  0  0  0  0  0  0  0  0
  139.0606   80.6626  223.7724 H   0  0  0  0  0  0  0  0  0  0  0  0
  141.1053   81.8563  224.4886 H   0  0  0  0  0  0  0  0  0  0  0  0
  143.3536   81.0345  223.7993 H   0  0  0  0  0  0  0  0  0  0  0  0
  143.4990   79.0240  222.3974 H   0  0  0  0  0  0  0  0  0  0  0  0
  141.4633   77.8085  220.3830 H   0  0  0  0  0  0  0  0  0  0  0  0
  142.3590   76.9476  221.7468 H   0  0  0  0  0  0  0  0  0  0  0  0
  139.8820   76.5080  222.5170 H   0  0  0  0  0  0  0  0  0  0  0  0
  137.9044   75.3671  220.9043 H   0  0  0  0  0  0  0  0  0  0  0  0
  138.7852   74.0501  219.9988 H   0  0  0  0  0  0  0  0  0  0  0  0
  138.7610   74.4020  222.9990 H   0  0  0  0  0  0  0  0  0  0  0  0
  138.9317   70.1449  221.9671 H   0  0  0  0  0  0  0  0  0  0  0  0
  139.2536   68.5574  223.8628 H   0  0  0  0  0  0  0  0  0  0  0  0
  139.9646   68.1438  226.0594 H   0  0  0  0  0  0  0  0  0  0  0  0
  141.6013   71.3227  228.4223 H   0  0  0  0  0  0  0  0  0  0  0  0
  141.2849   72.8874  226.5403 H   0  0  0  0  0  0  0  0  0  0  0  0
  1  2  1  0
  2  3  1  0
  3  4  2  0
  4  5  1  0
  5  6  2  0
  6  7  1  0
  7  8  2  0
  8  9  1  0
  9 10  1  0
 10 11  1  0
 11 12  2  0
 11 13  1  0
 13 14  1  0
 14 15  1  0
 15 16  2  0
 15 17  1  0
 17 18  2  0
 18 19  1  0
 19 20  2  0
 20 21  1  0
 21 22  2  0
 22 23  1  0
 22 24  1  0
 24 25  2  0
 25 26  1  0
 26 27  2  0
  8  3  1  0
 27 17  1  0
 26 20  1  0
  1 28  1  0
  1 29  1  0
  1 30  1  0
  4 31  1  0
  5 32  1  0
  6 33  1  0
  7 34  1  0
  9 35  1  0
  9 36  1  0
 10 37  1  0
 13 38  1  0
 13 39  1  0
 14 40  1  0
 18 41  1  0
 19 42  1  0
 21 43  1  0
 24 44  1  0
 25 45  1  0
M  END
>  <smiles>  (43) 
COc1ccccc1CNC(=O)CNC(=O)c1ccc2cc(Cl)ccc2n1

>  <score_type>  (43) 
oracle

>  <origin>  (43) 
autodockgpu

>  <m_score__min__energy>  (43) 
-8.1300000000000008

>  <m_primary>  (43) 
energy

>  <rmsd>  (43) 
3.3756016295152866

>  <m_score__min__rmsd>  (43) 
3.3756016295152866

>  <meeko>  (43) 
{"free_energy": -7.67, "intermolecular_energy": -9.46, "internal_energy": -1.3, "cluster_size": 13, "cluster_id": 1, "rank_in_cluster": 6}

>  <energy>  (43) 
-7.07

>  <cluster_rmsd>  (43) 
0.38

>  <cluster>  (43) 
5

$$$$

     RDKit          3D

 45 47  0  0  0  0  0  0  0  0999 V2000
  139.2790   67.9540  225.1960 C   0  0  0  0  0  0  0  0  0  0  0  0
  138.9390   69.3370  225.2540 O   0  0  0  0  0  0  0  0  0  0  0  0
  139.6790   70.1460  226.1200 C   0  0  0  0  0  0  0  0  0  0  0  0
  139.5950   69.9960  227.5030 C   0  0  0  0  0  0  0  0  0  0  0  0
  140.3390   70.8110  228.3370 C   0  0  0  0  0  0  0  0  0  0  0  0
  141.1730   71.7800  227.8200 C   0  0  0  0  0  0  0  0  0  0  0  0
  141.2380   71.9070  226.4610 C   0  0  0  0  0  0  0  0  0  0  0  0
  140.5110   71.1140  225.5810 C   0  0  0  0  0  0  0  0  0  0  0  0
  140.5730   71.2480  224.1210 C   0  0  0  0  0  0  0  0  0  0  0  0
  139.3190   71.4380  223.4610 N   0  0  0  0  0  0  0  0  0  0  0  0
  139.0990   72.5010  222.5450 C   0  0  0  0  0  0  0  0  0  0  0  0
  140.0290   73.3150  222.2910 O   0  0  0  0  0  0  0  0  0  0  0  0
  137.7580   72.6000  221.9220 C   0  0  0  0  0  0  0  0  0  0  0  0
  136.8240   73.3770  222.7010 N   0  0  0  0  0  0  0  0  0  0  0  0
  136.1670   72.6800  223.7810 C   0  0  0  0  0  0  0  0  0  0  0  0
  136.4920   71.4700  223.9110 O   0  0  0  0  0  0  0  0  0  0  0  0
  135.2030   73.3530  224.6410 C   0  0  0  0  0  0  0  0  0  0  0  0
  134.3790   72.5380  225.4040 C   0  0  0  0  0  0  0  0  0  0  0  0
  133.4390   73.0970  226.2480 C   0  0  0  0  0  0  0  0  0  0  0  0
  133.3460   74.4690  226.3080 C   0  0  0  0  0  0  0  0  0  0  0  0
  132.4010   75.0220  227.1580 C   0  0  0  0  0  0  0  0  0  0  0  0
  132.2710   76.3890  227.2510 C   0  0  0  0  0  0  0  0  0  0  0  0
  131.0750   77.0880  228.3270 Cl  0  0  0  0  0  0  0  0  0  0  0  0
  133.1060   77.1770  226.4790 C   0  0  0  0  0  0  0  0  0  0  0  0
  134.0480   76.6080  225.6340 C   0  0  0  0  0  0  0  0  0  0  0  0
  134.1840   75.2390  225.5330 C   0  0  0  0  0  0  0  0  0  0  0  0
  135.0900   74.6900  224.7190 N   0  0  0  0  0  0  0  0  0  0  0  0
  139.3765   67.5573  226.2173 H   0  0  0  0  0  0  0  0  0  0  0  0
  138.4893   67.4043  224.6630 H   0  0  0  0  0  0  0  0  0  0  0  0
  140.2336   67.8331  224.6630 H   0  0  0  0  0  0  0  0  0  0  0  0
  138.9354   69.2276  227.9324 H   0  0  0  0  0  0  0  0  0  0  0  0
  140.2644   70.6845  229.4272 H   0  0  0  0  0  0  0  0  0  0  0  0
  141.7666   72.4295  228.4801 H   0  0  0  0  0  0  0  0  0  0  0  0
  141.9010   72.6778  226.0411 H   0  0  0  0  0  0  0  0  0  0  0  0
  141.2117   72.1127  223.8880 H   0  0  0  0  0  0  0  0  0  0  0  0
  140.9650   70.2900  223.7489 H   0  0  0  0  0  0  0  0  0  0  0  0
  138.5380   70.7690  223.6610 H   0  0  0  0  0  0  0  0  0  0  0  0
  137.8657   73.0712  220.9339 H   0  0  0  0  0  0  0  0  0  0  0  0
  137.3545   71.5791  221.8518 H   0  0  0  0  0  0  0  0  0  0  0  0
  136.6150   74.3930  222.5150 H   0  0  0  0  0  0  0  0  0  0  0  0
  134.4745   71.4442  225.3367 H   0  0  0  0  0  0  0  0  0  0  0  0
  132.7805   72.4608  226.8576 H   0  0  0  0  0  0  0  0  0  0  0  0
  131.7536   74.3669  227.7595 H   0  0  0  0  0  0  0  0  0  0  0  0
  133.0217   78.2723  226.5360 H   0  0  0  0  0  0  0  0  0  0  0  0
  134.6985   77.2608  225.0334 H   0  0  0  0  0  0  0  0  0  0  0  0
  1  2  1  0
  2  3  1  0
  3  4  2  0
  4  5  1  0
  5  6  2  0
  6  7  1  0
  7  8  2  0
  8  9  1  0
  9 10  1  0
 10 11  1  0
 11 12  2  0
 11 13  1  0
 13 14  1  0
 14 15  1  0
 15 16  2  0
 15 17  1  0
 17 18  2  0
 18 19  1  0
 19 20  2  0
 20 21  1  0
 21 22  2  0
 22 23  1  0
 22 24  1  0
 24 25  2  0
 25 26  1  0
 26 27  2  0
  8  3  1  0
 27 17  1  0
 26 20  1  0
  1 28  1  0
  1 29  1  0
  1 30  1  0
  4 31  1  0
  5 32  1  0
  6 33  1  0
  7 34  1  0
  9 35  1  0
  9 36  1  0
 10 37  1  0
 13 38  1  0
 13 39  1  0
 14 40  1  0
 18 41  1  0
 19 42  1  0
 21 43  1  0
 24 44  1  0
 25 45  1  0
M  END
>  <smiles>  (44) 
COc1ccccc1CNC(=O)CNC(=O)c1ccc2cc(Cl)ccc2n1

>  <score_type>  (44) 
oracle

>  <origin>  (44) 
autodockgpu

>  <m_score__min__energy>  (44) 
-8.1300000000000008

>  <m_primary>  (44) 
energy

>  <rmsd>  (44) 
7.621983415736151

>  <m_score__min__rmsd>  (44) 
7.621983415736151

>  <meeko>  (44) 
{"free_energy": -6.93, "intermolecular_energy": -8.72, "internal_energy": -2.4, "cluster_size": 7, "cluster_id": 4, "rank_in_cluster": 2}

>  <energy>  (44) 
-7.02

>  <cluster_rmsd>  (44) 
0.45

>  <cluster>  (44) 
5

$$$$

     RDKit          3D

 45 47  0  0  0  0  0  0  0  0999 V2000
  137.7430   78.7050  222.7360 C   0  0  0  0  0  0  0  0  0  0  0  0
  138.9960   78.1510  222.3450 O   0  0  0  0  0  0  0  0  0  0  0  0
  140.1510   78.8480  222.7110 C   0  0  0  0  0  0  0  0  0  0  0  0
  140.0880   79.9870  223.5110 C   0  0  0  0  0  0  0  0  0  0  0  0
  141.2470   80.6590  223.8580 C   0  0  0  0  0  0  0  0  0  0  0  0
  142.4790   80.2150  223.4240 C   0  0  0  0  0  0  0  0  0  0  0  0
  142.5140   79.0960  222.6410 C   0  0  0  0  0  0  0  0  0  0  0  0
  141.3790   78.3870  222.2640 C   0  0  0  0  0  0  0  0  0  0  0  0
  141.4090   77.1870  221.4210 C   0  0  0  0  0  0  0  0  0  0  0  0
  140.3400   76.2600  221.6200 N   0  0  0  0  0  0  0  0  0  0  0  0
  139.8660   75.4150  220.5810 C   0  0  0  0  0  0  0  0  0  0  0  0
  140.3960   75.4670  219.4370 O   0  0  0  0  0  0  0  0  0  0  0  0
  138.7510   74.4940  220.9040 C   0  0  0  0  0  0  0  0  0  0  0  0
  138.9640   73.7470  222.1200 N   0  0  0  0  0  0  0  0  0  0  0  0
  139.3520   72.3670  221.9540 C   0  0  0  0  0  0  0  0  0  0  0  0
  139.4590   71.9820  220.7610 O   0  0  0  0  0  0  0  0  0  0  0  0
  139.5970   71.5060  223.1040 C   0  0  0  0  0  0  0  0  0  0  0  0
  139.2540   70.1690  222.9610 C   0  0  0  0  0  0  0  0  0  0  0  0
  139.4570   69.2850  224.0030 C   0  0  0  0  0  0  0  0  0  0  0  0
  140.0020   69.7650  225.1730 C   0  0  0  0  0  0  0  0  0  0  0  0
  140.2030   68.8720  226.2130 C   0  0  0  0  0  0  0  0  0  0  0  0
  140.7450   69.3060  227.4020 C   0  0  0  0  0  0  0  0  0  0  0  0
  140.9990   68.1740  228.7190 Cl  0  0  0  0  0  0  0  0  0  0  0  0
  141.0780   70.6440  227.5160 C   0  0  0  0  0  0  0  0  0  0  0  0
  140.8710   71.5250  226.4650 C   0  0  0  0  0  0  0  0  0  0  0  0
  140.3280   71.1000  225.2700 C   0  0  0  0  0  0  0  0  0  0  0  0
  140.1280   71.9470  224.2570 N   0  0  0  0  0  0  0  0  0  0  0  0
  137.6808   78.7325  223.8339 H   0  0  0  0  0  0  0  0  0  0  0  0
  137.6536   79.7266  222.3380 H   0  0  0  0  0  0  0  0  0  0  0  0
  136.9272   78.0837  222.3380 H   0  0  0  0  0  0  0  0  0  0  0  0
  139.1141   80.3532  223.8679 H   0  0  0  0  0  0  0  0  0  0  0  0
  141.1851   81.5587  224.4879 H   0  0  0  0  0  0  0  0  0  0  0  0
  143.4029   80.7446  223.6994 H   0  0  0  0  0  0  0  0  0  0  0  0
  143.4926   78.7367  222.2900 H   0  0  0  0  0  0  0  0  0  0  0  0
  141.3827   77.5119  220.3704 H   0  0  0  0  0  0  0  0  0  0  0  0
  142.3268   76.6488  221.7002 H   0  0  0  0  0  0  0  0  0  0  0  0
  139.8910   76.2030  222.5650 H   0  0  0  0  0  0  0  0  0  0  0  0
  137.8300   75.0853  221.0139 H   0  0  0  0  0  0  0  0  0  0  0  0
  138.6798   73.7665  220.0820 H   0  0  0  0  0  0  0  0  0  0  0  0
  138.8490   74.1580  223.0830 H   0  0  0  0  0  0  0  0  0  0  0  0
  138.8194   69.8122  222.0156 H   0  0  0  0  0  0  0  0  0  0  0  0
  139.1896   68.2229  223.9006 H   0  0  0  0  0  0  0  0  0  0  0  0
  139.9290   67.8140  226.0886 H   0  0  0  0  0  0  0  0  0  0  0  0
  141.5139   71.0150  228.4553 H   0  0  0  0  0  0  0  0  0  0  0  0
  141.1451   72.5833  226.5866 H   0  0  0  0  0  0  0  0  0  0  0  0
  1  2  1  0
  2  3  1  0
  3  4  2  0
  4  5  1  0
  5  6  2  0
  6  7  1  0
  7  8  2  0
  8  9  1  0
  9 10  1  0
 10 11  1  0
 11 12  2  0
 11 13  1  0
 13 14  1  0
 14 15  1  0
 15 16  2  0
 15 17  1  0
 17 18  2  0
 18 19  1  0
 19 20  2  0
 20 21  1  0
 21 22  2  0
 22 23  1  0
 22 24  1  0
 24 25  2  0
 25 26  1  0
 26 27  2  0
  8  3  1  0
 27 17  1  0
 26 20  1  0
  1 28  1  0
  1 29  1  0
  1 30  1  0
  4 31  1  0
  5 32  1  0
  6 33  1  0
  7 34  1  0
  9 35  1  0
  9 36  1  0
 10 37  1  0
 13 38  1  0
 13 39  1  0
 14 40  1  0
 18 41  1  0
 19 42  1  0
 21 43  1  0
 24 44  1  0
 25 45  1  0
M  END
>  <smiles>  (45) 
COc1ccccc1CNC(=O)CNC(=O)c1ccc2cc(Cl)ccc2n1

>  <score_type>  (45) 
oracle

>  <origin>  (45) 
autodockgpu

>  <m_score__min__energy>  (45) 
-8.1300000000000008

>  <m_primary>  (45) 
energy

>  <rmsd>  (45) 
3.2246481846577657

>  <m_score__min__rmsd>  (45) 
3.2246481846577657

>  <meeko>  (45) 
{"free_energy": -7.65, "intermolecular_energy": -9.44, "internal_energy": -1.3, "cluster_size": 13, "cluster_id": 1, "rank_in_cluster": 7}

>  <energy>  (45) 
-6.91

>  <cluster_rmsd>  (45) 
0.6

>  <cluster>  (45) 
5

$$$$

     RDKit          3D

 45 47  0  0  0  0  0  0  0  0999 V2000
  142.1340   70.9660  219.9890 C   0  0  0  0  0  0  0  0  0  0  0  0
  142.3990   72.2980  219.5550 O   0  0  0  0  0  0  0  0  0  0  0  0
  143.5900   72.8890  219.9870 C   0  0  0  0  0  0  0  0  0  0  0  0
  144.6890   72.1210  220.3620 C   0  0  0  0  0  0  0  0  0  0  0  0
  145.8550   72.7320  220.7860 C   0  0  0  0  0  0  0  0  0  0  0  0
  145.9520   74.1080  220.8430 C   0  0  0  0  0  0  0  0  0  0  0  0
  144.8600   74.8400  220.4690 C   0  0  0  0  0  0  0  0  0  0  0  0
  143.6670   74.2730  220.0370 C   0  0  0  0  0  0  0  0  0  0  0  0
  142.4900   75.0530  219.6380 C   0  0  0  0  0  0  0  0  0  0  0  0
  141.2380   74.5980  220.1570 N   0  0  0  0  0  0  0  0  0  0  0  0
  140.0840   75.4260  220.1830 C   0  0  0  0  0  0  0  0  0  0  0  0
  140.1450   76.6040  219.7370 O   0  0  0  0  0  0  0  0  0  0  0  0
  138.8410   74.8470  220.7460 C   0  0  0  0  0  0  0  0  0  0  0  0
  139.0620   74.0930  221.9560 N   0  0  0  0  0  0  0  0  0  0  0  0
  139.3940   72.6990  221.7820 C   0  0  0  0  0  0  0  0  0  0  0  0
  139.4510   72.3100  220.5860 O   0  0  0  0  0  0  0  0  0  0  0  0
  139.6400   71.8300  222.9250 C   0  0  0  0  0  0  0  0  0  0  0  0
  139.2990   70.4950  222.7720 C   0  0  0  0  0  0  0  0  0  0  0  0
  139.5030   69.6030  223.8080 C   0  0  0  0  0  0  0  0  0  0  0  0
  140.0480   70.0750  224.9810 C   0  0  0  0  0  0  0  0  0  0  0  0
  140.2500   69.1750  226.0150 C   0  0  0  0  0  0  0  0  0  0  0  0
  140.7920   69.6010  227.2060 C   0  0  0  0  0  0  0  0  0  0  0  0
  141.0480   68.4600  228.5150 Cl  0  0  0  0  0  0  0  0  0  0  0  0
  141.1230   70.9390  227.3300 C   0  0  0  0  0  0  0  0  0  0  0  0
  140.9150   71.8270  226.2860 C   0  0  0  0  0  0  0  0  0  0  0  0
  140.3720   71.4100  225.0880 C   0  0  0  0  0  0  0  0  0  0  0  0
  140.1710   72.2640  224.0810 N   0  0  0  0  0  0  0  0  0  0  0  0
  142.1275   70.9331  221.0885 H   0  0  0  0  0  0  0  0  0  0  0  0
  141.1542   70.6439  219.6067 H   0  0  0  0  0  0  0  0  0  0  0  0
  142.9159   70.2934  219.6067 H   0  0  0  0  0  0  0  0  0  0  0  0
  144.6297   71.0234  220.3209 H   0  0  0  0  0  0  0  0  0  0  0  0
  146.7157   72.1140  221.0814 H   0  0  0  0  0  0  0  0  0  0  0  0
  146.8775   74.5990  221.1783 H   0  0  0  0  0  0  0  0  0  0  0  0
  144.9292   75.9370  220.5123 H   0  0  0  0  0  0  0  0  0  0  0  0
  142.6401   76.0884  219.9776 H   0  0  0  0  0  0  0  0  0  0  0  0
  142.4172   74.9471  218.5455 H   0  0  0  0  0  0  0  0  0  0  0  0
  141.1710   73.6210  220.5300 H   0  0  0  0  0  0  0  0  0  0  0  0
  138.1426   75.6673  220.9680 H   0  0  0  0  0  0  0  0  0  0  0  0
  138.4363   74.1509  219.9966 H   0  0  0  0  0  0  0  0  0  0  0  0
  138.9900   74.5080  222.9220 H   0  0  0  0  0  0  0  0  0  0  0  0
  138.8650   70.1448  221.8239 H   0  0  0  0  0  0  0  0  0  0  0  0
  139.2363   68.5415  223.6980 H   0  0  0  0  0  0  0  0  0  0  0  0
  139.9765   68.1177  225.8835 H   0  0  0  0  0  0  0  0  0  0  0  0
  141.5581   71.3038  228.2721 H   0  0  0  0  0  0  0  0  0  0  0  0
  141.1881   72.8847  226.4151 H   0  0  0  0  0  0  0  0  0  0  0  0
  1  2  1  0
  2  3  1  0
  3  4  2  0
  4  5  1  0
  5  6  2  0
  6  7  1  0
  7  8  2  0
  8  9  1  0
  9 10  1  0
 10 11  1  0
 11 12  2  0
 11 13  1  0
 13 14  1  0
 14 15  1  0
 15 16  2  0
 15 17  1  0
 17 18  2  0
 18 19  1  0
 19 20  2  0
 20 21  1  0
 21 22  2  0
 22 23  1  0
 22 24  1  0
 24 25  2  0
 25 26  1  0
 26 27  2  0
  8  3  1  0
 27 17  1  0
 26 20  1  0
  1 28  1  0
  1 29  1  0
  1 30  1  0
  4 31  1  0
  5 32  1  0
  6 33  1  0
  7 34  1  0
  9 35  1  0
  9 36  1  0
 10 37  1  0
 13 38  1  0
 13 39  1  0
 14 40  1  0
 18 41  1  0
 19 42  1  0
 21 43  1  0
 24 44  1  0
 25 45  1  0
M  END
>  <smiles>  (46) 
COc1ccccc1CNC(=O)CNC(=O)c1ccc2cc(Cl)ccc2n1

>  <score_type>  (46) 
oracle

>  <origin>  (46) 
autodockgpu

>  <m_score__min__energy>  (46) 
-8.1300000000000008

>  <m_primary>  (46) 
energy

>  <rmsd>  (46) 
3.0134236126232947

>  <m_score__min__rmsd>  (46) 
3.0134236126232947

>  <meeko>  (46) 
{"free_energy": -6.91, "intermolecular_energy": -8.7, "internal_energy": -2.51, "cluster_size": 12, "cluster_id": 5, "rank_in_cluster": 11}

>  <energy>  (46) 
-6.86

>  <cluster_rmsd>  (46) 
0.85

>  <cluster>  (46) 
5

$$$$

     RDKit          3D

 45 47  0  0  0  0  0  0  0  0999 V2000
  140.8660   71.9080  222.2670 C   0  0  0  0  0  0  0  0  0  0  0  0
  140.2400   72.4000  223.4490 O   0  0  0  0  0  0  0  0  0  0  0  0
  140.1640   71.5360  224.5450 C   0  0  0  0  0  0  0  0  0  0  0  0
  141.0880   71.6000  225.5850 C   0  0  0  0  0  0  0  0  0  0  0  0
  140.9900   70.7320  226.6580 C   0  0  0  0  0  0  0  0  0  0  0  0
  139.9810   69.7930  226.7180 C   0  0  0  0  0  0  0  0  0  0  0  0
  139.0870   69.7500  225.6850 C   0  0  0  0  0  0  0  0  0  0  0  0
  139.1430   70.5990  224.5860 C   0  0  0  0  0  0  0  0  0  0  0  0
  138.1900   70.5560  223.4720 C   0  0  0  0  0  0  0  0  0  0  0  0
  137.5840   71.8030  223.1230 N   0  0  0  0  0  0  0  0  0  0  0  0
  136.1750   71.9770  223.0860 C   0  0  0  0  0  0  0  0  0  0  0  0
  135.4150   71.0110  223.3710 O   0  0  0  0  0  0  0  0  0  0  0  0
  135.6610   73.3140  222.7090 C   0  0  0  0  0  0  0  0  0  0  0  0
  136.5740   74.3850  223.0270 N   0  0  0  0  0  0  0  0  0  0  0  0
  137.6530   74.5950  222.0920 C   0  0  0  0  0  0  0  0  0  0  0  0
  137.6650   73.8120  221.1060 O   0  0  0  0  0  0  0  0  0  0  0  0
  138.6420   75.6450  222.3000 C   0  0  0  0  0  0  0  0  0  0  0  0
  139.9540   75.3330  221.9740 C   0  0  0  0  0  0  0  0  0  0  0  0
  140.9530   76.2740  222.1380 C   0  0  0  0  0  0  0  0  0  0  0  0
  140.6100   77.5140  222.6300 C   0  0  0  0  0  0  0  0  0  0  0  0
  141.6180   78.4510  222.7910 C   0  0  0  0  0  0  0  0  0  0  0  0
  141.3230   79.7040  223.2790 C   0  0  0  0  0  0  0  0  0  0  0  0
  142.5990   80.8920  223.4830 Cl  0  0  0  0  0  0  0  0  0  0  0  0
  140.0060   79.9880  223.5960 C   0  0  0  0  0  0  0  0  0  0  0  0
  139.0090   79.0380  223.4280 C   0  0  0  0  0  0  0  0  0  0  0  0
  139.2950   77.7790  222.9400 C   0  0  0  0  0  0  0  0  0  0  0  0
  138.3360   76.8630  222.7780 N   0  0  0  0  0  0  0  0  0  0  0  0
  141.7033   71.2499  222.5423 H   0  0  0  0  0  0  0  0  0  0  0  0
  140.1339   71.3410  221.6732 H   0  0  0  0  0  0  0  0  0  0  0  0
  141.2439   72.7533  221.6732 H   0  0  0  0  0  0  0  0  0  0  0  0
  141.8984   72.3431  225.5533 H   0  0  0  0  0  0  0  0  0  0  0  0
  141.7258   70.7913  227.4735 H   0  0  0  0  0  0  0  0  0  0  0  0
  139.8987   69.1015  227.5695 H   0  0  0  0  0  0  0  0  0  0  0  0
  138.2801   69.0036  225.7256 H   0  0  0  0  0  0  0  0  0  0  0  0
  138.7230   70.1802  222.5862 H   0  0  0  0  0  0  0  0  0  0  0  0
  137.3672   69.9076  223.8076 H   0  0  0  0  0  0  0  0  0  0  0  0
  138.2020   72.6150  222.8860 H   0  0  0  0  0  0  0  0  0  0  0  0
  135.4747   73.3239  221.6249 H   0  0  0  0  0  0  0  0  0  0  0  0
  134.7417   73.4857  223.2882 H   0  0  0  0  0  0  0  0  0  0  0  0
  136.4840   74.9930  223.8840 H   0  0  0  0  0  0  0  0  0  0  0  0
  140.1997   74.3342  221.5840 H   0  0  0  0  0  0  0  0  0  0  0  0
  141.9965   76.0384  221.8819 H   0  0  0  0  0  0  0  0  0  0  0  0
  142.6547   78.1935  222.5287 H   0  0  0  0  0  0  0  0  0  0  0  0
  139.7457   80.9826  223.9873 H   0  0  0  0  0  0  0  0  0  0  0  0
  137.9712   79.2929  223.6886 H   0  0  0  0  0  0  0  0  0  0  0  0
  1  2  1  0
  2  3  1  0
  3  4  2  0
  4  5  1  0
  5  6  2  0
  6  7  1  0
  7  8  2  0
  8  9  1  0
  9 10  1  0
 10 11  1  0
 11 12  2  0
 11 13  1  0
 13 14  1  0
 14 15  1  0
 15 16  2  0
 15 17  1  0
 17 18  2  0
 18 19  1  0
 19 20  2  0
 20 21  1  0
 21 22  2  0
 22 23  1  0
 22 24  1  0
 24 25  2  0
 25 26  1  0
 26 27  2  0
  8  3  1  0
 27 17  1  0
 26 20  1  0
  1 28  1  0
  1 29  1  0
  1 30  1  0
  4 31  1  0
  5 32  1  0
  6 33  1  0
  7 34  1  0
  9 35  1  0
  9 36  1  0
 10 37  1  0
 13 38  1  0
 13 39  1  0
 14 40  1  0
 18 41  1  0
 19 42  1  0
 21 43  1  0
 24 44  1  0
 25 45  1  0
M  END
>  <smiles>  (47) 
COc1ccccc1CNC(=O)CNC(=O)c1ccc2cc(Cl)ccc2n1

>  <score_type>  (47) 
oracle

>  <origin>  (47) 
autodockgpu

>  <m_score__min__energy>  (47) 
-8.1300000000000008

>  <m_primary>  (47) 
energy

>  <rmsd>  (47) 
7.883969057401601

>  <m_score__min__rmsd>  (47) 
7.883969057401601

>  <meeko>  (47) 
{"free_energy": -6.88, "intermolecular_energy": -8.67, "internal_energy": -2.49, "cluster_size": 11, "cluster_id": 2, "rank_in_cluster": 6}

>  <energy>  (47) 
-6.71

>  <cluster_rmsd>  (47) 
0.0

>  <cluster>  (47) 
6

$$$$

     RDKit          3D

 45 47  0  0  0  0  0  0  0  0999 V2000
  137.9040   68.9810  225.1820 C   0  0  0  0  0  0  0  0  0  0  0  0
  139.3140   69.1620  225.0820 O   0  0  0  0  0  0  0  0  0  0  0  0
  139.9290   69.9640  226.0470 C   0  0  0  0  0  0  0  0  0  0  0  0
  139.8720   69.6440  227.4020 C   0  0  0  0  0  0  0  0  0  0  0  0
  140.4900   70.4560  228.3360 C   0  0  0  0  0  0  0  0  0  0  0  0
  141.1720   71.5900  227.9470 C   0  0  0  0  0  0  0  0  0  0  0  0
  141.2150   71.8830  226.6130 C   0  0  0  0  0  0  0  0  0  0  0  0
  140.6100   71.1000  225.6360 C   0  0  0  0  0  0  0  0  0  0  0  0
  140.6490   71.4110  224.2030 C   0  0  0  0  0  0  0  0  0  0  0  0
  139.3790   71.4960  223.5510 N   0  0  0  0  0  0  0  0  0  0  0  0
  139.0840   72.5070  222.5980 C   0  0  0  0  0  0  0  0  0  0  0  0
  139.9580   73.3660  222.3020 O   0  0  0  0  0  0  0  0  0  0  0  0
  137.7330   72.4980  221.9880 C   0  0  0  0  0  0  0  0  0  0  0  0
  136.7690   73.2750  222.7290 N   0  0  0  0  0  0  0  0  0  0  0  0
  136.1990   72.6370  223.8910 C   0  0  0  0  0  0  0  0  0  0  0  0
  136.6170   71.4710  224.1180 O   0  0  0  0  0  0  0  0  0  0  0  0
  135.2150   73.3170  224.7230 C   0  0  0  0  0  0  0  0  0  0  0  0
  134.3270   72.5080  225.4170 C   0  0  0  0  0  0  0  0  0  0  0  0
  133.3640   73.0740  226.2310 C   0  0  0  0  0  0  0  0  0  0  0  0
  133.3130   74.4460  226.3290 C   0  0  0  0  0  0  0  0  0  0  0  0
  132.3440   75.0050  227.1470 C   0  0  0  0  0  0  0  0  0  0  0  0
  132.2550   76.3730  227.2770 C   0  0  0  0  0  0  0  0  0  0  0  0
  131.0280   77.0810  228.3130 Cl  0  0  0  0  0  0  0  0  0  0  0  0
  133.1540   77.1550  226.5730 C   0  0  0  0  0  0  0  0  0  0  0  0
  134.1180   76.5790  225.7580 C   0  0  0  0  0  0  0  0  0  0  0  0
  134.2150   75.2100  225.6220 C   0  0  0  0  0  0  0  0  0  0  0  0
  135.1430   74.6540  224.8370 N   0  0  0  0  0  0  0  0  0  0  0  0
  137.6134   68.9437  226.2423 H   0  0  0  0  0  0  0  0  0  0  0  0
  137.3908   69.8206  224.6905 H   0  0  0  0  0  0  0  0  0  0  0  0
  137.6195   68.0390  224.6905 H   0  0  0  0  0  0  0  0  0  0  0  0
  139.3337   68.7426  227.7301 H   0  0  0  0  0  0  0  0  0  0  0  0
  140.4368   70.1938  229.4030 H   0  0  0  0  0  0  0  0  0  0  0  0
  141.6654   72.2376  228.6867 H   0  0  0  0  0  0  0  0  0  0  0  0
  141.7568   72.7860  226.2952 H   0  0  0  0  0  0  0  0  0  0  0  0
  141.1566   72.3792  224.0812 H   0  0  0  0  0  0  0  0  0  0  0  0
  141.1735   70.5688  223.7281 H   0  0  0  0  0  0  0  0  0  0  0  0
  138.6430   70.7880  223.7860 H   0  0  0  0  0  0  0  0  0  0  0  0
  137.8061   72.9099  220.9707 H   0  0  0  0  0  0  0  0  0  0  0  0
  137.3816   71.4556  221.9878 H   0  0  0  0  0  0  0  0  0  0  0  0
  136.4780   74.2520  222.4590 H   0  0  0  0  0  0  0  0  0  0  0  0
  134.3894   71.4141  225.3193 H   0  0  0  0  0  0  0  0  0  0  0  0
  132.6552   72.4430  226.7873 H   0  0  0  0  0  0  0  0  0  0  0  0
  131.6448   74.3549  227.6933 H   0  0  0  0  0  0  0  0  0  0  0  0
  133.1035   78.2503  226.6609 H   0  0  0  0  0  0  0  0  0  0  0  0
  134.8182   77.2266  225.2099 H   0  0  0  0  0  0  0  0  0  0  0  0
  1  2  1  0
  2  3  1  0
  3  4  2  0
  4  5  1  0
  5  6  2  0
  6  7  1  0
  7  8  2  0
  8  9  1  0
  9 10  1  0
 10 11  1  0
 11 12  2  0
 11 13  1  0
 13 14  1  0
 14 15  1  0
 15 16  2  0
 15 17  1  0
 17 18  2  0
 18 19  1  0
 19 20  2  0
 20 21  1  0
 21 22  2  0
 22 23  1  0
 22 24  1  0
 24 25  2  0
 25 26  1  0
 26 27  2  0
  8  3  1  0
 27 17  1  0
 26 20  1  0
  1 28  1  0
  1 29  1  0
  1 30  1  0
  4 31  1  0
  5 32  1  0
  6 33  1  0
  7 34  1  0
  9 35  1  0
  9 36  1  0
 10 37  1  0
 13 38  1  0
 13 39  1  0
 14 40  1  0
 18 41  1  0
 19 42  1  0
 21 43  1  0
 24 44  1  0
 25 45  1  0
M  END
>  <smiles>  (48) 
COc1ccccc1CNC(=O)CNC(=O)c1ccc2cc(Cl)ccc2n1

>  <score_type>  (48) 
oracle

>  <origin>  (48) 
autodockgpu

>  <m_score__min__energy>  (48) 
-8.1300000000000008

>  <m_primary>  (48) 
energy

>  <rmsd>  (48) 
7.648940999106584

>  <m_score__min__rmsd>  (48) 
7.648940999106584

>  <meeko>  (48) 
{"free_energy": -6.86, "intermolecular_energy": -8.65, "internal_energy": -2.4, "cluster_size": 7, "cluster_id": 4, "rank_in_cluster": 5}

>  <energy>  (48) 
-6.46

>  <cluster_rmsd>  (48) 
0.0

>  <cluster>  (48) 
7

$$$$

     RDKit          3D

 45 47  0  0  0  0  0  0  0  0999 V2000
  140.9290   71.8180  222.5970 C   0  0  0  0  0  0  0  0  0  0  0  0
  140.1280   72.2660  223.6880 O   0  0  0  0  0  0  0  0  0  0  0  0
  140.1670   71.5140  224.8650 C   0  0  0  0  0  0  0  0  0  0  0  0
  141.0280   71.8440  225.9090 C   0  0  0  0  0  0  0  0  0  0  0  0
  141.0460   71.0820  227.0640 C   0  0  0  0  0  0  0  0  0  0  0  0
  140.2160   69.9890  227.2040 C   0  0  0  0  0  0  0  0  0  0  0  0
  139.3800   69.6870  226.1660 C   0  0  0  0  0  0  0  0  0  0  0  0
  139.3240   70.4200  224.9860 C   0  0  0  0  0  0  0  0  0  0  0  0
  138.4330   70.0980  223.8670 C   0  0  0  0  0  0  0  0  0  0  0  0
  137.8900   71.2170  223.1630 N   0  0  0  0  0  0  0  0  0  0  0  0
  136.5100   71.5490  223.2170 C   0  0  0  0  0  0  0  0  0  0  0  0
  135.7210   70.8470  223.9050 O   0  0  0  0  0  0  0  0  0  0  0  0
  136.0610   72.7320  222.4440 C   0  0  0  0  0  0  0  0  0  0  0  0
  136.8300   73.9200  222.7250 N   0  0  0  0  0  0  0  0  0  0  0  0
  137.9890   74.1360  221.8930 C   0  0  0  0  0  0  0  0  0  0  0  0
  138.1880   73.2530  221.0170 O   0  0  0  0  0  0  0  0  0  0  0  0
  138.8470   75.2990  222.0750 C   0  0  0  0  0  0  0  0  0  0  0  0
  140.1730   75.1550  221.6940 C   0  0  0  0  0  0  0  0  0  0  0  0
  141.0530   76.2120  221.8320 C   0  0  0  0  0  0  0  0  0  0  0  0
  140.5800   77.3960  222.3520 C   0  0  0  0  0  0  0  0  0  0  0  0
  141.4680   78.4500  222.4870 C   0  0  0  0  0  0  0  0  0  0  0  0
  141.0400   79.6530  223.0020 C   0  0  0  0  0  0  0  0  0  0  0  0
  142.1660   80.9880  223.1720 Cl  0  0  0  0  0  0  0  0  0  0  0  0
  139.7120   79.7670  223.3740 C   0  0  0  0  0  0  0  0  0  0  0  0
  138.8350   78.7020  223.2320 C   0  0  0  0  0  0  0  0  0  0  0  0
  139.2550   77.4930  222.7170 C   0  0  0  0  0  0  0  0  0  0  0  0
  138.4120   76.4660  222.5810 N   0  0  0  0  0  0  0  0  0  0  0  0
  141.8277   71.3154  222.9840 H   0  0  0  0  0  0  0  0  0  0  0  0
  140.3503   71.1126  221.9826 H   0  0  0  0  0  0  0  0  0  0  0  0
  141.2271   72.6804  221.9826 H   0  0  0  0  0  0  0  0  0  0  0  0
  141.6958   72.7131  225.8151 H   0  0  0  0  0  0  0  0  0  0  0  0
  141.7312   71.3514  227.8813 H   0  0  0  0  0  0  0  0  0  0  0  0
  140.2268   69.3809  228.1205 H   0  0  0  0  0  0  0  0  0  0  0  0
  138.7153   68.8167  226.2698 H   0  0  0  0  0  0  0  0  0  0  0  0
  139.0008   69.4897  223.1476 H   0  0  0  0  0  0  0  0  0  0  0  0
  137.5716   69.5775  224.3109 H   0  0  0  0  0  0  0  0  0  0  0  0
  138.5340   71.8120  222.5880 H   0  0  0  0  0  0  0  0  0  0  0  0
  136.1502   72.5034  221.3717 H   0  0  0  0  0  0  0  0  0  0  0  0
  135.0212   72.9387  222.7374 H   0  0  0  0  0  0  0  0  0  0  0  0
  136.5840   74.6060  223.4860 H   0  0  0  0  0  0  0  0  0  0  0  0
  140.5248   74.1980  221.2813 H   0  0  0  0  0  0  0  0  0  0  0  0
  142.1067   76.1097  221.5333 H   0  0  0  0  0  0  0  0  0  0  0  0
  142.5176   78.3258  222.1821 H   0  0  0  0  0  0  0  0  0  0  0  0
  139.3460   80.7177  223.7890 H   0  0  0  0  0  0  0  0  0  0  0  0
  137.7848   78.8236  223.5357 H   0  0  0  0  0  0  0  0  0  0  0  0
  1  2  1  0
  2  3  1  0
  3  4  2  0
  4  5  1  0
  5  6  2  0
  6  7  1  0
  7  8  2  0
  8  9  1  0
  9 10  1  0
 10 11  1  0
 11 12  2  0
 11 13  1  0
 13 14  1  0
 14 15  1  0
 15 16  2  0
 15 17  1  0
 17 18  2  0
 18 19  1  0
 19 20  2  0
 20 21  1  0
 21 22  2  0
 22 23  1  0
 22 24  1  0
 24 25  2  0
 25 26  1  0
 26 27  2  0
  8  3  1  0
 27 17  1  0
 26 20  1  0
  1 28  1  0
  1 29  1  0
  1 30  1  0
  4 31  1  0
  5 32  1  0
  6 33  1  0
  7 34  1  0
  9 35  1  0
  9 36  1  0
 10 37  1  0
 13 38  1  0
 13 39  1  0
 14 40  1  0
 18 41  1  0
 19 42  1  0
 21 43  1  0
 24 44  1  0
 25 45  1  0
M  END
>  <smiles>  (49) 
COc1ccccc1CNC(=O)CNC(=O)c1ccc2cc(Cl)ccc2n1

>  <score_type>  (49) 
oracle

>  <origin>  (49) 
autodockgpu

>  <m_score__min__energy>  (49) 
-8.1300000000000008

>  <m_primary>  (49) 
energy

>  <rmsd>  (49) 
7.9600817102019485

>  <m_score__min__rmsd>  (49) 
7.9600817102019485

>  <meeko>  (49) 
{"free_energy": -6.76, "intermolecular_energy": -8.55, "internal_energy": -2.54, "cluster_size": 11, "cluster_id": 2, "rank_in_cluster": 8}

>  <energy>  (49) 
-6.31

>  <cluster_rmsd>  (49) 
1.56

>  <cluster>  (49) 
7

$$$$

     RDKit          3D

 45 47  0  0  0  0  0  0  0  0999 V2000
  137.6900   69.0040  225.1040 C   0  0  0  0  0  0  0  0  0  0  0  0
  139.1090   69.1140  225.0210 O   0  0  0  0  0  0  0  0  0  0  0  0
  139.7480   69.9210  225.9670 C   0  0  0  0  0  0  0  0  0  0  0  0
  139.6690   69.6450  227.3300 C   0  0  0  0  0  0  0  0  0  0  0  0
  140.3110   70.4600  228.2440 C   0  0  0  0  0  0  0  0  0  0  0  0
  141.0390   71.5550  227.8260 C   0  0  0  0  0  0  0  0  0  0  0  0
  141.1010   71.8050  226.4840 C   0  0  0  0  0  0  0  0  0  0  0  0
  140.4740   71.0170  225.5270 C   0  0  0  0  0  0  0  0  0  0  0  0
  140.5340   71.2810  224.0850 C   0  0  0  0  0  0  0  0  0  0  0  0
  139.2730   71.4200  223.4260 N   0  0  0  0  0  0  0  0  0  0  0  0
  138.9890   72.5060  222.5540 C   0  0  0  0  0  0  0  0  0  0  0  0
  139.8670   73.3860  222.3400 O   0  0  0  0  0  0  0  0  0  0  0  0
  137.6470   72.5460  221.9280 C   0  0  0  0  0  0  0  0  0  0  0  0
  136.6890   73.3170  222.6840 N   0  0  0  0  0  0  0  0  0  0  0  0
  136.1300   72.6670  223.8450 C   0  0  0  0  0  0  0  0  0  0  0  0
  136.5500   71.4990  224.0570 O   0  0  0  0  0  0  0  0  0  0  0  0
  135.1530   73.3390  224.6920 C   0  0  0  0  0  0  0  0  0  0  0  0
  134.2980   72.5220  225.4190 C   0  0  0  0  0  0  0  0  0  0  0  0
  133.3440   73.0800  226.2480 C   0  0  0  0  0  0  0  0  0  0  0  0
  133.2680   74.4520  226.3300 C   0  0  0  0  0  0  0  0  0  0  0  0
  132.3090   75.0040  227.1640 C   0  0  0  0  0  0  0  0  0  0  0  0
  132.1950   76.3710  227.2780 C   0  0  0  0  0  0  0  0  0  0  0  0
  130.9810   77.0680  228.3350 Cl  0  0  0  0  0  0  0  0  0  0  0  0
  133.0610   77.1610  226.5410 C   0  0  0  0  0  0  0  0  0  0  0  0
  134.0160   76.5930  225.7110 C   0  0  0  0  0  0  0  0  0  0  0  0
  134.1370   75.2240  225.5900 C   0  0  0  0  0  0  0  0  0  0  0  0
  135.0560   74.6760  224.7900 N   0  0  0  0  0  0  0  0  0  0  0  0
  137.3853   68.9804  226.1607 H   0  0  0  0  0  0  0  0  0  0  0  0
  137.2255   69.8688  224.6077 H   0  0  0  0  0  0  0  0  0  0  0  0
  137.3644   68.0779  224.6077 H   0  0  0  0  0  0  0  0  0  0  0  0
  139.0937   68.7754  227.6805 H   0  0  0  0  0  0  0  0  0  0  0  0
  140.2405   70.2325  229.3179 H   0  0  0  0  0  0  0  0  0  0  0  0
  141.5526   72.2054  228.5493 H   0  0  0  0  0  0  0  0  0  0  0  0
  141.6784   72.6770  226.1432 H   0  0  0  0  0  0  0  0  0  0  0  0
  141.0977   72.2137  223.9356 H   0  0  0  0  0  0  0  0  0  0  0  0
  141.0091   70.3953  223.6381 H   0  0  0  0  0  0  0  0  0  0  0  0
  138.5340   70.6960  223.5920 H   0  0  0  0  0  0  0  0  0  0  0  0
  137.7416   72.9912  220.9266 H   0  0  0  0  0  0  0  0  0  0  0  0
  137.2746   71.5117  221.8872 H   0  0  0  0  0  0  0  0  0  0  0  0
  136.3970   74.2960  222.4270 H   0  0  0  0  0  0  0  0  0  0  0  0
  134.3802   71.4283  225.3349 H   0  0  0  0  0  0  0  0  0  0  0  0
  132.6611   72.4428  226.8290 H   0  0  0  0  0  0  0  0  0  0  0  0
  131.6369   74.3479  227.7366 H   0  0  0  0  0  0  0  0  0  0  0  0
  132.9904   78.2562  226.6150 H   0  0  0  0  0  0  0  0  0  0  0  0
  134.6901   77.2467  225.1380 H   0  0  0  0  0  0  0  0  0  0  0  0
  1  2  1  0
  2  3  1  0
  3  4  2  0
  4  5  1  0
  5  6  2  0
  6  7  1  0
  7  8  2  0
  8  9  1  0
  9 10  1  0
 10 11  1  0
 11 12  2  0
 11 13  1  0
 13 14  1  0
 14 15  1  0
 15 16  2  0
 15 17  1  0
 17 18  2  0
 18 19  1  0
 19 20  2  0
 20 21  1  0
 21 22  2  0
 22 23  1  0
 22 24  1  0
 24 25  2  0
 25 26  1  0
 26 27  2  0
  8  3  1  0
 27 17  1  0
 26 20  1  0
  1 28  1  0
  1 29  1  0
  1 30  1  0
  4 31  1  0
  5 32  1  0
  6 33  1  0
  7 34  1  0
  9 35  1  0
  9 36  1  0
 10 37  1  0
 13 38  1  0
 13 39  1  0
 14 40  1  0
 18 41  1  0
 19 42  1  0
 21 43  1  0
 24 44  1  0
 25 45  1  0
M  END
>  <smiles>  (50) 
COc1ccccc1CNC(=O)CNC(=O)c1ccc2cc(Cl)ccc2n1

>  <score_type>  (50) 
oracle

>  <origin>  (50) 
autodockgpu

>  <m_score__min__energy>  (50) 
-8.1300000000000008

>  <m_primary>  (50) 
energy

>  <rmsd>  (50) 
7.6530214890225166

>  <m_score__min__rmsd>  (50) 
7.6530214890225166

>  <meeko>  (50) 
{"free_energy": -6.85, "intermolecular_energy": -8.64, "internal_energy": -2.39, "cluster_size": 7, "cluster_id": 4, "rank_in_cluster": 6}

>  <energy>  (50) 
-6.3

>  <cluster_rmsd>  (50) 
0.23

>  <cluster>  (50) 
7

$$$$
