
     RDKit          3D

 52 56  0  0  0  0  0  0  0  0999 V2000
  133.5890   69.8910  226.6340 O   0  0  0  0  0  0  0  0  0  0  0  0
  133.9560   71.0230  226.2170 C   0  0  0  0  0  0  0  0  0  0  0  0
  135.0670   71.1550  225.3260 N   0  0  0  0  0  0  0  0  0  0  0  0
  135.7480   69.9420  224.9220 C   0  0  0  0  0  0  0  0  0  0  0  0
  137.0160   70.2570  224.1890 C   0  0  0  0  0  0  0  0  0  0  0  0
  137.4670   71.4220  224.3500 O   0  0  0  0  0  0  0  0  0  0  0  0
  137.6460   69.2790  223.3710 N   0  0  0  0  0  0  0  0  0  0  0  0
  137.0130   68.6200  222.2460 C   0  0  0  0  0  0  0  0  0  0  0  0
  137.7050   67.2620  222.3460 C   0  0  0  0  0  0  0  0  0  0  0  0
  139.1030   67.5660  222.8170 C   0  0  0  0  0  0  0  0  0  0  0  0
  138.9960   68.8300  223.5730 C   0  0  2  0  0  0  0  0  0  0  0  0
  139.3310   68.6860  225.0170 C   0  0  0  0  0  0  0  0  0  0  0  0
  139.1640   67.6020  225.8520 C   0  0  0  0  0  0  0  0  0  0  0  0
  139.6220   67.9650  227.0770 N   0  0  0  0  0  0  0  0  0  0  0  0
  140.0650   69.2370  227.0270 C   0  0  0  0  0  0  0  0  0  0  0  0
  140.6170   70.0590  227.9910 C   0  0  0  0  0  0  0  0  0  0  0  0
  141.0000   71.3510  227.6900 C   0  0  0  0  0  0  0  0  0  0  0  0
  140.8220   71.8120  226.4020 C   0  0  0  0  0  0  0  0  0  0  0  0
  140.2700   71.0200  225.3980 C   0  0  0  0  0  0  0  0  0  0  0  0
  139.8990   69.7340  225.7380 C   0  0  0  0  0  0  0  0  0  0  0  0
  133.2470   72.2320  226.6440 C   0  0  0  0  0  0  0  0  0  0  0  0
  132.0050   72.1310  227.2220 C   0  0  0  0  0  0  0  0  0  0  0  0
  131.3810   73.3050  227.6060 C   0  0  0  0  0  0  0  0  0  0  0  0
  131.9620   74.5440  227.4230 C   0  0  0  0  0  0  0  0  0  0  0  0
  131.3370   75.7230  227.8070 C   0  0  0  0  0  0  0  0  0  0  0  0
  131.9670   76.9530  227.6020 C   0  0  0  0  0  0  0  0  0  0  0  0
  131.3900   78.1080  227.9610 F   0  0  0  0  0  0  0  0  0  0  0  0
  133.2130   76.9640  227.0140 C   0  0  0  0  0  0  0  0  0  0  0  0
  133.8560   75.7900  226.6210 C   0  0  0  0  0  0  0  0  0  0  0  0
  133.2000   74.5940  226.8420 C   0  0  0  0  0  0  0  0  0  0  0  0
  133.7910   73.4580  226.4780 N   0  0  0  0  0  0  0  0  0  0  0  0
  135.3740   72.0900  224.9800 H   0  0  0  0  0  0  0  0  0  0  0  0
  135.9876   69.3489  225.8169 H   0  0  0  0  0  0  0  0  0  0  0  0
  135.0862   69.3757  224.2502 H   0  0  0  0  0  0  0  0  0  0  0  0
  135.9236   68.5385  222.3750 H   0  0  0  0  0  0  0  0  0  0  0  0
  137.1145   69.1331  221.2783 H   0  0  0  0  0  0  0  0  0  0  0  0
  137.1857   66.6166  223.0698 H   0  0  0  0  0  0  0  0  0  0  0  0
  137.7018   66.7267  221.3850 H   0  0  0  0  0  0  0  0  0  0  0  0
  139.4742   66.7594  223.4663 H   0  0  0  0  0  0  0  0  0  0  0  0
  139.8084   67.6501  221.9771 H   0  0  0  0  0  0  0  0  0  0  0  0
  139.7313   69.5631  223.2099 H   0  0  0  0  0  0  0  0  0  0  0  0
  138.7390   66.6254  225.5770 H   0  0  0  0  0  0  0  0  0  0  0  0
  139.6390   67.3650  227.9470 H   0  0  0  0  0  0  0  0  0  0  0  0
  140.7534   69.6782  229.0139 H   0  0  0  0  0  0  0  0  0  0  0  0
  141.4385   72.0001  228.4622 H   0  0  0  0  0  0  0  0  0  0  0  0
  141.1266   72.8408  226.1595 H   0  0  0  0  0  0  0  0  0  0  0  0
  140.1351   71.4033  224.3758 H   0  0  0  0  0  0  0  0  0  0  0  0
  131.5243   71.1533  227.3740 H   0  0  0  0  0  0  0  0  0  0  0  0
  130.3869   73.2490  228.0736 H   0  0  0  0  0  0  0  0  0  0  0  0
  130.3419   75.6884  228.2745 H   0  0  0  0  0  0  0  0  0  0  0  0
  133.7163   77.9282  226.8494 H   0  0  0  0  0  0  0  0  0  0  0  0
  134.8505   75.8155  226.1516 H   0  0  0  0  0  0  0  0  0  0  0  0
  1  2  2  0
  2  3  1  0
  3  4  1  0
  4  5  1  0
  5  6  2  0
  5  7  1  0
  7  8  1  0
  8  9  1  0
  9 10  1  0
 10 11  1  0
 11 12  1  0
 12 13  2  0
 13 14  1  0
 14 15  1  0
 15 16  2  0
 16 17  1  0
 17 18  2  0
 18 19  1  0
 19 20  2  0
  2 21  1  0
 21 22  2  0
 22 23  1  0
 23 24  2  0
 24 25  1  0
 25 26  2  0
 26 27  1  0
 26 28  1  0
 28 29  2  0
 29 30  1  0
 30 31  2  0
 11  7  1  0
 20 12  1  0
 31 21  1  0
 20 15  1  0
 30 24  1  0
  3 32  1  0
  4 33  1  0
  4 34  1  0
  8 35  1  0
  8 36  1  0
  9 37  1  0
  9 38  1  0
 10 39  1  0
 10 40  1  0
 11 41  1  6
 13 42  1  0
 14 43  1  0
 16 44  1  0
 17 45  1  0
 18 46  1  0
 19 47  1  0
 22 48  1  0
 23 49  1  0
 25 50  1  0
 28 51  1  0
 29 52  1  0
M  END
>  <smiles>  (1) 
O=C(NCC(=O)N1CCC[C@@H]1c1c[nH]c2ccccc12)c1ccc2cc(F)ccc2n1

>  <score_type>  (1) 
oracle

>  <origin>  (1) 
autodockgpu

>  <m_score__min__energy>  (1) 
-9.3499999999999996

>  <m_primary>  (1) 
energy

>  <rmsd>  (1) 
8.928953959774802

>  <m_score__min__rmsd>  (1) 
8.928953959774802

>  <meeko>  (1) 
{"free_energy": -9.3, "intermolecular_energy": -10.79, "internal_energy": -2.11, "cluster_size": 11, "cluster_id": 2, "rank_in_cluster": 1}

>  <energy>  (1) 
-9.35

>  <cluster_rmsd>  (1) 
0.0

>  <cluster>  (1) 
1

$$$$

     RDKit          3D

 52 56  0  0  0  0  0  0  0  0999 V2000
  139.7850   71.4410  221.0430 O   0  0  0  0  0  0  0  0  0  0  0  0
  139.7040   71.9440  222.1960 C   0  0  0  0  0  0  0  0  0  0  0  0
  139.6070   73.3600  222.3770 N   0  0  0  0  0  0  0  0  0  0  0  0
  139.6060   74.1870  221.1880 C   0  0  0  0  0  0  0  0  0  0  0  0
  140.3000   75.4910  221.4410 C   0  0  0  0  0  0  0  0  0  0  0  0
  140.3480   75.8620  222.6430 O   0  0  0  0  0  0  0  0  0  0  0  0
  140.8580   76.2380  220.3660 N   0  0  0  0  0  0  0  0  0  0  0  0
  142.0120   75.8250  219.5940 C   0  0  0  0  0  0  0  0  0  0  0  0
  142.5990   77.2020  219.2880 C   0  0  0  0  0  0  0  0  0  0  0  0
  141.4070   78.1080  219.1160 C   0  0  0  0  0  0  0  0  0  0  0  0
  140.3310   77.5000  219.9240 C   0  0  2  0  0  0  0  0  0  0  0  0
  139.8890   78.3540  221.0600 C   0  0  0  0  0  0  0  0  0  0  0  0
  138.6120   78.6580  221.4820 C   0  0  0  0  0  0  0  0  0  0  0  0
  138.7310   79.4750  222.5610 N   0  0  0  0  0  0  0  0  0  0  0  0
  140.0370   79.6840  222.8180 C   0  0  0  0  0  0  0  0  0  0  0  0
  140.6760   80.4280  223.7920 C   0  0  0  0  0  0  0  0  0  0  0  0
  142.0550   80.4880  223.8510 C   0  0  0  0  0  0  0  0  0  0  0  0
  142.7890   79.7880  222.9150 C   0  0  0  0  0  0  0  0  0  0  0  0
  142.1880   79.0270  221.9170 C   0  0  0  0  0  0  0  0  0  0  0  0
  140.8090   78.9910  221.8900 C   0  0  0  0  0  0  0  0  0  0  0  0
  139.7080   71.0810  223.3800 C   0  0  0  0  0  0  0  0  0  0  0  0
  139.2010   69.8060  223.3020 C   0  0  0  0  0  0  0  0  0  0  0  0
  139.2300   69.0350  224.4500 C   0  0  0  0  0  0  0  0  0  0  0  0
  139.7430   69.5050  225.6430 C   0  0  0  0  0  0  0  0  0  0  0  0
  139.7730   68.7330  226.7960 C   0  0  0  0  0  0  0  0  0  0  0  0
  140.3030   69.2540  227.9800 C   0  0  0  0  0  0  0  0  0  0  0  0
  140.3460   68.5340  229.1080 F   0  0  0  0  0  0  0  0  0  0  0  0
  140.7910   70.5430  227.9700 C   0  0  0  0  0  0  0  0  0  0  0  0
  140.7690   71.3340  226.8210 C   0  0  0  0  0  0  0  0  0  0  0  0
  140.2370   70.7820  225.6720 C   0  0  0  0  0  0  0  0  0  0  0  0
  140.2030   71.5140  224.5600 N   0  0  0  0  0  0  0  0  0  0  0  0
  139.5410   73.7790  223.3300 H   0  0  0  0  0  0  0  0  0  0  0  0
  140.1259   73.6538  220.3784 H   0  0  0  0  0  0  0  0  0  0  0  0
  138.5632   74.3937  220.9054 H   0  0  0  0  0  0  0  0  0  0  0  0
  142.7023   75.2040  220.1838 H   0  0  0  0  0  0  0  0  0  0  0  0
  141.7950   75.1974  218.7171 H   0  0  0  0  0  0  0  0  0  0  0  0
  143.2291   77.5469  220.1211 H   0  0  0  0  0  0  0  0  0  0  0  0
  143.2382   77.1877  218.3929 H   0  0  0  0  0  0  0  0  0  0  0  0
  141.6371   79.1199  219.4809 H   0  0  0  0  0  0  0  0  0  0  0  0
  141.1182   78.2070  218.0592 H   0  0  0  0  0  0  0  0  0  0  0  0
  139.4169   77.3769  219.3246 H   0  0  0  0  0  0  0  0  0  0  0  0
  137.6732   78.3053  221.0300 H   0  0  0  0  0  0  0  0  0  0  0  0
  137.9400   79.8920  223.1250 H   0  0  0  0  0  0  0  0  0  0  0  0
  140.0776   80.9806  224.5313 H   0  0  0  0  0  0  0  0  0  0  0  0
  142.5579   81.0818  224.6285 H   0  0  0  0  0  0  0  0  0  0  0  0
  143.8872   79.8332  222.9595 H   0  0  0  0  0  0  0  0  0  0  0  0
  142.7887   78.4758  221.1786 H   0  0  0  0  0  0  0  0  0  0  0  0
  138.7875   69.4132  222.3614 H   0  0  0  0  0  0  0  0  0  0  0  0
  138.8302   68.0110  224.4114 H   0  0  0  0  0  0  0  0  0  0  0  0
  139.3779   67.7065  226.7781 H   0  0  0  0  0  0  0  0  0  0  0  0
  141.2109   70.9610  228.8968 H   0  0  0  0  0  0  0  0  0  0  0  0
  141.1616   72.3615  226.8298 H   0  0  0  0  0  0  0  0  0  0  0  0
  1  2  2  0
  2  3  1  0
  3  4  1  0
  4  5  1  0
  5  6  2  0
  5  7  1  0
  7  8  1  0
  8  9  1  0
  9 10  1  0
 10 11  1  0
 11 12  1  0
 12 13  2  0
 13 14  1  0
 14 15  1  0
 15 16  2  0
 16 17  1  0
 17 18  2  0
 18 19  1  0
 19 20  2  0
  2 21  1  0
 21 22  2  0
 22 23  1  0
 23 24  2  0
 24 25  1  0
 25 26  2  0
 26 27  1  0
 26 28  1  0
 28 29  2  0
 29 30  1  0
 30 31  2  0
 11  7  1  0
 20 12  1  0
 31 21  1  0
 20 15  1  0
 30 24  1  0
  3 32  1  0
  4 33  1  0
  4 34  1  0
  8 35  1  0
  8 36  1  0
  9 37  1  0
  9 38  1  0
 10 39  1  0
 10 40  1  0
 11 41  1  6
 13 42  1  0
 14 43  1  0
 16 44  1  0
 17 45  1  0
 18 46  1  0
 19 47  1  0
 22 48  1  0
 23 49  1  0
 25 50  1  0
 28 51  1  0
 29 52  1  0
M  END
>  <smiles>  (2) 
O=C(NCC(=O)N1CCC[C@@H]1c1c[nH]c2ccccc12)c1ccc2cc(F)ccc2n1

>  <score_type>  (2) 
oracle

>  <origin>  (2) 
autodockgpu

>  <m_score__min__energy>  (2) 
-9.3499999999999996

>  <m_primary>  (2) 
energy

>  <rmsd>  (2) 
1.7163134436294836

>  <m_score__min__rmsd>  (2) 
1.7163134436294836

>  <meeko>  (2) 
{"free_energy": -8.91, "intermolecular_energy": -10.4, "internal_energy": -1.88, "cluster_size": 28, "cluster_id": 1, "rank_in_cluster": 16}

>  <energy>  (2) 
-9.34

>  <cluster_rmsd>  (2) 
0.11

>  <cluster>  (2) 
1

$$$$

     RDKit          3D

 52 56  0  0  0  0  0  0  0  0999 V2000
  140.9230   71.9890  221.1900 O   0  0  0  0  0  0  0  0  0  0  0  0
  140.2320   72.3390  222.1850 C   0  0  0  0  0  0  0  0  0  0  0  0
  139.5280   73.5850  222.1900 N   0  0  0  0  0  0  0  0  0  0  0  0
  139.6400   74.4210  221.0130 C   0  0  0  0  0  0  0  0  0  0  0  0
  140.6270   75.5280  221.2320 C   0  0  0  0  0  0  0  0  0  0  0  0
  141.0490   75.6590  222.4110 O   0  0  0  0  0  0  0  0  0  0  0  0
  141.0380   76.3590  220.1550 N   0  0  0  0  0  0  0  0  0  0  0  0
  142.1720   76.0850  219.2940 C   0  0  0  0  0  0  0  0  0  0  0  0
  142.6050   77.5220  219.0050 C   0  0  0  0  0  0  0  0  0  0  0  0
  141.3240   78.3140  218.9450 C   0  0  0  0  0  0  0  0  0  0  0  0
  140.3670   77.5790  219.7960 C   0  0  2  0  0  0  0  0  0  0  0  0
  139.9240   78.3480  220.9900 C   0  0  0  0  0  0  0  0  0  0  0  0
  138.6480   78.5930  221.4510 C   0  0  0  0  0  0  0  0  0  0  0  0
  138.7660   79.3430  222.5770 N   0  0  0  0  0  0  0  0  0  0  0  0
  140.0700   79.5700  222.8250 C   0  0  0  0  0  0  0  0  0  0  0  0
  140.7080   80.2690  223.8330 C   0  0  0  0  0  0  0  0  0  0  0  0
  142.0860   80.3610  223.8730 C   0  0  0  0  0  0  0  0  0  0  0  0
  142.8200   79.7400  222.8840 C   0  0  0  0  0  0  0  0  0  0  0  0
  142.2210   79.0270  221.8490 C   0  0  0  0  0  0  0  0  0  0  0  0
  140.8420   78.9570  221.8440 C   0  0  0  0  0  0  0  0  0  0  0  0
  140.1380   71.4720  223.3620 C   0  0  0  0  0  0  0  0  0  0  0  0
  139.5470   70.2360  223.2570 C   0  0  0  0  0  0  0  0  0  0  0  0
  139.4860   69.4580  224.4000 C   0  0  0  0  0  0  0  0  0  0  0  0
  139.9900   69.8860  225.6130 C   0  0  0  0  0  0  0  0  0  0  0  0
  139.9290   69.1070  226.7600 C   0  0  0  0  0  0  0  0  0  0  0  0
  140.4530   69.5840  227.9640 C   0  0  0  0  0  0  0  0  0  0  0  0
  140.4090   68.8580  229.0880 F   0  0  0  0  0  0  0  0  0  0  0  0
  141.0280   70.8370  227.9800 C   0  0  0  0  0  0  0  0  0  0  0  0
  141.0990   71.6330  226.8380 C   0  0  0  0  0  0  0  0  0  0  0  0
  140.5690   71.1250  225.6670 C   0  0  0  0  0  0  0  0  0  0  0  0
  140.6220   71.8640  224.5600 N   0  0  0  0  0  0  0  0  0  0  0  0
  138.9560   73.8780  223.0110 H   0  0  0  0  0  0  0  0  0  0  0  0
  139.9728   73.8050  220.1646 H   0  0  0  0  0  0  0  0  0  0  0  0
  138.6557   74.8654  220.8040 H   0  0  0  0  0  0  0  0  0  0  0  0
  142.9560   75.5145  219.8135 H   0  0  0  0  0  0  0  0  0  0  0  0
  141.9561   75.4687  218.4088 H   0  0  0  0  0  0  0  0  0  0  0  0
  143.2545   77.8986  219.8089 H   0  0  0  0  0  0  0  0  0  0  0  0
  143.1810   77.5988  218.0710 H   0  0  0  0  0  0  0  0  0  0  0  0
  141.4819   79.3309  219.3335 H   0  0  0  0  0  0  0  0  0  0  0  0
  140.9565   78.4191  217.9135 H   0  0  0  0  0  0  0  0  0  0  0  0
  139.4309   77.3886  219.2507 H   0  0  0  0  0  0  0  0  0  0  0  0
  137.7101   78.2460  220.9927 H   0  0  0  0  0  0  0  0  0  0  0  0
  137.9750   79.7040  223.1790 H   0  0  0  0  0  0  0  0  0  0  0  0
  140.1094   80.7593  224.6149 H   0  0  0  0  0  0  0  0  0  0  0  0
  142.5878   80.9185  224.6776 H   0  0  0  0  0  0  0  0  0  0  0  0
  143.9173   79.8106  222.9141 H   0  0  0  0  0  0  0  0  0  0  0  0
  142.8218   78.5394  221.0672 H   0  0  0  0  0  0  0  0  0  0  0  0
  139.1378   69.8784  222.3006 H   0  0  0  0  0  0  0  0  0  0  0  0
  139.0196   68.4635  224.3405 H   0  0  0  0  0  0  0  0  0  0  0  0
  139.4662   68.1099  226.7209 H   0  0  0  0  0  0  0  0  0  0  0  0
  141.4437   71.2205  228.9235 H   0  0  0  0  0  0  0  0  0  0  0  0
  141.5608   72.6309  226.8677 H   0  0  0  0  0  0  0  0  0  0  0  0
  1  2  2  0
  2  3  1  0
  3  4  1  0
  4  5  1  0
  5  6  2  0
  5  7  1  0
  7  8  1  0
  8  9  1  0
  9 10  1  0
 10 11  1  0
 11 12  1  0
 12 13  2  0
 13 14  1  0
 14 15  1  0
 15 16  2  0
 16 17  1  0
 17 18  2  0
 18 19  1  0
 19 20  2  0
  2 21  1  0
 21 22  2  0
 22 23  1  0
 23 24  2  0
 24 25  1  0
 25 26  2  0
 26 27  1  0
 26 28  1  0
 28 29  2  0
 29 30  1  0
 30 31  2  0
 11  7  1  0
 20 12  1  0
 31 21  1  0
 20 15  1  0
 30 24  1  0
  3 32  1  0
  4 33  1  0
  4 34  1  0
  8 35  1  0
  8 36  1  0
  9 37  1  0
  9 38  1  0
 10 39  1  0
 10 40  1  0
 11 41  1  6
 13 42  1  0
 14 43  1  0
 16 44  1  0
 17 45  1  0
 18 46  1  0
 19 47  1  0
 22 48  1  0
 23 49  1  0
 25 50  1  0
 28 51  1  0
 29 52  1  0
M  END
>  <smiles>  (3) 
O=C(NCC(=O)N1CCC[C@@H]1c1c[nH]c2ccccc12)c1ccc2cc(F)ccc2n1

>  <score_type>  (3) 
oracle

>  <origin>  (3) 
autodockgpu

>  <m_score__min__energy>  (3) 
-9.3499999999999996

>  <m_primary>  (3) 
energy

>  <rmsd>  (3) 
1.8563953409680036

>  <m_score__min__rmsd>  (3) 
1.8563953409680036

>  <meeko>  (3) 
{"free_energy": -9.04, "intermolecular_energy": -10.53, "internal_energy": -1.55, "cluster_size": 28, "cluster_id": 1, "rank_in_cluster": 9}

>  <energy>  (3) 
-9.18

>  <cluster_rmsd>  (3) 
1.75

>  <cluster>  (3) 
1

$$$$

     RDKit          3D

 52 56  0  0  0  0  0  0  0  0999 V2000
  136.0440   72.3690  223.5200 O   0  0  0  0  0  0  0  0  0  0  0  0
  135.1600   72.3330  224.4180 C   0  0  0  0  0  0  0  0  0  0  0  0
  134.5770   71.0920  224.8270 N   0  0  0  0  0  0  0  0  0  0  0  0
  135.0420   69.8870  224.1730 C   0  0  0  0  0  0  0  0  0  0  0  0
  136.4790   69.6180  224.5020 C   0  0  0  0  0  0  0  0  0  0  0  0
  136.7350   69.4200  225.7190 O   0  0  0  0  0  0  0  0  0  0  0  0
  137.4670   69.5950  223.4790 N   0  0  0  0  0  0  0  0  0  0  0  0
  137.1940   69.3260  222.0810 C   0  0  0  0  0  0  0  0  0  0  0  0
  138.5010   68.6270  221.7130 C   0  0  0  0  0  0  0  0  0  0  0  0
  139.5620   69.3190  222.5300 C   0  0  0  0  0  0  0  0  0  0  0  0
  138.8630   69.8380  223.7230 C   0  0  2  0  0  0  0  0  0  0  0  0
  139.3270   69.2210  224.9960 C   0  0  0  0  0  0  0  0  0  0  0  0
  139.2890   67.9030  225.3960 C   0  0  0  0  0  0  0  0  0  0  0  0
  139.8310   67.8460  226.6390 N   0  0  0  0  0  0  0  0  0  0  0  0
  140.2010   69.0840  227.0200 C   0  0  0  0  0  0  0  0  0  0  0  0
  140.7910   69.5530  228.1790 C   0  0  0  0  0  0  0  0  0  0  0  0
  141.0800   70.8950  228.3370 C   0  0  0  0  0  0  0  0  0  0  0  0
  140.7680   71.7650  227.3110 C   0  0  0  0  0  0  0  0  0  0  0  0
  140.1740   71.3370  226.1280 C   0  0  0  0  0  0  0  0  0  0  0  0
  139.9000   69.9890  226.0070 C   0  0  0  0  0  0  0  0  0  0  0  0
  134.7090   73.5700  225.0610 C   0  0  0  0  0  0  0  0  0  0  0  0
  135.3410   74.7570  224.7820 C   0  0  0  0  0  0  0  0  0  0  0  0
  134.8750   75.8940  225.4180 C   0  0  0  0  0  0  0  0  0  0  0  0
  133.8160   75.8640  226.3050 C   0  0  0  0  0  0  0  0  0  0  0  0
  133.3470   77.0030  226.9430 C   0  0  0  0  0  0  0  0  0  0  0  0
  132.2720   76.9200  227.8320 C   0  0  0  0  0  0  0  0  0  0  0  0
  131.7960   78.0010  228.4640 F   0  0  0  0  0  0  0  0  0  0  0  0
  131.6960   75.6880  228.0550 C   0  0  0  0  0  0  0  0  0  0  0  0
  132.1540   74.5320  227.4220 C   0  0  0  0  0  0  0  0  0  0  0  0
  133.2190   74.6560  226.5500 C   0  0  0  0  0  0  0  0  0  0  0  0
  133.6770   73.5700  225.9320 N   0  0  0  0  0  0  0  0  0  0  0  0
  133.8450   71.0590  225.5700 H   0  0  0  0  0  0  0  0  0  0  0  0
  134.4307   69.0365  224.5091 H   0  0  0  0  0  0  0  0  0  0  0  0
  134.9507   70.0211  223.0850 H   0  0  0  0  0  0  0  0  0  0  0  0
  136.3228   68.6673  221.9501 H   0  0  0  0  0  0  0  0  0  0  0  0
  136.9394   70.2052  221.4708 H   0  0  0  0  0  0  0  0  0  0  0  0
  138.4525   67.5584  221.9692 H   0  0  0  0  0  0  0  0  0  0  0  0
  138.7091   68.6851  220.6344 H   0  0  0  0  0  0  0  0  0  0  0  0
  140.3471   68.6067  222.8236 H   0  0  0  0  0  0  0  0  0  0  0  0
  140.0551   70.1225  221.9633 H   0  0  0  0  0  0  0  0  0  0  0  0
  139.0759   70.9081  223.8631 H   0  0  0  0  0  0  0  0  0  0  0  0
  138.8935   67.0558  224.8165 H   0  0  0  0  0  0  0  0  0  0  0  0
  139.9530   66.9800  227.2340 H   0  0  0  0  0  0  0  0  0  0  0  0
  141.0339   68.8475  228.9872 H   0  0  0  0  0  0  0  0  0  0  0  0
  141.5491   71.2629  229.2614 H   0  0  0  0  0  0  0  0  0  0  0  0
  140.9972   72.8339  227.4334 H   0  0  0  0  0  0  0  0  0  0  0  0
  139.9322   72.0443  225.3210 H   0  0  0  0  0  0  0  0  0  0  0  0
  136.1860   74.8021  224.0792 H   0  0  0  0  0  0  0  0  0  0  0  0
  135.3653   76.8565  225.2100 H   0  0  0  0  0  0  0  0  0  0  0  0
  133.8232   77.9753  226.7484 H   0  0  0  0  0  0  0  0  0  0  0  0
  130.8493   75.6138  228.7533 H   0  0  0  0  0  0  0  0  0  0  0  0
  131.6837   73.5557  227.6105 H   0  0  0  0  0  0  0  0  0  0  0  0
  1  2  2  0
  2  3  1  0
  3  4  1  0
  4  5  1  0
  5  6  2  0
  5  7  1  0
  7  8  1  0
  8  9  1  0
  9 10  1  0
 10 11  1  0
 11 12  1  0
 12 13  2  0
 13 14  1  0
 14 15  1  0
 15 16  2  0
 16 17  1  0
 17 18  2  0
 18 19  1  0
 19 20  2  0
  2 21  1  0
 21 22  2  0
 22 23  1  0
 23 24  2  0
 24 25  1  0
 25 26  2  0
 26 27  1  0
 26 28  1  0
 28 29  2  0
 29 30  1  0
 30 31  2  0
 11  7  1  0
 20 12  1  0
 31 21  1  0
 20 15  1  0
 30 24  1  0
  3 32  1  0
  4 33  1  0
  4 34  1  0
  8 35  1  0
  8 36  1  0
  9 37  1  0
  9 38  1  0
 10 39  1  0
 10 40  1  0
 11 41  1  1
 13 42  1  0
 14 43  1  0
 16 44  1  0
 17 45  1  0
 18 46  1  0
 19 47  1  0
 22 48  1  0
 23 49  1  0
 25 50  1  0
 28 51  1  0
 29 52  1  0
M  END
>  <smiles>  (4) 
O=C(NCC(=O)N1CCC[C@@H]1c1c[nH]c2ccccc12)c1ccc2cc(F)ccc2n1

>  <score_type>  (4) 
oracle

>  <origin>  (4) 
autodockgpu

>  <m_score__min__energy>  (4) 
-9.3499999999999996

>  <m_primary>  (4) 
energy

>  <rmsd>  (4) 
8.384393944108096

>  <m_score__min__rmsd>  (4) 
8.384393944108096

>  <meeko>  (4) 
{"free_energy": -8.24, "intermolecular_energy": -9.73, "internal_energy": -1.68, "cluster_size": 11, "cluster_id": 2, "rank_in_cluster": 9}

>  <energy>  (4) 
-9.17

>  <cluster_rmsd>  (4) 
0.46

>  <cluster>  (4) 
1

$$$$

     RDKit          3D

 52 56  0  0  0  0  0  0  0  0999 V2000
  140.9770   72.0540  221.1690 O   0  0  0  0  0  0  0  0  0  0  0  0
  140.3530   72.4500  222.1900 C   0  0  0  0  0  0  0  0  0  0  0  0
  139.8010   73.7690  222.2510 N   0  0  0  0  0  0  0  0  0  0  0  0
  139.9870   74.6250  221.0970 C   0  0  0  0  0  0  0  0  0  0  0  0
  140.8500   75.8020  221.4350 C   0  0  0  0  0  0  0  0  0  0  0  0
  141.0420   76.0050  222.6630 O   0  0  0  0  0  0  0  0  0  0  0  0
  141.4020   76.6180  220.4090 N   0  0  0  0  0  0  0  0  0  0  0  0
  140.7790   77.8210  219.8940 C   0  0  0  0  0  0  0  0  0  0  0  0
  141.2620   77.7380  218.4470 C   0  0  0  0  0  0  0  0  0  0  0  0
  142.6450   77.1440  218.5270 C   0  0  0  0  0  0  0  0  0  0  0  0
  142.6540   76.3350  219.7620 C   0  0  2  0  0  0  0  0  0  0  0  0
  142.8420   74.8790  219.5140 C   0  0  0  0  0  0  0  0  0  0  0  0
  142.0020   73.9800  218.8940 C   0  0  0  0  0  0  0  0  0  0  0  0
  142.6210   72.7720  218.9150 N   0  0  0  0  0  0  0  0  0  0  0  0
  143.8150   72.8950  219.5280 C   0  0  0  0  0  0  0  0  0  0  0  0
  144.8090   71.9750  219.8010 C   0  0  0  0  0  0  0  0  0  0  0  0
  145.9670   72.3510  220.4550 C   0  0  0  0  0  0  0  0  0  0  0  0
  146.1140   73.6700  220.8330 C   0  0  0  0  0  0  0  0  0  0  0  0
  145.1390   74.6310  220.5800 C   0  0  0  0  0  0  0  0  0  0  0  0
  143.9970   74.2160  219.9250 C   0  0  0  0  0  0  0  0  0  0  0  0
  140.1820   71.5610  223.3420 C   0  0  0  0  0  0  0  0  0  0  0  0
  139.5280   70.3620  223.1920 C   0  0  0  0  0  0  0  0  0  0  0  0
  139.3940   69.5620  224.3130 C   0  0  0  0  0  0  0  0  0  0  0  0
  139.8890   69.9320  225.5480 C   0  0  0  0  0  0  0  0  0  0  0  0
  139.7560   69.1310  226.6740 C   0  0  0  0  0  0  0  0  0  0  0  0
  140.2750   69.5500  227.9020 C   0  0  0  0  0  0  0  0  0  0  0  0
  140.1630   68.8000  229.0060 F   0  0  0  0  0  0  0  0  0  0  0  0
  140.9160   70.7680  227.9630 C   0  0  0  0  0  0  0  0  0  0  0  0
  141.0600   71.5860  226.8430 C   0  0  0  0  0  0  0  0  0  0  0  0
  140.5330   71.1360  225.6480 C   0  0  0  0  0  0  0  0  0  0  0  0
  140.6550   71.8970  224.5620 N   0  0  0  0  0  0  0  0  0  0  0  0
  139.2860   74.1000  223.0950 H   0  0  0  0  0  0  0  0  0  0  0  0
  140.4663   74.0465  220.2935 H   0  0  0  0  0  0  0  0  0  0  0  0
  139.0029   74.9938  220.7721 H   0  0  0  0  0  0  0  0  0  0  0  0
  139.6821   77.7809  219.9659 H   0  0  0  0  0  0  0  0  0  0  0  0
  141.0325   78.7502  220.4253 H   0  0  0  0  0  0  0  0  0  0  0  0
  140.5978   77.0913  217.8549 H   0  0  0  0  0  0  0  0  0  0  0  0
  141.2646   78.7227  217.9567 H   0  0  0  0  0  0  0  0  0  0  0  0
  142.8427   76.5099  217.6502 H   0  0  0  0  0  0  0  0  0  0  0  0
  143.4235   77.9210  218.5415 H   0  0  0  0  0  0  0  0  0  0  0  0
  143.5133   76.6018  220.3948 H   0  0  0  0  0  0  0  0  0  0  0  0
  141.0143   74.2000  218.4626 H   0  0  0  0  0  0  0  0  0  0  0  0
  142.2470   71.8650  218.5210 H   0  0  0  0  0  0  0  0  0  0  0  0
  144.6767   70.9273  219.4931 H   0  0  0  0  0  0  0  0  0  0  0  0
  146.7550   71.6142  220.6698 H   0  0  0  0  0  0  0  0  0  0  0  0
  147.0348   73.9730  221.3530 H   0  0  0  0  0  0  0  0  0  0  0  0
  145.2732   75.6780  220.8894 H   0  0  0  0  0  0  0  0  0  0  0  0
  139.1259   70.0497  222.2169 H   0  0  0  0  0  0  0  0  0  0  0  0
  138.8747   68.5970  224.2171 H   0  0  0  0  0  0  0  0  0  0  0  0
  139.2399   68.1624  226.5993 H   0  0  0  0  0  0  0  0  0  0  0  0
  141.3272   71.1058  228.9257 H   0  0  0  0  0  0  0  0  0  0  0  0
  141.5752   72.5557  226.9087 H   0  0  0  0  0  0  0  0  0  0  0  0
  1  2  2  0
  2  3  1  0
  3  4  1  0
  4  5  1  0
  5  6  2  0
  5  7  1  0
  7  8  1  0
  8  9  1  0
  9 10  1  0
 10 11  1  0
 11 12  1  0
 12 13  2  0
 13 14  1  0
 14 15  1  0
 15 16  2  0
 16 17  1  0
 17 18  2  0
 18 19  1  0
 19 20  2  0
  2 21  1  0
 21 22  2  0
 22 23  1  0
 23 24  2  0
 24 25  1  0
 25 26  2  0
 26 27  1  0
 26 28  1  0
 28 29  2  0
 29 30  1  0
 30 31  2  0
 11  7  1  0
 20 12  1  0
 31 21  1  0
 20 15  1  0
 30 24  1  0
  3 32  1  0
  4 33  1  0
  4 34  1  0
  8 35  1  0
  8 36  1  0
  9 37  1  0
  9 38  1  0
 10 39  1  0
 10 40  1  0
 11 41  1  1
 13 42  1  0
 14 43  1  0
 16 44  1  0
 17 45  1  0
 18 46  1  0
 19 47  1  0
 22 48  1  0
 23 49  1  0
 25 50  1  0
 28 51  1  0
 29 52  1  0
M  END
>  <smiles>  (5) 
O=C(NCC(=O)N1CCC[C@@H]1c1c[nH]c2ccccc12)c1ccc2cc(F)ccc2n1

>  <score_type>  (5) 
oracle

>  <origin>  (5) 
autodockgpu

>  <m_score__min__energy>  (5) 
-9.3499999999999996

>  <m_primary>  (5) 
energy

>  <rmsd>  (5) 
1.9912591125939687

>  <m_score__min__rmsd>  (5) 
1.9912591125939687

>  <meeko>  (5) 
{"free_energy": -8.7, "intermolecular_energy": -10.19, "internal_energy": -1.86, "cluster_size": 7, "cluster_id": 3, "rank_in_cluster": 2}

>  <energy>  (5) 
-9.16

>  <cluster_rmsd>  (5) 
1.77

>  <cluster>  (5) 
1

$$$$

     RDKit          3D

 52 56  0  0  0  0  0  0  0  0999 V2000
  139.8940   71.3760  221.0490 O   0  0  0  0  0  0  0  0  0  0  0  0
  139.7740   71.8900  222.1950 C   0  0  0  0  0  0  0  0  0  0  0  0
  139.6560   73.3060  222.3560 N   0  0  0  0  0  0  0  0  0  0  0  0
  139.6790   74.1210  221.1590 C   0  0  0  0  0  0  0  0  0  0  0  0
  140.3080   75.4540  221.4290 C   0  0  0  0  0  0  0  0  0  0  0  0
  140.2820   75.8390  222.6270 O   0  0  0  0  0  0  0  0  0  0  0  0
  140.8890   76.2100  220.3730 N   0  0  0  0  0  0  0  0  0  0  0  0
  142.0540   75.8000  219.6150 C   0  0  0  0  0  0  0  0  0  0  0  0
  142.6540   77.1770  219.3370 C   0  0  0  0  0  0  0  0  0  0  0  0
  141.4710   78.0930  219.1560 C   0  0  0  0  0  0  0  0  0  0  0  0
  140.3780   77.4810  219.9380 C   0  0  2  0  0  0  0  0  0  0  0  0
  139.9210   78.3230  221.0770 C   0  0  0  0  0  0  0  0  0  0  0  0
  138.6390   78.6110  221.4950 C   0  0  0  0  0  0  0  0  0  0  0  0
  138.7440   79.4230  222.5780 N   0  0  0  0  0  0  0  0  0  0  0  0
  140.0460   79.6450  222.8430 C   0  0  0  0  0  0  0  0  0  0  0  0
  140.6730   80.3910  223.8230 C   0  0  0  0  0  0  0  0  0  0  0  0
  142.0510   80.4660  223.8890 C   0  0  0  0  0  0  0  0  0  0  0  0
  142.7970   79.7800  222.9520 C   0  0  0  0  0  0  0  0  0  0  0  0
  142.2090   79.0170  221.9470 C   0  0  0  0  0  0  0  0  0  0  0  0
  140.8300   78.9670  221.9140 C   0  0  0  0  0  0  0  0  0  0  0  0
  139.7540   71.0400  223.3870 C   0  0  0  0  0  0  0  0  0  0  0  0
  139.2090   69.7800  223.3240 C   0  0  0  0  0  0  0  0  0  0  0  0
  139.2170   69.0210  224.4800 C   0  0  0  0  0  0  0  0  0  0  0  0
  139.7460   69.4880  225.6670 C   0  0  0  0  0  0  0  0  0  0  0  0
  139.7540   68.7270  226.8280 C   0  0  0  0  0  0  0  0  0  0  0  0
  140.3010   69.2450  228.0050 C   0  0  0  0  0  0  0  0  0  0  0  0
  140.3250   68.5360  229.1420 F   0  0  0  0  0  0  0  0  0  0  0  0
  140.8270   70.5180  227.9810 C   0  0  0  0  0  0  0  0  0  0  0  0
  140.8270   71.2970  226.8240 C   0  0  0  0  0  0  0  0  0  0  0  0
  140.2780   70.7490  225.6810 C   0  0  0  0  0  0  0  0  0  0  0  0
  140.2640   71.4700  224.5620 N   0  0  0  0  0  0  0  0  0  0  0  0
  139.5570   73.7350  223.3020 H   0  0  0  0  0  0  0  0  0  0  0  0
  140.2574   73.6013  220.3810 H   0  0  0  0  0  0  0  0  0  0  0  0
  138.6434   74.2832  220.8255 H   0  0  0  0  0  0  0  0  0  0  0  0
  142.7305   75.1673  220.2083 H   0  0  0  0  0  0  0  0  0  0  0  0
  141.8482   75.1852  218.7264 H   0  0  0  0  0  0  0  0  0  0  0  0
  143.2716   77.5073  220.1852 H   0  0  0  0  0  0  0  0  0  0  0  0
  143.3082   77.1700  218.4527 H   0  0  0  0  0  0  0  0  0  0  0  0
  141.7010   79.0987  219.5377 H   0  0  0  0  0  0  0  0  0  0  0  0
  141.2009   78.2078  218.0959 H   0  0  0  0  0  0  0  0  0  0  0  0
  139.4741   77.3711  219.3209 H   0  0  0  0  0  0  0  0  0  0  0  0
  137.7062   78.2505  221.0369 H   0  0  0  0  0  0  0  0  0  0  0  0
  137.9470   79.8280  223.1410 H   0  0  0  0  0  0  0  0  0  0  0  0
  140.0653   80.9336  224.5621 H   0  0  0  0  0  0  0  0  0  0  0  0
  142.5437   81.0605  224.6725 H   0  0  0  0  0  0  0  0  0  0  0  0
  143.8944   79.8382  223.0011 H   0  0  0  0  0  0  0  0  0  0  0  0
  142.8189   78.4756  221.2088 H   0  0  0  0  0  0  0  0  0  0  0  0
  138.7821   69.3895  222.3884 H   0  0  0  0  0  0  0  0  0  0  0  0
  138.7866   68.0091  224.4530 H   0  0  0  0  0  0  0  0  0  0  0  0
  139.3283   67.7127  226.8215 H   0  0  0  0  0  0  0  0  0  0  0  0
  141.2605   70.9330  228.9029 H   0  0  0  0  0  0  0  0  0  0  0  0
  141.2496   72.3126  226.8218 H   0  0  0  0  0  0  0  0  0  0  0  0
  1  2  2  0
  2  3  1  0
  3  4  1  0
  4  5  1  0
  5  6  2  0
  5  7  1  0
  7  8  1  0
  8  9  1  0
  9 10  1  0
 10 11  1  0
 11 12  1  0
 12 13  2  0
 13 14  1  0
 14 15  1  0
 15 16  2  0
 16 17  1  0
 17 18  2  0
 18 19  1  0
 19 20  2  0
  2 21  1  0
 21 22  2  0
 22 23  1  0
 23 24  2  0
 24 25  1  0
 25 26  2  0
 26 27  1  0
 26 28  1  0
 28 29  2  0
 29 30  1  0
 30 31  2  0
 11  7  1  0
 20 12  1  0
 31 21  1  0
 20 15  1  0
 30 24  1  0
  3 32  1  0
  4 33  1  0
  4 34  1  0
  8 35  1  0
  8 36  1  0
  9 37  1  0
  9 38  1  0
 10 39  1  0
 10 40  1  0
 11 41  1  6
 13 42  1  0
 14 43  1  0
 16 44  1  0
 17 45  1  0
 18 46  1  0
 19 47  1  0
 22 48  1  0
 23 49  1  0
 25 50  1  0
 28 51  1  0
 29 52  1  0
M  END
>  <smiles>  (6) 
O=C(NCC(=O)N1CCC[C@@H]1c1c[nH]c2ccccc12)c1ccc2cc(F)ccc2n1

>  <score_type>  (6) 
oracle

>  <origin>  (6) 
autodockgpu

>  <m_score__min__energy>  (6) 
-9.3499999999999996

>  <m_primary>  (6) 
energy

>  <rmsd>  (6) 
1.73605788212031

>  <m_score__min__rmsd>  (6) 
1.73605788212031

>  <meeko>  (6) 
{"free_energy": -8.96, "intermolecular_energy": -10.45, "internal_energy": -1.85, "cluster_size": 28, "cluster_id": 1, "rank_in_cluster": 15}

>  <energy>  (6) 
-9.12

>  <cluster_rmsd>  (6) 
0.45

>  <cluster>  (6) 
1

$$$$

     RDKit          3D

 52 56  0  0  0  0  0  0  0  0999 V2000
  133.7930   69.9310  226.7730 O   0  0  0  0  0  0  0  0  0  0  0  0
  134.0730   71.0500  226.2640 C   0  0  0  0  0  0  0  0  0  0  0  0
  135.1010   71.1720  225.2760 N   0  0  0  0  0  0  0  0  0  0  0  0
  135.8010   69.9650  224.8870 C   0  0  0  0  0  0  0  0  0  0  0  0
  137.0640   70.2920  224.1490 C   0  0  0  0  0  0  0  0  0  0  0  0
  137.4930   71.4670  224.2910 O   0  0  0  0  0  0  0  0  0  0  0  0
  137.7110   69.3120  223.3460 N   0  0  0  0  0  0  0  0  0  0  0  0
  137.0940   68.6330  222.2240 C   0  0  0  0  0  0  0  0  0  0  0  0
  137.8010   67.2840  222.3430 C   0  0  0  0  0  0  0  0  0  0  0  0
  139.1920   67.6100  222.8220 C   0  0  0  0  0  0  0  0  0  0  0  0
  139.0650   68.8810  223.5630 C   0  0  2  0  0  0  0  0  0  0  0  0
  139.3900   68.7570  225.0100 C   0  0  0  0  0  0  0  0  0  0  0  0
  139.2100   67.6870  225.8610 C   0  0  0  0  0  0  0  0  0  0  0  0
  139.6640   68.0660  227.0830 N   0  0  0  0  0  0  0  0  0  0  0  0
  140.1180   69.3320  227.0160 C   0  0  0  0  0  0  0  0  0  0  0  0
  140.6710   70.1640  227.9700 C   0  0  0  0  0  0  0  0  0  0  0  0
  141.0670   71.4490  227.6510 C   0  0  0  0  0  0  0  0  0  0  0  0
  140.9000   71.8910  226.3550 C   0  0  0  0  0  0  0  0  0  0  0  0
  140.3460   71.0880  225.3610 C   0  0  0  0  0  0  0  0  0  0  0  0
  139.9630   69.8110  225.7180 C   0  0  0  0  0  0  0  0  0  0  0  0
  133.3480   72.2530  226.6780 C   0  0  0  0  0  0  0  0  0  0  0  0
  132.1110   72.1400  227.2650 C   0  0  0  0  0  0  0  0  0  0  0  0
  131.4700   73.3090  227.6370 C   0  0  0  0  0  0  0  0  0  0  0  0
  132.0310   74.5550  227.4360 C   0  0  0  0  0  0  0  0  0  0  0  0
  131.3900   75.7280  227.8080 C   0  0  0  0  0  0  0  0  0  0  0  0
  131.9990   76.9660  227.5830 C   0  0  0  0  0  0  0  0  0  0  0  0
  131.4070   78.1150  227.9310 F   0  0  0  0  0  0  0  0  0  0  0  0
  133.2420   76.9880  226.9880 C   0  0  0  0  0  0  0  0  0  0  0  0
  133.9010   75.8190  226.6070 C   0  0  0  0  0  0  0  0  0  0  0  0
  133.2650   74.6160  226.8470 C   0  0  0  0  0  0  0  0  0  0  0  0
  133.8710   73.4850  226.4940 N   0  0  0  0  0  0  0  0  0  0  0  0
  135.3360   72.0960  224.8530 H   0  0  0  0  0  0  0  0  0  0  0  0
  136.0506   69.3871  225.7891 H   0  0  0  0  0  0  0  0  0  0  0  0
  135.1482   69.3793  224.2231 H   0  0  0  0  0  0  0  0  0  0  0  0
  136.0048   68.5401  222.3464 H   0  0  0  0  0  0  0  0  0  0  0  0
  137.1966   69.1368  221.2515 H   0  0  0  0  0  0  0  0  0  0  0  0
  137.2837   66.6397  223.0692 H   0  0  0  0  0  0  0  0  0  0  0  0
  137.8115   66.7388  221.3877 H   0  0  0  0  0  0  0  0  0  0  0  0
  139.5673   66.8151  223.4833 H   0  0  0  0  0  0  0  0  0  0  0  0
  139.9028   67.6933  221.9866 H   0  0  0  0  0  0  0  0  0  0  0  0
  139.7948   69.6183  223.1973 H   0  0  0  0  0  0  0  0  0  0  0  0
  138.7792   66.7094  225.5988 H   0  0  0  0  0  0  0  0  0  0  0  0
  139.6710   67.4790  227.9620 H   0  0  0  0  0  0  0  0  0  0  0  0
  140.7981   69.7981  228.9995 H   0  0  0  0  0  0  0  0  0  0  0  0
  141.5067   72.1064  228.4155 H   0  0  0  0  0  0  0  0  0  0  0  0
  141.2153   72.9130  226.0977 H   0  0  0  0  0  0  0  0  0  0  0  0
  140.2188   71.4568  224.3325 H   0  0  0  0  0  0  0  0  0  0  0  0
  131.6471   71.1569  227.4331 H   0  0  0  0  0  0  0  0  0  0  0  0
  130.4788   73.2434  228.1094 H   0  0  0  0  0  0  0  0  0  0  0  0
  130.3984   75.6836  228.2820 H   0  0  0  0  0  0  0  0  0  0  0  0
  133.7296   77.9575  226.8080 H   0  0  0  0  0  0  0  0  0  0  0  0
  134.8925   75.8537  226.1320 H   0  0  0  0  0  0  0  0  0  0  0  0
  1  2  2  0
  2  3  1  0
  3  4  1  0
  4  5  1  0
  5  6  2  0
  5  7  1  0
  7  8  1  0
  8  9  1  0
  9 10  1  0
 10 11  1  0
 11 12  1  0
 12 13  2  0
 13 14  1  0
 14 15  1  0
 15 16  2  0
 16 17  1  0
 17 18  2  0
 18 19  1  0
 19 20  2  0
  2 21  1  0
 21 22  2  0
 22 23  1  0
 23 24  2  0
 24 25  1  0
 25 26  2  0
 26 27  1  0
 26 28  1  0
 28 29  2  0
 29 30  1  0
 30 31  2  0
 11  7  1  0
 20 12  1  0
 31 21  1  0
 20 15  1  0
 30 24  1  0
  3 32  1  0
  4 33  1  0
  4 34  1  0
  8 35  1  0
  8 36  1  0
  9 37  1  0
  9 38  1  0
 10 39  1  0
 10 40  1  0
 11 41  1  6
 13 42  1  0
 14 43  1  0
 16 44  1  0
 17 45  1  0
 18 46  1  0
 19 47  1  0
 22 48  1  0
 23 49  1  0
 25 50  1  0
 28 51  1  0
 29 52  1  0
M  END
>  <smiles>  (7) 
O=C(NCC(=O)N1CCC[C@@H]1c1c[nH]c2ccccc12)c1ccc2cc(F)ccc2n1

>  <score_type>  (7) 
oracle

>  <origin>  (7) 
autodockgpu

>  <m_score__min__energy>  (7) 
-9.3499999999999996

>  <m_primary>  (7) 
energy

>  <rmsd>  (7) 
8.886298245993693

>  <m_score__min__rmsd>  (7) 
8.886298245993693

>  <meeko>  (7) 
{"free_energy": -9.22, "intermolecular_energy": -10.71, "internal_energy": -2.06, "cluster_size": 11, "cluster_id": 2, "rank_in_cluster": 3}

>  <energy>  (7) 
-9.12

>  <cluster_rmsd>  (7) 
0.33

>  <cluster>  (7) 
1

$$$$

     RDKit          3D

 52 56  0  0  0  0  0  0  0  0999 V2000
  141.4160   72.3760  221.5020 O   0  0  0  0  0  0  0  0  0  0  0  0
  140.5390   72.6180  222.3750 C   0  0  0  0  0  0  0  0  0  0  0  0
  139.7710   73.8240  222.3330 N   0  0  0  0  0  0  0  0  0  0  0  0
  140.0400   74.7510  221.2520 C   0  0  0  0  0  0  0  0  0  0  0  0
  138.9870   75.8140  221.1830 C   0  0  0  0  0  0  0  0  0  0  0  0
  138.0870   75.7520  222.0610 O   0  0  0  0  0  0  0  0  0  0  0  0
  139.0320   76.8170  220.1750 N   0  0  0  0  0  0  0  0  0  0  0  0
  139.5550   76.6140  218.8390 C   0  0  0  0  0  0  0  0  0  0  0  0
  140.1110   78.0140  218.5860 C   0  0  0  0  0  0  0  0  0  0  0  0
  139.1540   78.9490  219.2790 C   0  0  0  0  0  0  0  0  0  0  0  0
  138.5570   78.1590  220.3740 C   0  0  2  0  0  0  0  0  0  0  0  0
  138.8900   78.6780  221.7280 C   0  0  0  0  0  0  0  0  0  0  0  0
  138.0570   78.9460  222.7940 C   0  0  0  0  0  0  0  0  0  0  0  0
  138.8370   79.4030  223.8070 N   0  0  0  0  0  0  0  0  0  0  0  0
  140.1220   79.4250  223.4040 C   0  0  0  0  0  0  0  0  0  0  0  0
  141.2840   79.8020  224.0500 C   0  0  0  0  0  0  0  0  0  0  0  0
  142.5080   79.7350  223.4120 C   0  0  0  0  0  0  0  0  0  0  0  0
  142.5510   79.2810  222.1100 C   0  0  0  0  0  0  0  0  0  0  0  0
  141.4070   78.8920  221.4190 C   0  0  0  0  0  0  0  0  0  0  0  0
  140.2030   78.9740  222.0900 C   0  0  0  0  0  0  0  0  0  0  0  0
  140.2900   71.6620  223.4570 C   0  0  0  0  0  0  0  0  0  0  0  0
  139.6080   70.4970  223.2000 C   0  0  0  0  0  0  0  0  0  0  0  0
  139.4010   69.6300  224.2580 C   0  0  0  0  0  0  0  0  0  0  0  0
  139.8520   69.9020  225.5350 C   0  0  0  0  0  0  0  0  0  0  0  0
  139.6450   69.0340  226.5980 C   0  0  0  0  0  0  0  0  0  0  0  0
  140.1210   69.3550  227.8720 C   0  0  0  0  0  0  0  0  0  0  0  0
  139.9370   68.5380  228.9180 F   0  0  0  0  0  0  0  0  0  0  0  0
  140.7950   70.5450  228.0420 C   0  0  0  0  0  0  0  0  0  0  0  0
  141.0120   71.4290  226.9860 C   0  0  0  0  0  0  0  0  0  0  0  0
  140.5260   71.0760  225.7420 C   0  0  0  0  0  0  0  0  0  0  0  0
  140.7190   71.9010  224.7150 N   0  0  0  0  0  0  0  0  0  0  0  0
  139.0450   74.0280  223.0540 H   0  0  0  0  0  0  0  0  0  0  0  0
  141.0188   75.2243  221.4190 H   0  0  0  0  0  0  0  0  0  0  0  0
  140.0387   74.1938  220.3036 H   0  0  0  0  0  0  0  0  0  0  0  0
  140.3430   75.8468  218.8165 H   0  0  0  0  0  0  0  0  0  0  0  0
  138.8290   76.2515  218.0963 H   0  0  0  0  0  0  0  0  0  0  0  0
  141.1210   78.1108  219.0110 H   0  0  0  0  0  0  0  0  0  0  0  0
  140.1970   78.2348  217.5118 H   0  0  0  0  0  0  0  0  0  0  0  0
  139.6912   79.8203  219.6818 H   0  0  0  0  0  0  0  0  0  0  0  0
  138.3890   79.3358  218.5897 H   0  0  0  0  0  0  0  0  0  0  0  0
  137.4590   78.2159  220.3397 H   0  0  0  0  0  0  0  0  0  0  0  0
  136.9652   78.8142  222.8189 H   0  0  0  0  0  0  0  0  0  0  0  0
  138.5110   79.6990  224.7680 H   0  0  0  0  0  0  0  0  0  0  0  0
  141.2339   80.1611  225.0885 H   0  0  0  0  0  0  0  0  0  0  0  0
  143.4291   80.0375  223.9317 H   0  0  0  0  0  0  0  0  0  0  0  0
  143.5239   79.2244  221.5998 H   0  0  0  0  0  0  0  0  0  0  0  0
  141.4600   78.5337  220.3803 H   0  0  0  0  0  0  0  0  0  0  0  0
  139.2402   70.2625  222.1902 H   0  0  0  0  0  0  0  0  0  0  0  0
  138.8581   68.6908  224.0759 H   0  0  0  0  0  0  0  0  0  0  0  0
  139.1042   68.0898  226.4370 H   0  0  0  0  0  0  0  0  0  0  0  0
  141.1734   70.8053  229.0415 H   0  0  0  0  0  0  0  0  0  0  0  0
  141.5518   72.3753  227.1382 H   0  0  0  0  0  0  0  0  0  0  0  0
  1  2  2  0
  2  3  1  0
  3  4  1  0
  4  5  1  0
  5  6  2  0
  5  7  1  0
  7  8  1  0
  8  9  1  0
  9 10  1  0
 10 11  1  0
 11 12  1  0
 12 13  2  0
 13 14  1  0
 14 15  1  0
 15 16  2  0
 16 17  1  0
 17 18  2  0
 18 19  1  0
 19 20  2  0
  2 21  1  0
 21 22  2  0
 22 23  1  0
 23 24  2  0
 24 25  1  0
 25 26  2  0
 26 27  1  0
 26 28  1  0
 28 29  2  0
 29 30  1  0
 30 31  2  0
 11  7  1  0
 20 12  1  0
 31 21  1  0
 20 15  1  0
 30 24  1  0
  3 32  1  0
  4 33  1  0
  4 34  1  0
  8 35  1  0
  8 36  1  0
  9 37  1  0
  9 38  1  0
 10 39  1  0
 10 40  1  0
 11 41  1  6
 13 42  1  0
 14 43  1  0
 16 44  1  0
 17 45  1  0
 18 46  1  0
 19 47  1  0
 22 48  1  0
 23 49  1  0
 25 50  1  0
 28 51  1  0
 29 52  1  0
M  END
>  <smiles>  (8) 
O=C(NCC(=O)N1CCC[C@@H]1c1c[nH]c2ccccc12)c1ccc2cc(F)ccc2n1

>  <score_type>  (8) 
oracle

>  <origin>  (8) 
autodockgpu

>  <m_score__min__energy>  (8) 
-9.3499999999999996

>  <m_primary>  (8) 
energy

>  <rmsd>  (8) 
2.0582715405331715

>  <m_score__min__rmsd>  (8) 
2.0582715405331715

>  <meeko>  (8) 
{"free_energy": -7.99, "intermolecular_energy": -9.48, "internal_energy": -1.93, "cluster_size": 28, "cluster_id": 1, "rank_in_cluster": 28}

>  <energy>  (8) 
-9.09

>  <cluster_rmsd>  (8) 
0.38

>  <cluster>  (8) 
1

$$$$

     RDKit          3D

 52 56  0  0  0  0  0  0  0  0999 V2000
  139.8760   71.0680  220.9660 O   0  0  0  0  0  0  0  0  0  0  0  0
  140.1780   71.5820  222.0780 C   0  0  0  0  0  0  0  0  0  0  0  0
  140.6970   72.9130  222.1560 N   0  0  0  0  0  0  0  0  0  0  0  0
  140.8590   73.6420  220.9150 C   0  0  0  0  0  0  0  0  0  0  0  0
  140.9060   75.1190  221.1630 C   0  0  0  0  0  0  0  0  0  0  0  0
  140.6520   75.4860  222.3410 O   0  0  0  0  0  0  0  0  0  0  0  0
  141.2200   76.0230  220.1110 N   0  0  0  0  0  0  0  0  0  0  0  0
  142.3520   75.8790  219.2170 C   0  0  0  0  0  0  0  0  0  0  0  0
  142.6560   77.3570  218.9770 C   0  0  0  0  0  0  0  0  0  0  0  0
  141.3120   78.0400  218.9760 C   0  0  0  0  0  0  0  0  0  0  0  0
  140.4410   77.1940  219.8160 C   0  0  2  0  0  0  0  0  0  0  0  0
  139.9640   77.8780  221.0490 C   0  0  0  0  0  0  0  0  0  0  0  0
  138.7020   77.9060  221.6030 C   0  0  0  0  0  0  0  0  0  0  0  0
  138.7740   78.6640  222.7270 N   0  0  0  0  0  0  0  0  0  0  0  0
  140.0380   79.1030  222.8860 C   0  0  0  0  0  0  0  0  0  0  0  0
  140.6220   79.8960  223.8560 C   0  0  0  0  0  0  0  0  0  0  0  0
  141.9650   80.2150  223.8000 C   0  0  0  0  0  0  0  0  0  0  0  0
  142.7190   79.7260  222.7530 C   0  0  0  0  0  0  0  0  0  0  0  0
  142.1730   78.9250  221.7530 C   0  0  0  0  0  0  0  0  0  0  0  0
  140.8280   78.6280  221.8440 C   0  0  0  0  0  0  0  0  0  0  0  0
  140.0040   70.8190  223.3160 C   0  0  0  0  0  0  0  0  0  0  0  0
  139.3340   69.6190  223.2940 C   0  0  0  0  0  0  0  0  0  0  0  0
  139.1980   68.9410  224.4920 C   0  0  0  0  0  0  0  0  0  0  0  0
  139.7060   69.4300  225.6800 C   0  0  0  0  0  0  0  0  0  0  0  0
  139.5700   68.7510  226.8820 C   0  0  0  0  0  0  0  0  0  0  0  0
  140.1010   69.2870  228.0580 C   0  0  0  0  0  0  0  0  0  0  0  0
  139.9870   68.6570  229.2340 F   0  0  0  0  0  0  0  0  0  0  0  0
  140.7580   70.4970  227.9900 C   0  0  0  0  0  0  0  0  0  0  0  0
  140.9040   71.1940  226.7910 C   0  0  0  0  0  0  0  0  0  0  0  0
  140.3650   70.6300  225.6510 C   0  0  0  0  0  0  0  0  0  0  0  0
  140.4890   71.2730  224.4920 N   0  0  0  0  0  0  0  0  0  0  0  0
  140.9490   73.3410  223.0740 H   0  0  0  0  0  0  0  0  0  0  0  0
  141.7966   73.3280  220.4329 H   0  0  0  0  0  0  0  0  0  0  0  0
  139.9995   73.4227  220.2645 H   0  0  0  0  0  0  0  0  0  0  0  0
  143.1931   75.3575  219.6971 H   0  0  0  0  0  0  0  0  0  0  0  0
  142.1676   75.2809  218.3125 H   0  0  0  0  0  0  0  0  0  0  0  0
  143.2912   77.7561  219.7815 H   0  0  0  0  0  0  0  0  0  0  0  0
  143.2004   77.5178  218.0348 H   0  0  0  0  0  0  0  0  0  0  0  0
  141.3937   79.0507  219.4024 H   0  0  0  0  0  0  0  0  0  0  0  0
  140.9121   78.1541  217.9576 H   0  0  0  0  0  0  0  0  0  0  0  0
  139.5113   76.9447  219.2836 H   0  0  0  0  0  0  0  0  0  0  0  0
  137.8045   77.4074  221.2082 H   0  0  0  0  0  0  0  0  0  0  0  0
  137.9800   78.8880  223.3880 H   0  0  0  0  0  0  0  0  0  0  0  0
  140.0083   80.2787  224.6848 H   0  0  0  0  0  0  0  0  0  0  0  0
  142.4242   80.8464  224.5749 H   0  0  0  0  0  0  0  0  0  0  0  0
  143.7888   79.9776  222.7065 H   0  0  0  0  0  0  0  0  0  0  0  0
  142.7885   78.5446  220.9245 H   0  0  0  0  0  0  0  0  0  0  0  0
  138.9214   69.2130  222.3586 H   0  0  0  0  0  0  0  0  0  0  0  0
  138.6663   67.9780  224.4990 H   0  0  0  0  0  0  0  0  0  0  0  0
  139.0419   67.7865  226.9094 H   0  0  0  0  0  0  0  0  0  0  0  0
  141.1804   70.9263  228.9105 H   0  0  0  0  0  0  0  0  0  0  0  0
  141.4301   72.1593  226.7543 H   0  0  0  0  0  0  0  0  0  0  0  0
  1  2  2  0
  2  3  1  0
  3  4  1  0
  4  5  1  0
  5  6  2  0
  5  7  1  0
  7  8  1  0
  8  9  1  0
  9 10  1  0
 10 11  1  0
 11 12  1  0
 12 13  2  0
 13 14  1  0
 14 15  1  0
 15 16  2  0
 16 17  1  0
 17 18  2  0
 18 19  1  0
 19 20  2  0
  2 21  1  0
 21 22  2  0
 22 23  1  0
 23 24  2  0
 24 25  1  0
 25 26  2  0
 26 27  1  0
 26 28  1  0
 28 29  2  0
 29 30  1  0
 30 31  2  0
 11  7  1  0
 20 12  1  0
 31 21  1  0
 20 15  1  0
 30 24  1  0
  3 32  1  0
  4 33  1  0
  4 34  1  0
  8 35  1  0
  8 36  1  0
  9 37  1  0
  9 38  1  0
 10 39  1  0
 10 40  1  0
 11 41  1  6
 13 42  1  0
 14 43  1  0
 16 44  1  0
 17 45  1  0
 18 46  1  0
 19 47  1  0
 22 48  1  0
 23 49  1  0
 25 50  1  0
 28 51  1  0
 29 52  1  0
M  END
>  <smiles>  (9) 
O=C(NCC(=O)N1CCC[C@@H]1c1c[nH]c2ccccc12)c1ccc2cc(F)ccc2n1

>  <score_type>  (9) 
oracle

>  <origin>  (9) 
autodockgpu

>  <m_score__min__energy>  (9) 
-9.3499999999999996

>  <m_primary>  (9) 
energy

>  <rmsd>  (9) 
1.9374082691354644

>  <m_score__min__rmsd>  (9) 
1.9374082691354644

>  <meeko>  (9) 
{"free_energy": -8.38, "intermolecular_energy": -9.87, "internal_energy": -1.93, "cluster_size": 28, "cluster_id": 1, "rank_in_cluster": 25}

>  <energy>  (9) 
-9.04

>  <cluster_rmsd>  (9) 
0.44

>  <cluster>  (9) 
1

$$$$

     RDKit          3D

 52 56  0  0  0  0  0  0  0  0999 V2000
  138.3110   72.3540  222.0490 O   0  0  0  0  0  0  0  0  0  0  0  0
  139.4610   72.0540  222.4710 C   0  0  0  0  0  0  0  0  0  0  0  0
  140.6340   72.6020  221.8610 N   0  0  0  0  0  0  0  0  0  0  0  0
  140.4490   73.5090  220.7480 C   0  0  0  0  0  0  0  0  0  0  0  0
  140.8590   74.9020  221.1170 C   0  0  0  0  0  0  0  0  0  0  0  0
  140.7520   75.2000  222.3350 O   0  0  0  0  0  0  0  0  0  0  0  0
  141.3340   75.8060  220.1270 N   0  0  0  0  0  0  0  0  0  0  0  0
  142.5500   75.6170  219.3600 C   0  0  0  0  0  0  0  0  0  0  0  0
  142.9530   77.0810  219.1890 C   0  0  0  0  0  0  0  0  0  0  0  0
  141.6550   77.8340  219.0560 C   0  0  0  0  0  0  0  0  0  0  0  0
  140.6540   77.0220  219.7750 C   0  0  2  0  0  0  0  0  0  0  0  0
  140.0780   77.7090  220.9640 C   0  0  0  0  0  0  0  0  0  0  0  0
  138.7760   77.7370  221.4140 C   0  0  0  0  0  0  0  0  0  0  0  0
  138.7570   78.4980  222.5380 N   0  0  0  0  0  0  0  0  0  0  0  0
  140.0030   78.9400  222.7970 C   0  0  0  0  0  0  0  0  0  0  0  0
  140.5070   79.7360  223.8090 C   0  0  0  0  0  0  0  0  0  0  0  0
  141.8500   80.0570  223.8600 C   0  0  0  0  0  0  0  0  0  0  0  0
  142.6850   79.5660  222.8780 C   0  0  0  0  0  0  0  0  0  0  0  0
  142.2220   78.7610  221.8400 C   0  0  0  0  0  0  0  0  0  0  0  0
  140.8750   78.4630  221.8230 C   0  0  0  0  0  0  0  0  0  0  0  0
  139.6170   71.1330  223.5990 C   0  0  0  0  0  0  0  0  0  0  0  0
  139.1940   69.8310  223.4840 C   0  0  0  0  0  0  0  0  0  0  0  0
  139.3650   69.0040  224.5800 C   0  0  0  0  0  0  0  0  0  0  0  0
  139.9360   69.4470  225.7580 C   0  0  0  0  0  0  0  0  0  0  0  0
  140.1090   68.6190  226.8580 C   0  0  0  0  0  0  0  0  0  0  0  0
  140.6910   69.1140  228.0280 C   0  0  0  0  0  0  0  0  0  0  0  0
  140.8710   68.3410  229.1060 F   0  0  0  0  0  0  0  0  0  0  0  0
  141.0870   70.4340  228.0570 C   0  0  0  0  0  0  0  0  0  0  0  0
  140.9220   71.2810  226.9610 C   0  0  0  0  0  0  0  0  0  0  0  0
  140.3410   70.7530  225.8240 C   0  0  0  0  0  0  0  0  0  0  0  0
  140.1710   71.5380  224.7620 N   0  0  0  0  0  0  0  0  0  0  0  0
  141.5870   72.3550  222.2070 H   0  0  0  0  0  0  0  0  0  0  0  0
  141.0601   73.1669  219.8997 H   0  0  0  0  0  0  0  0  0  0  0  0
  139.3831   73.5177  220.4763 H   0  0  0  0  0  0  0  0  0  0  0  0
  143.3049   75.0436  219.9180 H   0  0  0  0  0  0  0  0  0  0  0  0
  142.4375   75.0447  218.4274 H   0  0  0  0  0  0  0  0  0  0  0  0
  143.5144   77.4319  220.0675 H   0  0  0  0  0  0  0  0  0  0  0  0
  143.6058   77.2289  218.3161 H   0  0  0  0  0  0  0  0  0  0  0  0
  141.7405   78.8314  219.5119 H   0  0  0  0  0  0  0  0  0  0  0  0
  141.3772   77.9864  218.0026 H   0  0  0  0  0  0  0  0  0  0  0  0
  139.7778   76.8326  219.1375 H   0  0  0  0  0  0  0  0  0  0  0  0
  137.9136   77.2365  220.9495 H   0  0  0  0  0  0  0  0  0  0  0  0
  137.9120   78.7230  223.1330 H   0  0  0  0  0  0  0  0  0  0  0  0
  139.8286   80.1195  224.5853 H   0  0  0  0  0  0  0  0  0  0  0  0
  142.2452   80.6912  224.6673 H   0  0  0  0  0  0  0  0  0  0  0  0
  143.7548   79.8193  222.9160 H   0  0  0  0  0  0  0  0  0  0  0  0
  142.9026   78.3784  221.0652 H   0  0  0  0  0  0  0  0  0  0  0  0
  138.7364   69.4598  222.5551 H   0  0  0  0  0  0  0  0  0  0  0  0
  139.0348   67.9570  224.5113 H   0  0  0  0  0  0  0  0  0  0  0  0
  139.7866   67.5685  226.8088 H   0  0  0  0  0  0  0  0  0  0  0  0
  141.5476   70.8320  228.9732 H   0  0  0  0  0  0  0  0  0  0  0  0
  141.2431   72.3323  227.0005 H   0  0  0  0  0  0  0  0  0  0  0  0
  1  2  2  0
  2  3  1  0
  3  4  1  0
  4  5  1  0
  5  6  2  0
  5  7  1  0
  7  8  1  0
  8  9  1  0
  9 10  1  0
 10 11  1  0
 11 12  1  0
 12 13  2  0
 13 14  1  0
 14 15  1  0
 15 16  2  0
 16 17  1  0
 17 18  2  0
 18 19  1  0
 19 20  2  0
  2 21  1  0
 21 22  2  0
 22 23  1  0
 23 24  2  0
 24 25  1  0
 25 26  2  0
 26 27  1  0
 26 28  1  0
 28 29  2  0
 29 30  1  0
 30 31  2  0
 11  7  1  0
 20 12  1  0
 31 21  1  0
 20 15  1  0
 30 24  1  0
  3 32  1  0
  4 33  1  0
  4 34  1  0
  8 35  1  0
  8 36  1  0
  9 37  1  0
  9 38  1  0
 10 39  1  0
 10 40  1  0
 11 41  1  6
 13 42  1  0
 14 43  1  0
 16 44  1  0
 17 45  1  0
 18 46  1  0
 19 47  1  0
 22 48  1  0
 23 49  1  0
 25 50  1  0
 28 51  1  0
 29 52  1  0
M  END
>  <smiles>  (10) 
O=C(NCC(=O)N1CCC[C@@H]1c1c[nH]c2ccccc12)c1ccc2cc(F)ccc2n1

>  <score_type>  (10) 
oracle

>  <origin>  (10) 
autodockgpu

>  <m_score__min__energy>  (10) 
-9.3499999999999996

>  <m_primary>  (10) 
energy

>  <rmsd>  (10) 
1.9565194769272918

>  <m_score__min__rmsd>  (10) 
1.9565194769272918

>  <meeko>  (10) 
{"free_energy": -8.62, "intermolecular_energy": -10.11, "internal_energy": -1.34, "cluster_size": 28, "cluster_id": 1, "rank_in_cluster": 23}

>  <energy>  (10) 
-9.04

>  <cluster_rmsd>  (10) 
0.53

>  <cluster>  (10) 
1

$$$$

     RDKit          3D

 52 56  0  0  0  0  0  0  0  0999 V2000
  140.1220   71.6120  220.9320 O   0  0  0  0  0  0  0  0  0  0  0  0
  139.9170   72.1310  222.0620 C   0  0  0  0  0  0  0  0  0  0  0  0
  139.7430   73.5440  222.2020 N   0  0  0  0  0  0  0  0  0  0  0  0
  139.8110   74.3490  221.0000 C   0  0  0  0  0  0  0  0  0  0  0  0
  140.6010   75.6000  221.2350 C   0  0  0  0  0  0  0  0  0  0  0  0
  140.8660   75.8620  222.4370 O   0  0  0  0  0  0  0  0  0  0  0  0
  141.0110   76.4170  220.1450 N   0  0  0  0  0  0  0  0  0  0  0  0
  142.1370   76.1250  219.2790 C   0  0  0  0  0  0  0  0  0  0  0  0
  142.5760   77.5550  218.9720 C   0  0  0  0  0  0  0  0  0  0  0  0
  141.3010   78.3560  218.9120 C   0  0  0  0  0  0  0  0  0  0  0  0
  140.3450   77.6370  219.7770 C   0  0  2  0  0  0  0  0  0  0  0  0
  139.9160   78.4220  220.9670 C   0  0  0  0  0  0  0  0  0  0  0  0
  138.6450   78.6980  221.4230 C   0  0  0  0  0  0  0  0  0  0  0  0
  138.7760   79.4510  222.5440 N   0  0  0  0  0  0  0  0  0  0  0  0
  140.0840   79.6500  222.7960 C   0  0  0  0  0  0  0  0  0  0  0  0
  140.7350   80.3400  223.8020 C   0  0  0  0  0  0  0  0  0  0  0  0
  142.1150   80.4020  223.8450 C   0  0  0  0  0  0  0  0  0  0  0  0
  142.8370   79.7590  222.8610 C   0  0  0  0  0  0  0  0  0  0  0  0
  142.2250   79.0540  221.8290 C   0  0  0  0  0  0  0  0  0  0  0  0
  140.8450   79.0150  221.8190 C   0  0  0  0  0  0  0  0  0  0  0  0
  139.8540   71.2910  223.2610 C   0  0  0  0  0  0  0  0  0  0  0  0
  139.2800   70.0440  223.1950 C   0  0  0  0  0  0  0  0  0  0  0  0
  139.2470   69.2940  224.3570 C   0  0  0  0  0  0  0  0  0  0  0  0
  139.7630   69.7580  225.5510 C   0  0  0  0  0  0  0  0  0  0  0  0
  139.7320   69.0060  226.7170 C   0  0  0  0  0  0  0  0  0  0  0  0
  140.2680   69.5200  227.9020 C   0  0  0  0  0  0  0  0  0  0  0  0
  140.2520   68.8200  229.0430 F   0  0  0  0  0  0  0  0  0  0  0  0
  140.8250   70.7800  227.8780 C   0  0  0  0  0  0  0  0  0  0  0  0
  140.8660   71.5500  226.7160 C   0  0  0  0  0  0  0  0  0  0  0  0
  140.3250   71.0060  225.5660 C   0  0  0  0  0  0  0  0  0  0  0  0
  140.3510   71.7180  224.4420 N   0  0  0  0  0  0  0  0  0  0  0  0
  139.5740   73.9780  223.1360 H   0  0  0  0  0  0  0  0  0  0  0  0
  140.2924   73.7642  220.2023 H   0  0  0  0  0  0  0  0  0  0  0  0
  138.7883   74.6302  220.7085 H   0  0  0  0  0  0  0  0  0  0  0  0
  142.9210   75.5551  219.7991 H   0  0  0  0  0  0  0  0  0  0  0  0
  141.9113   75.4999  218.4025 H   0  0  0  0  0  0  0  0  0  0  0  0
  143.2336   77.9357  219.7674 H   0  0  0  0  0  0  0  0  0  0  0  0
  143.1451   77.6174  218.0327 H   0  0  0  0  0  0  0  0  0  0  0  0
  141.4691   79.3757  219.2887 H   0  0  0  0  0  0  0  0  0  0  0  0
  140.9273   78.4534  217.8820 H   0  0  0  0  0  0  0  0  0  0  0  0
  139.4039   77.4472  219.2401 H   0  0  0  0  0  0  0  0  0  0  0  0
  137.7010   78.3693  220.9640 H   0  0  0  0  0  0  0  0  0  0  0  0
  137.9920   79.8330  223.1420 H   0  0  0  0  0  0  0  0  0  0  0  0
  140.1455   80.8473  224.5799 H   0  0  0  0  0  0  0  0  0  0  0  0
  142.6272   80.9529  224.6476 H   0  0  0  0  0  0  0  0  0  0  0  0
  143.9356   79.8052  222.8932 H   0  0  0  0  0  0  0  0  0  0  0  0
  142.8171   78.5480  221.0522 H   0  0  0  0  0  0  0  0  0  0  0  0
  138.8626   69.6569  222.2538 H   0  0  0  0  0  0  0  0  0  0  0  0
  138.7935   68.2922  224.3289 H   0  0  0  0  0  0  0  0  0  0  0  0
  139.2839   68.0014  226.7091 H   0  0  0  0  0  0  0  0  0  0  0  0
  141.2509   71.1917  228.8049 H   0  0  0  0  0  0  0  0  0  0  0  0
  141.3131   72.5550  226.7146 H   0  0  0  0  0  0  0  0  0  0  0  0
  1  2  2  0
  2  3  1  0
  3  4  1  0
  4  5  1  0
  5  6  2  0
  5  7  1  0
  7  8  1  0
  8  9  1  0
  9 10  1  0
 10 11  1  0
 11 12  1  0
 12 13  2  0
 13 14  1  0
 14 15  1  0
 15 16  2  0
 16 17  1  0
 17 18  2  0
 18 19  1  0
 19 20  2  0
  2 21  1  0
 21 22  2  0
 22 23  1  0
 23 24  2  0
 24 25  1  0
 25 26  2  0
 26 27  1  0
 26 28  1  0
 28 29  2  0
 29 30  1  0
 30 31  2  0
 11  7  1  0
 20 12  1  0
 31 21  1  0
 20 15  1  0
 30 24  1  0
  3 32  1  0
  4 33  1  0
  4 34  1  0
  8 35  1  0
  8 36  1  0
  9 37  1  0
  9 38  1  0
 10 39  1  0
 10 40  1  0
 11 41  1  6
 13 42  1  0
 14 43  1  0
 16 44  1  0
 17 45  1  0
 18 46  1  0
 19 47  1  0
 22 48  1  0
 23 49  1  0
 25 50  1  0
 28 51  1  0
 29 52  1  0
M  END
>  <smiles>  (11) 
O=C(NCC(=O)N1CCC[C@@H]1c1c[nH]c2ccccc12)c1ccc2cc(F)ccc2n1

>  <score_type>  (11) 
oracle

>  <origin>  (11) 
autodockgpu

>  <m_score__min__energy>  (11) 
-9.3499999999999996

>  <m_primary>  (11) 
energy

>  <rmsd>  (11) 
1.8126721412302265

>  <m_score__min__rmsd>  (11) 
1.8126721412302265

>  <meeko>  (11) 
{"free_energy": -8.83, "intermolecular_energy": -10.32, "internal_energy": -1.88, "cluster_size": 28, "cluster_id": 1, "rank_in_cluster": 19}

>  <energy>  (11) 
-9.02

>  <cluster_rmsd>  (11) 
0.51

>  <cluster>  (11) 
1

$$$$

     RDKit          3D

 52 56  0  0  0  0  0  0  0  0999 V2000
  141.1170   72.1770  221.3660 O   0  0  0  0  0  0  0  0  0  0  0  0
  140.2320   72.4170  222.2310 C   0  0  0  0  0  0  0  0  0  0  0  0
  139.3590   73.5430  222.0980 N   0  0  0  0  0  0  0  0  0  0  0  0
  139.5320   74.3900  220.9350 C   0  0  0  0  0  0  0  0  0  0  0  0
  140.6080   75.4060  221.1670 C   0  0  0  0  0  0  0  0  0  0  0  0
  141.0920   75.4360  222.3290 O   0  0  0  0  0  0  0  0  0  0  0  0
  141.0320   76.2690  220.1190 N   0  0  0  0  0  0  0  0  0  0  0  0
  142.1700   76.0160  219.2580 C   0  0  0  0  0  0  0  0  0  0  0  0
  142.6110   77.4590  219.0170 C   0  0  0  0  0  0  0  0  0  0  0  0
  141.3360   78.2590  218.9730 C   0  0  0  0  0  0  0  0  0  0  0  0
  140.3690   77.5030  219.7940 C   0  0  2  0  0  0  0  0  0  0  0  0
  139.9220   78.2370  221.0090 C   0  0  0  0  0  0  0  0  0  0  0  0
  138.6500   78.4040  221.5140 C   0  0  0  0  0  0  0  0  0  0  0  0
  138.7610   79.1520  222.6410 N   0  0  0  0  0  0  0  0  0  0  0  0
  140.0570   79.4530  222.8490 C   0  0  0  0  0  0  0  0  0  0  0  0
  140.6860   80.1800  223.8420 C   0  0  0  0  0  0  0  0  0  0  0  0
  142.0570   80.3520  223.8380 C   0  0  0  0  0  0  0  0  0  0  0  0
  142.7930   79.7820  222.8200 C   0  0  0  0  0  0  0  0  0  0  0  0
  142.2020   79.0420  221.7990 C   0  0  0  0  0  0  0  0  0  0  0  0
  140.8310   78.8920  221.8380 C   0  0  0  0  0  0  0  0  0  0  0  0
  140.0810   71.5430  223.3960 C   0  0  0  0  0  0  0  0  0  0  0  0
  139.4080   70.3510  223.2770 C   0  0  0  0  0  0  0  0  0  0  0  0
  139.2950   69.5640  224.4100 C   0  0  0  0  0  0  0  0  0  0  0  0
  139.8290   69.9400  225.6270 C   0  0  0  0  0  0  0  0  0  0  0  0
  139.7170   69.1520  226.7640 C   0  0  0  0  0  0  0  0  0  0  0  0
  140.2750   69.5770  227.9730 C   0  0  0  0  0  0  0  0  0  0  0  0
  140.1840   68.8400  229.0870 F   0  0  0  0  0  0  0  0  0  0  0  0
  140.9340   70.7870  228.0040 C   0  0  0  0  0  0  0  0  0  0  0  0
  141.0570   71.5920  226.8720 C   0  0  0  0  0  0  0  0  0  0  0  0
  140.4910   71.1370  225.6960 C   0  0  0  0  0  0  0  0  0  0  0  0
  140.5930   71.8850  224.5990 N   0  0  0  0  0  0  0  0  0  0  0  0
  138.6260   73.7450  222.8120 H   0  0  0  0  0  0  0  0  0  0  0  0
  139.8070   73.7652  220.0725 H   0  0  0  0  0  0  0  0  0  0  0  0
  138.5866   74.9182  220.7420 H   0  0  0  0  0  0  0  0  0  0  0  0
  142.9478   75.4259  219.7648 H   0  0  0  0  0  0  0  0  0  0  0  0
  141.9576   75.4282  218.3528 H   0  0  0  0  0  0  0  0  0  0  0  0
  143.2568   77.8071  219.8367 H   0  0  0  0  0  0  0  0  0  0  0  0
  143.1931   77.5617  218.0893 H   0  0  0  0  0  0  0  0  0  0  0  0
  141.4967   79.2624  219.3943 H   0  0  0  0  0  0  0  0  0  0  0  0
  140.9764   78.3985  217.9428 H   0  0  0  0  0  0  0  0  0  0  0  0
  139.4354   77.3347  219.2371 H   0  0  0  0  0  0  0  0  0  0  0  0
  137.7193   78.0055  221.0839 H   0  0  0  0  0  0  0  0  0  0  0  0
  137.9710   79.4620  223.2720 H   0  0  0  0  0  0  0  0  0  0  0  0
  140.0861   80.6284  224.6476 H   0  0  0  0  0  0  0  0  0  0  0  0
  142.5518   80.9320  224.6309 H   0  0  0  0  0  0  0  0  0  0  0  0
  143.8847   79.9167  222.8145 H   0  0  0  0  0  0  0  0  0  0  0  0
  142.8039   78.5951  220.9940 H   0  0  0  0  0  0  0  0  0  0  0  0
  138.9750   70.0339  222.3168 H   0  0  0  0  0  0  0  0  0  0  0  0
  138.7609   68.6050  224.3386 H   0  0  0  0  0  0  0  0  0  0  0  0
  139.1871   68.1894  226.7135 H   0  0  0  0  0  0  0  0  0  0  0  0
  141.3768   71.1284  228.9513 H   0  0  0  0  0  0  0  0  0  0  0  0
  141.5861   72.5555  226.9135 H   0  0  0  0  0  0  0  0  0  0  0  0
  1  2  2  0
  2  3  1  0
  3  4  1  0
  4  5  1  0
  5  6  2  0
  5  7  1  0
  7  8  1  0
  8  9  1  0
  9 10  1  0
 10 11  1  0
 11 12  1  0
 12 13  2  0
 13 14  1  0
 14 15  1  0
 15 16  2  0
 16 17  1  0
 17 18  2  0
 18 19  1  0
 19 20  2  0
  2 21  1  0
 21 22  2  0
 22 23  1  0
 23 24  2  0
 24 25  1  0
 25 26  2  0
 26 27  1  0
 26 28  1  0
 28 29  2  0
 29 30  1  0
 30 31  2  0
 11  7  1  0
 20 12  1  0
 31 21  1  0
 20 15  1  0
 30 24  1  0
  3 32  1  0
  4 33  1  0
  4 34  1  0
  8 35  1  0
  8 36  1  0
  9 37  1  0
  9 38  1  0
 10 39  1  0
 10 40  1  0
 11 41  1  6
 13 42  1  0
 14 43  1  0
 16 44  1  0
 17 45  1  0
 18 46  1  0
 19 47  1  0
 22 48  1  0
 23 49  1  0
 25 50  1  0
 28 51  1  0
 29 52  1  0
M  END
>  <smiles>  (12) 
O=C(NCC(=O)N1CCC[C@@H]1c1c[nH]c2ccccc12)c1ccc2cc(F)ccc2n1

>  <score_type>  (12) 
oracle

>  <origin>  (12) 
autodockgpu

>  <m_score__min__energy>  (12) 
-9.3499999999999996

>  <m_primary>  (12) 
energy

>  <rmsd>  (12) 
1.8494546601403277

>  <m_score__min__rmsd>  (12) 
1.8494546601403277

>  <meeko>  (12) 
{"free_energy": -9.17, "intermolecular_energy": -10.67, "internal_energy": -1.46, "cluster_size": 28, "cluster_id": 1, "rank_in_cluster": 4}

>  <energy>  (12) 
-8.99

>  <cluster_rmsd>  (12) 
0.54

>  <cluster>  (12) 
1

$$$$

     RDKit          3D

 52 56  0  0  0  0  0  0  0  0999 V2000
  137.3620   71.0250  221.3150 O   0  0  0  0  0  0  0  0  0  0  0  0
  137.8260   71.8360  222.1620 C   0  0  0  0  0  0  0  0  0  0  0  0
  137.2700   71.9250  223.4780 N   0  0  0  0  0  0  0  0  0  0  0  0
  136.1610   71.0490  223.7950 C   0  0  0  0  0  0  0  0  0  0  0  0
  136.6490   69.6970  224.2200 C   0  0  0  0  0  0  0  0  0  0  0  0
  136.3300   69.3410  225.3840 O   0  0  0  0  0  0  0  0  0  0  0  0
  137.4230   68.8940  223.3380 N   0  0  0  0  0  0  0  0  0  0  0  0
  136.8800   68.1430  222.2230 C   0  0  0  0  0  0  0  0  0  0  0  0
  137.8460   66.9600  222.2400 C   0  0  0  0  0  0  0  0  0  0  0  0
  139.1740   67.5410  222.6520 C   0  0  0  0  0  0  0  0  0  0  0  0
  138.8470   68.7350  223.4570 C   0  0  2  0  0  0  0  0  0  0  0  0
  139.2840   68.6320  224.8760 C   0  0  0  0  0  0  0  0  0  0  0  0
  139.2280   67.5540  225.7340 C   0  0  0  0  0  0  0  0  0  0  0  0
  139.7490   67.9590  226.9200 N   0  0  0  0  0  0  0  0  0  0  0  0
  140.1240   69.2490  226.8240 C   0  0  0  0  0  0  0  0  0  0  0  0
  140.6990   70.1120  227.7380 C   0  0  0  0  0  0  0  0  0  0  0  0
  140.9980   71.4170  227.3950 C   0  0  0  0  0  0  0  0  0  0  0  0
  140.7110   71.8470  226.1150 C   0  0  0  0  0  0  0  0  0  0  0  0
  140.1320   71.0140  225.1620 C   0  0  0  0  0  0  0  0  0  0  0  0
  139.8480   69.7170  225.5430 C   0  0  0  0  0  0  0  0  0  0  0  0
  138.9480   72.7100  221.8110 C   0  0  0  0  0  0  0  0  0  0  0  0
  138.7800   74.0740  221.8040 C   0  0  0  0  0  0  0  0  0  0  0  0
  139.8730   74.8510  221.4640 C   0  0  0  0  0  0  0  0  0  0  0  0
  141.0980   74.3020  221.1390 C   0  0  0  0  0  0  0  0  0  0  0  0
  142.1960   75.0800  220.7990 C   0  0  0  0  0  0  0  0  0  0  0  0
  143.4150   74.4760  220.4780 C   0  0  0  0  0  0  0  0  0  0  0  0
  144.4920   75.1990  220.1450 F   0  0  0  0  0  0  0  0  0  0  0  0
  143.4960   73.1010  220.5100 C   0  0  0  0  0  0  0  0  0  0  0  0
  142.4040   72.3030  220.8500 C   0  0  0  0  0  0  0  0  0  0  0  0
  141.2170   72.9380  221.1610 C   0  0  0  0  0  0  0  0  0  0  0  0
  140.1570   72.2010  221.4890 N   0  0  0  0  0  0  0  0  0  0  0  0
  137.6510   72.5950  224.1800 H   0  0  0  0  0  0  0  0  0  0  0  0
  135.5742   71.4930  224.6126 H   0  0  0  0  0  0  0  0  0  0  0  0
  135.5397   70.9304  222.8950 H   0  0  0  0  0  0  0  0  0  0  0  0
  135.8410   67.8299  222.4033 H   0  0  0  0  0  0  0  0  0  0  0  0
  136.8170   68.6891  221.2702 H   0  0  0  0  0  0  0  0  0  0  0  0
  137.5149   66.2019  222.9650 H   0  0  0  0  0  0  0  0  0  0  0  0
  137.9014   66.4600  221.2618 H   0  0  0  0  0  0  0  0  0  0  0  0
  139.7417   66.8154  223.2529 H   0  0  0  0  0  0  0  0  0  0  0  0
  139.7980   67.7927  221.7818 H   0  0  0  0  0  0  0  0  0  0  0  0
  139.3920   69.6146  223.0838 H   0  0  0  0  0  0  0  0  0  0  0  0
  138.8348   66.5535  225.5009 H   0  0  0  0  0  0  0  0  0  0  0  0
  139.8530   67.3740  227.7950 H   0  0  0  0  0  0  0  0  0  0  0  0
  140.9221   69.7545  228.7541 H   0  0  0  0  0  0  0  0  0  0  0  0
  141.4553   72.0990  228.1269 H   0  0  0  0  0  0  0  0  0  0  0  0
  140.9483   72.8849  225.8384 H   0  0  0  0  0  0  0  0  0  0  0  0
  139.9096   71.3739  224.1466 H   0  0  0  0  0  0  0  0  0  0  0  0
  137.8125   74.5309  222.0592 H   0  0  0  0  0  0  0  0  0  0  0  0
  139.7625   75.9454  221.4521 H   0  0  0  0  0  0  0  0  0  0  0  0
  142.1065   76.1762  220.7821 H   0  0  0  0  0  0  0  0  0  0  0  0
  144.4518   72.6176  220.2595 H   0  0  0  0  0  0  0  0  0  0  0  0
  142.4849   71.2062  220.8699 H   0  0  0  0  0  0  0  0  0  0  0  0
  1  2  2  0
  2  3  1  0
  3  4  1  0
  4  5  1  0
  5  6  2  0
  5  7  1  0
  7  8  1  0
  8  9  1  0
  9 10  1  0
 10 11  1  0
 11 12  1  0
 12 13  2  0
 13 14  1  0
 14 15  1  0
 15 16  2  0
 16 17  1  0
 17 18  2  0
 18 19  1  0
 19 20  2  0
  2 21  1  0
 21 22  2  0
 22 23  1  0
 23 24  2  0
 24 25  1  0
 25 26  2  0
 26 27  1  0
 26 28  1  0
 28 29  2  0
 29 30  1  0
 30 31  2  0
 11  7  1  0
 20 12  1  0
 31 21  1  0
 20 15  1  0
 30 24  1  0
  3 32  1  0
  4 33  1  0
  4 34  1  0
  8 35  1  0
  8 36  1  0
  9 37  1  0
  9 38  1  0
 10 39  1  0
 10 40  1  0
 11 41  1  6
 13 42  1  0
 14 43  1  0
 16 44  1  0
 17 45  1  0
 18 46  1  0
 19 47  1  0
 22 48  1  0
 23 49  1  0
 25 50  1  0
 28 51  1  0
 29 52  1  0
M  END
>  <smiles>  (13) 
O=C(NCC(=O)N1CCC[C@@H]1c1c[nH]c2ccccc12)c1ccc2cc(F)ccc2n1

>  <score_type>  (13) 
oracle

>  <origin>  (13) 
autodockgpu

>  <m_score__min__energy>  (13) 
-9.3499999999999996

>  <m_primary>  (13) 
energy

>  <rmsd>  (13) 
7.703534126344463

>  <m_score__min__rmsd>  (13) 
7.703534126344463

>  <meeko>  (13) 
{"free_energy": -7.8, "intermolecular_energy": -9.29, "internal_energy": -2.3, "cluster_size": 2, "cluster_id": 4, "rank_in_cluster": 1}

>  <energy>  (13) 
-8.99

>  <cluster_rmsd>  (13) 
0.49

>  <cluster>  (13) 
1

$$$$

     RDKit          3D

 52 56  0  0  0  0  0  0  0  0999 V2000
  136.7420   71.0230  221.5690 O   0  0  0  0  0  0  0  0  0  0  0  0
  137.5680   71.6520  222.2860 C   0  0  0  0  0  0  0  0  0  0  0  0
  137.4030   71.7270  223.7050 N   0  0  0  0  0  0  0  0  0  0  0  0
  136.2580   71.0530  224.2820 C   0  0  0  0  0  0  0  0  0  0  0  0
  136.4760   69.5710  224.3310 C   0  0  0  0  0  0  0  0  0  0  0  0
  135.8750   68.9600  225.2540 O   0  0  0  0  0  0  0  0  0  0  0  0
  137.3150   68.9280  223.3810 N   0  0  0  0  0  0  0  0  0  0  0  0
  136.8360   68.2020  222.2210 C   0  0  0  0  0  0  0  0  0  0  0  0
  137.9300   67.1400  222.1360 C   0  0  0  0  0  0  0  0  0  0  0  0
  139.1920   67.8390  222.5710 C   0  0  0  0  0  0  0  0  0  0  0  0
  138.7500   68.9260  223.4670 C   0  0  2  0  0  0  0  0  0  0  0  0
  139.2290   68.7710  224.8680 C   0  0  0  0  0  0  0  0  0  0  0  0
  139.1840   67.6670  225.6920 C   0  0  0  0  0  0  0  0  0  0  0  0
  139.7460   68.0260  226.8740 N   0  0  0  0  0  0  0  0  0  0  0  0
  140.1360   69.3140  226.8080 C   0  0  0  0  0  0  0  0  0  0  0  0
  140.7490   70.1390  227.7310 C   0  0  0  0  0  0  0  0  0  0  0  0
  141.0550   71.4510  227.4210 C   0  0  0  0  0  0  0  0  0  0  0  0
  140.7350   71.9260  226.1660 C   0  0  0  0  0  0  0  0  0  0  0  0
  140.1160   71.1310  225.2040 C   0  0  0  0  0  0  0  0  0  0  0  0
  139.8270   69.8270  225.5520 C   0  0  0  0  0  0  0  0  0  0  0  0
  138.7160   72.3250  221.6730 C   0  0  0  0  0  0  0  0  0  0  0  0
  139.4930   71.6570  220.7580 C   0  0  0  0  0  0  0  0  0  0  0  0
  140.5650   72.3400  220.2110 C   0  0  0  0  0  0  0  0  0  0  0  0
  140.8650   73.6430  220.5560 C   0  0  0  0  0  0  0  0  0  0  0  0
  141.9400   74.3290  220.0090 C   0  0  0  0  0  0  0  0  0  0  0  0
  142.2030   75.6470  220.3900 C   0  0  0  0  0  0  0  0  0  0  0  0
  143.2320   76.3360  219.8810 F   0  0  0  0  0  0  0  0  0  0  0  0
  141.3720   76.2410  221.3160 C   0  0  0  0  0  0  0  0  0  0  0  0
  140.2870   75.5680  221.8770 C   0  0  0  0  0  0  0  0  0  0  0  0
  140.0620   74.2660  221.4730 C   0  0  0  0  0  0  0  0  0  0  0  0
  139.0330   73.5980  221.9920 N   0  0  0  0  0  0  0  0  0  0  0  0
  138.0830   72.2470  224.3010 H   0  0  0  0  0  0  0  0  0  0  0  0
  136.0976   71.4270  225.3039 H   0  0  0  0  0  0  0  0  0  0  0  0
  135.3780   71.2574  223.6545 H   0  0  0  0  0  0  0  0  0  0  0  0
  135.8437   67.7593  222.3922 H   0  0  0  0  0  0  0  0  0  0  0  0
  136.6900   68.8048  221.3125 H   0  0  0  0  0  0  0  0  0  0  0  0
  137.7039   66.2984  222.8073 H   0  0  0  0  0  0  0  0  0  0  0  0
  138.0196   66.7215  221.1227 H   0  0  0  0  0  0  0  0  0  0  0  0
  139.8522   67.1421  223.1081 H   0  0  0  0  0  0  0  0  0  0  0  0
  139.7630   68.2232  221.7129 H   0  0  0  0  0  0  0  0  0  0  0  0
  139.1821   69.8875  223.1526 H   0  0  0  0  0  0  0  0  0  0  0  0
  138.7701   66.6798  225.4389 H   0  0  0  0  0  0  0  0  0  0  0  0
  139.8690   67.4120  227.7260 H   0  0  0  0  0  0  0  0  0  0  0  0
  140.9974   69.7459  228.7279 H   0  0  0  0  0  0  0  0  0  0  0  0
  141.5437   72.1029  228.1600 H   0  0  0  0  0  0  0  0  0  0  0  0
  140.9772   72.9695  225.9160 H   0  0  0  0  0  0  0  0  0  0  0  0
  139.8677   71.5263  224.2079 H   0  0  0  0  0  0  0  0  0  0  0  0
  139.2714   70.6185  220.4710 H   0  0  0  0  0  0  0  0  0  0  0  0
  141.2010   71.8265  219.4749 H   0  0  0  0  0  0  0  0  0  0  0  0
  142.5882   73.8326  219.2718 H   0  0  0  0  0  0  0  0  0  0  0  0
  141.5711   77.2786  221.6220 H   0  0  0  0  0  0  0  0  0  0  0  0
  139.6336   76.0564  222.6149 H   0  0  0  0  0  0  0  0  0  0  0  0
  1  2  2  0
  2  3  1  0
  3  4  1  0
  4  5  1  0
  5  6  2  0
  5  7  1  0
  7  8  1  0
  8  9  1  0
  9 10  1  0
 10 11  1  0
 11 12  1  0
 12 13  2  0
 13 14  1  0
 14 15  1  0
 15 16  2  0
 16 17  1  0
 17 18  2  0
 18 19  1  0
 19 20  2  0
  2 21  1  0
 21 22  2  0
 22 23  1  0
 23 24  2  0
 24 25  1  0
 25 26  2  0
 26 27  1  0
 26 28  1  0
 28 29  2  0
 29 30  1  0
 30 31  2  0
 11  7  1  0
 20 12  1  0
 31 21  1  0
 20 15  1  0
 30 24  1  0
  3 32  1  0
  4 33  1  0
  4 34  1  0
  8 35  1  0
  8 36  1  0
  9 37  1  0
  9 38  1  0
 10 39  1  0
 10 40  1  0
 11 41  1  6
 13 42  1  0
 14 43  1  0
 16 44  1  0
 17 45  1  0
 18 46  1  0
 19 47  1  0
 22 48  1  0
 23 49  1  0
 25 50  1  0
 28 51  1  0
 29 52  1  0
M  END
>  <smiles>  (14) 
O=C(NCC(=O)N1CCC[C@@H]1c1c[nH]c2ccccc12)c1ccc2cc(F)ccc2n1

>  <score_type>  (14) 
oracle

>  <origin>  (14) 
autodockgpu

>  <m_score__min__energy>  (14) 
-9.3499999999999996

>  <m_primary>  (14) 
energy

>  <rmsd>  (14) 
7.573476034961682

>  <m_score__min__rmsd>  (14) 
7.573476034961682

>  <meeko>  (14) 
{"free_energy": -7.33, "intermolecular_energy": -8.82, "internal_energy": -2.32, "cluster_size": 2, "cluster_id": 4, "rank_in_cluster": 2}

>  <energy>  (14) 
-8.97

>  <cluster_rmsd>  (14) 
0.52

>  <cluster>  (14) 
1

$$$$

     RDKit          3D

 52 56  0  0  0  0  0  0  0  0999 V2000
  141.4110   72.6540  221.9710 O   0  0  0  0  0  0  0  0  0  0  0  0
  140.3370   72.5590  222.6250 C   0  0  0  0  0  0  0  0  0  0  0  0
  139.2220   73.4070  222.3360 N   0  0  0  0  0  0  0  0  0  0  0  0
  139.3750   74.3730  221.2680 C   0  0  0  0  0  0  0  0  0  0  0  0
  139.5720   75.7530  221.8160 C   0  0  0  0  0  0  0  0  0  0  0  0
  140.7610   76.1650  221.8500 O   0  0  0  0  0  0  0  0  0  0  0  0
  138.4620   76.5230  222.2620 N   0  0  0  0  0  0  0  0  0  0  0  0
  137.0880   76.0600  222.2590 C   0  0  0  0  0  0  0  0  0  0  0  0
  136.3890   77.3920  221.9950 C   0  0  0  0  0  0  0  0  0  0  0  0
  137.2170   78.4220  222.7180 C   0  0  0  0  0  0  0  0  0  0  0  0
  138.5820   77.8620  222.7710 C   0  0  2  0  0  0  0  0  0  0  0  0
  139.5810   78.6630  222.0130 C   0  0  0  0  0  0  0  0  0  0  0  0
  139.5990   79.0070  220.6780 C   0  0  0  0  0  0  0  0  0  0  0  0
  140.7190   79.7460  220.4690 N   0  0  0  0  0  0  0  0  0  0  0  0
  141.3930   79.8690  221.6290 C   0  0  0  0  0  0  0  0  0  0  0  0
  142.5750   80.5130  221.9430 C   0  0  0  0  0  0  0  0  0  0  0  0
  143.0730   80.4970  223.2320 C   0  0  0  0  0  0  0  0  0  0  0  0
  142.3670   79.8220  224.2060 C   0  0  0  0  0  0  0  0  0  0  0  0
  141.1730   79.1580  223.9360 C   0  0  0  0  0  0  0  0  0  0  0  0
  140.7080   79.1970  222.6370 C   0  0  0  0  0  0  0  0  0  0  0  0
  140.2130   71.5720  223.7010 C   0  0  0  0  0  0  0  0  0  0  0  0
  139.6250   70.3560  223.4510 C   0  0  0  0  0  0  0  0  0  0  0  0
  139.5330   69.4620  224.5040 C   0  0  0  0  0  0  0  0  0  0  0  0
  140.0050   69.7580  225.7670 C   0  0  0  0  0  0  0  0  0  0  0  0
  139.9140   68.8620  226.8240 C   0  0  0  0  0  0  0  0  0  0  0  0
  140.4070   69.2080  228.0850 C   0  0  0  0  0  0  0  0  0  0  0  0
  140.3330   68.3670  229.1240 F   0  0  0  0  0  0  0  0  0  0  0  0
  140.9810   70.4500  228.2480 C   0  0  0  0  0  0  0  0  0  0  0  0
  141.0820   71.3630  227.1980 C   0  0  0  0  0  0  0  0  0  0  0  0
  140.5830   70.9830  225.9670 C   0  0  0  0  0  0  0  0  0  0  0  0
  140.6650   71.8340  224.9470 N   0  0  0  0  0  0  0  0  0  0  0  0
  138.3320   73.3310  222.8760 H   0  0  0  0  0  0  0  0  0  0  0  0
  140.2491   74.0999  220.6585 H   0  0  0  0  0  0  0  0  0  0  0  0
  138.4609   74.3663  220.6561 H   0  0  0  0  0  0  0  0  0  0  0  0
  136.9004   75.3296  221.4581 H   0  0  0  0  0  0  0  0  0  0  0  0
  136.7657   75.5277  223.1661 H   0  0  0  0  0  0  0  0  0  0  0  0
  136.3620   77.6065  220.9164 H   0  0  0  0  0  0  0  0  0  0  0  0
  135.3455   77.3850  222.3429 H   0  0  0  0  0  0  0  0  0  0  0  0
  137.2130   79.3743  222.1675 H   0  0  0  0  0  0  0  0  0  0  0  0
  136.8220   78.6319  223.7229 H   0  0  0  0  0  0  0  0  0  0  0  0
  138.9676   77.8779  223.8011 H   0  0  0  0  0  0  0  0  0  0  0  0
  138.8468   78.7339  219.9233 H   0  0  0  0  0  0  0  0  0  0  0  0
  141.0330   80.1670  219.5520 H   0  0  0  0  0  0  0  0  0  0  0  0
  143.1274   81.0461  221.1552 H   0  0  0  0  0  0  0  0  0  0  0  0
  144.0136   81.0123  223.4764 H   0  0  0  0  0  0  0  0  0  0  0  0
  142.7613   79.8077  225.2328 H   0  0  0  0  0  0  0  0  0  0  0  0
  140.6232   78.6245  224.7254 H   0  0  0  0  0  0  0  0  0  0  0  0
  139.2417   70.1021  222.4517 H   0  0  0  0  0  0  0  0  0  0  0  0
  139.0673   68.4811  224.3280 H   0  0  0  0  0  0  0  0  0  0  0  0
  139.4520   67.8760  226.6681 H   0  0  0  0  0  0  0  0  0  0  0  0
  141.3719   70.7305  229.2372 H   0  0  0  0  0  0  0  0  0  0  0  0
  141.5428   72.3509  227.3451 H   0  0  0  0  0  0  0  0  0  0  0  0
  1  2  2  0
  2  3  1  0
  3  4  1  0
  4  5  1  0
  5  6  2  0
  5  7  1  0
  7  8  1  0
  8  9  1  0
  9 10  1  0
 10 11  1  0
 11 12  1  0
 12 13  2  0
 13 14  1  0
 14 15  1  0
 15 16  2  0
 16 17  1  0
 17 18  2  0
 18 19  1  0
 19 20  2  0
  2 21  1  0
 21 22  2  0
 22 23  1  0
 23 24  2  0
 24 25  1  0
 25 26  2  0
 26 27  1  0
 26 28  1  0
 28 29  2  0
 29 30  1  0
 30 31  2  0
 11  7  1  0
 20 12  1  0
 31 21  1  0
 20 15  1  0
 30 24  1  0
  3 32  1  0
  4 33  1  0
  4 34  1  0
  8 35  1  0
  8 36  1  0
  9 37  1  0
  9 38  1  0
 10 39  1  0
 10 40  1  0
 11 41  1  1
 13 42  1  0
 14 43  1  0
 16 44  1  0
 17 45  1  0
 18 46  1  0
 19 47  1  0
 22 48  1  0
 23 49  1  0
 25 50  1  0
 28 51  1  0
 29 52  1  0
M  END
>  <smiles>  (15) 
O=C(NCC(=O)N1CCC[C@@H]1c1c[nH]c2ccccc12)c1ccc2cc(F)ccc2n1

>  <score_type>  (15) 
oracle

>  <origin>  (15) 
autodockgpu

>  <m_score__min__energy>  (15) 
-9.3499999999999996

>  <m_primary>  (15) 
energy

>  <rmsd>  (15) 
3.0287431309605206

>  <m_score__min__rmsd>  (15) 
3.0287431309605206

>  <meeko>  (15) 
{"free_energy": -9.18, "intermolecular_energy": -10.67, "internal_energy": -1.27, "cluster_size": 28, "cluster_id": 1, "rank_in_cluster": 3}

>  <energy>  (15) 
-8.96

>  <cluster_rmsd>  (15) 
0.52

>  <cluster>  (15) 
1

$$$$

     RDKit          3D

 52 56  0  0  0  0  0  0  0  0999 V2000
  140.9190   72.0350  221.2190 O   0  0  0  0  0  0  0  0  0  0  0  0
  140.1830   72.3750  222.1850 C   0  0  0  0  0  0  0  0  0  0  0  0
  139.4480   73.6020  222.1540 N   0  0  0  0  0  0  0  0  0  0  0  0
  139.5830   74.4320  220.9750 C   0  0  0  0  0  0  0  0  0  0  0  0
  140.4310   75.6340  221.2580 C   0  0  0  0  0  0  0  0  0  0  0  0
  140.6700   75.8620  222.4730 O   0  0  0  0  0  0  0  0  0  0  0  0
  140.9200   76.4450  220.1970 N   0  0  0  0  0  0  0  0  0  0  0  0
  142.0600   76.1110  219.3670 C   0  0  0  0  0  0  0  0  0  0  0  0
  142.5820   77.5210  219.0990 C   0  0  0  0  0  0  0  0  0  0  0  0
  141.3510   78.3860  219.0080 C   0  0  0  0  0  0  0  0  0  0  0  0
  140.3300   77.7030  219.8280 C   0  0  2  0  0  0  0  0  0  0  0  0
  139.8990   78.4910  221.0140 C   0  0  0  0  0  0  0  0  0  0  0  0
  138.6260   78.7680  221.4670 C   0  0  0  0  0  0  0  0  0  0  0  0
  138.7550   79.5240  222.5870 N   0  0  0  0  0  0  0  0  0  0  0  0
  140.0630   79.7240  222.8410 C   0  0  0  0  0  0  0  0  0  0  0  0
  140.7110   80.4150  223.8470 C   0  0  0  0  0  0  0  0  0  0  0  0
  142.0910   80.4770  223.8930 C   0  0  0  0  0  0  0  0  0  0  0  0
  142.8160   79.8320  222.9120 C   0  0  0  0  0  0  0  0  0  0  0  0
  142.2060   79.1240  221.8800 C   0  0  0  0  0  0  0  0  0  0  0  0
  140.8260   79.0860  221.8680 C   0  0  0  0  0  0  0  0  0  0  0  0
  140.0680   71.5140  223.3650 C   0  0  0  0  0  0  0  0  0  0  0  0
  139.4280   70.3020  223.2700 C   0  0  0  0  0  0  0  0  0  0  0  0
  139.3480   69.5300  224.4150 C   0  0  0  0  0  0  0  0  0  0  0  0
  139.8820   69.9390  225.6210 C   0  0  0  0  0  0  0  0  0  0  0  0
  139.8030   69.1660  226.7710 C   0  0  0  0  0  0  0  0  0  0  0  0
  140.3590   69.6240  227.9680 C   0  0  0  0  0  0  0  0  0  0  0  0
  140.2990   68.9020  229.0940 F   0  0  0  0  0  0  0  0  0  0  0  0
  140.9830   70.8530  227.9750 C   0  0  0  0  0  0  0  0  0  0  0  0
  141.0720   71.6440  226.8290 C   0  0  0  0  0  0  0  0  0  0  0  0
  140.5100   71.1550  225.6660 C   0  0  0  0  0  0  0  0  0  0  0  0
  140.5800   71.8890  224.5570 N   0  0  0  0  0  0  0  0  0  0  0  0
  138.8390   73.8870  222.9520 H   0  0  0  0  0  0  0  0  0  0  0  0
  140.0506   73.8430  220.1722 H   0  0  0  0  0  0  0  0  0  0  0  0
  138.5825   74.7731  220.6706 H   0  0  0  0  0  0  0  0  0  0  0  0
  142.7952   75.4944  219.9048 H   0  0  0  0  0  0  0  0  0  0  0  0
  141.8344   75.5122  218.4723 H   0  0  0  0  0  0  0  0  0  0  0  0
  143.2291   77.8561  219.9230 H   0  0  0  0  0  0  0  0  0  0  0  0
  143.1872   77.5685  218.1817 H   0  0  0  0  0  0  0  0  0  0  0  0
  141.5561   79.3904  219.4069 H   0  0  0  0  0  0  0  0  0  0  0  0
  141.0192   78.5171  217.9674 H   0  0  0  0  0  0  0  0  0  0  0  0
  139.3996   77.5689  219.2566 H   0  0  0  0  0  0  0  0  0  0  0  0
  137.6829   78.4381  221.0068 H   0  0  0  0  0  0  0  0  0  0  0  0
  137.9700   79.9070  223.1820 H   0  0  0  0  0  0  0  0  0  0  0  0
  140.1197   80.9234  224.6228 H   0  0  0  0  0  0  0  0  0  0  0  0
  142.6012   81.0296  224.6957 H   0  0  0  0  0  0  0  0  0  0  0  0
  143.9145   79.8788  222.9465 H   0  0  0  0  0  0  0  0  0  0  0  0
  142.7994   78.6156  221.1058 H   0  0  0  0  0  0  0  0  0  0  0  0
  138.9953   69.9583  222.3189 H   0  0  0  0  0  0  0  0  0  0  0  0
  138.8408   68.5553  224.3630 H   0  0  0  0  0  0  0  0  0  0  0  0
  139.3002   68.1881  226.7398 H   0  0  0  0  0  0  0  0  0  0  0  0
  141.4243   71.2215  228.9128 H   0  0  0  0  0  0  0  0  0  0  0  0
  141.5725   72.6233  226.8510 H   0  0  0  0  0  0  0  0  0  0  0  0
  1  2  2  0
  2  3  1  0
  3  4  1  0
  4  5  1  0
  5  6  2  0
  5  7  1  0
  7  8  1  0
  8  9  1  0
  9 10  1  0
 10 11  1  0
 11 12  1  0
 12 13  2  0
 13 14  1  0
 14 15  1  0
 15 16  2  0
 16 17  1  0
 17 18  2  0
 18 19  1  0
 19 20  2  0
  2 21  1  0
 21 22  2  0
 22 23  1  0
 23 24  2  0
 24 25  1  0
 25 26  2  0
 26 27  1  0
 26 28  1  0
 28 29  2  0
 29 30  1  0
 30 31  2  0
 11  7  1  0
 20 12  1  0
 31 21  1  0
 20 15  1  0
 30 24  1  0
  3 32  1  0
  4 33  1  0
  4 34  1  0
  8 35  1  0
  8 36  1  0
  9 37  1  0
  9 38  1  0
 10 39  1  0
 10 40  1  0
 11 41  1  6
 13 42  1  0
 14 43  1  0
 16 44  1  0
 17 45  1  0
 18 46  1  0
 19 47  1  0
 22 48  1  0
 23 49  1  0
 25 50  1  0
 28 51  1  0
 29 52  1  0
M  END
>  <smiles>  (16) 
O=C(NCC(=O)N1CCC[C@@H]1c1c[nH]c2ccccc12)c1ccc2cc(F)ccc2n1

>  <score_type>  (16) 
oracle

>  <origin>  (16) 
autodockgpu

>  <m_score__min__energy>  (16) 
-9.3499999999999996

>  <m_primary>  (16) 
energy

>  <rmsd>  (16) 
1.862921741926772

>  <m_score__min__rmsd>  (16) 
1.862921741926772

>  <meeko>  (16) 
{"free_energy": -9.09, "intermolecular_energy": -10.58, "internal_energy": -1.52, "cluster_size": 28, "cluster_id": 1, "rank_in_cluster": 8}

>  <energy>  (16) 
-8.91

>  <cluster_rmsd>  (16) 
0.52

>  <cluster>  (16) 
1

$$$$

     RDKit          3D

 52 56  0  0  0  0  0  0  0  0999 V2000
  141.2690   71.9880  221.3090 O   0  0  0  0  0  0  0  0  0  0  0  0
  140.4040   72.3240  222.1630 C   0  0  0  0  0  0  0  0  0  0  0  0
  139.6360   73.5200  222.0010 N   0  0  0  0  0  0  0  0  0  0  0  0
  139.8900   74.3240  220.8230 C   0  0  0  0  0  0  0  0  0  0  0  0
  141.0730   75.2200  221.0310 C   0  0  0  0  0  0  0  0  0  0  0  0
  141.4430   75.3710  222.2240 O   0  0  0  0  0  0  0  0  0  0  0  0
  141.7150   75.8450  219.9250 N   0  0  0  0  0  0  0  0  0  0  0  0
  141.0250   76.5930  218.8930 C   0  0  0  0  0  0  0  0  0  0  0  0
  141.9370   76.2640  217.7120 C   0  0  0  0  0  0  0  0  0  0  0  0
  143.3240   76.1860  218.2950 C   0  0  0  0  0  0  0  0  0  0  0  0
  143.1350   75.8030  219.7080 C   0  0  2  0  0  0  0  0  0  0  0  0
  143.7160   74.4750  220.0450 C   0  0  0  0  0  0  0  0  0  0  0  0
  144.7700   74.1640  220.8770 C   0  0  0  0  0  0  0  0  0  0  0  0
  144.9150   72.8140  220.8540 N   0  0  0  0  0  0  0  0  0  0  0  0
  143.9860   72.2820  220.0360 C   0  0  0  0  0  0  0  0  0  0  0  0
  143.7170   70.9750  219.6760 C   0  0  0  0  0  0  0  0  0  0  0  0
  142.6900   70.6750  218.8020 C   0  0  0  0  0  0  0  0  0  0  0  0
  141.9330   71.7080  218.2900 C   0  0  0  0  0  0  0  0  0  0  0  0
  142.1680   73.0390  218.6240 C   0  0  0  0  0  0  0  0  0  0  0  0
  143.2030   73.2990  219.5000 C   0  0  0  0  0  0  0  0  0  0  0  0
  140.1690   71.4900  223.3440 C   0  0  0  0  0  0  0  0  0  0  0  0
  139.4250   70.3400  223.2350 C   0  0  0  0  0  0  0  0  0  0  0  0
  139.2340   69.5910  224.3820 C   0  0  0  0  0  0  0  0  0  0  0  0
  139.7600   69.9630  225.6040 C   0  0  0  0  0  0  0  0  0  0  0  0
  139.5700   69.2130  226.7560 C   0  0  0  0  0  0  0  0  0  0  0  0
  140.1240   69.6320  227.9690 C   0  0  0  0  0  0  0  0  0  0  0  0
  139.9580   68.9300  229.0980 F   0  0  0  0  0  0  0  0  0  0  0  0
  140.8570   70.7990  227.9890 C   0  0  0  0  0  0  0  0  0  0  0  0
  141.0580   71.5660  226.8410 C   0  0  0  0  0  0  0  0  0  0  0  0
  140.4950   71.1170  225.6620 C   0  0  0  0  0  0  0  0  0  0  0  0
  140.6710   71.8300  224.5510 N   0  0  0  0  0  0  0  0  0  0  0  0
  138.9200   73.8020  222.7050 H   0  0  0  0  0  0  0  0  0  0  0  0
  140.0876   73.6592  219.9692 H   0  0  0  0  0  0  0  0  0  0  0  0
  139.0063   74.9491  220.6273 H   0  0  0  0  0  0  0  0  0  0  0  0
  139.9988   76.2294  218.7359 H   0  0  0  0  0  0  0  0  0  0  0  0
  140.8837   77.6644  219.0985 H   0  0  0  0  0  0  0  0  0  0  0  0
  141.6530   75.3015  217.2616 H   0  0  0  0  0  0  0  0  0  0  0  0
  141.8673   77.0193  216.9154 H   0  0  0  0  0  0  0  0  0  0  0  0
  143.9210   75.4276  217.7674 H   0  0  0  0  0  0  0  0  0  0  0  0
  143.8623   77.1405  218.1986 H   0  0  0  0  0  0  0  0  0  0  0  0
  143.6733   76.4949  220.3725 H   0  0  0  0  0  0  0  0  0  0  0  0
  145.3798   74.8763  221.4522 H   0  0  0  0  0  0  0  0  0  0  0  0
  145.6340   72.2490  221.3840 H   0  0  0  0  0  0  0  0  0  0  0  0
  144.3298   70.1615  220.0916 H   0  0  0  0  0  0  0  0  0  0  0  0
  142.4801   69.6327  218.5200 H   0  0  0  0  0  0  0  0  0  0  0  0
  141.1150   71.4720  217.5934 H   0  0  0  0  0  0  0  0  0  0  0  0
  141.5539   73.8507  218.2068 H   0  0  0  0  0  0  0  0  0  0  0  0
  138.9972   70.0266  222.2713 H   0  0  0  0  0  0  0  0  0  0  0  0
  138.6420   68.6660  224.3189 H   0  0  0  0  0  0  0  0  0  0  0  0
  138.9810   68.2849  226.7144 H   0  0  0  0  0  0  0  0  0  0  0  0
  141.2970   71.1360  228.9392 H   0  0  0  0  0  0  0  0  0  0  0  0
  141.6445   72.4961  226.8735 H   0  0  0  0  0  0  0  0  0  0  0  0
  1  2  2  0
  2  3  1  0
  3  4  1  0
  4  5  1  0
  5  6  2  0
  5  7  1  0
  7  8  1  0
  8  9  1  0
  9 10  1  0
 10 11  1  0
 11 12  1  0
 12 13  2  0
 13 14  1  0
 14 15  1  0
 15 16  2  0
 16 17  1  0
 17 18  2  0
 18 19  1  0
 19 20  2  0
  2 21  1  0
 21 22  2  0
 22 23  1  0
 23 24  2  0
 24 25  1  0
 25 26  2  0
 26 27  1  0
 26 28  1  0
 28 29  2  0
 29 30  1  0
 30 31  2  0
 11  7  1  0
 20 12  1  0
 31 21  1  0
 20 15  1  0
 30 24  1  0
  3 32  1  0
  4 33  1  0
  4 34  1  0
  8 35  1  0
  8 36  1  0
  9 37  1  0
  9 38  1  0
 10 39  1  0
 10 40  1  0
 11 41  1  1
 13 42  1  0
 14 43  1  0
 16 44  1  0
 17 45  1  0
 18 46  1  0
 19 47  1  0
 22 48  1  0
 23 49  1  0
 25 50  1  0
 28 51  1  0
 29 52  1  0
M  END
>  <smiles>  (17) 
O=C(NCC(=O)N1CCC[C@@H]1c1c[nH]c2ccccc12)c1ccc2cc(F)ccc2n1

>  <score_type>  (17) 
oracle

>  <origin>  (17) 
autodockgpu

>  <m_score__min__energy>  (17) 
-9.3499999999999996

>  <m_primary>  (17) 
energy

>  <rmsd>  (17) 
1.937320811863648

>  <m_score__min__rmsd>  (17) 
1.937320811863648

>  <meeko>  (17) 
{"free_energy": -8.28, "intermolecular_energy": -9.77, "internal_energy": -2.13, "cluster_size": 7, "cluster_id": 3, "rank_in_cluster": 5}

>  <energy>  (17) 
-8.88

>  <cluster_rmsd>  (17) 
1.13

>  <cluster>  (17) 
1

$$$$

     RDKit          3D

 52 56  0  0  0  0  0  0  0  0999 V2000
  140.9850   71.9080  221.1220 O   0  0  0  0  0  0  0  0  0  0  0  0
  140.4370   72.3740  222.1580 C   0  0  0  0  0  0  0  0  0  0  0  0
  140.0260   73.7430  222.2190 N   0  0  0  0  0  0  0  0  0  0  0  0
  140.2620   74.5660  221.0510 C   0  0  0  0  0  0  0  0  0  0  0  0
  140.9100   75.8620  221.4290 C   0  0  0  0  0  0  0  0  0  0  0  0
  140.9490   76.1160  222.6620 O   0  0  0  0  0  0  0  0  0  0  0  0
  141.4380   76.7290  220.4330 N   0  0  0  0  0  0  0  0  0  0  0  0
  140.7940   77.9460  219.9790 C   0  0  0  0  0  0  0  0  0  0  0  0
  141.2580   77.9330  218.5240 C   0  0  0  0  0  0  0  0  0  0  0  0
  142.6480   77.3540  218.5590 C   0  0  0  0  0  0  0  0  0  0  0  0
  142.6840   76.4910  219.7570 C   0  0  2  0  0  0  0  0  0  0  0  0
  142.8860   75.0500  219.4430 C   0  0  0  0  0  0  0  0  0  0  0  0
  142.0930   74.1920  218.7120 C   0  0  0  0  0  0  0  0  0  0  0  0
  142.7060   72.9810  218.7120 N   0  0  0  0  0  0  0  0  0  0  0  0
  143.8500   73.0620  219.4180 C   0  0  0  0  0  0  0  0  0  0  0  0
  144.8190   72.1210  219.7130 C   0  0  0  0  0  0  0  0  0  0  0  0
  145.9240   72.4520  220.4730 C   0  0  0  0  0  0  0  0  0  0  0  0
  146.0470   73.7470  220.9340 C   0  0  0  0  0  0  0  0  0  0  0  0
  145.0960   74.7270  220.6630 C   0  0  0  0  0  0  0  0  0  0  0  0
  144.0050   74.3570  219.9020 C   0  0  0  0  0  0  0  0  0  0  0  0
  140.2120   71.5180  223.3240 C   0  0  0  0  0  0  0  0  0  0  0  0
  139.5370   70.3290  223.1830 C   0  0  0  0  0  0  0  0  0  0  0  0
  139.3530   69.5590  224.3180 C   0  0  0  0  0  0  0  0  0  0  0  0
  139.8180   69.9490  225.5590 C   0  0  0  0  0  0  0  0  0  0  0  0
  139.6340   69.1780  226.6980 C   0  0  0  0  0  0  0  0  0  0  0  0
  140.1240   69.6160  227.9310 C   0  0  0  0  0  0  0  0  0  0  0  0
  139.9620   68.8960  229.0490 F   0  0  0  0  0  0  0  0  0  0  0  0
  140.7890   70.8220  227.9840 C   0  0  0  0  0  0  0  0  0  0  0  0
  140.9830   71.6100  226.8500 C   0  0  0  0  0  0  0  0  0  0  0  0
  140.4840   71.1420  225.6490 C   0  0  0  0  0  0  0  0  0  0  0  0
  140.6550   71.8730  224.5500 N   0  0  0  0  0  0  0  0  0  0  0  0
  139.5730   74.1330  223.0750 H   0  0  0  0  0  0  0  0  0  0  0  0
  140.9204   74.0240  220.3562 H   0  0  0  0  0  0  0  0  0  0  0  0
  139.2946   74.7839  220.5749 H   0  0  0  0  0  0  0  0  0  0  0  0
  139.6987   77.8892  220.0632 H   0  0  0  0  0  0  0  0  0  0  0  0
  141.0441   78.8540  220.5473 H   0  0  0  0  0  0  0  0  0  0  0  0
  140.5935   77.3047  217.9126 H   0  0  0  0  0  0  0  0  0  0  0  0
  141.2421   78.9384  218.0780 H   0  0  0  0  0  0  0  0  0  0  0  0
  142.8411   76.7618  217.6523 H   0  0  0  0  0  0  0  0  0  0  0  0
  143.4172   78.1394  218.5977 H   0  0  0  0  0  0  0  0  0  0  0  0
  143.5491   76.7408  220.3888 H   0  0  0  0  0  0  0  0  0  0  0  0
  141.1412   74.4419  218.2204 H   0  0  0  0  0  0  0  0  0  0  0  0
  142.3600   72.1000  218.2410 H   0  0  0  0  0  0  0  0  0  0  0  0
  144.7084   71.0933  219.3368 H   0  0  0  0  0  0  0  0  0  0  0  0
  146.6906   71.6984  220.7061 H   0  0  0  0  0  0  0  0  0  0  0  0
  146.9274   74.0143  221.5368 H   0  0  0  0  0  0  0  0  0  0  0  0
  145.2092   75.7542  221.0398 H   0  0  0  0  0  0  0  0  0  0  0  0
  139.1571   70.0016  222.2040 H   0  0  0  0  0  0  0  0  0  0  0  0
  138.8174   68.6023  224.2289 H   0  0  0  0  0  0  0  0  0  0  0  0
  139.1004   68.2185  226.6299 H   0  0  0  0  0  0  0  0  0  0  0  0
  141.1787   71.1738  228.9506 H   0  0  0  0  0  0  0  0  0  0  0  0
  141.5149   72.5710  226.9092 H   0  0  0  0  0  0  0  0  0  0  0  0
  1  2  2  0
  2  3  1  0
  3  4  1  0
  4  5  1  0
  5  6  2  0
  5  7  1  0
  7  8  1  0
  8  9  1  0
  9 10  1  0
 10 11  1  0
 11 12  1  0
 12 13  2  0
 13 14  1  0
 14 15  1  0
 15 16  2  0
 16 17  1  0
 17 18  2  0
 18 19  1  0
 19 20  2  0
  2 21  1  0
 21 22  2  0
 22 23  1  0
 23 24  2  0
 24 25  1  0
 25 26  2  0
 26 27  1  0
 26 28  1  0
 28 29  2  0
 29 30  1  0
 30 31  2  0
 11  7  1  0
 20 12  1  0
 31 21  1  0
 20 15  1  0
 30 24  1  0
  3 32  1  0
  4 33  1  0
  4 34  1  0
  8 35  1  0
  8 36  1  0
  9 37  1  0
  9 38  1  0
 10 39  1  0
 10 40  1  0
 11 41  1  1
 13 42  1  0
 14 43  1  0
 16 44  1  0
 17 45  1  0
 18 46  1  0
 19 47  1  0
 22 48  1  0
 23 49  1  0
 25 50  1  0
 28 51  1  0
 29 52  1  0
M  END
>  <smiles>  (18) 
O=C(NCC(=O)N1CCC[C@@H]1c1c[nH]c2ccccc12)c1ccc2cc(F)ccc2n1

>  <score_type>  (18) 
oracle

>  <origin>  (18) 
autodockgpu

>  <m_score__min__energy>  (18) 
-9.3499999999999996

>  <m_primary>  (18) 
energy

>  <rmsd>  (18) 
2.063068063201914

>  <m_score__min__rmsd>  (18) 
2.063068063201914

>  <meeko>  (18) 
{"free_energy": -8.67, "intermolecular_energy": -10.16, "internal_energy": -1.89, "cluster_size": 7, "cluster_id": 3, "rank_in_cluster": 3}

>  <energy>  (18) 
-8.86

>  <cluster_rmsd>  (18) 
0.58

>  <cluster>  (18) 
1

$$$$

     RDKit          3D

 52 56  0  0  0  0  0  0  0  0999 V2000
  140.1450   71.4820  220.9540 O   0  0  0  0  0  0  0  0  0  0  0  0
  139.9460   72.0090  222.0830 C   0  0  0  0  0  0  0  0  0  0  0  0
  139.7420   73.4190  222.2110 N   0  0  0  0  0  0  0  0  0  0  0  0
  139.7720   74.2120  220.9990 C   0  0  0  0  0  0  0  0  0  0  0  0
  141.0040   75.0630  220.9440 C   0  0  0  0  0  0  0  0  0  0  0  0
  141.4910   75.3940  222.0560 O   0  0  0  0  0  0  0  0  0  0  0  0
  141.5620   75.4540  219.6950 N   0  0  0  0  0  0  0  0  0  0  0  0
  140.7940   75.9680  218.5790 C   0  0  0  0  0  0  0  0  0  0  0  0
  141.6380   75.4120  217.4330 C   0  0  0  0  0  0  0  0  0  0  0  0
  143.0600   75.4670  217.9290 C   0  0  0  0  0  0  0  0  0  0  0  0
  142.9670   75.3800  219.4000 C   0  0  2  0  0  0  0  0  0  0  0  0
  143.5950   74.1530  219.9610 C   0  0  0  0  0  0  0  0  0  0  0  0
  144.6500   74.0320  220.8410 C   0  0  0  0  0  0  0  0  0  0  0  0
  144.8490   72.7050  221.0490 N   0  0  0  0  0  0  0  0  0  0  0  0
  143.9530   72.0030  220.3280 C   0  0  0  0  0  0  0  0  0  0  0  0
  143.7410   70.6440  220.1940 C   0  0  0  0  0  0  0  0  0  0  0  0
  142.7380   70.1580  219.3770 C   0  0  0  0  0  0  0  0  0  0  0  0
  141.9470   71.0570  218.6920 C   0  0  0  0  0  0  0  0  0  0  0  0
  142.1250   72.4340  218.7960 C   0  0  0  0  0  0  0  0  0  0  0  0
  143.1370   72.8810  219.6210 C   0  0  0  0  0  0  0  0  0  0  0  0
  139.9230   71.1810  223.2910 C   0  0  0  0  0  0  0  0  0  0  0  0
  139.4370   69.8970  223.2330 C   0  0  0  0  0  0  0  0  0  0  0  0
  139.4380   69.1600  224.4040 C   0  0  0  0  0  0  0  0  0  0  0  0
  139.9030   69.6720  225.5990 C   0  0  0  0  0  0  0  0  0  0  0  0
  139.9050   68.9340  226.7750 C   0  0  0  0  0  0  0  0  0  0  0  0
  140.3870   69.4970  227.9600 C   0  0  0  0  0  0  0  0  0  0  0  0
  140.4020   68.8110  229.1100 F   0  0  0  0  0  0  0  0  0  0  0  0
  140.8560   70.7920  227.9280 C   0  0  0  0  0  0  0  0  0  0  0  0
  140.8620   71.5490  226.7570 C   0  0  0  0  0  0  0  0  0  0  0  0
  140.3780   70.9560  225.6070 C   0  0  0  0  0  0  0  0  0  0  0  0
  140.3710   71.6550  224.4740 N   0  0  0  0  0  0  0  0  0  0  0  0
  139.5790   73.8590  223.1430 H   0  0  0  0  0  0  0  0  0  0  0  0
  139.7604   73.5393  220.1287 H   0  0  0  0  0  0  0  0  0  0  0  0
  138.8908   74.8703  220.9892 H   0  0  0  0  0  0  0  0  0  0  0  0
  139.7682   75.5710  218.5663 H   0  0  0  0  0  0  0  0  0  0  0  0
  140.6428   77.0575  218.5702 H   0  0  0  0  0  0  0  0  0  0  0  0
  141.3477   74.3753  217.2075 H   0  0  0  0  0  0  0  0  0  0  0  0
  141.5029   75.9874  216.5053 H   0  0  0  0  0  0  0  0  0  0  0  0
  143.6397   74.6218  217.5296 H   0  0  0  0  0  0  0  0  0  0  0  0
  143.5703   76.3862  217.6055 H   0  0  0  0  0  0  0  0  0  0  0  0
  143.5305   76.1972  219.8739 H   0  0  0  0  0  0  0  0  0  0  0  0
  145.2231   74.8564  221.2904 H   0  0  0  0  0  0  0  0  0  0  0  0
  145.5820   72.2690  221.6720 H   0  0  0  0  0  0  0  0  0  0  0  0
  144.3800   69.9388  220.7457 H   0  0  0  0  0  0  0  0  0  0  0  0
  142.5735   69.0752  219.2748 H   0  0  0  0  0  0  0  0  0  0  0  0
  141.1479   70.6726  218.0410 H   0  0  0  0  0  0  0  0  0  0  0  0
  141.4849   73.1371  218.2430 H   0  0  0  0  0  0  0  0  0  0  0  0
  139.0613   69.4711  222.2910 H   0  0  0  0  0  0  0  0  0  0  0  0
  139.0546   68.1292  224.3821 H   0  0  0  0  0  0  0  0  0  0  0  0
  139.5255   67.9015  226.7741 H   0  0  0  0  0  0  0  0  0  0  0  0
  141.2379   71.2431  228.8557 H   0  0  0  0  0  0  0  0  0  0  0  0
  141.2390   72.5824  226.7492 H   0  0  0  0  0  0  0  0  0  0  0  0
  1  2  2  0
  2  3  1  0
  3  4  1  0
  4  5  1  0
  5  6  2  0
  5  7  1  0
  7  8  1  0
  8  9  1  0
  9 10  1  0
 10 11  1  0
 11 12  1  0
 12 13  2  0
 13 14  1  0
 14 15  1  0
 15 16  2  0
 16 17  1  0
 17 18  2  0
 18 19  1  0
 19 20  2  0
  2 21  1  0
 21 22  2  0
 22 23  1  0
 23 24  2  0
 24 25  1  0
 25 26  2  0
 26 27  1  0
 26 28  1  0
 28 29  2  0
 29 30  1  0
 30 31  2  0
 11  7  1  0
 20 12  1  0
 31 21  1  0
 20 15  1  0
 30 24  1  0
  3 32  1  0
  4 33  1  0
  4 34  1  0
  8 35  1  0
  8 36  1  0
  9 37  1  0
  9 38  1  0
 10 39  1  0
 10 40  1  0
 11 41  1  1
 13 42  1  0
 14 43  1  0
 16 44  1  0
 17 45  1  0
 18 46  1  0
 19 47  1  0
 22 48  1  0
 23 49  1  0
 25 50  1  0
 28 51  1  0
 29 52  1  0
M  END
>  <smiles>  (19) 
O=C(NCC(=O)N1CCC[C@@H]1c1c[nH]c2ccccc12)c1ccc2cc(F)ccc2n1

>  <score_type>  (19) 
oracle

>  <origin>  (19) 
autodockgpu

>  <m_score__min__energy>  (19) 
-9.3499999999999996

>  <m_primary>  (19) 
energy

>  <rmsd>  (19) 
1.7774943316843248

>  <m_score__min__rmsd>  (19) 
1.7774943316843248

>  <meeko>  (19) 
{"free_energy": -7.86, "intermolecular_energy": -9.35, "internal_energy": -2.37, "cluster_size": 7, "cluster_id": 3, "rank_in_cluster": 7}

>  <energy>  (19) 
-8.83

>  <cluster_rmsd>  (19) 
0.56

>  <cluster>  (19) 
1

$$$$

     RDKit          3D

 52 56  0  0  0  0  0  0  0  0999 V2000
  138.8290   73.0640  222.0390 O   0  0  0  0  0  0  0  0  0  0  0  0
  139.8620   72.4000  222.3280 C   0  0  0  0  0  0  0  0  0  0  0  0
  141.0510   72.5090  221.5400 N   0  0  0  0  0  0  0  0  0  0  0  0
  141.0220   73.4080  220.4050 C   0  0  0  0  0  0  0  0  0  0  0  0
  141.2310   74.8270  220.8390 C   0  0  0  0  0  0  0  0  0  0  0  0
  141.1140   75.0450  222.0740 O   0  0  0  0  0  0  0  0  0  0  0  0
  141.5390   75.8400  219.8900 N   0  0  0  0  0  0  0  0  0  0  0  0
  142.7090   75.8330  219.0340 C   0  0  0  0  0  0  0  0  0  0  0  0
  142.9490   77.3390  218.9450 C   0  0  0  0  0  0  0  0  0  0  0  0
  141.5750   77.9570  218.9510 C   0  0  0  0  0  0  0  0  0  0  0  0
  140.7150   76.9970  219.6720 C   0  0  2  0  0  0  0  0  0  0  0  0
  140.1600   77.5390  220.9420 C   0  0  0  0  0  0  0  0  0  0  0  0
  138.9130   77.3560  221.5020 C   0  0  0  0  0  0  0  0  0  0  0  0
  138.8900   78.0560  222.6660 N   0  0  0  0  0  0  0  0  0  0  0  0
  140.0790   78.6630  222.8430 C   0  0  0  0  0  0  0  0  0  0  0  0
  140.5550   79.4790  223.8520 C   0  0  0  0  0  0  0  0  0  0  0  0
  141.8380   79.9910  223.8070 C   0  0  0  0  0  0  0  0  0  0  0  0
  142.6410   79.6720  222.7320 C   0  0  0  0  0  0  0  0  0  0  0  0
  142.2040   78.8550  221.6930 C   0  0  0  0  0  0  0  0  0  0  0  0
  140.9170   78.3630  221.7730 C   0  0  0  0  0  0  0  0  0  0  0  0
  139.8610   71.4980  223.4820 C   0  0  0  0  0  0  0  0  0  0  0  0
  139.2720   70.2600  223.3850 C   0  0  0  0  0  0  0  0  0  0  0  0
  139.3000   69.4490  224.5050 C   0  0  0  0  0  0  0  0  0  0  0  0
  139.8900   69.8450  225.6900 C   0  0  0  0  0  0  0  0  0  0  0  0
  139.9180   69.0320  226.8140 C   0  0  0  0  0  0  0  0  0  0  0  0
  140.5270   69.4790  227.9900 C   0  0  0  0  0  0  0  0  0  0  0  0
  140.5720   68.7190  229.0920 F   0  0  0  0  0  0  0  0  0  0  0  0
  141.0940   70.7350  228.0010 C   0  0  0  0  0  0  0  0  0  0  0  0
  141.0740   71.5660  226.8810 C   0  0  0  0  0  0  0  0  0  0  0  0
  140.4630   71.0870  225.7380 C   0  0  0  0  0  0  0  0  0  0  0  0
  140.4290   71.8580  224.6530 N   0  0  0  0  0  0  0  0  0  0  0  0
  141.9070   71.9610  221.7760 H   0  0  0  0  0  0  0  0  0  0  0  0
  141.8194   73.1256  219.7019 H   0  0  0  0  0  0  0  0  0  0  0  0
  140.0370   73.3306  219.9215 H   0  0  0  0  0  0  0  0  0  0  0  0
  143.5564   75.3070  219.4980 H   0  0  0  0  0  0  0  0  0  0  0  0
  142.5874   75.3156  218.0709 H   0  0  0  0  0  0  0  0  0  0  0  0
  143.5333   77.6885  219.8089 H   0  0  0  0  0  0  0  0  0  0  0  0
  143.5199   77.6127  218.0454 H   0  0  0  0  0  0  0  0  0  0  0  0
  141.5912   78.9256  219.4721 H   0  0  0  0  0  0  0  0  0  0  0  0
  141.2086   78.1482  217.9316 H   0  0  0  0  0  0  0  0  0  0  0  0
  139.8191   76.7576  219.0804 H   0  0  0  0  0  0  0  0  0  0  0  0
  138.0912   76.7558  221.0844 H   0  0  0  0  0  0  0  0  0  0  0  0
  138.0800   78.1270  223.3410 H   0  0  0  0  0  0  0  0  0  0  0  0
  139.9031   79.7245  224.7033 H   0  0  0  0  0  0  0  0  0  0  0  0
  142.2113   80.6402  224.6127 H   0  0  0  0  0  0  0  0  0  0  0  0
  143.6629   80.0775  222.6943 H   0  0  0  0  0  0  0  0  0  0  0  0
  142.8579   78.6114  220.8427 H   0  0  0  0  0  0  0  0  0  0  0  0
  138.7959   69.9265  222.4511 H   0  0  0  0  0  0  0  0  0  0  0  0
  138.8360   68.4531  224.4504 H   0  0  0  0  0  0  0  0  0  0  0  0
  139.4596   68.0327  226.7795 H   0  0  0  0  0  0  0  0  0  0  0  0
  141.5774   71.0933  228.9218 H   0  0  0  0  0  0  0  0  0  0  0  0
  141.5286   72.5673  226.9067 H   0  0  0  0  0  0  0  0  0  0  0  0
  1  2  2  0
  2  3  1  0
  3  4  1  0
  4  5  1  0
  5  6  2  0
  5  7  1  0
  7  8  1  0
  8  9  1  0
  9 10  1  0
 10 11  1  0
 11 12  1  0
 12 13  2  0
 13 14  1  0
 14 15  1  0
 15 16  2  0
 16 17  1  0
 17 18  2  0
 18 19  1  0
 19 20  2  0
  2 21  1  0
 21 22  2  0
 22 23  1  0
 23 24  2  0
 24 25  1  0
 25 26  2  0
 26 27  1  0
 26 28  1  0
 28 29  2  0
 29 30  1  0
 30 31  2  0
 11  7  1  0
 20 12  1  0
 31 21  1  0
 20 15  1  0
 30 24  1  0
  3 32  1  0
  4 33  1  0
  4 34  1  0
  8 35  1  0
  8 36  1  0
  9 37  1  0
  9 38  1  0
 10 39  1  0
 10 40  1  0
 11 41  1  6
 13 42  1  0
 14 43  1  0
 16 44  1  0
 17 45  1  0
 18 46  1  0
 19 47  1  0
 22 48  1  0
 23 49  1  0
 25 50  1  0
 28 51  1  0
 29 52  1  0
M  END
>  <smiles>  (20) 
O=C(NCC(=O)N1CCC[C@@H]1c1c[nH]c2ccccc12)c1ccc2cc(F)ccc2n1

>  <score_type>  (20) 
oracle

>  <origin>  (20) 
autodockgpu

>  <m_score__min__energy>  (20) 
-9.3499999999999996

>  <m_primary>  (20) 
energy

>  <rmsd>  (20) 
2.163921992487467

>  <m_score__min__rmsd>  (20) 
2.163921992487467

>  <meeko>  (20) 
{"free_energy": -8.72, "intermolecular_energy": -10.21, "internal_energy": -1.3, "cluster_size": 28, "cluster_id": 1, "rank_in_cluster": 20}

>  <energy>  (20) 
-8.72

>  <cluster_rmsd>  (20) 
1.29

>  <cluster>  (20) 
1

$$$$

     RDKit          3D

 52 56  0  0  0  0  0  0  0  0999 V2000
  138.9590   71.2040  221.1550 O   0  0  0  0  0  0  0  0  0  0  0  0
  139.3350   71.7060  222.2490 C   0  0  0  0  0  0  0  0  0  0  0  0
  139.6290   73.1020  222.3560 N   0  0  0  0  0  0  0  0  0  0  0  0
  139.4780   73.9110  221.1650 C   0  0  0  0  0  0  0  0  0  0  0  0
  140.3260   75.1430  221.2420 C   0  0  0  0  0  0  0  0  0  0  0  0
  140.9050   75.3420  222.3420 O   0  0  0  0  0  0  0  0  0  0  0  0
  140.4460   76.0140  220.1230 N   0  0  0  0  0  0  0  0  0  0  0  0
  141.3760   75.8190  219.0280 C   0  0  0  0  0  0  0  0  0  0  0  0
  141.6580   77.2820  218.6920 C   0  0  0  0  0  0  0  0  0  0  0  0
  140.3570   78.0000  218.9360 C   0  0  0  0  0  0  0  0  0  0  0  0
  139.6500   77.1980  219.9540 C   0  0  2  0  0  0  0  0  0  0  0  0
  139.4410   77.9230  221.2380 C   0  0  0  0  0  0  0  0  0  0  0  0
  138.2840   78.1000  221.9660 C   0  0  0  0  0  0  0  0  0  0  0  0
  138.6080   78.8320  223.0620 N   0  0  0  0  0  0  0  0  0  0  0  0
  139.9250   79.1130  223.0350 C   0  0  0  0  0  0  0  0  0  0  0  0
  140.7340   79.8190  223.9050 C   0  0  0  0  0  0  0  0  0  0  0  0
  142.0850   79.9730  223.6550 C   0  0  0  0  0  0  0  0  0  0  0  0
  142.6150   79.4070  222.5140 C   0  0  0  0  0  0  0  0  0  0  0  0
  141.8390   78.6880  221.6100 C   0  0  0  0  0  0  0  0  0  0  0  0
  140.4950   78.5560  221.8950 C   0  0  0  0  0  0  0  0  0  0  0  0
  139.4790   70.8610  223.4380 C   0  0  0  0  0  0  0  0  0  0  0  0
  139.0640   69.5520  223.4040 C   0  0  0  0  0  0  0  0  0  0  0  0
  139.2240   68.8000  224.5540 C   0  0  0  0  0  0  0  0  0  0  0  0
  139.7760   69.3230  225.7070 C   0  0  0  0  0  0  0  0  0  0  0  0
  139.9370   68.5700  226.8620 C   0  0  0  0  0  0  0  0  0  0  0  0
  140.5010   69.1450  228.0040 C   0  0  0  0  0  0  0  0  0  0  0  0
  140.6700   68.4460  229.1340 F   0  0  0  0  0  0  0  0  0  0  0  0
  140.8910   70.4660  227.9520 C   0  0  0  0  0  0  0  0  0  0  0  0
  140.7370   71.2380  226.8000 C   0  0  0  0  0  0  0  0  0  0  0  0
  140.1750   70.6330  225.6920 C   0  0  0  0  0  0  0  0  0  0  0  0
  140.0150   71.3450  224.5790 N   0  0  0  0  0  0  0  0  0  0  0  0
  139.9410   73.5190  223.2600 H   0  0  0  0  0  0  0  0  0  0  0  0
  139.7808   73.3201  220.2880 H   0  0  0  0  0  0  0  0  0  0  0  0
  138.4245   74.2155  221.0794 H   0  0  0  0  0  0  0  0  0  0  0  0
  142.2840   75.2866  219.3476 H   0  0  0  0  0  0  0  0  0  0  0  0
  141.0040   75.2050  218.1945 H   0  0  0  0  0  0  0  0  0  0  0  0
  142.4480   77.6824  219.3443 H   0  0  0  0  0  0  0  0  0  0  0  0
  142.0088   77.4063  217.6569 H   0  0  0  0  0  0  0  0  0  0  0  0
  140.5435   79.0177  219.3095 H   0  0  0  0  0  0  0  0  0  0  0  0
  139.7668   78.1010  218.0132 H   0  0  0  0  0  0  0  0  0  0  0  0
  138.6282   76.9623  219.6218 H   0  0  0  0  0  0  0  0  0  0  0  0
  137.2850   77.7192  221.7071 H   0  0  0  0  0  0  0  0  0  0  0  0
  137.9500   79.1440  223.8280 H   0  0  0  0  0  0  0  0  0  0  0  0
  140.2964   80.2652  224.8102 H   0  0  0  0  0  0  0  0  0  0  0  0
  142.7242   80.5353  224.3516 H   0  0  0  0  0  0  0  0  0  0  0  0
  143.6894   79.5284  222.3116 H   0  0  0  0  0  0  0  0  0  0  0  0
  142.2787   78.2430  220.7052 H   0  0  0  0  0  0  0  0  0  0  0  0
  138.6207   69.1177  222.4958 H   0  0  0  0  0  0  0  0  0  0  0  0
  138.9003   67.7487  224.5500 H   0  0  0  0  0  0  0  0  0  0  0  0
  139.6195   67.5169  226.8784 H   0  0  0  0  0  0  0  0  0  0  0  0
  141.3373   70.9257  228.8461 H   0  0  0  0  0  0  0  0  0  0  0  0
  141.0520   72.2916  226.7747 H   0  0  0  0  0  0  0  0  0  0  0  0
  1  2  2  0
  2  3  1  0
  3  4  1  0
  4  5  1  0
  5  6  2  0
  5  7  1  0
  7  8  1  0
  8  9  1  0
  9 10  1  0
 10 11  1  0
 11 12  1  0
 12 13  2  0
 13 14  1  0
 14 15  1  0
 15 16  2  0
 16 17  1  0
 17 18  2  0
 18 19  1  0
 19 20  2  0
  2 21  1  0
 21 22  2  0
 22 23  1  0
 23 24  2  0
 24 25  1  0
 25 26  2  0
 26 27  1  0
 26 28  1  0
 28 29  2  0
 29 30  1  0
 30 31  2  0
 11  7  1  0
 20 12  1  0
 31 21  1  0
 20 15  1  0
 30 24  1  0
  3 32  1  0
  4 33  1  0
  4 34  1  0
  8 35  1  0
  8 36  1  0
  9 37  1  0
  9 38  1  0
 10 39  1  0
 10 40  1  0
 11 41  1  6
 13 42  1  0
 14 43  1  0
 16 44  1  0
 17 45  1  0
 18 46  1  0
 19 47  1  0
 22 48  1  0
 23 49  1  0
 25 50  1  0
 28 51  1  0
 29 52  1  0
M  END
>  <smiles>  (21) 
O=C(NCC(=O)N1CCC[C@@H]1c1c[nH]c2ccccc12)c1ccc2cc(F)ccc2n1

>  <score_type>  (21) 
oracle

>  <origin>  (21) 
autodockgpu

>  <m_score__min__energy>  (21) 
-9.3499999999999996

>  <m_primary>  (21) 
energy

>  <rmsd>  (21) 
1.4552070924896443

>  <m_score__min__rmsd>  (21) 
1.4552070924896443

>  <meeko>  (21) 
{"free_energy": -8.3, "intermolecular_energy": -9.79, "internal_energy": -2.13, "cluster_size": 28, "cluster_id": 1, "rank_in_cluster": 26}

>  <energy>  (21) 
-8.69

>  <cluster_rmsd>  (21) 
1.84

>  <cluster>  (21) 
1

$$$$

     RDKit          3D

 52 56  0  0  0  0  0  0  0  0999 V2000
  134.2830   71.0490  223.9250 O   0  0  0  0  0  0  0  0  0  0  0  0
  134.7950   72.0070  224.5650 C   0  0  0  0  0  0  0  0  0  0  0  0
  136.1870   72.3150  224.4400 N   0  0  0  0  0  0  0  0  0  0  0  0
  136.9780   71.4860  223.5530 C   0  0  0  0  0  0  0  0  0  0  0  0
  137.0330   70.0730  224.0460 C   0  0  0  0  0  0  0  0  0  0  0  0
  136.4920   69.8610  225.1630 O   0  0  0  0  0  0  0  0  0  0  0  0
  137.6630   69.0580  223.2750 N   0  0  0  0  0  0  0  0  0  0  0  0
  137.0300   68.3440  222.1830 C   0  0  0  0  0  0  0  0  0  0  0  0
  137.7260   66.9940  222.3460 C   0  0  0  0  0  0  0  0  0  0  0  0
  139.1240   67.3240  222.8010 C   0  0  0  0  0  0  0  0  0  0  0  0
  139.0150   68.6220  223.4960 C   0  0  2  0  0  0  0  0  0  0  0  0
  139.3510   68.5480  224.9440 C   0  0  0  0  0  0  0  0  0  0  0  0
  139.2290   67.4900  225.8200 C   0  0  0  0  0  0  0  0  0  0  0  0
  139.6680   67.9190  227.0310 N   0  0  0  0  0  0  0  0  0  0  0  0
  140.0570   69.2050  226.9320 C   0  0  0  0  0  0  0  0  0  0  0  0
  140.5710   70.0860  227.8650 C   0  0  0  0  0  0  0  0  0  0  0  0
  140.9000   71.3810  227.5150 C   0  0  0  0  0  0  0  0  0  0  0  0
  140.7060   71.7840  226.2100 C   0  0  0  0  0  0  0  0  0  0  0  0
  140.1900   70.9320  225.2370 C   0  0  0  0  0  0  0  0  0  0  0  0
  139.8740   69.6460  225.6250 C   0  0  0  0  0  0  0  0  0  0  0  0
  133.9690   72.8270  225.4550 C   0  0  0  0  0  0  0  0  0  0  0  0
  132.9290   72.2540  226.1460 C   0  0  0  0  0  0  0  0  0  0  0  0
  132.1820   73.0750  226.9720 C   0  0  0  0  0  0  0  0  0  0  0  0
  132.4500   74.4230  227.1130 C   0  0  0  0  0  0  0  0  0  0  0  0
  131.7010   75.2480  227.9410 C   0  0  0  0  0  0  0  0  0  0  0  0
  132.0110   76.6060  228.0490 C   0  0  0  0  0  0  0  0  0  0  0  0
  131.3080   77.4280  228.8390 F   0  0  0  0  0  0  0  0  0  0  0  0
  133.0720   77.0980  227.3190 C   0  0  0  0  0  0  0  0  0  0  0  0
  133.8350   76.2850  226.4820 C   0  0  0  0  0  0  0  0  0  0  0  0
  133.4960   74.9480  226.4030 C   0  0  0  0  0  0  0  0  0  0  0  0
  134.2070   74.1480  225.6110 N   0  0  0  0  0  0  0  0  0  0  0  0
  136.6140   73.1060  224.9680 H   0  0  0  0  0  0  0  0  0  0  0  0
  136.5266   71.4997  222.5500 H   0  0  0  0  0  0  0  0  0  0  0  0
  138.0022   71.8858  223.5201 H   0  0  0  0  0  0  0  0  0  0  0  0
  135.9411   68.2657  222.3175 H   0  0  0  0  0  0  0  0  0  0  0  0
  137.1287   68.8109  221.1919 H   0  0  0  0  0  0  0  0  0  0  0  0
  137.2092   66.3819  223.0998 H   0  0  0  0  0  0  0  0  0  0  0  0
  137.7235   66.4141  221.4113 H   0  0  0  0  0  0  0  0  0  0  0  0
  139.4978   66.5502  223.4876 H   0  0  0  0  0  0  0  0  0  0  0  0
  139.8282   67.3701  221.9572 H   0  0  0  0  0  0  0  0  0  0  0  0
  139.7485   69.3381  223.0972 H   0  0  0  0  0  0  0  0  0  0  0  0
  138.8474   66.4861  225.5821 H   0  0  0  0  0  0  0  0  0  0  0  0
  139.7080   67.3540  227.9230 H   0  0  0  0  0  0  0  0  0  0  0  0
  140.7203   69.7506  228.9019 H   0  0  0  0  0  0  0  0  0  0  0  0
  141.3087   72.0773  228.2621 H   0  0  0  0  0  0  0  0  0  0  0  0
  140.9681   72.8145  225.9282 H   0  0  0  0  0  0  0  0  0  0  0  0
  140.0404   71.2703  224.2011 H   0  0  0  0  0  0  0  0  0  0  0  0
  132.6989   71.1830  226.0463 H   0  0  0  0  0  0  0  0  0  0  0  0
  131.3448   72.6389  227.5366 H   0  0  0  0  0  0  0  0  0  0  0  0
  130.8600   74.8308  228.5144 H   0  0  0  0  0  0  0  0  0  0  0  0
  133.3245   78.1656  227.3995 H   0  0  0  0  0  0  0  0  0  0  0  0
  134.6774   76.6937  225.9047 H   0  0  0  0  0  0  0  0  0  0  0  0
  1  2  2  0
  2  3  1  0
  3  4  1  0
  4  5  1  0
  5  6  2  0
  5  7  1  0
  7  8  1  0
  8  9  1  0
  9 10  1  0
 10 11  1  0
 11 12  1  0
 12 13  2  0
 13 14  1  0
 14 15  1  0
 15 16  2  0
 16 17  1  0
 17 18  2  0
 18 19  1  0
 19 20  2  0
  2 21  1  0
 21 22  2  0
 22 23  1  0
 23 24  2  0
 24 25  1  0
 25 26  2  0
 26 27  1  0
 26 28  1  0
 28 29  2  0
 29 30  1  0
 30 31  2  0
 11  7  1  0
 20 12  1  0
 31 21  1  0
 20 15  1  0
 30 24  1  0
  3 32  1  0
  4 33  1  0
  4 34  1  0
  8 35  1  0
  8 36  1  0
  9 37  1  0
  9 38  1  0
 10 39  1  0
 10 40  1  0
 11 41  1  6
 13 42  1  0
 14 43  1  0
 16 44  1  0
 17 45  1  0
 18 46  1  0
 19 47  1  0
 22 48  1  0
 23 49  1  0
 25 50  1  0
 28 51  1  0
 29 52  1  0
M  END
>  <smiles>  (22) 
O=C(NCC(=O)N1CCC[C@@H]1c1c[nH]c2ccccc12)c1ccc2cc(F)ccc2n1

>  <score_type>  (22) 
oracle

>  <origin>  (22) 
autodockgpu

>  <m_score__min__energy>  (22) 
-9.3499999999999996

>  <m_primary>  (22) 
energy

>  <rmsd>  (22) 
8.556317756642775

>  <m_score__min__rmsd>  (22) 
8.556317756642775

>  <meeko>  (22) 
{"free_energy": -8.58, "intermolecular_energy": -10.08, "internal_energy": -1.62, "cluster_size": 11, "cluster_id": 2, "rank_in_cluster": 7}

>  <energy>  (22) 
-8.69

>  <cluster_rmsd>  (22) 
1.82

>  <cluster>  (22) 
1

$$$$

     RDKit          3D

 52 56  0  0  0  0  0  0  0  0999 V2000
  141.4070   72.6780  221.9640 O   0  0  0  0  0  0  0  0  0  0  0  0
  140.3310   72.5740  222.6120 C   0  0  0  0  0  0  0  0  0  0  0  0
  139.2250   73.4420  222.3450 N   0  0  0  0  0  0  0  0  0  0  0  0
  139.3900   74.4360  221.3050 C   0  0  0  0  0  0  0  0  0  0  0  0
  139.5670   75.8030  221.8930 C   0  0  0  0  0  0  0  0  0  0  0  0
  140.7570   76.1950  222.0200 O   0  0  0  0  0  0  0  0  0  0  0  0
  138.4400   76.5820  222.2740 N   0  0  0  0  0  0  0  0  0  0  0  0
  137.0710   76.1050  222.2610 C   0  0  0  0  0  0  0  0  0  0  0  0
  136.3660   77.4150  221.9150 C   0  0  0  0  0  0  0  0  0  0  0  0
  137.1660   78.4880  222.6050 C   0  0  0  0  0  0  0  0  0  0  0  0
  138.5350   77.9460  222.7180 C   0  0  2  0  0  0  0  0  0  0  0  0
  139.5440   78.7190  221.9450 C   0  0  0  0  0  0  0  0  0  0  0  0
  139.5560   79.0540  220.6070 C   0  0  0  0  0  0  0  0  0  0  0  0
  140.6900   79.7650  220.3820 N   0  0  0  0  0  0  0  0  0  0  0  0
  141.3790   79.8810  221.5340 C   0  0  0  0  0  0  0  0  0  0  0  0
  142.5780   80.5000  221.8320 C   0  0  0  0  0  0  0  0  0  0  0  0
  143.0890   80.4800  223.1160 C   0  0  0  0  0  0  0  0  0  0  0  0
  142.3780   79.8280  224.1020 C   0  0  0  0  0  0  0  0  0  0  0  0
  141.1670   79.1900  223.8470 C   0  0  0  0  0  0  0  0  0  0  0  0
  140.6890   79.2310  222.5530 C   0  0  0  0  0  0  0  0  0  0  0  0
  140.1930   71.5580  223.6580 C   0  0  0  0  0  0  0  0  0  0  0  0
  139.6100   70.3490  223.3670 C   0  0  0  0  0  0  0  0  0  0  0  0
  139.5060   69.4260  224.3930 C   0  0  0  0  0  0  0  0  0  0  0  0
  139.9610   69.6870  225.6710 C   0  0  0  0  0  0  0  0  0  0  0  0
  139.8570   68.7630  226.7010 C   0  0  0  0  0  0  0  0  0  0  0  0
  140.3330   69.0740  227.9770 C   0  0  0  0  0  0  0  0  0  0  0  0
  140.2480   68.2040  228.9920 F   0  0  0  0  0  0  0  0  0  0  0  0
  140.9040   70.3120  228.1820 C   0  0  0  0  0  0  0  0  0  0  0  0
  141.0170   71.2530  227.1590 C   0  0  0  0  0  0  0  0  0  0  0  0
  140.5350   70.9070  225.9120 C   0  0  0  0  0  0  0  0  0  0  0  0
  140.6290   71.7860  224.9160 N   0  0  0  0  0  0  0  0  0  0  0  0
  138.3330   73.3590  222.8790 H   0  0  0  0  0  0  0  0  0  0  0  0
  140.2769   74.1849  220.7046 H   0  0  0  0  0  0  0  0  0  0  0  0
  138.4876   74.4388  220.6760 H   0  0  0  0  0  0  0  0  0  0  0  0
  136.9098   75.3343  221.4929 H   0  0  0  0  0  0  0  0  0  0  0  0
  136.7317   75.6145  223.1853 H   0  0  0  0  0  0  0  0  0  0  0  0
  136.3630   77.5757  220.8268 H   0  0  0  0  0  0  0  0  0  0  0  0
  135.3146   77.4140  222.2383 H   0  0  0  0  0  0  0  0  0  0  0  0
  137.1660   79.4118  222.0079 H   0  0  0  0  0  0  0  0  0  0  0  0
  136.7449   78.7431  223.5886 H   0  0  0  0  0  0  0  0  0  0  0  0
  138.8957   78.0172  223.7547 H   0  0  0  0  0  0  0  0  0  0  0  0
  138.7899   78.7936  219.8618 H   0  0  0  0  0  0  0  0  0  0  0  0
  141.0050   80.1740  219.4590 H   0  0  0  0  0  0  0  0  0  0  0  0
  143.1339   81.0163  221.0355 H   0  0  0  0  0  0  0  0  0  0  0  0
  144.0441   80.9744  223.3472 H   0  0  0  0  0  0  0  0  0  0  0  0
  142.7817   79.8116  225.1251 H   0  0  0  0  0  0  0  0  0  0  0  0
  140.6133   78.6738  224.6451 H   0  0  0  0  0  0  0  0  0  0  0  0
  139.2396   70.1227  222.3563 H   0  0  0  0  0  0  0  0  0  0  0  0
  139.0446   68.4497  224.1834 H   0  0  0  0  0  0  0  0  0  0  0  0
  139.3978   67.7815  226.5119 H   0  0  0  0  0  0  0  0  0  0  0  0
  141.2822   70.5653  229.1834 H   0  0  0  0  0  0  0  0  0  0  0  0
  141.4744   72.2371  227.3392 H   0  0  0  0  0  0  0  0  0  0  0  0
  1  2  2  0
  2  3  1  0
  3  4  1  0
  4  5  1  0
  5  6  2  0
  5  7  1  0
  7  8  1  0
  8  9  1  0
  9 10  1  0
 10 11  1  0
 11 12  1  0
 12 13  2  0
 13 14  1  0
 14 15  1  0
 15 16  2  0
 16 17  1  0
 17 18  2  0
 18 19  1  0
 19 20  2  0
  2 21  1  0
 21 22  2  0
 22 23  1  0
 23 24  2  0
 24 25  1  0
 25 26  2  0
 26 27  1  0
 26 28  1  0
 28 29  2  0
 29 30  1  0
 30 31  2  0
 11  7  1  0
 20 12  1  0
 31 21  1  0
 20 15  1  0
 30 24  1  0
  3 32  1  0
  4 33  1  0
  4 34  1  0
  8 35  1  0
  8 36  1  0
  9 37  1  0
  9 38  1  0
 10 39  1  0
 10 40  1  0
 11 41  1  1
 13 42  1  0
 14 43  1  0
 16 44  1  0
 17 45  1  0
 18 46  1  0
 19 47  1  0
 22 48  1  0
 23 49  1  0
 25 50  1  0
 28 51  1  0
 29 52  1  0
M  END
>  <smiles>  (23) 
O=C(NCC(=O)N1CCC[C@@H]1c1c[nH]c2ccccc12)c1ccc2cc(F)ccc2n1

>  <score_type>  (23) 
oracle

>  <origin>  (23) 
autodockgpu

>  <m_score__min__energy>  (23) 
-9.3499999999999996

>  <m_primary>  (23) 
energy

>  <rmsd>  (23) 
3.023116558892058

>  <m_score__min__rmsd>  (23) 
3.023116558892058

>  <meeko>  (23) 
{"free_energy": -9.16, "intermolecular_energy": -10.65, "internal_energy": -1.29, "cluster_size": 28, "cluster_id": 1, "rank_in_cluster": 5}

>  <energy>  (23) 
-8.62

>  <cluster_rmsd>  (23) 
1.12

>  <cluster>  (23) 
1

$$$$

     RDKit          3D

 52 56  0  0  0  0  0  0  0  0999 V2000
  138.8530   74.7080  221.3400 O   0  0  0  0  0  0  0  0  0  0  0  0
  140.0500   75.0510  221.5370 C   0  0  0  0  0  0  0  0  0  0  0  0
  140.3670   76.3300  222.0930 N   0  0  0  0  0  0  0  0  0  0  0  0
  139.2630   77.2100  222.4190 C   0  0  0  0  0  0  0  0  0  0  0  0
  139.6120   78.6380  222.1320 C   0  0  0  0  0  0  0  0  0  0  0  0
  138.7640   79.2860  221.4630 O   0  0  0  0  0  0  0  0  0  0  0  0
  140.8330   79.1970  222.6010 N   0  0  0  0  0  0  0  0  0  0  0  0
  140.9900   79.8750  223.8720 C   0  0  0  0  0  0  0  0  0  0  0  0
  142.0600   80.8890  223.4700 C   0  0  0  0  0  0  0  0  0  0  0  0
  142.9320   80.1680  222.4760 C   0  0  0  0  0  0  0  0  0  0  0  0
  142.0620   79.1490  221.8560 C   0  0  2  0  0  0  0  0  0  0  0  0
  141.8440   79.3620  220.3990 C   0  0  0  0  0  0  0  0  0  0  0  0
  141.3070   80.4500  219.7430 C   0  0  0  0  0  0  0  0  0  0  0  0
  141.3210   80.1640  218.4160 N   0  0  0  0  0  0  0  0  0  0  0  0
  141.8480   78.9380  218.2310 C   0  0  0  0  0  0  0  0  0  0  0  0
  142.0780   78.1970  217.0870 C   0  0  0  0  0  0  0  0  0  0  0  0
  142.6410   76.9370  217.1560 C   0  0  0  0  0  0  0  0  0  0  0  0
  142.9720   76.4270  218.3940 C   0  0  0  0  0  0  0  0  0  0  0  0
  142.7580   77.1360  219.5730 C   0  0  0  0  0  0  0  0  0  0  0  0
  142.1940   78.3910  219.4630 C   0  0  0  0  0  0  0  0  0  0  0  0
  141.1450   74.1390  221.1960 C   0  0  0  0  0  0  0  0  0  0  0  0
  140.9030   72.7930  221.0670 C   0  0  0  0  0  0  0  0  0  0  0  0
  141.9730   71.9790  220.7440 C   0  0  0  0  0  0  0  0  0  0  0  0
  143.2480   72.4750  220.5550 C   0  0  0  0  0  0  0  0  0  0  0  0
  144.3240   71.6590  220.2310 C   0  0  0  0  0  0  0  0  0  0  0  0
  145.5960   72.2090  220.0500 C   0  0  0  0  0  0  0  0  0  0  0  0
  146.6530   71.4490  219.7380 F   0  0  0  0  0  0  0  0  0  0  0  0
  145.7500   73.5700  220.2000 C   0  0  0  0  0  0  0  0  0  0  0  0
  144.6820   74.4050  220.5250 C   0  0  0  0  0  0  0  0  0  0  0  0
  143.4410   73.8230  220.6950 C   0  0  0  0  0  0  0  0  0  0  0  0
  142.4020   74.5960  221.0060 N   0  0  0  0  0  0  0  0  0  0  0  0
  141.3560   76.6180  222.2560 H   0  0  0  0  0  0  0  0  0  0  0  0
  138.3869   76.9260  221.8176 H   0  0  0  0  0  0  0  0  0  0  0  0
  139.0419   77.1121  223.4921 H   0  0  0  0  0  0  0  0  0  0  0  0
  140.0596   80.3637  224.1967 H   0  0  0  0  0  0  0  0  0  0  0  0
  141.2463   79.2291  224.7247 H   0  0  0  0  0  0  0  0  0  0  0  0
  141.5986   81.7742  223.0079 H   0  0  0  0  0  0  0  0  0  0  0  0
  142.6340   81.2474  224.3372 H   0  0  0  0  0  0  0  0  0  0  0  0
  143.3074   80.8679  221.7149 H   0  0  0  0  0  0  0  0  0  0  0  0
  143.8121   79.7160  222.9568 H   0  0  0  0  0  0  0  0  0  0  0  0
  142.5337   78.1564  221.9027 H   0  0  0  0  0  0  0  0  0  0  0  0
  140.9369   81.3757  220.2078 H   0  0  0  0  0  0  0  0  0  0  0  0
  140.9790   80.7870  217.6340 H   0  0  0  0  0  0  0  0  0  0  0  0
  141.8087   78.6168  216.1066 H   0  0  0  0  0  0  0  0  0  0  0  0
  142.8216   76.3524  216.2419 H   0  0  0  0  0  0  0  0  0  0  0  0
  143.4210   75.4245  218.4519 H   0  0  0  0  0  0  0  0  0  0  0  0
  143.0274   76.7133  220.5521 H   0  0  0  0  0  0  0  0  0  0  0  0
  139.8951   72.3780  221.2152 H   0  0  0  0  0  0  0  0  0  0  0  0
  141.8027   70.8979  220.6337 H   0  0  0  0  0  0  0  0  0  0  0  0
  144.1745   70.5752  220.1164 H   0  0  0  0  0  0  0  0  0  0  0  0
  146.7475   74.0118  220.0588 H   0  0  0  0  0  0  0  0  0  0  0  0
  144.8228   75.4897  220.6420 H   0  0  0  0  0  0  0  0  0  0  0  0
  1  2  2  0
  2  3  1  0
  3  4  1  0
  4  5  1  0
  5  6  2  0
  5  7  1  0
  7  8  1  0
  8  9  1  0
  9 10  1  0
 10 11  1  0
 11 12  1  0
 12 13  2  0
 13 14  1  0
 14 15  1  0
 15 16  2  0
 16 17  1  0
 17 18  2  0
 18 19  1  0
 19 20  2  0
  2 21  1  0
 21 22  2  0
 22 23  1  0
 23 24  2  0
 24 25  1  0
 25 26  2  0
 26 27  1  0
 26 28  1  0
 28 29  2  0
 29 30  1  0
 30 31  2  0
 11  7  1  0
 20 12  1  0
 31 21  1  0
 20 15  1  0
 30 24  1  0
  3 32  1  0
  4 33  1  0
  4 34  1  0
  8 35  1  0
  8 36  1  0
  9 37  1  0
  9 38  1  0
 10 39  1  0
 10 40  1  0
 11 41  1  6
 13 42  1  0
 14 43  1  0
 16 44  1  0
 17 45  1  0
 18 46  1  0
 19 47  1  0
 22 48  1  0
 23 49  1  0
 25 50  1  0
 28 51  1  0
 29 52  1  0
M  END
>  <smiles>  (24) 
O=C(NCC(=O)N1CCC[C@@H]1c1c[nH]c2ccccc12)c1ccc2cc(F)ccc2n1

>  <score_type>  (24) 
oracle

>  <origin>  (24) 
autodockgpu

>  <m_score__min__energy>  (24) 
-9.3499999999999996

>  <m_primary>  (24) 
energy

>  <rmsd>  (24) 
6.504489820015956

>  <m_score__min__rmsd>  (24) 
6.504489820015956

>  <meeko>  (24) 
{"free_energy": -7.16, "intermolecular_energy": -8.65, "internal_energy": -2.47, "cluster_size": 1, "cluster_id": 5, "rank_in_cluster": 1}

>  <energy>  (24) 
-8.6

>  <cluster_rmsd>  (24) 
1.21

>  <cluster>  (24) 
1

$$$$

     RDKit          3D

 52 56  0  0  0  0  0  0  0  0999 V2000
  141.2970   72.4500  221.6680 O   0  0  0  0  0  0  0  0  0  0  0  0
  140.2980   72.4980  222.4350 C   0  0  0  0  0  0  0  0  0  0  0  0
  139.2590   73.4610  222.2300 N   0  0  0  0  0  0  0  0  0  0  0  0
  139.4010   74.3710  221.1120 C   0  0  0  0  0  0  0  0  0  0  0  0
  140.1350   75.6120  221.5200 C   0  0  0  0  0  0  0  0  0  0  0  0
  139.9760   75.9740  222.7150 O   0  0  0  0  0  0  0  0  0  0  0  0
  140.9510   76.3120  220.5900 N   0  0  0  0  0  0  0  0  0  0  0  0
  141.8740   75.6790  219.6680 C   0  0  0  0  0  0  0  0  0  0  0  0
  142.9450   76.7680  219.6180 C   0  0  0  0  0  0  0  0  0  0  0  0
  142.1900   78.0680  219.7240 C   0  0  0  0  0  0  0  0  0  0  0  0
  140.9520   77.7440  220.4600 C   0  0  2  0  0  0  0  0  0  0  0  0
  140.8510   78.4270  221.7790 C   0  0  0  0  0  0  0  0  0  0  0  0
  141.8290   78.6630  222.7210 C   0  0  0  0  0  0  0  0  0  0  0  0
  141.2410   79.3210  223.7530 N   0  0  0  0  0  0  0  0  0  0  0  0
  139.9340   79.4980  223.4800 C   0  0  0  0  0  0  0  0  0  0  0  0
  138.9170   80.1000  224.1970 C   0  0  0  0  0  0  0  0  0  0  0  0
  137.6310   80.1590  223.6950 C   0  0  0  0  0  0  0  0  0  0  0  0
  137.3770   79.6020  222.4580 C   0  0  0  0  0  0  0  0  0  0  0  0
  138.3700   78.9860  221.7010 C   0  0  0  0  0  0  0  0  0  0  0  0
  139.6420   78.9470  222.2360 C   0  0  0  0  0  0  0  0  0  0  0  0
  140.1820   71.5650  223.5580 C   0  0  0  0  0  0  0  0  0  0  0  0
  139.5960   70.3360  223.3720 C   0  0  0  0  0  0  0  0  0  0  0  0
  139.5130   69.4950  224.4670 C   0  0  0  0  0  0  0  0  0  0  0  0
  139.9910   69.8530  225.7120 C   0  0  0  0  0  0  0  0  0  0  0  0
  139.9090   69.0100  226.8110 C   0  0  0  0  0  0  0  0  0  0  0  0
  140.4080   69.4180  228.0510 C   0  0  0  0  0  0  0  0  0  0  0  0
  140.3430   68.6280  229.1310 F   0  0  0  0  0  0  0  0  0  0  0  0
  140.9800   70.6680  228.1500 C   0  0  0  0  0  0  0  0  0  0  0  0
  141.0720   71.5280  227.0570 C   0  0  0  0  0  0  0  0  0  0  0  0
  140.5670   71.0870  225.8480 C   0  0  0  0  0  0  0  0  0  0  0  0
  140.6410   71.8880  224.7870 N   0  0  0  0  0  0  0  0  0  0  0  0
  138.4310   73.5050  222.8630 H   0  0  0  0  0  0  0  0  0  0  0  0
  139.9608   73.8695  220.3088 H   0  0  0  0  0  0  0  0  0  0  0  0
  138.3978   74.6560  220.7623 H   0  0  0  0  0  0  0  0  0  0  0  0
  142.2675   74.7311  220.0638 H   0  0  0  0  0  0  0  0  0  0  0  0
  141.4480   75.3889  218.6962 H   0  0  0  0  0  0  0  0  0  0  0  0
  143.6458   76.6590  220.4588 H   0  0  0  0  0  0  0  0  0  0  0  0
  143.5444   76.7139  218.6972 H   0  0  0  0  0  0  0  0  0  0  0  0
  142.7820   78.8129  220.2760 H   0  0  0  0  0  0  0  0  0  0  0  0
  141.9766   78.4988  218.7346 H   0  0  0  0  0  0  0  0  0  0  0  0
  140.0699   78.1079  219.9127 H   0  0  0  0  0  0  0  0  0  0  0  0
  142.8876   78.3727  222.6501 H   0  0  0  0  0  0  0  0  0  0  0  0
  141.7130   79.6500  224.6400 H   0  0  0  0  0  0  0  0  0  0  0  0
  139.1347   80.5387  225.1820 H   0  0  0  0  0  0  0  0  0  0  0  0
  136.8259   80.6402  224.2697 H   0  0  0  0  0  0  0  0  0  0  0  0
  136.3540   79.6463  222.0560 H   0  0  0  0  0  0  0  0  0  0  0  0
  138.1498   78.5480  220.7163 H   0  0  0  0  0  0  0  0  0  0  0  0
  139.2073   70.0323  222.3888 H   0  0  0  0  0  0  0  0  0  0  0  0
  139.0495   68.5053  224.3415 H   0  0  0  0  0  0  0  0  0  0  0  0
  139.4492   68.0162  226.7058 H   0  0  0  0  0  0  0  0  0  0  0  0
  141.3763   70.9972  229.1219 H   0  0  0  0  0  0  0  0  0  0  0  0
  141.5306   72.5232  227.1531 H   0  0  0  0  0  0  0  0  0  0  0  0
  1  2  2  0
  2  3  1  0
  3  4  1  0
  4  5  1  0
  5  6  2  0
  5  7  1  0
  7  8  1  0
  8  9  1  0
  9 10  1  0
 10 11  1  0
 11 12  1  0
 12 13  2  0
 13 14  1  0
 14 15  1  0
 15 16  2  0
 16 17  1  0
 17 18  2  0
 18 19  1  0
 19 20  2  0
  2 21  1  0
 21 22  2  0
 22 23  1  0
 23 24  2  0
 24 25  1  0
 25 26  2  0
 26 27  1  0
 26 28  1  0
 28 29  2  0
 29 30  1  0
 30 31  2  0
 11  7  1  0
 20 12  1  0
 31 21  1  0
 20 15  1  0
 30 24  1  0
  3 32  1  0
  4 33  1  0
  4 34  1  0
  8 35  1  0
  8 36  1  0
  9 37  1  0
  9 38  1  0
 10 39  1  0
 10 40  1  0
 11 41  1  6
 13 42  1  0
 14 43  1  0
 16 44  1  0
 17 45  1  0
 18 46  1  0
 19 47  1  0
 22 48  1  0
 23 49  1  0
 25 50  1  0
 28 51  1  0
 29 52  1  0
M  END
>  <smiles>  (25) 
O=C(NCC(=O)N1CCC[C@@H]1c1c[nH]c2ccccc12)c1ccc2cc(F)ccc2n1

>  <score_type>  (25) 
oracle

>  <origin>  (25) 
autodockgpu

>  <m_score__min__energy>  (25) 
-9.3499999999999996

>  <m_primary>  (25) 
energy

>  <rmsd>  (25) 
1.9228768536207204

>  <m_score__min__rmsd>  (25) 
1.9228768536207204

>  <meeko>  (25) 
{"free_energy": -8.88, "intermolecular_energy": -10.37, "internal_energy": -1.43, "cluster_size": 28, "cluster_id": 1, "rank_in_cluster": 17}

>  <energy>  (25) 
-8.38

>  <cluster_rmsd>  (25) 
0.96

>  <cluster>  (25) 
1

$$$$

     RDKit          3D

 52 56  0  0  0  0  0  0  0  0999 V2000
  140.2430   71.8020  221.0290 O   0  0  0  0  0  0  0  0  0  0  0  0
  139.9850   72.2990  222.1580 C   0  0  0  0  0  0  0  0  0  0  0  0
  139.7630   73.7050  222.3100 N   0  0  0  0  0  0  0  0  0  0  0  0
  139.8460   74.5270  221.1210 C   0  0  0  0  0  0  0  0  0  0  0  0
  140.5880   75.7990  221.3980 C   0  0  0  0  0  0  0  0  0  0  0  0
  140.6300   76.1570  222.6050 O   0  0  0  0  0  0  0  0  0  0  0  0
  141.1950   76.5320  220.3410 N   0  0  0  0  0  0  0  0  0  0  0  0
  142.0180   75.9440  219.3020 C   0  0  0  0  0  0  0  0  0  0  0  0
  142.9760   77.1100  219.0680 C   0  0  0  0  0  0  0  0  0  0  0  0
  142.1420   78.3500  219.2630 C   0  0  0  0  0  0  0  0  0  0  0  0
  141.0590   77.9540  220.1850 C   0  0  2  0  0  0  0  0  0  0  0  0
  141.1020   78.6690  221.4900 C   0  0  0  0  0  0  0  0  0  0  0  0
  142.1890   79.0310  222.2560 C   0  0  0  0  0  0  0  0  0  0  0  0
  141.7100   79.6630  223.3590 N   0  0  0  0  0  0  0  0  0  0  0  0
  140.3650   79.7020  223.2990 C   0  0  0  0  0  0  0  0  0  0  0  0
  139.4200   80.2250  224.1620 C   0  0  0  0  0  0  0  0  0  0  0  0
  138.0710   80.1400  223.8750 C   0  0  0  0  0  0  0  0  0  0  0  0
  137.6800   79.5190  222.7070 C   0  0  0  0  0  0  0  0  0  0  0  0
  138.5960   78.9770  221.8090 C   0  0  0  0  0  0  0  0  0  0  0  0
  139.9350   79.0820  222.1300 C   0  0  0  0  0  0  0  0  0  0  0  0
  139.9090   71.4420  223.3430 C   0  0  0  0  0  0  0  0  0  0  0  0
  139.3470   70.1910  223.2500 C   0  0  0  0  0  0  0  0  0  0  0  0
  139.3010   69.4240  224.4000 C   0  0  0  0  0  0  0  0  0  0  0  0
  139.7920   69.8750  225.6100 C   0  0  0  0  0  0  0  0  0  0  0  0
  139.7460   69.1060  226.7650 C   0  0  0  0  0  0  0  0  0  0  0  0
  140.2560   69.6070  227.9650 C   0  0  0  0  0  0  0  0  0  0  0  0
  140.2270   68.8910  229.0960 F   0  0  0  0  0  0  0  0  0  0  0  0
  140.8020   70.8730  227.9700 C   0  0  0  0  0  0  0  0  0  0  0  0
  140.8570   71.6600  226.8200 C   0  0  0  0  0  0  0  0  0  0  0  0
  140.3420   71.1280  225.6530 C   0  0  0  0  0  0  0  0  0  0  0  0
  140.3800   71.8570  224.5390 N   0  0  0  0  0  0  0  0  0  0  0  0
  139.5500   74.1200  223.2430 H   0  0  0  0  0  0  0  0  0  0  0  0
  140.3722   73.9679  220.3332 H   0  0  0  0  0  0  0  0  0  0  0  0
  138.8254   74.7800  220.7980 H   0  0  0  0  0  0  0  0  0  0  0  0
  142.5428   75.0428  219.6520 H   0  0  0  0  0  0  0  0  0  0  0  0
  141.4761   75.5909  218.4122 H   0  0  0  0  0  0  0  0  0  0  0  0
  143.8021   77.0824  219.7937 H   0  0  0  0  0  0  0  0  0  0  0  0
  143.4321   77.0737  218.0677 H   0  0  0  0  0  0  0  0  0  0  0  0
  142.7475   79.1555  219.7041 H   0  0  0  0  0  0  0  0  0  0  0  0
  141.7480   78.7317  218.3096 H   0  0  0  0  0  0  0  0  0  0  0  0
  140.0776   78.2300  219.7720 H   0  0  0  0  0  0  0  0  0  0  0  0
  143.2466   78.8433  222.0187 H   0  0  0  0  0  0  0  0  0  0  0  0
  142.2820   80.0670  224.1510 H   0  0  0  0  0  0  0  0  0  0  0  0
  139.7467   80.7159  225.0906 H   0  0  0  0  0  0  0  0  0  0  0  0
  137.3235   80.5594  224.5645 H   0  0  0  0  0  0  0  0  0  0  0  0
  136.6066   79.4495  222.4768 H   0  0  0  0  0  0  0  0  0  0  0  0
  138.2664   78.4853  220.8818 H   0  0  0  0  0  0  0  0  0  0  0  0
  138.9487   69.8140  222.2965 H   0  0  0  0  0  0  0  0  0  0  0  0
  138.8575   68.4187  224.3494 H   0  0  0  0  0  0  0  0  0  0  0  0
  139.3062   68.0982  226.7350 H   0  0  0  0  0  0  0  0  0  0  0  0
  141.2069   71.2749  228.9105 H   0  0  0  0  0  0  0  0  0  0  0  0
  141.2949   72.6689  226.8410 H   0  0  0  0  0  0  0  0  0  0  0  0
  1  2  2  0
  2  3  1  0
  3  4  1  0
  4  5  1  0
  5  6  2  0
  5  7  1  0
  7  8  1  0
  8  9  1  0
  9 10  1  0
 10 11  1  0
 11 12  1  0
 12 13  2  0
 13 14  1  0
 14 15  1  0
 15 16  2  0
 16 17  1  0
 17 18  2  0
 18 19  1  0
 19 20  2  0
  2 21  1  0
 21 22  2  0
 22 23  1  0
 23 24  2  0
 24 25  1  0
 25 26  2  0
 26 27  1  0
 26 28  1  0
 28 29  2  0
 29 30  1  0
 30 31  2  0
 11  7  1  0
 20 12  1  0
 31 21  1  0
 20 15  1  0
 30 24  1  0
  3 32  1  0
  4 33  1  0
  4 34  1  0
  8 35  1  0
  8 36  1  0
  9 37  1  0
  9 38  1  0
 10 39  1  0
 10 40  1  0
 11 41  1  6
 13 42  1  0
 14 43  1  0
 16 44  1  0
 17 45  1  0
 18 46  1  0
 19 47  1  0
 22 48  1  0
 23 49  1  0
 25 50  1  0
 28 51  1  0
 29 52  1  0
M  END
>  <smiles>  (26) 
O=C(NCC(=O)N1CCC[C@@H]1c1c[nH]c2ccccc12)c1ccc2cc(F)ccc2n1

>  <score_type>  (26) 
oracle

>  <origin>  (26) 
autodockgpu

>  <m_score__min__energy>  (26) 
-9.3499999999999996

>  <m_primary>  (26) 
energy

>  <rmsd>  (26) 
1.8970240738560615

>  <m_score__min__rmsd>  (26) 
1.8970240738560615

>  <meeko>  (26) 
{"free_energy": -8.6, "intermolecular_energy": -10.09, "internal_energy": -1.78, "cluster_size": 28, "cluster_id": 1, "rank_in_cluster": 24}

>  <energy>  (26) 
-8.3

>  <cluster_rmsd>  (26) 
0.94

>  <cluster>  (26) 
1

$$$$

     RDKit          3D

 52 56  0  0  0  0  0  0  0  0999 V2000
  141.2330   72.6210  221.7490 O   0  0  0  0  0  0  0  0  0  0  0  0
  140.2070   72.5790  222.4810 C   0  0  0  0  0  0  0  0  0  0  0  0
  139.1090   73.4690  222.2590 N   0  0  0  0  0  0  0  0  0  0  0  0
  139.2220   74.4130  221.1670 C   0  0  0  0  0  0  0  0  0  0  0  0
  140.1960   75.5030  221.4980 C   0  0  0  0  0  0  0  0  0  0  0  0
  140.2440   75.8450  222.7090 O   0  0  0  0  0  0  0  0  0  0  0  0
  140.9990   76.0940  220.4840 N   0  0  0  0  0  0  0  0  0  0  0  0
  142.2420   75.5320  219.9920 C   0  0  0  0  0  0  0  0  0  0  0  0
  142.9790   76.8310  219.6720 C   0  0  0  0  0  0  0  0  0  0  0  0
  141.9140   77.7800  219.1870 C   0  0  0  0  0  0  0  0  0  0  0  0
  140.6640   77.3280  219.8280 C   0  0  2  0  0  0  0  0  0  0  0  0
  140.0860   78.3260  220.7690 C   0  0  0  0  0  0  0  0  0  0  0  0
  138.7920   78.7900  220.8690 C   0  0  0  0  0  0  0  0  0  0  0  0
  138.7660   79.6910  221.8830 N   0  0  0  0  0  0  0  0  0  0  0  0
  140.0000   79.8000  222.4130 C   0  0  0  0  0  0  0  0  0  0  0  0
  140.4940   80.5700  223.4490 C   0  0  0  0  0  0  0  0  0  0  0  0
  141.8250   80.5040  223.8130 C   0  0  0  0  0  0  0  0  0  0  0  0
  142.6590   79.6510  223.1210 C   0  0  0  0  0  0  0  0  0  0  0  0
  142.2070   78.8570  222.0710 C   0  0  0  0  0  0  0  0  0  0  0  0
  140.8710   78.9500  221.7360 C   0  0  0  0  0  0  0  0  0  0  0  0
  140.1210   71.6140  223.5790 C   0  0  0  0  0  0  0  0  0  0  0  0
  139.5400   70.3870  223.3700 C   0  0  0  0  0  0  0  0  0  0  0  0
  139.4850   69.5140  224.4410 C   0  0  0  0  0  0  0  0  0  0  0  0
  139.9880   69.8390  225.6860 C   0  0  0  0  0  0  0  0  0  0  0  0
  139.9340   68.9650  226.7620 C   0  0  0  0  0  0  0  0  0  0  0  0
  140.4570   69.3410  228.0030 C   0  0  0  0  0  0  0  0  0  0  0  0
  140.4200   68.5200  229.0600 F   0  0  0  0  0  0  0  0  0  0  0  0
  141.0230   70.5920  228.1250 C   0  0  0  0  0  0  0  0  0  0  0  0
  141.0860   71.4840  227.0550 C   0  0  0  0  0  0  0  0  0  0  0  0
  140.5580   71.0740  225.8460 C   0  0  0  0  0  0  0  0  0  0  0  0
  140.6040   71.9050  224.8060 N   0  0  0  0  0  0  0  0  0  0  0  0
  138.2590   73.4380  222.8630 H   0  0  0  0  0  0  0  0  0  0  0  0
  139.5676   73.8827  220.2674 H   0  0  0  0  0  0  0  0  0  0  0  0
  138.2351   74.8661  220.9919 H   0  0  0  0  0  0  0  0  0  0  0  0
  142.7612   74.9416  220.7614 H   0  0  0  0  0  0  0  0  0  0  0  0
  142.1438   74.8245  219.1555 H   0  0  0  0  0  0  0  0  0  0  0  0
  143.4688   77.2287  220.5731 H   0  0  0  0  0  0  0  0  0  0  0  0
  143.7692   76.6813  218.9215 H   0  0  0  0  0  0  0  0  0  0  0  0
  142.1505   78.8108  219.4894 H   0  0  0  0  0  0  0  0  0  0  0  0
  141.8344   77.7790  218.0899 H   0  0  0  0  0  0  0  0  0  0  0  0
  139.8709   77.1926  219.0779 H   0  0  0  0  0  0  0  0  0  0  0  0
  137.9396   78.4865  220.2435 H   0  0  0  0  0  0  0  0  0  0  0  0
  137.9250   80.2350  222.2220 H   0  0  0  0  0  0  0  0  0  0  0  0
  139.8169   81.2458  223.9921 H   0  0  0  0  0  0  0  0  0  0  0  0
  142.2120   81.1196  224.6384 H   0  0  0  0  0  0  0  0  0  0  0  0
  143.7192   79.5962  223.4092 H   0  0  0  0  0  0  0  0  0  0  0  0
  142.8869   78.1826  221.5299 H   0  0  0  0  0  0  0  0  0  0  0  0
  139.1333   70.1090  222.3865 H   0  0  0  0  0  0  0  0  0  0  0  0
  139.0244   68.5256  224.2965 H   0  0  0  0  0  0  0  0  0  0  0  0
  139.4777   67.9718  226.6383 H   0  0  0  0  0  0  0  0  0  0  0  0
  141.4381   70.8963  229.0972 H   0  0  0  0  0  0  0  0  0  0  0  0
  141.5402   72.4793  227.1696 H   0  0  0  0  0  0  0  0  0  0  0  0
  1  2  2  0
  2  3  1  0
  3  4  1  0
  4  5  1  0
  5  6  2  0
  5  7  1  0
  7  8  1  0
  8  9  1  0
  9 10  1  0
 10 11  1  0
 11 12  1  0
 12 13  2  0
 13 14  1  0
 14 15  1  0
 15 16  2  0
 16 17  1  0
 17 18  2  0
 18 19  1  0
 19 20  2  0
  2 21  1  0
 21 22  2  0
 22 23  1  0
 23 24  2  0
 24 25  1  0
 25 26  2  0
 26 27  1  0
 26 28  1  0
 28 29  2  0
 29 30  1  0
 30 31  2  0
 11  7  1  0
 20 12  1  0
 31 21  1  0
 20 15  1  0
 30 24  1  0
  3 32  1  0
  4 33  1  0
  4 34  1  0
  8 35  1  0
  8 36  1  0
  9 37  1  0
  9 38  1  0
 10 39  1  0
 10 40  1  0
 11 41  1  6
 13 42  1  0
 14 43  1  0
 16 44  1  0
 17 45  1  0
 18 46  1  0
 19 47  1  0
 22 48  1  0
 23 49  1  0
 25 50  1  0
 28 51  1  0
 29 52  1  0
M  END
>  <smiles>  (27) 
O=C(NCC(=O)N1CCC[C@@H]1c1c[nH]c2ccccc12)c1ccc2cc(F)ccc2n1

>  <score_type>  (27) 
oracle

>  <origin>  (27) 
autodockgpu

>  <m_score__min__energy>  (27) 
-9.3499999999999996

>  <m_primary>  (27) 
energy

>  <rmsd>  (27) 
1.92084067517393

>  <m_score__min__rmsd>  (27) 
1.92084067517393

>  <meeko>  (27) 
{"free_energy": -9.12, "intermolecular_energy": -10.62, "internal_energy": -1.51, "cluster_size": 28, "cluster_id": 1, "rank_in_cluster": 7}

>  <energy>  (27) 
-8.13

>  <cluster_rmsd>  (27) 
0.94

>  <cluster>  (27) 
1

$$$$

     RDKit          3D

 52 56  0  0  0  0  0  0  0  0999 V2000
  133.8600   69.7280  226.7640 O   0  0  0  0  0  0  0  0  0  0  0  0
  134.1460   70.8560  226.2780 C   0  0  0  0  0  0  0  0  0  0  0  0
  135.2190   71.0040  225.3430 N   0  0  0  0  0  0  0  0  0  0  0  0
  135.9580   69.8130  224.9800 C   0  0  0  0  0  0  0  0  0  0  0  0
  137.0620   70.1380  224.0200 C   0  0  0  0  0  0  0  0  0  0  0  0
  137.3740   71.3550  223.9360 O   0  0  0  0  0  0  0  0  0  0  0  0
  137.6970   69.1120  223.2670 N   0  0  0  0  0  0  0  0  0  0  0  0
  137.0790   68.4040  222.1630 C   0  0  0  0  0  0  0  0  0  0  0  0
  137.7520   67.0450  222.3460 C   0  0  0  0  0  0  0  0  0  0  0  0
  139.1440   67.3560  222.8330 C   0  0  0  0  0  0  0  0  0  0  0  0
  139.0370   68.6580  223.5210 C   0  0  2  0  0  0  0  0  0  0  0  0
  139.3380   68.5850  224.9770 C   0  0  0  0  0  0  0  0  0  0  0  0
  139.1870   67.5290  225.8510 C   0  0  0  0  0  0  0  0  0  0  0  0
  139.6010   67.9580  227.0720 N   0  0  0  0  0  0  0  0  0  0  0  0
  140.0010   69.2400  226.9800 C   0  0  0  0  0  0  0  0  0  0  0  0
  140.4990   70.1190  227.9240 C   0  0  0  0  0  0  0  0  0  0  0  0
  140.8460   71.4120  227.5790 C   0  0  0  0  0  0  0  0  0  0  0  0
  140.6860   71.8130  226.2690 C   0  0  0  0  0  0  0  0  0  0  0  0
  140.1870   70.9630  225.2860 C   0  0  0  0  0  0  0  0  0  0  0  0
  139.8520   69.6800  225.6690 C   0  0  0  0  0  0  0  0  0  0  0  0
  133.3800   72.0430  226.6650 C   0  0  0  0  0  0  0  0  0  0  0  0
  132.1370   71.9020  227.2340 C   0  0  0  0  0  0  0  0  0  0  0  0
  131.4580   73.0570  227.5800 C   0  0  0  0  0  0  0  0  0  0  0  0
  131.9860   74.3160  227.3710 C   0  0  0  0  0  0  0  0  0  0  0  0
  131.3060   75.4750  227.7180 C   0  0  0  0  0  0  0  0  0  0  0  0
  131.8820   76.7260  227.4850 C   0  0  0  0  0  0  0  0  0  0  0  0
  131.2520   77.8630  227.8080 F   0  0  0  0  0  0  0  0  0  0  0  0
  133.1340   76.7770  226.9090 C   0  0  0  0  0  0  0  0  0  0  0  0
  133.8320   75.6230  226.5550 C   0  0  0  0  0  0  0  0  0  0  0  0
  133.2270   74.4050  226.8010 C   0  0  0  0  0  0  0  0  0  0  0  0
  133.8710   73.2870  226.4720 N   0  0  0  0  0  0  0  0  0  0  0  0
  135.4580   71.9360  224.9390 H   0  0  0  0  0  0  0  0  0  0  0  0
  136.3903   69.3672  225.8879 H   0  0  0  0  0  0  0  0  0  0  0  0
  135.2682   69.1067  224.4949 H   0  0  0  0  0  0  0  0  0  0  0  0
  135.9863   68.3415  222.2728 H   0  0  0  0  0  0  0  0  0  0  0  0
  137.2067   68.8663  221.1731 H   0  0  0  0  0  0  0  0  0  0  0  0
  137.2090   66.4425  223.0890 H   0  0  0  0  0  0  0  0  0  0  0  0
  137.7633   66.4627  221.4128 H   0  0  0  0  0  0  0  0  0  0  0  0
  139.4901   66.5793  223.5308 H   0  0  0  0  0  0  0  0  0  0  0  0
  139.8689   67.3886  222.0062 H   0  0  0  0  0  0  0  0  0  0  0  0
  139.7898   69.3621  223.1370 H   0  0  0  0  0  0  0  0  0  0  0  0
  138.8035   66.5276  225.6058 H   0  0  0  0  0  0  0  0  0  0  0  0
  139.6150   67.3930  227.9660 H   0  0  0  0  0  0  0  0  0  0  0  0
  140.6209   69.7846  228.9648 H   0  0  0  0  0  0  0  0  0  0  0  0
  141.2418   72.1071  228.3341 H   0  0  0  0  0  0  0  0  0  0  0  0
  140.9625   72.8408  225.9912 H   0  0  0  0  0  0  0  0  0  0  0  0
  140.0646   71.3002  224.2461 H   0  0  0  0  0  0  0  0  0  0  0  0
  131.6983   70.9083  227.4078 H   0  0  0  0  0  0  0  0  0  0  0  0
  130.4618   72.9693  228.0380 H   0  0  0  0  0  0  0  0  0  0  0  0
  130.3092   75.4082  228.1785 H   0  0  0  0  0  0  0  0  0  0  0  0
  133.5960   77.7578  226.7232 H   0  0  0  0  0  0  0  0  0  0  0  0
  134.8299   75.6801  226.0957 H   0  0  0  0  0  0  0  0  0  0  0  0
  1  2  2  0
  2  3  1  0
  3  4  1  0
  4  5  1  0
  5  6  2  0
  5  7  1  0
  7  8  1  0
  8  9  1  0
  9 10  1  0
 10 11  1  0
 11 12  1  0
 12 13  2  0
 13 14  1  0
 14 15  1  0
 15 16  2  0
 16 17  1  0
 17 18  2  0
 18 19  1  0
 19 20  2  0
  2 21  1  0
 21 22  2  0
 22 23  1  0
 23 24  2  0
 24 25  1  0
 25 26  2  0
 26 27  1  0
 26 28  1  0
 28 29  2  0
 29 30  1  0
 30 31  2  0
 11  7  1  0
 20 12  1  0
 31 21  1  0
 20 15  1  0
 30 24  1  0
  3 32  1  0
  4 33  1  0
  4 34  1  0
  8 35  1  0
  8 36  1  0
  9 37  1  0
  9 38  1  0
 10 39  1  0
 10 40  1  0
 11 41  1  6
 13 42  1  0
 14 43  1  0
 16 44  1  0
 17 45  1  0
 18 46  1  0
 19 47  1  0
 22 48  1  0
 23 49  1  0
 25 50  1  0
 28 51  1  0
 29 52  1  0
M  END
>  <smiles>  (28) 
O=C(NCC(=O)N1CCC[C@@H]1c1c[nH]c2ccccc12)c1ccc2cc(F)ccc2n1

>  <score_type>  (28) 
oracle

>  <origin>  (28) 
autodockgpu

>  <m_score__min__energy>  (28) 
-9.3499999999999996

>  <m_primary>  (28) 
energy

>  <rmsd>  (28) 
8.920480813683133

>  <m_score__min__rmsd>  (28) 
8.920480813683133

>  <meeko>  (28) 
{"free_energy": -9.04, "intermolecular_energy": -10.53, "internal_energy": -2.19, "cluster_size": 11, "cluster_id": 2, "rank_in_cluster": 5}

>  <energy>  (28) 
-7.99

>  <cluster_rmsd>  (28) 
1.07

>  <cluster>  (28) 
1

$$$$

     RDKit          3D

 52 56  0  0  0  0  0  0  0  0999 V2000
  140.1120   71.2540  221.0530 O   0  0  0  0  0  0  0  0  0  0  0  0
  139.8990   71.7860  222.1760 C   0  0  0  0  0  0  0  0  0  0  0  0
  139.7270   73.2010  222.3000 N   0  0  0  0  0  0  0  0  0  0  0  0
  139.8050   73.9920  221.0900 C   0  0  0  0  0  0  0  0  0  0  0  0
  140.3290   75.3660  221.3800 C   0  0  0  0  0  0  0  0  0  0  0  0
  140.1980   75.7630  222.5670 O   0  0  0  0  0  0  0  0  0  0  0  0
  140.9320   76.1460  220.3540 N   0  0  0  0  0  0  0  0  0  0  0  0
  142.1100   75.7500  219.6080 C   0  0  0  0  0  0  0  0  0  0  0  0
  142.7190   77.1310  219.3750 C   0  0  0  0  0  0  0  0  0  0  0  0
  141.5430   78.0550  219.1940 C   0  0  0  0  0  0  0  0  0  0  0  0
  140.4330   77.4280  219.9400 C   0  0  2  0  0  0  0  0  0  0  0  0
  139.9580   78.2440  221.0910 C   0  0  0  0  0  0  0  0  0  0  0  0
  138.6710   78.4810  221.5250 C   0  0  0  0  0  0  0  0  0  0  0  0
  138.7580   79.2880  222.6140 N   0  0  0  0  0  0  0  0  0  0  0  0
  140.0530   79.5570  222.8660 C   0  0  0  0  0  0  0  0  0  0  0  0
  140.6620   80.3190  223.8450 C   0  0  0  0  0  0  0  0  0  0  0  0
  142.0370   80.4450  223.8960 C   0  0  0  0  0  0  0  0  0  0  0  0
  142.7980   79.7940  222.9460 C   0  0  0  0  0  0  0  0  0  0  0  0
  142.2280   79.0180  221.9410 C   0  0  0  0  0  0  0  0  0  0  0  0
  140.8510   78.9150  221.9230 C   0  0  0  0  0  0  0  0  0  0  0  0
  139.8250   70.9590  223.3830 C   0  0  0  0  0  0  0  0  0  0  0  0
  139.2250   69.7230  223.3320 C   0  0  0  0  0  0  0  0  0  0  0  0
  139.1830   68.9850  224.5020 C   0  0  0  0  0  0  0  0  0  0  0  0
  139.7160   69.4490  225.6880 C   0  0  0  0  0  0  0  0  0  0  0  0
  139.6750   68.7090  226.8620 C   0  0  0  0  0  0  0  0  0  0  0  0
  140.2280   69.2230  228.0380 C   0  0  0  0  0  0  0  0  0  0  0  0
  140.2050   68.5340  229.1860 F   0  0  0  0  0  0  0  0  0  0  0  0
  140.8110   70.4710  228.0000 C   0  0  0  0  0  0  0  0  0  0  0  0
  140.8620   71.2290  226.8300 C   0  0  0  0  0  0  0  0  0  0  0  0
  140.3030   70.6860  225.6890 C   0  0  0  0  0  0  0  0  0  0  0  0
  140.3370   71.3870  224.5570 N   0  0  0  0  0  0  0  0  0  0  0  0
  139.5510   73.6440  223.2280 H   0  0  0  0  0  0  0  0  0  0  0  0
  140.4779   73.4934  220.3769 H   0  0  0  0  0  0  0  0  0  0  0  0
  138.7943   74.0844  220.6657 H   0  0  0  0  0  0  0  0  0  0  0  0
  142.7733   75.1007  220.1983 H   0  0  0  0  0  0  0  0  0  0  0  0
  141.9192   75.1574  218.7011 H   0  0  0  0  0  0  0  0  0  0  0  0
  143.3214   77.4385  220.2425 H   0  0  0  0  0  0  0  0  0  0  0  0
  143.3897   77.1431  218.5033 H   0  0  0  0  0  0  0  0  0  0  0  0
  141.7688   79.0502  219.6045 H   0  0  0  0  0  0  0  0  0  0  0  0
  141.2937   78.1965  218.1320 H   0  0  0  0  0  0  0  0  0  0  0  0
  139.5406   77.3362  219.3034 H   0  0  0  0  0  0  0  0  0  0  0  0
  137.7471   78.0899  221.0739 H   0  0  0  0  0  0  0  0  0  0  0  0
  137.9520   79.6590  223.1890 H   0  0  0  0  0  0  0  0  0  0  0  0
  140.0427   80.8329  224.5949 H   0  0  0  0  0  0  0  0  0  0  0  0
  142.5159   81.0522  224.6783 H   0  0  0  0  0  0  0  0  0  0  0  0
  143.8930   79.8919  222.9846 H   0  0  0  0  0  0  0  0  0  0  0  0
  142.8496   78.5071  221.1909 H   0  0  0  0  0  0  0  0  0  0  0  0
  138.7947   69.3354  222.3968 H   0  0  0  0  0  0  0  0  0  0  0  0
  138.7078   67.9930  224.4864 H   0  0  0  0  0  0  0  0  0  0  0  0
  139.2054   67.7143  226.8665 H   0  0  0  0  0  0  0  0  0  0  0  0
  141.2499   70.8824  228.9210 H   0  0  0  0  0  0  0  0  0  0  0  0
  141.3308   72.2240  226.8163 H   0  0  0  0  0  0  0  0  0  0  0  0
  1  2  2  0
  2  3  1  0
  3  4  1  0
  4  5  1  0
  5  6  2  0
  5  7  1  0
  7  8  1  0
  8  9  1  0
  9 10  1  0
 10 11  1  0
 11 12  1  0
 12 13  2  0
 13 14  1  0
 14 15  1  0
 15 16  2  0
 16 17  1  0
 17 18  2  0
 18 19  1  0
 19 20  2  0
  2 21  1  0
 21 22  2  0
 22 23  1  0
 23 24  2  0
 24 25  1  0
 25 26  2  0
 26 27  1  0
 26 28  1  0
 28 29  2  0
 29 30  1  0
 30 31  2  0
 11  7  1  0
 20 12  1  0
 31 21  1  0
 20 15  1  0
 30 24  1  0
  3 32  1  0
  4 33  1  0
  4 34  1  0
  8 35  1  0
  8 36  1  0
  9 37  1  0
  9 38  1  0
 10 39  1  0
 10 40  1  0
 11 41  1  6
 13 42  1  0
 14 43  1  0
 16 44  1  0
 17 45  1  0
 18 46  1  0
 19 47  1  0
 22 48  1  0
 23 49  1  0
 25 50  1  0
 28 51  1  0
 29 52  1  0
M  END
>  <smiles>  (29) 
O=C(NCC(=O)N1CCC[C@@H]1c1c[nH]c2ccccc12)c1ccc2cc(F)ccc2n1

>  <score_type>  (29) 
oracle

>  <origin>  (29) 
autodockgpu

>  <m_score__min__energy>  (29) 
-9.3499999999999996

>  <m_primary>  (29) 
energy

>  <rmsd>  (29) 
1.7599261502507768

>  <m_score__min__rmsd>  (29) 
1.7599261502507768

>  <meeko>  (29) 
{"free_energy": -8.99, "intermolecular_energy": -10.48, "internal_energy": -1.8, "cluster_size": 28, "cluster_id": 1, "rank_in_cluster": 12}

>  <energy>  (29) 
-9.3

>  <cluster_rmsd>  (29) 
0.0

>  <cluster>  (29) 
2

$$$$

     RDKit          3D

 52 56  0  0  0  0  0  0  0  0999 V2000
  138.2850   71.0620  221.5020 O   0  0  0  0  0  0  0  0  0  0  0  0
  138.8890   71.5220  222.5090 C   0  0  0  0  0  0  0  0  0  0  0  0
  139.2760   72.8980  222.5690 N   0  0  0  0  0  0  0  0  0  0  0  0
  138.9460   73.7360  221.4350 C   0  0  0  0  0  0  0  0  0  0  0  0
  139.0960   75.1870  221.7780 C   0  0  0  0  0  0  0  0  0  0  0  0
  139.9320   75.4530  222.6810 O   0  0  0  0  0  0  0  0  0  0  0  0
  138.3250   76.1760  221.1070 N   0  0  0  0  0  0  0  0  0  0  0  0
  137.2100   75.8890  220.2270 C   0  0  0  0  0  0  0  0  0  0  0  0
  137.3700   77.0550  219.2520 C   0  0  0  0  0  0  0  0  0  0  0  0
  137.8610   78.2060  220.0920 C   0  0  0  0  0  0  0  0  0  0  0  0
  138.5710   77.5870  221.2290 C   0  0  2  0  0  0  0  0  0  0  0  0
  140.0250   77.9040  221.2620 C   0  0  0  0  0  0  0  0  0  0  0  0
  141.0520   77.3870  220.5000 C   0  0  0  0  0  0  0  0  0  0  0  0
  142.1960   77.9940  220.9060 N   0  0  0  0  0  0  0  0  0  0  0  0
  141.9110   78.8670  221.8920 C   0  0  0  0  0  0  0  0  0  0  0  0
  142.7130   79.7180  222.6290 C   0  0  0  0  0  0  0  0  0  0  0  0
  142.1750   80.5330  223.6070 C   0  0  0  0  0  0  0  0  0  0  0  0
  140.8150   80.4830  223.8360 C   0  0  0  0  0  0  0  0  0  0  0  0
  139.9700   79.6420  223.1190 C   0  0  0  0  0  0  0  0  0  0  0  0
  140.5440   78.8430  222.1510 C   0  0  0  0  0  0  0  0  0  0  0  0
  139.2080   70.6490  223.6410 C   0  0  0  0  0  0  0  0  0  0  0  0
  138.8860   69.3150  223.5900 C   0  0  0  0  0  0  0  0  0  0  0  0
  139.2110   68.5370  224.6870 C   0  0  0  0  0  0  0  0  0  0  0  0
  139.8340   69.0580  225.8040 C   0  0  0  0  0  0  0  0  0  0  0  0
  140.1610   68.2790  226.9060 C   0  0  0  0  0  0  0  0  0  0  0  0
  140.7910   68.8530  228.0130 C   0  0  0  0  0  0  0  0  0  0  0  0
  141.1190   68.1290  229.0910 F   0  0  0  0  0  0  0  0  0  0  0  0
  141.0780   70.2010  227.9800 C   0  0  0  0  0  0  0  0  0  0  0  0
  140.7570   70.9990  226.8830 C   0  0  0  0  0  0  0  0  0  0  0  0
  140.1350   70.3930  225.8080 C   0  0  0  0  0  0  0  0  0  0  0  0
  139.8170   71.1310  224.7460 N   0  0  0  0  0  0  0  0  0  0  0  0
  139.7760   73.2820  223.4010 H   0  0  0  0  0  0  0  0  0  0  0  0
  139.6190   73.4924  220.5997 H   0  0  0  0  0  0  0  0  0  0  0  0
  137.8992   73.5487  221.1536 H   0  0  0  0  0  0  0  0  0  0  0  0
  137.3189   74.9152  219.7271 H   0  0  0  0  0  0  0  0  0  0  0  0
  136.2279   75.8126  220.7166 H   0  0  0  0  0  0  0  0  0  0  0  0
  138.1034   76.8069  218.4706 H   0  0  0  0  0  0  0  0  0  0  0  0
  136.4276   77.2935  218.7372 H   0  0  0  0  0  0  0  0  0  0  0  0
  138.5453   78.8419  219.5111 H   0  0  0  0  0  0  0  0  0  0  0  0
  137.0343   78.8494  220.4274 H   0  0  0  0  0  0  0  0  0  0  0  0
  138.1987   77.9874  222.1835 H   0  0  0  0  0  0  0  0  0  0  0  0
  140.9609   76.6256  219.7113 H   0  0  0  0  0  0  0  0  0  0  0  0
  143.1680   77.8260  220.5250 H   0  0  0  0  0  0  0  0  0  0  0  0
  143.7952   79.7470  222.4343 H   0  0  0  0  0  0  0  0  0  0  0  0
  142.8179   81.2079  224.1911 H   0  0  0  0  0  0  0  0  0  0  0  0
  140.3838   81.1312  224.6131 H   0  0  0  0  0  0  0  0  0  0  0  0
  138.8881   79.6149  223.3156 H   0  0  0  0  0  0  0  0  0  0  0  0
  138.3884   68.8813  222.7101 H   0  0  0  0  0  0  0  0  0  0  0  0
  138.9643   67.4652  224.6688 H   0  0  0  0  0  0  0  0  0  0  0  0
  139.9229   67.2051  226.9074 H   0  0  0  0  0  0  0  0  0  0  0  0
  141.5758   70.6612  228.8463 H   0  0  0  0  0  0  0  0  0  0  0  0
  140.9907   72.0738  226.8734 H   0  0  0  0  0  0  0  0  0  0  0  0
  1  2  2  0
  2  3  1  0
  3  4  1  0
  4  5  1  0
  5  6  2  0
  5  7  1  0
  7  8  1  0
  8  9  1  0
  9 10  1  0
 10 11  1  0
 11 12  1  0
 12 13  2  0
 13 14  1  0
 14 15  1  0
 15 16  2  0
 16 17  1  0
 17 18  2  0
 18 19  1  0
 19 20  2  0
  2 21  1  0
 21 22  2  0
 22 23  1  0
 23 24  2  0
 24 25  1  0
 25 26  2  0
 26 27  1  0
 26 28  1  0
 28 29  2  0
 29 30  1  0
 30 31  2  0
 11  7  1  0
 20 12  1  0
 31 21  1  0
 20 15  1  0
 30 24  1  0
  3 32  1  0
  4 33  1  0
  4 34  1  0
  8 35  1  0
  8 36  1  0
  9 37  1  0
  9 38  1  0
 10 39  1  0
 10 40  1  0
 11 41  1  1
 13 42  1  0
 14 43  1  0
 16 44  1  0
 17 45  1  0
 18 46  1  0
 19 47  1  0
 22 48  1  0
 23 49  1  0
 25 50  1  0
 28 51  1  0
 29 52  1  0
M  END
>  <smiles>  (30) 
O=C(NCC(=O)N1CCC[C@@H]1c1c[nH]c2ccccc12)c1ccc2cc(F)ccc2n1

>  <score_type>  (30) 
oracle

>  <origin>  (30) 
autodockgpu

>  <m_score__min__energy>  (30) 
-9.3499999999999996

>  <m_primary>  (30) 
energy

>  <rmsd>  (30) 
1.9269954415672392

>  <m_score__min__rmsd>  (30) 
1.9269954415672392

>  <meeko>  (30) 
{"free_energy": -8.69, "intermolecular_energy": -10.18, "internal_energy": -1.9, "cluster_size": 28, "cluster_id": 1, "rank_in_cluster": 22}

>  <energy>  (30) 
-9.22

>  <cluster_rmsd>  (30) 
0.13

>  <cluster>  (30) 
2

$$$$

     RDKit          3D

 52 56  0  0  0  0  0  0  0  0999 V2000
  133.6570   69.6790  226.4730 O   0  0  0  0  0  0  0  0  0  0  0  0
  134.0740   70.8260  226.1540 C   0  0  0  0  0  0  0  0  0  0  0  0
  135.2570   70.9840  225.3640 N   0  0  0  0  0  0  0  0  0  0  0  0
  135.9490   69.7820  224.9470 C   0  0  0  0  0  0  0  0  0  0  0  0
  137.0620   70.1060  223.9980 C   0  0  0  0  0  0  0  0  0  0  0  0
  137.3770   71.3220  223.9170 O   0  0  0  0  0  0  0  0  0  0  0  0
  137.7020   69.0790  223.2510 N   0  0  0  0  0  0  0  0  0  0  0  0
  137.0900   68.3650  222.1470 C   0  0  0  0  0  0  0  0  0  0  0  0
  137.7660   67.0090  222.3370 C   0  0  0  0  0  0  0  0  0  0  0  0
  139.1560   67.3260  222.8270 C   0  0  0  0  0  0  0  0  0  0  0  0
  139.0430   68.6300  223.5100 C   0  0  2  0  0  0  0  0  0  0  0  0
  139.3400   68.5630  224.9670 C   0  0  0  0  0  0  0  0  0  0  0  0
  139.1770   67.5140  225.8470 C   0  0  0  0  0  0  0  0  0  0  0  0
  139.5920   67.9460  227.0660 N   0  0  0  0  0  0  0  0  0  0  0  0
  140.0040   69.2240  226.9680 C   0  0  0  0  0  0  0  0  0  0  0  0
  140.5090   70.1040  227.9070 C   0  0  0  0  0  0  0  0  0  0  0  0
  140.8690   71.3910  227.5560 C   0  0  0  0  0  0  0  0  0  0  0  0
  140.7150   71.7860  226.2430 C   0  0  0  0  0  0  0  0  0  0  0  0
  140.2110   70.9350  225.2630 C   0  0  0  0  0  0  0  0  0  0  0  0
  139.8620   69.6570  225.6530 C   0  0  0  0  0  0  0  0  0  0  0  0
  133.3520   72.0230  226.5910 C   0  0  0  0  0  0  0  0  0  0  0  0
  132.1300   71.9010  227.2060 C   0  0  0  0  0  0  0  0  0  0  0  0
  131.4920   73.0640  227.5980 C   0  0  0  0  0  0  0  0  0  0  0  0
  132.0410   74.3140  227.3880 C   0  0  0  0  0  0  0  0  0  0  0  0
  131.4020   75.4820  227.7810 C   0  0  0  0  0  0  0  0  0  0  0  0
  131.9990   76.7240  227.5460 C   0  0  0  0  0  0  0  0  0  0  0  0
  131.4090   77.8690  227.9120 F   0  0  0  0  0  0  0  0  0  0  0  0
  133.2270   76.7560  226.9220 C   0  0  0  0  0  0  0  0  0  0  0  0
  133.8840   75.5930  226.5200 C   0  0  0  0  0  0  0  0  0  0  0  0
  133.2610   74.3850  226.7710 C   0  0  0  0  0  0  0  0  0  0  0  0
  133.8640   73.2580  226.3990 N   0  0  0  0  0  0  0  0  0  0  0  0
  135.6050   71.9310  225.0990 H   0  0  0  0  0  0  0  0  0  0  0  0
  136.3660   69.2811  225.8331 H   0  0  0  0  0  0  0  0  0  0  0  0
  135.2316   69.1240  224.4347 H   0  0  0  0  0  0  0  0  0  0  0  0
  135.9971   68.2997  222.2530 H   0  0  0  0  0  0  0  0  0  0  0  0
  137.2200   68.8242  221.1559 H   0  0  0  0  0  0  0  0  0  0  0  0
  137.2225   66.4078  223.0807 H   0  0  0  0  0  0  0  0  0  0  0  0
  137.7817   66.4232  221.4061 H   0  0  0  0  0  0  0  0  0  0  0  0
  139.5024   66.5528  223.5286 H   0  0  0  0  0  0  0  0  0  0  0  0
  139.8832   67.3578  222.0022 H   0  0  0  0  0  0  0  0  0  0  0  0
  139.7946   69.3350  223.1253 H   0  0  0  0  0  0  0  0  0  0  0  0
  138.7845   66.5148  225.6068 H   0  0  0  0  0  0  0  0  0  0  0  0
  139.5990   67.3870  227.9630 H   0  0  0  0  0  0  0  0  0  0  0  0
  140.6261   69.7745  228.9499 H   0  0  0  0  0  0  0  0  0  0  0  0
  141.2702   72.0864  228.3080 H   0  0  0  0  0  0  0  0  0  0  0  0
  141.0006   72.8100  225.9603 H   0  0  0  0  0  0  0  0  0  0  0  0
  140.0955   71.2671  224.2207 H   0  0  0  0  0  0  0  0  0  0  0  0
  131.6754   70.9146  227.3804 H   0  0  0  0  0  0  0  0  0  0  0  0
  130.5131   72.9909  228.0944 H   0  0  0  0  0  0  0  0  0  0  0  0
  130.4226   75.4301  228.2790 H   0  0  0  0  0  0  0  0  0  0  0  0
  133.7043   77.7292  226.7349 H   0  0  0  0  0  0  0  0  0  0  0  0
  134.8633   75.6358  226.0209 H   0  0  0  0  0  0  0  0  0  0  0  0
  1  2  2  0
  2  3  1  0
  3  4  1  0
  4  5  1  0
  5  6  2  0
  5  7  1  0
  7  8  1  0
  8  9  1  0
  9 10  1  0
 10 11  1  0
 11 12  1  0
 12 13  2  0
 13 14  1  0
 14 15  1  0
 15 16  2  0
 16 17  1  0
 17 18  2  0
 18 19  1  0
 19 20  2  0
  2 21  1  0
 21 22  2  0
 22 23  1  0
 23 24  2  0
 24 25  1  0
 25 26  2  0
 26 27  1  0
 26 28  1  0
 28 29  2  0
 29 30  1  0
 30 31  2  0
 11  7  1  0
 20 12  1  0
 31 21  1  0
 20 15  1  0
 30 24  1  0
  3 32  1  0
  4 33  1  0
  4 34  1  0
  8 35  1  0
  8 36  1  0
  9 37  1  0
  9 38  1  0
 10 39  1  0
 10 40  1  0
 11 41  1  6
 13 42  1  0
 14 43  1  0
 16 44  1  0
 17 45  1  0
 18 46  1  0
 19 47  1  0
 22 48  1  0
 23 49  1  0
 25 50  1  0
 28 51  1  0
 29 52  1  0
M  END
>  <smiles>  (31) 
O=C(NCC(=O)N1CCC[C@@H]1c1c[nH]c2ccccc12)c1ccc2cc(F)ccc2n1

>  <score_type>  (31) 
oracle

>  <origin>  (31) 
autodockgpu

>  <m_score__min__energy>  (31) 
-9.3499999999999996

>  <m_primary>  (31) 
energy

>  <rmsd>  (31) 
8.900647849427928

>  <m_score__min__rmsd>  (31) 
8.900647849427928

>  <meeko>  (31) 
{"free_energy": -8.98, "intermolecular_energy": -10.47, "internal_energy": -2.25, "cluster_size": 11, "cluster_id": 2, "rank_in_cluster": 6}

>  <energy>  (31) 
-9.22

>  <cluster_rmsd>  (31) 
0.1

>  <cluster>  (31) 
2

$$$$

     RDKit          3D

 52 56  0  0  0  0  0  0  0  0999 V2000
  141.1370   72.3790  221.5680 O   0  0  0  0  0  0  0  0  0  0  0  0
  140.1920   72.4590  222.3990 C   0  0  0  0  0  0  0  0  0  0  0  0
  139.1790   73.4610  222.2670 N   0  0  0  0  0  0  0  0  0  0  0  0
  139.2820   74.3720  221.1460 C   0  0  0  0  0  0  0  0  0  0  0  0
  140.0820   75.5850  221.5110 C   0  0  0  0  0  0  0  0  0  0  0  0
  140.0030   75.9520  222.7130 O   0  0  0  0  0  0  0  0  0  0  0  0
  140.8720   76.2560  220.5370 N   0  0  0  0  0  0  0  0  0  0  0  0
  142.0570   75.6970  219.9160 C   0  0  0  0  0  0  0  0  0  0  0  0
  142.8530   76.9870  219.7200 C   0  0  0  0  0  0  0  0  0  0  0  0
  141.8230   78.0420  219.4100 C   0  0  0  0  0  0  0  0  0  0  0  0
  140.5780   77.5780  220.0550 C   0  0  2  0  0  0  0  0  0  0  0  0
  140.1020   78.4780  221.1400 C   0  0  0  0  0  0  0  0  0  0  0  0
  138.8130   78.8150  221.4970 C   0  0  0  0  0  0  0  0  0  0  0  0
  138.8990   79.6680  222.5490 N   0  0  0  0  0  0  0  0  0  0  0  0
  140.1960   79.8700  222.8540 C   0  0  0  0  0  0  0  0  0  0  0  0
  140.8050   80.6400  223.8260 C   0  0  0  0  0  0  0  0  0  0  0  0
  142.1810   80.6850  223.9410 C   0  0  0  0  0  0  0  0  0  0  0  0
  142.9430   79.9410  223.0630 C   0  0  0  0  0  0  0  0  0  0  0  0
  142.3730   79.1520  222.0680 C   0  0  0  0  0  0  0  0  0  0  0  0
  140.9950   79.1340  221.9850 C   0  0  0  0  0  0  0  0  0  0  0  0
  140.1150   71.5240  223.5240 C   0  0  0  0  0  0  0  0  0  0  0  0
  139.5490   70.2840  223.3470 C   0  0  0  0  0  0  0  0  0  0  0  0
  139.5030   69.4400  224.4420 C   0  0  0  0  0  0  0  0  0  0  0  0
  139.9970   69.8070  225.6790 C   0  0  0  0  0  0  0  0  0  0  0  0
  139.9510   68.9620  226.7790 C   0  0  0  0  0  0  0  0  0  0  0  0
  140.4650   69.3790  228.0100 C   0  0  0  0  0  0  0  0  0  0  0  0
  140.4360   68.5880  229.0890 F   0  0  0  0  0  0  0  0  0  0  0  0
  141.0150   70.6400  228.0990 C   0  0  0  0  0  0  0  0  0  0  0  0
  141.0700   71.5030  227.0050 C   0  0  0  0  0  0  0  0  0  0  0  0
  140.5510   71.0530  225.8060 C   0  0  0  0  0  0  0  0  0  0  0  0
  140.5900   71.8550  224.7440 N   0  0  0  0  0  0  0  0  0  0  0  0
  138.3960   73.5310  222.9530 H   0  0  0  0  0  0  0  0  0  0  0  0
  139.7729   73.8564  220.3075 H   0  0  0  0  0  0  0  0  0  0  0  0
  138.2691   74.6931  220.8614 H   0  0  0  0  0  0  0  0  0  0  0  0
  142.5754   74.9888  220.5791 H   0  0  0  0  0  0  0  0  0  0  0  0
  141.8806   75.1061  219.0051 H   0  0  0  0  0  0  0  0  0  0  0  0
  143.4043   77.2434  220.6367 H   0  0  0  0  0  0  0  0  0  0  0  0
  143.5995   76.8922  218.9177 H   0  0  0  0  0  0  0  0  0  0  0  0
  142.1313   79.0137  219.8233 H   0  0  0  0  0  0  0  0  0  0  0  0
  141.6943   78.1814  218.3265 H   0  0  0  0  0  0  0  0  0  0  0  0
  139.7452   77.5787  219.3364 H   0  0  0  0  0  0  0  0  0  0  0  0
  137.8886   78.4591  221.0187 H   0  0  0  0  0  0  0  0  0  0  0  0
  138.0920   80.1170  223.0640 H   0  0  0  0  0  0  0  0  0  0  0  0
  140.1844   81.2266  224.5194 H   0  0  0  0  0  0  0  0  0  0  0  0
  142.6595   81.3012  224.7164 H   0  0  0  0  0  0  0  0  0  0  0  0
  144.0389   79.9727  223.1527 H   0  0  0  0  0  0  0  0  0  0  0  0
  142.9955   78.5663  221.3756 H   0  0  0  0  0  0  0  0  0  0  0  0
  139.1475   69.9743  222.3708 H   0  0  0  0  0  0  0  0  0  0  0  0
  139.0574   68.4413  224.3237 H   0  0  0  0  0  0  0  0  0  0  0  0
  139.5081   67.9598  226.6816 H   0  0  0  0  0  0  0  0  0  0  0  0
  141.4234   70.9761  229.0635 H   0  0  0  0  0  0  0  0  0  0  0  0
  141.5111   72.5068  227.0934 H   0  0  0  0  0  0  0  0  0  0  0  0
  1  2  2  0
  2  3  1  0
  3  4  1  0
  4  5  1  0
  5  6  2  0
  5  7  1  0
  7  8  1  0
  8  9  1  0
  9 10  1  0
 10 11  1  0
 11 12  1  0
 12 13  2  0
 13 14  1  0
 14 15  1  0
 15 16  2  0
 16 17  1  0
 17 18  2  0
 18 19  1  0
 19 20  2  0
  2 21  1  0
 21 22  2  0
 22 23  1  0
 23 24  2  0
 24 25  1  0
 25 26  2  0
 26 27  1  0
 26 28  1  0
 28 29  2  0
 29 30  1  0
 30 31  2  0
 11  7  1  0
 20 12  1  0
 31 21  1  0
 20 15  1  0
 30 24  1  0
  3 32  1  0
  4 33  1  0
  4 34  1  0
  8 35  1  0
  8 36  1  0
  9 37  1  0
  9 38  1  0
 10 39  1  0
 10 40  1  0
 11 41  1  6
 13 42  1  0
 14 43  1  0
 16 44  1  0
 17 45  1  0
 18 46  1  0
 19 47  1  0
 22 48  1  0
 23 49  1  0
 25 50  1  0
 28 51  1  0
 29 52  1  0
M  END
>  <smiles>  (32) 
O=C(NCC(=O)N1CCC[C@@H]1c1c[nH]c2ccccc12)c1ccc2cc(F)ccc2n1

>  <score_type>  (32) 
oracle

>  <origin>  (32) 
autodockgpu

>  <m_score__min__energy>  (32) 
-9.3499999999999996

>  <m_primary>  (32) 
energy

>  <rmsd>  (32) 
1.8967537729103874

>  <m_score__min__rmsd>  (32) 
1.8967537729103874

>  <meeko>  (32) 
{"free_energy": -9.35, "intermolecular_energy": -10.84, "internal_energy": -1.34, "cluster_size": 28, "cluster_id": 1, "rank_in_cluster": 1}

>  <energy>  (32) 
-9.05

>  <cluster_rmsd>  (32) 
0.26

>  <cluster>  (32) 
2

$$$$

     RDKit          3D

 52 56  0  0  0  0  0  0  0  0999 V2000
  140.6870   71.8040  221.0890 O   0  0  0  0  0  0  0  0  0  0  0  0
  140.1140   72.2580  222.1170 C   0  0  0  0  0  0  0  0  0  0  0  0
  139.5870   73.5880  222.1380 N   0  0  0  0  0  0  0  0  0  0  0  0
  139.7360   74.3850  220.9390 C   0  0  0  0  0  0  0  0  0  0  0  0
  140.6870   75.5210  221.1630 C   0  0  0  0  0  0  0  0  0  0  0  0
  141.1210   75.6480  222.3380 O   0  0  0  0  0  0  0  0  0  0  0  0
  141.0550   76.3840  220.0940 N   0  0  0  0  0  0  0  0  0  0  0  0
  142.1760   76.1550  219.2050 C   0  0  0  0  0  0  0  0  0  0  0  0
  142.5670   77.6080  218.9360 C   0  0  0  0  0  0  0  0  0  0  0  0
  141.2660   78.3680  218.9180 C   0  0  0  0  0  0  0  0  0  0  0  0
  140.3460   77.5930  219.7740 C   0  0  2  0  0  0  0  0  0  0  0  0
  139.9090   78.3270  220.9920 C   0  0  0  0  0  0  0  0  0  0  0  0
  138.6400   78.5070  221.5000 C   0  0  0  0  0  0  0  0  0  0  0  0
  138.7620   79.2500  222.6300 N   0  0  0  0  0  0  0  0  0  0  0  0
  140.0620   79.5340  222.8370 C   0  0  0  0  0  0  0  0  0  0  0  0
  140.7010   80.2500  223.8320 C   0  0  0  0  0  0  0  0  0  0  0  0
  142.0740   80.4060  223.8260 C   0  0  0  0  0  0  0  0  0  0  0  0
  142.8020   79.8300  222.8040 C   0  0  0  0  0  0  0  0  0  0  0  0
  142.2010   79.1020  221.7820 C   0  0  0  0  0  0  0  0  0  0  0  0
  140.8270   78.9680  221.8220 C   0  0  0  0  0  0  0  0  0  0  0  0
  139.9800   71.4270  223.3160 C   0  0  0  0  0  0  0  0  0  0  0  0
  139.3310   70.2180  223.2440 C   0  0  0  0  0  0  0  0  0  0  0  0
  139.2320   69.4750  224.4060 C   0  0  0  0  0  0  0  0  0  0  0  0
  139.7580   69.9090  225.6080 C   0  0  0  0  0  0  0  0  0  0  0  0
  139.6600   69.1640  226.7750 C   0  0  0  0  0  0  0  0  0  0  0  0
  140.2080   69.6470  227.9660 C   0  0  0  0  0  0  0  0  0  0  0  0
  140.1300   68.9530  229.1090 F   0  0  0  0  0  0  0  0  0  0  0  0
  140.8430   70.8700  227.9500 C   0  0  0  0  0  0  0  0  0  0  0  0
  140.9500   71.6330  226.7870 C   0  0  0  0  0  0  0  0  0  0  0  0
  140.3960   71.1200  225.6300 C   0  0  0  0  0  0  0  0  0  0  0  0
  140.4830   71.8260  224.5040 N   0  0  0  0  0  0  0  0  0  0  0  0
  139.1140   73.9670  222.9870 H   0  0  0  0  0  0  0  0  0  0  0  0
  140.1213   73.7479  220.1293 H   0  0  0  0  0  0  0  0  0  0  0  0
  138.7532   74.7992  220.6696 H   0  0  0  0  0  0  0  0  0  0  0  0
  142.9847   75.5943  219.6966 H   0  0  0  0  0  0  0  0  0  0  0  0
  141.9567   75.5506  218.3124 H   0  0  0  0  0  0  0  0  0  0  0  0
  143.2235   77.9852  219.7339 H   0  0  0  0  0  0  0  0  0  0  0  0
  143.1213   77.7176  217.9922 H   0  0  0  0  0  0  0  0  0  0  0  0
  141.4067   79.3810  219.3229 H   0  0  0  0  0  0  0  0  0  0  0  0
  140.8743   78.4833  217.8966 H   0  0  0  0  0  0  0  0  0  0  0  0
  139.4032   77.3898  219.2450 H   0  0  0  0  0  0  0  0  0  0  0  0
  137.7039   78.1210  221.0703 H   0  0  0  0  0  0  0  0  0  0  0  0
  137.9770   79.5670  223.2630 H   0  0  0  0  0  0  0  0  0  0  0  0
  140.1078   80.7022  224.6404 H   0  0  0  0  0  0  0  0  0  0  0  0
  142.5770   80.9778  224.6198 H   0  0  0  0  0  0  0  0  0  0  0  0
  143.8953   79.9509  222.7976 H   0  0  0  0  0  0  0  0  0  0  0  0
  142.7964   78.6512  220.9744 H   0  0  0  0  0  0  0  0  0  0  0  0
  138.9058   69.8546  222.2968 H   0  0  0  0  0  0  0  0  0  0  0  0
  138.7162   68.5040  224.3724 H   0  0  0  0  0  0  0  0  0  0  0  0
  139.1491   68.1899  226.7621 H   0  0  0  0  0  0  0  0  0  0  0  0
  141.2790   71.2565  228.8830 H   0  0  0  0  0  0  0  0  0  0  0  0
  141.4576   72.6088  226.7910 H   0  0  0  0  0  0  0  0  0  0  0  0
  1  2  2  0
  2  3  1  0
  3  4  1  0
  4  5  1  0
  5  6  2  0
  5  7  1  0
  7  8  1  0
  8  9  1  0
  9 10  1  0
 10 11  1  0
 11 12  1  0
 12 13  2  0
 13 14  1  0
 14 15  1  0
 15 16  2  0
 16 17  1  0
 17 18  2  0
 18 19  1  0
 19 20  2  0
  2 21  1  0
 21 22  2  0
 22 23  1  0
 23 24  2  0
 24 25  1  0
 25 26  2  0
 26 27  1  0
 26 28  1  0
 28 29  2  0
 29 30  1  0
 30 31  2  0
 11  7  1  0
 20 12  1  0
 31 21  1  0
 20 15  1  0
 30 24  1  0
  3 32  1  0
  4 33  1  0
  4 34  1  0
  8 35  1  0
  8 36  1  0
  9 37  1  0
  9 38  1  0
 10 39  1  0
 10 40  1  0
 11 41  1  6
 13 42  1  0
 14 43  1  0
 16 44  1  0
 17 45  1  0
 18 46  1  0
 19 47  1  0
 22 48  1  0
 23 49  1  0
 25 50  1  0
 28 51  1  0
 29 52  1  0
M  END
>  <smiles>  (33) 
O=C(NCC(=O)N1CCC[C@@H]1c1c[nH]c2ccccc12)c1ccc2cc(F)ccc2n1

>  <score_type>  (33) 
oracle

>  <origin>  (33) 
autodockgpu

>  <m_score__min__energy>  (33) 
-9.3499999999999996

>  <m_primary>  (33) 
energy

>  <rmsd>  (33) 
1.8526524174818055

>  <m_score__min__rmsd>  (33) 
1.8526524174818055

>  <meeko>  (33) 
{"free_energy": -9.04, "intermolecular_energy": -10.53, "internal_energy": -1.57, "cluster_size": 28, "cluster_id": 1, "rank_in_cluster": 10}

>  <energy>  (33) 
-9.04

>  <cluster_rmsd>  (33) 
0.22

>  <cluster>  (33) 
2

$$$$

     RDKit          3D

 52 56  0  0  0  0  0  0  0  0999 V2000
  139.8190   71.3910  221.0400 O   0  0  0  0  0  0  0  0  0  0  0  0
  139.7330   71.9000  222.1900 C   0  0  0  0  0  0  0  0  0  0  0  0
  139.6330   73.3170  222.3620 N   0  0  0  0  0  0  0  0  0  0  0  0
  139.6330   74.1370  221.1680 C   0  0  0  0  0  0  0  0  0  0  0  0
  140.2580   75.4730  221.4340 C   0  0  0  0  0  0  0  0  0  0  0  0
  140.2120   75.8710  222.6280 O   0  0  0  0  0  0  0  0  0  0  0  0
  140.8580   76.2180  220.3810 N   0  0  0  0  0  0  0  0  0  0  0  0
  142.0230   75.7890  219.6330 C   0  0  0  0  0  0  0  0  0  0  0  0
  142.6440   77.1560  219.3550 C   0  0  0  0  0  0  0  0  0  0  0  0
  141.4760   78.0880  219.1630 C   0  0  0  0  0  0  0  0  0  0  0  0
  140.3680   77.4940  219.9380 C   0  0  2  0  0  0  0  0  0  0  0  0
  139.9160   78.3460  221.0720 C   0  0  0  0  0  0  0  0  0  0  0  0
  138.6350   78.6380  221.4920 C   0  0  0  0  0  0  0  0  0  0  0  0
  138.7440   79.4590  222.5680 N   0  0  0  0  0  0  0  0  0  0  0  0
  140.0470   79.6830  222.8260 C   0  0  0  0  0  0  0  0  0  0  0  0
  140.6770   80.4370  223.7980 C   0  0  0  0  0  0  0  0  0  0  0  0
  142.0560   80.5120  223.8580 C   0  0  0  0  0  0  0  0  0  0  0  0
  142.7980   79.8180  222.9250 C   0  0  0  0  0  0  0  0  0  0  0  0
  142.2070   79.0470  221.9280 C   0  0  0  0  0  0  0  0  0  0  0  0
  140.8270   78.9970  221.9010 C   0  0  0  0  0  0  0  0  0  0  0  0
  139.7360   71.0450  223.3790 C   0  0  0  0  0  0  0  0  0  0  0  0
  139.2180   69.7740  223.3120 C   0  0  0  0  0  0  0  0  0  0  0  0
  139.2460   69.0100  224.4640 C   0  0  0  0  0  0  0  0  0  0  0  0
  139.7680   69.4830  225.6520 C   0  0  0  0  0  0  0  0  0  0  0  0
  139.7970   68.7170  226.8090 C   0  0  0  0  0  0  0  0  0  0  0  0
  140.3370   69.2410  227.9870 C   0  0  0  0  0  0  0  0  0  0  0  0
  140.3790   68.5280  229.1200 F   0  0  0  0  0  0  0  0  0  0  0  0
  140.8360   70.5260  227.9670 C   0  0  0  0  0  0  0  0  0  0  0  0
  140.8150   71.3100  226.8140 C   0  0  0  0  0  0  0  0  0  0  0  0
  140.2730   70.7550  225.6700 C   0  0  0  0  0  0  0  0  0  0  0  0
  140.2400   71.4810  224.5540 N   0  0  0  0  0  0  0  0  0  0  0  0
  139.5630   73.7420  223.3120 H   0  0  0  0  0  0  0  0  0  0  0  0
  140.2028   73.6239  220.3793 H   0  0  0  0  0  0  0  0  0  0  0  0
  138.5915   74.2942  220.8508 H   0  0  0  0  0  0  0  0  0  0  0  0
  142.6862   75.1490  220.2335 H   0  0  0  0  0  0  0  0  0  0  0  0
  141.8153   75.1740  218.7450 H   0  0  0  0  0  0  0  0  0  0  0  0
  143.2604   77.4802  220.2065 H   0  0  0  0  0  0  0  0  0  0  0  0
  143.3040   77.1368  218.4752 H   0  0  0  0  0  0  0  0  0  0  0  0
  141.7176   79.0912  219.5441 H   0  0  0  0  0  0  0  0  0  0  0  0
  141.2157   78.2038  218.1005 H   0  0  0  0  0  0  0  0  0  0  0  0
  139.4672   77.3951  219.3144 H   0  0  0  0  0  0  0  0  0  0  0  0
  137.7005   78.2741  221.0401 H   0  0  0  0  0  0  0  0  0  0  0  0
  137.9480   79.8700  223.1300 H   0  0  0  0  0  0  0  0  0  0  0  0
  140.0720   80.9856  224.5349 H   0  0  0  0  0  0  0  0  0  0  0  0
  142.5518   81.1132  224.6344 H   0  0  0  0  0  0  0  0  0  0  0  0
  143.8955   79.8759  222.9704 H   0  0  0  0  0  0  0  0  0  0  0  0
  142.8142   78.4999  221.1918 H   0  0  0  0  0  0  0  0  0  0  0  0
  138.7965   69.3788  222.3760 H   0  0  0  0  0  0  0  0  0  0  0  0
  138.8379   67.9890  224.4333 H   0  0  0  0  0  0  0  0  0  0  0  0
  139.3935   67.6937  226.7990 H   0  0  0  0  0  0  0  0  0  0  0  0
  141.2640   70.9459  228.8892 H   0  0  0  0  0  0  0  0  0  0  0  0
  141.2158   72.3344  226.8149 H   0  0  0  0  0  0  0  0  0  0  0  0
  1  2  2  0
  2  3  1  0
  3  4  1  0
  4  5  1  0
  5  6  2  0
  5  7  1  0
  7  8  1  0
  8  9  1  0
  9 10  1  0
 10 11  1  0
 11 12  1  0
 12 13  2  0
 13 14  1  0
 14 15  1  0
 15 16  2  0
 16 17  1  0
 17 18  2  0
 18 19  1  0
 19 20  2  0
  2 21  1  0
 21 22  2  0
 22 23  1  0
 23 24  2  0
 24 25  1  0
 25 26  2  0
 26 27  1  0
 26 28  1  0
 28 29  2  0
 29 30  1  0
 30 31  2  0
 11  7  1  0
 20 12  1  0
 31 21  1  0
 20 15  1  0
 30 24  1  0
  3 32  1  0
  4 33  1  0
  4 34  1  0
  8 35  1  0
  8 36  1  0
  9 37  1  0
  9 38  1  0
 10 39  1  0
 10 40  1  0
 11 41  1  6
 13 42  1  0
 14 43  1  0
 16 44  1  0
 17 45  1  0
 18 46  1  0
 19 47  1  0
 22 48  1  0
 23 49  1  0
 25 50  1  0
 28 51  1  0
 29 52  1  0
M  END
>  <smiles>  (34) 
O=C(NCC(=O)N1CCC[C@@H]1c1c[nH]c2ccccc12)c1ccc2cc(F)ccc2n1

>  <score_type>  (34) 
oracle

>  <origin>  (34) 
autodockgpu

>  <m_score__min__energy>  (34) 
-9.3499999999999996

>  <m_primary>  (34) 
energy

>  <rmsd>  (34) 
1.7256224332411798

>  <m_score__min__rmsd>  (34) 
1.7256224332411798

>  <meeko>  (34) 
{"free_energy": -8.97, "intermolecular_energy": -10.46, "internal_energy": -1.85, "cluster_size": 28, "cluster_id": 1, "rank_in_cluster": 14}

>  <energy>  (34) 
-8.98

>  <cluster_rmsd>  (34) 
0.23

>  <cluster>  (34) 
2

$$$$

     RDKit          3D

 52 56  0  0  0  0  0  0  0  0999 V2000
  133.8800   69.8700  226.8010 O   0  0  0  0  0  0  0  0  0  0  0  0
  133.9790   70.9430  226.1450 C   0  0  0  0  0  0  0  0  0  0  0  0
  134.7530   71.0010  224.9430 N   0  0  0  0  0  0  0  0  0  0  0  0
  135.4150   69.7860  224.5140 C   0  0  0  0  0  0  0  0  0  0  0  0
  136.8400   70.0550  224.1370 C   0  0  0  0  0  0  0  0  0  0  0  0
  137.3360   71.1180  224.5950 O   0  0  0  0  0  0  0  0  0  0  0  0
  137.5570   69.1470  223.3100 N   0  0  0  0  0  0  0  0  0  0  0  0
  136.9810   68.4230  222.1940 C   0  0  0  0  0  0  0  0  0  0  0  0
  137.8130   67.1450  222.2850 C   0  0  0  0  0  0  0  0  0  0  0  0
  139.1780   67.5950  222.7370 C   0  0  0  0  0  0  0  0  0  0  0  0
  138.9500   68.8420  223.4940 C   0  0  2  0  0  0  0  0  0  0  0  0
  139.3170   68.7370  224.9330 C   0  0  0  0  0  0  0  0  0  0  0  0
  139.1780   67.6730  225.7980 C   0  0  0  0  0  0  0  0  0  0  0  0
  139.6600   68.0700  227.0030 N   0  0  0  0  0  0  0  0  0  0  0  0
  140.0910   69.3430  226.9120 C   0  0  0  0  0  0  0  0  0  0  0  0
  140.6570   70.1930  227.8430 C   0  0  0  0  0  0  0  0  0  0  0  0
  141.0240   71.4800  227.5020 C   0  0  0  0  0  0  0  0  0  0  0  0
  140.8130   71.9070  226.2060 C   0  0  0  0  0  0  0  0  0  0  0  0
  140.2460   71.0860  225.2350 C   0  0  0  0  0  0  0  0  0  0  0  0
  139.8930   69.8070  225.6150 C   0  0  0  0  0  0  0  0  0  0  0  0
  133.2990   72.1560  226.6050 C   0  0  0  0  0  0  0  0  0  0  0  0
  132.0820   72.0620  227.2360 C   0  0  0  0  0  0  0  0  0  0  0  0
  131.4840   73.2400  227.6490 C   0  0  0  0  0  0  0  0  0  0  0  0
  132.0670   74.4750  227.4460 C   0  0  0  0  0  0  0  0  0  0  0  0
  131.4690   75.6570  227.8600 C   0  0  0  0  0  0  0  0  0  0  0  0
  132.0980   76.8830  227.6310 C   0  0  0  0  0  0  0  0  0  0  0  0
  131.5470   78.0410  228.0180 F   0  0  0  0  0  0  0  0  0  0  0  0
  133.3190   76.8860  226.9900 C   0  0  0  0  0  0  0  0  0  0  0  0
  133.9350   75.7090  226.5670 C   0  0  0  0  0  0  0  0  0  0  0  0
  133.2800   74.5170  226.8120 C   0  0  0  0  0  0  0  0  0  0  0  0
  133.8440   73.3770  226.4190 N   0  0  0  0  0  0  0  0  0  0  0  0
  134.8380   71.8860  224.3980 H   0  0  0  0  0  0  0  0  0  0  0  0
  135.3922   69.0547  225.3354 H   0  0  0  0  0  0  0  0  0  0  0  0
  134.8877   69.3923  223.6326 H   0  0  0  0  0  0  0  0  0  0  0  0
  135.9081   68.2281  222.3382 H   0  0  0  0  0  0  0  0  0  0  0  0
  137.0147   68.9420  221.2247 H   0  0  0  0  0  0  0  0  0  0  0  0
  137.3741   66.4500  223.0160 H   0  0  0  0  0  0  0  0  0  0  0  0
  137.8530   66.6106  221.3244 H   0  0  0  0  0  0  0  0  0  0  0  0
  139.6405   66.8329  223.3814 H   0  0  0  0  0  0  0  0  0  0  0  0
  139.8589   67.7514  221.8874 H   0  0  0  0  0  0  0  0  0  0  0  0
  139.6003   69.6469  223.1208 H   0  0  0  0  0  0  0  0  0  0  0  0
  138.7554   66.6865  225.5568 H   0  0  0  0  0  0  0  0  0  0  0  0
  139.7000   67.4910  227.8870 H   0  0  0  0  0  0  0  0  0  0  0  0
  140.8178   69.8389  228.8720 H   0  0  0  0  0  0  0  0  0  0  0  0
  141.4752   72.1512  228.2476 H   0  0  0  0  0  0  0  0  0  0  0  0
  141.1031   72.9318  225.9310 H   0  0  0  0  0  0  0  0  0  0  0  0
  140.0859   71.4423  224.2067 H   0  0  0  0  0  0  0  0  0  0  0  0
  131.6012   71.0874  227.4065 H   0  0  0  0  0  0  0  0  0  0  0  0
  130.5096   73.1905  228.1570 H   0  0  0  0  0  0  0  0  0  0  0  0
  130.4952   75.6282  228.3708 H   0  0  0  0  0  0  0  0  0  0  0  0
  133.8225   77.8467  226.8068 H   0  0  0  0  0  0  0  0  0  0  0  0
  134.9088   75.7285  226.0559 H   0  0  0  0  0  0  0  0  0  0  0  0
  1  2  2  0
  2  3  1  0
  3  4  1  0
  4  5  1  0
  5  6  2  0
  5  7  1  0
  7  8  1  0
  8  9  1  0
  9 10  1  0
 10 11  1  0
 11 12  1  0
 12 13  2  0
 13 14  1  0
 14 15  1  0
 15 16  2  0
 16 17  1  0
 17 18  2  0
 18 19  1  0
 19 20  2  0
  2 21  1  0
 21 22  2  0
 22 23  1  0
 23 24  2  0
 24 25  1  0
 25 26  2  0
 26 27  1  0
 26 28  1  0
 28 29  2  0
 29 30  1  0
 30 31  2  0
 11  7  1  0
 20 12  1  0
 31 21  1  0
 20 15  1  0
 30 24  1  0
  3 32  1  0
  4 33  1  0
  4 34  1  0
  8 35  1  0
  8 36  1  0
  9 37  1  0
  9 38  1  0
 10 39  1  0
 10 40  1  0
 11 41  1  6
 13 42  1  0
 14 43  1  0
 16 44  1  0
 17 45  1  0
 18 46  1  0
 19 47  1  0
 22 48  1  0
 23 49  1  0
 25 50  1  0
 28 51  1  0
 29 52  1  0
M  END
>  <smiles>  (35) 
O=C(NCC(=O)N1CCC[C@@H]1c1c[nH]c2ccccc12)c1ccc2cc(F)ccc2n1

>  <score_type>  (35) 
oracle

>  <origin>  (35) 
autodockgpu

>  <m_score__min__energy>  (35) 
-9.3499999999999996

>  <m_primary>  (35) 
energy

>  <rmsd>  (35) 
8.885778680150223

>  <m_score__min__rmsd>  (35) 
8.885778680150223

>  <meeko>  (35) 
{"free_energy": -9.05, "intermolecular_energy": -10.54, "internal_energy": -1.7, "cluster_size": 11, "cluster_id": 2, "rank_in_cluster": 4}

>  <energy>  (35) 
-8.58

>  <cluster_rmsd>  (35) 
1.02

>  <cluster>  (35) 
2

$$$$

     RDKit          3D

 52 56  0  0  0  0  0  0  0  0999 V2000
  138.5220   71.8540  221.4670 O   0  0  0  0  0  0  0  0  0  0  0  0
  139.4030   72.0810  222.3400 C   0  0  0  0  0  0  0  0  0  0  0  0
  140.2750   73.2100  222.2280 N   0  0  0  0  0  0  0  0  0  0  0  0
  140.1040   74.0770  221.0810 C   0  0  0  0  0  0  0  0  0  0  0  0
  140.9440   75.3110  221.2100 C   0  0  0  0  0  0  0  0  0  0  0  0
  141.4420   75.5180  222.3480 O   0  0  0  0  0  0  0  0  0  0  0  0
  141.1470   76.1720  220.0960 N   0  0  0  0  0  0  0  0  0  0  0  0
  142.2180   76.0260  219.1300 C   0  0  0  0  0  0  0  0  0  0  0  0
  142.4430   77.5000  218.8000 C   0  0  0  0  0  0  0  0  0  0  0  0
  141.0760   78.1320  218.8630 C   0  0  0  0  0  0  0  0  0  0  0  0
  140.3010   77.2970  219.8030 C   0  0  2  0  0  0  0  0  0  0  0  0
  139.8850   78.0230  221.0340 C   0  0  0  0  0  0  0  0  0  0  0  0
  138.6300   78.1620  221.5870 C   0  0  0  0  0  0  0  0  0  0  0  0
  138.7680   78.9140  222.7100 N   0  0  0  0  0  0  0  0  0  0  0  0
  140.0640   79.2430  222.8680 C   0  0  0  0  0  0  0  0  0  0  0  0
  140.7150   79.9840  223.8360 C   0  0  0  0  0  0  0  0  0  0  0  0
  142.0810   80.1860  223.7800 C   0  0  0  0  0  0  0  0  0  0  0  0
  142.7890   79.6310  222.7340 C   0  0  0  0  0  0  0  0  0  0  0  0
  142.1760   78.8770  221.7370 C   0  0  0  0  0  0  0  0  0  0  0  0
  140.8110   78.6980  221.8270 C   0  0  0  0  0  0  0  0  0  0  0  0
  139.5530   71.1860  223.4890 C   0  0  0  0  0  0  0  0  0  0  0  0
  139.1000   69.8910  223.4140 C   0  0  0  0  0  0  0  0  0  0  0  0
  139.2660   69.0890  224.5290 C   0  0  0  0  0  0  0  0  0  0  0  0
  139.8610   69.5490  225.6880 C   0  0  0  0  0  0  0  0  0  0  0  0
  140.0280   68.7470  226.8070 C   0  0  0  0  0  0  0  0  0  0  0  0
  140.6360   69.2590  227.9570 C   0  0  0  0  0  0  0  0  0  0  0  0
  140.8130   68.5100  229.0530 F   0  0  0  0  0  0  0  0  0  0  0  0
  141.0610   70.5700  227.9470 C   0  0  0  0  0  0  0  0  0  0  0  0
  140.9010   71.3910  226.8310 C   0  0  0  0  0  0  0  0  0  0  0  0
  140.2960   70.8470  225.7150 C   0  0  0  0  0  0  0  0  0  0  0  0
  140.1300   71.6080  224.6350 N   0  0  0  0  0  0  0  0  0  0  0  0
  141.0060   73.4010  222.9480 H   0  0  0  0  0  0  0  0  0  0  0  0
  140.4007   73.5334  220.1719 H   0  0  0  0  0  0  0  0  0  0  0  0
  139.0473   74.3771  221.0233 H   0  0  0  0  0  0  0  0  0  0  0  0
  143.1116   75.5610  219.5718 H   0  0  0  0  0  0  0  0  0  0  0  0
  141.9951   75.3770  218.2703 H   0  0  0  0  0  0  0  0  0  0  0  0
  143.1160   77.9620  219.5373 H   0  0  0  0  0  0  0  0  0  0  0  0
  142.9128   77.6337  217.8144 H   0  0  0  0  0  0  0  0  0  0  0  0
  141.1464   79.1652  219.2340 H   0  0  0  0  0  0  0  0  0  0  0  0
  140.6015   78.1803  217.8718 H   0  0  0  0  0  0  0  0  0  0  0  0
  139.3469   76.9872  219.3516 H   0  0  0  0  0  0  0  0  0  0  0  0
  137.6925   77.7427  221.1929 H   0  0  0  0  0  0  0  0  0  0  0  0
  137.9960   79.2080  223.3700 H   0  0  0  0  0  0  0  0  0  0  0  0
  140.1368   80.4199  224.6641 H   0  0  0  0  0  0  0  0  0  0  0  0
  142.5932   80.7771  224.5535 H   0  0  0  0  0  0  0  0  0  0  0  0
  143.8764   79.7899  222.6860 H   0  0  0  0  0  0  0  0  0  0  0  0
  142.7568   78.4414  220.9106 H   0  0  0  0  0  0  0  0  0  0  0  0
  138.6228   69.5060  222.5008 H   0  0  0  0  0  0  0  0  0  0  0  0
  138.9118   68.0483  224.4915 H   0  0  0  0  0  0  0  0  0  0  0  0
  139.6805   67.7035  226.7896 H   0  0  0  0  0  0  0  0  0  0  0  0
  141.5412   70.9815  228.8470 H   0  0  0  0  0  0  0  0  0  0  0  0
  141.2448   72.4358  226.8394 H   0  0  0  0  0  0  0  0  0  0  0  0
  1  2  2  0
  2  3  1  0
  3  4  1  0
  4  5  1  0
  5  6  2  0
  5  7  1  0
  7  8  1  0
  8  9  1  0
  9 10  1  0
 10 11  1  0
 11 12  1  0
 12 13  2  0
 13 14  1  0
 14 15  1  0
 15 16  2  0
 16 17  1  0
 17 18  2  0
 18 19  1  0
 19 20  2  0
  2 21  1  0
 21 22  2  0
 22 23  1  0
 23 24  2  0
 24 25  1  0
 25 26  2  0
 26 27  1  0
 26 28  1  0
 28 29  2  0
 29 30  1  0
 30 31  2  0
 11  7  1  0
 20 12  1  0
 31 21  1  0
 20 15  1  0
 30 24  1  0
  3 32  1  0
  4 33  1  0
  4 34  1  0
  8 35  1  0
  8 36  1  0
  9 37  1  0
  9 38  1  0
 10 39  1  0
 10 40  1  0
 11 41  1  6
 13 42  1  0
 14 43  1  0
 16 44  1  0
 17 45  1  0
 18 46  1  0
 19 47  1  0
 22 48  1  0
 23 49  1  0
 25 50  1  0
 28 51  1  0
 29 52  1  0
M  END
>  <smiles>  (36) 
O=C(NCC(=O)N1CCC[C@@H]1c1c[nH]c2ccccc12)c1ccc2cc(F)ccc2n1

>  <score_type>  (36) 
oracle

>  <origin>  (36) 
autodockgpu

>  <m_score__min__energy>  (36) 
-9.3499999999999996

>  <m_primary>  (36) 
energy

>  <rmsd>  (36) 
1.790813870280563

>  <m_score__min__rmsd>  (36) 
1.790813870280563

>  <meeko>  (36) 
{"free_energy": -8.13, "intermolecular_energy": -9.62, "internal_energy": -2.12, "cluster_size": 28, "cluster_id": 1, "rank_in_cluster": 27}

>  <energy>  (36) 
-8.28

>  <cluster_rmsd>  (36) 
1.4

>  <cluster>  (36) 
2

$$$$

     RDKit          3D

 52 56  0  0  0  0  0  0  0  0999 V2000
  139.9120   71.3440  221.0470 O   0  0  0  0  0  0  0  0  0  0  0  0
  139.7890   71.8620  222.1900 C   0  0  0  0  0  0  0  0  0  0  0  0
  139.6660   73.2790  222.3470 N   0  0  0  0  0  0  0  0  0  0  0  0
  139.6860   74.0890  221.1460 C   0  0  0  0  0  0  0  0  0  0  0  0
  140.2410   75.4520  221.4280 C   0  0  0  0  0  0  0  0  0  0  0  0
  140.1050   75.8650  222.6100 O   0  0  0  0  0  0  0  0  0  0  0  0
  140.8740   76.2060  220.4020 N   0  0  0  0  0  0  0  0  0  0  0  0
  142.0540   75.7760  219.6770 C   0  0  0  0  0  0  0  0  0  0  0  0
  142.6950   77.1410  219.4350 C   0  0  0  0  0  0  0  0  0  0  0  0
  141.5410   78.0870  219.2270 C   0  0  0  0  0  0  0  0  0  0  0  0
  140.4090   77.4940  219.9650 C   0  0  2  0  0  0  0  0  0  0  0  0
  139.9350   78.3340  221.0990 C   0  0  0  0  0  0  0  0  0  0  0  0
  138.6480   78.5940  221.5190 C   0  0  0  0  0  0  0  0  0  0  0  0
  138.7370   79.4170  222.5960 N   0  0  0  0  0  0  0  0  0  0  0  0
  140.0340   79.6730  222.8530 C   0  0  0  0  0  0  0  0  0  0  0  0
  140.6460   80.4420  223.8260 C   0  0  0  0  0  0  0  0  0  0  0  0
  142.0220   80.5520  223.8850 C   0  0  0  0  0  0  0  0  0  0  0  0
  142.7810   79.8760  222.9520 C   0  0  0  0  0  0  0  0  0  0  0  0
  142.2090   79.0910  221.9550 C   0  0  0  0  0  0  0  0  0  0  0  0
  140.8310   79.0060  221.9280 C   0  0  0  0  0  0  0  0  0  0  0  0
  139.7720   71.0170  223.3860 C   0  0  0  0  0  0  0  0  0  0  0  0
  139.2110   69.7630  223.3320 C   0  0  0  0  0  0  0  0  0  0  0  0
  139.2220   69.0080  224.4910 C   0  0  0  0  0  0  0  0  0  0  0  0
  139.7680   69.4730  225.6720 C   0  0  0  0  0  0  0  0  0  0  0  0
  139.7800   68.7160  226.8350 C   0  0  0  0  0  0  0  0  0  0  0  0
  140.3440   69.2320  228.0050 C   0  0  0  0  0  0  0  0  0  0  0  0
  140.3710   68.5270  229.1430 F   0  0  0  0  0  0  0  0  0  0  0  0
  140.8850   70.4990  227.9710 C   0  0  0  0  0  0  0  0  0  0  0  0
  140.8820   71.2740  226.8110 C   0  0  0  0  0  0  0  0  0  0  0  0
  140.3140   70.7280  225.6760 C   0  0  0  0  0  0  0  0  0  0  0  0
  140.2980   71.4450  224.5540 N   0  0  0  0  0  0  0  0  0  0  0  0
  139.5650   73.7110  223.2910 H   0  0  0  0  0  0  0  0  0  0  0  0
  140.3126   73.5948  220.3890 H   0  0  0  0  0  0  0  0  0  0  0  0
  138.6546   74.1990  220.7797 H   0  0  0  0  0  0  0  0  0  0  0  0
  142.6956   75.1207  220.2845 H   0  0  0  0  0  0  0  0  0  0  0  0
  141.8631   75.1760  218.7750 H   0  0  0  0  0  0  0  0  0  0  0  0
  143.2924   77.4468  220.3066 H   0  0  0  0  0  0  0  0  0  0  0  0
  143.3772   77.1281  218.5722 H   0  0  0  0  0  0  0  0  0  0  0  0
  141.7825   79.0824  219.6280 H   0  0  0  0  0  0  0  0  0  0  0  0
  141.3086   78.2198  218.1601 H   0  0  0  0  0  0  0  0  0  0  0  0
  139.5240   77.4137  219.3167 H   0  0  0  0  0  0  0  0  0  0  0  0
  137.7227   78.2076  221.0669 H   0  0  0  0  0  0  0  0  0  0  0  0
  137.9320   79.8080  223.1580 H   0  0  0  0  0  0  0  0  0  0  0  0
  140.0279   80.9741  224.5641 H   0  0  0  0  0  0  0  0  0  0  0  0
  142.5028   81.1664  224.6605 H   0  0  0  0  0  0  0  0  0  0  0  0
  143.8768   79.9604  222.9977 H   0  0  0  0  0  0  0  0  0  0  0  0
  142.8296   78.5598  221.2183 H   0  0  0  0  0  0  0  0  0  0  0  0
  138.7700   69.3747  222.4021 H   0  0  0  0  0  0  0  0  0  0  0  0
  138.7800   68.0009  224.4717 H   0  0  0  0  0  0  0  0  0  0  0  0
  139.3440   67.7061  226.8360 H   0  0  0  0  0  0  0  0  0  0  0  0
  141.3330   70.9120  228.8868 H   0  0  0  0  0  0  0  0  0  0  0  0
  141.3167   72.2844  226.8004 H   0  0  0  0  0  0  0  0  0  0  0  0
  1  2  2  0
  2  3  1  0
  3  4  1  0
  4  5  1  0
  5  6  2  0
  5  7  1  0
  7  8  1  0
  8  9  1  0
  9 10  1  0
 10 11  1  0
 11 12  1  0
 12 13  2  0
 13 14  1  0
 14 15  1  0
 15 16  2  0
 16 17  1  0
 17 18  2  0
 18 19  1  0
 19 20  2  0
  2 21  1  0
 21 22  2  0
 22 23  1  0
 23 24  2  0
 24 25  1  0
 25 26  2  0
 26 27  1  0
 26 28  1  0
 28 29  2  0
 29 30  1  0
 30 31  2  0
 11  7  1  0
 20 12  1  0
 31 21  1  0
 20 15  1  0
 30 24  1  0
  3 32  1  0
  4 33  1  0
  4 34  1  0
  8 35  1  0
  8 36  1  0
  9 37  1  0
  9 38  1  0
 10 39  1  0
 10 40  1  0
 11 41  1  6
 13 42  1  0
 14 43  1  0
 16 44  1  0
 17 45  1  0
 18 46  1  0
 19 47  1  0
 22 48  1  0
 23 49  1  0
 25 50  1  0
 28 51  1  0
 29 52  1  0
M  END
>  <smiles>  (37) 
O=C(NCC(=O)N1CCC[C@@H]1c1c[nH]c2ccccc12)c1ccc2cc(F)ccc2n1

>  <score_type>  (37) 
oracle

>  <origin>  (37) 
autodockgpu

>  <m_score__min__energy>  (37) 
-9.3499999999999996

>  <m_primary>  (37) 
energy

>  <rmsd>  (37) 
1.7515506025679128

>  <m_score__min__rmsd>  (37) 
1.7515506025679128

>  <meeko>  (37) 
{"free_energy": -9.02, "intermolecular_energy": -10.51, "internal_energy": -1.79, "cluster_size": 28, "cluster_id": 1, "rank_in_cluster": 11}

>  <energy>  (37) 
-8.24

>  <cluster_rmsd>  (37) 
1.22

>  <cluster>  (37) 
2

$$$$

     RDKit          3D

 52 56  0  0  0  0  0  0  0  0999 V2000
  141.1860   71.9490  221.2490 O   0  0  0  0  0  0  0  0  0  0  0  0
  140.5130   72.4000  222.2150 C   0  0  0  0  0  0  0  0  0  0  0  0
  140.0060   73.7370  222.1980 N   0  0  0  0  0  0  0  0  0  0  0  0
  140.2950   74.5470  221.0320 C   0  0  0  0  0  0  0  0  0  0  0  0
  140.9320   75.8450  221.4250 C   0  0  0  0  0  0  0  0  0  0  0  0
  140.9770   76.0820  222.6610 O   0  0  0  0  0  0  0  0  0  0  0  0
  141.4440   76.7320  220.4380 N   0  0  0  0  0  0  0  0  0  0  0  0
  140.7880   77.9530  220.0140 C   0  0  0  0  0  0  0  0  0  0  0  0
  141.2350   77.9680  218.5530 C   0  0  0  0  0  0  0  0  0  0  0  0
  142.6280   77.3950  218.5610 C   0  0  0  0  0  0  0  0  0  0  0  0
  142.6820   76.5120  219.7430 C   0  0  2  0  0  0  0  0  0  0  0  0
  142.8870   75.0770  219.4010 C   0  0  0  0  0  0  0  0  0  0  0  0
  142.1130   74.2420  218.6250 C   0  0  0  0  0  0  0  0  0  0  0  0
  142.7190   73.0270  218.6150 N   0  0  0  0  0  0  0  0  0  0  0  0
  143.8410   73.0850  219.3590 C   0  0  0  0  0  0  0  0  0  0  0  0
  144.7960   72.1320  219.6610 C   0  0  0  0  0  0  0  0  0  0  0  0
  145.8790   72.4390  220.4630 C   0  0  0  0  0  0  0  0  0  0  0  0
  145.9930   73.7210  220.9590 C   0  0  0  0  0  0  0  0  0  0  0  0
  145.0560   74.7130  220.6810 C   0  0  0  0  0  0  0  0  0  0  0  0
  143.9880   74.3680  219.8780 C   0  0  0  0  0  0  0  0  0  0  0  0
  140.2380   71.5560  223.3810 C   0  0  0  0  0  0  0  0  0  0  0  0
  139.5090   70.4010  223.2350 C   0  0  0  0  0  0  0  0  0  0  0  0
  139.2780   69.6430  224.3690 C   0  0  0  0  0  0  0  0  0  0  0  0
  139.7510   70.0120  225.6130 C   0  0  0  0  0  0  0  0  0  0  0  0
  139.5200   69.2530  226.7510 C   0  0  0  0  0  0  0  0  0  0  0  0
  140.0200   69.6690  227.9890 C   0  0  0  0  0  0  0  0  0  0  0  0
  139.8150   68.9590  229.1050 F   0  0  0  0  0  0  0  0  0  0  0  0
  140.7410   70.8420  228.0450 C   0  0  0  0  0  0  0  0  0  0  0  0
  140.9820   71.6180  226.9120 C   0  0  0  0  0  0  0  0  0  0  0  0
  140.4720   71.1720  225.7080 C   0  0  0  0  0  0  0  0  0  0  0  0
  140.6870   71.8920  224.6090 N   0  0  0  0  0  0  0  0  0  0  0  0
  139.4490   74.1140  222.9960 H   0  0  0  0  0  0  0  0  0  0  0  0
  140.9802   73.9954  220.3715 H   0  0  0  0  0  0  0  0  0  0  0  0
  139.3499   74.7633  220.5123 H   0  0  0  0  0  0  0  0  0  0  0  0
  139.6941   77.8886  220.1102 H   0  0  0  0  0  0  0  0  0  0  0  0
  141.0396   78.8522  220.5955 H   0  0  0  0  0  0  0  0  0  0  0  0
  140.5661   77.3476  217.9384 H   0  0  0  0  0  0  0  0  0  0  0  0
  141.2094   78.9811  218.1253 H   0  0  0  0  0  0  0  0  0  0  0  0
  142.8127   76.8195  217.6419 H   0  0  0  0  0  0  0  0  0  0  0  0
  143.3942   78.1831  218.6038 H   0  0  0  0  0  0  0  0  0  0  0  0
  143.5533   76.7552  220.3689 H   0  0  0  0  0  0  0  0  0  0  0  0
  141.1787   74.5097  218.1098 H   0  0  0  0  0  0  0  0  0  0  0  0
  142.3840   72.1600  218.1130 H   0  0  0  0  0  0  0  0  0  0  0  0
  144.6924   71.1142  219.2569 H   0  0  0  0  0  0  0  0  0  0  0  0
  146.6349   71.6762  220.7010 H   0  0  0  0  0  0  0  0  0  0  0  0
  146.8545   73.9686  221.5967 H   0  0  0  0  0  0  0  0  0  0  0  0
  145.1628   75.7305  221.0851 H   0  0  0  0  0  0  0  0  0  0  0  0
  139.1232   70.0903  222.2529 H   0  0  0  0  0  0  0  0  0  0  0  0
  138.6970   68.7135  224.2766 H   0  0  0  0  0  0  0  0  0  0  0  0
  138.9413   68.3203  226.6793 H   0  0  0  0  0  0  0  0  0  0  0  0
  141.1390   71.1767  229.0143 H   0  0  0  0  0  0  0  0  0  0  0  0
  141.5582   72.5529  226.9746 H   0  0  0  0  0  0  0  0  0  0  0  0
  1  2  2  0
  2  3  1  0
  3  4  1  0
  4  5  1  0
  5  6  2  0
  5  7  1  0
  7  8  1  0
  8  9  1  0
  9 10  1  0
 10 11  1  0
 11 12  1  0
 12 13  2  0
 13 14  1  0
 14 15  1  0
 15 16  2  0
 16 17  1  0
 17 18  2  0
 18 19  1  0
 19 20  2  0
  2 21  1  0
 21 22  2  0
 22 23  1  0
 23 24  2  0
 24 25  1  0
 25 26  2  0
 26 27  1  0
 26 28  1  0
 28 29  2  0
 29 30  1  0
 30 31  2  0
 11  7  1  0
 20 12  1  0
 31 21  1  0
 20 15  1  0
 30 24  1  0
  3 32  1  0
  4 33  1  0
  4 34  1  0
  8 35  1  0
  8 36  1  0
  9 37  1  0
  9 38  1  0
 10 39  1  0
 10 40  1  0
 11 41  1  1
 13 42  1  0
 14 43  1  0
 16 44  1  0
 17 45  1  0
 18 46  1  0
 19 47  1  0
 22 48  1  0
 23 49  1  0
 25 50  1  0
 28 51  1  0
 29 52  1  0
M  END
>  <smiles>  (38) 
O=C(NCC(=O)N1CCC[C@@H]1c1c[nH]c2ccccc12)c1ccc2cc(F)ccc2n1

>  <score_type>  (38) 
oracle

>  <origin>  (38) 
autodockgpu

>  <m_score__min__energy>  (38) 
-9.3499999999999996

>  <m_primary>  (38) 
energy

>  <rmsd>  (38) 
2.0923128449155044

>  <m_score__min__rmsd>  (38) 
2.0923128449155044

>  <meeko>  (38) 
{"free_energy": -8.65, "intermolecular_energy": -10.14, "internal_energy": -1.85, "cluster_size": 7, "cluster_id": 3, "rank_in_cluster": 4}

>  <energy>  (38) 
-8.18

>  <cluster_rmsd>  (38) 
1.4

>  <cluster>  (38) 
2

$$$$

     RDKit          3D

 52 56  0  0  0  0  0  0  0  0999 V2000
  140.2230   71.3980  220.9670 O   0  0  0  0  0  0  0  0  0  0  0  0
  139.9920   71.9480  222.0780 C   0  0  0  0  0  0  0  0  0  0  0  0
  139.8370   73.3670  222.1790 N   0  0  0  0  0  0  0  0  0  0  0  0
  139.9540   74.1410  220.9600 C   0  0  0  0  0  0  0  0  0  0  0  0
  140.5520   75.4870  221.2350 C   0  0  0  0  0  0  0  0  0  0  0  0
  140.6310   75.8140  222.4480 O   0  0  0  0  0  0  0  0  0  0  0  0
  140.9930   76.3180  220.1680 N   0  0  0  0  0  0  0  0  0  0  0  0
  142.1310   76.0270  219.3180 C   0  0  0  0  0  0  0  0  0  0  0  0
  142.5960   77.4560  219.0450 C   0  0  0  0  0  0  0  0  0  0  0  0
  141.3330   78.2750  218.9770 C   0  0  0  0  0  0  0  0  0  0  0  0
  140.3520   77.5540  219.8110 C   0  0  2  0  0  0  0  0  0  0  0  0
  139.9110   78.3230  221.0070 C   0  0  0  0  0  0  0  0  0  0  0  0
  138.6370   78.5520  221.4810 C   0  0  0  0  0  0  0  0  0  0  0  0
  138.7570   79.3100  222.6010 N   0  0  0  0  0  0  0  0  0  0  0  0
  140.0610   79.5570  222.8340 C   0  0  0  0  0  0  0  0  0  0  0  0
  140.7000   80.2700  223.8310 C   0  0  0  0  0  0  0  0  0  0  0  0
  142.0770   80.3820  223.8550 C   0  0  0  0  0  0  0  0  0  0  0  0
  142.8080   79.7660  222.8600 C   0  0  0  0  0  0  0  0  0  0  0  0
  142.2080   79.0390  221.8360 C   0  0  0  0  0  0  0  0  0  0  0  0
  140.8300   78.9500  221.8470 C   0  0  0  0  0  0  0  0  0  0  0  0
  139.8790   71.1390  223.2940 C   0  0  0  0  0  0  0  0  0  0  0  0
  139.2860   69.9000  223.2410 C   0  0  0  0  0  0  0  0  0  0  0  0
  139.2060   69.1790  224.4190 C   0  0  0  0  0  0  0  0  0  0  0  0
  139.6940   69.6630  225.6160 C   0  0  0  0  0  0  0  0  0  0  0  0
  139.6150   68.9410  226.7980 C   0  0  0  0  0  0  0  0  0  0  0  0
  140.1240   69.4740  227.9860 C   0  0  0  0  0  0  0  0  0  0  0  0
  140.0630   68.8020  229.1430 F   0  0  0  0  0  0  0  0  0  0  0  0
  140.7030   70.7240  227.9490 C   0  0  0  0  0  0  0  0  0  0  0  0
  140.7920   71.4650  226.7710 C   0  0  0  0  0  0  0  0  0  0  0  0
  140.2770   70.9020  225.6190 C   0  0  0  0  0  0  0  0  0  0  0  0
  140.3480   71.5860  224.4790 N   0  0  0  0  0  0  0  0  0  0  0  0
  139.6470   73.8250  223.0960 H   0  0  0  0  0  0  0  0  0  0  0  0
  140.5969   73.5997  220.2503 H   0  0  0  0  0  0  0  0  0  0  0  0
  138.9486   74.2835  220.5371 H   0  0  0  0  0  0  0  0  0  0  0  0
  142.8972   75.4368  219.8421 H   0  0  0  0  0  0  0  0  0  0  0  0
  141.9129   75.4216  218.4258 H   0  0  0  0  0  0  0  0  0  0  0  0
  143.2442   77.8131  219.8589 H   0  0  0  0  0  0  0  0  0  0  0  0
  143.1834   77.5276  218.1177 H   0  0  0  0  0  0  0  0  0  0  0  0
  141.5077   79.2854  219.3753 H   0  0  0  0  0  0  0  0  0  0  0  0
  140.9794   78.3959  217.9424 H   0  0  0  0  0  0  0  0  0  0  0  0
  139.4186   77.3876  219.2533 H   0  0  0  0  0  0  0  0  0  0  0  0
  137.6991   78.1888  221.0355 H   0  0  0  0  0  0  0  0  0  0  0  0
  137.9680   79.6630  223.2100 H   0  0  0  0  0  0  0  0  0  0  0  0
  140.1033   80.7556  224.6172 H   0  0  0  0  0  0  0  0  0  0  0  0
  142.5801   80.9506  224.6510 H   0  0  0  0  0  0  0  0  0  0  0  0
  143.9045   79.8526  222.8767 H   0  0  0  0  0  0  0  0  0  0  0  0
  142.8068   78.5552  221.0503 H   0  0  0  0  0  0  0  0  0  0  0  0
  138.8899   69.4969  222.2973 H   0  0  0  0  0  0  0  0  0  0  0  0
  138.7366   68.1843  224.4011 H   0  0  0  0  0  0  0  0  0  0  0  0
  139.1496   67.9443  226.8005 H   0  0  0  0  0  0  0  0  0  0  0  0
  141.1079   71.1509  228.8784 H   0  0  0  0  0  0  0  0  0  0  0  0
  141.2558   72.4624  226.7593 H   0  0  0  0  0  0  0  0  0  0  0  0
  1  2  2  0
  2  3  1  0
  3  4  1  0
  4  5  1  0
  5  6  2  0
  5  7  1  0
  7  8  1  0
  8  9  1  0
  9 10  1  0
 10 11  1  0
 11 12  1  0
 12 13  2  0
 13 14  1  0
 14 15  1  0
 15 16  2  0
 16 17  1  0
 17 18  2  0
 18 19  1  0
 19 20  2  0
  2 21  1  0
 21 22  2  0
 22 23  1  0
 23 24  2  0
 24 25  1  0
 25 26  2  0
 26 27  1  0
 26 28  1  0
 28 29  2  0
 29 30  1  0
 30 31  2  0
 11  7  1  0
 20 12  1  0
 31 21  1  0
 20 15  1  0
 30 24  1  0
  3 32  1  0
  4 33  1  0
  4 34  1  0
  8 35  1  0
  8 36  1  0
  9 37  1  0
  9 38  1  0
 10 39  1  0
 10 40  1  0
 11 41  1  6
 13 42  1  0
 14 43  1  0
 16 44  1  0
 17 45  1  0
 18 46  1  0
 19 47  1  0
 22 48  1  0
 23 49  1  0
 25 50  1  0
 28 51  1  0
 29 52  1  0
M  END
>  <smiles>  (39) 
O=C(NCC(=O)N1CCC[C@@H]1c1c[nH]c2ccccc12)c1ccc2cc(F)ccc2n1

>  <score_type>  (39) 
oracle

>  <origin>  (39) 
autodockgpu

>  <m_score__min__energy>  (39) 
-9.3499999999999996

>  <m_primary>  (39) 
energy

>  <rmsd>  (39) 
1.8015206525964083

>  <m_score__min__rmsd>  (39) 
1.8015206525964083

>  <meeko>  (39) 
{"free_energy": -8.86, "intermolecular_energy": -10.35, "internal_energy": -1.91, "cluster_size": 28, "cluster_id": 1, "rank_in_cluster": 18}

>  <energy>  (39) 
-8.16

>  <cluster_rmsd>  (39) 
1.41

>  <cluster>  (39) 
2

$$$$

     RDKit          3D

 52 56  0  0  0  0  0  0  0  0999 V2000
  133.8770   69.9160  226.8370 O   0  0  0  0  0  0  0  0  0  0  0  0
  134.0730   71.0090  226.2390 C   0  0  0  0  0  0  0  0  0  0  0  0
  135.0010   71.0970  225.1530 N   0  0  0  0  0  0  0  0  0  0  0  0
  135.6990   69.8880  224.7700 C   0  0  0  0  0  0  0  0  0  0  0  0
  137.0190   70.2080  224.1370 C   0  0  0  0  0  0  0  0  0  0  0  0
  137.4810   71.3530  224.3820 O   0  0  0  0  0  0  0  0  0  0  0  0
  137.6820   69.2540  223.3160 N   0  0  0  0  0  0  0  0  0  0  0  0
  137.0760   68.5900  222.1790 C   0  0  0  0  0  0  0  0  0  0  0  0
  137.8040   67.2490  222.2710 C   0  0  0  0  0  0  0  0  0  0  0  0
  139.1890   67.5860  222.7590 C   0  0  0  0  0  0  0  0  0  0  0  0
  139.0420   68.8390  223.5260 C   0  0  2  0  0  0  0  0  0  0  0  0
  139.3670   68.6910  224.9710 C   0  0  0  0  0  0  0  0  0  0  0  0
  139.1730   67.6110  225.8060 C   0  0  0  0  0  0  0  0  0  0  0  0
  139.6340   67.9660  227.0330 N   0  0  0  0  0  0  0  0  0  0  0  0
  140.1050   69.2280  226.9830 C   0  0  0  0  0  0  0  0  0  0  0  0
  140.6710   70.0380  227.9490 C   0  0  0  0  0  0  0  0  0  0  0  0
  141.0840   71.3220  227.6470 C   0  0  0  0  0  0  0  0  0  0  0  0
  140.9210   71.7840  226.3580 C   0  0  0  0  0  0  0  0  0  0  0  0
  140.3560   71.0030  225.3530 C   0  0  0  0  0  0  0  0  0  0  0  0
  139.9550   69.7270  225.6930 C   0  0  0  0  0  0  0  0  0  0  0  0
  133.3520   72.2160  226.6500 C   0  0  0  0  0  0  0  0  0  0  0  0
  132.1080   72.1100  227.2230 C   0  0  0  0  0  0  0  0  0  0  0  0
  131.4720   73.2820  227.5920 C   0  0  0  0  0  0  0  0  0  0  0  0
  132.0440   74.5250  227.4020 C   0  0  0  0  0  0  0  0  0  0  0  0
  131.4080   75.7010  227.7710 C   0  0  0  0  0  0  0  0  0  0  0  0
  132.0280   76.9350  227.5580 C   0  0  0  0  0  0  0  0  0  0  0  0
  131.4410   78.0880  227.9030 F   0  0  0  0  0  0  0  0  0  0  0  0
  133.2780   76.9500  226.9770 C   0  0  0  0  0  0  0  0  0  0  0  0
  133.9330   75.7780  226.5990 C   0  0  0  0  0  0  0  0  0  0  0  0
  133.2860   74.5790  226.8270 C   0  0  0  0  0  0  0  0  0  0  0  0
  133.8870   73.4440  226.4760 N   0  0  0  0  0  0  0  0  0  0  0  0
  135.1670   72.0000  224.6570 H   0  0  0  0  0  0  0  0  0  0  0  0
  135.8692   69.2719  225.6652 H   0  0  0  0  0  0  0  0  0  0  0  0
  135.0826   69.3438  224.0394 H   0  0  0  0  0  0  0  0  0  0  0  0
  135.9882   68.4780  222.2981 H   0  0  0  0  0  0  0  0  0  0  0  0
  137.1714   69.1157  221.2175 H   0  0  0  0  0  0  0  0  0  0  0  0
  137.2957   66.5818  222.9826 H   0  0  0  0  0  0  0  0  0  0  0  0
  137.8243   66.7243  221.3044 H   0  0  0  0  0  0  0  0  0  0  0  0
  139.5754   66.7832  223.4042 H   0  0  0  0  0  0  0  0  0  0  0  0
  139.8995   67.6976  221.9267 H   0  0  0  0  0  0  0  0  0  0  0  0
  139.7615   69.5941  223.1765 H   0  0  0  0  0  0  0  0  0  0  0  0
  138.7283   66.6435  225.5300 H   0  0  0  0  0  0  0  0  0  0  0  0
  139.6340   67.3670  227.9040 H   0  0  0  0  0  0  0  0  0  0  0  0
  140.7946   69.6555  228.9729 H   0  0  0  0  0  0  0  0  0  0  0  0
  141.5339   71.9627  228.4197 H   0  0  0  0  0  0  0  0  0  0  0  0
  141.2489   72.8055  226.1151 H   0  0  0  0  0  0  0  0  0  0  0  0
  140.2343   71.3875  224.3296 H   0  0  0  0  0  0  0  0  0  0  0  0
  131.6351   71.1297  227.3826 H   0  0  0  0  0  0  0  0  0  0  0  0
  130.4752   73.2219  228.0532 H   0  0  0  0  0  0  0  0  0  0  0  0
  130.4107   75.6621  228.2335 H   0  0  0  0  0  0  0  0  0  0  0  0
  133.7745   77.9166  226.8061 H   0  0  0  0  0  0  0  0  0  0  0  0
  134.9301   75.8075  226.1354 H   0  0  0  0  0  0  0  0  0  0  0  0
  1  2  2  0
  2  3  1  0
  3  4  1  0
  4  5  1  0
  5  6  2  0
  5  7  1  0
  7  8  1  0
  8  9  1  0
  9 10  1  0
 10 11  1  0
 11 12  1  0
 12 13  2  0
 13 14  1  0
 14 15  1  0
 15 16  2  0
 16 17  1  0
 17 18  2  0
 18 19  1  0
 19 20  2  0
  2 21  1  0
 21 22  2  0
 22 23  1  0
 23 24  2  0
 24 25  1  0
 25 26  2  0
 26 27  1  0
 26 28  1  0
 28 29  2  0
 29 30  1  0
 30 31  2  0
 11  7  1  0
 20 12  1  0
 31 21  1  0
 20 15  1  0
 30 24  1  0
  3 32  1  0
  4 33  1  0
  4 34  1  0
  8 35  1  0
  8 36  1  0
  9 37  1  0
  9 38  1  0
 10 39  1  0
 10 40  1  0
 11 41  1  6
 13 42  1  0
 14 43  1  0
 16 44  1  0
 17 45  1  0
 18 46  1  0
 19 47  1  0
 22 48  1  0
 23 49  1  0
 25 50  1  0
 28 51  1  0
 29 52  1  0
M  END
>  <smiles>  (40) 
O=C(NCC(=O)N1CCC[C@@H]1c1c[nH]c2ccccc12)c1ccc2cc(F)ccc2n1

>  <score_type>  (40) 
oracle

>  <origin>  (40) 
autodockgpu

>  <m_score__min__energy>  (40) 
-9.3499999999999996

>  <m_primary>  (40) 
energy

>  <rmsd>  (40) 
8.876407696837415

>  <m_score__min__rmsd>  (40) 
8.876407696837415

>  <meeko>  (40) 
{"free_energy": -9.22, "intermolecular_energy": -10.71, "internal_energy": -1.91, "cluster_size": 11, "cluster_id": 2, "rank_in_cluster": 2}

>  <energy>  (40) 
-8.7

>  <cluster_rmsd>  (40) 
0.0

>  <cluster>  (40) 
3

$$$$

     RDKit          3D

 52 56  0  0  0  0  0  0  0  0999 V2000
  139.7820   70.6610  221.3670 O   0  0  0  0  0  0  0  0  0  0  0  0
  139.5870   71.4380  222.3420 C   0  0  0  0  0  0  0  0  0  0  0  0
  138.9940   72.7260  222.1480 N   0  0  0  0  0  0  0  0  0  0  0  0
  138.6290   73.0990  220.7970 C   0  0  0  0  0  0  0  0  0  0  0  0
  139.4770   74.2320  220.3050 C   0  0  0  0  0  0  0  0  0  0  0  0
  139.8940   74.1300  219.1220 O   0  0  0  0  0  0  0  0  0  0  0  0
  139.7730   75.3380  221.1490 N   0  0  0  0  0  0  0  0  0  0  0  0
  138.8050   76.3300  221.5710 C   0  0  0  0  0  0  0  0  0  0  0  0
  139.7280   77.5450  221.6500 C   0  0  0  0  0  0  0  0  0  0  0  0
  141.0510   77.0040  222.1270 C   0  0  0  0  0  0  0  0  0  0  0  0
  141.0830   75.5960  221.6820 C   0  0  2  0  0  0  0  0  0  0  0  0
  142.1580   75.3120  220.6930 C   0  0  0  0  0  0  0  0  0  0  0  0
  142.7930   76.1680  219.8190 C   0  0  0  0  0  0  0  0  0  0  0  0
  143.7000   75.4330  219.1260 N   0  0  0  0  0  0  0  0  0  0  0  0
  143.6460   74.1530  219.5420 C   0  0  0  0  0  0  0  0  0  0  0  0
  144.3520   73.0290  219.1580 C   0  0  0  0  0  0  0  0  0  0  0  0
  144.1110   71.8020  219.7460 C   0  0  0  0  0  0  0  0  0  0  0  0
  143.1480   71.7170  220.7300 C   0  0  0  0  0  0  0  0  0  0  0  0
  142.4120   72.8220  221.1480 C   0  0  0  0  0  0  0  0  0  0  0  0
  142.6810   74.0300  220.5370 C   0  0  0  0  0  0  0  0  0  0  0  0
  139.9670   71.0330  223.6970 C   0  0  0  0  0  0  0  0  0  0  0  0
  140.6870   71.8920  224.4930 C   0  0  0  0  0  0  0  0  0  0  0  0
  141.0190   71.4580  225.7640 C   0  0  0  0  0  0  0  0  0  0  0  0
  140.6550   70.2130  226.2390 C   0  0  0  0  0  0  0  0  0  0  0  0
  140.9880   69.7770  227.5130 C   0  0  0  0  0  0  0  0  0  0  0  0
  140.5960   68.5070  227.9480 C   0  0  0  0  0  0  0  0  0  0  0  0
  140.9020   68.0570  229.1710 F   0  0  0  0  0  0  0  0  0  0  0  0
  139.8760   67.7100  227.0840 C   0  0  0  0  0  0  0  0  0  0  0  0
  139.5330   68.1320  225.8000 C   0  0  0  0  0  0  0  0  0  0  0  0
  139.9390   69.3930  225.4080 C   0  0  0  0  0  0  0  0  0  0  0  0
  139.6250   69.8220  224.1880 N   0  0  0  0  0  0  0  0  0  0  0  0
  138.8320   73.3710  222.9520 H   0  0  0  0  0  0  0  0  0  0  0  0
  138.7677   72.2319  220.1345 H   0  0  0  0  0  0  0  0  0  0  0  0
  137.5774   73.4216  220.7946 H   0  0  0  0  0  0  0  0  0  0  0  0
  138.0047   76.4674  220.8289 H   0  0  0  0  0  0  0  0  0  0  0  0
  138.2552   76.0924  222.4937 H   0  0  0  0  0  0  0  0  0  0  0  0
  139.8364   78.0124  220.6601 H   0  0  0  0  0  0  0  0  0  0  0  0
  139.3327   78.3192  222.3240 H   0  0  0  0  0  0  0  0  0  0  0  0
  141.8818   77.5683  221.6783 H   0  0  0  0  0  0  0  0  0  0  0  0
  141.1585   77.0904  223.2183 H   0  0  0  0  0  0  0  0  0  0  0  0
  141.3240   74.9285  222.5225 H   0  0  0  0  0  0  0  0  0  0  0  0
  142.6009   77.2450  219.7044 H   0  0  0  0  0  0  0  0  0  0  0  0
  144.3550   75.7850  218.3740 H   0  0  0  0  0  0  0  0  0  0  0  0
  145.1174   73.1122  218.3724 H   0  0  0  0  0  0  0  0  0  0  0  0
  144.6759   70.9106  219.4356 H   0  0  0  0  0  0  0  0  0  0  0  0
  142.9549   70.7418  221.2008 H   0  0  0  0  0  0  0  0  0  0  0  0
  141.6469   72.7360  221.9336 H   0  0  0  0  0  0  0  0  0  0  0  0
  140.9878   72.8869  224.1329 H   0  0  0  0  0  0  0  0  0  0  0  0
  141.5935   72.1285  226.4200 H   0  0  0  0  0  0  0  0  0  0  0  0
  141.5626   70.4327  228.1837 H   0  0  0  0  0  0  0  0  0  0  0  0
  139.5623   66.7099  227.4178 H   0  0  0  0  0  0  0  0  0  0  0  0
  138.9588   67.4831  225.1224 H   0  0  0  0  0  0  0  0  0  0  0  0
  1  2  2  0
  2  3  1  0
  3  4  1  0
  4  5  1  0
  5  6  2  0
  5  7  1  0
  7  8  1  0
  8  9  1  0
  9 10  1  0
 10 11  1  0
 11 12  1  0
 12 13  2  0
 13 14  1  0
 14 15  1  0
 15 16  2  0
 16 17  1  0
 17 18  2  0
 18 19  1  0
 19 20  2  0
  2 21  1  0
 21 22  2  0
 22 23  1  0
 23 24  2  0
 24 25  1  0
 25 26  2  0
 26 27  1  0
 26 28  1  0
 28 29  2  0
 29 30  1  0
 30 31  2  0
 11  7  1  0
 20 12  1  0
 31 21  1  0
 20 15  1  0
 30 24  1  0
  3 32  1  0
  4 33  1  0
  4 34  1  0
  8 35  1  0
  8 36  1  0
  9 37  1  0
  9 38  1  0
 10 39  1  0
 10 40  1  0
 11 41  1  1
 13 42  1  0
 14 43  1  0
 16 44  1  0
 17 45  1  0
 18 46  1  0
 19 47  1  0
 22 48  1  0
 23 49  1  0
 25 50  1  0
 28 51  1  0
 29 52  1  0
M  END
>  <smiles>  (41) 
O=C(NCC(=O)N1CCC[C@@H]1c1c[nH]c2ccccc12)c1ccc2cc(F)ccc2n1

>  <score_type>  (41) 
oracle

>  <origin>  (41) 
autodockgpu

>  <m_score__min__energy>  (41) 
-9.3499999999999996

>  <m_primary>  (41) 
energy

>  <rmsd>  (41) 
3.0955935949714632

>  <m_score__min__rmsd>  (41) 
3.0955935949714632

>  <meeko>  (41) 
{"free_energy": -8.18, "intermolecular_energy": -9.67, "internal_energy": -1.99, "cluster_size": 7, "cluster_id": 3, "rank_in_cluster": 6}

>  <energy>  (41) 
-8.7

>  <cluster_rmsd>  (41) 
0.12

>  <cluster>  (41) 
3

$$$$

     RDKit          3D

 52 56  0  0  0  0  0  0  0  0999 V2000
  141.1200   72.2620  221.3740 O   0  0  0  0  0  0  0  0  0  0  0  0
  140.2460   72.4470  222.2640 C   0  0  0  0  0  0  0  0  0  0  0  0
  139.3330   73.5450  222.1810 N   0  0  0  0  0  0  0  0  0  0  0  0
  139.4510   74.4290  221.0390 C   0  0  0  0  0  0  0  0  0  0  0  0
  140.5960   75.3800  221.2130 C   0  0  0  0  0  0  0  0  0  0  0  0
  141.1490   75.3710  222.3450 O   0  0  0  0  0  0  0  0  0  0  0  0
  141.0060   76.2270  220.1470 N   0  0  0  0  0  0  0  0  0  0  0  0
  142.1290   75.9570  219.2710 C   0  0  0  0  0  0  0  0  0  0  0  0
  142.5740   77.3940  219.0040 C   0  0  0  0  0  0  0  0  0  0  0  0
  141.3010   78.1990  218.9700 C   0  0  0  0  0  0  0  0  0  0  0  0
  140.3440   77.4590  219.8160 C   0  0  2  0  0  0  0  0  0  0  0  0
  139.9200   78.2110  221.0280 C   0  0  0  0  0  0  0  0  0  0  0  0
  138.6540   78.4110  221.5370 C   0  0  0  0  0  0  0  0  0  0  0  0
  138.7880   79.1640  222.6590 N   0  0  0  0  0  0  0  0  0  0  0  0
  140.0920   79.4360  222.8590 C   0  0  0  0  0  0  0  0  0  0  0  0
  140.7420   80.1560  223.8440 C   0  0  0  0  0  0  0  0  0  0  0  0
  142.1170   80.2960  223.8320 C   0  0  0  0  0  0  0  0  0  0  0  0
  142.8340   79.7020  222.8150 C   0  0  0  0  0  0  0  0  0  0  0  0
  142.2220   78.9690  221.8020 C   0  0  0  0  0  0  0  0  0  0  0  0
  140.8470   78.8510  221.8480 C   0  0  0  0  0  0  0  0  0  0  0  0
  140.1510   71.5360  223.4070 C   0  0  0  0  0  0  0  0  0  0  0  0
  139.5770   70.2980  223.2510 C   0  0  0  0  0  0  0  0  0  0  0  0
  139.5130   69.4780  224.3640 C   0  0  0  0  0  0  0  0  0  0  0  0
  140.0000   69.8670  225.5970 C   0  0  0  0  0  0  0  0  0  0  0  0
  139.9370   69.0460  226.7140 C   0  0  0  0  0  0  0  0  0  0  0  0
  140.4440   69.4850  227.9400 C   0  0  0  0  0  0  0  0  0  0  0  0
  140.3980   68.7170  229.0370 F   0  0  0  0  0  0  0  0  0  0  0  0
  141.0040   70.7430  228.0080 C   0  0  0  0  0  0  0  0  0  0  0  0
  141.0760   71.5810  226.8960 C   0  0  0  0  0  0  0  0  0  0  0  0
  140.5630   71.1100  225.7020 C   0  0  0  0  0  0  0  0  0  0  0  0
  140.6190   71.8900  224.6240 N   0  0  0  0  0  0  0  0  0  0  0  0
  138.6090   73.7020  222.9160 H   0  0  0  0  0  0  0  0  0  0  0  0
  139.6177   73.8269  220.1336 H   0  0  0  0  0  0  0  0  0  0  0  0
  138.5221   75.0112  220.9486 H   0  0  0  0  0  0  0  0  0  0  0  0
  142.9117   75.3692  219.7729 H   0  0  0  0  0  0  0  0  0  0  0  0
  141.8987   75.3590  218.3769 H   0  0  0  0  0  0  0  0  0  0  0  0
  143.2344   77.7496  219.8086 H   0  0  0  0  0  0  0  0  0  0  0  0
  143.1425   77.4820  218.0664 H   0  0  0  0  0  0  0  0  0  0  0  0
  141.4727   79.2071  219.3752 H   0  0  0  0  0  0  0  0  0  0  0  0
  140.9255   78.3258  217.9439 H   0  0  0  0  0  0  0  0  0  0  0  0
  139.4010   77.2880  219.2761 H   0  0  0  0  0  0  0  0  0  0  0  0
  137.7123   78.0317  221.1135 H   0  0  0  0  0  0  0  0  0  0  0  0
  138.0080   79.4970  223.2910 H   0  0  0  0  0  0  0  0  0  0  0  0
  140.1565   80.6242  224.6489 H   0  0  0  0  0  0  0  0  0  0  0  0
  142.6292   80.8700  224.6183 H   0  0  0  0  0  0  0  0  0  0  0  0
  143.9285   79.8112  222.8037 H   0  0  0  0  0  0  0  0  0  0  0  0
  142.8099   78.5028  220.9976 H   0  0  0  0  0  0  0  0  0  0  0  0
  139.1828   69.9705  222.2777 H   0  0  0  0  0  0  0  0  0  0  0  0
  139.0584   68.4814  224.2634 H   0  0  0  0  0  0  0  0  0  0  0  0
  139.4862   68.0458  226.6341 H   0  0  0  0  0  0  0  0  0  0  0  0
  141.4063   71.0964  228.9689 H   0  0  0  0  0  0  0  0  0  0  0  0
  141.5256   72.5825  226.9664 H   0  0  0  0  0  0  0  0  0  0  0  0
  1  2  2  0
  2  3  1  0
  3  4  1  0
  4  5  1  0
  5  6  2  0
  5  7  1  0
  7  8  1  0
  8  9  1  0
  9 10  1  0
 10 11  1  0
 11 12  1  0
 12 13  2  0
 13 14  1  0
 14 15  1  0
 15 16  2  0
 16 17  1  0
 17 18  2  0
 18 19  1  0
 19 20  2  0
  2 21  1  0
 21 22  2  0
 22 23  1  0
 23 24  2  0
 24 25  1  0
 25 26  2  0
 26 27  1  0
 26 28  1  0
 28 29  2  0
 29 30  1  0
 30 31  2  0
 11  7  1  0
 20 12  1  0
 31 21  1  0
 20 15  1  0
 30 24  1  0
  3 32  1  0
  4 33  1  0
  4 34  1  0
  8 35  1  0
  8 36  1  0
  9 37  1  0
  9 38  1  0
 10 39  1  0
 10 40  1  0
 11 41  1  6
 13 42  1  0
 14 43  1  0
 16 44  1  0
 17 45  1  0
 18 46  1  0
 19 47  1  0
 22 48  1  0
 23 49  1  0
 25 50  1  0
 28 51  1  0
 29 52  1  0
M  END
>  <smiles>  (42) 
O=C(NCC(=O)N1CCC[C@@H]1c1c[nH]c2ccccc12)c1ccc2cc(F)ccc2n1

>  <score_type>  (42) 
oracle

>  <origin>  (42) 
autodockgpu

>  <m_score__min__energy>  (42) 
-9.3499999999999996

>  <m_primary>  (42) 
energy

>  <rmsd>  (42) 
1.817597669782868

>  <m_score__min__rmsd>  (42) 
1.817597669782868

>  <meeko>  (42) 
{"free_energy": -9.12, "intermolecular_energy": -10.62, "internal_energy": -1.47, "cluster_size": 28, "cluster_id": 1, "rank_in_cluster": 6}

>  <energy>  (42) 
-8.67

>  <cluster_rmsd>  (42) 
0.1

>  <cluster>  (42) 
3

$$$$

     RDKit          3D

 52 56  0  0  0  0  0  0  0  0999 V2000
  133.8120   70.1330  226.5960 O   0  0  0  0  0  0  0  0  0  0  0  0
  134.0660   71.2750  226.1260 C   0  0  0  0  0  0  0  0  0  0  0  0
  135.0550   71.4470  225.1060 N   0  0  0  0  0  0  0  0  0  0  0  0
  135.7460   70.2640  224.6370 C   0  0  0  0  0  0  0  0  0  0  0  0
  136.5620   70.5660  223.4180 C   0  0  0  0  0  0  0  0  0  0  0  0
  136.5070   71.7540  223.0030 O   0  0  0  0  0  0  0  0  0  0  0  0
  137.3370   69.5510  222.7920 N   0  0  0  0  0  0  0  0  0  0  0  0
  136.7920   68.3330  222.2270 C   0  0  0  0  0  0  0  0  0  0  0  0
  137.9630   67.3940  222.5110 C   0  0  0  0  0  0  0  0  0  0  0  0
  139.1970   68.2430  222.3490 C   0  0  0  0  0  0  0  0  0  0  0  0
  138.7660   69.6230  222.6500 C   0  0  2  0  0  0  0  0  0  0  0  0
  139.4220   70.2000  223.8550 C   0  0  0  0  0  0  0  0  0  0  0  0
  139.9460   71.4600  224.0490 C   0  0  0  0  0  0  0  0  0  0  0  0
  140.4330   71.5010  225.3160 N   0  0  0  0  0  0  0  0  0  0  0  0
  140.2290   70.3090  225.9090 C   0  0  0  0  0  0  0  0  0  0  0  0
  140.5360   69.8450  227.1740 C   0  0  0  0  0  0  0  0  0  0  0  0
  140.2180   68.5550  227.5560 C   0  0  0  0  0  0  0  0  0  0  0  0
  139.5840   67.7330  226.6470 C   0  0  0  0  0  0  0  0  0  0  0  0
  139.2560   68.1570  225.3630 C   0  0  0  0  0  0  0  0  0  0  0  0
  139.5900   69.4520  225.0180 C   0  0  0  0  0  0  0  0  0  0  0  0
  133.3510   72.4540  226.6210 C   0  0  0  0  0  0  0  0  0  0  0  0
  132.1460   72.3060  227.2630 C   0  0  0  0  0  0  0  0  0  0  0  0
  131.5140   73.4530  227.7090 C   0  0  0  0  0  0  0  0  0  0  0  0
  132.0520   74.7110  227.5280 C   0  0  0  0  0  0  0  0  0  0  0  0
  131.4200   75.8630  227.9750 C   0  0  0  0  0  0  0  0  0  0  0  0
  132.0050   77.1150  227.7670 C   0  0  0  0  0  0  0  0  0  0  0  0
  131.4200   78.2440  228.1860 F   0  0  0  0  0  0  0  0  0  0  0  0
  133.2170   77.1730  227.1120 C   0  0  0  0  0  0  0  0  0  0  0  0
  133.8670   76.0270  226.6560 C   0  0  0  0  0  0  0  0  0  0  0  0
  133.2550   74.8080  226.8810 C   0  0  0  0  0  0  0  0  0  0  0  0
  133.8540   73.6970  226.4570 N   0  0  0  0  0  0  0  0  0  0  0  0
  135.2690   72.3910  224.7160 H   0  0  0  0  0  0  0  0  0  0  0  0
  136.4107   69.8967  225.4327 H   0  0  0  0  0  0  0  0  0  0  0  0
  134.9973   69.5012  224.3770 H   0  0  0  0  0  0  0  0  0  0  0  0
  135.8735   68.0144  222.7416 H   0  0  0  0  0  0  0  0  0  0  0  0
  136.4815   68.3974  221.1737 H   0  0  0  0  0  0  0  0  0  0  0  0
  137.8996   66.9967  223.5348 H   0  0  0  0  0  0  0  0  0  0  0  0
  137.9685   66.5266  221.8345 H   0  0  0  0  0  0  0  0  0  0  0  0
  139.9798   67.9223  223.0521 H   0  0  0  0  0  0  0  0  0  0  0  0
  139.6218   68.1585  221.3378 H   0  0  0  0  0  0  0  0  0  0  0  0
  139.0655   70.3072  221.8424 H   0  0  0  0  0  0  0  0  0  0  0  0
  139.9660   72.2790  223.3150 H   0  0  0  0  0  0  0  0  0  0  0  0
  140.9030   72.3240  225.7840 H   0  0  0  0  0  0  0  0  0  0  0  0
  141.0411   70.5123  227.8879 H   0  0  0  0  0  0  0  0  0  0  0  0
  140.4654   68.1912  228.5642 H   0  0  0  0  0  0  0  0  0  0  0  0
  139.3289   66.7062  226.9481 H   0  0  0  0  0  0  0  0  0  0  0  0
  138.7509   67.4876  224.6512 H   0  0  0  0  0  0  0  0  0  0  0  0
  131.6999   71.3124  227.4169 H   0  0  0  0  0  0  0  0  0  0  0  0
  130.5479   73.3590  228.2265 H   0  0  0  0  0  0  0  0  0  0  0  0
  130.4537   75.7902  228.4956 H   0  0  0  0  0  0  0  0  0  0  0  0
  133.6856   78.1539  226.9440 H   0  0  0  0  0  0  0  0  0  0  0  0
  134.8337   76.0906  226.1350 H   0  0  0  0  0  0  0  0  0  0  0  0
  1  2  2  0
  2  3  1  0
  3  4  1  0
  4  5  1  0
  5  6  2  0
  5  7  1  0
  7  8  1  0
  8  9  1  0
  9 10  1  0
 10 11  1  0
 11 12  1  0
 12 13  2  0
 13 14  1  0
 14 15  1  0
 15 16  2  0
 16 17  1  0
 17 18  2  0
 18 19  1  0
 19 20  2  0
  2 21  1  0
 21 22  2  0
 22 23  1  0
 23 24  2  0
 24 25  1  0
 25 26  2  0
 26 27  1  0
 26 28  1  0
 28 29  2  0
 29 30  1  0
 30 31  2  0
 11  7  1  0
 20 12  1  0
 31 21  1  0
 20 15  1  0
 30 24  1  0
  3 32  1  0
  4 33  1  0
  4 34  1  0
  8 35  1  0
  8 36  1  0
  9 37  1  0
  9 38  1  0
 10 39  1  0
 10 40  1  0
 11 41  1  6
 13 42  1  0
 14 43  1  0
 16 44  1  0
 17 45  1  0
 18 46  1  0
 19 47  1  0
 22 48  1  0
 23 49  1  0
 25 50  1  0
 28 51  1  0
 29 52  1  0
M  END
>  <smiles>  (43) 
O=C(NCC(=O)N1CCC[C@@H]1c1c[nH]c2ccccc12)c1ccc2cc(F)ccc2n1

>  <score_type>  (43) 
oracle

>  <origin>  (43) 
autodockgpu

>  <m_score__min__energy>  (43) 
-9.3499999999999996

>  <m_primary>  (43) 
energy

>  <rmsd>  (43) 
8.745591646001865

>  <m_score__min__rmsd>  (43) 
8.745591646001865

>  <meeko>  (43) 
{"free_energy": -8.18, "intermolecular_energy": -9.67, "internal_energy": -2.1, "cluster_size": 11, "cluster_id": 2, "rank_in_cluster": 10}

>  <energy>  (43) 
-8.65

>  <cluster_rmsd>  (43) 
0.18

>  <cluster>  (43) 
3

$$$$

     RDKit          3D

 52 56  0  0  0  0  0  0  0  0999 V2000
  139.9390   71.4040  221.0460 O   0  0  0  0  0  0  0  0  0  0  0  0
  139.7970   71.9200  222.1880 C   0  0  0  0  0  0  0  0  0  0  0  0
  139.6580   73.3360  222.3440 N   0  0  0  0  0  0  0  0  0  0  0  0
  139.6860   74.1470  221.1440 C   0  0  0  0  0  0  0  0  0  0  0  0
  140.2830   75.4930  221.4200 C   0  0  0  0  0  0  0  0  0  0  0  0
  140.2120   75.8900  222.6120 O   0  0  0  0  0  0  0  0  0  0  0  0
  140.8850   76.2490  220.3760 N   0  0  0  0  0  0  0  0  0  0  0  0
  142.0560   75.8310  219.6310 C   0  0  0  0  0  0  0  0  0  0  0  0
  142.6720   77.2040  219.3670 C   0  0  0  0  0  0  0  0  0  0  0  0
  141.5000   78.1310  219.1750 C   0  0  0  0  0  0  0  0  0  0  0  0
  140.3920   77.5260  219.9390 C   0  0  2  0  0  0  0  0  0  0  0  0
  139.9280   78.3670  221.0760 C   0  0  0  0  0  0  0  0  0  0  0  0
  138.6440   78.6440  221.4960 C   0  0  0  0  0  0  0  0  0  0  0  0
  138.7420   79.4600  222.5760 N   0  0  0  0  0  0  0  0  0  0  0  0
  140.0420   79.6970  222.8380 C   0  0  0  0  0  0  0  0  0  0  0  0
  140.6620   80.4520  223.8150 C   0  0  0  0  0  0  0  0  0  0  0  0
  142.0400   80.5420  223.8780 C   0  0  0  0  0  0  0  0  0  0  0  0
  142.7910   79.8600  222.9430 C   0  0  0  0  0  0  0  0  0  0  0  0
  142.2100   79.0880  221.9400 C   0  0  0  0  0  0  0  0  0  0  0  0
  140.8310   79.0230  221.9100 C   0  0  0  0  0  0  0  0  0  0  0  0
  139.7740   71.0740  223.3830 C   0  0  0  0  0  0  0  0  0  0  0  0
  139.2060   69.8240  223.3280 C   0  0  0  0  0  0  0  0  0  0  0  0
  139.2110   69.0670  224.4860 C   0  0  0  0  0  0  0  0  0  0  0  0
  139.7590   69.5280  225.6670 C   0  0  0  0  0  0  0  0  0  0  0  0
  139.7650   68.7710  226.8300 C   0  0  0  0  0  0  0  0  0  0  0  0
  140.3310   69.2810  228.0010 C   0  0  0  0  0  0  0  0  0  0  0  0
  140.3530   68.5760  229.1390 F   0  0  0  0  0  0  0  0  0  0  0  0
  140.8800   70.5460  227.9680 C   0  0  0  0  0  0  0  0  0  0  0  0
  140.8830   71.3210  226.8100 C   0  0  0  0  0  0  0  0  0  0  0  0
  140.3130   70.7800  225.6730 C   0  0  0  0  0  0  0  0  0  0  0  0
  140.3020   71.4980  224.5520 N   0  0  0  0  0  0  0  0  0  0  0  0
  139.5410   73.7660  223.2870 H   0  0  0  0  0  0  0  0  0  0  0  0
  140.2886   73.6362  220.3785 H   0  0  0  0  0  0  0  0  0  0  0  0
  138.6535   74.2870  220.7913 H   0  0  0  0  0  0  0  0  0  0  0  0
  142.7190   75.1895  220.2301 H   0  0  0  0  0  0  0  0  0  0  0  0
  141.8562   75.2217  218.7372 H   0  0  0  0  0  0  0  0  0  0  0  0
  143.2815   77.5249  220.2246 H   0  0  0  0  0  0  0  0  0  0  0  0
  143.3376   77.1951  218.4913 H   0  0  0  0  0  0  0  0  0  0  0  0
  141.7340   79.1328  219.5645 H   0  0  0  0  0  0  0  0  0  0  0  0
  141.2450   78.2529  218.1119 H   0  0  0  0  0  0  0  0  0  0  0  0
  139.4960   77.4271  219.3086 H   0  0  0  0  0  0  0  0  0  0  0  0
  137.7140   78.2728  221.0407 H   0  0  0  0  0  0  0  0  0  0  0  0
  137.9410   79.8590  223.1390 H   0  0  0  0  0  0  0  0  0  0  0  0
  140.0498   80.9897  224.5540 H   0  0  0  0  0  0  0  0  0  0  0  0
  142.5279   81.1452  224.6579 H   0  0  0  0  0  0  0  0  0  0  0  0
  143.8878   79.9284  222.9914 H   0  0  0  0  0  0  0  0  0  0  0  0
  142.8245   78.5519  221.2018 H   0  0  0  0  0  0  0  0  0  0  0  0
  138.7635   69.4393  222.3973 H   0  0  0  0  0  0  0  0  0  0  0  0
  138.7628   68.0627  224.4654 H   0  0  0  0  0  0  0  0  0  0  0  0
  139.3218   67.7642  226.8299 H   0  0  0  0  0  0  0  0  0  0  0  0
  141.3295   70.9558  228.8845 H   0  0  0  0  0  0  0  0  0  0  0  0
  141.3238   72.3288  226.8010 H   0  0  0  0  0  0  0  0  0  0  0  0
  1  2  2  0
  2  3  1  0
  3  4  1  0
  4  5  1  0
  5  6  2  0
  5  7  1  0
  7  8  1  0
  8  9  1  0
  9 10  1  0
 10 11  1  0
 11 12  1  0
 12 13  2  0
 13 14  1  0
 14 15  1  0
 15 16  2  0
 16 17  1  0
 17 18  2  0
 18 19  1  0
 19 20  2  0
  2 21  1  0
 21 22  2  0
 22 23  1  0
 23 24  2  0
 24 25  1  0
 25 26  2  0
 26 27  1  0
 26 28  1  0
 28 29  2  0
 29 30  1  0
 30 31  2  0
 11  7  1  0
 20 12  1  0
 31 21  1  0
 20 15  1  0
 30 24  1  0
  3 32  1  0
  4 33  1  0
  4 34  1  0
  8 35  1  0
  8 36  1  0
  9 37  1  0
  9 38  1  0
 10 39  1  0
 10 40  1  0
 11 41  1  6
 13 42  1  0
 14 43  1  0
 16 44  1  0
 17 45  1  0
 18 46  1  0
 19 47  1  0
 22 48  1  0
 23 49  1  0
 25 50  1  0
 28 51  1  0
 29 52  1  0
M  END
>  <smiles>  (44) 
O=C(NCC(=O)N1CCC[C@@H]1c1c[nH]c2ccccc12)c1ccc2cc(F)ccc2n1

>  <score_type>  (44) 
oracle

>  <origin>  (44) 
autodockgpu

>  <m_score__min__energy>  (44) 
-9.3499999999999996

>  <m_primary>  (44) 
energy

>  <rmsd>  (44) 
1.7559440901729

>  <m_score__min__rmsd>  (44) 
1.7559440901729

>  <meeko>  (44) 
{"free_energy": -8.99, "intermolecular_energy": -10.48, "internal_energy": -1.82, "cluster_size": 28, "cluster_id": 1, "rank_in_cluster": 13}

>  <energy>  (44) 
-8.28

>  <cluster_rmsd>  (44) 
1.33

>  <cluster>  (44) 
3

$$$$

     RDKit          3D

 52 56  0  0  0  0  0  0  0  0999 V2000
  141.0300   72.2070  221.4100 O   0  0  0  0  0  0  0  0  0  0  0  0
  140.1990   72.4060  222.3380 C   0  0  0  0  0  0  0  0  0  0  0  0
  139.3090   73.5250  222.3000 N   0  0  0  0  0  0  0  0  0  0  0  0
  139.3990   74.4140  221.1600 C   0  0  0  0  0  0  0  0  0  0  0  0
  140.1590   75.6580  221.5090 C   0  0  0  0  0  0  0  0  0  0  0  0
  140.0680   76.0370  222.7060 O   0  0  0  0  0  0  0  0  0  0  0  0
  140.9240   76.3430  220.5250 N   0  0  0  0  0  0  0  0  0  0  0  0
  142.1020   75.8010  219.8780 C   0  0  0  0  0  0  0  0  0  0  0  0
  142.8810   77.0990  219.6770 C   0  0  0  0  0  0  0  0  0  0  0  0
  141.8360   78.1460  219.3930 C   0  0  0  0  0  0  0  0  0  0  0  0
  140.6080   77.6650  220.0580 C   0  0  2  0  0  0  0  0  0  0  0  0
  140.1430   78.5540  221.1580 C   0  0  0  0  0  0  0  0  0  0  0  0
  138.8580   78.8700  221.5450 C   0  0  0  0  0  0  0  0  0  0  0  0
  138.9560   79.7200  222.6000 N   0  0  0  0  0  0  0  0  0  0  0  0
  140.2560   79.9390  222.8760 C   0  0  0  0  0  0  0  0  0  0  0  0
  140.8750   80.7140  223.8380 C   0  0  0  0  0  0  0  0  0  0  0  0
  142.2530   80.7770  223.9220 C   0  0  0  0  0  0  0  0  0  0  0  0
  143.0050   80.0500  223.0230 C   0  0  0  0  0  0  0  0  0  0  0  0
  142.4250   79.2560  222.0370 C   0  0  0  0  0  0  0  0  0  0  0  0
  141.0460   79.2180  221.9850 C   0  0  0  0  0  0  0  0  0  0  0  0
  140.1310   71.4890  223.4780 C   0  0  0  0  0  0  0  0  0  0  0  0
  139.5730   70.2430  223.3240 C   0  0  0  0  0  0  0  0  0  0  0  0
  139.5350   69.4180  224.4340 C   0  0  0  0  0  0  0  0  0  0  0  0
  140.0310   69.8090  225.6630 C   0  0  0  0  0  0  0  0  0  0  0  0
  139.9930   68.9830  226.7770 C   0  0  0  0  0  0  0  0  0  0  0  0
  140.5080   69.4240  227.9990 C   0  0  0  0  0  0  0  0  0  0  0  0
  140.4870   68.6510  229.0920 F   0  0  0  0  0  0  0  0  0  0  0  0
  141.0500   70.6900  228.0650 C   0  0  0  0  0  0  0  0  0  0  0  0
  141.0960   71.5340  226.9560 C   0  0  0  0  0  0  0  0  0  0  0  0
  140.5770   71.0600  225.7660 C   0  0  0  0  0  0  0  0  0  0  0  0
  140.6080   71.8440  224.6910 N   0  0  0  0  0  0  0  0  0  0  0  0
  138.6200   73.6930  223.0660 H   0  0  0  0  0  0  0  0  0  0  0  0
  139.9154   73.8952  220.3389 H   0  0  0  0  0  0  0  0  0  0  0  0
  138.3810   74.6985  220.8556 H   0  0  0  0  0  0  0  0  0  0  0  0
  142.6398   75.0931  220.5258 H   0  0  0  0  0  0  0  0  0  0  0  0
  141.9142   75.2153  218.9660 H   0  0  0  0  0  0  0  0  0  0  0  0
  143.4462   77.3544  220.5855 H   0  0  0  0  0  0  0  0  0  0  0  0
  143.6136   77.0169  218.8606 H   0  0  0  0  0  0  0  0  0  0  0  0
  142.1425   79.1179  219.8071 H   0  0  0  0  0  0  0  0  0  0  0  0
  141.6861   78.2920  218.3131 H   0  0  0  0  0  0  0  0  0  0  0  0
  139.7617   77.6616  219.3553 H   0  0  0  0  0  0  0  0  0  0  0  0
  137.9283   78.5029  221.0858 H   0  0  0  0  0  0  0  0  0  0  0  0
  138.1540   80.1540  223.1350 H   0  0  0  0  0  0  0  0  0  0  0  0
  140.2620   81.2893  224.5474 H   0  0  0  0  0  0  0  0  0  0  0  0
  142.7404   81.3947  224.6906 H   0  0  0  0  0  0  0  0  0  0  0  0
  144.1020   80.0992  223.0872 H   0  0  0  0  0  0  0  0  0  0  0  0
  143.0406   78.6824  221.3284 H   0  0  0  0  0  0  0  0  0  0  0  0
  139.1714   69.9136  222.3543 H   0  0  0  0  0  0  0  0  0  0  0  0
  139.0942   68.4151  224.3346 H   0  0  0  0  0  0  0  0  0  0  0  0
  139.5557   67.9768  226.6981 H   0  0  0  0  0  0  0  0  0  0  0  0
  141.4589   71.0453  229.0224 H   0  0  0  0  0  0  0  0  0  0  0  0
  141.5303   72.5422  227.0258 H   0  0  0  0  0  0  0  0  0  0  0  0
  1  2  2  0
  2  3  1  0
  3  4  1  0
  4  5  1  0
  5  6  2  0
  5  7  1  0
  7  8  1  0
  8  9  1  0
  9 10  1  0
 10 11  1  0
 11 12  1  0
 12 13  2  0
 13 14  1  0
 14 15  1  0
 15 16  2  0
 16 17  1  0
 17 18  2  0
 18 19  1  0
 19 20  2  0
  2 21  1  0
 21 22  2  0
 22 23  1  0
 23 24  2  0
 24 25  1  0
 25 26  2  0
 26 27  1  0
 26 28  1  0
 28 29  2  0
 29 30  1  0
 30 31  2  0
 11  7  1  0
 20 12  1  0
 31 21  1  0
 20 15  1  0
 30 24  1  0
  3 32  1  0
  4 33  1  0
  4 34  1  0
  8 35  1  0
  8 36  1  0
  9 37  1  0
  9 38  1  0
 10 39  1  0
 10 40  1  0
 11 41  1  6
 13 42  1  0
 14 43  1  0
 16 44  1  0
 17 45  1  0
 18 46  1  0
 19 47  1  0
 22 48  1  0
 23 49  1  0
 25 50  1  0
 28 51  1  0
 29 52  1  0
M  END
>  <smiles>  (45) 
O=C(NCC(=O)N1CCC[C@@H]1c1c[nH]c2ccccc12)c1ccc2cc(F)ccc2n1

>  <score_type>  (45) 
oracle

>  <origin>  (45) 
autodockgpu

>  <m_score__min__energy>  (45) 
-9.3499999999999996

>  <m_primary>  (45) 
energy

>  <rmsd>  (45) 
1.9167118819497626

>  <m_score__min__rmsd>  (45) 
1.9167118819497626

>  <meeko>  (45) 
{"free_energy": -9.34, "intermolecular_energy": -10.83, "internal_energy": -1.36, "cluster_size": 28, "cluster_id": 1, "rank_in_cluster": 2}

>  <energy>  (45) 
-8.18

>  <cluster_rmsd>  (45) 
1.71

>  <cluster>  (45) 
3

$$$$

     RDKit          3D

 52 56  0  0  0  0  0  0  0  0999 V2000
  133.7340   70.2380  226.5890 O   0  0  0  0  0  0  0  0  0  0  0  0
  133.9960   71.3780  226.1190 C   0  0  0  0  0  0  0  0  0  0  0  0
  134.9950   71.5450  225.1080 N   0  0  0  0  0  0  0  0  0  0  0  0
  135.6870   70.3580  224.6490 C   0  0  0  0  0  0  0  0  0  0  0  0
  136.6770   70.6940  223.5760 C   0  0  0  0  0  0  0  0  0  0  0  0
  136.8140   71.9200  223.3220 O   0  0  0  0  0  0  0  0  0  0  0  0
  137.3990   69.6690  222.9060 N   0  0  0  0  0  0  0  0  0  0  0  0
  136.7980   68.4770  222.3400 C   0  0  0  0  0  0  0  0  0  0  0  0
  137.9500   67.5000  222.5660 C   0  0  0  0  0  0  0  0  0  0  0  0
  139.2020   68.3160  222.3750 C   0  0  0  0  0  0  0  0  0  0  0  0
  138.8230   69.7020  222.7130 C   0  0  2  0  0  0  0  0  0  0  0  0
  139.5390   70.2370  223.9040 C   0  0  0  0  0  0  0  0  0  0  0  0
  140.1420   71.4640  224.0860 C   0  0  0  0  0  0  0  0  0  0  0  0
  140.6570   71.4740  225.3420 N   0  0  0  0  0  0  0  0  0  0  0  0
  140.3940   70.2960  225.9410 C   0  0  0  0  0  0  0  0  0  0  0  0
  140.6990   69.8140  227.1990 C   0  0  0  0  0  0  0  0  0  0  0  0
  140.3120   68.5460  227.5890 C   0  0  0  0  0  0  0  0  0  0  0  0
  139.6100   67.7650  226.6950 C   0  0  0  0  0  0  0  0  0  0  0  0
  139.2810   68.2080  225.4170 C   0  0  0  0  0  0  0  0  0  0  0  0
  139.6850   69.4800  225.0650 C   0  0  0  0  0  0  0  0  0  0  0  0
  133.2800   72.5610  226.6030 C   0  0  0  0  0  0  0  0  0  0  0  0
  132.0740   72.4170  227.2460 C   0  0  0  0  0  0  0  0  0  0  0  0
  131.4410   73.5670  227.6830 C   0  0  0  0  0  0  0  0  0  0  0  0
  131.9790   74.8240  227.4910 C   0  0  0  0  0  0  0  0  0  0  0  0
  131.3450   75.9790  227.9280 C   0  0  0  0  0  0  0  0  0  0  0  0
  131.9290   77.2300  227.7100 C   0  0  0  0  0  0  0  0  0  0  0  0
  131.3430   78.3620  228.1190 F   0  0  0  0  0  0  0  0  0  0  0  0
  133.1410   77.2830  227.0560 C   0  0  0  0  0  0  0  0  0  0  0  0
  133.7930   76.1340  226.6090 C   0  0  0  0  0  0  0  0  0  0  0  0
  133.1820   74.9170  226.8450 C   0  0  0  0  0  0  0  0  0  0  0  0
  133.7810   73.8030  226.4290 N   0  0  0  0  0  0  0  0  0  0  0  0
  135.2160   72.4860  224.7170 H   0  0  0  0  0  0  0  0  0  0  0  0
  136.2174   69.9004  225.4971 H   0  0  0  0  0  0  0  0  0  0  0  0
  134.9457   69.6587  224.2349 H   0  0  0  0  0  0  0  0  0  0  0  0
  135.8892   68.1759  222.8818 H   0  0  0  0  0  0  0  0  0  0  0  0
  136.4523   68.5691  221.2998 H   0  0  0  0  0  0  0  0  0  0  0  0
  137.9108   67.0861  223.5844 H   0  0  0  0  0  0  0  0  0  0  0  0
  137.9064   66.6454  221.8748 H   0  0  0  0  0  0  0  0  0  0  0  0
  139.9987   67.9607  223.0451 H   0  0  0  0  0  0  0  0  0  0  0  0
  139.5888   68.2369  221.3483 H   0  0  0  0  0  0  0  0  0  0  0  0
  139.1126   70.3915  221.9063 H   0  0  0  0  0  0  0  0  0  0  0  0
  140.1956   72.2810  223.3514 H   0  0  0  0  0  0  0  0  0  0  0  0
  141.1860   72.2670  225.7990 H   0  0  0  0  0  0  0  0  0  0  0  0
  141.2586   70.4493  227.9013 H   0  0  0  0  0  0  0  0  0  0  0  0
  140.5588   68.1674  228.5919 H   0  0  0  0  0  0  0  0  0  0  0  0
  139.2989   66.7558  227.0029 H   0  0  0  0  0  0  0  0  0  0  0  0
  138.7219   67.5704  224.7163 H   0  0  0  0  0  0  0  0  0  0  0  0
  131.6285   71.4243  227.4073 H   0  0  0  0  0  0  0  0  0  0  0  0
  130.4751   73.4767  228.2016 H   0  0  0  0  0  0  0  0  0  0  0  0
  130.3784   75.9094  228.4483 H   0  0  0  0  0  0  0  0  0  0  0  0
  133.6091   78.2629  226.8810 H   0  0  0  0  0  0  0  0  0  0  0  0
  134.7594   76.1943  226.0870 H   0  0  0  0  0  0  0  0  0  0  0  0
  1  2  2  0
  2  3  1  0
  3  4  1  0
  4  5  1  0
  5  6  2  0
  5  7  1  0
  7  8  1  0
  8  9  1  0
  9 10  1  0
 10 11  1  0
 11 12  1  0
 12 13  2  0
 13 14  1  0
 14 15  1  0
 15 16  2  0
 16 17  1  0
 17 18  2  0
 18 19  1  0
 19 20  2  0
  2 21  1  0
 21 22  2  0
 22 23  1  0
 23 24  2  0
 24 25  1  0
 25 26  2  0
 26 27  1  0
 26 28  1  0
 28 29  2  0
 29 30  1  0
 30 31  2  0
 11  7  1  0
 20 12  1  0
 31 21  1  0
 20 15  1  0
 30 24  1  0
  3 32  1  0
  4 33  1  0
  4 34  1  0
  8 35  1  0
  8 36  1  0
  9 37  1  0
  9 38  1  0
 10 39  1  0
 10 40  1  0
 11 41  1  6
 13 42  1  0
 14 43  1  0
 16 44  1  0
 17 45  1  0
 18 46  1  0
 19 47  1  0
 22 48  1  0
 23 49  1  0
 25 50  1  0
 28 51  1  0
 29 52  1  0
M  END
>  <smiles>  (46) 
O=C(NCC(=O)N1CCC[C@@H]1c1c[nH]c2ccccc12)c1ccc2cc(F)ccc2n1

>  <score_type>  (46) 
oracle

>  <origin>  (46) 
autodockgpu

>  <m_score__min__energy>  (46) 
-9.3499999999999996

>  <m_primary>  (46) 
energy

>  <rmsd>  (46) 
8.779325016875875

>  <m_score__min__rmsd>  (46) 
8.779325016875875

>  <meeko>  (46) 
{"free_energy": -8.28, "intermolecular_energy": -9.77, "internal_energy": -2.13, "cluster_size": 11, "cluster_id": 2, "rank_in_cluster": 8}

>  <energy>  (46) 
-7.86

>  <cluster_rmsd>  (46) 
1.53

>  <cluster>  (46) 
3

$$$$

     RDKit          3D

 52 56  0  0  0  0  0  0  0  0999 V2000
  133.9480   70.1920  226.7460 O   0  0  0  0  0  0  0  0  0  0  0  0
  134.1160   71.3170  226.2020 C   0  0  0  0  0  0  0  0  0  0  0  0
  135.0410   71.4810  225.1220 N   0  0  0  0  0  0  0  0  0  0  0  0
  135.7700   70.3090  224.6820 C   0  0  0  0  0  0  0  0  0  0  0  0
  136.6100   70.6200  223.4810 C   0  0  0  0  0  0  0  0  0  0  0  0
  136.5940   71.8180  223.0960 O   0  0  0  0  0  0  0  0  0  0  0  0
  137.3660   69.6000  222.8390 N   0  0  0  0  0  0  0  0  0  0  0  0
  136.8000   68.3880  222.2800 C   0  0  0  0  0  0  0  0  0  0  0  0
  137.9670   67.4380  222.5410 C   0  0  0  0  0  0  0  0  0  0  0  0
  139.2060   68.2760  222.3610 C   0  0  0  0  0  0  0  0  0  0  0  0
  138.7920   69.6590  222.6730 C   0  0  2  0  0  0  0  0  0  0  0  0
  139.4740   70.2260  223.8680 C   0  0  0  0  0  0  0  0  0  0  0  0
  140.0350   71.4730  224.0490 C   0  0  0  0  0  0  0  0  0  0  0  0
  140.5330   71.5090  225.3110 N   0  0  0  0  0  0  0  0  0  0  0  0
  140.3000   70.3280  225.9150 C   0  0  0  0  0  0  0  0  0  0  0  0
  140.6040   69.8650  227.1820 C   0  0  0  0  0  0  0  0  0  0  0  0
  140.2530   68.5880  227.5760 C   0  0  0  0  0  0  0  0  0  0  0  0
  139.5880   67.7770  226.6790 C   0  0  0  0  0  0  0  0  0  0  0  0
  139.2620   68.2010  225.3930 C   0  0  0  0  0  0  0  0  0  0  0  0
  139.6300   69.4820  225.0360 C   0  0  0  0  0  0  0  0  0  0  0  0
  133.3650   72.4840  226.6690 C   0  0  0  0  0  0  0  0  0  0  0  0
  132.1320   72.3180  227.2540 C   0  0  0  0  0  0  0  0  0  0  0  0
  131.4660   73.4540  227.6760 C   0  0  0  0  0  0  0  0  0  0  0  0
  131.9970   74.7200  227.5270 C   0  0  0  0  0  0  0  0  0  0  0  0
  131.3300   75.8610  227.9510 C   0  0  0  0  0  0  0  0  0  0  0  0
  131.9090   77.1210  227.7770 C   0  0  0  0  0  0  0  0  0  0  0  0
  131.2920   78.2410  228.1750 F   0  0  0  0  0  0  0  0  0  0  0  0
  133.1500   77.1980  227.1810 C   0  0  0  0  0  0  0  0  0  0  0  0
  133.8350   76.0620  226.7490 C   0  0  0  0  0  0  0  0  0  0  0  0
  133.2280   74.8360  226.9380 C   0  0  0  0  0  0  0  0  0  0  0  0
  133.8590   73.7340  226.5360 N   0  0  0  0  0  0  0  0  0  0  0  0
  135.1840   72.4100  224.6700 H   0  0  0  0  0  0  0  0  0  0  0  0
  136.4222   69.9636  225.4977 H   0  0  0  0  0  0  0  0  0  0  0  0
  135.0459   69.5267  224.4107 H   0  0  0  0  0  0  0  0  0  0  0  0
  135.8877   68.0762  222.8096 H   0  0  0  0  0  0  0  0  0  0  0  0
  136.4718   68.4581  221.2324 H   0  0  0  0  0  0  0  0  0  0  0  0
  137.9172   67.0378  223.5644 H   0  0  0  0  0  0  0  0  0  0  0  0
  137.9531   66.5732  221.8614 H   0  0  0  0  0  0  0  0  0  0  0  0
  139.9973   67.9462  223.0503 H   0  0  0  0  0  0  0  0  0  0  0  0
  139.6136   68.1905  221.3429 H   0  0  0  0  0  0  0  0  0  0  0  0
  139.0831   70.3428  221.8621 H   0  0  0  0  0  0  0  0  0  0  0  0
  140.0719   72.2861  223.3090 H   0  0  0  0  0  0  0  0  0  0  0  0
  141.0300   72.3220  225.7690 H   0  0  0  0  0  0  0  0  0  0  0  0
  141.1332   70.5232  227.8868 H   0  0  0  0  0  0  0  0  0  0  0  0
  140.4988   68.2249  228.5848 H   0  0  0  0  0  0  0  0  0  0  0  0
  139.3056   66.7605  226.9905 H   0  0  0  0  0  0  0  0  0  0  0  0
  138.7324   67.5411  224.6901 H   0  0  0  0  0  0  0  0  0  0  0  0
  131.6914   71.3182  227.3817 H   0  0  0  0  0  0  0  0  0  0  0  0
  130.4780   73.3453  228.1472 H   0  0  0  0  0  0  0  0  0  0  0  0
  130.3417   75.7732  228.4259 H   0  0  0  0  0  0  0  0  0  0  0  0
  133.6142   78.1855  227.0419 H   0  0  0  0  0  0  0  0  0  0  0  0
  134.8242   76.1401  226.2743 H   0  0  0  0  0  0  0  0  0  0  0  0
  1  2  2  0
  2  3  1  0
  3  4  1  0
  4  5  1  0
  5  6  2  0
  5  7  1  0
  7  8  1  0
  8  9  1  0
  9 10  1  0
 10 11  1  0
 11 12  1  0
 12 13  2  0
 13 14  1  0
 14 15  1  0
 15 16  2  0
 16 17  1  0
 17 18  2  0
 18 19  1  0
 19 20  2  0
  2 21  1  0
 21 22  2  0
 22 23  1  0
 23 24  2  0
 24 25  1  0
 25 26  2  0
 26 27  1  0
 26 28  1  0
 28 29  2  0
 29 30  1  0
 30 31  2  0
 11  7  1  0
 20 12  1  0
 31 21  1  0
 20 15  1  0
 30 24  1  0
  3 32  1  0
  4 33  1  0
  4 34  1  0
  8 35  1  0
  8 36  1  0
  9 37  1  0
  9 38  1  0
 10 39  1  0
 10 40  1  0
 11 41  1  6
 13 42  1  0
 14 43  1  0
 16 44  1  0
 17 45  1  0
 18 46  1  0
 19 47  1  0
 22 48  1  0
 23 49  1  0
 25 50  1  0
 28 51  1  0
 29 52  1  0
M  END
>  <smiles>  (47) 
O=C(NCC(=O)N1CCC[C@@H]1c1c[nH]c2ccccc12)c1ccc2cc(F)ccc2n1

>  <score_type>  (47) 
oracle

>  <origin>  (47) 
autodockgpu

>  <m_score__min__energy>  (47) 
-9.3499999999999996

>  <m_primary>  (47) 
energy

>  <rmsd>  (47) 
8.75875969529583

>  <m_score__min__rmsd>  (47) 
8.75875969529583

>  <meeko>  (47) 
{"free_energy": -8.16, "intermolecular_energy": -9.65, "internal_energy": -2.1, "cluster_size": 11, "cluster_id": 2, "rank_in_cluster": 11}

>  <energy>  (47) 
-7.8

>  <cluster_rmsd>  (47) 
0.0

>  <cluster>  (47) 
4

$$$$

     RDKit          3D

 52 56  0  0  0  0  0  0  0  0999 V2000
  138.1340   71.0500  221.5650 O   0  0  0  0  0  0  0  0  0  0  0  0
  138.7770   71.5080  222.5480 C   0  0  0  0  0  0  0  0  0  0  0  0
  139.1790   72.8800  222.5890 N   0  0  0  0  0  0  0  0  0  0  0  0
  138.8190   73.7170  221.4640 C   0  0  0  0  0  0  0  0  0  0  0  0
  139.0450   75.1650  221.7770 C   0  0  0  0  0  0  0  0  0  0  0  0
  139.9500   75.4090  222.6180 O   0  0  0  0  0  0  0  0  0  0  0  0
  138.2670   76.1750  221.1470 N   0  0  0  0  0  0  0  0  0  0  0  0
  137.1300   75.9170  220.2860 C   0  0  0  0  0  0  0  0  0  0  0  0
  137.2770   77.1050  219.3360 C   0  0  0  0  0  0  0  0  0  0  0  0
  137.7950   78.2320  220.1920 C   0  0  0  0  0  0  0  0  0  0  0  0
  138.5260   77.5810  221.2970 C   0  0  2  0  0  0  0  0  0  0  0  0
  139.9830   77.8860  221.3050 C   0  0  0  0  0  0  0  0  0  0  0  0
  140.9960   77.3430  220.5430 C   0  0  0  0  0  0  0  0  0  0  0  0
  142.1500   77.9500  220.9200 N   0  0  0  0  0  0  0  0  0  0  0  0
  141.8840   78.8490  221.8880 C   0  0  0  0  0  0  0  0  0  0  0  0
  142.7010   79.7110  222.5940 C   0  0  0  0  0  0  0  0  0  0  0  0
  142.1830   80.5550  223.5570 C   0  0  0  0  0  0  0  0  0  0  0  0
  140.8250   80.5220  223.8040 C   0  0  0  0  0  0  0  0  0  0  0  0
  139.9640   79.6700  223.1180 C   0  0  0  0  0  0  0  0  0  0  0  0
  140.5200   78.8430  222.1640 C   0  0  0  0  0  0  0  0  0  0  0  0
  139.1280   70.6360  223.6720 C   0  0  0  0  0  0  0  0  0  0  0  0
  138.8310   69.2960  223.6190 C   0  0  0  0  0  0  0  0  0  0  0  0
  139.1850   68.5190  224.7080 C   0  0  0  0  0  0  0  0  0  0  0  0
  139.8120   69.0470  225.8200 C   0  0  0  0  0  0  0  0  0  0  0  0
  140.1680   68.2700  226.9130 C   0  0  0  0  0  0  0  0  0  0  0  0
  140.8020   68.8510  228.0140 C   0  0  0  0  0  0  0  0  0  0  0  0
  141.1570   68.1280  229.0840 F   0  0  0  0  0  0  0  0  0  0  0  0
  141.0620   70.2040  227.9840 C   0  0  0  0  0  0  0  0  0  0  0  0
  140.7120   71.0010  226.8950 C   0  0  0  0  0  0  0  0  0  0  0  0
  140.0870   70.3880  225.8250 C   0  0  0  0  0  0  0  0  0  0  0  0
  139.7420   71.1250  224.7710 N   0  0  0  0  0  0  0  0  0  0  0  0
  139.7130   73.2620  223.4010 H   0  0  0  0  0  0  0  0  0  0  0  0
  139.4337   73.4366  220.5959 H   0  0  0  0  0  0  0  0  0  0  0  0
  137.7513   73.5687  221.2447 H   0  0  0  0  0  0  0  0  0  0  0  0
  137.2201   74.9548  219.7606 H   0  0  0  0  0  0  0  0  0  0  0  0
  136.1587   75.8356  220.7958 H   0  0  0  0  0  0  0  0  0  0  0  0
  137.9911   76.8708  218.5327 H   0  0  0  0  0  0  0  0  0  0  0  0
  136.3252   77.3624  218.8484 H   0  0  0  0  0  0  0  0  0  0  0  0
  138.4705   78.8773  219.6112 H   0  0  0  0  0  0  0  0  0  0  0  0
  136.9807   78.8725  220.5616 H   0  0  0  0  0  0  0  0  0  0  0  0
  138.1782   77.9618  222.2686 H   0  0  0  0  0  0  0  0  0  0  0  0
  140.8889   76.5640  219.7738 H   0  0  0  0  0  0  0  0  0  0  0  0
  143.1160   77.7640  220.5320 H   0  0  0  0  0  0  0  0  0  0  0  0
  143.7810   79.7254  222.3859 H   0  0  0  0  0  0  0  0  0  0  0  0
  142.8388   81.2392  224.1155 H   0  0  0  0  0  0  0  0  0  0  0  0
  140.4087   81.1927  224.5700 H   0  0  0  0  0  0  0  0  0  0  0  0
  138.8843   79.6567  223.3280 H   0  0  0  0  0  0  0  0  0  0  0  0
  138.3304   68.8568  222.7435 H   0  0  0  0  0  0  0  0  0  0  0  0
  138.9591   67.4426  224.6875 H   0  0  0  0  0  0  0  0  0  0  0  0
  139.9501   67.1918  226.9126 H   0  0  0  0  0  0  0  0  0  0  0  0
  141.5614   70.6698  228.8464 H   0  0  0  0  0  0  0  0  0  0  0  0
  140.9257   72.0800  226.8874 H   0  0  0  0  0  0  0  0  0  0  0  0
  1  2  2  0
  2  3  1  0
  3  4  1  0
  4  5  1  0
  5  6  2  0
  5  7  1  0
  7  8  1  0
  8  9  1  0
  9 10  1  0
 10 11  1  0
 11 12  1  0
 12 13  2  0
 13 14  1  0
 14 15  1  0
 15 16  2  0
 16 17  1  0
 17 18  2  0
 18 19  1  0
 19 20  2  0
  2 21  1  0
 21 22  2  0
 22 23  1  0
 23 24  2  0
 24 25  1  0
 25 26  2  0
 26 27  1  0
 26 28  1  0
 28 29  2  0
 29 30  1  0
 30 31  2  0
 11  7  1  0
 20 12  1  0
 31 21  1  0
 20 15  1  0
 30 24  1  0
  3 32  1  0
  4 33  1  0
  4 34  1  0
  8 35  1  0
  8 36  1  0
  9 37  1  0
  9 38  1  0
 10 39  1  0
 10 40  1  0
 11 41  1  1
 13 42  1  0
 14 43  1  0
 16 44  1  0
 17 45  1  0
 18 46  1  0
 19 47  1  0
 22 48  1  0
 23 49  1  0
 25 50  1  0
 28 51  1  0
 29 52  1  0
M  END
>  <smiles>  (48) 
O=C(NCC(=O)N1CCC[C@@H]1c1c[nH]c2ccccc12)c1ccc2cc(F)ccc2n1

>  <score_type>  (48) 
oracle

>  <origin>  (48) 
autodockgpu

>  <m_score__min__energy>  (48) 
-9.3499999999999996

>  <m_primary>  (48) 
energy

>  <rmsd>  (48) 
1.9744764622954265

>  <m_score__min__rmsd>  (48) 
1.9744764622954265

>  <meeko>  (48) 
{"free_energy": -8.69, "intermolecular_energy": -10.18, "internal_energy": -1.84, "cluster_size": 28, "cluster_id": 1, "rank_in_cluster": 21}

>  <energy>  (48) 
-7.33

>  <cluster_rmsd>  (48) 
0.76

>  <cluster>  (48) 
4

$$$$

     RDKit          3D

 52 56  0  0  0  0  0  0  0  0999 V2000
  140.8840   71.9280  221.0670 O   0  0  0  0  0  0  0  0  0  0  0  0
  140.3840   72.3880  222.1300 C   0  0  0  0  0  0  0  0  0  0  0  0
  139.9810   73.7570  222.2210 N   0  0  0  0  0  0  0  0  0  0  0  0
  140.1670   74.5890  221.0490 C   0  0  0  0  0  0  0  0  0  0  0  0
  140.8460   75.8760  221.4070 C   0  0  0  0  0  0  0  0  0  0  0  0
  140.8830   76.1530  222.6350 O   0  0  0  0  0  0  0  0  0  0  0  0
  141.4030   76.7080  220.3980 N   0  0  0  0  0  0  0  0  0  0  0  0
  140.7830   77.9200  219.8990 C   0  0  0  0  0  0  0  0  0  0  0  0
  141.2740   77.8620  218.4540 C   0  0  0  0  0  0  0  0  0  0  0  0
  142.6560   77.2660  218.5310 C   0  0  0  0  0  0  0  0  0  0  0  0
  142.6590   76.4360  219.7520 C   0  0  2  0  0  0  0  0  0  0  0  0
  142.8480   74.9850  219.4810 C   0  0  0  0  0  0  0  0  0  0  0  0
  142.0180   74.1000  218.8270 C   0  0  0  0  0  0  0  0  0  0  0  0
  142.6340   72.8900  218.8380 N   0  0  0  0  0  0  0  0  0  0  0  0
  143.8150   72.9980  219.4770 C   0  0  0  0  0  0  0  0  0  0  0  0
  144.8020   72.0700  219.7530 C   0  0  0  0  0  0  0  0  0  0  0  0
  145.9460   72.4310  220.4380 C   0  0  0  0  0  0  0  0  0  0  0  0
  146.0890   73.7420  220.8440 C   0  0  0  0  0  0  0  0  0  0  0  0
  145.1220   74.7100  220.5890 C   0  0  0  0  0  0  0  0  0  0  0  0
  143.9930   74.3110  219.9030 C   0  0  0  0  0  0  0  0  0  0  0  0
  140.2090   71.5220  223.2980 C   0  0  0  0  0  0  0  0  0  0  0  0
  139.5730   70.3110  223.1660 C   0  0  0  0  0  0  0  0  0  0  0  0
  139.4350   69.5340  224.3020 C   0  0  0  0  0  0  0  0  0  0  0  0
  139.9090   69.9380  225.5350 C   0  0  0  0  0  0  0  0  0  0  0  0
  139.7710   69.1590  226.6760 C   0  0  0  0  0  0  0  0  0  0  0  0
  140.2670   69.6120  227.9020 C   0  0  0  0  0  0  0  0  0  0  0  0
  140.1500   68.8850  229.0200 F   0  0  0  0  0  0  0  0  0  0  0  0
  140.8920   70.8400  227.9450 C   0  0  0  0  0  0  0  0  0  0  0  0
  141.0390   71.6350  226.8090 C   0  0  0  0  0  0  0  0  0  0  0  0
  140.5350   71.1520  225.6170 C   0  0  0  0  0  0  0  0  0  0  0  0
  140.6620   71.8910  224.5160 N   0  0  0  0  0  0  0  0  0  0  0  0
  139.5680   74.1410  223.0990 H   0  0  0  0  0  0  0  0  0  0  0  0
  140.7850   74.0474  220.3177 H   0  0  0  0  0  0  0  0  0  0  0  0
  139.1797   74.8201  220.6227 H   0  0  0  0  0  0  0  0  0  0  0  0
  139.6857   77.8788  219.9637 H   0  0  0  0  0  0  0  0  0  0  0  0
  141.0338   78.8400  220.4473 H   0  0  0  0  0  0  0  0  0  0  0  0
  140.6128   77.2262  217.8470 H   0  0  0  0  0  0  0  0  0  0  0  0
  141.2799   78.8552  217.9812 H   0  0  0  0  0  0  0  0  0  0  0  0
  142.8578   76.6468  217.6445 H   0  0  0  0  0  0  0  0  0  0  0  0
  143.4345   78.0424  218.5629 H   0  0  0  0  0  0  0  0  0  0  0  0
  143.5155   76.6921  220.3930 H   0  0  0  0  0  0  0  0  0  0  0  0
  141.0398   74.3307  218.3799 H   0  0  0  0  0  0  0  0  0  0  0  0
  142.2660   71.9920  218.4190 H   0  0  0  0  0  0  0  0  0  0  0  0
  144.6744   71.0287  219.4222 H   0  0  0  0  0  0  0  0  0  0  0  0
  146.7275   71.6881  220.6555 H   0  0  0  0  0  0  0  0  0  0  0  0
  146.9996   74.0324  221.3885 H   0  0  0  0  0  0  0  0  0  0  0  0
  145.2523   75.7506  220.9208 H   0  0  0  0  0  0  0  0  0  0  0  0
  139.1879   69.9721  222.1929 H   0  0  0  0  0  0  0  0  0  0  0  0
  138.9300   68.5601  224.2207 H   0  0  0  0  0  0  0  0  0  0  0  0
  139.2696   68.1818  226.6150 H   0  0  0  0  0  0  0  0  0  0  0  0
  141.2869   71.2038  228.9051 H   0  0  0  0  0  0  0  0  0  0  0  0
  141.5392   72.6134  226.8603 H   0  0  0  0  0  0  0  0  0  0  0  0
  1  2  2  0
  2  3  1  0
  3  4  1  0
  4  5  1  0
  5  6  2  0
  5  7  1  0
  7  8  1  0
  8  9  1  0
  9 10  1  0
 10 11  1  0
 11 12  1  0
 12 13  2  0
 13 14  1  0
 14 15  1  0
 15 16  2  0
 16 17  1  0
 17 18  2  0
 18 19  1  0
 19 20  2  0
  2 21  1  0
 21 22  2  0
 22 23  1  0
 23 24  2  0
 24 25  1  0
 25 26  2  0
 26 27  1  0
 26 28  1  0
 28 29  2  0
 29 30  1  0
 30 31  2  0
 11  7  1  0
 20 12  1  0
 31 21  1  0
 20 15  1  0
 30 24  1  0
  3 32  1  0
  4 33  1  0
  4 34  1  0
  8 35  1  0
  8 36  1  0
  9 37  1  0
  9 38  1  0
 10 39  1  0
 10 40  1  0
 11 41  1  1
 13 42  1  0
 14 43  1  0
 16 44  1  0
 17 45  1  0
 18 46  1  0
 19 47  1  0
 22 48  1  0
 23 49  1  0
 25 50  1  0
 28 51  1  0
 29 52  1  0
M  END
>  <smiles>  (49) 
O=C(NCC(=O)N1CCC[C@@H]1c1c[nH]c2ccccc12)c1ccc2cc(F)ccc2n1

>  <score_type>  (49) 
oracle

>  <origin>  (49) 
autodockgpu

>  <m_score__min__energy>  (49) 
-9.3499999999999996

>  <m_primary>  (49) 
energy

>  <rmsd>  (49) 
2.0291297360402702

>  <m_score__min__rmsd>  (49) 
2.0291297360402702

>  <meeko>  (49) 
{"free_energy": -8.7, "intermolecular_energy": -10.19, "internal_energy": -1.86, "cluster_size": 7, "cluster_id": 3, "rank_in_cluster": 1}

>  <energy>  (49) 
-7.16

>  <cluster_rmsd>  (49) 
0.0

>  <cluster>  (49) 
5

$$$$

     RDKit          3D

 52 56  0  0  0  0  0  0  0  0999 V2000
  140.7650   80.3490  219.0860 O   0  0  0  0  0  0  0  0  0  0  0  0
  140.3820   79.2140  219.4790 C   0  0  0  0  0  0  0  0  0  0  0  0
  139.0450   79.0100  219.9450 N   0  0  0  0  0  0  0  0  0  0  0  0
  138.1550   80.1530  219.9470 C   0  0  0  0  0  0  0  0  0  0  0  0
  138.5140   81.1100  221.0430 C   0  0  0  0  0  0  0  0  0  0  0  0
  139.3110   82.0310  220.7260 O   0  0  0  0  0  0  0  0  0  0  0  0
  137.9690   80.9590  222.3480 N   0  0  0  0  0  0  0  0  0  0  0  0
  137.2370   81.9900  223.0560 C   0  0  0  0  0  0  0  0  0  0  0  0
  137.6600   81.6460  224.4830 C   0  0  0  0  0  0  0  0  0  0  0  0
  137.7780   80.1440  224.5080 C   0  0  0  0  0  0  0  0  0  0  0  0
  138.0880   79.7510  223.1190 C   0  0  2  0  0  0  0  0  0  0  0  0
  139.4260   79.1170  222.9670 C   0  0  0  0  0  0  0  0  0  0  0  0
  139.7490   77.8230  222.6180 C   0  0  0  0  0  0  0  0  0  0  0  0
  141.1030   77.7340  222.6160 N   0  0  0  0  0  0  0  0  0  0  0  0
  141.6280   78.9290  222.9530 C   0  0  0  0  0  0  0  0  0  0  0  0
  142.9350   79.3550  223.0920 C   0  0  0  0  0  0  0  0  0  0  0  0
  143.2250   80.6560  223.4540 C   0  0  0  0  0  0  0  0  0  0  0  0
  142.1810   81.5300  223.6750 C   0  0  0  0  0  0  0  0  0  0  0  0
  140.8490   81.1450  223.5470 C   0  0  0  0  0  0  0  0  0  0  0  0
  140.5990   79.8370  223.1850 C   0  0  0  0  0  0  0  0  0  0  0  0
  141.3050   78.0770  219.4660 C   0  0  0  0  0  0  0  0  0  0  0  0
  142.4870   78.1600  218.7690 C   0  0  0  0  0  0  0  0  0  0  0  0
  143.3210   77.0570  218.7910 C   0  0  0  0  0  0  0  0  0  0  0  0
  143.0010   75.9020  219.4770 C   0  0  0  0  0  0  0  0  0  0  0  0
  143.8360   74.7940  219.5000 C   0  0  0  0  0  0  0  0  0  0  0  0
  143.4680   73.6480  220.2090 C   0  0  0  0  0  0  0  0  0  0  0  0
  144.2520   72.5630  220.2500 F   0  0  0  0  0  0  0  0  0  0  0  0
  142.2640   73.6490  220.8800 C   0  0  0  0  0  0  0  0  0  0  0  0
  141.4120   74.7520  220.8690 C   0  0  0  0  0  0  0  0  0  0  0  0
  141.8120   75.8660  220.1560 C   0  0  0  0  0  0  0  0  0  0  0  0
  141.0180   76.9340  220.1280 N   0  0  0  0  0  0  0  0  0  0  0  0
  138.7240   78.0720  220.2720 H   0  0  0  0  0  0  0  0  0  0  0  0
  138.2306   80.6697  218.9789 H   0  0  0  0  0  0  0  0  0  0  0  0
  137.1276   79.7974  220.1142 H   0  0  0  0  0  0  0  0  0  0  0  0
  137.5590   83.0000  222.7624 H   0  0  0  0  0  0  0  0  0  0  0  0
  136.1521   82.0086  222.8756 H   0  0  0  0  0  0  0  0  0  0  0  0
  138.6268   82.1131  224.7221 H   0  0  0  0  0  0  0  0  0  0  0  0
  136.9377   82.0144  225.2264 H   0  0  0  0  0  0  0  0  0  0  0  0
  138.5869   79.8329  225.1855 H   0  0  0  0  0  0  0  0  0  0  0  0
  136.8555   79.6676  224.8713 H   0  0  0  0  0  0  0  0  0  0  0  0
  137.3934   78.9716  222.7724 H   0  0  0  0  0  0  0  0  0  0  0  0
  139.0413   77.0138  222.3847 H   0  0  0  0  0  0  0  0  0  0  0  0
  141.6780   76.8760  222.3910 H   0  0  0  0  0  0  0  0  0  0  0  0
  143.7573   78.6471  222.9116 H   0  0  0  0  0  0  0  0  0  0  0  0
  144.2678   80.9885  223.5639 H   0  0  0  0  0  0  0  0  0  0  0  0
  142.4086   82.5671  223.9623 H   0  0  0  0  0  0  0  0  0  0  0  0
  140.0286   81.8552  223.7273 H   0  0  0  0  0  0  0  0  0  0  0  0
  142.7594   79.0700  218.2143 H   0  0  0  0  0  0  0  0  0  0  0  0
  144.2734   77.1013  218.2424 H   0  0  0  0  0  0  0  0  0  0  0  0
  144.7925   74.8182  218.9572 H   0  0  0  0  0  0  0  0  0  0  0  0
  141.9663   72.7513  221.4417 H   0  0  0  0  0  0  0  0  0  0  0  0
  140.4540   74.7362  221.4094 H   0  0  0  0  0  0  0  0  0  0  0  0
  1  2  2  0
  2  3  1  0
  3  4  1  0
  4  5  1  0
  5  6  2  0
  5  7  1  0
  7  8  1  0
  8  9  1  0
  9 10  1  0
 10 11  1  0
 11 12  1  0
 12 13  2  0
 13 14  1  0
 14 15  1  0
 15 16  2  0
 16 17  1  0
 17 18  2  0
 18 19  1  0
 19 20  2  0
  2 21  1  0
 21 22  2  0
 22 23  1  0
 23 24  2  0
 24 25  1  0
 25 26  2  0
 26 27  1  0
 26 28  1  0
 28 29  2  0
 29 30  1  0
 30 31  2  0
 11  7  1  0
 20 12  1  0
 31 21  1  0
 20 15  1  0
 30 24  1  0
  3 32  1  0
  4 33  1  0
  4 34  1  0
  8 35  1  0
  8 36  1  0
  9 37  1  0
  9 38  1  0
 10 39  1  0
 10 40  1  0
 11 41  1  6
 13 42  1  0
 14 43  1  0
 16 44  1  0
 17 45  1  0
 18 46  1  0
 19 47  1  0
 22 48  1  0
 23 49  1  0
 25 50  1  0
 28 51  1  0
 29 52  1  0
M  END
>  <smiles>  (50) 
O=C(NCC(=O)N1CCC[C@@H]1c1c[nH]c2ccccc12)c1ccc2cc(F)ccc2n1

>  <score_type>  (50) 
oracle

>  <origin>  (50) 
autodockgpu

>  <m_score__min__energy>  (50) 
-9.3499999999999996

>  <m_primary>  (50) 
energy

>  <rmsd>  (50) 
8.458040331361477

>  <m_score__min__rmsd>  (50) 
8.458040331361477

>  <meeko>  (50) 
{"free_energy": -6.71, "intermolecular_energy": -8.2, "internal_energy": -3.17, "cluster_size": 1, "cluster_id": 6, "rank_in_cluster": 1}

>  <energy>  (50) 
-6.71

>  <cluster_rmsd>  (50) 
0.0

>  <cluster>  (50) 
6

$$$$
