
     RDKit          3D

 46 50  0  0  0  0  0  0  0  0999 V2000
  141.1890   68.2290  228.8670 C   0  0  0  0  0  0  0  0  0  0  0  0
  140.6300   68.5490  227.5270 C   0  0  0  0  0  0  0  0  0  0  0  0
  139.7400   67.6800  226.9040 C   0  0  0  0  0  0  0  0  0  0  0  0
  139.2130   67.9680  225.6570 C   0  0  0  0  0  0  0  0  0  0  0  0
  139.5480   69.1240  224.9800 C   0  0  0  0  0  0  0  0  0  0  0  0
  140.4320   69.9890  225.5950 C   0  0  0  0  0  0  0  0  0  0  0  0
  140.9610   69.7020  226.8470 C   0  0  0  0  0  0  0  0  0  0  0  0
  140.6510   71.1570  224.7010 C   0  0  0  0  0  0  0  0  0  0  0  0
  139.7870   70.8210  223.5400 C   0  0  0  0  0  0  0  0  0  0  0  0
  139.6320   71.6540  222.3520 C   0  0  0  0  0  0  0  0  0  0  0  0
  139.2270   71.1030  221.1390 C   0  0  0  0  0  0  0  0  0  0  0  0
  139.0720   71.8600  220.0070 C   0  0  0  0  0  0  0  0  0  0  0  0
  139.3320   73.2050  220.0930 C   0  0  0  0  0  0  0  0  0  0  0  0
  139.7300   73.8100  221.2410 C   0  0  0  0  0  0  0  0  0  0  0  0
  140.0140   75.2230  221.3810 C   0  0  0  0  0  0  0  0  0  0  0  0
  140.5750   75.8890  220.4700 O   0  0  0  0  0  0  0  0  0  0  0  0
  139.6670   75.9320  222.5650 N   0  0  0  0  0  0  0  0  0  0  0  0
  139.9380   77.3330  222.7270 C   0  0  0  0  0  0  0  0  0  0  0  0
  138.9880   78.2540  223.0440 C   0  0  0  0  0  0  0  0  0  0  0  0
  139.2970   79.5920  223.1900 C   0  0  0  0  0  0  0  0  0  0  0  0
  140.6060   79.9910  223.0040 C   0  0  0  0  0  0  0  0  0  0  0  0
  141.2700   81.2130  223.0660 C   0  0  0  0  0  0  0  0  0  0  0  0
  142.5790   80.9810  222.7850 N   0  0  0  0  0  0  0  0  0  0  0  0
  142.7690   79.6900  222.5530 N   0  0  0  0  0  0  0  0  0  0  0  0
  141.5950   79.0690  222.6790 C   0  0  0  0  0  0  0  0  0  0  0  0
  141.2390   77.7370  222.5430 C   0  0  0  0  0  0  0  0  0  0  0  0
  139.8730   73.0000  222.3710 C   0  0  0  0  0  0  0  0  0  0  0  0
  139.1900   69.6910  223.7240 N   0  0  0  0  0  0  0  0  0  0  0  0
  140.5157   68.6145  229.6468 H   0  0  0  0  0  0  0  0  0  0  0  0
  141.2862   67.1384  228.9728 H   0  0  0  0  0  0  0  0  0  0  0  0
  142.1787   68.6973  228.9728 H   0  0  0  0  0  0  0  0  0  0  0  0
  139.4501   66.7479  227.4112 H   0  0  0  0  0  0  0  0  0  0  0  0
  138.5106   67.2592  225.1942 H   0  0  0  0  0  0  0  0  0  0  0  0
  141.6623   70.4131  227.3080 H   0  0  0  0  0  0  0  0  0  0  0  0
  140.3302   72.0935  225.1806 H   0  0  0  0  0  0  0  0  0  0  0  0
  141.7058   71.3226  224.4367 H   0  0  0  0  0  0  0  0  0  0  0  0
  139.0245   70.0230  221.0875 H   0  0  0  0  0  0  0  0  0  0  0  0
  138.7494   71.4040  219.0594 H   0  0  0  0  0  0  0  0  0  0  0  0
  139.2123   73.8212  219.1897 H   0  0  0  0  0  0  0  0  0  0  0  0
  139.1990   75.4730  223.3760 H   0  0  0  0  0  0  0  0  0  0  0  0
  137.9483   77.9247  223.1875 H   0  0  0  0  0  0  0  0  0  0  0  0
  138.5176   80.3239  223.4488 H   0  0  0  0  0  0  0  0  0  0  0  0
  140.8177   82.1881  223.2997 H   0  0  0  0  0  0  0  0  0  0  0  0
  143.6980   79.2670  222.3150 H   0  0  0  0  0  0  0  0  0  0  0  0
  142.0072   76.9933  222.2845 H   0  0  0  0  0  0  0  0  0  0  0  0
  140.1928   73.4647  223.3153 H   0  0  0  0  0  0  0  0  0  0  0  0
  1  2  1  0
  2  3  2  0
  3  4  1  0
  4  5  2  0
  5  6  1  0
  6  7  2  0
  6  8  1  0
  8  9  1  0
  9 10  1  0
 10 11  2  0
 11 12  1  0
 12 13  2  0
 13 14  1  0
 14 15  1  0
 15 16  2  0
 15 17  1  0
 17 18  1  0
 18 19  2  0
 19 20  1  0
 20 21  2  0
 21 22  1  0
 22 23  2  0
 23 24  1  0
 24 25  1  0
 25 26  2  0
 14 27  2  0
  9 28  2  0
  7  2  1  0
 27 10  1  0
 28  5  1  0
 26 18  1  0
 25 21  1  0
  1 29  1  0
  1 30  1  0
  1 31  1  0
  3 32  1  0
  4 33  1  0
  7 34  1  0
  8 35  1  0
  8 36  1  0
 11 37  1  0
 12 38  1  0
 13 39  1  0
 17 40  1  0
 19 41  1  0
 20 42  1  0
 22 43  1  0
 24 44  1  0
 26 45  1  0
 27 46  1  0
M  END
>  <smiles>  (1) 
Cc1ccc2c(c1)CC(c1cccc(C(=O)Nc3ccc4cn[nH]c4c3)c1)=N2

>  <score_type>  (1) 
oracle

>  <origin>  (1) 
autodockgpu

>  <m_score__min__energy>  (1) 
-9.4399999999999995

>  <m_primary>  (1) 
energy

>  <rmsd>  (1) 
7.63981746954395

>  <m_score__min__rmsd>  (1) 
7.63981746954395

>  <meeko>  (1) 
{"free_energy": -9.35, "intermolecular_energy": -10.25, "internal_energy": -0.68, "cluster_size": 50, "cluster_id": 1, "rank_in_cluster": 24}

>  <energy>  (1) 
-9.44

>  <cluster_rmsd>  (1) 
0.0

>  <cluster>  (1) 
1

$$$$

     RDKit          3D

 46 50  0  0  0  0  0  0  0  0999 V2000
  140.7190   68.3740  228.7610 C   0  0  0  0  0  0  0  0  0  0  0  0
  140.3640   68.7330  227.3620 C   0  0  0  0  0  0  0  0  0  0  0  0
  139.6120   67.8650  226.5770 C   0  0  0  0  0  0  0  0  0  0  0  0
  139.2750   68.1890  225.2740 C   0  0  0  0  0  0  0  0  0  0  0  0
  139.6700   69.3820  224.7000 C   0  0  0  0  0  0  0  0  0  0  0  0
  140.4160   70.2460  225.4780 C   0  0  0  0  0  0  0  0  0  0  0  0
  140.7550   69.9230  226.7850 C   0  0  0  0  0  0  0  0  0  0  0  0
  140.7290   71.4560  224.6720 C   0  0  0  0  0  0  0  0  0  0  0  0
  140.0680   71.1440  223.3790 C   0  0  0  0  0  0  0  0  0  0  0  0
  140.0690   72.0210  222.2130 C   0  0  0  0  0  0  0  0  0  0  0  0
  140.1010   71.4980  220.9230 C   0  0  0  0  0  0  0  0  0  0  0  0
  140.1020   72.2960  219.8090 C   0  0  0  0  0  0  0  0  0  0  0  0
  140.0730   73.6560  219.9930 C   0  0  0  0  0  0  0  0  0  0  0  0
  140.0410   74.2360  221.2200 C   0  0  0  0  0  0  0  0  0  0  0  0
  140.0080   75.6630  221.4640 C   0  0  0  0  0  0  0  0  0  0  0  0
  138.9310   76.2840  221.6740 O   0  0  0  0  0  0  0  0  0  0  0  0
  141.2010   76.4370  221.4800 N   0  0  0  0  0  0  0  0  0  0  0  0
  141.1940   77.8530  221.7200 C   0  0  0  0  0  0  0  0  0  0  0  0
  140.6090   78.7570  220.8900 C   0  0  0  0  0  0  0  0  0  0  0  0
  140.6280   80.1110  221.1640 C   0  0  0  0  0  0  0  0  0  0  0  0
  141.2620   80.5430  222.3120 C   0  0  0  0  0  0  0  0  0  0  0  0
  141.4770   81.7880  222.8980 C   0  0  0  0  0  0  0  0  0  0  0  0
  142.1770   81.5840  224.0440 N   0  0  0  0  0  0  0  0  0  0  0  0
  142.4090   80.2900  224.2080 N   0  0  0  0  0  0  0  0  0  0  0  0
  141.8680   79.6380  223.1770 C   0  0  0  0  0  0  0  0  0  0  0  0
  141.8250   78.2900  222.8620 C   0  0  0  0  0  0  0  0  0  0  0  0
  140.0400   73.3840  222.3270 C   0  0  0  0  0  0  0  0  0  0  0  0
  139.4900   69.9900  223.4260 N   0  0  0  0  0  0  0  0  0  0  0  0
  140.1206   68.9791  229.4579 H   0  0  0  0  0  0  0  0  0  0  0  0
  140.5108   67.3072  228.9299 H   0  0  0  0  0  0  0  0  0  0  0  0
  141.7881   68.5702  228.9299 H   0  0  0  0  0  0  0  0  0  0  0  0
  139.2796   66.9050  226.9987 H   0  0  0  0  0  0  0  0  0  0  0  0
  138.6785   67.4797  224.6815 H   0  0  0  0  0  0  0  0  0  0  0  0
  141.3508   70.6346  227.3755 H   0  0  0  0  0  0  0  0  0  0  0  0
  140.3048   72.3619  225.1295 H   0  0  0  0  0  0  0  0  0  0  0  0
  141.8056   71.6629  224.5816 H   0  0  0  0  0  0  0  0  0  0  0  0
  140.1264   70.4059  220.7936 H   0  0  0  0  0  0  0  0  0  0  0  0
  140.1253   71.8605  218.7992 H   0  0  0  0  0  0  0  0  0  0  0  0
  140.0758   74.3057  219.1054 H   0  0  0  0  0  0  0  0  0  0  0  0
  142.1430   76.0180  221.3190 H   0  0  0  0  0  0  0  0  0  0  0  0
  140.1080   78.4015  219.9775 H   0  0  0  0  0  0  0  0  0  0  0  0
  140.1486   80.8291  220.4825 H   0  0  0  0  0  0  0  0  0  0  0  0
  141.1414   82.7589  222.5047 H   0  0  0  0  0  0  0  0  0  0  0  0
  142.9320   79.8860  225.0210 H   0  0  0  0  0  0  0  0  0  0  0  0
  142.3011   77.5598  223.5330 H   0  0  0  0  0  0  0  0  0  0  0  0
  140.0148   73.8279  223.3331 H   0  0  0  0  0  0  0  0  0  0  0  0
  1  2  1  0
  2  3  2  0
  3  4  1  0
  4  5  2  0
  5  6  1  0
  6  7  2  0
  6  8  1  0
  8  9  1  0
  9 10  1  0
 10 11  2  0
 11 12  1  0
 12 13  2  0
 13 14  1  0
 14 15  1  0
 15 16  2  0
 15 17  1  0
 17 18  1  0
 18 19  2  0
 19 20  1  0
 20 21  2  0
 21 22  1  0
 22 23  2  0
 23 24  1  0
 24 25  1  0
 25 26  2  0
 14 27  2  0
  9 28  2  0
  7  2  1  0
 27 10  1  0
 28  5  1  0
 26 18  1  0
 25 21  1  0
  1 29  1  0
  1 30  1  0
  1 31  1  0
  3 32  1  0
  4 33  1  0
  7 34  1  0
  8 35  1  0
  8 36  1  0
 11 37  1  0
 12 38  1  0
 13 39  1  0
 17 40  1  0
 19 41  1  0
 20 42  1  0
 22 43  1  0
 24 44  1  0
 26 45  1  0
 27 46  1  0
M  END
>  <smiles>  (2) 
Cc1ccc2c(c1)CC(c1cccc(C(=O)Nc3ccc4cn[nH]c4c3)c1)=N2

>  <score_type>  (2) 
oracle

>  <origin>  (2) 
autodockgpu

>  <m_score__min__energy>  (2) 
-9.4399999999999995

>  <m_primary>  (2) 
energy

>  <rmsd>  (2) 
7.28702863386741

>  <m_score__min__rmsd>  (2) 
7.28702863386741

>  <meeko>  (2) 
{"free_energy": -8.66, "intermolecular_energy": -9.55, "internal_energy": -0.7, "cluster_size": 50, "cluster_id": 1, "rank_in_cluster": 47}

>  <energy>  (2) 
-9.43

>  <cluster_rmsd>  (2) 
0.05

>  <cluster>  (2) 
1

$$$$

     RDKit          3D

 46 50  0  0  0  0  0  0  0  0999 V2000
  141.1890   68.1430  228.8660 C   0  0  0  0  0  0  0  0  0  0  0  0
  140.6430   68.4720  227.5230 C   0  0  0  0  0  0  0  0  0  0  0  0
  139.7720   67.6000  226.8780 C   0  0  0  0  0  0  0  0  0  0  0  0
  139.2570   67.8950  225.6280 C   0  0  0  0  0  0  0  0  0  0  0  0
  139.5850   69.0640  224.9690 C   0  0  0  0  0  0  0  0  0  0  0  0
  140.4490   69.9330  225.6070 C   0  0  0  0  0  0  0  0  0  0  0  0
  140.9670   69.6380  226.8610 C   0  0  0  0  0  0  0  0  0  0  0  0
  140.6630   71.1150  224.7300 C   0  0  0  0  0  0  0  0  0  0  0  0
  139.8180   70.7820  223.5540 C   0  0  0  0  0  0  0  0  0  0  0  0
  139.6670   71.6280  222.3750 C   0  0  0  0  0  0  0  0  0  0  0  0
  139.2440   71.0940  221.1600 C   0  0  0  0  0  0  0  0  0  0  0  0
  139.0910   71.8620  220.0360 C   0  0  0  0  0  0  0  0  0  0  0  0
  139.3720   73.2030  220.1320 C   0  0  0  0  0  0  0  0  0  0  0  0
  139.7890   73.7910  221.2820 C   0  0  0  0  0  0  0  0  0  0  0  0
  140.0950   75.1990  221.4310 C   0  0  0  0  0  0  0  0  0  0  0  0
  140.7950   75.8270  220.5910 O   0  0  0  0  0  0  0  0  0  0  0  0
  139.6160   75.9440  222.5430 N   0  0  0  0  0  0  0  0  0  0  0  0
  139.9060   77.3400  222.7130 C   0  0  0  0  0  0  0  0  0  0  0  0
  138.9680   78.2740  223.0310 C   0  0  0  0  0  0  0  0  0  0  0  0
  139.2970   79.6070  223.1840 C   0  0  0  0  0  0  0  0  0  0  0  0
  140.6120   79.9880  223.0070 C   0  0  0  0  0  0  0  0  0  0  0  0
  141.2930   81.2000  223.0770 C   0  0  0  0  0  0  0  0  0  0  0  0
  142.6000   80.9490  222.8010 N   0  0  0  0  0  0  0  0  0  0  0  0
  142.7720   79.6570  222.5640 N   0  0  0  0  0  0  0  0  0  0  0  0
  141.5890   79.0530  222.6810 C   0  0  0  0  0  0  0  0  0  0  0  0
  141.2140   77.7270  222.5370 C   0  0  0  0  0  0  0  0  0  0  0  0
  139.9290   72.9700  222.4020 C   0  0  0  0  0  0  0  0  0  0  0  0
  139.2340   69.6420  223.7170 N   0  0  0  0  0  0  0  0  0  0  0  0
  140.5212   68.5454  229.6419 H   0  0  0  0  0  0  0  0  0  0  0  0
  141.2614   67.0508  228.9749 H   0  0  0  0  0  0  0  0  0  0  0  0
  142.1885   68.5893  228.9749 H   0  0  0  0  0  0  0  0  0  0  0  0
  139.4874   66.6586  227.3707 H   0  0  0  0  0  0  0  0  0  0  0  0
  138.5705   67.1821  225.1479 H   0  0  0  0  0  0  0  0  0  0  0  0
  141.6534   70.3525  227.3388 H   0  0  0  0  0  0  0  0  0  0  0  0
  140.3236   72.0411  225.2170 H   0  0  0  0  0  0  0  0  0  0  0  0
  141.7187   71.2979  224.4809 H   0  0  0  0  0  0  0  0  0  0  0  0
  139.0251   70.0176  221.1010 H   0  0  0  0  0  0  0  0  0  0  0  0
  138.7540   71.4190  219.0872 H   0  0  0  0  0  0  0  0  0  0  0  0
  139.2536   73.8293  219.2355 H   0  0  0  0  0  0  0  0  0  0  0  0
  139.0280   75.5180  223.2920 H   0  0  0  0  0  0  0  0  0  0  0  0
  137.9230   77.9597  223.1695 H   0  0  0  0  0  0  0  0  0  0  0  0
  138.5272   80.3493  223.4415 H   0  0  0  0  0  0  0  0  0  0  0  0
  140.8540   82.1808  223.3124 H   0  0  0  0  0  0  0  0  0  0  0  0
  143.6960   79.2220  222.3280 H   0  0  0  0  0  0  0  0  0  0  0  0
  141.9726   76.9736  222.2784 H   0  0  0  0  0  0  0  0  0  0  0  0
  140.2645   73.4218  223.3471 H   0  0  0  0  0  0  0  0  0  0  0  0
  1  2  1  0
  2  3  2  0
  3  4  1  0
  4  5  2  0
  5  6  1  0
  6  7  2  0
  6  8  1  0
  8  9  1  0
  9 10  1  0
 10 11  2  0
 11 12  1  0
 12 13  2  0
 13 14  1  0
 14 15  1  0
 15 16  2  0
 15 17  1  0
 17 18  1  0
 18 19  2  0
 19 20  1  0
 20 21  2  0
 21 22  1  0
 22 23  2  0
 23 24  1  0
 24 25  1  0
 25 26  2  0
 14 27  2  0
  9 28  2  0
  7  2  1  0
 27 10  1  0
 28  5  1  0
 26 18  1  0
 25 21  1  0
  1 29  1  0
  1 30  1  0
  1 31  1  0
  3 32  1  0
  4 33  1  0
  7 34  1  0
  8 35  1  0
  8 36  1  0
 11 37  1  0
 12 38  1  0
 13 39  1  0
 17 40  1  0
 19 41  1  0
 20 42  1  0
 22 43  1  0
 24 44  1  0
 26 45  1  0
 27 46  1  0
M  END
>  <smiles>  (3) 
Cc1ccc2c(c1)CC(c1cccc(C(=O)Nc3ccc4cn[nH]c4c3)c1)=N2

>  <score_type>  (3) 
oracle

>  <origin>  (3) 
autodockgpu

>  <m_score__min__energy>  (3) 
-9.4399999999999995

>  <m_primary>  (3) 
energy

>  <rmsd>  (3) 
7.646225815532025

>  <m_score__min__rmsd>  (3) 
7.646225815532025

>  <meeko>  (3) 
{"free_energy": -9.42, "intermolecular_energy": -10.32, "internal_energy": -0.63, "cluster_size": 50, "cluster_id": 1, "rank_in_cluster": 4}

>  <energy>  (3) 
-9.42

>  <cluster_rmsd>  (3) 
0.05

>  <cluster>  (3) 
1

$$$$

     RDKit          3D

 46 50  0  0  0  0  0  0  0  0999 V2000
  141.2600   68.1430  228.9000 C   0  0  0  0  0  0  0  0  0  0  0  0
  140.7040   68.4600  227.5590 C   0  0  0  0  0  0  0  0  0  0  0  0
  139.8860   67.5510  226.8970 C   0  0  0  0  0  0  0  0  0  0  0  0
  139.3610   67.8360  225.6480 C   0  0  0  0  0  0  0  0  0  0  0  0
  139.6290   69.0300  225.0070 C   0  0  0  0  0  0  0  0  0  0  0  0
  140.4410   69.9350  225.6620 C   0  0  0  0  0  0  0  0  0  0  0  0
  140.9670   69.6520  226.9150 C   0  0  0  0  0  0  0  0  0  0  0  0
  140.5960   71.1390  224.8020 C   0  0  0  0  0  0  0  0  0  0  0  0
  139.7770   70.7770  223.6170 C   0  0  0  0  0  0  0  0  0  0  0  0
  139.5860   71.6300  222.4490 C   0  0  0  0  0  0  0  0  0  0  0  0
  139.0930   71.1100  221.2550 C   0  0  0  0  0  0  0  0  0  0  0  0
  138.9020   71.8850  220.1410 C   0  0  0  0  0  0  0  0  0  0  0  0
  139.2160   73.2190  220.2260 C   0  0  0  0  0  0  0  0  0  0  0  0
  139.7000   73.7940  221.3560 C   0  0  0  0  0  0  0  0  0  0  0  0
  140.0440   75.1950  221.4940 C   0  0  0  0  0  0  0  0  0  0  0  0
  140.8000   75.7850  220.6750 O   0  0  0  0  0  0  0  0  0  0  0  0
  139.5390   75.9760  222.5690 N   0  0  0  0  0  0  0  0  0  0  0  0
  139.8640   77.3660  222.7270 C   0  0  0  0  0  0  0  0  0  0  0  0
  138.9500   78.3270  223.0290 C   0  0  0  0  0  0  0  0  0  0  0  0
  139.3120   79.6520  223.1710 C   0  0  0  0  0  0  0  0  0  0  0  0
  140.6380   79.9960  222.9980 C   0  0  0  0  0  0  0  0  0  0  0  0
  141.3510   81.1910  223.0590 C   0  0  0  0  0  0  0  0  0  0  0  0
  142.6520   80.9030  222.7940 N   0  0  0  0  0  0  0  0  0  0  0  0
  142.7920   79.6050  222.5710 N   0  0  0  0  0  0  0  0  0  0  0  0
  141.5920   79.0330  222.6880 C   0  0  0  0  0  0  0  0  0  0  0  0
  141.1840   77.7160  222.5550 C   0  0  0  0  0  0  0  0  0  0  0  0
  139.8780   72.9660  222.4670 C   0  0  0  0  0  0  0  0  0  0  0  0
  139.2550   69.6050  223.7600 N   0  0  0  0  0  0  0  0  0  0  0  0
  140.5841   68.5284  229.6776 H   0  0  0  0  0  0  0  0  0  0  0  0
  141.3589   67.0527  229.0076 H   0  0  0  0  0  0  0  0  0  0  0  0
  142.2486   68.6132  229.0076 H   0  0  0  0  0  0  0  0  0  0  0  0
  139.6518   66.5880  227.3743 H   0  0  0  0  0  0  0  0  0  0  0  0
  138.7155   67.0945  225.1546 H   0  0  0  0  0  0  0  0  0  0  0  0
  141.6098   70.3967  227.4072 H   0  0  0  0  0  0  0  0  0  0  0  0
  140.2045   72.0388  225.2991 H   0  0  0  0  0  0  0  0  0  0  0  0
  141.6416   71.3820  224.5620 H   0  0  0  0  0  0  0  0  0  0  0  0
  138.8481   70.0388  221.2042 H   0  0  0  0  0  0  0  0  0  0  0  0
  138.5098   71.4523  219.2088 H   0  0  0  0  0  0  0  0  0  0  0  0
  139.0685   73.8505  219.3375 H   0  0  0  0  0  0  0  0  0  0  0  0
  138.9060   75.5830  223.2980 H   0  0  0  0  0  0  0  0  0  0  0  0
  137.8962   78.0416  223.1635 H   0  0  0  0  0  0  0  0  0  0  0  0
  138.5604   80.4167  223.4166 H   0  0  0  0  0  0  0  0  0  0  0  0
  140.9367   82.1855  223.2810 H   0  0  0  0  0  0  0  0  0  0  0  0
  143.7050   79.1430  222.3450 H   0  0  0  0  0  0  0  0  0  0  0  0
  141.9241   76.9403  222.3089 H   0  0  0  0  0  0  0  0  0  0  0  0
  140.2696   73.4072  223.3955 H   0  0  0  0  0  0  0  0  0  0  0  0
  1  2  1  0
  2  3  2  0
  3  4  1  0
  4  5  2  0
  5  6  1  0
  6  7  2  0
  6  8  1  0
  8  9  1  0
  9 10  1  0
 10 11  2  0
 11 12  1  0
 12 13  2  0
 13 14  1  0
 14 15  1  0
 15 16  2  0
 15 17  1  0
 17 18  1  0
 18 19  2  0
 19 20  1  0
 20 21  2  0
 21 22  1  0
 22 23  2  0
 23 24  1  0
 24 25  1  0
 25 26  2  0
 14 27  2  0
  9 28  2  0
  7  2  1  0
 27 10  1  0
 28  5  1  0
 26 18  1  0
 25 21  1  0
  1 29  1  0
  1 30  1  0
  1 31  1  0
  3 32  1  0
  4 33  1  0
  7 34  1  0
  8 35  1  0
  8 36  1  0
 11 37  1  0
 12 38  1  0
 13 39  1  0
 17 40  1  0
 19 41  1  0
 20 42  1  0
 22 43  1  0
 24 44  1  0
 26 45  1  0
 27 46  1  0
M  END
>  <smiles>  (4) 
Cc1ccc2c(c1)CC(c1cccc(C(=O)Nc3ccc4cn[nH]c4c3)c1)=N2

>  <score_type>  (4) 
oracle

>  <origin>  (4) 
autodockgpu

>  <m_score__min__energy>  (4) 
-9.4399999999999995

>  <m_primary>  (4) 
energy

>  <rmsd>  (4) 
7.641618327750728

>  <m_score__min__rmsd>  (4) 
7.641618327750728

>  <meeko>  (4) 
{"free_energy": -9.44, "intermolecular_energy": -10.33, "internal_energy": -0.6, "cluster_size": 50, "cluster_id": 1, "rank_in_cluster": 1}

>  <energy>  (4) 
-9.42

>  <cluster_rmsd>  (4) 
0.1

>  <cluster>  (4) 
1

$$$$

     RDKit          3D

 46 50  0  0  0  0  0  0  0  0999 V2000
  141.2020   68.1960  228.8480 C   0  0  0  0  0  0  0  0  0  0  0  0
  140.6540   68.5170  227.5030 C   0  0  0  0  0  0  0  0  0  0  0  0
  139.7800   67.6440  226.8660 C   0  0  0  0  0  0  0  0  0  0  0  0
  139.2630   67.9330  225.6140 C   0  0  0  0  0  0  0  0  0  0  0  0
  139.5950   69.0970  224.9470 C   0  0  0  0  0  0  0  0  0  0  0  0
  140.4630   69.9660  225.5780 C   0  0  0  0  0  0  0  0  0  0  0  0
  140.9810   69.6780  226.8330 C   0  0  0  0  0  0  0  0  0  0  0  0
  140.6810   71.1410  224.6920 C   0  0  0  0  0  0  0  0  0  0  0  0
  139.8330   70.8040  223.5200 C   0  0  0  0  0  0  0  0  0  0  0  0
  139.6830   71.6420  222.3350 C   0  0  0  0  0  0  0  0  0  0  0  0
  139.2800   71.0970  221.1190 C   0  0  0  0  0  0  0  0  0  0  0  0
  139.1300   71.8580  219.9890 C   0  0  0  0  0  0  0  0  0  0  0  0
  139.3910   73.2030  220.0820 C   0  0  0  0  0  0  0  0  0  0  0  0
  139.7870   73.8020  221.2330 C   0  0  0  0  0  0  0  0  0  0  0  0
  140.0730   75.2150  221.3800 C   0  0  0  0  0  0  0  0  0  0  0  0
  140.6760   75.8740  220.4900 O   0  0  0  0  0  0  0  0  0  0  0  0
  139.6820   75.9300  222.5450 N   0  0  0  0  0  0  0  0  0  0  0  0
  139.9530   77.3300  222.7130 C   0  0  0  0  0  0  0  0  0  0  0  0
  139.0050   78.2500  223.0380 C   0  0  0  0  0  0  0  0  0  0  0  0
  139.3150   79.5870  223.1890 C   0  0  0  0  0  0  0  0  0  0  0  0
  140.6230   79.9870  223.0020 C   0  0  0  0  0  0  0  0  0  0  0  0
  141.2880   81.2080  223.0670 C   0  0  0  0  0  0  0  0  0  0  0  0
  142.5960   80.9760  222.7810 N   0  0  0  0  0  0  0  0  0  0  0  0
  142.7850   79.6870  222.5430 N   0  0  0  0  0  0  0  0  0  0  0  0
  141.6110   79.0660  222.6690 C   0  0  0  0  0  0  0  0  0  0  0  0
  141.2540   77.7340  222.5280 C   0  0  0  0  0  0  0  0  0  0  0  0
  139.9260   72.9880  222.3600 C   0  0  0  0  0  0  0  0  0  0  0  0
  139.2450   69.6670  223.6910 N   0  0  0  0  0  0  0  0  0  0  0  0
  140.5279   68.5909  229.6224 H   0  0  0  0  0  0  0  0  0  0  0  0
  141.2877   67.1049  228.9582 H   0  0  0  0  0  0  0  0  0  0  0  0
  142.1956   68.6548  228.9582 H   0  0  0  0  0  0  0  0  0  0  0  0
  139.4937   66.7066  227.3652 H   0  0  0  0  0  0  0  0  0  0  0  0
  138.5726   67.2200  225.1398 H   0  0  0  0  0  0  0  0  0  0  0  0
  141.6699   70.3936  227.3056 H   0  0  0  0  0  0  0  0  0  0  0  0
  140.3466   72.0720  225.1730 H   0  0  0  0  0  0  0  0  0  0  0  0
  141.7371   71.3171  224.4399 H   0  0  0  0  0  0  0  0  0  0  0  0
  139.0748   70.0178  221.0631 H   0  0  0  0  0  0  0  0  0  0  0  0
  138.8109   71.4060  219.0383 H   0  0  0  0  0  0  0  0  0  0  0  0
  139.2735   73.8235  219.1814 H   0  0  0  0  0  0  0  0  0  0  0  0
  139.1770   75.4770  223.3380 H   0  0  0  0  0  0  0  0  0  0  0  0
  137.9657   77.9206  223.1841 H   0  0  0  0  0  0  0  0  0  0  0  0
  138.5363   80.3179  223.4527 H   0  0  0  0  0  0  0  0  0  0  0  0
  140.8372   82.1825  223.3061 H   0  0  0  0  0  0  0  0  0  0  0  0
  143.7130   79.2650  222.2990 H   0  0  0  0  0  0  0  0  0  0  0  0
  142.0212   76.9910  222.2648 H   0  0  0  0  0  0  0  0  0  0  0  0
  140.2441   73.4487  223.3069 H   0  0  0  0  0  0  0  0  0  0  0  0
  1  2  1  0
  2  3  2  0
  3  4  1  0
  4  5  2  0
  5  6  1  0
  6  7  2  0
  6  8  1  0
  8  9  1  0
  9 10  1  0
 10 11  2  0
 11 12  1  0
 12 13  2  0
 13 14  1  0
 14 15  1  0
 15 16  2  0
 15 17  1  0
 17 18  1  0
 18 19  2  0
 19 20  1  0
 20 21  2  0
 21 22  1  0
 22 23  2  0
 23 24  1  0
 24 25  1  0
 25 26  2  0
 14 27  2  0
  9 28  2  0
  7  2  1  0
 27 10  1  0
 28  5  1  0
 26 18  1  0
 25 21  1  0
  1 29  1  0
  1 30  1  0
  1 31  1  0
  3 32  1  0
  4 33  1  0
  7 34  1  0
  8 35  1  0
  8 36  1  0
 11 37  1  0
 12 38  1  0
 13 39  1  0
 17 40  1  0
 19 41  1  0
 20 42  1  0
 22 43  1  0
 24 44  1  0
 26 45  1  0
 27 46  1  0
M  END
>  <smiles>  (5) 
Cc1ccc2c(c1)CC(c1cccc(C(=O)Nc3ccc4cn[nH]c4c3)c1)=N2

>  <score_type>  (5) 
oracle

>  <origin>  (5) 
autodockgpu

>  <m_score__min__energy>  (5) 
-9.4399999999999995

>  <m_primary>  (5) 
energy

>  <rmsd>  (5) 
7.640077581547711

>  <m_score__min__rmsd>  (5) 
7.640077581547711

>  <meeko>  (5) 
{"free_energy": -9.37, "intermolecular_energy": -10.27, "internal_energy": -0.67, "cluster_size": 50, "cluster_id": 1, "rank_in_cluster": 14}

>  <energy>  (5) 
-9.42

>  <cluster_rmsd>  (5) 
0.03

>  <cluster>  (5) 
1

$$$$

     RDKit          3D

 46 50  0  0  0  0  0  0  0  0999 V2000
  141.2440   68.1570  228.9200 C   0  0  0  0  0  0  0  0  0  0  0  0
  140.7070   68.4590  227.5670 C   0  0  0  0  0  0  0  0  0  0  0  0
  139.9570   67.5140  226.8750 C   0  0  0  0  0  0  0  0  0  0  0  0
  139.4510   67.7850  225.6150 C   0  0  0  0  0  0  0  0  0  0  0  0
  139.6700   68.9990  224.9940 C   0  0  0  0  0  0  0  0  0  0  0  0
  140.4140   69.9390  225.6790 C   0  0  0  0  0  0  0  0  0  0  0  0
  140.9220   69.6700  226.9430 C   0  0  0  0  0  0  0  0  0  0  0  0
  140.5250   71.1590  224.8360 C   0  0  0  0  0  0  0  0  0  0  0  0
  139.7580   70.7670  223.6260 C   0  0  0  0  0  0  0  0  0  0  0  0
  139.5520   71.6220  222.4610 C   0  0  0  0  0  0  0  0  0  0  0  0
  139.0380   71.1040  221.2750 C   0  0  0  0  0  0  0  0  0  0  0  0
  138.8320   71.8810  220.1650 C   0  0  0  0  0  0  0  0  0  0  0  0
  139.1520   73.2130  220.2460 C   0  0  0  0  0  0  0  0  0  0  0  0
  139.6570   73.7860  221.3680 C   0  0  0  0  0  0  0  0  0  0  0  0
  140.0080   75.1850  221.5010 C   0  0  0  0  0  0  0  0  0  0  0  0
  140.7700   75.7680  220.6830 O   0  0  0  0  0  0  0  0  0  0  0  0
  139.5040   75.9740  222.5720 N   0  0  0  0  0  0  0  0  0  0  0  0
  139.8370   77.3620  222.7250 C   0  0  0  0  0  0  0  0  0  0  0  0
  138.9270   78.3300  223.0190 C   0  0  0  0  0  0  0  0  0  0  0  0
  139.2960   79.6530  223.1570 C   0  0  0  0  0  0  0  0  0  0  0  0
  140.6240   79.9890  222.9880 C   0  0  0  0  0  0  0  0  0  0  0  0
  141.3440   81.1800  223.0480 C   0  0  0  0  0  0  0  0  0  0  0  0
  142.6440   80.8840  222.7890 N   0  0  0  0  0  0  0  0  0  0  0  0
  142.7770   79.5840  222.5730 N   0  0  0  0  0  0  0  0  0  0  0  0
  141.5740   79.0190  222.6860 C   0  0  0  0  0  0  0  0  0  0  0  0
  141.1590   77.7040  222.5570 C   0  0  0  0  0  0  0  0  0  0  0  0
  139.8490   72.9570  222.4750 C   0  0  0  0  0  0  0  0  0  0  0  0
  139.2970   69.5670  223.7430 N   0  0  0  0  0  0  0  0  0  0  0  0
  140.5538   68.5452  229.6835 H   0  0  0  0  0  0  0  0  0  0  0  0
  141.3475   67.0683  229.0388 H   0  0  0  0  0  0  0  0  0  0  0  0
  142.2280   68.6340  229.0388 H   0  0  0  0  0  0  0  0  0  0  0  0
  139.7625   66.5346  227.3366 H   0  0  0  0  0  0  0  0  0  0  0  0
  138.8607   67.0152  225.0964 H   0  0  0  0  0  0  0  0  0  0  0  0
  141.5108   70.4423  227.4597 H   0  0  0  0  0  0  0  0  0  0  0  0
  140.0721   72.0303  225.3318 H   0  0  0  0  0  0  0  0  0  0  0  0
  141.5617   71.4611  224.6262 H   0  0  0  0  0  0  0  0  0  0  0  0
  138.7886   70.0337  221.2274 H   0  0  0  0  0  0  0  0  0  0  0  0
  138.4233   71.4507  219.2388 H   0  0  0  0  0  0  0  0  0  0  0  0
  138.9918   73.8457  219.3605 H   0  0  0  0  0  0  0  0  0  0  0  0
  138.8660   75.5870  223.3010 H   0  0  0  0  0  0  0  0  0  0  0  0
  137.8710   78.0513  223.1500 H   0  0  0  0  0  0  0  0  0  0  0  0
  138.5478   80.4229  223.3965 H   0  0  0  0  0  0  0  0  0  0  0  0
  140.9346   82.1776  223.2654 H   0  0  0  0  0  0  0  0  0  0  0  0
  143.6890   79.1150  222.3530 H   0  0  0  0  0  0  0  0  0  0  0  0
  141.8957   76.9231  222.3172 H   0  0  0  0  0  0  0  0  0  0  0  0
  140.2564   73.3962  223.3975 H   0  0  0  0  0  0  0  0  0  0  0  0
  1  2  1  0
  2  3  2  0
  3  4  1  0
  4  5  2  0
  5  6  1  0
  6  7  2  0
  6  8  1  0
  8  9  1  0
  9 10  1  0
 10 11  2  0
 11 12  1  0
 12 13  2  0
 13 14  1  0
 14 15  1  0
 15 16  2  0
 15 17  1  0
 17 18  1  0
 18 19  2  0
 19 20  1  0
 20 21  2  0
 21 22  1  0
 22 23  2  0
 23 24  1  0
 24 25  1  0
 25 26  2  0
 14 27  2  0
  9 28  2  0
  7  2  1  0
 27 10  1  0
 28  5  1  0
 26 18  1  0
 25 21  1  0
  1 29  1  0
  1 30  1  0
  1 31  1  0
  3 32  1  0
  4 33  1  0
  7 34  1  0
  8 35  1  0
  8 36  1  0
 11 37  1  0
 12 38  1  0
 13 39  1  0
 17 40  1  0
 19 41  1  0
 20 42  1  0
 22 43  1  0
 24 44  1  0
 26 45  1  0
 27 46  1  0
M  END
>  <smiles>  (6) 
Cc1ccc2c(c1)CC(c1cccc(C(=O)Nc3ccc4cn[nH]c4c3)c1)=N2

>  <score_type>  (6) 
oracle

>  <origin>  (6) 
autodockgpu

>  <m_score__min__energy>  (6) 
-9.4399999999999995

>  <m_primary>  (6) 
energy

>  <rmsd>  (6) 
7.642074580026018

>  <m_score__min__rmsd>  (6) 
7.642074580026018

>  <meeko>  (6) 
{"free_energy": -9.43, "intermolecular_energy": -10.33, "internal_energy": -0.6, "cluster_size": 50, "cluster_id": 1, "rank_in_cluster": 2}

>  <energy>  (6) 
-9.41

>  <cluster_rmsd>  (6) 
0.09

>  <cluster>  (6) 
1

$$$$

     RDKit          3D

 46 50  0  0  0  0  0  0  0  0999 V2000
  141.2900   68.2740  228.8360 C   0  0  0  0  0  0  0  0  0  0  0  0
  140.6870   68.5920  227.5150 C   0  0  0  0  0  0  0  0  0  0  0  0
  139.7640   67.7300  226.9310 C   0  0  0  0  0  0  0  0  0  0  0  0
  139.1950   68.0160  225.7020 C   0  0  0  0  0  0  0  0  0  0  0  0
  139.5200   69.1640  225.0050 C   0  0  0  0  0  0  0  0  0  0  0  0
  140.4350   70.0210  225.5820 C   0  0  0  0  0  0  0  0  0  0  0  0
  141.0070   69.7370  226.8150 C   0  0  0  0  0  0  0  0  0  0  0  0
  140.6360   71.1810  224.6720 C   0  0  0  0  0  0  0  0  0  0  0  0
  139.7260   70.8480  223.5460 C   0  0  0  0  0  0  0  0  0  0  0  0
  139.5380   71.6750  222.3590 C   0  0  0  0  0  0  0  0  0  0  0  0
  139.1000   71.1180  221.1600 C   0  0  0  0  0  0  0  0  0  0  0  0
  138.9130   71.8690  220.0290 C   0  0  0  0  0  0  0  0  0  0  0  0
  139.1740   73.2150  220.1010 C   0  0  0  0  0  0  0  0  0  0  0  0
  139.6030   73.8250  221.2350 C   0  0  0  0  0  0  0  0  0  0  0  0
  139.8900   75.2400  221.3600 C   0  0  0  0  0  0  0  0  0  0  0  0
  140.3770   75.9130  220.4110 O   0  0  0  0  0  0  0  0  0  0  0  0
  139.6320   75.9410  222.5700 N   0  0  0  0  0  0  0  0  0  0  0  0
  139.9070   77.3420  222.7180 C   0  0  0  0  0  0  0  0  0  0  0  0
  138.9580   78.2720  223.0110 C   0  0  0  0  0  0  0  0  0  0  0  0
  139.2720   79.6100  223.1440 C   0  0  0  0  0  0  0  0  0  0  0  0
  140.5850   80.0010  222.9710 C   0  0  0  0  0  0  0  0  0  0  0  0
  141.2540   81.2210  223.0260 C   0  0  0  0  0  0  0  0  0  0  0  0
  142.5650   80.9780  222.7650 N   0  0  0  0  0  0  0  0  0  0  0  0
  142.7520   79.6840  222.5520 N   0  0  0  0  0  0  0  0  0  0  0  0
  141.5730   79.0700  222.6700 C   0  0  0  0  0  0  0  0  0  0  0  0
  141.2130   77.7380  222.5460 C   0  0  0  0  0  0  0  0  0  0  0  0
  139.7790   73.0210  222.3630 C   0  0  0  0  0  0  0  0  0  0  0  0
  139.1230   69.7270  223.7590 N   0  0  0  0  0  0  0  0  0  0  0  0
  140.6235   68.6255  229.6374 H   0  0  0  0  0  0  0  0  0  0  0  0
  141.4274   67.1862  228.9240 H   0  0  0  0  0  0  0  0  0  0  0  0
  142.2653   68.7751  228.9240 H   0  0  0  0  0  0  0  0  0  0  0  0
  139.4816   66.8051  227.4551 H   0  0  0  0  0  0  0  0  0  0  0  0
  138.4673   67.3131  225.2702 H   0  0  0  0  0  0  0  0  0  0  0  0
  141.7335   70.4426  227.2444 H   0  0  0  0  0  0  0  0  0  0  0  0
  140.3446   72.1247  225.1563 H   0  0  0  0  0  0  0  0  0  0  0  0
  141.6824   71.3317  224.3683 H   0  0  0  0  0  0  0  0  0  0  0  0
  138.8971   70.0376  221.1194 H   0  0  0  0  0  0  0  0  0  0  0  0
  138.5647   71.4079  219.0930 H   0  0  0  0  0  0  0  0  0  0  0  0
  139.0288   73.8269  219.1985 H   0  0  0  0  0  0  0  0  0  0  0  0
  139.2290   75.4760  223.4120 H   0  0  0  0  0  0  0  0  0  0  0  0
  137.9148   77.9500  223.1452 H   0  0  0  0  0  0  0  0  0  0  0  0
  138.4928   80.3488  223.3827 H   0  0  0  0  0  0  0  0  0  0  0  0
  140.8038   82.2013  223.2412 H   0  0  0  0  0  0  0  0  0  0  0  0
  143.6810   79.2540  222.3310 H   0  0  0  0  0  0  0  0  0  0  0  0
  141.9811   76.9877  222.3070 H   0  0  0  0  0  0  0  0  0  0  0  0
  140.1265   73.4907  223.2950 H   0  0  0  0  0  0  0  0  0  0  0  0
  1  2  1  0
  2  3  2  0
  3  4  1  0
  4  5  2  0
  5  6  1  0
  6  7  2  0
  6  8  1  0
  8  9  1  0
  9 10  1  0
 10 11  2  0
 11 12  1  0
 12 13  2  0
 13 14  1  0
 14 15  1  0
 15 16  2  0
 15 17  1  0
 17 18  1  0
 18 19  2  0
 19 20  1  0
 20 21  2  0
 21 22  1  0
 22 23  2  0
 23 24  1  0
 24 25  1  0
 25 26  2  0
 14 27  2  0
  9 28  2  0
  7  2  1  0
 27 10  1  0
 28  5  1  0
 26 18  1  0
 25 21  1  0
  1 29  1  0
  1 30  1  0
  1 31  1  0
  3 32  1  0
  4 33  1  0
  7 34  1  0
  8 35  1  0
  8 36  1  0
 11 37  1  0
 12 38  1  0
 13 39  1  0
 17 40  1  0
 19 41  1  0
 20 42  1  0
 22 43  1  0
 24 44  1  0
 26 45  1  0
 27 46  1  0
M  END
>  <smiles>  (7) 
Cc1ccc2c(c1)CC(c1cccc(C(=O)Nc3ccc4cn[nH]c4c3)c1)=N2

>  <score_type>  (7) 
oracle

>  <origin>  (7) 
autodockgpu

>  <m_score__min__energy>  (7) 
-9.4399999999999995

>  <m_primary>  (7) 
energy

>  <rmsd>  (7) 
7.626552809547203

>  <m_score__min__rmsd>  (7) 
7.626552809547203

>  <meeko>  (7) 
{"free_energy": -9.31, "intermolecular_energy": -10.21, "internal_energy": -0.7, "cluster_size": 50, "cluster_id": 1, "rank_in_cluster": 33}

>  <energy>  (7) 
-9.4

>  <cluster_rmsd>  (7) 
0.06

>  <cluster>  (7) 
1

$$$$

     RDKit          3D

 46 50  0  0  0  0  0  0  0  0999 V2000
  141.2550   68.2390  228.7990 C   0  0  0  0  0  0  0  0  0  0  0  0
  140.6730   68.5380  227.4640 C   0  0  0  0  0  0  0  0  0  0  0  0
  139.8890   67.5970  226.8060 C   0  0  0  0  0  0  0  0  0  0  0  0
  139.3410   67.8650  225.5630 C   0  0  0  0  0  0  0  0  0  0  0  0
  139.5500   69.0720  224.9260 C   0  0  0  0  0  0  0  0  0  0  0  0
  140.3280   70.0090  225.5770 C   0  0  0  0  0  0  0  0  0  0  0  0
  140.8780   69.7430  226.8240 C   0  0  0  0  0  0  0  0  0  0  0  0
  140.4220   71.2220  224.7220 C   0  0  0  0  0  0  0  0  0  0  0  0
  139.6080   70.8300  223.5430 C   0  0  0  0  0  0  0  0  0  0  0  0
  139.3690   71.6790  222.3810 C   0  0  0  0  0  0  0  0  0  0  0  0
  138.8280   71.1540  221.2100 C   0  0  0  0  0  0  0  0  0  0  0  0
  138.5910   71.9260  220.1020 C   0  0  0  0  0  0  0  0  0  0  0  0
  138.9070   73.2600  220.1700 C   0  0  0  0  0  0  0  0  0  0  0  0
  139.4380   73.8400  221.2770 C   0  0  0  0  0  0  0  0  0  0  0  0
  139.7860   75.2410  221.3960 C   0  0  0  0  0  0  0  0  0  0  0  0
  140.3320   75.8790  220.4560 O   0  0  0  0  0  0  0  0  0  0  0  0
  139.5240   75.9670  222.5900 N   0  0  0  0  0  0  0  0  0  0  0  0
  139.8590   77.3560  222.7320 C   0  0  0  0  0  0  0  0  0  0  0  0
  138.9520   78.3260  223.0250 C   0  0  0  0  0  0  0  0  0  0  0  0
  139.3230   79.6510  223.1520 C   0  0  0  0  0  0  0  0  0  0  0  0
  140.6500   79.9840  222.9730 C   0  0  0  0  0  0  0  0  0  0  0  0
  141.3710   81.1750  223.0210 C   0  0  0  0  0  0  0  0  0  0  0  0
  142.6700   80.8760  222.7560 N   0  0  0  0  0  0  0  0  0  0  0  0
  142.8010   79.5740  222.5480 N   0  0  0  0  0  0  0  0  0  0  0  0
  141.5970   79.0110  222.6720 C   0  0  0  0  0  0  0  0  0  0  0  0
  141.1800   77.6950  222.5540 C   0  0  0  0  0  0  0  0  0  0  0  0
  139.6610   73.0150  222.3820 C   0  0  0  0  0  0  0  0  0  0  0  0
  139.1390   69.6360  223.6860 N   0  0  0  0  0  0  0  0  0  0  0  0
  140.5702   68.5908  229.5847 H   0  0  0  0  0  0  0  0  0  0  0  0
  141.4023   67.1536  228.9000 H   0  0  0  0  0  0  0  0  0  0  0  0
  142.2231   68.7514  228.9000 H   0  0  0  0  0  0  0  0  0  0  0  0
  139.7009   66.6229  227.2811 H   0  0  0  0  0  0  0  0  0  0  0  0
  138.7245   67.0981  225.0713 H   0  0  0  0  0  0  0  0  0  0  0  0
  141.4927   70.5125  227.3140 H   0  0  0  0  0  0  0  0  0  0  0  0
  139.9965   72.1016  225.2273 H   0  0  0  0  0  0  0  0  0  0  0  0
  141.4537   71.5115  224.4733 H   0  0  0  0  0  0  0  0  0  0  0  0
  138.5822   70.0825  221.1727 H   0  0  0  0  0  0  0  0  0  0  0  0
  138.1614   71.4903  219.1879 H   0  0  0  0  0  0  0  0  0  0  0  0
  138.7214   73.8885  219.2865 H   0  0  0  0  0  0  0  0  0  0  0  0
  139.0750   75.5310  223.4240 H   0  0  0  0  0  0  0  0  0  0  0  0
  137.8966   78.0489  223.1644 H   0  0  0  0  0  0  0  0  0  0  0  0
  138.5769   80.4233  223.3905 H   0  0  0  0  0  0  0  0  0  0  0  0
  140.9636   82.1743  223.2343 H   0  0  0  0  0  0  0  0  0  0  0  0
  143.7100   79.1030  222.3250 H   0  0  0  0  0  0  0  0  0  0  0  0
  141.9144   76.9117  222.3150 H   0  0  0  0  0  0  0  0  0  0  0  0
  140.0900   73.4592  223.2923 H   0  0  0  0  0  0  0  0  0  0  0  0
  1  2  1  0
  2  3  2  0
  3  4  1  0
  4  5  2  0
  5  6  1  0
  6  7  2  0
  6  8  1  0
  8  9  1  0
  9 10  1  0
 10 11  2  0
 11 12  1  0
 12 13  2  0
 13 14  1  0
 14 15  1  0
 15 16  2  0
 15 17  1  0
 17 18  1  0
 18 19  2  0
 19 20  1  0
 20 21  2  0
 21 22  1  0
 22 23  2  0
 23 24  1  0
 24 25  1  0
 25 26  2  0
 14 27  2  0
  9 28  2  0
  7  2  1  0
 27 10  1  0
 28  5  1  0
 26 18  1  0
 25 21  1  0
  1 29  1  0
  1 30  1  0
  1 31  1  0
  3 32  1  0
  4 33  1  0
  7 34  1  0
  8 35  1  0
  8 36  1  0
 11 37  1  0
 12 38  1  0
 13 39  1  0
 17 40  1  0
 19 41  1  0
 20 42  1  0
 22 43  1  0
 24 44  1  0
 26 45  1  0
 27 46  1  0
M  END
>  <smiles>  (8) 
Cc1ccc2c(c1)CC(c1cccc(C(=O)Nc3ccc4cn[nH]c4c3)c1)=N2

>  <score_type>  (8) 
oracle

>  <origin>  (8) 
autodockgpu

>  <m_score__min__energy>  (8) 
-9.4399999999999995

>  <m_primary>  (8) 
energy

>  <rmsd>  (8) 
7.614698118755144

>  <m_score__min__rmsd>  (8) 
7.614698118755144

>  <meeko>  (8) 
{"free_energy": -9.33, "intermolecular_energy": -10.22, "internal_energy": -0.69, "cluster_size": 50, "cluster_id": 1, "rank_in_cluster": 30}

>  <energy>  (8) 
-9.4

>  <cluster_rmsd>  (8) 
0.18

>  <cluster>  (8) 
1

$$$$

     RDKit          3D

 46 50  0  0  0  0  0  0  0  0999 V2000
  141.2920   68.2170  228.7890 C   0  0  0  0  0  0  0  0  0  0  0  0
  140.6820   68.5420  227.4730 C   0  0  0  0  0  0  0  0  0  0  0  0
  139.7790   67.6700  226.8750 C   0  0  0  0  0  0  0  0  0  0  0  0
  139.2040   67.9630  225.6500 C   0  0  0  0  0  0  0  0  0  0  0  0
  139.5050   69.1270  224.9710 C   0  0  0  0  0  0  0  0  0  0  0  0
  140.4020   69.9950  225.5620 C   0  0  0  0  0  0  0  0  0  0  0  0
  140.9780   69.7040  226.7910 C   0  0  0  0  0  0  0  0  0  0  0  0
  140.5780   71.1730  224.6700 C   0  0  0  0  0  0  0  0  0  0  0  0
  139.6760   70.8380  223.5380 C   0  0  0  0  0  0  0  0  0  0  0  0
  139.4710   71.6790  222.3640 C   0  0  0  0  0  0  0  0  0  0  0  0
  138.9810   71.1430  221.1750 C   0  0  0  0  0  0  0  0  0  0  0  0
  138.7770   71.9080  220.0560 C   0  0  0  0  0  0  0  0  0  0  0  0
  139.0750   73.2460  220.1300 C   0  0  0  0  0  0  0  0  0  0  0  0
  139.5550   73.8360  221.2540 C   0  0  0  0  0  0  0  0  0  0  0  0
  139.8820   75.2420  221.3800 C   0  0  0  0  0  0  0  0  0  0  0  0
  140.4220   75.8920  220.4450 O   0  0  0  0  0  0  0  0  0  0  0  0
  139.6040   75.9600  222.5760 N   0  0  0  0  0  0  0  0  0  0  0  0
  139.9170   77.3530  222.7240 C   0  0  0  0  0  0  0  0  0  0  0  0
  138.9940   78.3080  223.0190 C   0  0  0  0  0  0  0  0  0  0  0  0
  139.3450   79.6370  223.1530 C   0  0  0  0  0  0  0  0  0  0  0  0
  140.6670   79.9920  222.9790 C   0  0  0  0  0  0  0  0  0  0  0  0
  141.3700   81.1930  223.0330 C   0  0  0  0  0  0  0  0  0  0  0  0
  142.6740   80.9150  222.7710 N   0  0  0  0  0  0  0  0  0  0  0  0
  142.8250   79.6160  222.5570 N   0  0  0  0  0  0  0  0  0  0  0  0
  141.6300   79.0350  222.6760 C   0  0  0  0  0  0  0  0  0  0  0  0
  141.2330   77.7130  222.5520 C   0  0  0  0  0  0  0  0  0  0  0  0
  139.7460   73.0190  222.3700 C   0  0  0  0  0  0  0  0  0  0  0  0
  139.0970   69.7010  223.7340 N   0  0  0  0  0  0  0  0  0  0  0  0
  140.6321   68.5686  229.5958 H   0  0  0  0  0  0  0  0  0  0  0  0
  141.4253   67.1283  228.8725 H   0  0  0  0  0  0  0  0  0  0  0  0
  142.2700   68.7136  228.8725 H   0  0  0  0  0  0  0  0  0  0  0  0
  139.5168   66.7308  227.3841 H   0  0  0  0  0  0  0  0  0  0  0  0
  138.4908   67.2520  225.2074 H   0  0  0  0  0  0  0  0  0  0  0  0
  141.6887   70.4183  227.2324 H   0  0  0  0  0  0  0  0  0  0  0  0
  140.2660   72.1025  225.1686 H   0  0  0  0  0  0  0  0  0  0  0  0
  141.6211   71.3509  224.3694 H   0  0  0  0  0  0  0  0  0  0  0  0
  138.7498   70.0684  221.1327 H   0  0  0  0  0  0  0  0  0  0  0  0
  138.3869   71.4639  219.1283 H   0  0  0  0  0  0  0  0  0  0  0  0
  138.9175   73.8687  219.2370 H   0  0  0  0  0  0  0  0  0  0  0  0
  139.1570   75.5140  223.4060 H   0  0  0  0  0  0  0  0  0  0  0  0
  137.9425   78.0145  223.1541 H   0  0  0  0  0  0  0  0  0  0  0  0
  138.5866   80.3966  223.3934 H   0  0  0  0  0  0  0  0  0  0  0  0
  140.9469   82.1853  223.2484 H   0  0  0  0  0  0  0  0  0  0  0  0
  143.7420   79.1610  222.3350 H   0  0  0  0  0  0  0  0  0  0  0  0
  141.9801   76.9418  222.3130 H   0  0  0  0  0  0  0  0  0  0  0  0
  140.1344   73.4724  223.2939 H   0  0  0  0  0  0  0  0  0  0  0  0
  1  2  1  0
  2  3  2  0
  3  4  1  0
  4  5  2  0
  5  6  1  0
  6  7  2  0
  6  8  1  0
  8  9  1  0
  9 10  1  0
 10 11  2  0
 11 12  1  0
 12 13  2  0
 13 14  1  0
 14 15  1  0
 15 16  2  0
 15 17  1  0
 17 18  1  0
 18 19  2  0
 19 20  1  0
 20 21  2  0
 21 22  1  0
 22 23  2  0
 23 24  1  0
 24 25  1  0
 25 26  2  0
 14 27  2  0
  9 28  2  0
  7  2  1  0
 27 10  1  0
 28  5  1  0
 26 18  1  0
 25 21  1  0
  1 29  1  0
  1 30  1  0
  1 31  1  0
  3 32  1  0
  4 33  1  0
  7 34  1  0
  8 35  1  0
  8 36  1  0
 11 37  1  0
 12 38  1  0
 13 39  1  0
 17 40  1  0
 19 41  1  0
 20 42  1  0
 22 43  1  0
 24 44  1  0
 26 45  1  0
 27 46  1  0
M  END
>  <smiles>  (9) 
Cc1ccc2c(c1)CC(c1cccc(C(=O)Nc3ccc4cn[nH]c4c3)c1)=N2

>  <score_type>  (9) 
oracle

>  <origin>  (9) 
autodockgpu

>  <m_score__min__energy>  (9) 
-9.4399999999999995

>  <m_primary>  (9) 
energy

>  <rmsd>  (9) 
7.616798863422555

>  <m_score__min__rmsd>  (9) 
7.616798863422555

>  <meeko>  (9) 
{"free_energy": -9.34, "intermolecular_energy": -10.23, "internal_energy": -0.69, "cluster_size": 50, "cluster_id": 1, "rank_in_cluster": 27}

>  <energy>  (9) 
-9.39

>  <cluster_rmsd>  (9) 
0.09

>  <cluster>  (9) 
1

$$$$

     RDKit          3D

 46 50  0  0  0  0  0  0  0  0999 V2000
  141.2730   68.2180  228.8160 C   0  0  0  0  0  0  0  0  0  0  0  0
  140.6890   68.5270  227.4840 C   0  0  0  0  0  0  0  0  0  0  0  0
  139.8830   67.6010  226.8310 C   0  0  0  0  0  0  0  0  0  0  0  0
  139.3340   67.8780  225.5910 C   0  0  0  0  0  0  0  0  0  0  0  0
  139.5630   69.0810  224.9510 C   0  0  0  0  0  0  0  0  0  0  0  0
  140.3630   70.0030  225.5970 C   0  0  0  0  0  0  0  0  0  0  0  0
  140.9140   69.7270  226.8410 C   0  0  0  0  0  0  0  0  0  0  0  0
  140.4750   71.2140  224.7410 C   0  0  0  0  0  0  0  0  0  0  0  0
  139.6470   70.8370  223.5670 C   0  0  0  0  0  0  0  0  0  0  0  0
  139.4180   71.6890  222.4050 C   0  0  0  0  0  0  0  0  0  0  0  0
  138.8770   71.1700  221.2310 C   0  0  0  0  0  0  0  0  0  0  0  0
  138.6490   71.9460  220.1240 C   0  0  0  0  0  0  0  0  0  0  0  0
  138.9750   73.2770  220.1950 C   0  0  0  0  0  0  0  0  0  0  0  0
  139.5060   73.8510  221.3050 C   0  0  0  0  0  0  0  0  0  0  0  0
  139.8650   75.2490  221.4270 C   0  0  0  0  0  0  0  0  0  0  0  0
  140.5100   75.8580  220.5320 O   0  0  0  0  0  0  0  0  0  0  0  0
  139.5000   76.0070  222.5740 N   0  0  0  0  0  0  0  0  0  0  0  0
  139.8430   77.3930  222.7180 C   0  0  0  0  0  0  0  0  0  0  0  0
  138.9400   78.3690  223.0050 C   0  0  0  0  0  0  0  0  0  0  0  0
  139.3180   79.6910  223.1350 C   0  0  0  0  0  0  0  0  0  0  0  0
  140.6490   80.0170  222.9650 C   0  0  0  0  0  0  0  0  0  0  0  0
  141.3780   81.2020  223.0170 C   0  0  0  0  0  0  0  0  0  0  0  0
  142.6760   80.8950  222.7620 N   0  0  0  0  0  0  0  0  0  0  0  0
  142.8000   79.5930  222.5540 N   0  0  0  0  0  0  0  0  0  0  0  0
  141.5920   79.0380  222.6710 C   0  0  0  0  0  0  0  0  0  0  0  0
  141.1670   77.7240  222.5500 C   0  0  0  0  0  0  0  0  0  0  0  0
  139.7200   73.0230  222.4100 C   0  0  0  0  0  0  0  0  0  0  0  0
  139.1560   69.6520  223.7130 N   0  0  0  0  0  0  0  0  0  0  0  0
  140.5958   68.5763  229.6053 H   0  0  0  0  0  0  0  0  0  0  0  0
  141.4076   67.1307  228.9141 H   0  0  0  0  0  0  0  0  0  0  0  0
  142.2477   68.7184  228.9141 H   0  0  0  0  0  0  0  0  0  0  0  0
  139.6781   66.6313  227.3083 H   0  0  0  0  0  0  0  0  0  0  0  0
  138.7003   67.1225  225.1034 H   0  0  0  0  0  0  0  0  0  0  0  0
  141.5464   70.4847  227.3268 H   0  0  0  0  0  0  0  0  0  0  0  0
  140.0691   72.1016  225.2484 H   0  0  0  0  0  0  0  0  0  0  0  0
  141.5105   71.4840  224.4863 H   0  0  0  0  0  0  0  0  0  0  0  0
  138.6239   70.1003  221.1907 H   0  0  0  0  0  0  0  0  0  0  0  0
  138.2184   71.5153  219.2080 H   0  0  0  0  0  0  0  0  0  0  0  0
  138.7979   73.9082  219.3117 H   0  0  0  0  0  0  0  0  0  0  0  0
  138.9640   75.5960  223.3700 H   0  0  0  0  0  0  0  0  0  0  0  0
  137.8820   78.0985  223.1369 H   0  0  0  0  0  0  0  0  0  0  0  0
  138.5748   80.4675  223.3689 H   0  0  0  0  0  0  0  0  0  0  0  0
  140.9759   82.2042  223.2265 H   0  0  0  0  0  0  0  0  0  0  0  0
  143.7080   79.1160  222.3380 H   0  0  0  0  0  0  0  0  0  0  0  0
  141.8983   76.9361  222.3166 H   0  0  0  0  0  0  0  0  0  0  0  0
  140.1494   73.4625  223.3224 H   0  0  0  0  0  0  0  0  0  0  0  0
  1  2  1  0
  2  3  2  0
  3  4  1  0
  4  5  2  0
  5  6  1  0
  6  7  2  0
  6  8  1  0
  8  9  1  0
  9 10  1  0
 10 11  2  0
 11 12  1  0
 12 13  2  0
 13 14  1  0
 14 15  1  0
 15 16  2  0
 15 17  1  0
 17 18  1  0
 18 19  2  0
 19 20  1  0
 20 21  2  0
 21 22  1  0
 22 23  2  0
 23 24  1  0
 24 25  1  0
 25 26  2  0
 14 27  2  0
  9 28  2  0
  7  2  1  0
 27 10  1  0
 28  5  1  0
 26 18  1  0
 25 21  1  0
  1 29  1  0
  1 30  1  0
  1 31  1  0
  3 32  1  0
  4 33  1  0
  7 34  1  0
  8 35  1  0
  8 36  1  0
 11 37  1  0
 12 38  1  0
 13 39  1  0
 17 40  1  0
 19 41  1  0
 20 42  1  0
 22 43  1  0
 24 44  1  0
 26 45  1  0
 27 46  1  0
M  END
>  <smiles>  (10) 
Cc1ccc2c(c1)CC(c1cccc(C(=O)Nc3ccc4cn[nH]c4c3)c1)=N2

>  <score_type>  (10) 
oracle

>  <origin>  (10) 
autodockgpu

>  <m_score__min__energy>  (10) 
-9.4399999999999995

>  <m_primary>  (10) 
energy

>  <rmsd>  (10) 
7.611092747234836

>  <m_score__min__rmsd>  (10) 
7.611092747234836

>  <meeko>  (10) 
{"free_energy": -9.38, "intermolecular_energy": -10.28, "internal_energy": -0.67, "cluster_size": 50, "cluster_id": 1, "rank_in_cluster": 12}

>  <energy>  (10) 
-9.39

>  <cluster_rmsd>  (10) 
0.1

>  <cluster>  (10) 
1

$$$$

     RDKit          3D

 46 50  0  0  0  0  0  0  0  0999 V2000
  141.3000   68.1720  228.8290 C   0  0  0  0  0  0  0  0  0  0  0  0
  140.7000   68.4970  227.5080 C   0  0  0  0  0  0  0  0  0  0  0  0
  139.8260   67.6110  226.8880 C   0  0  0  0  0  0  0  0  0  0  0  0
  139.2620   67.9030  225.6590 C   0  0  0  0  0  0  0  0  0  0  0  0
  139.5430   69.0830  224.9970 C   0  0  0  0  0  0  0  0  0  0  0  0
  140.4110   69.9650  225.6100 C   0  0  0  0  0  0  0  0  0  0  0  0
  140.9770   69.6740  226.8430 C   0  0  0  0  0  0  0  0  0  0  0  0
  140.5710   71.1560  224.7340 C   0  0  0  0  0  0  0  0  0  0  0  0
  139.6920   70.8130  223.5850 C   0  0  0  0  0  0  0  0  0  0  0  0
  139.4830   71.6620  222.4180 C   0  0  0  0  0  0  0  0  0  0  0  0
  138.9680   71.1390  221.2340 C   0  0  0  0  0  0  0  0  0  0  0  0
  138.7600   71.9110  220.1210 C   0  0  0  0  0  0  0  0  0  0  0  0
  139.0780   73.2440  220.1970 C   0  0  0  0  0  0  0  0  0  0  0  0
  139.5830   73.8230  221.3160 C   0  0  0  0  0  0  0  0  0  0  0  0
  139.9320   75.2230  221.4430 C   0  0  0  0  0  0  0  0  0  0  0  0
  140.6040   75.8300  220.5660 O   0  0  0  0  0  0  0  0  0  0  0  0
  139.5270   75.9840  222.5740 N   0  0  0  0  0  0  0  0  0  0  0  0
  139.8600   77.3730  222.7220 C   0  0  0  0  0  0  0  0  0  0  0  0
  138.9500   78.3420  223.0110 C   0  0  0  0  0  0  0  0  0  0  0  0
  139.3190   79.6660  223.1440 C   0  0  0  0  0  0  0  0  0  0  0  0
  140.6470   80.0010  222.9770 C   0  0  0  0  0  0  0  0  0  0  0  0
  141.3670   81.1920  223.0340 C   0  0  0  0  0  0  0  0  0  0  0  0
  142.6680   80.8950  222.7790 N   0  0  0  0  0  0  0  0  0  0  0  0
  142.8020   79.5940  222.5680 N   0  0  0  0  0  0  0  0  0  0  0  0
  141.5980   79.0300  222.6810 C   0  0  0  0  0  0  0  0  0  0  0  0
  141.1820   77.7140  222.5560 C   0  0  0  0  0  0  0  0  0  0  0  0
  139.7780   72.9980  222.4260 C   0  0  0  0  0  0  0  0  0  0  0  0
  139.1380   69.6600  223.7600 N   0  0  0  0  0  0  0  0  0  0  0  0
  140.6378   68.5307  229.6307 H   0  0  0  0  0  0  0  0  0  0  0  0
  141.4253   67.0827  228.9168 H   0  0  0  0  0  0  0  0  0  0  0  0
  142.2808   68.6621  228.9168 H   0  0  0  0  0  0  0  0  0  0  0  0
  139.5786   66.6607  227.3837 H   0  0  0  0  0  0  0  0  0  0  0  0
  138.5739   67.1791  225.1980 H   0  0  0  0  0  0  0  0  0  0  0  0
  141.6641   70.4001  227.3021 H   0  0  0  0  0  0  0  0  0  0  0  0
  140.2304   72.0722  225.2385 H   0  0  0  0  0  0  0  0  0  0  0  0
  141.6136   71.3614  224.4497 H   0  0  0  0  0  0  0  0  0  0  0  0
  138.7195   70.0683  221.1909 H   0  0  0  0  0  0  0  0  0  0  0  0
  138.3514   71.4765  219.1967 H   0  0  0  0  0  0  0  0  0  0  0  0
  138.9160   73.8728  219.3091 H   0  0  0  0  0  0  0  0  0  0  0  0
  138.9680   75.5760  223.3540 H   0  0  0  0  0  0  0  0  0  0  0  0
  137.8938   78.0639  223.1420 H   0  0  0  0  0  0  0  0  0  0  0  0
  138.5702   80.4371  223.3781 H   0  0  0  0  0  0  0  0  0  0  0  0
  140.9572   82.1904  223.2466 H   0  0  0  0  0  0  0  0  0  0  0  0
  143.7130   79.1240  222.3520 H   0  0  0  0  0  0  0  0  0  0  0  0
  141.9189   76.9318  222.3209 H   0  0  0  0  0  0  0  0  0  0  0  0
  140.1863   73.4414  223.3462 H   0  0  0  0  0  0  0  0  0  0  0  0
  1  2  1  0
  2  3  2  0
  3  4  1  0
  4  5  2  0
  5  6  1  0
  6  7  2  0
  6  8  1  0
  8  9  1  0
  9 10  1  0
 10 11  2  0
 11 12  1  0
 12 13  2  0
 13 14  1  0
 14 15  1  0
 15 16  2  0
 15 17  1  0
 17 18  1  0
 18 19  2  0
 19 20  1  0
 20 21  2  0
 21 22  1  0
 22 23  2  0
 23 24  1  0
 24 25  1  0
 25 26  2  0
 14 27  2  0
  9 28  2  0
  7  2  1  0
 27 10  1  0
 28  5  1  0
 26 18  1  0
 25 21  1  0
  1 29  1  0
  1 30  1  0
  1 31  1  0
  3 32  1  0
  4 33  1  0
  7 34  1  0
  8 35  1  0
  8 36  1  0
 11 37  1  0
 12 38  1  0
 13 39  1  0
 17 40  1  0
 19 41  1  0
 20 42  1  0
 22 43  1  0
 24 44  1  0
 26 45  1  0
 27 46  1  0
M  END
>  <smiles>  (11) 
Cc1ccc2c(c1)CC(c1cccc(C(=O)Nc3ccc4cn[nH]c4c3)c1)=N2

>  <score_type>  (11) 
oracle

>  <origin>  (11) 
autodockgpu

>  <m_score__min__energy>  (11) 
-9.4399999999999995

>  <m_primary>  (11) 
energy

>  <rmsd>  (11) 
7.624218775002

>  <m_score__min__rmsd>  (11) 
7.624218775002

>  <meeko>  (11) 
{"free_energy": -9.39, "intermolecular_energy": -10.29, "internal_energy": -0.65, "cluster_size": 50, "cluster_id": 1, "rank_in_cluster": 9}

>  <energy>  (11) 
-9.39

>  <cluster_rmsd>  (11) 
0.18

>  <cluster>  (11) 
1

$$$$

     RDKit          3D

 46 50  0  0  0  0  0  0  0  0999 V2000
  141.2400   68.1550  228.8770 C   0  0  0  0  0  0  0  0  0  0  0  0
  140.6680   68.4730  227.5410 C   0  0  0  0  0  0  0  0  0  0  0  0
  139.8090   67.5830  226.9070 C   0  0  0  0  0  0  0  0  0  0  0  0
  139.2710   67.8690  225.6640 C   0  0  0  0  0  0  0  0  0  0  0  0
  139.5640   69.0460  225.0030 C   0  0  0  0  0  0  0  0  0  0  0  0
  140.4170   69.9330  225.6310 C   0  0  0  0  0  0  0  0  0  0  0  0
  140.9570   69.6480  226.8770 C   0  0  0  0  0  0  0  0  0  0  0  0
  140.5930   71.1210  224.7530 C   0  0  0  0  0  0  0  0  0  0  0  0
  139.7400   70.7710  223.5880 C   0  0  0  0  0  0  0  0  0  0  0  0
  139.5540   71.6150  222.4130 C   0  0  0  0  0  0  0  0  0  0  0  0
  139.0810   71.0820  221.2160 C   0  0  0  0  0  0  0  0  0  0  0  0
  138.8960   71.8490  220.0960 C   0  0  0  0  0  0  0  0  0  0  0  0
  139.1940   73.1870  220.1770 C   0  0  0  0  0  0  0  0  0  0  0  0
  139.6590   73.7740  221.3090 C   0  0  0  0  0  0  0  0  0  0  0  0
  139.9850   75.1790  221.4430 C   0  0  0  0  0  0  0  0  0  0  0  0
  140.6620   75.7960  220.5760 O   0  0  0  0  0  0  0  0  0  0  0  0
  139.5530   75.9330  222.5680 N   0  0  0  0  0  0  0  0  0  0  0  0
  139.8630   77.3260  222.7230 C   0  0  0  0  0  0  0  0  0  0  0  0
  138.9380   78.2780  223.0230 C   0  0  0  0  0  0  0  0  0  0  0  0
  139.2860   79.6070  223.1620 C   0  0  0  0  0  0  0  0  0  0  0  0
  140.6080   79.9660  222.9880 C   0  0  0  0  0  0  0  0  0  0  0  0
  141.3080   81.1680  223.0480 C   0  0  0  0  0  0  0  0  0  0  0  0
  142.6120   80.8940  222.7830 N   0  0  0  0  0  0  0  0  0  0  0  0
  142.7660   79.5970  222.5640 N   0  0  0  0  0  0  0  0  0  0  0  0
  141.5730   79.0120  222.6810 C   0  0  0  0  0  0  0  0  0  0  0  0
  141.1790   77.6900  222.5500 C   0  0  0  0  0  0  0  0  0  0  0  0
  139.8310   72.9540  222.4260 C   0  0  0  0  0  0  0  0  0  0  0  0
  139.1840   69.6180  223.7560 N   0  0  0  0  0  0  0  0  0  0  0  0
  140.5670   68.5292  229.6625 H   0  0  0  0  0  0  0  0  0  0  0  0
  141.3516   67.0654  228.9782 H   0  0  0  0  0  0  0  0  0  0  0  0
  142.2244   68.6353  228.9782 H   0  0  0  0  0  0  0  0  0  0  0  0
  139.5522   66.6347  227.4017 H   0  0  0  0  0  0  0  0  0  0  0  0
  138.5942   67.1419  225.1915 H   0  0  0  0  0  0  0  0  0  0  0  0
  141.6328   70.3772  227.3477 H   0  0  0  0  0  0  0  0  0  0  0  0
  140.2397   72.0386  225.2461 H   0  0  0  0  0  0  0  0  0  0  0  0
  141.6409   71.3277  224.4901 H   0  0  0  0  0  0  0  0  0  0  0  0
  138.8479   70.0080  221.1684 H   0  0  0  0  0  0  0  0  0  0  0  0
  138.5206   71.4069  219.1613 H   0  0  0  0  0  0  0  0  0  0  0  0
  139.0492   73.8118  219.2834 H   0  0  0  0  0  0  0  0  0  0  0  0
  138.9870   75.5150  223.3390 H   0  0  0  0  0  0  0  0  0  0  0  0
  137.8874   77.9815  223.1581 H   0  0  0  0  0  0  0  0  0  0  0  0
  138.5261   80.3639  223.4062 H   0  0  0  0  0  0  0  0  0  0  0  0
  140.8831   82.1582  223.2694 H   0  0  0  0  0  0  0  0  0  0  0  0
  143.6840   79.1440  222.3380 H   0  0  0  0  0  0  0  0  0  0  0  0
  141.9273   76.9220  222.3047 H   0  0  0  0  0  0  0  0  0  0  0  0
  140.2056   73.4047  223.3569 H   0  0  0  0  0  0  0  0  0  0  0  0
  1  2  1  0
  2  3  2  0
  3  4  1  0
  4  5  2  0
  5  6  1  0
  6  7  2  0
  6  8  1  0
  8  9  1  0
  9 10  1  0
 10 11  2  0
 11 12  1  0
 12 13  2  0
 13 14  1  0
 14 15  1  0
 15 16  2  0
 15 17  1  0
 17 18  1  0
 18 19  2  0
 19 20  1  0
 20 21  2  0
 21 22  1  0
 22 23  2  0
 23 24  1  0
 24 25  1  0
 25 26  2  0
 14 27  2  0
  9 28  2  0
  7  2  1  0
 27 10  1  0
 28  5  1  0
 26 18  1  0
 25 21  1  0
  1 29  1  0
  1 30  1  0
  1 31  1  0
  3 32  1  0
  4 33  1  0
  7 34  1  0
  8 35  1  0
  8 36  1  0
 11 37  1  0
 12 38  1  0
 13 39  1  0
 17 40  1  0
 19 41  1  0
 20 42  1  0
 22 43  1  0
 24 44  1  0
 26 45  1  0
 27 46  1  0
M  END
>  <smiles>  (12) 
Cc1ccc2c(c1)CC(c1cccc(C(=O)Nc3ccc4cn[nH]c4c3)c1)=N2

>  <score_type>  (12) 
oracle

>  <origin>  (12) 
autodockgpu

>  <m_score__min__energy>  (12) 
-9.4399999999999995

>  <m_primary>  (12) 
energy

>  <rmsd>  (12) 
7.6464780169795405

>  <m_score__min__rmsd>  (12) 
7.6464780169795405

>  <meeko>  (12) 
{"free_energy": -9.4, "intermolecular_energy": -10.29, "internal_energy": -0.64, "cluster_size": 50, "cluster_id": 1, "rank_in_cluster": 7}

>  <energy>  (12) 
-9.38

>  <cluster_rmsd>  (12) 
0.14

>  <cluster>  (12) 
1

$$$$

     RDKit          3D

 46 50  0  0  0  0  0  0  0  0999 V2000
  141.2430   68.2600  228.8360 C   0  0  0  0  0  0  0  0  0  0  0  0
  140.6800   68.5780  227.4970 C   0  0  0  0  0  0  0  0  0  0  0  0
  139.7910   67.7090  226.8760 C   0  0  0  0  0  0  0  0  0  0  0  0
  139.2600   67.9950  225.6300 C   0  0  0  0  0  0  0  0  0  0  0  0
  139.5920   69.1520  224.9520 C   0  0  0  0  0  0  0  0  0  0  0  0
  140.4750   70.0180  225.5660 C   0  0  0  0  0  0  0  0  0  0  0  0
  141.0080   69.7330  226.8160 C   0  0  0  0  0  0  0  0  0  0  0  0
  140.6900   71.1870  224.6720 C   0  0  0  0  0  0  0  0  0  0  0  0
  139.8240   70.8500  223.5130 C   0  0  0  0  0  0  0  0  0  0  0  0
  139.6650   71.6830  222.3250 C   0  0  0  0  0  0  0  0  0  0  0  0
  139.2720   71.1290  221.1100 C   0  0  0  0  0  0  0  0  0  0  0  0
  139.1130   71.8850  219.9780 C   0  0  0  0  0  0  0  0  0  0  0  0
  139.3560   73.2340  220.0670 C   0  0  0  0  0  0  0  0  0  0  0  0
  139.7430   73.8410  221.2180 C   0  0  0  0  0  0  0  0  0  0  0  0
  140.0100   75.2580  221.3610 C   0  0  0  0  0  0  0  0  0  0  0  0
  140.5480   75.9350  220.4450 O   0  0  0  0  0  0  0  0  0  0  0  0
  139.6730   75.9550  222.5530 N   0  0  0  0  0  0  0  0  0  0  0  0
  139.9270   77.3590  222.7190 C   0  0  0  0  0  0  0  0  0  0  0  0
  138.9660   78.2690  223.0310 C   0  0  0  0  0  0  0  0  0  0  0  0
  139.2600   79.6100  223.1800 C   0  0  0  0  0  0  0  0  0  0  0  0
  140.5650   80.0240  223.0040 C   0  0  0  0  0  0  0  0  0  0  0  0
  141.2160   81.2530  223.0700 C   0  0  0  0  0  0  0  0  0  0  0  0
  142.5290   81.0350  222.7980 N   0  0  0  0  0  0  0  0  0  0  0  0
  142.7340   79.7470  222.5660 N   0  0  0  0  0  0  0  0  0  0  0  0
  141.5660   79.1130  222.6840 C   0  0  0  0  0  0  0  0  0  0  0  0
  141.2260   77.7770  222.5440 C   0  0  0  0  0  0  0  0  0  0  0  0
  139.8910   73.0320  222.3460 C   0  0  0  0  0  0  0  0  0  0  0  0
  139.2300   69.7190  223.6980 N   0  0  0  0  0  0  0  0  0  0  0  0
  140.5687   68.6409  229.6172 H   0  0  0  0  0  0  0  0  0  0  0  0
  141.3467   67.1699  228.9407 H   0  0  0  0  0  0  0  0  0  0  0  0
  142.2301   68.7340  228.9407 H   0  0  0  0  0  0  0  0  0  0  0  0
  139.5039   66.7765  227.3840 H   0  0  0  0  0  0  0  0  0  0  0  0
  138.5576   67.2848  225.1692 H   0  0  0  0  0  0  0  0  0  0  0  0
  141.7092   70.4454  227.2751 H   0  0  0  0  0  0  0  0  0  0  0  0
  140.3687   72.1227  225.1528 H   0  0  0  0  0  0  0  0  0  0  0  0
  141.7439   71.3546  224.4053 H   0  0  0  0  0  0  0  0  0  0  0  0
  139.0825   70.0468  221.0566 H   0  0  0  0  0  0  0  0  0  0  0  0
  138.8007   71.4261  219.0283 H   0  0  0  0  0  0  0  0  0  0  0  0
  139.2314   73.8505  219.1646 H   0  0  0  0  0  0  0  0  0  0  0  0
  139.2230   75.4860  223.3690 H   0  0  0  0  0  0  0  0  0  0  0  0
  137.9290   77.9286  223.1681 H   0  0  0  0  0  0  0  0  0  0  0  0
  138.4708   80.3331  223.4336 H   0  0  0  0  0  0  0  0  0  0  0  0
  140.7519   82.2233  223.3004 H   0  0  0  0  0  0  0  0  0  0  0  0
  143.6690   79.3340  222.3330 H   0  0  0  0  0  0  0  0  0  0  0  0
  142.0039   77.0420  222.2900 H   0  0  0  0  0  0  0  0  0  0  0  0
  140.2026   73.4991  223.2919 H   0  0  0  0  0  0  0  0  0  0  0  0
  1  2  1  0
  2  3  2  0
  3  4  1  0
  4  5  2  0
  5  6  1  0
  6  7  2  0
  6  8  1  0
  8  9  1  0
  9 10  1  0
 10 11  2  0
 11 12  1  0
 12 13  2  0
 13 14  1  0
 14 15  1  0
 15 16  2  0
 15 17  1  0
 17 18  1  0
 18 19  2  0
 19 20  1  0
 20 21  2  0
 21 22  1  0
 22 23  2  0
 23 24  1  0
 24 25  1  0
 25 26  2  0
 14 27  2  0
  9 28  2  0
  7  2  1  0
 27 10  1  0
 28  5  1  0
 26 18  1  0
 25 21  1  0
  1 29  1  0
  1 30  1  0
  1 31  1  0
  3 32  1  0
  4 33  1  0
  7 34  1  0
  8 35  1  0
  8 36  1  0
 11 37  1  0
 12 38  1  0
 13 39  1  0
 17 40  1  0
 19 41  1  0
 20 42  1  0
 22 43  1  0
 24 44  1  0
 26 45  1  0
 27 46  1  0
M  END
>  <smiles>  (13) 
Cc1ccc2c(c1)CC(c1cccc(C(=O)Nc3ccc4cn[nH]c4c3)c1)=N2

>  <score_type>  (13) 
oracle

>  <origin>  (13) 
autodockgpu

>  <m_score__min__energy>  (13) 
-9.4399999999999995

>  <m_primary>  (13) 
energy

>  <rmsd>  (13) 
7.631580098940728

>  <m_score__min__rmsd>  (13) 
7.631580098940728

>  <meeko>  (13) 
{"free_energy": -9.34, "intermolecular_energy": -10.24, "internal_energy": -0.68, "cluster_size": 50, "cluster_id": 1, "rank_in_cluster": 25}

>  <energy>  (13) 
-9.37

>  <cluster_rmsd>  (13) 
0.15

>  <cluster>  (13) 
1

$$$$

     RDKit          3D

 46 50  0  0  0  0  0  0  0  0999 V2000
  141.2660   68.1860  228.7640 C   0  0  0  0  0  0  0  0  0  0  0  0
  140.6760   68.5050  227.4370 C   0  0  0  0  0  0  0  0  0  0  0  0
  139.8370   67.5990  226.7980 C   0  0  0  0  0  0  0  0  0  0  0  0
  139.2810   67.8870  225.5630 C   0  0  0  0  0  0  0  0  0  0  0  0
  139.5370   69.0800  224.9150 C   0  0  0  0  0  0  0  0  0  0  0  0
  140.3690   69.9810  225.5480 C   0  0  0  0  0  0  0  0  0  0  0  0
  140.9270   69.6960  226.7870 C   0  0  0  0  0  0  0  0  0  0  0  0
  140.5060   71.1850  224.6850 C   0  0  0  0  0  0  0  0  0  0  0  0
  139.6550   70.8260  223.5210 C   0  0  0  0  0  0  0  0  0  0  0  0
  139.4370   71.6800  222.3580 C   0  0  0  0  0  0  0  0  0  0  0  0
  138.9140   71.1600  221.1760 C   0  0  0  0  0  0  0  0  0  0  0  0
  138.6980   71.9360  220.0680 C   0  0  0  0  0  0  0  0  0  0  0  0
  139.0140   73.2700  220.1460 C   0  0  0  0  0  0  0  0  0  0  0  0
  139.5260   73.8450  221.2640 C   0  0  0  0  0  0  0  0  0  0  0  0
  139.8740   75.2450  221.3940 C   0  0  0  0  0  0  0  0  0  0  0  0
  140.4740   75.8750  220.4830 O   0  0  0  0  0  0  0  0  0  0  0  0
  139.5510   75.9790  222.5680 N   0  0  0  0  0  0  0  0  0  0  0  0
  139.8840   77.3670  222.7200 C   0  0  0  0  0  0  0  0  0  0  0  0
  138.9760   78.3340  223.0220 C   0  0  0  0  0  0  0  0  0  0  0  0
  139.3460   79.6580  223.1580 C   0  0  0  0  0  0  0  0  0  0  0  0
  140.6730   79.9950  222.9810 C   0  0  0  0  0  0  0  0  0  0  0  0
  141.3930   81.1850  223.0380 C   0  0  0  0  0  0  0  0  0  0  0  0
  142.6920   80.8900  222.7700 N   0  0  0  0  0  0  0  0  0  0  0  0
  142.8240   79.5900  222.5520 N   0  0  0  0  0  0  0  0  0  0  0  0
  141.6210   79.0250  222.6730 C   0  0  0  0  0  0  0  0  0  0  0  0
  141.2050   77.7100  222.5450 C   0  0  0  0  0  0  0  0  0  0  0  0
  139.7300   73.0160  222.3700 C   0  0  0  0  0  0  0  0  0  0  0  0
  139.1320   69.6560  223.6780 N   0  0  0  0  0  0  0  0  0  0  0  0
  140.5973   68.5475  229.5591 H   0  0  0  0  0  0  0  0  0  0  0  0
  141.3914   67.0972  228.8573 H   0  0  0  0  0  0  0  0  0  0  0  0
  142.2458   68.6773  228.8573 H   0  0  0  0  0  0  0  0  0  0  0  0
  139.6111   66.6372  227.2817 H   0  0  0  0  0  0  0  0  0  0  0  0
  138.6197   67.1483  225.0865 H   0  0  0  0  0  0  0  0  0  0  0  0
  141.5855   70.4380  227.2622 H   0  0  0  0  0  0  0  0  0  0  0  0
  140.1305   72.0858  225.1924 H   0  0  0  0  0  0  0  0  0  0  0  0
  141.5459   71.4248  224.4183 H   0  0  0  0  0  0  0  0  0  0  0  0
  138.6659   70.0893  221.1309 H   0  0  0  0  0  0  0  0  0  0  0  0
  138.2844   71.5040  219.1448 H   0  0  0  0  0  0  0  0  0  0  0  0
  138.8444   73.9019  219.2617 H   0  0  0  0  0  0  0  0  0  0  0  0
  139.0540   75.5500  223.3790 H   0  0  0  0  0  0  0  0  0  0  0  0
  137.9212   78.0547  223.1613 H   0  0  0  0  0  0  0  0  0  0  0  0
  138.5989   80.4276  223.4022 H   0  0  0  0  0  0  0  0  0  0  0  0
  140.9848   82.1822  223.2595 H   0  0  0  0  0  0  0  0  0  0  0  0
  143.7340   79.1220  222.3250 H   0  0  0  0  0  0  0  0  0  0  0  0
  141.9405   76.9295  222.3002 H   0  0  0  0  0  0  0  0  0  0  0  0
  140.1437   73.4563  223.2892 H   0  0  0  0  0  0  0  0  0  0  0  0
  1  2  1  0
  2  3  2  0
  3  4  1  0
  4  5  2  0
  5  6  1  0
  6  7  2  0
  6  8  1  0
  8  9  1  0
  9 10  1  0
 10 11  2  0
 11 12  1  0
 12 13  2  0
 13 14  1  0
 14 15  1  0
 15 16  2  0
 15 17  1  0
 17 18  1  0
 18 19  2  0
 19 20  1  0
 20 21  2  0
 21 22  1  0
 22 23  2  0
 23 24  1  0
 24 25  1  0
 25 26  2  0
 14 27  2  0
  9 28  2  0
  7  2  1  0
 27 10  1  0
 28  5  1  0
 26 18  1  0
 25 21  1  0
  1 29  1  0
  1 30  1  0
  1 31  1  0
  3 32  1  0
  4 33  1  0
  7 34  1  0
  8 35  1  0
  8 36  1  0
 11 37  1  0
 12 38  1  0
 13 39  1  0
 17 40  1  0
 19 41  1  0
 20 42  1  0
 22 43  1  0
 24 44  1  0
 26 45  1  0
 27 46  1  0
M  END
>  <smiles>  (14) 
Cc1ccc2c(c1)CC(c1cccc(C(=O)Nc3ccc4cn[nH]c4c3)c1)=N2

>  <score_type>  (14) 
oracle

>  <origin>  (14) 
autodockgpu

>  <m_score__min__energy>  (14) 
-9.4399999999999995

>  <m_primary>  (14) 
energy

>  <rmsd>  (14) 
7.6131544787221035

>  <m_score__min__rmsd>  (14) 
7.6131544787221035

>  <meeko>  (14) 
{"free_energy": -9.36, "intermolecular_energy": -10.26, "internal_energy": -0.68, "cluster_size": 50, "cluster_id": 1, "rank_in_cluster": 21}

>  <energy>  (14) 
-9.37

>  <cluster_rmsd>  (14) 
0.14

>  <cluster>  (14) 
1

$$$$

     RDKit          3D

 46 50  0  0  0  0  0  0  0  0999 V2000
  141.2280   68.2200  228.8590 C   0  0  0  0  0  0  0  0  0  0  0  0
  140.6630   68.5440  227.5220 C   0  0  0  0  0  0  0  0  0  0  0  0
  139.7600   67.6850  226.9070 C   0  0  0  0  0  0  0  0  0  0  0  0
  139.2270   67.9770  225.6630 C   0  0  0  0  0  0  0  0  0  0  0  0
  139.5710   69.1280  224.9820 C   0  0  0  0  0  0  0  0  0  0  0  0
  140.4680   69.9840  225.5900 C   0  0  0  0  0  0  0  0  0  0  0  0
  141.0030   69.6930  226.8380 C   0  0  0  0  0  0  0  0  0  0  0  0
  140.6940   71.1480  224.6930 C   0  0  0  0  0  0  0  0  0  0  0  0
  139.8180   70.8200  223.5390 C   0  0  0  0  0  0  0  0  0  0  0  0
  139.6650   71.6540  222.3510 C   0  0  0  0  0  0  0  0  0  0  0  0
  139.2610   71.1030  221.1370 C   0  0  0  0  0  0  0  0  0  0  0  0
  139.1070   71.8600  220.0050 C   0  0  0  0  0  0  0  0  0  0  0  0
  139.3660   73.2050  220.0920 C   0  0  0  0  0  0  0  0  0  0  0  0
  139.7630   73.8100  221.2400 C   0  0  0  0  0  0  0  0  0  0  0  0
  140.0470   75.2230  221.3810 C   0  0  0  0  0  0  0  0  0  0  0  0
  140.6200   75.8870  220.4740 O   0  0  0  0  0  0  0  0  0  0  0  0
  139.6870   75.9340  222.5580 N   0  0  0  0  0  0  0  0  0  0  0  0
  139.9570   77.3350  222.7210 C   0  0  0  0  0  0  0  0  0  0  0  0
  139.0060   78.2570  223.0300 C   0  0  0  0  0  0  0  0  0  0  0  0
  139.3150   79.5960  223.1760 C   0  0  0  0  0  0  0  0  0  0  0  0
  140.6250   79.9940  223.0000 C   0  0  0  0  0  0  0  0  0  0  0  0
  141.2890   81.2160  223.0640 C   0  0  0  0  0  0  0  0  0  0  0  0
  142.6000   80.9820  222.7930 N   0  0  0  0  0  0  0  0  0  0  0  0
  142.7910   79.6920  222.5650 N   0  0  0  0  0  0  0  0  0  0  0  0
  141.6160   79.0710  222.6830 C   0  0  0  0  0  0  0  0  0  0  0  0
  141.2600   77.7390  222.5460 C   0  0  0  0  0  0  0  0  0  0  0  0
  139.9060   73.0000  222.3690 C   0  0  0  0  0  0  0  0  0  0  0  0
  139.2100   69.6980  223.7280 N   0  0  0  0  0  0  0  0  0  0  0  0
  140.5585   68.6039  229.6428 H   0  0  0  0  0  0  0  0  0  0  0  0
  141.3249   67.1291  228.9615 H   0  0  0  0  0  0  0  0  0  0  0  0
  142.2185   68.6873  228.9615 H   0  0  0  0  0  0  0  0  0  0  0  0
  139.4635   66.7568  227.4175 H   0  0  0  0  0  0  0  0  0  0  0  0
  138.5129   67.2758  225.2065 H   0  0  0  0  0  0  0  0  0  0  0  0
  141.7160   70.3964  227.2928 H   0  0  0  0  0  0  0  0  0  0  0  0
  140.3873   72.0888  225.1734 H   0  0  0  0  0  0  0  0  0  0  0  0
  141.7487   71.3014  224.4210 H   0  0  0  0  0  0  0  0  0  0  0  0
  139.0586   70.0230  221.0852 H   0  0  0  0  0  0  0  0  0  0  0  0
  138.7860   71.4041  219.0568 H   0  0  0  0  0  0  0  0  0  0  0  0
  139.2462   73.8214  219.1889 H   0  0  0  0  0  0  0  0  0  0  0  0
  139.2090   75.4780  223.3650 H   0  0  0  0  0  0  0  0  0  0  0  0
  137.9651   77.9287  223.1671 H   0  0  0  0  0  0  0  0  0  0  0  0
  138.5340   80.3288  223.4270 H   0  0  0  0  0  0  0  0  0  0  0  0
  140.8356   82.1919  223.2921 H   0  0  0  0  0  0  0  0  0  0  0  0
  143.7210   79.2680  222.3330 H   0  0  0  0  0  0  0  0  0  0  0  0
  142.0297   76.9947  222.2939 H   0  0  0  0  0  0  0  0  0  0  0  0
  140.2263   73.4648  223.3131 H   0  0  0  0  0  0  0  0  0  0  0  0
  1  2  1  0
  2  3  2  0
  3  4  1  0
  4  5  2  0
  5  6  1  0
  6  7  2  0
  6  8  1  0
  8  9  1  0
  9 10  1  0
 10 11  2  0
 11 12  1  0
 12 13  2  0
 13 14  1  0
 14 15  1  0
 15 16  2  0
 15 17  1  0
 17 18  1  0
 18 19  2  0
 19 20  1  0
 20 21  2  0
 21 22  1  0
 22 23  2  0
 23 24  1  0
 24 25  1  0
 25 26  2  0
 14 27  2  0
  9 28  2  0
  7  2  1  0
 27 10  1  0
 28  5  1  0
 26 18  1  0
 25 21  1  0
  1 29  1  0
  1 30  1  0
  1 31  1  0
  3 32  1  0
  4 33  1  0
  7 34  1  0
  8 35  1  0
  8 36  1  0
 11 37  1  0
 12 38  1  0
 13 39  1  0
 17 40  1  0
 19 41  1  0
 20 42  1  0
 22 43  1  0
 24 44  1  0
 26 45  1  0
 27 46  1  0
M  END
>  <smiles>  (15) 
Cc1ccc2c(c1)CC(c1cccc(C(=O)Nc3ccc4cn[nH]c4c3)c1)=N2

>  <score_type>  (15) 
oracle

>  <origin>  (15) 
autodockgpu

>  <m_score__min__energy>  (15) 
-9.4399999999999995

>  <m_primary>  (15) 
energy

>  <rmsd>  (15) 
7.637043236792044

>  <m_score__min__rmsd>  (15) 
7.637043236792044

>  <meeko>  (15) 
{"free_energy": -9.36, "intermolecular_energy": -10.26, "internal_energy": -0.68, "cluster_size": 50, "cluster_id": 1, "rank_in_cluster": 18}

>  <energy>  (15) 
-9.37

>  <cluster_rmsd>  (15) 
0.16

>  <cluster>  (15) 
1

$$$$

     RDKit          3D

 46 50  0  0  0  0  0  0  0  0999 V2000
  141.1940   68.2160  228.8680 C   0  0  0  0  0  0  0  0  0  0  0  0
  140.6460   68.5430  227.5250 C   0  0  0  0  0  0  0  0  0  0  0  0
  139.7580   67.6800  226.8920 C   0  0  0  0  0  0  0  0  0  0  0  0
  139.2410   67.9740  225.6420 C   0  0  0  0  0  0  0  0  0  0  0  0
  139.5860   69.1310  224.9720 C   0  0  0  0  0  0  0  0  0  0  0  0
  140.4670   69.9910  225.5970 C   0  0  0  0  0  0  0  0  0  0  0  0
  140.9860   69.6980  226.8520 C   0  0  0  0  0  0  0  0  0  0  0  0
  140.6970   71.1610  224.7100 C   0  0  0  0  0  0  0  0  0  0  0  0
  139.8410   70.8330  223.5410 C   0  0  0  0  0  0  0  0  0  0  0  0
  139.6980   71.6710  222.3550 C   0  0  0  0  0  0  0  0  0  0  0  0
  139.2990   71.1270  221.1370 C   0  0  0  0  0  0  0  0  0  0  0  0
  139.1550   71.8880  220.0070 C   0  0  0  0  0  0  0  0  0  0  0  0
  139.4190   73.2320  220.1000 C   0  0  0  0  0  0  0  0  0  0  0  0
  139.8130   73.8300  221.2530 C   0  0  0  0  0  0  0  0  0  0  0  0
  140.1020   75.2420  221.4000 C   0  0  0  0  0  0  0  0  0  0  0  0
  140.7230   75.8960  220.5180 O   0  0  0  0  0  0  0  0  0  0  0  0
  139.6950   75.9620  222.5560 N   0  0  0  0  0  0  0  0  0  0  0  0
  139.9690   77.3610  222.7240 C   0  0  0  0  0  0  0  0  0  0  0  0
  139.0200   78.2860  223.0310 C   0  0  0  0  0  0  0  0  0  0  0  0
  139.3330   79.6230  223.1830 C   0  0  0  0  0  0  0  0  0  0  0  0
  140.6460   80.0160  223.0160 C   0  0  0  0  0  0  0  0  0  0  0  0
  141.3150   81.2360  223.0880 C   0  0  0  0  0  0  0  0  0  0  0  0
  142.6260   80.9970  222.8240 N   0  0  0  0  0  0  0  0  0  0  0  0
  142.8130   79.7070  222.5930 N   0  0  0  0  0  0  0  0  0  0  0  0
  141.6350   79.0910  222.7020 C   0  0  0  0  0  0  0  0  0  0  0  0
  141.2750   77.7600  222.5590 C   0  0  0  0  0  0  0  0  0  0  0  0
  139.9450   73.0160  222.3800 C   0  0  0  0  0  0  0  0  0  0  0  0
  139.2390   69.7040  223.7160 N   0  0  0  0  0  0  0  0  0  0  0  0
  140.5247   68.6154  229.6443 H   0  0  0  0  0  0  0  0  0  0  0  0
  141.2711   67.1241  228.9766 H   0  0  0  0  0  0  0  0  0  0  0  0
  142.1916   68.6666  228.9766 H   0  0  0  0  0  0  0  0  0  0  0  0
  139.4611   66.7471  227.3936 H   0  0  0  0  0  0  0  0  0  0  0  0
  138.5391   67.2696  225.1716 H   0  0  0  0  0  0  0  0  0  0  0  0
  141.6860   70.4052  227.3209 H   0  0  0  0  0  0  0  0  0  0  0  0
  140.3759   72.0968  225.1909 H   0  0  0  0  0  0  0  0  0  0  0  0
  141.7545   71.3237  224.4545 H   0  0  0  0  0  0  0  0  0  0  0  0
  139.0921   70.0481  221.0801 H   0  0  0  0  0  0  0  0  0  0  0  0
  138.8379   71.4365  219.0554 H   0  0  0  0  0  0  0  0  0  0  0  0
  139.3061   73.8526  219.1989 H   0  0  0  0  0  0  0  0  0  0  0  0
  139.1750   75.5140  223.3410 H   0  0  0  0  0  0  0  0  0  0  0  0
  137.9772   77.9613  223.1615 H   0  0  0  0  0  0  0  0  0  0  0  0
  138.5534   80.3582  223.4316 H   0  0  0  0  0  0  0  0  0  0  0  0
  140.8645   82.2131  223.3166 H   0  0  0  0  0  0  0  0  0  0  0  0
  143.7430   79.2800  222.3660 H   0  0  0  0  0  0  0  0  0  0  0  0
  142.0436   77.0133  222.3104 H   0  0  0  0  0  0  0  0  0  0  0  0
  140.2610   73.4760  223.3279 H   0  0  0  0  0  0  0  0  0  0  0  0
  1  2  1  0
  2  3  2  0
  3  4  1  0
  4  5  2  0
  5  6  1  0
  6  7  2  0
  6  8  1  0
  8  9  1  0
  9 10  1  0
 10 11  2  0
 11 12  1  0
 12 13  2  0
 13 14  1  0
 14 15  1  0
 15 16  2  0
 15 17  1  0
 17 18  1  0
 18 19  2  0
 19 20  1  0
 20 21  2  0
 21 22  1  0
 22 23  2  0
 23 24  1  0
 24 25  1  0
 25 26  2  0
 14 27  2  0
  9 28  2  0
  7  2  1  0
 27 10  1  0
 28  5  1  0
 26 18  1  0
 25 21  1  0
  1 29  1  0
  1 30  1  0
  1 31  1  0
  3 32  1  0
  4 33  1  0
  7 34  1  0
  8 35  1  0
  8 36  1  0
 11 37  1  0
 12 38  1  0
 13 39  1  0
 17 40  1  0
 19 41  1  0
 20 42  1  0
 22 43  1  0
 24 44  1  0
 26 45  1  0
 27 46  1  0
M  END
>  <smiles>  (16) 
Cc1ccc2c(c1)CC(c1cccc(C(=O)Nc3ccc4cn[nH]c4c3)c1)=N2

>  <score_type>  (16) 
oracle

>  <origin>  (16) 
autodockgpu

>  <m_score__min__energy>  (16) 
-9.4399999999999995

>  <m_primary>  (16) 
energy

>  <rmsd>  (16) 
7.633727066621818

>  <m_score__min__rmsd>  (16) 
7.633727066621818

>  <meeko>  (16) 
{"free_energy": -9.37, "intermolecular_energy": -10.27, "internal_energy": -0.66, "cluster_size": 50, "cluster_id": 1, "rank_in_cluster": 13}

>  <energy>  (16) 
-9.37

>  <cluster_rmsd>  (16) 
0.12

>  <cluster>  (16) 
1

$$$$

     RDKit          3D

 46 50  0  0  0  0  0  0  0  0999 V2000
  141.3160   68.2340  228.8400 C   0  0  0  0  0  0  0  0  0  0  0  0
  140.7080   68.5580  227.5220 C   0  0  0  0  0  0  0  0  0  0  0  0
  139.7860   67.6990  226.9360 C   0  0  0  0  0  0  0  0  0  0  0  0
  139.2130   67.9910  225.7100 C   0  0  0  0  0  0  0  0  0  0  0  0
  139.5350   69.1430  225.0180 C   0  0  0  0  0  0  0  0  0  0  0  0
  140.4510   69.9980  225.5980 C   0  0  0  0  0  0  0  0  0  0  0  0
  141.0250   69.7080  226.8280 C   0  0  0  0  0  0  0  0  0  0  0  0
  140.6480   71.1630  224.6940 C   0  0  0  0  0  0  0  0  0  0  0  0
  139.7360   70.8350  223.5680 C   0  0  0  0  0  0  0  0  0  0  0  0
  139.5440   71.6690  222.3860 C   0  0  0  0  0  0  0  0  0  0  0  0
  139.0810   71.1230  221.1920 C   0  0  0  0  0  0  0  0  0  0  0  0
  138.8900   71.8790  220.0660 C   0  0  0  0  0  0  0  0  0  0  0  0
  139.1720   73.2210  220.1380 C   0  0  0  0  0  0  0  0  0  0  0  0
  139.6270   73.8210  221.2670 C   0  0  0  0  0  0  0  0  0  0  0  0
  139.9380   75.2310  221.3920 C   0  0  0  0  0  0  0  0  0  0  0  0
  140.4910   75.8810  220.4650 O   0  0  0  0  0  0  0  0  0  0  0  0
  139.6290   75.9520  222.5780 N   0  0  0  0  0  0  0  0  0  0  0  0
  139.9260   77.3490  222.7250 C   0  0  0  0  0  0  0  0  0  0  0  0
  138.9930   78.2930  223.0240 C   0  0  0  0  0  0  0  0  0  0  0  0
  139.3280   79.6260  223.1560 C   0  0  0  0  0  0  0  0  0  0  0  0
  140.6450   79.9970  222.9770 C   0  0  0  0  0  0  0  0  0  0  0  0
  141.3340   81.2060  223.0280 C   0  0  0  0  0  0  0  0  0  0  0  0
  142.6400   80.9440  222.7610 N   0  0  0  0  0  0  0  0  0  0  0  0
  142.8060   79.6470  222.5470 N   0  0  0  0  0  0  0  0  0  0  0  0
  141.6180   79.0510  222.6710 C   0  0  0  0  0  0  0  0  0  0  0  0
  141.2370   77.7250  222.5480 C   0  0  0  0  0  0  0  0  0  0  0  0
  139.8060   73.0110  222.3910 C   0  0  0  0  0  0  0  0  0  0  0  0
  139.1340   69.7120  223.7770 N   0  0  0  0  0  0  0  0  0  0  0  0
  140.6548   68.5864  229.6454 H   0  0  0  0  0  0  0  0  0  0  0  0
  141.4491   67.1454  228.9247 H   0  0  0  0  0  0  0  0  0  0  0  0
  142.2938   68.7306  228.9247 H   0  0  0  0  0  0  0  0  0  0  0  0
  139.5065   66.7706  227.4555 H   0  0  0  0  0  0  0  0  0  0  0  0
  138.4846   67.2898  225.2767 H   0  0  0  0  0  0  0  0  0  0  0  0
  141.7508   70.4124  227.2605 H   0  0  0  0  0  0  0  0  0  0  0  0
  140.3563   72.1036  225.1842 H   0  0  0  0  0  0  0  0  0  0  0  0
  141.6935   71.3168  224.3887 H   0  0  0  0  0  0  0  0  0  0  0  0
  138.8607   70.0460  221.1515 H   0  0  0  0  0  0  0  0  0  0  0  0
  138.5224   71.4256  219.1336 H   0  0  0  0  0  0  0  0  0  0  0  0
  139.0223   73.8378  219.2396 H   0  0  0  0  0  0  0  0  0  0  0  0
  139.1700   75.5060  223.4020 H   0  0  0  0  0  0  0  0  0  0  0  0
  137.9458   77.9867  223.1641 H   0  0  0  0  0  0  0  0  0  0  0  0
  138.5612   80.3764  223.3987 H   0  0  0  0  0  0  0  0  0  0  0  0
  140.8999   82.1932  223.2449 H   0  0  0  0  0  0  0  0  0  0  0  0
  143.7270   79.2020  222.3220 H   0  0  0  0  0  0  0  0  0  0  0  0
  141.9925   76.9631  222.3057 H   0  0  0  0  0  0  0  0  0  0  0  0
  140.1733   73.4724  223.3195 H   0  0  0  0  0  0  0  0  0  0  0  0
  1  2  1  0
  2  3  2  0
  3  4  1  0
  4  5  2  0
  5  6  1  0
  6  7  2  0
  6  8  1  0
  8  9  1  0
  9 10  1  0
 10 11  2  0
 11 12  1  0
 12 13  2  0
 13 14  1  0
 14 15  1  0
 15 16  2  0
 15 17  1  0
 17 18  1  0
 18 19  2  0
 19 20  1  0
 20 21  2  0
 21 22  1  0
 22 23  2  0
 23 24  1  0
 24 25  1  0
 25 26  2  0
 14 27  2  0
  9 28  2  0
  7  2  1  0
 27 10  1  0
 28  5  1  0
 26 18  1  0
 25 21  1  0
  1 29  1  0
  1 30  1  0
  1 31  1  0
  3 32  1  0
  4 33  1  0
  7 34  1  0
  8 35  1  0
  8 36  1  0
 11 37  1  0
 12 38  1  0
 13 39  1  0
 17 40  1  0
 19 41  1  0
 20 42  1  0
 22 43  1  0
 24 44  1  0
 26 45  1  0
 27 46  1  0
M  END
>  <smiles>  (17) 
Cc1ccc2c(c1)CC(c1cccc(C(=O)Nc3ccc4cn[nH]c4c3)c1)=N2

>  <score_type>  (17) 
oracle

>  <origin>  (17) 
autodockgpu

>  <m_score__min__energy>  (17) 
-9.4399999999999995

>  <m_primary>  (17) 
energy

>  <rmsd>  (17) 
7.625690353012312

>  <m_score__min__rmsd>  (17) 
7.625690353012312

>  <meeko>  (17) 
{"free_energy": -9.34, "intermolecular_energy": -10.23, "internal_energy": -0.69, "cluster_size": 50, "cluster_id": 1, "rank_in_cluster": 26}

>  <energy>  (17) 
-9.37

>  <cluster_rmsd>  (17) 
0.16

>  <cluster>  (17) 
1

$$$$

     RDKit          3D

 46 50  0  0  0  0  0  0  0  0999 V2000
  141.3440   68.3670  228.7410 C   0  0  0  0  0  0  0  0  0  0  0  0
  140.7160   68.6410  227.4210 C   0  0  0  0  0  0  0  0  0  0  0  0
  139.9130   67.6870  226.8070 C   0  0  0  0  0  0  0  0  0  0  0  0
  139.3230   67.9320  225.5780 C   0  0  0  0  0  0  0  0  0  0  0  0
  139.5070   69.1280  224.9130 C   0  0  0  0  0  0  0  0  0  0  0  0
  140.3050   70.0780  225.5210 C   0  0  0  0  0  0  0  0  0  0  0  0
  140.8970   69.8350  226.7530 C   0  0  0  0  0  0  0  0  0  0  0  0
  140.3670   71.2760  224.6420 C   0  0  0  0  0  0  0  0  0  0  0  0
  139.5140   70.8610  223.4980 C   0  0  0  0  0  0  0  0  0  0  0  0
  139.2340   71.6890  222.3300 C   0  0  0  0  0  0  0  0  0  0  0  0
  138.6980   71.1340  221.1710 C   0  0  0  0  0  0  0  0  0  0  0  0
  138.4230   71.8850  220.0580 C   0  0  0  0  0  0  0  0  0  0  0  0
  138.6950   73.2300  220.1080 C   0  0  0  0  0  0  0  0  0  0  0  0
  139.2180   73.8390  221.2020 C   0  0  0  0  0  0  0  0  0  0  0  0
  139.5210   75.2520  221.3030 C   0  0  0  0  0  0  0  0  0  0  0  0
  139.7160   75.9710  220.2860 O   0  0  0  0  0  0  0  0  0  0  0  0
  139.6120   75.8990  222.5650 N   0  0  0  0  0  0  0  0  0  0  0  0
  139.9100   77.2980  222.6900 C   0  0  0  0  0  0  0  0  0  0  0  0
  138.9750   78.2490  222.9590 C   0  0  0  0  0  0  0  0  0  0  0  0
  139.3110   79.5840  223.0700 C   0  0  0  0  0  0  0  0  0  0  0  0
  140.6310   79.9490  222.9010 C   0  0  0  0  0  0  0  0  0  0  0  0
  141.3220   81.1580  222.9400 C   0  0  0  0  0  0  0  0  0  0  0  0
  142.6300   80.8880  222.6950 N   0  0  0  0  0  0  0  0  0  0  0  0
  142.7970   79.5880  222.5070 N   0  0  0  0  0  0  0  0  0  0  0  0
  141.6060   78.9960  222.6260 C   0  0  0  0  0  0  0  0  0  0  0  0
  141.2240   77.6680  222.5230 C   0  0  0  0  0  0  0  0  0  0  0  0
  139.4810   73.0340  222.3140 C   0  0  0  0  0  0  0  0  0  0  0  0
  139.0530   69.6690  223.6780 N   0  0  0  0  0  0  0  0  0  0  0  0
  140.6552   68.6675  229.5442 H   0  0  0  0  0  0  0  0  0  0  0  0
  141.5615   67.2922  228.8275 H   0  0  0  0  0  0  0  0  0  0  0  0
  142.2798   68.9386  228.8275 H   0  0  0  0  0  0  0  0  0  0  0  0
  139.7432   66.7212  227.3055 H   0  0  0  0  0  0  0  0  0  0  0  0
  138.6927   67.1551  225.1208 H   0  0  0  0  0  0  0  0  0  0  0  0
  141.5263   70.6139  227.2083 H   0  0  0  0  0  0  0  0  0  0  0  0
  139.9567   72.1636  225.1458 H   0  0  0  0  0  0  0  0  0  0  0  0
  141.3889   71.5632  224.3534 H   0  0  0  0  0  0  0  0  0  0  0  0
  138.4878   70.0545  221.1478 H   0  0  0  0  0  0  0  0  0  0  0  0
  137.9980   71.4250  219.1537 H   0  0  0  0  0  0  0  0  0  0  0  0
  138.4789   73.8422  219.2200 H   0  0  0  0  0  0  0  0  0  0  0  0
  139.4660   75.3940  223.4660 H   0  0  0  0  0  0  0  0  0  0  0  0
  137.9255   77.9472  223.0913 H   0  0  0  0  0  0  0  0  0  0  0  0
  138.5427   80.3403  223.2885 H   0  0  0  0  0  0  0  0  0  0  0  0
  140.8876   82.1498  223.1338 H   0  0  0  0  0  0  0  0  0  0  0  0
  143.7200   79.1370  222.3020 H   0  0  0  0  0  0  0  0  0  0  0  0
  141.9810   76.9003  222.3050 H   0  0  0  0  0  0  0  0  0  0  0  0
  139.9047   73.5023  223.2146 H   0  0  0  0  0  0  0  0  0  0  0  0
  1  2  1  0
  2  3  2  0
  3  4  1  0
  4  5  2  0
  5  6  1  0
  6  7  2  0
  6  8  1  0
  8  9  1  0
  9 10  1  0
 10 11  2  0
 11 12  1  0
 12 13  2  0
 13 14  1  0
 14 15  1  0
 15 16  2  0
 15 17  1  0
 17 18  1  0
 18 19  2  0
 19 20  1  0
 20 21  2  0
 21 22  1  0
 22 23  2  0
 23 24  1  0
 24 25  1  0
 25 26  2  0
 14 27  2  0
  9 28  2  0
  7  2  1  0
 27 10  1  0
 28  5  1  0
 26 18  1  0
 25 21  1  0
  1 29  1  0
  1 30  1  0
  1 31  1  0
  3 32  1  0
  4 33  1  0
  7 34  1  0
  8 35  1  0
  8 36  1  0
 11 37  1  0
 12 38  1  0
 13 39  1  0
 17 40  1  0
 19 41  1  0
 20 42  1  0
 22 43  1  0
 24 44  1  0
 26 45  1  0
 27 46  1  0
M  END
>  <smiles>  (18) 
Cc1ccc2c(c1)CC(c1cccc(C(=O)Nc3ccc4cn[nH]c4c3)c1)=N2

>  <score_type>  (18) 
oracle

>  <origin>  (18) 
autodockgpu

>  <m_score__min__energy>  (18) 
-9.4399999999999995

>  <m_primary>  (18) 
energy

>  <rmsd>  (18) 
7.59520097343533

>  <m_score__min__rmsd>  (18) 
7.59520097343533

>  <meeko>  (18) 
{"free_energy": -9.12, "intermolecular_energy": -10.01, "internal_energy": -0.73, "cluster_size": 50, "cluster_id": 1, "rank_in_cluster": 42}

>  <energy>  (18) 
-9.36

>  <cluster_rmsd>  (18) 
0.15

>  <cluster>  (18) 
1

$$$$

     RDKit          3D

 46 50  0  0  0  0  0  0  0  0999 V2000
  140.6330   68.4340  228.8070 C   0  0  0  0  0  0  0  0  0  0  0  0
  140.2950   68.7880  227.4030 C   0  0  0  0  0  0  0  0  0  0  0  0
  139.5470   67.9220  226.6140 C   0  0  0  0  0  0  0  0  0  0  0  0
  139.2250   68.2410  225.3060 C   0  0  0  0  0  0  0  0  0  0  0  0
  139.6330   69.4290  224.7310 C   0  0  0  0  0  0  0  0  0  0  0  0
  140.3760   70.2920  225.5130 C   0  0  0  0  0  0  0  0  0  0  0  0
  140.6990   69.9740  226.8250 C   0  0  0  0  0  0  0  0  0  0  0  0
  140.7040   71.4970  224.7050 C   0  0  0  0  0  0  0  0  0  0  0  0
  140.0550   71.1830  223.4060 C   0  0  0  0  0  0  0  0  0  0  0  0
  140.0740   72.0550  222.2360 C   0  0  0  0  0  0  0  0  0  0  0  0
  140.1120   71.5250  220.9490 C   0  0  0  0  0  0  0  0  0  0  0  0
  140.1300   72.3180  219.8310 C   0  0  0  0  0  0  0  0  0  0  0  0
  140.1100   73.6790  220.0090 C   0  0  0  0  0  0  0  0  0  0  0  0
  140.0730   74.2650  221.2330 C   0  0  0  0  0  0  0  0  0  0  0  0
  140.0500   75.6930  221.4700 C   0  0  0  0  0  0  0  0  0  0  0  0
  138.9810   76.3180  221.7090 O   0  0  0  0  0  0  0  0  0  0  0  0
  141.2450   76.4650  221.4460 N   0  0  0  0  0  0  0  0  0  0  0  0
  141.2480   77.8820  221.6790 C   0  0  0  0  0  0  0  0  0  0  0  0
  140.7230   78.7910  220.8140 C   0  0  0  0  0  0  0  0  0  0  0  0
  140.7490   80.1450  221.0820 C   0  0  0  0  0  0  0  0  0  0  0  0
  141.3270   80.5740  222.2610 C   0  0  0  0  0  0  0  0  0  0  0  0
  141.5300   81.8180  222.8510 C   0  0  0  0  0  0  0  0  0  0  0  0
  142.1630   81.6100  224.0350 N   0  0  0  0  0  0  0  0  0  0  0  0
  142.3650   80.3140  224.2170 N   0  0  0  0  0  0  0  0  0  0  0  0
  141.8710   79.6640  223.1620 C   0  0  0  0  0  0  0  0  0  0  0  0
  141.8220   78.3150  222.8510 C   0  0  0  0  0  0  0  0  0  0  0  0
  140.0550   73.4180  222.3440 C   0  0  0  0  0  0  0  0  0  0  0  0
  139.4710   70.0330  223.4520 N   0  0  0  0  0  0  0  0  0  0  0  0
  140.0401   69.0550  229.4946 H   0  0  0  0  0  0  0  0  0  0  0  0
  140.4049   67.3723  228.9825 H   0  0  0  0  0  0  0  0  0  0  0  0
  141.7041   68.6128  228.9825 H   0  0  0  0  0  0  0  0  0  0  0  0
  139.2047   66.9658  227.0366 H   0  0  0  0  0  0  0  0  0  0  0  0
  138.6306   67.5322  224.7108 H   0  0  0  0  0  0  0  0  0  0  0  0
  141.2919   70.6853  227.4188 H   0  0  0  0  0  0  0  0  0  0  0  0
  140.2798   72.4071  225.1542 H   0  0  0  0  0  0  0  0  0  0  0  0
  141.7826   71.6977  224.6252 H   0  0  0  0  0  0  0  0  0  0  0  0
  140.1281   70.4321  220.8251 H   0  0  0  0  0  0  0  0  0  0  0  0
  140.1595   71.8778  218.8234 H   0  0  0  0  0  0  0  0  0  0  0  0
  140.1246   74.3247  219.1186 H   0  0  0  0  0  0  0  0  0  0  0  0
  142.1800   76.0430  221.2590 H   0  0  0  0  0  0  0  0  0  0  0  0
  140.2663   78.4384  219.8775 H   0  0  0  0  0  0  0  0  0  0  0  0
  140.3187   80.8667  220.3720 H   0  0  0  0  0  0  0  0  0  0  0  0
  141.2323   82.7917  222.4348 H   0  0  0  0  0  0  0  0  0  0  0  0
  142.8370   79.9050  225.0590 H   0  0  0  0  0  0  0  0  0  0  0  0
  142.2478   77.5807  223.5507 H   0  0  0  0  0  0  0  0  0  0  0  0
  140.0242   73.8665  223.3479 H   0  0  0  0  0  0  0  0  0  0  0  0
  1  2  1  0
  2  3  2  0
  3  4  1  0
  4  5  2  0
  5  6  1  0
  6  7  2  0
  6  8  1  0
  8  9  1  0
  9 10  1  0
 10 11  2  0
 11 12  1  0
 12 13  2  0
 13 14  1  0
 14 15  1  0
 15 16  2  0
 15 17  1  0
 17 18  1  0
 18 19  2  0
 19 20  1  0
 20 21  2  0
 21 22  1  0
 22 23  2  0
 23 24  1  0
 24 25  1  0
 25 26  2  0
 14 27  2  0
  9 28  2  0
  7  2  1  0
 27 10  1  0
 28  5  1  0
 26 18  1  0
 25 21  1  0
  1 29  1  0
  1 30  1  0
  1 31  1  0
  3 32  1  0
  4 33  1  0
  7 34  1  0
  8 35  1  0
  8 36  1  0
 11 37  1  0
 12 38  1  0
 13 39  1  0
 17 40  1  0
 19 41  1  0
 20 42  1  0
 22 43  1  0
 24 44  1  0
 26 45  1  0
 27 46  1  0
M  END
>  <smiles>  (19) 
Cc1ccc2c(c1)CC(c1cccc(C(=O)Nc3ccc4cn[nH]c4c3)c1)=N2

>  <score_type>  (19) 
oracle

>  <origin>  (19) 
autodockgpu

>  <m_score__min__energy>  (19) 
-9.4399999999999995

>  <m_primary>  (19) 
energy

>  <rmsd>  (19) 
7.272941182598468

>  <m_score__min__rmsd>  (19) 
7.272941182598468

>  <meeko>  (19) 
{"free_energy": -8.64, "intermolecular_energy": -9.54, "internal_energy": -0.71, "cluster_size": 50, "cluster_id": 1, "rank_in_cluster": 48}

>  <energy>  (19) 
-9.36

>  <cluster_rmsd>  (19) 
0.13

>  <cluster>  (19) 
1

$$$$

     RDKit          3D

 46 50  0  0  0  0  0  0  0  0999 V2000
  141.2020   68.1450  228.8370 C   0  0  0  0  0  0  0  0  0  0  0  0
  140.6390   68.4660  227.4990 C   0  0  0  0  0  0  0  0  0  0  0  0
  139.8260   67.5550  226.8340 C   0  0  0  0  0  0  0  0  0  0  0  0
  139.2970   67.8430  225.5880 C   0  0  0  0  0  0  0  0  0  0  0  0
  139.5540   69.0430  224.9540 C   0  0  0  0  0  0  0  0  0  0  0  0
  140.3610   69.9500  225.6110 C   0  0  0  0  0  0  0  0  0  0  0  0
  140.8930   69.6630  226.8610 C   0  0  0  0  0  0  0  0  0  0  0  0
  140.5050   71.1600  224.7590 C   0  0  0  0  0  0  0  0  0  0  0  0
  139.6850   70.7990  223.5730 C   0  0  0  0  0  0  0  0  0  0  0  0
  139.4850   71.6580  222.4100 C   0  0  0  0  0  0  0  0  0  0  0  0
  138.9700   71.1460  221.2220 C   0  0  0  0  0  0  0  0  0  0  0  0
  138.7700   71.9260  220.1140 C   0  0  0  0  0  0  0  0  0  0  0  0
  139.0970   73.2570  220.1990 C   0  0  0  0  0  0  0  0  0  0  0  0
  139.6030   73.8240  221.3230 C   0  0  0  0  0  0  0  0  0  0  0  0
  139.9620   75.2210  221.4600 C   0  0  0  0  0  0  0  0  0  0  0  0
  140.6710   75.8200  220.6060 O   0  0  0  0  0  0  0  0  0  0  0  0
  139.5250   75.9890  222.5740 N   0  0  0  0  0  0  0  0  0  0  0  0
  139.8660   77.3750  222.7320 C   0  0  0  0  0  0  0  0  0  0  0  0
  138.9630   78.3460  223.0360 C   0  0  0  0  0  0  0  0  0  0  0  0
  139.3410   79.6670  223.1780 C   0  0  0  0  0  0  0  0  0  0  0  0
  140.6700   79.9960  223.0030 C   0  0  0  0  0  0  0  0  0  0  0  0
  141.3960   81.1830  223.0640 C   0  0  0  0  0  0  0  0  0  0  0  0
  142.6930   80.8810  222.7950 N   0  0  0  0  0  0  0  0  0  0  0  0
  142.8180   79.5810  222.5720 N   0  0  0  0  0  0  0  0  0  0  0  0
  141.6120   79.0230  222.6900 C   0  0  0  0  0  0  0  0  0  0  0  0
  141.1890   77.7100  222.5570 C   0  0  0  0  0  0  0  0  0  0  0  0
  139.7890   72.9910  222.4280 C   0  0  0  0  0  0  0  0  0  0  0  0
  139.1720   69.6230  223.7110 N   0  0  0  0  0  0  0  0  0  0  0  0
  140.5300   68.5281  229.6191 H   0  0  0  0  0  0  0  0  0  0  0  0
  141.3014   67.0544  228.9410 H   0  0  0  0  0  0  0  0  0  0  0  0
  142.1911   68.6149  228.9410 H   0  0  0  0  0  0  0  0  0  0  0  0
  139.5992   66.5880  227.3067 H   0  0  0  0  0  0  0  0  0  0  0  0
  138.6570   67.0991  225.0910 H   0  0  0  0  0  0  0  0  0  0  0  0
  141.5331   70.4086  227.3552 H   0  0  0  0  0  0  0  0  0  0  0  0
  140.1081   72.0537  225.2628 H   0  0  0  0  0  0  0  0  0  0  0  0
  141.5482   71.4124  224.5180 H   0  0  0  0  0  0  0  0  0  0  0  0
  138.7147   70.0772  221.1715 H   0  0  0  0  0  0  0  0  0  0  0  0
  138.3607   71.5000  219.1861 H   0  0  0  0  0  0  0  0  0  0  0  0
  138.9415   73.8929  219.3150 H   0  0  0  0  0  0  0  0  0  0  0  0
  138.9340   75.5880  223.3340 H   0  0  0  0  0  0  0  0  0  0  0  0
  137.9062   78.0726  223.1720 H   0  0  0  0  0  0  0  0  0  0  0  0
  138.5987   80.4402  223.4252 H   0  0  0  0  0  0  0  0  0  0  0  0
  140.9932   82.1816  223.2887 H   0  0  0  0  0  0  0  0  0  0  0  0
  143.7250   79.1090  222.3430 H   0  0  0  0  0  0  0  0  0  0  0  0
  141.9197   76.9262  222.3086 H   0  0  0  0  0  0  0  0  0  0  0  0
  140.1975   73.4256  223.3523 H   0  0  0  0  0  0  0  0  0  0  0  0
  1  2  1  0
  2  3  2  0
  3  4  1  0
  4  5  2  0
  5  6  1  0
  6  7  2  0
  6  8  1  0
  8  9  1  0
  9 10  1  0
 10 11  2  0
 11 12  1  0
 12 13  2  0
 13 14  1  0
 14 15  1  0
 15 16  2  0
 15 17  1  0
 17 18  1  0
 18 19  2  0
 19 20  1  0
 20 21  2  0
 21 22  1  0
 22 23  2  0
 23 24  1  0
 24 25  1  0
 25 26  2  0
 14 27  2  0
  9 28  2  0
  7  2  1  0
 27 10  1  0
 28  5  1  0
 26 18  1  0
 25 21  1  0
  1 29  1  0
  1 30  1  0
  1 31  1  0
  3 32  1  0
  4 33  1  0
  7 34  1  0
  8 35  1  0
  8 36  1  0
 11 37  1  0
 12 38  1  0
 13 39  1  0
 17 40  1  0
 19 41  1  0
 20 42  1  0
 22 43  1  0
 24 44  1  0
 26 45  1  0
 27 46  1  0
M  END
>  <smiles>  (20) 
Cc1ccc2c(c1)CC(c1cccc(C(=O)Nc3ccc4cn[nH]c4c3)c1)=N2

>  <score_type>  (20) 
oracle

>  <origin>  (20) 
autodockgpu

>  <m_score__min__energy>  (20) 
-9.4399999999999995

>  <m_primary>  (20) 
energy

>  <rmsd>  (20) 
7.627810969217785

>  <m_score__min__rmsd>  (20) 
7.627810969217785

>  <meeko>  (20) 
{"free_energy": -9.41, "intermolecular_energy": -10.31, "internal_energy": -0.64, "cluster_size": 50, "cluster_id": 1, "rank_in_cluster": 6}

>  <energy>  (20) 
-9.36

>  <cluster_rmsd>  (20) 
0.11

>  <cluster>  (20) 
1

$$$$

     RDKit          3D

 46 50  0  0  0  0  0  0  0  0999 V2000
  140.8390   68.2050  228.6170 C   0  0  0  0  0  0  0  0  0  0  0  0
  140.4160   68.6060  227.2490 C   0  0  0  0  0  0  0  0  0  0  0  0
  139.6110   67.7700  226.4830 C   0  0  0  0  0  0  0  0  0  0  0  0
  139.2110   68.1330  225.2080 C   0  0  0  0  0  0  0  0  0  0  0  0
  139.5940   69.3340  224.6450 C   0  0  0  0  0  0  0  0  0  0  0  0
  140.3940   70.1670  225.4030 C   0  0  0  0  0  0  0  0  0  0  0  0
  140.7960   69.8050  226.6820 C   0  0  0  0  0  0  0  0  0  0  0  0
  140.6840   71.3930  224.6140 C   0  0  0  0  0  0  0  0  0  0  0  0
  139.9510   71.1240  223.3500 C   0  0  0  0  0  0  0  0  0  0  0  0
  139.9060   72.0320  222.2080 C   0  0  0  0  0  0  0  0  0  0  0  0
  139.7930   71.5430  220.9090 C   0  0  0  0  0  0  0  0  0  0  0  0
  139.7470   72.3690  219.8160 C   0  0  0  0  0  0  0  0  0  0  0  0
  139.8170   73.7230  220.0330 C   0  0  0  0  0  0  0  0  0  0  0  0
  139.9270   74.2700  221.2700 C   0  0  0  0  0  0  0  0  0  0  0  0
  140.0030   75.6900  221.5480 C   0  0  0  0  0  0  0  0  0  0  0  0
  138.9880   76.4360  221.5140 O   0  0  0  0  0  0  0  0  0  0  0  0
  141.2390   76.3130  221.8750 N   0  0  0  0  0  0  0  0  0  0  0  0
  141.3390   77.7170  222.1550 C   0  0  0  0  0  0  0  0  0  0  0  0
  141.4460   78.2330  223.4100 C   0  0  0  0  0  0  0  0  0  0  0  0
  141.5410   79.5930  223.6290 C   0  0  0  0  0  0  0  0  0  0  0  0
  141.5240   80.4400  222.5380 C   0  0  0  0  0  0  0  0  0  0  0  0
  141.5960   81.8210  222.3750 C   0  0  0  0  0  0  0  0  0  0  0  0
  141.5290   82.0780  221.0430 N   0  0  0  0  0  0  0  0  0  0  0  0
  141.4210   80.9440  220.3680 N   0  0  0  0  0  0  0  0  0  0  0  0
  141.4150   79.9380  221.2460 C   0  0  0  0  0  0  0  0  0  0  0  0
  141.3230   78.5670  221.0730 C   0  0  0  0  0  0  0  0  0  0  0  0
  139.9700   73.3900  222.3540 C   0  0  0  0  0  0  0  0  0  0  0  0
  139.3580   69.9780  223.3970 N   0  0  0  0  0  0  0  0  0  0  0  0
  140.2509   68.7625  229.3608 H   0  0  0  0  0  0  0  0  0  0  0  0
  140.6716   67.1261  228.7511 H   0  0  0  0  0  0  0  0  0  0  0  0
  141.9074   68.4297  228.7511 H   0  0  0  0  0  0  0  0  0  0  0  0
  139.2864   66.8039  226.8970 H   0  0  0  0  0  0  0  0  0  0  0  0
  138.5730   67.4483  224.6300 H   0  0  0  0  0  0  0  0  0  0  0  0
  141.4338   70.4918  227.2578 H   0  0  0  0  0  0  0  0  0  0  0  0
  140.2988   72.2926  225.1163 H   0  0  0  0  0  0  0  0  0  0  0  0
  141.7575   71.5873  224.4728 H   0  0  0  0  0  0  0  0  0  0  0  0
  139.7387   70.4553  220.7545 H   0  0  0  0  0  0  0  0  0  0  0  0
  139.6570   71.9606  218.7986 H   0  0  0  0  0  0  0  0  0  0  0  0
  139.7823   74.3958  219.1635 H   0  0  0  0  0  0  0  0  0  0  0  0
  142.1360   75.7840  221.9310 H   0  0  0  0  0  0  0  0  0  0  0  0
  141.4571   77.5492  224.2716 H   0  0  0  0  0  0  0  0  0  0  0  0
  141.6283   79.9932  224.6499 H   0  0  0  0  0  0  0  0  0  0  0  0
  141.6899   82.5671  223.1778 H   0  0  0  0  0  0  0  0  0  0  0  0
  141.3540   80.8850  219.3240 H   0  0  0  0  0  0  0  0  0  0  0  0
  141.2360   78.1523  220.0579 H   0  0  0  0  0  0  0  0  0  0  0  0
  140.0591   73.8072  223.3679 H   0  0  0  0  0  0  0  0  0  0  0  0
  1  2  1  0
  2  3  2  0
  3  4  1  0
  4  5  2  0
  5  6  1  0
  6  7  2  0
  6  8  1  0
  8  9  1  0
  9 10  1  0
 10 11  2  0
 11 12  1  0
 12 13  2  0
 13 14  1  0
 14 15  1  0
 15 16  2  0
 15 17  1  0
 17 18  1  0
 18 19  2  0
 19 20  1  0
 20 21  2  0
 21 22  1  0
 22 23  2  0
 23 24  1  0
 24 25  1  0
 25 26  2  0
 14 27  2  0
  9 28  2  0
  7  2  1  0
 27 10  1  0
 28  5  1  0
 26 18  1  0
 25 21  1  0
  1 29  1  0
  1 30  1  0
  1 31  1  0
  3 32  1  0
  4 33  1  0
  7 34  1  0
  8 35  1  0
  8 36  1  0
 11 37  1  0
 12 38  1  0
 13 39  1  0
 17 40  1  0
 19 41  1  0
 20 42  1  0
 22 43  1  0
 24 44  1  0
 26 45  1  0
 27 46  1  0
M  END
>  <smiles>  (21) 
Cc1ccc2c(c1)CC(c1cccc(C(=O)Nc3ccc4cn[nH]c4c3)c1)=N2

>  <score_type>  (21) 
oracle

>  <origin>  (21) 
autodockgpu

>  <m_score__min__energy>  (21) 
-9.4399999999999995

>  <m_primary>  (21) 
energy

>  <rmsd>  (21) 
7.4144010731047585

>  <m_score__min__rmsd>  (21) 
7.4144010731047585

>  <meeko>  (21) 
{"free_energy": -8.86, "intermolecular_energy": -9.75, "internal_energy": -0.72, "cluster_size": 50, "cluster_id": 1, "rank_in_cluster": 44}

>  <energy>  (21) 
-9.36

>  <cluster_rmsd>  (21) 
0.15

>  <cluster>  (21) 
1

$$$$

     RDKit          3D

 46 50  0  0  0  0  0  0  0  0999 V2000
  141.2570   68.2170  228.8580 C   0  0  0  0  0  0  0  0  0  0  0  0
  140.6750   68.5350  227.5270 C   0  0  0  0  0  0  0  0  0  0  0  0
  139.7870   67.6580  226.9140 C   0  0  0  0  0  0  0  0  0  0  0  0
  139.2380   67.9440  225.6750 C   0  0  0  0  0  0  0  0  0  0  0  0
  139.5480   69.1080  224.9990 C   0  0  0  0  0  0  0  0  0  0  0  0
  140.4290   69.9810  225.6060 C   0  0  0  0  0  0  0  0  0  0  0  0
  140.9810   69.6960  226.8480 C   0  0  0  0  0  0  0  0  0  0  0  0
  140.6200   71.1560  224.7140 C   0  0  0  0  0  0  0  0  0  0  0  0
  139.7440   70.8140  223.5650 C   0  0  0  0  0  0  0  0  0  0  0  0
  139.5600   71.6510  222.3830 C   0  0  0  0  0  0  0  0  0  0  0  0
  139.1080   71.1070  221.1840 C   0  0  0  0  0  0  0  0  0  0  0  0
  138.9250   71.8670  220.0580 C   0  0  0  0  0  0  0  0  0  0  0  0
  139.2050   73.2080  220.1360 C   0  0  0  0  0  0  0  0  0  0  0  0
  139.6500   73.8060  221.2710 C   0  0  0  0  0  0  0  0  0  0  0  0
  139.9570   75.2160  221.4020 C   0  0  0  0  0  0  0  0  0  0  0  0
  140.5480   75.8620  220.4950 O   0  0  0  0  0  0  0  0  0  0  0  0
  139.6010   75.9420  222.5720 N   0  0  0  0  0  0  0  0  0  0  0  0
  139.8940   77.3400  222.7250 C   0  0  0  0  0  0  0  0  0  0  0  0
  138.9580   78.2800  223.0240 C   0  0  0  0  0  0  0  0  0  0  0  0
  139.2890   79.6140  223.1620 C   0  0  0  0  0  0  0  0  0  0  0  0
  140.6060   79.9890  222.9880 C   0  0  0  0  0  0  0  0  0  0  0  0
  141.2910   81.2000  223.0460 C   0  0  0  0  0  0  0  0  0  0  0  0
  142.5980   80.9420  222.7820 N   0  0  0  0  0  0  0  0  0  0  0  0
  142.7680   79.6460  222.5640 N   0  0  0  0  0  0  0  0  0  0  0  0
  141.5820   79.0470  222.6820 C   0  0  0  0  0  0  0  0  0  0  0  0
  141.2050   77.7200  222.5530 C   0  0  0  0  0  0  0  0  0  0  0  0
  139.8200   72.9940  222.3940 C   0  0  0  0  0  0  0  0  0  0  0  0
  139.1640   69.6760  223.7520 N   0  0  0  0  0  0  0  0  0  0  0  0
  140.5859   68.5837  229.6487 H   0  0  0  0  0  0  0  0  0  0  0  0
  141.3771   67.1279  228.9549 H   0  0  0  0  0  0  0  0  0  0  0  0
  142.2384   68.7042  228.9549 H   0  0  0  0  0  0  0  0  0  0  0  0
  139.5158   66.7207  227.4219 H   0  0  0  0  0  0  0  0  0  0  0  0
  138.5390   67.2276  225.2188 H   0  0  0  0  0  0  0  0  0  0  0  0
  141.6798   70.4142  227.3017 H   0  0  0  0  0  0  0  0  0  0  0  0
  140.2943   72.0862  225.2024 H   0  0  0  0  0  0  0  0  0  0  0  0
  141.6686   71.3364  224.4351 H   0  0  0  0  0  0  0  0  0  0  0  0
  138.8901   70.0298  221.1386 H   0  0  0  0  0  0  0  0  0  0  0  0
  138.5651   71.4161  219.1215 H   0  0  0  0  0  0  0  0  0  0  0  0
  139.0625   73.8270  219.2379 H   0  0  0  0  0  0  0  0  0  0  0  0
  139.1090   75.5010  223.3780 H   0  0  0  0  0  0  0  0  0  0  0  0
  137.9112   77.9704  223.1593 H   0  0  0  0  0  0  0  0  0  0  0  0
  138.5195   80.3615  223.4053 H   0  0  0  0  0  0  0  0  0  0  0  0
  140.8536   82.1852  223.2655 H   0  0  0  0  0  0  0  0  0  0  0  0
  143.6920   79.2050  222.3390 H   0  0  0  0  0  0  0  0  0  0  0  0
  141.9632   76.9610  222.3101 H   0  0  0  0  0  0  0  0  0  0  0  0
  140.1782   73.4536  223.3270 H   0  0  0  0  0  0  0  0  0  0  0  0
  1  2  1  0
  2  3  2  0
  3  4  1  0
  4  5  2  0
  5  6  1  0
  6  7  2  0
  6  8  1  0
  8  9  1  0
  9 10  1  0
 10 11  2  0
 11 12  1  0
 12 13  2  0
 13 14  1  0
 14 15  1  0
 15 16  2  0
 15 17  1  0
 17 18  1  0
 18 19  2  0
 19 20  1  0
 20 21  2  0
 21 22  1  0
 22 23  2  0
 23 24  1  0
 24 25  1  0
 25 26  2  0
 14 27  2  0
  9 28  2  0
  7  2  1  0
 27 10  1  0
 28  5  1  0
 26 18  1  0
 25 21  1  0
  1 29  1  0
  1 30  1  0
  1 31  1  0
  3 32  1  0
  4 33  1  0
  7 34  1  0
  8 35  1  0
  8 36  1  0
 11 37  1  0
 12 38  1  0
 13 39  1  0
 17 40  1  0
 19 41  1  0
 20 42  1  0
 22 43  1  0
 24 44  1  0
 26 45  1  0
 27 46  1  0
M  END
>  <smiles>  (22) 
Cc1ccc2c(c1)CC(c1cccc(C(=O)Nc3ccc4cn[nH]c4c3)c1)=N2

>  <score_type>  (22) 
oracle

>  <origin>  (22) 
autodockgpu

>  <m_score__min__energy>  (22) 
-9.4399999999999995

>  <m_primary>  (22) 
energy

>  <rmsd>  (22) 
7.635767782283228

>  <m_score__min__rmsd>  (22) 
7.635767782283228

>  <meeko>  (22) 
{"free_energy": -9.36, "intermolecular_energy": -10.26, "internal_energy": -0.68, "cluster_size": 50, "cluster_id": 1, "rank_in_cluster": 20}

>  <energy>  (22) 
-9.36

>  <cluster_rmsd>  (22) 
0.13

>  <cluster>  (22) 
1

$$$$

     RDKit          3D

 46 50  0  0  0  0  0  0  0  0999 V2000
  141.2220   68.1370  228.8520 C   0  0  0  0  0  0  0  0  0  0  0  0
  140.6780   68.4520  227.5040 C   0  0  0  0  0  0  0  0  0  0  0  0
  139.8990   67.5250  226.8200 C   0  0  0  0  0  0  0  0  0  0  0  0
  139.3870   67.8080  225.5650 C   0  0  0  0  0  0  0  0  0  0  0  0
  139.6290   69.0160  224.9410 C   0  0  0  0  0  0  0  0  0  0  0  0
  140.4020   69.9380  225.6180 C   0  0  0  0  0  0  0  0  0  0  0  0
  140.9160   69.6570  226.8770 C   0  0  0  0  0  0  0  0  0  0  0  0
  140.5350   71.1560  224.7740 C   0  0  0  0  0  0  0  0  0  0  0  0
  139.7460   70.7820  223.5720 C   0  0  0  0  0  0  0  0  0  0  0  0
  139.5490   71.6410  222.4090 C   0  0  0  0  0  0  0  0  0  0  0  0
  139.0380   71.1300  221.2190 C   0  0  0  0  0  0  0  0  0  0  0  0
  138.8410   71.9110  220.1100 C   0  0  0  0  0  0  0  0  0  0  0  0
  139.1660   73.2420  220.1970 C   0  0  0  0  0  0  0  0  0  0  0  0
  139.6680   73.8090  221.3240 C   0  0  0  0  0  0  0  0  0  0  0  0
  140.0230   75.2060  221.4640 C   0  0  0  0  0  0  0  0  0  0  0  0
  140.7740   75.7940  220.6380 O   0  0  0  0  0  0  0  0  0  0  0  0
  139.5370   75.9870  222.5480 N   0  0  0  0  0  0  0  0  0  0  0  0
  139.8750   77.3730  222.7080 C   0  0  0  0  0  0  0  0  0  0  0  0
  138.9690   78.3420  223.0070 C   0  0  0  0  0  0  0  0  0  0  0  0
  139.3430   79.6640  223.1510 C   0  0  0  0  0  0  0  0  0  0  0  0
  140.6720   79.9960  222.9840 C   0  0  0  0  0  0  0  0  0  0  0  0
  141.3960   81.1840  223.0490 C   0  0  0  0  0  0  0  0  0  0  0  0
  142.6960   80.8840  222.7890 N   0  0  0  0  0  0  0  0  0  0  0  0
  142.8240   79.5850  222.5660 N   0  0  0  0  0  0  0  0  0  0  0  0
  141.6190   79.0240  222.6770 C   0  0  0  0  0  0  0  0  0  0  0  0
  141.1980   77.7110  222.5420 C   0  0  0  0  0  0  0  0  0  0  0  0
  139.8510   72.9750  222.4290 C   0  0  0  0  0  0  0  0  0  0  0  0
  139.2580   69.5930  223.6940 N   0  0  0  0  0  0  0  0  0  0  0  0
  140.5427   68.5303  229.6226 H   0  0  0  0  0  0  0  0  0  0  0  0
  141.3127   67.0466  228.9652 H   0  0  0  0  0  0  0  0  0  0  0  0
  142.2129   68.6011  228.9652 H   0  0  0  0  0  0  0  0  0  0  0  0
  139.6860   66.5506  227.2838 H   0  0  0  0  0  0  0  0  0  0  0  0
  138.7729   67.0527  225.0528 H   0  0  0  0  0  0  0  0  0  0  0  0
  141.5286   70.4149  227.3872 H   0  0  0  0  0  0  0  0  0  0  0  0
  140.1087   72.0381  225.2741 H   0  0  0  0  0  0  0  0  0  0  0  0
  141.5765   71.4334  224.5540 H   0  0  0  0  0  0  0  0  0  0  0  0
  138.7832   70.0612  221.1669 H   0  0  0  0  0  0  0  0  0  0  0  0
  138.4356   71.4851  219.1803 H   0  0  0  0  0  0  0  0  0  0  0  0
  139.0127   73.8784  219.3130 H   0  0  0  0  0  0  0  0  0  0  0  0
  138.9100   75.5950  223.2840 H   0  0  0  0  0  0  0  0  0  0  0  0
  137.9121   78.0663  223.1374 H   0  0  0  0  0  0  0  0  0  0  0  0
  138.5974   80.4355  223.3936 H   0  0  0  0  0  0  0  0  0  0  0  0
  140.9901   82.1822  223.2702 H   0  0  0  0  0  0  0  0  0  0  0  0
  143.7340   79.1140  222.3440 H   0  0  0  0  0  0  0  0  0  0  0  0
  141.9316   76.9283  222.2988 H   0  0  0  0  0  0  0  0  0  0  0  0
  140.2553   73.4094  223.3552 H   0  0  0  0  0  0  0  0  0  0  0  0
  1  2  1  0
  2  3  2  0
  3  4  1  0
  4  5  2  0
  5  6  1  0
  6  7  2  0
  6  8  1  0
  8  9  1  0
  9 10  1  0
 10 11  2  0
 11 12  1  0
 12 13  2  0
 13 14  1  0
 14 15  1  0
 15 16  2  0
 15 17  1  0
 17 18  1  0
 18 19  2  0
 19 20  1  0
 20 21  2  0
 21 22  1  0
 22 23  2  0
 23 24  1  0
 24 25  1  0
 25 26  2  0
 14 27  2  0
  9 28  2  0
  7  2  1  0
 27 10  1  0
 28  5  1  0
 26 18  1  0
 25 21  1  0
  1 29  1  0
  1 30  1  0
  1 31  1  0
  3 32  1  0
  4 33  1  0
  7 34  1  0
  8 35  1  0
  8 36  1  0
 11 37  1  0
 12 38  1  0
 13 39  1  0
 17 40  1  0
 19 41  1  0
 20 42  1  0
 22 43  1  0
 24 44  1  0
 26 45  1  0
 27 46  1  0
M  END
>  <smiles>  (23) 
Cc1ccc2c(c1)CC(c1cccc(C(=O)Nc3ccc4cn[nH]c4c3)c1)=N2

>  <score_type>  (23) 
oracle

>  <origin>  (23) 
autodockgpu

>  <m_score__min__energy>  (23) 
-9.4399999999999995

>  <m_primary>  (23) 
energy

>  <rmsd>  (23) 
7.627838279778407

>  <m_score__min__rmsd>  (23) 
7.627838279778407

>  <meeko>  (23) 
{"free_energy": -9.42, "intermolecular_energy": -10.32, "internal_energy": -0.61, "cluster_size": 50, "cluster_id": 1, "rank_in_cluster": 3}

>  <energy>  (23) 
-9.35

>  <cluster_rmsd>  (23) 
0.11

>  <cluster>  (23) 
1

$$$$

     RDKit          3D

 46 50  0  0  0  0  0  0  0  0999 V2000
  141.1040   68.2030  228.8700 C   0  0  0  0  0  0  0  0  0  0  0  0
  140.5660   68.5150  227.5190 C   0  0  0  0  0  0  0  0  0  0  0  0
  139.7580   67.6030  226.8500 C   0  0  0  0  0  0  0  0  0  0  0  0
  139.2510   67.8840  225.5920 C   0  0  0  0  0  0  0  0  0  0  0  0
  139.5260   69.0760  224.9520 C   0  0  0  0  0  0  0  0  0  0  0  0
  140.3280   69.9840  225.6140 C   0  0  0  0  0  0  0  0  0  0  0  0
  140.8370   69.7050  226.8750 C   0  0  0  0  0  0  0  0  0  0  0  0
  140.4940   71.1850  224.7530 C   0  0  0  0  0  0  0  0  0  0  0  0
  139.6910   70.8190  223.5580 C   0  0  0  0  0  0  0  0  0  0  0  0
  139.5160   71.6680  222.3840 C   0  0  0  0  0  0  0  0  0  0  0  0
  139.0460   71.1410  221.1830 C   0  0  0  0  0  0  0  0  0  0  0  0
  138.8700   71.9130  220.0640 C   0  0  0  0  0  0  0  0  0  0  0  0
  139.1740   73.2490  220.1520 C   0  0  0  0  0  0  0  0  0  0  0  0
  139.6360   73.8300  221.2880 C   0  0  0  0  0  0  0  0  0  0  0  0
  139.9690   75.2330  221.4280 C   0  0  0  0  0  0  0  0  0  0  0  0
  140.6470   75.8520  220.5640 O   0  0  0  0  0  0  0  0  0  0  0  0
  139.5420   75.9830  222.5570 N   0  0  0  0  0  0  0  0  0  0  0  0
  139.8580   77.3740  222.7190 C   0  0  0  0  0  0  0  0  0  0  0  0
  138.9380   78.3290  223.0200 C   0  0  0  0  0  0  0  0  0  0  0  0
  139.2910   79.6560  223.1650 C   0  0  0  0  0  0  0  0  0  0  0  0
  140.6150   80.0090  222.9970 C   0  0  0  0  0  0  0  0  0  0  0  0
  141.3210   81.2080  223.0630 C   0  0  0  0  0  0  0  0  0  0  0  0
  142.6250   80.9280  222.8000 N   0  0  0  0  0  0  0  0  0  0  0  0
  142.7730   79.6310  222.5760 N   0  0  0  0  0  0  0  0  0  0  0  0
  141.5760   79.0520  222.6880 C   0  0  0  0  0  0  0  0  0  0  0  0
  141.1760   77.7330  222.5510 C   0  0  0  0  0  0  0  0  0  0  0  0
  139.7990   73.0060  222.4040 C   0  0  0  0  0  0  0  0  0  0  0  0
  139.1680   69.6470  223.6980 N   0  0  0  0  0  0  0  0  0  0  0  0
  140.4217   68.5987  229.6367 H   0  0  0  0  0  0  0  0  0  0  0  0
  141.1936   67.1128  228.9862 H   0  0  0  0  0  0  0  0  0  0  0  0
  142.0947   68.6667  228.9862 H   0  0  0  0  0  0  0  0  0  0  0  0
  139.5171   66.6419  227.3277 H   0  0  0  0  0  0  0  0  0  0  0  0
  138.6143   67.1399  225.0911 H   0  0  0  0  0  0  0  0  0  0  0  0
  141.4726   70.4516  227.3736 H   0  0  0  0  0  0  0  0  0  0  0  0
  140.0955   72.0861  225.2421 H   0  0  0  0  0  0  0  0  0  0  0  0
  141.5427   71.4278  224.5264 H   0  0  0  0  0  0  0  0  0  0  0  0
  138.8079   70.0683  221.1309 H   0  0  0  0  0  0  0  0  0  0  0  0
  138.4972   71.4762  219.1258 H   0  0  0  0  0  0  0  0  0  0  0  0
  139.0366   73.8778  219.2600 H   0  0  0  0  0  0  0  0  0  0  0  0
  138.9760   75.5650  223.3270 H   0  0  0  0  0  0  0  0  0  0  0  0
  137.8857   78.0369  223.1514 H   0  0  0  0  0  0  0  0  0  0  0  0
  138.5336   80.4155  223.4091 H   0  0  0  0  0  0  0  0  0  0  0  0
  140.9005   82.1995  223.2869 H   0  0  0  0  0  0  0  0  0  0  0  0
  143.6890   79.1750  222.3510 H   0  0  0  0  0  0  0  0  0  0  0  0
  141.9214   76.9624  222.3047 H   0  0  0  0  0  0  0  0  0  0  0  0
  140.1706   73.4520  223.3384 H   0  0  0  0  0  0  0  0  0  0  0  0
  1  2  1  0
  2  3  2  0
  3  4  1  0
  4  5  2  0
  5  6  1  0
  6  7  2  0
  6  8  1  0
  8  9  1  0
  9 10  1  0
 10 11  2  0
 11 12  1  0
 12 13  2  0
 13 14  1  0
 14 15  1  0
 15 16  2  0
 15 17  1  0
 17 18  1  0
 18 19  2  0
 19 20  1  0
 20 21  2  0
 21 22  1  0
 22 23  2  0
 23 24  1  0
 24 25  1  0
 25 26  2  0
 14 27  2  0
  9 28  2  0
  7  2  1  0
 27 10  1  0
 28  5  1  0
 26 18  1  0
 25 21  1  0
  1 29  1  0
  1 30  1  0
  1 31  1  0
  3 32  1  0
  4 33  1  0
  7 34  1  0
  8 35  1  0
  8 36  1  0
 11 37  1  0
 12 38  1  0
 13 39  1  0
 17 40  1  0
 19 41  1  0
 20 42  1  0
 22 43  1  0
 24 44  1  0
 26 45  1  0
 27 46  1  0
M  END
>  <smiles>  (24) 
Cc1ccc2c(c1)CC(c1cccc(C(=O)Nc3ccc4cn[nH]c4c3)c1)=N2

>  <score_type>  (24) 
oracle

>  <origin>  (24) 
autodockgpu

>  <m_score__min__energy>  (24) 
-9.4399999999999995

>  <m_primary>  (24) 
energy

>  <rmsd>  (24) 
7.629396486142771

>  <m_score__min__rmsd>  (24) 
7.629396486142771

>  <meeko>  (24) 
{"free_energy": -9.39, "intermolecular_energy": -10.29, "internal_energy": -0.65, "cluster_size": 50, "cluster_id": 1, "rank_in_cluster": 10}

>  <energy>  (24) 
-9.35

>  <cluster_rmsd>  (24) 
0.14

>  <cluster>  (24) 
1

$$$$

     RDKit          3D

 46 50  0  0  0  0  0  0  0  0999 V2000
  140.9920   68.5150  228.7350 C   0  0  0  0  0  0  0  0  0  0  0  0
  140.5220   68.8680  227.3700 C   0  0  0  0  0  0  0  0  0  0  0  0
  139.6790   68.0140  226.6670 C   0  0  0  0  0  0  0  0  0  0  0  0
  139.2350   68.3320  225.3950 C   0  0  0  0  0  0  0  0  0  0  0  0
  139.6090   69.5060  224.7720 C   0  0  0  0  0  0  0  0  0  0  0  0
  140.4460   70.3570  225.4670 C   0  0  0  0  0  0  0  0  0  0  0  0
  140.8920   70.0400  226.7430 C   0  0  0  0  0  0  0  0  0  0  0  0
  140.7190   71.5490  224.6200 C   0  0  0  0  0  0  0  0  0  0  0  0
  139.9360   71.2410  223.3960 C   0  0  0  0  0  0  0  0  0  0  0  0
  139.8560   72.1040  222.2220 C   0  0  0  0  0  0  0  0  0  0  0  0
  139.7730   71.5650  220.9410 C   0  0  0  0  0  0  0  0  0  0  0  0
  139.6960   72.3500  219.8200 C   0  0  0  0  0  0  0  0  0  0  0  0
  139.7050   73.7120  219.9880 C   0  0  0  0  0  0  0  0  0  0  0  0
  139.7840   74.3070  221.2050 C   0  0  0  0  0  0  0  0  0  0  0  0
  139.7960   75.7380  221.4330 C   0  0  0  0  0  0  0  0  0  0  0  0
  138.7360   76.4180  221.4800 O   0  0  0  0  0  0  0  0  0  0  0  0
  141.0150   76.4460  221.6150 N   0  0  0  0  0  0  0  0  0  0  0  0
  141.0520   77.8630  221.8420 C   0  0  0  0  0  0  0  0  0  0  0  0
  140.4290   78.7730  221.0460 C   0  0  0  0  0  0  0  0  0  0  0  0
  140.4930   80.1280  221.3060 C   0  0  0  0  0  0  0  0  0  0  0  0
  141.2120   80.5560  222.4040 C   0  0  0  0  0  0  0  0  0  0  0  0
  141.4910   81.8010  222.9620 C   0  0  0  0  0  0  0  0  0  0  0  0
  142.2630   81.5920  224.0600 N   0  0  0  0  0  0  0  0  0  0  0  0
  142.4810   80.2950  224.2190 N   0  0  0  0  0  0  0  0  0  0  0  0
  141.8590   79.6460  223.2340 C   0  0  0  0  0  0  0  0  0  0  0  0
  141.7670   78.2960  222.9340 C   0  0  0  0  0  0  0  0  0  0  0  0
  139.8590   73.4680  222.3200 C   0  0  0  0  0  0  0  0  0  0  0  0
  139.3330   70.1050  223.5100 N   0  0  0  0  0  0  0  0  0  0  0  0
  140.3463   68.9999  229.4819 H   0  0  0  0  0  0  0  0  0  0  0  0
  140.9494   67.4237  228.8667 H   0  0  0  0  0  0  0  0  0  0  0  0
  142.0282   68.8600  228.8667 H   0  0  0  0  0  0  0  0  0  0  0  0
  139.3593   67.0688  227.1301 H   0  0  0  0  0  0  0  0  0  0  0  0
  138.5687   67.6330  224.8683 H   0  0  0  0  0  0  0  0  0  0  0  0
  141.5575   70.7413  227.2676 H   0  0  0  0  0  0  0  0  0  0  0  0
  140.3627   72.4718  225.1012 H   0  0  0  0  0  0  0  0  0  0  0  0
  141.7883   71.7245  224.4311 H   0  0  0  0  0  0  0  0  0  0  0  0
  139.7691   70.4712  220.8245 H   0  0  0  0  0  0  0  0  0  0  0  0
  139.6291   71.9024  218.8174 H   0  0  0  0  0  0  0  0  0  0  0  0
  139.6454   74.3510  219.0947 H   0  0  0  0  0  0  0  0  0  0  0  0
  141.9450   75.9750  221.5940 H   0  0  0  0  0  0  0  0  0  0  0  0
  139.8598   78.4209  220.1731 H   0  0  0  0  0  0  0  0  0  0  0  0
  139.9822   80.8504  220.6524 H   0  0  0  0  0  0  0  0  0  0  0  0
  141.1489   82.7753  222.5830 H   0  0  0  0  0  0  0  0  0  0  0  0
  143.0510   79.8870  224.9980 H   0  0  0  0  0  0  0  0  0  0  0  0
  142.2725   77.5612  223.5779 H   0  0  0  0  0  0  0  0  0  0  0  0
  139.9232   73.9241  223.3189 H   0  0  0  0  0  0  0  0  0  0  0  0
  1  2  1  0
  2  3  2  0
  3  4  1  0
  4  5  2  0
  5  6  1  0
  6  7  2  0
  6  8  1  0
  8  9  1  0
  9 10  1  0
 10 11  2  0
 11 12  1  0
 12 13  2  0
 13 14  1  0
 14 15  1  0
 15 16  2  0
 15 17  1  0
 17 18  1  0
 18 19  2  0
 19 20  1  0
 20 21  2  0
 21 22  1  0
 22 23  2  0
 23 24  1  0
 24 25  1  0
 25 26  2  0
 14 27  2  0
  9 28  2  0
  7  2  1  0
 27 10  1  0
 28  5  1  0
 26 18  1  0
 25 21  1  0
  1 29  1  0
  1 30  1  0
  1 31  1  0
  3 32  1  0
  4 33  1  0
  7 34  1  0
  8 35  1  0
  8 36  1  0
 11 37  1  0
 12 38  1  0
 13 39  1  0
 17 40  1  0
 19 41  1  0
 20 42  1  0
 22 43  1  0
 24 44  1  0
 26 45  1  0
 27 46  1  0
M  END
>  <smiles>  (25) 
Cc1ccc2c(c1)CC(c1cccc(C(=O)Nc3ccc4cn[nH]c4c3)c1)=N2

>  <score_type>  (25) 
oracle

>  <origin>  (25) 
autodockgpu

>  <m_score__min__energy>  (25) 
-9.4399999999999995

>  <m_primary>  (25) 
energy

>  <rmsd>  (25) 
7.2698844449398665

>  <m_score__min__rmsd>  (25) 
7.2698844449398665

>  <meeko>  (25) 
{"free_energy": -8.63, "intermolecular_energy": -9.52, "internal_energy": -0.68, "cluster_size": 50, "cluster_id": 1, "rank_in_cluster": 49}

>  <energy>  (25) 
-9.34

>  <cluster_rmsd>  (25) 
0.17

>  <cluster>  (25) 
1

$$$$

     RDKit          3D

 46 50  0  0  0  0  0  0  0  0999 V2000
  141.2420   68.2480  228.8590 C   0  0  0  0  0  0  0  0  0  0  0  0
  140.6580   68.5660  227.5300 C   0  0  0  0  0  0  0  0  0  0  0  0
  139.7450   67.7040  226.9320 C   0  0  0  0  0  0  0  0  0  0  0  0
  139.1940   67.9900  225.6940 C   0  0  0  0  0  0  0  0  0  0  0  0
  139.5280   69.1380  225.0030 C   0  0  0  0  0  0  0  0  0  0  0  0
  140.4340   69.9960  225.5940 C   0  0  0  0  0  0  0  0  0  0  0  0
  140.9870   69.7110  226.8350 C   0  0  0  0  0  0  0  0  0  0  0  0
  140.6480   71.1560  224.6880 C   0  0  0  0  0  0  0  0  0  0  0  0
  139.7550   70.8230  223.5480 C   0  0  0  0  0  0  0  0  0  0  0  0
  139.5840   71.6510  222.3580 C   0  0  0  0  0  0  0  0  0  0  0  0
  139.1600   71.0950  221.1540 C   0  0  0  0  0  0  0  0  0  0  0  0
  138.9900   71.8460  220.0200 C   0  0  0  0  0  0  0  0  0  0  0  0
  139.2520   73.1920  220.0960 C   0  0  0  0  0  0  0  0  0  0  0  0
  139.6680   73.8010  221.2360 C   0  0  0  0  0  0  0  0  0  0  0  0
  139.9560   75.2150  221.3640 C   0  0  0  0  0  0  0  0  0  0  0  0
  140.4850   75.8800  220.4330 O   0  0  0  0  0  0  0  0  0  0  0  0
  139.6520   75.9240  222.5590 N   0  0  0  0  0  0  0  0  0  0  0  0
  139.9270   77.3250  222.7100 C   0  0  0  0  0  0  0  0  0  0  0  0
  138.9800   78.2530  223.0130 C   0  0  0  0  0  0  0  0  0  0  0  0
  139.2940   79.5910  223.1490 C   0  0  0  0  0  0  0  0  0  0  0  0
  140.6060   79.9830  222.9690 C   0  0  0  0  0  0  0  0  0  0  0  0
  141.2750   81.2030  223.0240 C   0  0  0  0  0  0  0  0  0  0  0  0
  142.5840   80.9620  222.7530 N   0  0  0  0  0  0  0  0  0  0  0  0
  142.7700   79.6690  222.5350 N   0  0  0  0  0  0  0  0  0  0  0  0
  141.5930   79.0540  222.6580 C   0  0  0  0  0  0  0  0  0  0  0  0
  141.2320   77.7220  222.5320 C   0  0  0  0  0  0  0  0  0  0  0  0
  139.8270   72.9970  222.3660 C   0  0  0  0  0  0  0  0  0  0  0  0
  139.1490   69.7020  223.7520 N   0  0  0  0  0  0  0  0  0  0  0  0
  140.5716   68.6131  229.6510 H   0  0  0  0  0  0  0  0  0  0  0  0
  141.3639   67.1590  228.9549 H   0  0  0  0  0  0  0  0  0  0  0  0
  142.2229   68.7366  228.9549 H   0  0  0  0  0  0  0  0  0  0  0  0
  139.4554   66.7787  227.4515 H   0  0  0  0  0  0  0  0  0  0  0  0
  138.4737   67.2865  225.2509 H   0  0  0  0  0  0  0  0  0  0  0  0
  141.7064   70.4169  227.2756 H   0  0  0  0  0  0  0  0  0  0  0  0
  140.3489   72.0993  225.1683 H   0  0  0  0  0  0  0  0  0  0  0  0
  141.6988   71.3073  224.4001 H   0  0  0  0  0  0  0  0  0  0  0  0
  138.9542   70.0153  221.1113 H   0  0  0  0  0  0  0  0  0  0  0  0
  138.6545   71.3853  219.0792 H   0  0  0  0  0  0  0  0  0  0  0  0
  139.1188   73.8046  219.1921 H   0  0  0  0  0  0  0  0  0  0  0  0
  139.2130   75.4660  223.3860 H   0  0  0  0  0  0  0  0  0  0  0  0
  137.9379   77.9298  223.1532 H   0  0  0  0  0  0  0  0  0  0  0  0
  138.5160   80.3285  223.3954 H   0  0  0  0  0  0  0  0  0  0  0  0
  140.8258   82.1822  223.2462 H   0  0  0  0  0  0  0  0  0  0  0  0
  143.6990   79.2400  222.3060 H   0  0  0  0  0  0  0  0  0  0  0  0
  141.9988   76.9725  222.2865 H   0  0  0  0  0  0  0  0  0  0  0  0
  140.1620   73.4660  223.3029 H   0  0  0  0  0  0  0  0  0  0  0  0
  1  2  1  0
  2  3  2  0
  3  4  1  0
  4  5  2  0
  5  6  1  0
  6  7  2  0
  6  8  1  0
  8  9  1  0
  9 10  1  0
 10 11  2  0
 11 12  1  0
 12 13  2  0
 13 14  1  0
 14 15  1  0
 15 16  2  0
 15 17  1  0
 17 18  1  0
 18 19  2  0
 19 20  1  0
 20 21  2  0
 21 22  1  0
 22 23  2  0
 23 24  1  0
 24 25  1  0
 25 26  2  0
 14 27  2  0
  9 28  2  0
  7  2  1  0
 27 10  1  0
 28  5  1  0
 26 18  1  0
 25 21  1  0
  1 29  1  0
  1 30  1  0
  1 31  1  0
  3 32  1  0
  4 33  1  0
  7 34  1  0
  8 35  1  0
  8 36  1  0
 11 37  1  0
 12 38  1  0
 13 39  1  0
 17 40  1  0
 19 41  1  0
 20 42  1  0
 22 43  1  0
 24 44  1  0
 26 45  1  0
 27 46  1  0
M  END
>  <smiles>  (26) 
Cc1ccc2c(c1)CC(c1cccc(C(=O)Nc3ccc4cn[nH]c4c3)c1)=N2

>  <score_type>  (26) 
oracle

>  <origin>  (26) 
autodockgpu

>  <m_score__min__energy>  (26) 
-9.4399999999999995

>  <m_primary>  (26) 
energy

>  <rmsd>  (26) 
7.633282545255115

>  <m_score__min__rmsd>  (26) 
7.633282545255115

>  <meeko>  (26) 
{"free_energy": -9.33, "intermolecular_energy": -10.22, "internal_energy": -0.69, "cluster_size": 50, "cluster_id": 1, "rank_in_cluster": 31}

>  <energy>  (26) 
-9.34

>  <cluster_rmsd>  (26) 
0.13

>  <cluster>  (26) 
1

$$$$

     RDKit          3D

 46 50  0  0  0  0  0  0  0  0999 V2000
  140.5870   68.1390  228.9680 C   0  0  0  0  0  0  0  0  0  0  0  0
  140.6530   69.2270  227.9560 C   0  0  0  0  0  0  0  0  0  0  0  0
  141.0950   70.4970  228.3090 C   0  0  0  0  0  0  0  0  0  0  0  0
  141.1610   71.5170  227.3750 C   0  0  0  0  0  0  0  0  0  0  0  0
  140.7900   71.3180  226.0600 C   0  0  0  0  0  0  0  0  0  0  0  0
  140.3500   70.0570  225.7060 C   0  0  0  0  0  0  0  0  0  0  0  0
  140.2840   69.0330  226.6410 C   0  0  0  0  0  0  0  0  0  0  0  0
  140.0060   70.0650  224.2590 C   0  0  0  0  0  0  0  0  0  0  0  0
  140.3110   71.4680  223.8790 C   0  0  0  0  0  0  0  0  0  0  0  0
  140.1470   72.0180  222.5370 C   0  0  0  0  0  0  0  0  0  0  0  0
  139.8530   71.1920  221.4550 C   0  0  0  0  0  0  0  0  0  0  0  0
  139.6920   71.6790  220.1850 C   0  0  0  0  0  0  0  0  0  0  0  0
  139.8300   73.0320  219.9930 C   0  0  0  0  0  0  0  0  0  0  0  0
  140.1160   73.8960  221.0000 C   0  0  0  0  0  0  0  0  0  0  0  0
  140.2700   75.3290  220.8470 C   0  0  0  0  0  0  0  0  0  0  0  0
  139.5710   75.9970  220.0380 O   0  0  0  0  0  0  0  0  0  0  0  0
  141.2250   76.0530  221.6110 N   0  0  0  0  0  0  0  0  0  0  0  0
  141.3960   77.4730  221.4780 C   0  0  0  0  0  0  0  0  0  0  0  0
  141.5840   78.1030  220.2880 C   0  0  0  0  0  0  0  0  0  0  0  0
  141.7440   79.4730  220.2110 C   0  0  0  0  0  0  0  0  0  0  0  0
  141.7110   80.2080  221.3790 C   0  0  0  0  0  0  0  0  0  0  0  0
  141.8310   81.5620  221.6820 C   0  0  0  0  0  0  0  0  0  0  0  0
  141.7120   81.6900  223.0300 N   0  0  0  0  0  0  0  0  0  0  0  0
  141.5250   80.5000  223.5820 N   0  0  0  0  0  0  0  0  0  0  0  0
  141.5200   79.5880  222.6090 C   0  0  0  0  0  0  0  0  0  0  0  0
  141.3650   78.2110  222.6380 C   0  0  0  0  0  0  0  0  0  0  0  0
  140.2700   73.3560  222.2790 C   0  0  0  0  0  0  0  0  0  0  0  0
  140.7430   72.1360  224.8960 N   0  0  0  0  0  0  0  0  0  0  0  0
  140.6135   68.5751  229.9775 H   0  0  0  0  0  0  0  0  0  0  0  0
  139.6529   67.5730  228.8375 H   0  0  0  0  0  0  0  0  0  0  0  0
  141.4459   67.4642  228.8375 H   0  0  0  0  0  0  0  0  0  0  0  0
  141.3974   70.6948  229.3479 H   0  0  0  0  0  0  0  0  0  0  0  0
  141.5175   72.5094  227.6880 H   0  0  0  0  0  0  0  0  0  0  0  0
  139.9282   68.0412  226.3251 H   0  0  0  0  0  0  0  0  0  0  0  0
  140.6282   69.3538  223.6960 H   0  0  0  0  0  0  0  0  0  0  0  0
  138.9699   69.7624  224.0469 H   0  0  0  0  0  0  0  0  0  0  0  0
  139.7463   70.1107  221.6263 H   0  0  0  0  0  0  0  0  0  0  0  0
  139.4595   71.0077  219.3452 H   0  0  0  0  0  0  0  0  0  0  0  0
  139.7030   73.4337  218.9769 H   0  0  0  0  0  0  0  0  0  0  0  0
  141.8510   75.5940  222.3080 H   0  0  0  0  0  0  0  0  0  0  0  0
  141.6093   77.5072  219.3637 H   0  0  0  0  0  0  0  0  0  0  0  0
  141.8944   79.9675  219.2400 H   0  0  0  0  0  0  0  0  0  0  0  0
  141.9925   82.3782  220.9624 H   0  0  0  0  0  0  0  0  0  0  0  0
  141.4060   80.3430  224.6110 H   0  0  0  0  0  0  0  0  0  0  0  0
  141.2152   77.7018  223.6015 H   0  0  0  0  0  0  0  0  0  0  0  0
  140.4997   74.0348  223.1136 H   0  0  0  0  0  0  0  0  0  0  0  0
  1  2  1  0
  2  3  2  0
  3  4  1  0
  4  5  2  0
  5  6  1  0
  6  7  2  0
  6  8  1  0
  8  9  1  0
  9 10  1  0
 10 11  2  0
 11 12  1  0
 12 13  2  0
 13 14  1  0
 14 15  1  0
 15 16  2  0
 15 17  1  0
 17 18  1  0
 18 19  2  0
 19 20  1  0
 20 21  2  0
 21 22  1  0
 22 23  2  0
 23 24  1  0
 24 25  1  0
 25 26  2  0
 14 27  2  0
  9 28  2  0
  7  2  1  0
 27 10  1  0
 28  5  1  0
 26 18  1  0
 25 21  1  0
  1 29  1  0
  1 30  1  0
  1 31  1  0
  3 32  1  0
  4 33  1  0
  7 34  1  0
  8 35  1  0
  8 36  1  0
 11 37  1  0
 12 38  1  0
 13 39  1  0
 17 40  1  0
 19 41  1  0
 20 42  1  0
 22 43  1  0
 24 44  1  0
 26 45  1  0
 27 46  1  0
M  END
>  <smiles>  (27) 
Cc1ccc2c(c1)CC(c1cccc(C(=O)Nc3ccc4cn[nH]c4c3)c1)=N2

>  <score_type>  (27) 
oracle

>  <origin>  (27) 
autodockgpu

>  <m_score__min__energy>  (27) 
-9.4399999999999995

>  <m_primary>  (27) 
energy

>  <rmsd>  (27) 
7.2198005790460416

>  <m_score__min__rmsd>  (27) 
7.2198005790460416

>  <meeko>  (27) 
{"free_energy": -8.56, "intermolecular_energy": -9.45, "internal_energy": -0.68, "cluster_size": 50, "cluster_id": 1, "rank_in_cluster": 50}

>  <energy>  (27) 
-9.34

>  <cluster_rmsd>  (27) 
0.16

>  <cluster>  (27) 
1

$$$$

     RDKit          3D

 46 50  0  0  0  0  0  0  0  0999 V2000
  141.1010   68.2050  228.9060 C   0  0  0  0  0  0  0  0  0  0  0  0
  140.5800   68.5320  227.5530 C   0  0  0  0  0  0  0  0  0  0  0  0
  139.6960   67.6740  226.9070 C   0  0  0  0  0  0  0  0  0  0  0  0
  139.2040   67.9680  225.6470 C   0  0  0  0  0  0  0  0  0  0  0  0
  139.5700   69.1210  224.9790 C   0  0  0  0  0  0  0  0  0  0  0  0
  140.4480   69.9750  225.6180 C   0  0  0  0  0  0  0  0  0  0  0  0
  140.9420   69.6820  226.8820 C   0  0  0  0  0  0  0  0  0  0  0  0
  140.7030   71.1410  224.7310 C   0  0  0  0  0  0  0  0  0  0  0  0
  139.8650   70.8150  223.5480 C   0  0  0  0  0  0  0  0  0  0  0  0
  139.7500   71.6510  222.3570 C   0  0  0  0  0  0  0  0  0  0  0  0
  139.3900   71.1020  221.1290 C   0  0  0  0  0  0  0  0  0  0  0  0
  139.2730   71.8610  219.9940 C   0  0  0  0  0  0  0  0  0  0  0  0
  139.5250   73.2070  220.0920 C   0  0  0  0  0  0  0  0  0  0  0  0
  139.8800   73.8100  221.2550 C   0  0  0  0  0  0  0  0  0  0  0  0
  140.1550   75.2240  221.4090 C   0  0  0  0  0  0  0  0  0  0  0  0
  140.8000   75.8800  220.5470 O   0  0  0  0  0  0  0  0  0  0  0  0
  139.7030   75.9440  222.5480 N   0  0  0  0  0  0  0  0  0  0  0  0
  139.9620   77.3450  222.7230 C   0  0  0  0  0  0  0  0  0  0  0  0
  139.0050   78.2560  223.0480 C   0  0  0  0  0  0  0  0  0  0  0  0
  139.3030   79.5950  223.2050 C   0  0  0  0  0  0  0  0  0  0  0  0
  140.6080   80.0070  223.0230 C   0  0  0  0  0  0  0  0  0  0  0  0
  141.2620   81.2340  223.0940 C   0  0  0  0  0  0  0  0  0  0  0  0
  142.5730   81.0150  222.8110 N   0  0  0  0  0  0  0  0  0  0  0  0
  142.7740   79.7280  222.5690 N   0  0  0  0  0  0  0  0  0  0  0  0
  141.6050   79.0960  222.6890 C   0  0  0  0  0  0  0  0  0  0  0  0
  141.2600   77.7620  222.5420 C   0  0  0  0  0  0  0  0  0  0  0  0
  139.9860   72.9980  222.3870 C   0  0  0  0  0  0  0  0  0  0  0  0
  139.2500   69.6930  223.7160 N   0  0  0  0  0  0  0  0  0  0  0  0
  140.4299   68.6262  229.6690 H   0  0  0  0  0  0  0  0  0  0  0  0
  141.1519   67.1127  229.0252 H   0  0  0  0  0  0  0  0  0  0  0  0
  142.1068   68.6341  229.0252 H   0  0  0  0  0  0  0  0  0  0  0  0
  139.3823   66.7454  227.4063 H   0  0  0  0  0  0  0  0  0  0  0  0
  138.5053   67.2675  225.1662 H   0  0  0  0  0  0  0  0  0  0  0  0
  141.6399   70.3847  227.3608 H   0  0  0  0  0  0  0  0  0  0  0  0
  140.3806   72.0808  225.2030 H   0  0  0  0  0  0  0  0  0  0  0  0
  141.7660   71.2951  224.4939 H   0  0  0  0  0  0  0  0  0  0  0  0
  139.1927   70.0216  221.0679 H   0  0  0  0  0  0  0  0  0  0  0  0
  138.9861   71.4060  219.0345 H   0  0  0  0  0  0  0  0  0  0  0  0
  139.4351   73.8251  219.1865 H   0  0  0  0  0  0  0  0  0  0  0  0
  139.1600   75.4940  223.3170 H   0  0  0  0  0  0  0  0  0  0  0  0
  137.9680   77.9172  223.1892 H   0  0  0  0  0  0  0  0  0  0  0  0
  138.5173   80.3181  223.4695 H   0  0  0  0  0  0  0  0  0  0  0  0
  140.8017   82.2035  223.3351 H   0  0  0  0  0  0  0  0  0  0  0  0
  143.7050   79.3150  222.3260 H   0  0  0  0  0  0  0  0  0  0  0  0
  142.0344   77.0270  222.2771 H   0  0  0  0  0  0  0  0  0  0  0  0
  140.2713   73.4616  223.3429 H   0  0  0  0  0  0  0  0  0  0  0  0
  1  2  1  0
  2  3  2  0
  3  4  1  0
  4  5  2  0
  5  6  1  0
  6  7  2  0
  6  8  1  0
  8  9  1  0
  9 10  1  0
 10 11  2  0
 11 12  1  0
 12 13  2  0
 13 14  1  0
 14 15  1  0
 15 16  2  0
 15 17  1  0
 17 18  1  0
 18 19  2  0
 19 20  1  0
 20 21  2  0
 21 22  1  0
 22 23  2  0
 23 24  1  0
 24 25  1  0
 25 26  2  0
 14 27  2  0
  9 28  2  0
  7  2  1  0
 27 10  1  0
 28  5  1  0
 26 18  1  0
 25 21  1  0
  1 29  1  0
  1 30  1  0
  1 31  1  0
  3 32  1  0
  4 33  1  0
  7 34  1  0
  8 35  1  0
  8 36  1  0
 11 37  1  0
 12 38  1  0
 13 39  1  0
 17 40  1  0
 19 41  1  0
 20 42  1  0
 22 43  1  0
 24 44  1  0
 26 45  1  0
 27 46  1  0
M  END
>  <smiles>  (28) 
Cc1ccc2c(c1)CC(c1cccc(C(=O)Nc3ccc4cn[nH]c4c3)c1)=N2

>  <score_type>  (28) 
oracle

>  <origin>  (28) 
autodockgpu

>  <m_score__min__energy>  (28) 
-9.4399999999999995

>  <m_primary>  (28) 
energy

>  <rmsd>  (28) 
7.647415414859373

>  <m_score__min__rmsd>  (28) 
7.647415414859373

>  <meeko>  (28) 
{"free_energy": -9.4, "intermolecular_energy": -10.29, "internal_energy": -0.64, "cluster_size": 50, "cluster_id": 1, "rank_in_cluster": 8}

>  <energy>  (28) 
-9.33

>  <cluster_rmsd>  (28) 
0.15

>  <cluster>  (28) 
1

$$$$

     RDKit          3D

 46 50  0  0  0  0  0  0  0  0999 V2000
  141.3750   68.3020  228.7460 C   0  0  0  0  0  0  0  0  0  0  0  0
  140.7580   68.5500  227.4160 C   0  0  0  0  0  0  0  0  0  0  0  0
  140.0780   67.5370  226.7490 C   0  0  0  0  0  0  0  0  0  0  0  0
  139.4990   67.7570  225.5110 C   0  0  0  0  0  0  0  0  0  0  0  0
  139.5730   68.9870  224.8880 C   0  0  0  0  0  0  0  0  0  0  0  0
  140.2470   69.9960  225.5470 C   0  0  0  0  0  0  0  0  0  0  0  0
  140.8280   69.7770  226.7890 C   0  0  0  0  0  0  0  0  0  0  0  0
  140.2050   71.2220  224.7060 C   0  0  0  0  0  0  0  0  0  0  0  0
  139.4340   70.7570  223.5250 C   0  0  0  0  0  0  0  0  0  0  0  0
  139.0990   71.5870  222.3730 C   0  0  0  0  0  0  0  0  0  0  0  0
  138.4720   71.0430  221.2550 C   0  0  0  0  0  0  0  0  0  0  0  0
  138.1440   71.7970  220.1590 C   0  0  0  0  0  0  0  0  0  0  0  0
  138.4550   73.1340  220.1840 C   0  0  0  0  0  0  0  0  0  0  0  0
  139.0660   73.7320  221.2380 C   0  0  0  0  0  0  0  0  0  0  0  0
  139.4120   75.1370  221.3100 C   0  0  0  0  0  0  0  0  0  0  0  0
  139.6960   75.8130  220.2840 O   0  0  0  0  0  0  0  0  0  0  0  0
  139.4480   75.8250  222.5540 N   0  0  0  0  0  0  0  0  0  0  0  0
  139.7880   77.2170  222.6510 C   0  0  0  0  0  0  0  0  0  0  0  0
  138.8780   78.2030  222.8780 C   0  0  0  0  0  0  0  0  0  0  0  0
  139.2540   79.5290  222.9640 C   0  0  0  0  0  0  0  0  0  0  0  0
  140.5890   79.8480  222.8130 C   0  0  0  0  0  0  0  0  0  0  0  0
  141.3160   81.0360  222.8350 C   0  0  0  0  0  0  0  0  0  0  0  0
  142.6200   80.7190  222.6230 N   0  0  0  0  0  0  0  0  0  0  0  0
  142.7480   79.4100  222.4700 N   0  0  0  0  0  0  0  0  0  0  0  0
  141.5380   78.8590  222.5800 C   0  0  0  0  0  0  0  0  0  0  0  0
  141.1160   77.5420  222.5010 C   0  0  0  0  0  0  0  0  0  0  0  0
  139.3800   72.9250  222.3340 C   0  0  0  0  0  0  0  0  0  0  0  0
  139.0980   69.5170  223.6550 N   0  0  0  0  0  0  0  0  0  0  0  0
  140.6665   68.5868  229.5377 H   0  0  0  0  0  0  0  0  0  0  0  0
  141.6225   67.2345  228.8421 H   0  0  0  0  0  0  0  0  0  0  0  0
  142.2924   68.9012  228.8421 H   0  0  0  0  0  0  0  0  0  0  0  0
  139.9987   66.5430  227.2134 H   0  0  0  0  0  0  0  0  0  0  0  0
  138.9678   66.9330  225.0121 H   0  0  0  0  0  0  0  0  0  0  0  0
  141.3578   70.6031  227.2858 H   0  0  0  0  0  0  0  0  0  0  0  0
  139.6883   72.0442  225.2227 H   0  0  0  0  0  0  0  0  0  0  0  0
  141.1980   71.6251  224.4580 H   0  0  0  0  0  0  0  0  0  0  0  0
  138.2314   69.9696  221.2516 H   0  0  0  0  0  0  0  0  0  0  0  0
  137.6476   71.3457  219.2873 H   0  0  0  0  0  0  0  0  0  0  0  0
  138.1970   73.7490  219.3092 H   0  0  0  0  0  0  0  0  0  0  0  0
  139.2290   75.3570  223.4600 H   0  0  0  0  0  0  0  0  0  0  0  0
  137.8171   77.9373  222.9959 H   0  0  0  0  0  0  0  0  0  0  0  0
  138.5061   80.3142  223.1488 H   0  0  0  0  0  0  0  0  0  0  0  0
  140.9091   82.0454  222.9947 H   0  0  0  0  0  0  0  0  0  0  0  0
  143.6610   78.9260  222.2940 H   0  0  0  0  0  0  0  0  0  0  0  0
  141.8523   76.7460  222.3160 H   0  0  0  0  0  0  0  0  0  0  0  0
  139.8742   73.3850  223.2024 H   0  0  0  0  0  0  0  0  0  0  0  0
  1  2  1  0
  2  3  2  0
  3  4  1  0
  4  5  2  0
  5  6  1  0
  6  7  2  0
  6  8  1  0
  8  9  1  0
  9 10  1  0
 10 11  2  0
 11 12  1  0
 12 13  2  0
 13 14  1  0
 14 15  1  0
 15 16  2  0
 15 17  1  0
 17 18  1  0
 18 19  2  0
 19 20  1  0
 20 21  2  0
 21 22  1  0
 22 23  2  0
 23 24  1  0
 24 25  1  0
 25 26  2  0
 14 27  2  0
  9 28  2  0
  7  2  1  0
 27 10  1  0
 28  5  1  0
 26 18  1  0
 25 21  1  0
  1 29  1  0
  1 30  1  0
  1 31  1  0
  3 32  1  0
  4 33  1  0
  7 34  1  0
  8 35  1  0
  8 36  1  0
 11 37  1  0
 12 38  1  0
 13 39  1  0
 17 40  1  0
 19 41  1  0
 20 42  1  0
 22 43  1  0
 24 44  1  0
 26 45  1  0
 27 46  1  0
M  END
>  <smiles>  (29) 
Cc1ccc2c(c1)CC(c1cccc(C(=O)Nc3ccc4cn[nH]c4c3)c1)=N2

>  <score_type>  (29) 
oracle

>  <origin>  (29) 
autodockgpu

>  <m_score__min__energy>  (29) 
-9.4399999999999995

>  <m_primary>  (29) 
energy

>  <rmsd>  (29) 
7.611478662383132

>  <m_score__min__rmsd>  (29) 
7.611478662383132

>  <meeko>  (29) 
{"free_energy": -9.1, "intermolecular_energy": -9.99, "internal_energy": -0.73, "cluster_size": 50, "cluster_id": 1, "rank_in_cluster": 43}

>  <energy>  (29) 
-9.33

>  <cluster_rmsd>  (29) 
0.13

>  <cluster>  (29) 
1

$$$$

     RDKit          3D

 46 50  0  0  0  0  0  0  0  0999 V2000
  141.2850   68.3410  228.7830 C   0  0  0  0  0  0  0  0  0  0  0  0
  140.6720   68.6210  227.4580 C   0  0  0  0  0  0  0  0  0  0  0  0
  139.8930   67.6620  226.8200 C   0  0  0  0  0  0  0  0  0  0  0  0
  139.3170   67.9120  225.5860 C   0  0  0  0  0  0  0  0  0  0  0  0
  139.4920   69.1190  224.9380 C   0  0  0  0  0  0  0  0  0  0  0  0
  140.2660   70.0740  225.5680 C   0  0  0  0  0  0  0  0  0  0  0  0
  140.8440   69.8250  226.8060 C   0  0  0  0  0  0  0  0  0  0  0  0
  140.3220   71.2830  224.7050 C   0  0  0  0  0  0  0  0  0  0  0  0
  139.4920   70.8690  223.5440 C   0  0  0  0  0  0  0  0  0  0  0  0
  139.2160   71.7060  222.3810 C   0  0  0  0  0  0  0  0  0  0  0  0
  138.6480   71.1680  221.2290 C   0  0  0  0  0  0  0  0  0  0  0  0
  138.3760   71.9280  220.1220 C   0  0  0  0  0  0  0  0  0  0  0  0
  138.6840   73.2650  220.1700 C   0  0  0  0  0  0  0  0  0  0  0  0
  139.2390   73.8580  221.2580 C   0  0  0  0  0  0  0  0  0  0  0  0
  139.5790   75.2630  221.3560 C   0  0  0  0  0  0  0  0  0  0  0  0
  139.9470   75.9360  220.3560 O   0  0  0  0  0  0  0  0  0  0  0  0
  139.5120   75.9530  222.5970 N   0  0  0  0  0  0  0  0  0  0  0  0
  139.8440   77.3450  222.7200 C   0  0  0  0  0  0  0  0  0  0  0  0
  138.9310   78.3190  222.9810 C   0  0  0  0  0  0  0  0  0  0  0  0
  139.2990   79.6460  223.0900 C   0  0  0  0  0  0  0  0  0  0  0  0
  140.6290   79.9780  222.9270 C   0  0  0  0  0  0  0  0  0  0  0  0
  141.3480   81.1690  222.9650 C   0  0  0  0  0  0  0  0  0  0  0  0
  142.6510   80.8670  222.7270 N   0  0  0  0  0  0  0  0  0  0  0  0
  142.7870   79.5620  222.5440 N   0  0  0  0  0  0  0  0  0  0  0  0
  141.5820   79.0000  222.6590 C   0  0  0  0  0  0  0  0  0  0  0  0
  141.1670   77.6820  222.5580 C   0  0  0  0  0  0  0  0  0  0  0  0
  139.4970   73.0450  222.3640 C   0  0  0  0  0  0  0  0  0  0  0  0
  139.0480   69.6680  223.7020 N   0  0  0  0  0  0  0  0  0  0  0  0
  140.5954   68.6560  229.5800 H   0  0  0  0  0  0  0  0  0  0  0  0
  141.4835   67.2630  228.8747 H   0  0  0  0  0  0  0  0  0  0  0  0
  142.2298   68.8969  228.8747 H   0  0  0  0  0  0  0  0  0  0  0  0
  139.7315   66.6876  227.3042 H   0  0  0  0  0  0  0  0  0  0  0  0
  138.7056   67.1309  225.1105 H   0  0  0  0  0  0  0  0  0  0  0  0
  141.4548   70.6079  227.2792 H   0  0  0  0  0  0  0  0  0  0  0  0
  139.8908   72.1579  225.2135 H   0  0  0  0  0  0  0  0  0  0  0  0
  141.3433   71.5895  224.4347 H   0  0  0  0  0  0  0  0  0  0  0  0
  138.4092   70.0945  221.2070 H   0  0  0  0  0  0  0  0  0  0  0  0
  137.9253   71.4812  219.2235 H   0  0  0  0  0  0  0  0  0  0  0  0
  138.4713   73.8844  219.2862 H   0  0  0  0  0  0  0  0  0  0  0  0
  139.2190   75.4870  223.4830 H   0  0  0  0  0  0  0  0  0  0  0  0
  137.8738   78.0432  223.1084 H   0  0  0  0  0  0  0  0  0  0  0  0
  138.5483   80.4216  223.3021 H   0  0  0  0  0  0  0  0  0  0  0  0
  140.9365   82.1716  223.1533 H   0  0  0  0  0  0  0  0  0  0  0  0
  143.7000   79.0890  222.3440 H   0  0  0  0  0  0  0  0  0  0  0  0
  141.9056   76.8950  222.3454 H   0  0  0  0  0  0  0  0  0  0  0  0
  139.9451   73.5005  223.2594 H   0  0  0  0  0  0  0  0  0  0  0  0
  1  2  1  0
  2  3  2  0
  3  4  1  0
  4  5  2  0
  5  6  1  0
  6  7  2  0
  6  8  1  0
  8  9  1  0
  9 10  1  0
 10 11  2  0
 11 12  1  0
 12 13  2  0
 13 14  1  0
 14 15  1  0
 15 16  2  0
 15 17  1  0
 17 18  1  0
 18 19  2  0
 19 20  1  0
 20 21  2  0
 21 22  1  0
 22 23  2  0
 23 24  1  0
 24 25  1  0
 25 26  2  0
 14 27  2  0
  9 28  2  0
  7  2  1  0
 27 10  1  0
 28  5  1  0
 26 18  1  0
 25 21  1  0
  1 29  1  0
  1 30  1  0
  1 31  1  0
  3 32  1  0
  4 33  1  0
  7 34  1  0
  8 35  1  0
  8 36  1  0
 11 37  1  0
 12 38  1  0
 13 39  1  0
 17 40  1  0
 19 41  1  0
 20 42  1  0
 22 43  1  0
 24 44  1  0
 26 45  1  0
 27 46  1  0
M  END
>  <smiles>  (30) 
Cc1ccc2c(c1)CC(c1cccc(C(=O)Nc3ccc4cn[nH]c4c3)c1)=N2

>  <score_type>  (30) 
oracle

>  <origin>  (30) 
autodockgpu

>  <m_score__min__energy>  (30) 
-9.4399999999999995

>  <m_primary>  (30) 
energy

>  <rmsd>  (30) 
7.598176470552504

>  <m_score__min__rmsd>  (30) 
7.598176470552504

>  <meeko>  (30) 
{"free_energy": -9.24, "intermolecular_energy": -10.13, "internal_energy": -0.72, "cluster_size": 50, "cluster_id": 1, "rank_in_cluster": 41}

>  <energy>  (30) 
-9.33

>  <cluster_rmsd>  (30) 
0.19

>  <cluster>  (30) 
1

$$$$

     RDKit          3D

 46 50  0  0  0  0  0  0  0  0999 V2000
  141.2140   68.2170  228.8710 C   0  0  0  0  0  0  0  0  0  0  0  0
  140.6520   68.5360  227.5320 C   0  0  0  0  0  0  0  0  0  0  0  0
  139.7690   67.6620  226.9070 C   0  0  0  0  0  0  0  0  0  0  0  0
  139.2400   67.9490  225.6600 C   0  0  0  0  0  0  0  0  0  0  0  0
  139.5650   69.1100  224.9860 C   0  0  0  0  0  0  0  0  0  0  0  0
  140.4420   69.9800  225.6040 C   0  0  0  0  0  0  0  0  0  0  0  0
  140.9740   69.6940  226.8550 C   0  0  0  0  0  0  0  0  0  0  0  0
  140.6520   71.1520  224.7140 C   0  0  0  0  0  0  0  0  0  0  0  0
  139.7900   70.8130  223.5520 C   0  0  0  0  0  0  0  0  0  0  0  0
  139.6290   71.6480  222.3670 C   0  0  0  0  0  0  0  0  0  0  0  0
  139.2070   71.1020  221.1570 C   0  0  0  0  0  0  0  0  0  0  0  0
  139.0450   71.8600  220.0270 C   0  0  0  0  0  0  0  0  0  0  0  0
  139.3150   73.2040  220.1120 C   0  0  0  0  0  0  0  0  0  0  0  0
  139.7290   73.8040  221.2570 C   0  0  0  0  0  0  0  0  0  0  0  0
  140.0240   75.2160  221.3950 C   0  0  0  0  0  0  0  0  0  0  0  0
  140.6170   75.8690  220.4950 O   0  0  0  0  0  0  0  0  0  0  0  0
  139.6530   75.9360  222.5630 N   0  0  0  0  0  0  0  0  0  0  0  0
  139.9340   77.3350  222.7230 C   0  0  0  0  0  0  0  0  0  0  0  0
  138.9890   78.2650  223.0280 C   0  0  0  0  0  0  0  0  0  0  0  0
  139.3080   79.6010  223.1720 C   0  0  0  0  0  0  0  0  0  0  0  0
  140.6220   79.9890  222.9990 C   0  0  0  0  0  0  0  0  0  0  0  0
  141.2960   81.2060  223.0620 C   0  0  0  0  0  0  0  0  0  0  0  0
  142.6050   80.9610  222.7950 N   0  0  0  0  0  0  0  0  0  0  0  0
  142.7870   79.6680  222.5700 N   0  0  0  0  0  0  0  0  0  0  0  0
  141.6060   79.0580  222.6860 C   0  0  0  0  0  0  0  0  0  0  0  0
  141.2410   77.7280  222.5510 C   0  0  0  0  0  0  0  0  0  0  0  0
  139.8790   72.9930  222.3830 C   0  0  0  0  0  0  0  0  0  0  0  0
  139.2020   69.6780  223.7330 N   0  0  0  0  0  0  0  0  0  0  0  0
  140.5403   68.5994  229.6520 H   0  0  0  0  0  0  0  0  0  0  0  0
  141.3154   67.1267  228.9758 H   0  0  0  0  0  0  0  0  0  0  0  0
  142.2021   68.6889  228.9758 H   0  0  0  0  0  0  0  0  0  0  0  0
  139.4860   66.7267  227.4120 H   0  0  0  0  0  0  0  0  0  0  0  0
  138.5442   67.2352  225.1949 H   0  0  0  0  0  0  0  0  0  0  0  0
  141.6699   70.4093  227.3176 H   0  0  0  0  0  0  0  0  0  0  0  0
  140.3243   72.0846  225.1966 H   0  0  0  0  0  0  0  0  0  0  0  0
  141.7055   71.3264  224.4499 H   0  0  0  0  0  0  0  0  0  0  0  0
  138.9962   70.0236  221.1068 H   0  0  0  0  0  0  0  0  0  0  0  0
  138.7096   71.4068  219.0825 H   0  0  0  0  0  0  0  0  0  0  0  0
  139.1900   73.8224  219.2109 H   0  0  0  0  0  0  0  0  0  0  0  0
  139.1580   75.4880  223.3650 H   0  0  0  0  0  0  0  0  0  0  0  0
  137.9453   77.9450  223.1632 H   0  0  0  0  0  0  0  0  0  0  0  0
  138.5319   80.3403  223.4192 H   0  0  0  0  0  0  0  0  0  0  0  0
  140.8500   82.1861  223.2868 H   0  0  0  0  0  0  0  0  0  0  0  0
  143.7140   79.2360  222.3420 H   0  0  0  0  0  0  0  0  0  0  0  0
  142.0058   76.9773  222.3032 H   0  0  0  0  0  0  0  0  0  0  0  0
  140.2126   73.4552  223.3238 H   0  0  0  0  0  0  0  0  0  0  0  0
  1  2  1  0
  2  3  2  0
  3  4  1  0
  4  5  2  0
  5  6  1  0
  6  7  2  0
  6  8  1  0
  8  9  1  0
  9 10  1  0
 10 11  2  0
 11 12  1  0
 12 13  2  0
 13 14  1  0
 14 15  1  0
 15 16  2  0
 15 17  1  0
 17 18  1  0
 18 19  2  0
 19 20  1  0
 20 21  2  0
 21 22  1  0
 22 23  2  0
 23 24  1  0
 24 25  1  0
 25 26  2  0
 14 27  2  0
  9 28  2  0
  7  2  1  0
 27 10  1  0
 28  5  1  0
 26 18  1  0
 25 21  1  0
  1 29  1  0
  1 30  1  0
  1 31  1  0
  3 32  1  0
  4 33  1  0
  7 34  1  0
  8 35  1  0
  8 36  1  0
 11 37  1  0
 12 38  1  0
 13 39  1  0
 17 40  1  0
 19 41  1  0
 20 42  1  0
 22 43  1  0
 24 44  1  0
 26 45  1  0
 27 46  1  0
M  END
>  <smiles>  (31) 
Cc1ccc2c(c1)CC(c1cccc(C(=O)Nc3ccc4cn[nH]c4c3)c1)=N2

>  <score_type>  (31) 
oracle

>  <origin>  (31) 
autodockgpu

>  <m_score__min__energy>  (31) 
-9.4399999999999995

>  <m_primary>  (31) 
energy

>  <rmsd>  (31) 
7.638348079910753

>  <m_score__min__rmsd>  (31) 
7.638348079910753

>  <meeko>  (31) 
{"free_energy": -9.37, "intermolecular_energy": -10.26, "internal_energy": -0.67, "cluster_size": 50, "cluster_id": 1, "rank_in_cluster": 16}

>  <energy>  (31) 
-9.33

>  <cluster_rmsd>  (31) 
0.15

>  <cluster>  (31) 
1

$$$$

     RDKit          3D

 46 50  0  0  0  0  0  0  0  0999 V2000
  141.1470   68.1940  228.8460 C   0  0  0  0  0  0  0  0  0  0  0  0
  140.5910   68.5170  227.5050 C   0  0  0  0  0  0  0  0  0  0  0  0
  139.7170   67.6420  226.8700 C   0  0  0  0  0  0  0  0  0  0  0  0
  139.1920   67.9330  225.6220 C   0  0  0  0  0  0  0  0  0  0  0  0
  139.5140   69.1000  224.9570 C   0  0  0  0  0  0  0  0  0  0  0  0
  140.3820   69.9710  225.5850 C   0  0  0  0  0  0  0  0  0  0  0  0
  140.9090   69.6820  226.8370 C   0  0  0  0  0  0  0  0  0  0  0  0
  140.5900   71.1500  224.7030 C   0  0  0  0  0  0  0  0  0  0  0  0
  139.7370   70.8120  223.5340 C   0  0  0  0  0  0  0  0  0  0  0  0
  139.5760   71.6530  222.3530 C   0  0  0  0  0  0  0  0  0  0  0  0
  139.1510   71.1140  221.1420 C   0  0  0  0  0  0  0  0  0  0  0  0
  138.9900   71.8780  220.0150 C   0  0  0  0  0  0  0  0  0  0  0  0
  139.2650   73.2200  220.1060 C   0  0  0  0  0  0  0  0  0  0  0  0
  139.6830   73.8140  221.2520 C   0  0  0  0  0  0  0  0  0  0  0  0
  139.9840   75.2240  221.3960 C   0  0  0  0  0  0  0  0  0  0  0  0
  140.5820   75.8780  220.5000 O   0  0  0  0  0  0  0  0  0  0  0  0
  139.6140   75.9410  222.5670 N   0  0  0  0  0  0  0  0  0  0  0  0
  139.9000   77.3390  222.7330 C   0  0  0  0  0  0  0  0  0  0  0  0
  138.9600   78.2710  223.0470 C   0  0  0  0  0  0  0  0  0  0  0  0
  139.2850   79.6050  223.1960 C   0  0  0  0  0  0  0  0  0  0  0  0
  140.5990   79.9890  223.0180 C   0  0  0  0  0  0  0  0  0  0  0  0
  141.2770   81.2030  223.0850 C   0  0  0  0  0  0  0  0  0  0  0  0
  142.5850   80.9550  222.8100 N   0  0  0  0  0  0  0  0  0  0  0  0
  142.7600   79.6630  222.5770 N   0  0  0  0  0  0  0  0  0  0  0  0
  141.5780   79.0550  222.6960 C   0  0  0  0  0  0  0  0  0  0  0  0
  141.2070   77.7280  222.5560 C   0  0  0  0  0  0  0  0  0  0  0  0
  139.8320   72.9970  222.3750 C   0  0  0  0  0  0  0  0  0  0  0  0
  139.1550   69.6720  223.7050 N   0  0  0  0  0  0  0  0  0  0  0  0
  140.4755   68.5841  229.6250 H   0  0  0  0  0  0  0  0  0  0  0  0
  141.2372   67.1029  228.9524 H   0  0  0  0  0  0  0  0  0  0  0  0
  142.1395   68.6561  228.9524 H   0  0  0  0  0  0  0  0  0  0  0  0
  139.4375   66.7017  227.3677 H   0  0  0  0  0  0  0  0  0  0  0  0
  138.5025   67.2181  225.1493 H   0  0  0  0  0  0  0  0  0  0  0  0
  141.5970   70.3995  227.3079 H   0  0  0  0  0  0  0  0  0  0  0  0
  140.2535   72.0777  225.1890 H   0  0  0  0  0  0  0  0  0  0  0  0
  141.6439   71.3329  224.4464 H   0  0  0  0  0  0  0  0  0  0  0  0
  138.9366   70.0365  221.0873 H   0  0  0  0  0  0  0  0  0  0  0  0
  138.6516   71.4304  219.0689 H   0  0  0  0  0  0  0  0  0  0  0  0
  139.1406   73.8428  219.2078 H   0  0  0  0  0  0  0  0  0  0  0  0
  139.1150   75.4930  223.3650 H   0  0  0  0  0  0  0  0  0  0  0  0
  137.9157   77.9544  223.1856 H   0  0  0  0  0  0  0  0  0  0  0  0
  138.5131   80.3460  223.4511 H   0  0  0  0  0  0  0  0  0  0  0  0
  140.8353   82.1832  223.3178 H   0  0  0  0  0  0  0  0  0  0  0  0
  143.6850   79.2290  222.3430 H   0  0  0  0  0  0  0  0  0  0  0  0
  141.9675   76.9757  222.3000 H   0  0  0  0  0  0  0  0  0  0  0  0
  140.1695   73.4534  223.3172 H   0  0  0  0  0  0  0  0  0  0  0  0
  1  2  1  0
  2  3  2  0
  3  4  1  0
  4  5  2  0
  5  6  1  0
  6  7  2  0
  6  8  1  0
  8  9  1  0
  9 10  1  0
 10 11  2  0
 11 12  1  0
 12 13  2  0
 13 14  1  0
 14 15  1  0
 15 16  2  0
 15 17  1  0
 17 18  1  0
 18 19  2  0
 19 20  1  0
 20 21  2  0
 21 22  1  0
 22 23  2  0
 23 24  1  0
 24 25  1  0
 25 26  2  0
 14 27  2  0
  9 28  2  0
  7  2  1  0
 27 10  1  0
 28  5  1  0
 26 18  1  0
 25 21  1  0
  1 29  1  0
  1 30  1  0
  1 31  1  0
  3 32  1  0
  4 33  1  0
  7 34  1  0
  8 35  1  0
  8 36  1  0
 11 37  1  0
 12 38  1  0
 13 39  1  0
 17 40  1  0
 19 41  1  0
 20 42  1  0
 22 43  1  0
 24 44  1  0
 26 45  1  0
 27 46  1  0
M  END
>  <smiles>  (32) 
Cc1ccc2c(c1)CC(c1cccc(C(=O)Nc3ccc4cn[nH]c4c3)c1)=N2

>  <score_type>  (32) 
oracle

>  <origin>  (32) 
autodockgpu

>  <m_score__min__energy>  (32) 
-9.4399999999999995

>  <m_primary>  (32) 
energy

>  <rmsd>  (32) 
7.640740494762396

>  <m_score__min__rmsd>  (32) 
7.640740494762396

>  <meeko>  (32) 
{"free_energy": -9.36, "intermolecular_energy": -10.26, "internal_energy": -0.67, "cluster_size": 50, "cluster_id": 1, "rank_in_cluster": 19}

>  <energy>  (32) 
-9.31

>  <cluster_rmsd>  (32) 
0.25

>  <cluster>  (32) 
1

$$$$

     RDKit          3D

 46 50  0  0  0  0  0  0  0  0999 V2000
  141.2440   68.2410  228.8280 C   0  0  0  0  0  0  0  0  0  0  0  0
  140.6710   68.5580  227.4930 C   0  0  0  0  0  0  0  0  0  0  0  0
  139.7820   67.6840  226.8770 C   0  0  0  0  0  0  0  0  0  0  0  0
  139.2410   67.9690  225.6350 C   0  0  0  0  0  0  0  0  0  0  0  0
  139.5620   69.1290  224.9560 C   0  0  0  0  0  0  0  0  0  0  0  0
  140.4460   69.9990  225.5650 C   0  0  0  0  0  0  0  0  0  0  0  0
  140.9880   69.7150  226.8110 C   0  0  0  0  0  0  0  0  0  0  0  0
  140.6490   71.1690  224.6700 C   0  0  0  0  0  0  0  0  0  0  0  0
  139.7770   70.8280  223.5160 C   0  0  0  0  0  0  0  0  0  0  0  0
  139.6050   71.6620  222.3310 C   0  0  0  0  0  0  0  0  0  0  0  0
  139.1870   71.1110  221.1220 C   0  0  0  0  0  0  0  0  0  0  0  0
  139.0170   71.8670  219.9920 C   0  0  0  0  0  0  0  0  0  0  0  0
  139.2730   73.2130  220.0760 C   0  0  0  0  0  0  0  0  0  0  0  0
  139.6830   73.8180  221.2200 C   0  0  0  0  0  0  0  0  0  0  0  0
  139.9650   75.2330  221.3570 C   0  0  0  0  0  0  0  0  0  0  0  0
  140.5030   75.9030  220.4350 O   0  0  0  0  0  0  0  0  0  0  0  0
  139.6430   75.9370  222.5500 N   0  0  0  0  0  0  0  0  0  0  0  0
  139.9110   77.3380  222.7090 C   0  0  0  0  0  0  0  0  0  0  0  0
  138.9610   78.2590  223.0250 C   0  0  0  0  0  0  0  0  0  0  0  0
  139.2680   79.5970  223.1690 C   0  0  0  0  0  0  0  0  0  0  0  0
  140.5760   79.9980  222.9820 C   0  0  0  0  0  0  0  0  0  0  0  0
  141.2390   81.2210  223.0410 C   0  0  0  0  0  0  0  0  0  0  0  0
  142.5480   80.9900  222.7610 N   0  0  0  0  0  0  0  0  0  0  0  0
  142.7400   79.6990  222.5320 N   0  0  0  0  0  0  0  0  0  0  0  0
  141.5660   79.0770  222.6590 C   0  0  0  0  0  0  0  0  0  0  0  0
  141.2120   77.7440  222.5250 C   0  0  0  0  0  0  0  0  0  0  0  0
  139.8430   73.0090  222.3470 C   0  0  0  0  0  0  0  0  0  0  0  0
  139.1890   69.6940  223.7040 N   0  0  0  0  0  0  0  0  0  0  0  0
  140.5706   68.6136  229.6139 H   0  0  0  0  0  0  0  0  0  0  0  0
  141.3579   67.1516  228.9288 H   0  0  0  0  0  0  0  0  0  0  0  0
  142.2274   68.7234  228.9288 H   0  0  0  0  0  0  0  0  0  0  0  0
  139.5036   66.7493  227.3858 H   0  0  0  0  0  0  0  0  0  0  0  0
  138.5394   67.2556  225.1780 H   0  0  0  0  0  0  0  0  0  0  0  0
  141.6883   70.4307  227.2665 H   0  0  0  0  0  0  0  0  0  0  0  0
  140.3260   72.1030  225.1531 H   0  0  0  0  0  0  0  0  0  0  0  0
  141.7003   71.3419  224.3965 H   0  0  0  0  0  0  0  0  0  0  0  0
  138.9862   70.0306  221.0726 H   0  0  0  0  0  0  0  0  0  0  0  0
  138.6860   71.4100  219.0478 H   0  0  0  0  0  0  0  0  0  0  0  0
  139.1398   73.8297  219.1749 H   0  0  0  0  0  0  0  0  0  0  0  0
  139.1950   75.4740  223.3700 H   0  0  0  0  0  0  0  0  0  0  0  0
  137.9216   77.9290  223.1694 H   0  0  0  0  0  0  0  0  0  0  0  0
  138.4876   80.3280  223.4272 H   0  0  0  0  0  0  0  0  0  0  0  0
  140.7856   82.1962  223.2721 H   0  0  0  0  0  0  0  0  0  0  0  0
  143.6690   79.2770  222.2940 H   0  0  0  0  0  0  0  0  0  0  0  0
  141.9815   77.0011  222.2682 H   0  0  0  0  0  0  0  0  0  0  0  0
  140.1743   73.4744  223.2870 H   0  0  0  0  0  0  0  0  0  0  0  0
  1  2  1  0
  2  3  2  0
  3  4  1  0
  4  5  2  0
  5  6  1  0
  6  7  2  0
  6  8  1  0
  8  9  1  0
  9 10  1  0
 10 11  2  0
 11 12  1  0
 12 13  2  0
 13 14  1  0
 14 15  1  0
 15 16  2  0
 15 17  1  0
 17 18  1  0
 18 19  2  0
 19 20  1  0
 20 21  2  0
 21 22  1  0
 22 23  2  0
 23 24  1  0
 24 25  1  0
 25 26  2  0
 14 27  2  0
  9 28  2  0
  7  2  1  0
 27 10  1  0
 28  5  1  0
 26 18  1  0
 25 21  1  0
  1 29  1  0
  1 30  1  0
  1 31  1  0
  3 32  1  0
  4 33  1  0
  7 34  1  0
  8 35  1  0
  8 36  1  0
 11 37  1  0
 12 38  1  0
 13 39  1  0
 17 40  1  0
 19 41  1  0
 20 42  1  0
 22 43  1  0
 24 44  1  0
 26 45  1  0
 27 46  1  0
M  END
>  <smiles>  (33) 
Cc1ccc2c(c1)CC(c1cccc(C(=O)Nc3ccc4cn[nH]c4c3)c1)=N2

>  <score_type>  (33) 
oracle

>  <origin>  (33) 
autodockgpu

>  <m_score__min__energy>  (33) 
-9.4399999999999995

>  <m_primary>  (33) 
energy

>  <rmsd>  (33) 
7.632309295591292

>  <m_score__min__rmsd>  (33) 
7.632309295591292

>  <meeko>  (33) 
{"free_energy": -9.33, "intermolecular_energy": -10.23, "internal_energy": -0.68, "cluster_size": 50, "cluster_id": 1, "rank_in_cluster": 28}

>  <energy>  (33) 
-9.31

>  <cluster_rmsd>  (33) 
0.17

>  <cluster>  (33) 
1

$$$$

     RDKit          3D

 46 50  0  0  0  0  0  0  0  0999 V2000
  141.1720   68.2380  228.8560 C   0  0  0  0  0  0  0  0  0  0  0  0
  140.6300   68.5560  227.5090 C   0  0  0  0  0  0  0  0  0  0  0  0
  139.7590   67.6810  226.8700 C   0  0  0  0  0  0  0  0  0  0  0  0
  139.2480   67.9670  225.6160 C   0  0  0  0  0  0  0  0  0  0  0  0
  139.5800   69.1290  224.9480 C   0  0  0  0  0  0  0  0  0  0  0  0
  140.4450   70.0010  225.5800 C   0  0  0  0  0  0  0  0  0  0  0  0
  140.9580   69.7160  226.8380 C   0  0  0  0  0  0  0  0  0  0  0  0
  140.6650   71.1750  224.6930 C   0  0  0  0  0  0  0  0  0  0  0  0
  139.8220   70.8340  223.5180 C   0  0  0  0  0  0  0  0  0  0  0  0
  139.6760   71.6700  222.3310 C   0  0  0  0  0  0  0  0  0  0  0  0
  139.2820   71.1210  221.1130 C   0  0  0  0  0  0  0  0  0  0  0  0
  139.1350   71.8800  219.9820 C   0  0  0  0  0  0  0  0  0  0  0  0
  139.3910   73.2260  220.0740 C   0  0  0  0  0  0  0  0  0  0  0  0
  139.7780   73.8290  221.2270 C   0  0  0  0  0  0  0  0  0  0  0  0
  140.0580   75.2420  221.3730 C   0  0  0  0  0  0  0  0  0  0  0  0
  140.6330   75.9100  220.4710 O   0  0  0  0  0  0  0  0  0  0  0  0
  139.6930   75.9490  222.5510 N   0  0  0  0  0  0  0  0  0  0  0  0
  139.9590   77.3500  222.7190 C   0  0  0  0  0  0  0  0  0  0  0  0
  139.0040   78.2690  223.0290 C   0  0  0  0  0  0  0  0  0  0  0  0
  139.3100   79.6070  223.1800 C   0  0  0  0  0  0  0  0  0  0  0  0
  140.6190   80.0090  223.0090 C   0  0  0  0  0  0  0  0  0  0  0  0
  141.2800   81.2330  223.0790 C   0  0  0  0  0  0  0  0  0  0  0  0
  142.5920   81.0030  222.8110 N   0  0  0  0  0  0  0  0  0  0  0  0
  142.7870   79.7140  222.5780 N   0  0  0  0  0  0  0  0  0  0  0  0
  141.6130   79.0900  222.6910 C   0  0  0  0  0  0  0  0  0  0  0  0
  141.2610   77.7570  222.5490 C   0  0  0  0  0  0  0  0  0  0  0  0
  139.9140   73.0160  222.3550 C   0  0  0  0  0  0  0  0  0  0  0  0
  139.2350   69.6970  223.6890 N   0  0  0  0  0  0  0  0  0  0  0  0
  140.4951   68.6352  229.6267 H   0  0  0  0  0  0  0  0  0  0  0  0
  141.2565   67.1471  228.9691 H   0  0  0  0  0  0  0  0  0  0  0  0
  142.1655   68.6964  228.9691 H   0  0  0  0  0  0  0  0  0  0  0  0
  139.4708   66.7446  227.3700 H   0  0  0  0  0  0  0  0  0  0  0  0
  138.5611   67.2517  225.1402 H   0  0  0  0  0  0  0  0  0  0  0  0
  141.6437   70.4336  227.3121 H   0  0  0  0  0  0  0  0  0  0  0  0
  140.3271   72.1064  225.1709 H   0  0  0  0  0  0  0  0  0  0  0  0
  141.7218   71.3527  224.4450 H   0  0  0  0  0  0  0  0  0  0  0  0
  139.0820   70.0408  221.0573 H   0  0  0  0  0  0  0  0  0  0  0  0
  138.8218   71.4257  219.0304 H   0  0  0  0  0  0  0  0  0  0  0  0
  139.2772   73.8444  219.1714 H   0  0  0  0  0  0  0  0  0  0  0  0
  139.2120   75.4890  223.3540 H   0  0  0  0  0  0  0  0  0  0  0  0
  137.9635   77.9379  223.1625 H   0  0  0  0  0  0  0  0  0  0  0  0
  138.5267   80.3372  223.4313 H   0  0  0  0  0  0  0  0  0  0  0  0
  140.8236   82.2071  223.3090 H   0  0  0  0  0  0  0  0  0  0  0  0
  143.7190   79.2930  222.3480 H   0  0  0  0  0  0  0  0  0  0  0  0
  142.0333   77.0153  222.2971 H   0  0  0  0  0  0  0  0  0  0  0  0
  140.2259   73.4787  223.3030 H   0  0  0  0  0  0  0  0  0  0  0  0
  1  2  1  0
  2  3  2  0
  3  4  1  0
  4  5  2  0
  5  6  1  0
  6  7  2  0
  6  8  1  0
  8  9  1  0
  9 10  1  0
 10 11  2  0
 11 12  1  0
 12 13  2  0
 13 14  1  0
 14 15  1  0
 15 16  2  0
 15 17  1  0
 17 18  1  0
 18 19  2  0
 19 20  1  0
 20 21  2  0
 21 22  1  0
 22 23  2  0
 23 24  1  0
 24 25  1  0
 25 26  2  0
 14 27  2  0
  9 28  2  0
  7  2  1  0
 27 10  1  0
 28  5  1  0
 26 18  1  0
 25 21  1  0
  1 29  1  0
  1 30  1  0
  1 31  1  0
  3 32  1  0
  4 33  1  0
  7 34  1  0
  8 35  1  0
  8 36  1  0
 11 37  1  0
 12 38  1  0
 13 39  1  0
 17 40  1  0
 19 41  1  0
 20 42  1  0
 22 43  1  0
 24 44  1  0
 26 45  1  0
 27 46  1  0
M  END
>  <smiles>  (34) 
Cc1ccc2c(c1)CC(c1cccc(C(=O)Nc3ccc4cn[nH]c4c3)c1)=N2

>  <score_type>  (34) 
oracle

>  <origin>  (34) 
autodockgpu

>  <m_score__min__energy>  (34) 
-9.4399999999999995

>  <m_primary>  (34) 
energy

>  <rmsd>  (34) 
7.633276084278133

>  <m_score__min__rmsd>  (34) 
7.633276084278133

>  <meeko>  (34) 
{"free_energy": -9.37, "intermolecular_energy": -10.26, "internal_energy": -0.68, "cluster_size": 50, "cluster_id": 1, "rank_in_cluster": 17}

>  <energy>  (34) 
-9.3

>  <cluster_rmsd>  (34) 
0.18

>  <cluster>  (34) 
1

$$$$

     RDKit          3D

 46 50  0  0  0  0  0  0  0  0999 V2000
  140.7950   68.2280  228.5960 C   0  0  0  0  0  0  0  0  0  0  0  0
  140.3820   68.6360  227.2270 C   0  0  0  0  0  0  0  0  0  0  0  0
  139.5760   67.8090  226.4530 C   0  0  0  0  0  0  0  0  0  0  0  0
  139.1850   68.1790  225.1780 C   0  0  0  0  0  0  0  0  0  0  0  0
  139.5780   69.3810  224.6220 C   0  0  0  0  0  0  0  0  0  0  0  0
  140.3780   70.2050  225.3880 C   0  0  0  0  0  0  0  0  0  0  0  0
  140.7710   69.8360  226.6680 C   0  0  0  0  0  0  0  0  0  0  0  0
  140.6800   71.4330  224.6050 C   0  0  0  0  0  0  0  0  0  0  0  0
  139.9520   71.1740  223.3360 C   0  0  0  0  0  0  0  0  0  0  0  0
  139.9170   72.0870  222.1980 C   0  0  0  0  0  0  0  0  0  0  0  0
  139.8190   71.6040  220.8960 C   0  0  0  0  0  0  0  0  0  0  0  0
  139.7830   72.4350  219.8070 C   0  0  0  0  0  0  0  0  0  0  0  0
  139.8500   73.7890  220.0300 C   0  0  0  0  0  0  0  0  0  0  0  0
  139.9470   74.3300  221.2710 C   0  0  0  0  0  0  0  0  0  0  0  0
  140.0190   75.7480  221.5560 C   0  0  0  0  0  0  0  0  0  0  0  0
  139.0020   76.4930  221.5220 O   0  0  0  0  0  0  0  0  0  0  0  0
  141.2520   76.3720  221.8910 N   0  0  0  0  0  0  0  0  0  0  0  0
  141.3490   77.7760  222.1780 C   0  0  0  0  0  0  0  0  0  0  0  0
  141.4500   78.2850  223.4360 C   0  0  0  0  0  0  0  0  0  0  0  0
  141.5410   79.6440  223.6620 C   0  0  0  0  0  0  0  0  0  0  0  0
  141.5260   80.4960  222.5760 C   0  0  0  0  0  0  0  0  0  0  0  0
  141.5960   81.8780  222.4200 C   0  0  0  0  0  0  0  0  0  0  0  0
  141.5340   82.1420  221.0880 N   0  0  0  0  0  0  0  0  0  0  0  0
  141.4310   81.0110  220.4080 N   0  0  0  0  0  0  0  0  0  0  0  0
  141.4230   80.0010  221.2800 C   0  0  0  0  0  0  0  0  0  0  0  0
  141.3340   78.6300  221.1010 C   0  0  0  0  0  0  0  0  0  0  0  0
  139.9790   73.4450  222.3510 C   0  0  0  0  0  0  0  0  0  0  0  0
  139.3520   70.0320  223.3760 N   0  0  0  0  0  0  0  0  0  0  0  0
  140.2176   68.7984  229.3385 H   0  0  0  0  0  0  0  0  0  0  0  0
  140.6052   67.1529  228.7311 H   0  0  0  0  0  0  0  0  0  0  0  0
  141.8677   68.4308  228.7311 H   0  0  0  0  0  0  0  0  0  0  0  0
  139.2431   66.8433  226.8612 H   0  0  0  0  0  0  0  0  0  0  0  0
  138.5464   67.5002  224.5937 H   0  0  0  0  0  0  0  0  0  0  0  0
  141.4083   70.5174  227.2507 H   0  0  0  0  0  0  0  0  0  0  0  0
  140.2978   72.3330  225.1090 H   0  0  0  0  0  0  0  0  0  0  0  0
  141.7554   71.6209  224.4701 H   0  0  0  0  0  0  0  0  0  0  0  0
  139.7687   70.5169  220.7357 H   0  0  0  0  0  0  0  0  0  0  0  0
  139.7030   72.0310  218.7870 H   0  0  0  0  0  0  0  0  0  0  0  0
  139.8238   74.4656  219.1631 H   0  0  0  0  0  0  0  0  0  0  0  0
  142.1500   75.8440  221.9470 H   0  0  0  0  0  0  0  0  0  0  0  0
  141.4594   77.5967  224.2940 H   0  0  0  0  0  0  0  0  0  0  0  0
  141.6237   80.0392  224.6852 H   0  0  0  0  0  0  0  0  0  0  0  0
  141.6851   82.6202  223.2270 H   0  0  0  0  0  0  0  0  0  0  0  0
  141.3670   80.9570  219.3630 H   0  0  0  0  0  0  0  0  0  0  0  0
  141.2502   78.2196  220.0839 H   0  0  0  0  0  0  0  0  0  0  0  0
  140.0574   73.8574  223.3677 H   0  0  0  0  0  0  0  0  0  0  0  0
  1  2  1  0
  2  3  2  0
  3  4  1  0
  4  5  2  0
  5  6  1  0
  6  7  2  0
  6  8  1  0
  8  9  1  0
  9 10  1  0
 10 11  2  0
 11 12  1  0
 12 13  2  0
 13 14  1  0
 14 15  1  0
 15 16  2  0
 15 17  1  0
 17 18  1  0
 18 19  2  0
 19 20  1  0
 20 21  2  0
 21 22  1  0
 22 23  2  0
 23 24  1  0
 24 25  1  0
 25 26  2  0
 14 27  2  0
  9 28  2  0
  7  2  1  0
 27 10  1  0
 28  5  1  0
 26 18  1  0
 25 21  1  0
  1 29  1  0
  1 30  1  0
  1 31  1  0
  3 32  1  0
  4 33  1  0
  7 34  1  0
  8 35  1  0
  8 36  1  0
 11 37  1  0
 12 38  1  0
 13 39  1  0
 17 40  1  0
 19 41  1  0
 20 42  1  0
 22 43  1  0
 24 44  1  0
 26 45  1  0
 27 46  1  0
M  END
>  <smiles>  (35) 
Cc1ccc2c(c1)CC(c1cccc(C(=O)Nc3ccc4cn[nH]c4c3)c1)=N2

>  <score_type>  (35) 
oracle

>  <origin>  (35) 
autodockgpu

>  <m_score__min__energy>  (35) 
-9.4399999999999995

>  <m_primary>  (35) 
energy

>  <rmsd>  (35) 
7.408467960761079

>  <m_score__min__rmsd>  (35) 
7.408467960761079

>  <meeko>  (35) 
{"free_energy": -8.85, "intermolecular_energy": -9.75, "internal_energy": -0.72, "cluster_size": 50, "cluster_id": 1, "rank_in_cluster": 46}

>  <energy>  (35) 
-9.3

>  <cluster_rmsd>  (35) 
0.21

>  <cluster>  (35) 
1

$$$$

     RDKit          3D

 46 50  0  0  0  0  0  0  0  0999 V2000
  141.2770   68.1960  228.7940 C   0  0  0  0  0  0  0  0  0  0  0  0
  140.6860   68.5170  227.4680 C   0  0  0  0  0  0  0  0  0  0  0  0
  139.8150   67.6300  226.8460 C   0  0  0  0  0  0  0  0  0  0  0  0
  139.2580   67.9190  225.6120 C   0  0  0  0  0  0  0  0  0  0  0  0
  139.5450   69.0960  224.9480 C   0  0  0  0  0  0  0  0  0  0  0  0
  140.4100   69.9790  225.5630 C   0  0  0  0  0  0  0  0  0  0  0  0
  140.9690   69.6920  226.8010 C   0  0  0  0  0  0  0  0  0  0  0  0
  140.5770   71.1670  224.6840 C   0  0  0  0  0  0  0  0  0  0  0  0
  139.7050   70.8210  223.5320 C   0  0  0  0  0  0  0  0  0  0  0  0
  139.5050   71.6670  222.3600 C   0  0  0  0  0  0  0  0  0  0  0  0
  139.0080   71.1380  221.1710 C   0  0  0  0  0  0  0  0  0  0  0  0
  138.8080   71.9060  220.0550 C   0  0  0  0  0  0  0  0  0  0  0  0
  139.1150   73.2420  220.1310 C   0  0  0  0  0  0  0  0  0  0  0  0
  139.6020   73.8260  221.2550 C   0  0  0  0  0  0  0  0  0  0  0  0
  139.9400   75.2290  221.3840 C   0  0  0  0  0  0  0  0  0  0  0  0
  140.5420   75.8610  220.4750 O   0  0  0  0  0  0  0  0  0  0  0  0
  139.6020   75.9650  222.5530 N   0  0  0  0  0  0  0  0  0  0  0  0
  139.9240   77.3560  222.7040 C   0  0  0  0  0  0  0  0  0  0  0  0
  139.0060   78.3170  222.9930 C   0  0  0  0  0  0  0  0  0  0  0  0
  139.3660   79.6440  223.1290 C   0  0  0  0  0  0  0  0  0  0  0  0
  140.6920   79.9890  222.9630 C   0  0  0  0  0  0  0  0  0  0  0  0
  141.4040   81.1850  223.0230 C   0  0  0  0  0  0  0  0  0  0  0  0
  142.7070   80.8970  222.7690 N   0  0  0  0  0  0  0  0  0  0  0  0
  142.8500   79.5970  222.5560 N   0  0  0  0  0  0  0  0  0  0  0  0
  141.6500   79.0250  222.6670 C   0  0  0  0  0  0  0  0  0  0  0  0
  141.2440   77.7060  222.5400 C   0  0  0  0  0  0  0  0  0  0  0  0
  139.7900   73.0050  222.3690 C   0  0  0  0  0  0  0  0  0  0  0  0
  139.1480   69.6700  223.7070 N   0  0  0  0  0  0  0  0  0  0  0  0
  140.6100   68.5583  229.5901 H   0  0  0  0  0  0  0  0  0  0  0  0
  141.4004   67.1069  228.8865 H   0  0  0  0  0  0  0  0  0  0  0  0
  142.2578   68.6853  228.8865 H   0  0  0  0  0  0  0  0  0  0  0  0
  139.5638   66.6815  227.3432 H   0  0  0  0  0  0  0  0  0  0  0  0
  138.5711   67.1949  225.1496 H   0  0  0  0  0  0  0  0  0  0  0  0
  141.6542   70.4188  227.2617 H   0  0  0  0  0  0  0  0  0  0  0  0
  140.2346   72.0854  225.1833 H   0  0  0  0  0  0  0  0  0  0  0  0
  141.6215   71.3704  224.4054 H   0  0  0  0  0  0  0  0  0  0  0  0
  138.7677   70.0655  221.1270 H   0  0  0  0  0  0  0  0  0  0  0  0
  138.4138   71.4664  219.1269 H   0  0  0  0  0  0  0  0  0  0  0  0
  138.9591   73.8678  219.2399 H   0  0  0  0  0  0  0  0  0  0  0  0
  139.1020   75.5340  223.3610 H   0  0  0  0  0  0  0  0  0  0  0  0
  137.9517   78.0309  223.1215 H   0  0  0  0  0  0  0  0  0  0  0  0
  138.6118   80.4093  223.3646 H   0  0  0  0  0  0  0  0  0  0  0  0
  140.9873   82.1803  223.2369 H   0  0  0  0  0  0  0  0  0  0  0  0
  143.7650   79.1350  222.3400 H   0  0  0  0  0  0  0  0  0  0  0  0
  141.9867   76.9293  222.3051 H   0  0  0  0  0  0  0  0  0  0  0  0
  140.1840   73.4533  223.2930 H   0  0  0  0  0  0  0  0  0  0  0  0
  1  2  1  0
  2  3  2  0
  3  4  1  0
  4  5  2  0
  5  6  1  0
  6  7  2  0
  6  8  1  0
  8  9  1  0
  9 10  1  0
 10 11  2  0
 11 12  1  0
 12 13  2  0
 13 14  1  0
 14 15  1  0
 15 16  2  0
 15 17  1  0
 17 18  1  0
 18 19  2  0
 19 20  1  0
 20 21  2  0
 21 22  1  0
 22 23  2  0
 23 24  1  0
 24 25  1  0
 25 26  2  0
 14 27  2  0
  9 28  2  0
  7  2  1  0
 27 10  1  0
 28  5  1  0
 26 18  1  0
 25 21  1  0
  1 29  1  0
  1 30  1  0
  1 31  1  0
  3 32  1  0
  4 33  1  0
  7 34  1  0
  8 35  1  0
  8 36  1  0
 11 37  1  0
 12 38  1  0
 13 39  1  0
 17 40  1  0
 19 41  1  0
 20 42  1  0
 22 43  1  0
 24 44  1  0
 26 45  1  0
 27 46  1  0
M  END
>  <smiles>  (36) 
Cc1ccc2c(c1)CC(c1cccc(C(=O)Nc3ccc4cn[nH]c4c3)c1)=N2

>  <score_type>  (36) 
oracle

>  <origin>  (36) 
autodockgpu

>  <m_score__min__energy>  (36) 
-9.4399999999999995

>  <m_primary>  (36) 
energy

>  <rmsd>  (36) 
7.614042677449919

>  <m_score__min__rmsd>  (36) 
7.614042677449919

>  <meeko>  (36) 
{"free_energy": -9.36, "intermolecular_energy": -10.25, "internal_energy": -0.68, "cluster_size": 50, "cluster_id": 1, "rank_in_cluster": 22}

>  <energy>  (36) 
-9.3

>  <cluster_rmsd>  (36) 
0.25

>  <cluster>  (36) 
1

$$$$

     RDKit          3D

 46 50  0  0  0  0  0  0  0  0999 V2000
  141.2910   68.1880  228.8650 C   0  0  0  0  0  0  0  0  0  0  0  0
  140.6940   68.5020  227.5400 C   0  0  0  0  0  0  0  0  0  0  0  0
  139.8160   67.6130  226.9300 C   0  0  0  0  0  0  0  0  0  0  0  0
  139.2540   67.8950  225.6960 C   0  0  0  0  0  0  0  0  0  0  0  0
  139.5400   69.0660  225.0220 C   0  0  0  0  0  0  0  0  0  0  0  0
  140.4110   69.9510  225.6260 C   0  0  0  0  0  0  0  0  0  0  0  0
  140.9760   69.6710  226.8630 C   0  0  0  0  0  0  0  0  0  0  0  0
  140.5760   71.1330  224.7380 C   0  0  0  0  0  0  0  0  0  0  0  0
  139.6970   70.7810  223.5930 C   0  0  0  0  0  0  0  0  0  0  0  0
  139.4910   71.6190  222.4170 C   0  0  0  0  0  0  0  0  0  0  0  0
  138.9960   71.0810  221.2320 C   0  0  0  0  0  0  0  0  0  0  0  0
  138.7920   71.8420  220.1100 C   0  0  0  0  0  0  0  0  0  0  0  0
  139.0930   73.1790  220.1790 C   0  0  0  0  0  0  0  0  0  0  0  0
  139.5790   73.7720  221.2990 C   0  0  0  0  0  0  0  0  0  0  0  0
  139.9100   75.1770  221.4200 C   0  0  0  0  0  0  0  0  0  0  0  0
  140.5240   75.8020  220.5140 O   0  0  0  0  0  0  0  0  0  0  0  0
  139.5530   75.9220  222.5770 N   0  0  0  0  0  0  0  0  0  0  0  0
  139.8700   77.3160  222.7190 C   0  0  0  0  0  0  0  0  0  0  0  0
  138.9470   78.2760  222.9970 C   0  0  0  0  0  0  0  0  0  0  0  0
  139.3010   79.6050  223.1250 C   0  0  0  0  0  0  0  0  0  0  0  0
  140.6270   79.9540  222.9630 C   0  0  0  0  0  0  0  0  0  0  0  0
  141.3330   81.1530  223.0170 C   0  0  0  0  0  0  0  0  0  0  0  0
  142.6380   80.8690  222.7720 N   0  0  0  0  0  0  0  0  0  0  0  0
  142.7870   79.5680  222.5690 N   0  0  0  0  0  0  0  0  0  0  0  0
  141.5890   78.9910  222.6790 C   0  0  0  0  0  0  0  0  0  0  0  0
  141.1890   77.6700  222.5590 C   0  0  0  0  0  0  0  0  0  0  0  0
  139.7700   72.9580  222.4180 C   0  0  0  0  0  0  0  0  0  0  0  0
  139.1370   69.6320  223.7800 N   0  0  0  0  0  0  0  0  0  0  0  0
  140.6202   68.5408  229.6623 H   0  0  0  0  0  0  0  0  0  0  0  0
  141.4291   67.1006  228.9565 H   0  0  0  0  0  0  0  0  0  0  0  0
  142.2653   68.6904  228.9565 H   0  0  0  0  0  0  0  0  0  0  0  0
  139.5634   66.6696  227.4362 H   0  0  0  0  0  0  0  0  0  0  0  0
  138.5635   67.1691  225.2420 H   0  0  0  0  0  0  0  0  0  0  0  0
  141.6657   70.3992  227.3147 H   0  0  0  0  0  0  0  0  0  0  0  0
  140.2383   72.0555  225.2329 H   0  0  0  0  0  0  0  0  0  0  0  0
  141.6194   71.3323  224.4525 H   0  0  0  0  0  0  0  0  0  0  0  0
  138.7602   70.0072  221.1947 H   0  0  0  0  0  0  0  0  0  0  0  0
  138.3998   71.3953  219.1845 H   0  0  0  0  0  0  0  0  0  0  0  0
  138.9329   73.7992  219.2848 H   0  0  0  0  0  0  0  0  0  0  0  0
  139.0430   75.4980  223.3820 H   0  0  0  0  0  0  0  0  0  0  0  0
  137.8932   77.9868  223.1229 H   0  0  0  0  0  0  0  0  0  0  0  0
  138.5426   80.3690  223.3512 H   0  0  0  0  0  0  0  0  0  0  0  0
  140.9108   82.1481  223.2208 H   0  0  0  0  0  0  0  0  0  0  0  0
  143.7050   79.1080  222.3600 H   0  0  0  0  0  0  0  0  0  0  0  0
  141.9359   76.8947  222.3329 H   0  0  0  0  0  0  0  0  0  0  0  0
  140.1616   73.4134  223.3395 H   0  0  0  0  0  0  0  0  0  0  0  0
  1  2  1  0
  2  3  2  0
  3  4  1  0
  4  5  2  0
  5  6  1  0
  6  7  2  0
  6  8  1  0
  8  9  1  0
  9 10  1  0
 10 11  2  0
 11 12  1  0
 12 13  2  0
 13 14  1  0
 14 15  1  0
 15 16  2  0
 15 17  1  0
 17 18  1  0
 18 19  2  0
 19 20  1  0
 20 21  2  0
 21 22  1  0
 22 23  2  0
 23 24  1  0
 24 25  1  0
 25 26  2  0
 14 27  2  0
  9 28  2  0
  7  2  1  0
 27 10  1  0
 28  5  1  0
 26 18  1  0
 25 21  1  0
  1 29  1  0
  1 30  1  0
  1 31  1  0
  3 32  1  0
  4 33  1  0
  7 34  1  0
  8 35  1  0
  8 36  1  0
 11 37  1  0
 12 38  1  0
 13 39  1  0
 17 40  1  0
 19 41  1  0
 20 42  1  0
 22 43  1  0
 24 44  1  0
 26 45  1  0
 27 46  1  0
M  END
>  <smiles>  (37) 
Cc1ccc2c(c1)CC(c1cccc(C(=O)Nc3ccc4cn[nH]c4c3)c1)=N2

>  <score_type>  (37) 
oracle

>  <origin>  (37) 
autodockgpu

>  <m_score__min__energy>  (37) 
-9.4399999999999995

>  <m_primary>  (37) 
energy

>  <rmsd>  (37) 
7.638100825346101

>  <m_score__min__rmsd>  (37) 
7.638100825346101

>  <meeko>  (37) 
{"free_energy": -9.35, "intermolecular_energy": -10.25, "internal_energy": -0.68, "cluster_size": 50, "cluster_id": 1, "rank_in_cluster": 23}

>  <energy>  (37) 
-9.3

>  <cluster_rmsd>  (37) 
0.2

>  <cluster>  (37) 
1

$$$$

     RDKit          3D

 46 50  0  0  0  0  0  0  0  0999 V2000
  141.2490   68.3130  228.8270 C   0  0  0  0  0  0  0  0  0  0  0  0
  140.6480   68.6060  227.4990 C   0  0  0  0  0  0  0  0  0  0  0  0
  139.8370   67.6700  226.8660 C   0  0  0  0  0  0  0  0  0  0  0  0
  139.2720   67.9320  225.6300 C   0  0  0  0  0  0  0  0  0  0  0  0
  139.4900   69.1280  224.9740 C   0  0  0  0  0  0  0  0  0  0  0  0
  140.2950   70.0590  225.6000 C   0  0  0  0  0  0  0  0  0  0  0  0
  140.8620   69.7990  226.8400 C   0  0  0  0  0  0  0  0  0  0  0  0
  140.3940   71.2610  224.7290 C   0  0  0  0  0  0  0  0  0  0  0  0
  139.5520   70.8690  223.5690 C   0  0  0  0  0  0  0  0  0  0  0  0
  139.3070   71.7070  222.4010 C   0  0  0  0  0  0  0  0  0  0  0  0
  138.7640   71.1720  221.2360 C   0  0  0  0  0  0  0  0  0  0  0  0
  138.5210   71.9340  220.1230 C   0  0  0  0  0  0  0  0  0  0  0  0
  138.8330   73.2700  220.1790 C   0  0  0  0  0  0  0  0  0  0  0  0
  139.3650   73.8590  221.2800 C   0  0  0  0  0  0  0  0  0  0  0  0
  139.7100   75.2620  221.3860 C   0  0  0  0  0  0  0  0  0  0  0  0
  140.2030   75.9080  220.4230 O   0  0  0  0  0  0  0  0  0  0  0  0
  139.5040   75.9830  222.5950 N   0  0  0  0  0  0  0  0  0  0  0  0
  139.8370   77.3730  222.7250 C   0  0  0  0  0  0  0  0  0  0  0  0
  138.9260   78.3460  223.0030 C   0  0  0  0  0  0  0  0  0  0  0  0
  139.2950   79.6710  223.1180 C   0  0  0  0  0  0  0  0  0  0  0  0
  140.6240   80.0050  222.9450 C   0  0  0  0  0  0  0  0  0  0  0  0
  141.3430   81.1960  222.9850 C   0  0  0  0  0  0  0  0  0  0  0  0
  142.6440   80.8960  222.7330 N   0  0  0  0  0  0  0  0  0  0  0  0
  142.7770   79.5930  222.5380 N   0  0  0  0  0  0  0  0  0  0  0  0
  141.5740   79.0300  222.6600 C   0  0  0  0  0  0  0  0  0  0  0  0
  141.1590   77.7130  222.5530 C   0  0  0  0  0  0  0  0  0  0  0  0
  139.5950   73.0450  222.3910 C   0  0  0  0  0  0  0  0  0  0  0  0
  139.0660   69.6840  223.7340 N   0  0  0  0  0  0  0  0  0  0  0  0
  140.5646   68.6467  229.6209 H   0  0  0  0  0  0  0  0  0  0  0  0
  141.4199   67.2305  228.9213 H   0  0  0  0  0  0  0  0  0  0  0  0
  142.2071   68.8451  228.9213 H   0  0  0  0  0  0  0  0  0  0  0  0
  139.6413   66.7049  227.3562 H   0  0  0  0  0  0  0  0  0  0  0  0
  138.6341   67.1697  225.1588 H   0  0  0  0  0  0  0  0  0  0  0  0
  141.4983   70.5638  227.3093 H   0  0  0  0  0  0  0  0  0  0  0  0
  139.9925   72.1534  225.2315 H   0  0  0  0  0  0  0  0  0  0  0  0
  141.4257   71.5303  224.4586 H   0  0  0  0  0  0  0  0  0  0  0  0
  138.5214   70.0995  221.2078 H   0  0  0  0  0  0  0  0  0  0  0  0
  138.0898   71.4895  219.2139 H   0  0  0  0  0  0  0  0  0  0  0  0
  138.6431   73.8911  219.2912 H   0  0  0  0  0  0  0  0  0  0  0  0
  139.1010   75.5410  223.4490 H   0  0  0  0  0  0  0  0  0  0  0  0
  137.8701   78.0693  223.1393 H   0  0  0  0  0  0  0  0  0  0  0  0
  138.5463   80.4449  223.3427 H   0  0  0  0  0  0  0  0  0  0  0  0
  140.9330   82.1971  223.1842 H   0  0  0  0  0  0  0  0  0  0  0  0
  143.6890   79.1210  222.3270 H   0  0  0  0  0  0  0  0  0  0  0  0
  141.8962   76.9284  222.3275 H   0  0  0  0  0  0  0  0  0  0  0  0
  140.0257   73.4981  223.2961 H   0  0  0  0  0  0  0  0  0  0  0  0
  1  2  1  0
  2  3  2  0
  3  4  1  0
  4  5  2  0
  5  6  1  0
  6  7  2  0
  6  8  1  0
  8  9  1  0
  9 10  1  0
 10 11  2  0
 11 12  1  0
 12 13  2  0
 13 14  1  0
 14 15  1  0
 15 16  2  0
 15 17  1  0
 17 18  1  0
 18 19  2  0
 19 20  1  0
 20 21  2  0
 21 22  1  0
 22 23  2  0
 23 24  1  0
 24 25  1  0
 25 26  2  0
 14 27  2  0
  9 28  2  0
  7  2  1  0
 27 10  1  0
 28  5  1  0
 26 18  1  0
 25 21  1  0
  1 29  1  0
  1 30  1  0
  1 31  1  0
  3 32  1  0
  4 33  1  0
  7 34  1  0
  8 35  1  0
  8 36  1  0
 11 37  1  0
 12 38  1  0
 13 39  1  0
 17 40  1  0
 19 41  1  0
 20 42  1  0
 22 43  1  0
 24 44  1  0
 26 45  1  0
 27 46  1  0
M  END
>  <smiles>  (38) 
Cc1ccc2c(c1)CC(c1cccc(C(=O)Nc3ccc4cn[nH]c4c3)c1)=N2

>  <score_type>  (38) 
oracle

>  <origin>  (38) 
autodockgpu

>  <m_score__min__energy>  (38) 
-9.4399999999999995

>  <m_primary>  (38) 
energy

>  <rmsd>  (38) 
7.605505555398609

>  <m_score__min__rmsd>  (38) 
7.605505555398609

>  <meeko>  (38) 
{"free_energy": -9.3, "intermolecular_energy": -10.19, "internal_energy": -0.7, "cluster_size": 50, "cluster_id": 1, "rank_in_cluster": 38}

>  <energy>  (38) 
-9.3

>  <cluster_rmsd>  (38) 
0.24

>  <cluster>  (38) 
1

$$$$

     RDKit          3D

 46 50  0  0  0  0  0  0  0  0999 V2000
  141.4020   68.1440  228.8390 C   0  0  0  0  0  0  0  0  0  0  0  0
  140.8100   68.4340  227.5070 C   0  0  0  0  0  0  0  0  0  0  0  0
  140.1130   67.4520  226.8110 C   0  0  0  0  0  0  0  0  0  0  0  0
  139.5580   67.7120  225.5690 C   0  0  0  0  0  0  0  0  0  0  0  0
  139.6720   68.9510  224.9710 C   0  0  0  0  0  0  0  0  0  0  0  0
  140.3630   69.9290  225.6600 C   0  0  0  0  0  0  0  0  0  0  0  0
  140.9200   69.6710  226.9050 C   0  0  0  0  0  0  0  0  0  0  0  0
  140.3640   71.1720  224.8430 C   0  0  0  0  0  0  0  0  0  0  0  0
  139.5980   70.7500  223.6420 C   0  0  0  0  0  0  0  0  0  0  0  0
  139.3010   71.6120  222.5030 C   0  0  0  0  0  0  0  0  0  0  0  0
  138.6400   71.1150  221.3820 C   0  0  0  0  0  0  0  0  0  0  0  0
  138.3470   71.8990  220.2970 C   0  0  0  0  0  0  0  0  0  0  0  0
  138.7270   73.2180  220.3360 C   0  0  0  0  0  0  0  0  0  0  0  0
  139.3740   73.7700  221.3940 C   0  0  0  0  0  0  0  0  0  0  0  0
  139.7930   75.1540  221.4820 C   0  0  0  0  0  0  0  0  0  0  0  0
  140.5010   75.6990  220.5920 O   0  0  0  0  0  0  0  0  0  0  0  0
  139.4210   75.9690  222.5860 N   0  0  0  0  0  0  0  0  0  0  0  0
  139.8240   77.3430  222.6950 C   0  0  0  0  0  0  0  0  0  0  0  0
  138.9630   78.3650  222.9440 C   0  0  0  0  0  0  0  0  0  0  0  0
  139.3990   79.6720  223.0410 C   0  0  0  0  0  0  0  0  0  0  0  0
  140.7440   79.9340  222.8770 C   0  0  0  0  0  0  0  0  0  0  0  0
  141.5240   81.0870  222.9050 C   0  0  0  0  0  0  0  0  0  0  0  0
  142.8100   80.7150  222.6730 N   0  0  0  0  0  0  0  0  0  0  0  0
  142.8780   79.4030  222.5030 N   0  0  0  0  0  0  0  0  0  0  0  0
  141.6460   78.9060  222.6210 C   0  0  0  0  0  0  0  0  0  0  0  0
  141.1640   77.6100  222.5330 C   0  0  0  0  0  0  0  0  0  0  0  0
  139.6510   72.9340  222.4780 C   0  0  0  0  0  0  0  0  0  0  0  0
  139.2280   69.5170  223.7430 N   0  0  0  0  0  0  0  0  0  0  0  0
  140.7133   68.4814  229.6276 H   0  0  0  0  0  0  0  0  0  0  0  0
  141.5703   67.0614  228.9376 H   0  0  0  0  0  0  0  0  0  0  0  0
  142.3605   68.6746  228.9376 H   0  0  0  0  0  0  0  0  0  0  0  0
  140.0007   66.4517  227.2546 H   0  0  0  0  0  0  0  0  0  0  0  0
  139.0132   66.9119  225.0465 H   0  0  0  0  0  0  0  0  0  0  0  0
  141.4633   70.4735  227.4254 H   0  0  0  0  0  0  0  0  0  0  0  0
  139.8610   71.9968  225.3689 H   0  0  0  0  0  0  0  0  0  0  0  0
  141.3703   71.5543  224.6167 H   0  0  0  0  0  0  0  0  0  0  0  0
  138.3428   70.0560  221.3673 H   0  0  0  0  0  0  0  0  0  0  0  0
  137.8239   71.4849  219.4224 H   0  0  0  0  0  0  0  0  0  0  0  0
  138.4966   73.8564  219.4704 H   0  0  0  0  0  0  0  0  0  0  0  0
  138.8370   75.6130  223.3740 H   0  0  0  0  0  0  0  0  0  0  0  0
  137.8926   78.1457  223.0714 H   0  0  0  0  0  0  0  0  0  0  0  0
  138.6890   80.4871  223.2447 H   0  0  0  0  0  0  0  0  0  0  0  0
  141.1649   82.1115  223.0824 H   0  0  0  0  0  0  0  0  0  0  0  0
  143.7660   78.8810  222.3110 H   0  0  0  0  0  0  0  0  0  0  0  0
  141.8616   76.7839  222.3310 H   0  0  0  0  0  0  0  0  0  0  0  0
  140.1730   73.3569  223.3490 H   0  0  0  0  0  0  0  0  0  0  0  0
  1  2  1  0
  2  3  2  0
  3  4  1  0
  4  5  2  0
  5  6  1  0
  6  7  2  0
  6  8  1  0
  8  9  1  0
  9 10  1  0
 10 11  2  0
 11 12  1  0
 12 13  2  0
 13 14  1  0
 14 15  1  0
 15 16  2  0
 15 17  1  0
 17 18  1  0
 18 19  2  0
 19 20  1  0
 20 21  2  0
 21 22  1  0
 22 23  2  0
 23 24  1  0
 24 25  1  0
 25 26  2  0
 14 27  2  0
  9 28  2  0
  7  2  1  0
 27 10  1  0
 28  5  1  0
 26 18  1  0
 25 21  1  0
  1 29  1  0
  1 30  1  0
  1 31  1  0
  3 32  1  0
  4 33  1  0
  7 34  1  0
  8 35  1  0
  8 36  1  0
 11 37  1  0
 12 38  1  0
 13 39  1  0
 17 40  1  0
 19 41  1  0
 20 42  1  0
 22 43  1  0
 24 44  1  0
 26 45  1  0
 27 46  1  0
M  END
>  <smiles>  (39) 
Cc1ccc2c(c1)CC(c1cccc(C(=O)Nc3ccc4cn[nH]c4c3)c1)=N2

>  <score_type>  (39) 
oracle

>  <origin>  (39) 
autodockgpu

>  <m_score__min__energy>  (39) 
-9.4399999999999995

>  <m_primary>  (39) 
energy

>  <rmsd>  (39) 
7.606824706684404

>  <m_score__min__rmsd>  (39) 
7.606824706684404

>  <meeko>  (39) 
{"free_energy": -9.31, "intermolecular_energy": -10.21, "internal_energy": -0.65, "cluster_size": 50, "cluster_id": 1, "rank_in_cluster": 32}

>  <energy>  (39) 
-9.26

>  <cluster_rmsd>  (39) 
0.25

>  <cluster>  (39) 
1

$$$$

     RDKit          3D

 46 50  0  0  0  0  0  0  0  0999 V2000
  141.3640   68.3410  228.7550 C   0  0  0  0  0  0  0  0  0  0  0  0
  140.7530   68.6220  227.4300 C   0  0  0  0  0  0  0  0  0  0  0  0
  139.9720   67.6640  226.7910 C   0  0  0  0  0  0  0  0  0  0  0  0
  139.3980   67.9150  225.5570 C   0  0  0  0  0  0  0  0  0  0  0  0
  139.5760   69.1220  224.9090 C   0  0  0  0  0  0  0  0  0  0  0  0
  140.3510   70.0750  225.5400 C   0  0  0  0  0  0  0  0  0  0  0  0
  140.9280   69.8260  226.7780 C   0  0  0  0  0  0  0  0  0  0  0  0
  140.4100   71.2840  224.6760 C   0  0  0  0  0  0  0  0  0  0  0  0
  139.5810   70.8720  223.5140 C   0  0  0  0  0  0  0  0  0  0  0  0
  139.3080   71.7090  222.3510 C   0  0  0  0  0  0  0  0  0  0  0  0
  138.7550   71.1680  221.1930 C   0  0  0  0  0  0  0  0  0  0  0  0
  138.4860   71.9290  220.0850 C   0  0  0  0  0  0  0  0  0  0  0  0
  138.7810   73.2690  220.1400 C   0  0  0  0  0  0  0  0  0  0  0  0
  139.3210   73.8640  221.2340 C   0  0  0  0  0  0  0  0  0  0  0  0
  139.6470   75.2710  221.3380 C   0  0  0  0  0  0  0  0  0  0  0  0
  140.0110   75.9530  220.3420 O   0  0  0  0  0  0  0  0  0  0  0  0
  139.5710   75.9560  222.5820 N   0  0  0  0  0  0  0  0  0  0  0  0
  139.8890   77.3500  222.7110 C   0  0  0  0  0  0  0  0  0  0  0  0
  138.9670   78.3140  222.9810 C   0  0  0  0  0  0  0  0  0  0  0  0
  139.3220   79.6440  223.0960 C   0  0  0  0  0  0  0  0  0  0  0  0
  140.6480   79.9900  222.9300 C   0  0  0  0  0  0  0  0  0  0  0  0
  141.3560   81.1890  222.9720 C   0  0  0  0  0  0  0  0  0  0  0  0
  142.6610   80.9010  222.7270 N   0  0  0  0  0  0  0  0  0  0  0  0
  142.8080   79.5980  222.5370 N   0  0  0  0  0  0  0  0  0  0  0  0
  141.6100   79.0240  222.6530 C   0  0  0  0  0  0  0  0  0  0  0  0
  141.2090   77.7020  222.5460 C   0  0  0  0  0  0  0  0  0  0  0  0
  139.5770   73.0500  222.3400 C   0  0  0  0  0  0  0  0  0  0  0  0
  139.1340   69.6710  223.6720 N   0  0  0  0  0  0  0  0  0  0  0  0
  140.6746   68.6581  229.5513 H   0  0  0  0  0  0  0  0  0  0  0  0
  141.5596   67.2625  228.8473 H   0  0  0  0  0  0  0  0  0  0  0  0
  142.3101   68.8944  228.8473 H   0  0  0  0  0  0  0  0  0  0  0  0
  139.8079   66.6900  227.2752 H   0  0  0  0  0  0  0  0  0  0  0  0
  138.7856   67.1351  225.0809 H   0  0  0  0  0  0  0  0  0  0  0  0
  141.5401   70.6079  227.2512 H   0  0  0  0  0  0  0  0  0  0  0  0
  139.9798   72.1598  225.1838 H   0  0  0  0  0  0  0  0  0  0  0  0
  141.4323   71.5880  224.4067 H   0  0  0  0  0  0  0  0  0  0  0  0
  138.5261   70.0924  221.1665 H   0  0  0  0  0  0  0  0  0  0  0  0
  138.0479   71.4807  219.1810 H   0  0  0  0  0  0  0  0  0  0  0  0
  138.5699   73.8891  219.2563 H   0  0  0  0  0  0  0  0  0  0  0  0
  139.2800   75.4830  223.4650 H   0  0  0  0  0  0  0  0  0  0  0  0
  137.9131   78.0270  223.1109 H   0  0  0  0  0  0  0  0  0  0  0  0
  138.5644   80.4108  223.3151 H   0  0  0  0  0  0  0  0  0  0  0  0
  140.9355   82.1864  223.1677 H   0  0  0  0  0  0  0  0  0  0  0  0
  143.7260   79.1350  222.3310 H   0  0  0  0  0  0  0  0  0  0  0  0
  141.9552   76.9242  222.3264 H   0  0  0  0  0  0  0  0  0  0  0  0
  140.0135   73.5069  223.2404 H   0  0  0  0  0  0  0  0  0  0  0  0
  1  2  1  0
  2  3  2  0
  3  4  1  0
  4  5  2  0
  5  6  1  0
  6  7  2  0
  6  8  1  0
  8  9  1  0
  9 10  1  0
 10 11  2  0
 11 12  1  0
 12 13  2  0
 13 14  1  0
 14 15  1  0
 15 16  2  0
 15 17  1  0
 17 18  1  0
 18 19  2  0
 19 20  1  0
 20 21  2  0
 21 22  1  0
 22 23  2  0
 23 24  1  0
 24 25  1  0
 25 26  2  0
 14 27  2  0
  9 28  2  0
  7  2  1  0
 27 10  1  0
 28  5  1  0
 26 18  1  0
 25 21  1  0
  1 29  1  0
  1 30  1  0
  1 31  1  0
  3 32  1  0
  4 33  1  0
  7 34  1  0
  8 35  1  0
  8 36  1  0
 11 37  1  0
 12 38  1  0
 13 39  1  0
 17 40  1  0
 19 41  1  0
 20 42  1  0
 22 43  1  0
 24 44  1  0
 26 45  1  0
 27 46  1  0
M  END
>  <smiles>  (40) 
Cc1ccc2c(c1)CC(c1cccc(C(=O)Nc3ccc4cn[nH]c4c3)c1)=N2

>  <score_type>  (40) 
oracle

>  <origin>  (40) 
autodockgpu

>  <m_score__min__energy>  (40) 
-9.4399999999999995

>  <m_primary>  (40) 
energy

>  <rmsd>  (40) 
7.594244627674133

>  <m_score__min__rmsd>  (40) 
7.594244627674133

>  <meeko>  (40) 
{"free_energy": -9.24, "intermolecular_energy": -10.13, "internal_energy": -0.72, "cluster_size": 50, "cluster_id": 1, "rank_in_cluster": 40}

>  <energy>  (40) 
-9.24

>  <cluster_rmsd>  (40) 
0.29

>  <cluster>  (40) 
1

$$$$

     RDKit          3D

 46 50  0  0  0  0  0  0  0  0999 V2000
  141.2730   68.2650  228.8170 C   0  0  0  0  0  0  0  0  0  0  0  0
  140.6590   68.5710  227.4970 C   0  0  0  0  0  0  0  0  0  0  0  0
  139.7890   67.6690  226.8940 C   0  0  0  0  0  0  0  0  0  0  0  0
  139.2120   67.9440  225.6660 C   0  0  0  0  0  0  0  0  0  0  0  0
  139.4750   69.1200  224.9900 C   0  0  0  0  0  0  0  0  0  0  0  0
  140.3390   70.0170  225.5870 C   0  0  0  0  0  0  0  0  0  0  0  0
  140.9190   69.7440  226.8190 C   0  0  0  0  0  0  0  0  0  0  0  0
  140.4790   71.2010  224.6980 C   0  0  0  0  0  0  0  0  0  0  0  0
  139.5950   70.8370  223.5610 C   0  0  0  0  0  0  0  0  0  0  0  0
  139.3670   71.6730  222.3870 C   0  0  0  0  0  0  0  0  0  0  0  0
  138.8560   71.1320  221.2110 C   0  0  0  0  0  0  0  0  0  0  0  0
  138.6300   71.8900  220.0920 C   0  0  0  0  0  0  0  0  0  0  0  0
  138.9270   73.2290  220.1540 C   0  0  0  0  0  0  0  0  0  0  0  0
  139.4280   73.8250  221.2660 C   0  0  0  0  0  0  0  0  0  0  0  0
  139.7550   75.2320  221.3800 C   0  0  0  0  0  0  0  0  0  0  0  0
  140.2470   75.8870  220.4210 O   0  0  0  0  0  0  0  0  0  0  0  0
  139.5330   75.9460  222.5890 N   0  0  0  0  0  0  0  0  0  0  0  0
  139.8480   77.3400  222.7260 C   0  0  0  0  0  0  0  0  0  0  0  0
  138.9260   78.2990  223.0110 C   0  0  0  0  0  0  0  0  0  0  0  0
  139.2790   79.6290  223.1330 C   0  0  0  0  0  0  0  0  0  0  0  0
  140.6020   79.9800  222.9580 C   0  0  0  0  0  0  0  0  0  0  0  0
  141.3070   81.1800  223.0040 C   0  0  0  0  0  0  0  0  0  0  0  0
  142.6110   80.8980  222.7470 N   0  0  0  0  0  0  0  0  0  0  0  0
  142.7600   79.5970  222.5450 N   0  0  0  0  0  0  0  0  0  0  0  0
  141.5640   79.0180  222.6670 C   0  0  0  0  0  0  0  0  0  0  0  0
  141.1660   77.6960  222.5530 C   0  0  0  0  0  0  0  0  0  0  0  0
  139.6410   73.0130  222.3830 C   0  0  0  0  0  0  0  0  0  0  0  0
  139.0540   69.6810  223.7520 N   0  0  0  0  0  0  0  0  0  0  0  0
  140.6007   68.6000  229.6206 H   0  0  0  0  0  0  0  0  0  0  0  0
  141.4355   67.1805  228.9032 H   0  0  0  0  0  0  0  0  0  0  0  0
  142.2368   68.7882  228.9032 H   0  0  0  0  0  0  0  0  0  0  0  0
  139.5555   66.7213  227.4012 H   0  0  0  0  0  0  0  0  0  0  0  0
  138.5277   67.2086  225.2177 H   0  0  0  0  0  0  0  0  0  0  0  0
  141.6026   70.4813  227.2652 H   0  0  0  0  0  0  0  0  0  0  0  0
  140.1327   72.1185  225.1962 H   0  0  0  0  0  0  0  0  0  0  0  0
  141.5169   71.4150  224.4031 H   0  0  0  0  0  0  0  0  0  0  0  0
  138.6252   70.0570  221.1786 H   0  0  0  0  0  0  0  0  0  0  0  0
  138.2239   71.4403  219.1739 H   0  0  0  0  0  0  0  0  0  0  0  0
  138.7509   73.8473  219.2615 H   0  0  0  0  0  0  0  0  0  0  0  0
  139.1300   75.4960  223.4400 H   0  0  0  0  0  0  0  0  0  0  0  0
  137.8739   78.0083  223.1476 H   0  0  0  0  0  0  0  0  0  0  0  0
  138.5214   80.3921  223.3648 H   0  0  0  0  0  0  0  0  0  0  0  0
  140.8852   82.1747  223.2107 H   0  0  0  0  0  0  0  0  0  0  0  0
  143.6770   79.1380  222.3290 H   0  0  0  0  0  0  0  0  0  0  0  0
  141.9123   76.9217  222.3215 H   0  0  0  0  0  0  0  0  0  0  0  0
  140.0461   73.4707  223.2976 H   0  0  0  0  0  0  0  0  0  0  0  0
  1  2  1  0
  2  3  2  0
  3  4  1  0
  4  5  2  0
  5  6  1  0
  6  7  2  0
  6  8  1  0
  8  9  1  0
  9 10  1  0
 10 11  2  0
 11 12  1  0
 12 13  2  0
 13 14  1  0
 14 15  1  0
 15 16  2  0
 15 17  1  0
 17 18  1  0
 18 19  2  0
 19 20  1  0
 20 21  2  0
 21 22  1  0
 22 23  2  0
 23 24  1  0
 24 25  1  0
 25 26  2  0
 14 27  2  0
  9 28  2  0
  7  2  1  0
 27 10  1  0
 28  5  1  0
 26 18  1  0
 25 21  1  0
  1 29  1  0
  1 30  1  0
  1 31  1  0
  3 32  1  0
  4 33  1  0
  7 34  1  0
  8 35  1  0
  8 36  1  0
 11 37  1  0
 12 38  1  0
 13 39  1  0
 17 40  1  0
 19 41  1  0
 20 42  1  0
 22 43  1  0
 24 44  1  0
 26 45  1  0
 27 46  1  0
M  END
>  <smiles>  (41) 
Cc1ccc2c(c1)CC(c1cccc(C(=O)Nc3ccc4cn[nH]c4c3)c1)=N2

>  <score_type>  (41) 
oracle

>  <origin>  (41) 
autodockgpu

>  <m_score__min__energy>  (41) 
-9.4399999999999995

>  <m_primary>  (41) 
energy

>  <rmsd>  (41) 
7.621102662458186

>  <m_score__min__rmsd>  (41) 
7.621102662458186

>  <meeko>  (41) 
{"free_energy": -9.3, "intermolecular_energy": -10.2, "internal_energy": -0.7, "cluster_size": 50, "cluster_id": 1, "rank_in_cluster": 35}

>  <energy>  (41) 
-9.24

>  <cluster_rmsd>  (41) 
0.32

>  <cluster>  (41) 
1

$$$$

     RDKit          3D

 46 50  0  0  0  0  0  0  0  0999 V2000
  141.2550   68.1860  228.8380 C   0  0  0  0  0  0  0  0  0  0  0  0
  140.6820   68.4880  227.5000 C   0  0  0  0  0  0  0  0  0  0  0  0
  139.9390   67.5330  226.8140 C   0  0  0  0  0  0  0  0  0  0  0  0
  139.4010   67.8040  225.5680 C   0  0  0  0  0  0  0  0  0  0  0  0
  139.5780   69.0280  224.9540 C   0  0  0  0  0  0  0  0  0  0  0  0
  140.3150   69.9790  225.6330 C   0  0  0  0  0  0  0  0  0  0  0  0
  140.8560   69.7100  226.8830 C   0  0  0  0  0  0  0  0  0  0  0  0
  140.3810   71.2090  224.8000 C   0  0  0  0  0  0  0  0  0  0  0  0
  139.5980   70.8110  223.6020 C   0  0  0  0  0  0  0  0  0  0  0  0
  139.3470   71.6720  222.4510 C   0  0  0  0  0  0  0  0  0  0  0  0
  138.7590   71.1670  221.2940 C   0  0  0  0  0  0  0  0  0  0  0  0
  138.5110   71.9490  220.1970 C   0  0  0  0  0  0  0  0  0  0  0  0
  138.8630   73.2750  220.2610 C   0  0  0  0  0  0  0  0  0  0  0  0
  139.4390   73.8350  221.3550 C   0  0  0  0  0  0  0  0  0  0  0  0
  139.8270   75.2260  221.4700 C   0  0  0  0  0  0  0  0  0  0  0  0
  140.5230   75.8040  220.5920 O   0  0  0  0  0  0  0  0  0  0  0  0
  139.4340   76.0120  222.5880 N   0  0  0  0  0  0  0  0  0  0  0  0
  139.8040   77.3920  222.7240 C   0  0  0  0  0  0  0  0  0  0  0  0
  138.9200   78.3880  223.0000 C   0  0  0  0  0  0  0  0  0  0  0  0
  139.3250   79.7030  223.1220 C   0  0  0  0  0  0  0  0  0  0  0  0
  140.6630   80.0000  222.9560 C   0  0  0  0  0  0  0  0  0  0  0  0
  141.4150   81.1710  223.0040 C   0  0  0  0  0  0  0  0  0  0  0  0
  142.7080   80.8350  222.7560 N   0  0  0  0  0  0  0  0  0  0  0  0
  142.8060   79.5290  222.5580 N   0  0  0  0  0  0  0  0  0  0  0  0
  141.5870   79.0000  222.6730 C   0  0  0  0  0  0  0  0  0  0  0  0
  141.1360   77.6950  222.5590 C   0  0  0  0  0  0  0  0  0  0  0  0
  139.6730   73.0000  222.4500 C   0  0  0  0  0  0  0  0  0  0  0  0
  139.1670   69.6000  223.7170 N   0  0  0  0  0  0  0  0  0  0  0  0
  140.5705   68.5467  229.6199 H   0  0  0  0  0  0  0  0  0  0  0  0
  141.3905   67.0993  228.9421 H   0  0  0  0  0  0  0  0  0  0  0  0
  142.2280   68.6884  228.9421 H   0  0  0  0  0  0  0  0  0  0  0  0
  139.7762   66.5452  227.2697 H   0  0  0  0  0  0  0  0  0  0  0  0
  138.8182   67.0253  225.0543 H   0  0  0  0  0  0  0  0  0  0  0  0
  141.4381   70.4907  227.3945 H   0  0  0  0  0  0  0  0  0  0  0  0
  139.9190   72.0651  225.3135 H   0  0  0  0  0  0  0  0  0  0  0  0
  141.4060   71.5366  224.5720 H   0  0  0  0  0  0  0  0  0  0  0  0
  138.4840   70.1025  221.2598 H   0  0  0  0  0  0  0  0  0  0  0  0
  138.0449   71.5284  219.2938 H   0  0  0  0  0  0  0  0  0  0  0  0
  138.6693   73.9123  219.3856 H   0  0  0  0  0  0  0  0  0  0  0  0
  138.8560   75.6280  223.3670 H   0  0  0  0  0  0  0  0  0  0  0  0
  137.8561   78.1403  223.1293 H   0  0  0  0  0  0  0  0  0  0  0  0
  138.5970   80.4965  223.3466 H   0  0  0  0  0  0  0  0  0  0  0  0
  141.0325   82.1824  223.2057 H   0  0  0  0  0  0  0  0  0  0  0  0
  143.7050   79.0330  222.3500 H   0  0  0  0  0  0  0  0  0  0  0  0
  141.8519   76.8908  222.3337 H   0  0  0  0  0  0  0  0  0  0  0  0
  140.1392   73.4287  223.3494 H   0  0  0  0  0  0  0  0  0  0  0  0
  1  2  1  0
  2  3  2  0
  3  4  1  0
  4  5  2  0
  5  6  1  0
  6  7  2  0
  6  8  1  0
  8  9  1  0
  9 10  1  0
 10 11  2  0
 11 12  1  0
 12 13  2  0
 13 14  1  0
 14 15  1  0
 15 16  2  0
 15 17  1  0
 17 18  1  0
 18 19  2  0
 19 20  1  0
 20 21  2  0
 21 22  1  0
 22 23  2  0
 23 24  1  0
 24 25  1  0
 25 26  2  0
 14 27  2  0
  9 28  2  0
  7  2  1  0
 27 10  1  0
 28  5  1  0
 26 18  1  0
 25 21  1  0
  1 29  1  0
  1 30  1  0
  1 31  1  0
  3 32  1  0
  4 33  1  0
  7 34  1  0
  8 35  1  0
  8 36  1  0
 11 37  1  0
 12 38  1  0
 13 39  1  0
 17 40  1  0
 19 41  1  0
 20 42  1  0
 22 43  1  0
 24 44  1  0
 26 45  1  0
 27 46  1  0
M  END
>  <smiles>  (42) 
Cc1ccc2c(c1)CC(c1cccc(C(=O)Nc3ccc4cn[nH]c4c3)c1)=N2

>  <score_type>  (42) 
oracle

>  <origin>  (42) 
autodockgpu

>  <m_score__min__energy>  (42) 
-9.4399999999999995

>  <m_primary>  (42) 
energy

>  <rmsd>  (42) 
7.613067910021415

>  <m_score__min__rmsd>  (42) 
7.613067910021415

>  <meeko>  (42) 
{"free_energy": -9.39, "intermolecular_energy": -10.28, "internal_energy": -0.65, "cluster_size": 50, "cluster_id": 1, "rank_in_cluster": 11}

>  <energy>  (42) 
-9.12

>  <cluster_rmsd>  (42) 
0.36

>  <cluster>  (42) 
1

$$$$

     RDKit          3D

 46 50  0  0  0  0  0  0  0  0999 V2000
  141.2760   68.2910  228.8350 C   0  0  0  0  0  0  0  0  0  0  0  0
  140.6760   68.5870  227.5080 C   0  0  0  0  0  0  0  0  0  0  0  0
  139.8420   67.6650  226.8840 C   0  0  0  0  0  0  0  0  0  0  0  0
  139.2780   67.9300  225.6490 C   0  0  0  0  0  0  0  0  0  0  0  0
  139.5180   69.1170  224.9840 C   0  0  0  0  0  0  0  0  0  0  0  0
  140.3450   70.0350  225.6010 C   0  0  0  0  0  0  0  0  0  0  0  0
  140.9120   69.7710  226.8400 C   0  0  0  0  0  0  0  0  0  0  0  0
  140.4660   71.2290  224.7210 C   0  0  0  0  0  0  0  0  0  0  0  0
  139.6110   70.8460  223.5670 C   0  0  0  0  0  0  0  0  0  0  0  0
  139.3790   71.6830  222.3940 C   0  0  0  0  0  0  0  0  0  0  0  0
  138.8600   71.1420  221.2200 C   0  0  0  0  0  0  0  0  0  0  0  0
  138.6300   71.9010  220.1030 C   0  0  0  0  0  0  0  0  0  0  0  0
  138.9300   73.2390  220.1640 C   0  0  0  0  0  0  0  0  0  0  0  0
  139.4370   73.8340  221.2730 C   0  0  0  0  0  0  0  0  0  0  0  0
  139.7670   75.2410  221.3850 C   0  0  0  0  0  0  0  0  0  0  0  0
  140.2500   75.8960  220.4220 O   0  0  0  0  0  0  0  0  0  0  0  0
  139.5570   75.9530  222.5970 N   0  0  0  0  0  0  0  0  0  0  0  0
  139.8750   77.3470  222.7320 C   0  0  0  0  0  0  0  0  0  0  0  0
  138.9550   78.3090  223.0130 C   0  0  0  0  0  0  0  0  0  0  0  0
  139.3100   79.6380  223.1330 C   0  0  0  0  0  0  0  0  0  0  0  0
  140.6350   79.9860  222.9620 C   0  0  0  0  0  0  0  0  0  0  0  0
  141.3420   81.1840  223.0070 C   0  0  0  0  0  0  0  0  0  0  0  0
  142.6460   80.8990  222.7540 N   0  0  0  0  0  0  0  0  0  0  0  0
  142.7930   79.5970  222.5550 N   0  0  0  0  0  0  0  0  0  0  0  0
  141.5950   79.0220  222.6740 C   0  0  0  0  0  0  0  0  0  0  0  0
  141.1940   77.7000  222.5620 C   0  0  0  0  0  0  0  0  0  0  0  0
  139.6540   73.0220  222.3880 C   0  0  0  0  0  0  0  0  0  0  0  0
  139.1010   69.6740  223.7420 N   0  0  0  0  0  0  0  0  0  0  0  0
  140.5935   68.6277  229.6293 H   0  0  0  0  0  0  0  0  0  0  0  0
  141.4419   67.2077  228.9290 H   0  0  0  0  0  0  0  0  0  0  0  0
  142.2366   68.8186  228.9290 H   0  0  0  0  0  0  0  0  0  0  0  0
  139.6271   66.7078  227.3817 H   0  0  0  0  0  0  0  0  0  0  0  0
  138.6229   67.1778  225.1854 H   0  0  0  0  0  0  0  0  0  0  0  0
  141.5665   70.5252  227.3014 H   0  0  0  0  0  0  0  0  0  0  0  0
  140.0853   72.1332  225.2185 H   0  0  0  0  0  0  0  0  0  0  0  0
  141.5020   71.4749  224.4448 H   0  0  0  0  0  0  0  0  0  0  0  0
  138.6266   70.0675  221.1887 H   0  0  0  0  0  0  0  0  0  0  0  0
  138.2182   71.4527  219.1868 H   0  0  0  0  0  0  0  0  0  0  0  0
  138.7510   73.8577  219.2723 H   0  0  0  0  0  0  0  0  0  0  0  0
  139.1610   75.5030  223.4510 H   0  0  0  0  0  0  0  0  0  0  0  0
  137.9020   78.0209  223.1480 H   0  0  0  0  0  0  0  0  0  0  0  0
  138.5531   80.4032  223.3600 H   0  0  0  0  0  0  0  0  0  0  0  0
  140.9216   82.1800  223.2103 H   0  0  0  0  0  0  0  0  0  0  0  0
  143.7090   79.1360  222.3420 H   0  0  0  0  0  0  0  0  0  0  0  0
  141.9393   76.9236  222.3344 H   0  0  0  0  0  0  0  0  0  0  0  0
  140.0638   73.4794  223.3006 H   0  0  0  0  0  0  0  0  0  0  0  0
  1  2  1  0
  2  3  2  0
  3  4  1  0
  4  5  2  0
  5  6  1  0
  6  7  2  0
  6  8  1  0
  8  9  1  0
  9 10  1  0
 10 11  2  0
 11 12  1  0
 12 13  2  0
 13 14  1  0
 14 15  1  0
 15 16  2  0
 15 17  1  0
 17 18  1  0
 18 19  2  0
 19 20  1  0
 20 21  2  0
 21 22  1  0
 22 23  2  0
 23 24  1  0
 24 25  1  0
 25 26  2  0
 14 27  2  0
  9 28  2  0
  7  2  1  0
 27 10  1  0
 28  5  1  0
 26 18  1  0
 25 21  1  0
  1 29  1  0
  1 30  1  0
  1 31  1  0
  3 32  1  0
  4 33  1  0
  7 34  1  0
  8 35  1  0
  8 36  1  0
 11 37  1  0
 12 38  1  0
 13 39  1  0
 17 40  1  0
 19 41  1  0
 20 42  1  0
 22 43  1  0
 24 44  1  0
 26 45  1  0
 27 46  1  0
M  END
>  <smiles>  (43) 
Cc1ccc2c(c1)CC(c1cccc(C(=O)Nc3ccc4cn[nH]c4c3)c1)=N2

>  <score_type>  (43) 
oracle

>  <origin>  (43) 
autodockgpu

>  <m_score__min__energy>  (43) 
-9.4399999999999995

>  <m_primary>  (43) 
energy

>  <rmsd>  (43) 
7.615955912462126

>  <m_score__min__rmsd>  (43) 
7.615955912462126

>  <meeko>  (43) 
{"free_energy": -9.3, "intermolecular_energy": -10.2, "internal_energy": -0.7, "cluster_size": 50, "cluster_id": 1, "rank_in_cluster": 37}

>  <energy>  (43) 
-9.1

>  <cluster_rmsd>  (43) 
0.44

>  <cluster>  (43) 
1

$$$$

     RDKit          3D

 46 50  0  0  0  0  0  0  0  0999 V2000
  141.2370   68.1640  228.8910 C   0  0  0  0  0  0  0  0  0  0  0  0
  140.6930   68.4750  227.5430 C   0  0  0  0  0  0  0  0  0  0  0  0
  139.8920   67.5570  226.8730 C   0  0  0  0  0  0  0  0  0  0  0  0
  139.3790   67.8360  225.6180 C   0  0  0  0  0  0  0  0  0  0  0  0
  139.6400   69.0330  224.9800 C   0  0  0  0  0  0  0  0  0  0  0  0
  140.4350   69.9470  225.6430 C   0  0  0  0  0  0  0  0  0  0  0  0
  140.9500   69.6690  226.9020 C   0  0  0  0  0  0  0  0  0  0  0  0
  140.5870   71.1520  224.7850 C   0  0  0  0  0  0  0  0  0  0  0  0
  139.7850   70.7810  223.5910 C   0  0  0  0  0  0  0  0  0  0  0  0
  139.5980   71.6310  222.4200 C   0  0  0  0  0  0  0  0  0  0  0  0
  139.1160   71.1070  221.2230 C   0  0  0  0  0  0  0  0  0  0  0  0
  138.9290   71.8800  220.1070 C   0  0  0  0  0  0  0  0  0  0  0  0
  139.2350   73.2150  220.1930 C   0  0  0  0  0  0  0  0  0  0  0  0
  139.7090   73.7950  221.3250 C   0  0  0  0  0  0  0  0  0  0  0  0
  140.0440   75.1970  221.4630 C   0  0  0  0  0  0  0  0  0  0  0  0
  140.7640   75.8020  220.6230 O   0  0  0  0  0  0  0  0  0  0  0  0
  139.5710   75.9640  222.5640 N   0  0  0  0  0  0  0  0  0  0  0  0
  139.8890   77.3550  222.7220 C   0  0  0  0  0  0  0  0  0  0  0  0
  138.9690   78.3120  223.0210 C   0  0  0  0  0  0  0  0  0  0  0  0
  139.3240   79.6390  223.1640 C   0  0  0  0  0  0  0  0  0  0  0  0
  140.6490   79.9890  222.9960 C   0  0  0  0  0  0  0  0  0  0  0  0
  141.3560   81.1870  223.0610 C   0  0  0  0  0  0  0  0  0  0  0  0
  142.6590   80.9060  222.8010 N   0  0  0  0  0  0  0  0  0  0  0  0
  142.8060   79.6080  222.5800 N   0  0  0  0  0  0  0  0  0  0  0  0
  141.6090   79.0310  222.6910 C   0  0  0  0  0  0  0  0  0  0  0  0
  141.2070   77.7110  222.5560 C   0  0  0  0  0  0  0  0  0  0  0  0
  139.8820   72.9690  222.4380 C   0  0  0  0  0  0  0  0  0  0  0  0
  139.2740   69.6040  223.7290 N   0  0  0  0  0  0  0  0  0  0  0  0
  140.5547   68.5540  229.6607 H   0  0  0  0  0  0  0  0  0  0  0  0
  141.3337   67.0742  229.0049 H   0  0  0  0  0  0  0  0  0  0  0  0
  142.2252   68.6336  229.0049 H   0  0  0  0  0  0  0  0  0  0  0  0
  139.6619   66.5922  227.3486 H   0  0  0  0  0  0  0  0  0  0  0  0
  138.7485   67.0867  225.1169 H   0  0  0  0  0  0  0  0  0  0  0  0
  141.5793   70.4204  227.4013 H   0  0  0  0  0  0  0  0  0  0  0  0
  140.1805   72.0477  225.2775 H   0  0  0  0  0  0  0  0  0  0  0  0
  141.6326   71.4061  224.5567 H   0  0  0  0  0  0  0  0  0  0  0  0
  138.8769   70.0345  221.1716 H   0  0  0  0  0  0  0  0  0  0  0  0
  138.5460   71.4444  219.1724 H   0  0  0  0  0  0  0  0  0  0  0  0
  139.0893   73.8446  219.3028 H   0  0  0  0  0  0  0  0  0  0  0  0
  138.9680   75.5580  223.3120 H   0  0  0  0  0  0  0  0  0  0  0  0
  137.9162   78.0214  223.1521 H   0  0  0  0  0  0  0  0  0  0  0  0
  138.5679   80.4002  223.4064 H   0  0  0  0  0  0  0  0  0  0  0  0
  140.9360   82.1792  223.2824 H   0  0  0  0  0  0  0  0  0  0  0  0
  143.7220   79.1510  222.3580 H   0  0  0  0  0  0  0  0  0  0  0  0
  141.9517   76.9387  222.3131 H   0  0  0  0  0  0  0  0  0  0  0  0
  140.2631   73.4136  223.3692 H   0  0  0  0  0  0  0  0  0  0  0  0
  1  2  1  0
  2  3  2  0
  3  4  1  0
  4  5  2  0
  5  6  1  0
  6  7  2  0
  6  8  1  0
  8  9  1  0
  9 10  1  0
 10 11  2  0
 11 12  1  0
 12 13  2  0
 13 14  1  0
 14 15  1  0
 15 16  2  0
 15 17  1  0
 17 18  1  0
 18 19  2  0
 19 20  1  0
 20 21  2  0
 21 22  1  0
 22 23  2  0
 23 24  1  0
 24 25  1  0
 25 26  2  0
 14 27  2  0
  9 28  2  0
  7  2  1  0
 27 10  1  0
 28  5  1  0
 26 18  1  0
 25 21  1  0
  1 29  1  0
  1 30  1  0
  1 31  1  0
  3 32  1  0
  4 33  1  0
  7 34  1  0
  8 35  1  0
  8 36  1  0
 11 37  1  0
 12 38  1  0
 13 39  1  0
 17 40  1  0
 19 41  1  0
 20 42  1  0
 22 43  1  0
 24 44  1  0
 26 45  1  0
 27 46  1  0
M  END
>  <smiles>  (44) 
Cc1ccc2c(c1)CC(c1cccc(C(=O)Nc3ccc4cn[nH]c4c3)c1)=N2

>  <score_type>  (44) 
oracle

>  <origin>  (44) 
autodockgpu

>  <m_score__min__energy>  (44) 
-9.4399999999999995

>  <m_primary>  (44) 
energy

>  <rmsd>  (44) 
7.638887493865368

>  <m_score__min__rmsd>  (44) 
7.638887493865368

>  <meeko>  (44) 
{"free_energy": -9.42, "intermolecular_energy": -10.31, "internal_energy": -0.63, "cluster_size": 50, "cluster_id": 1, "rank_in_cluster": 5}

>  <energy>  (44) 
-8.86

>  <cluster_rmsd>  (44) 
1.5

>  <cluster>  (44) 
1

$$$$

     RDKit          3D

 46 50  0  0  0  0  0  0  0  0999 V2000
  141.2280   68.2890  228.8540 C   0  0  0  0  0  0  0  0  0  0  0  0
  140.6540   68.6030  227.5190 C   0  0  0  0  0  0  0  0  0  0  0  0
  139.7500   67.7360  226.9150 C   0  0  0  0  0  0  0  0  0  0  0  0
  139.2080   68.0180  225.6720 C   0  0  0  0  0  0  0  0  0  0  0  0
  139.5420   69.1670  224.9830 C   0  0  0  0  0  0  0  0  0  0  0  0
  140.4390   70.0300  225.5800 C   0  0  0  0  0  0  0  0  0  0  0  0
  140.9830   69.7500  226.8260 C   0  0  0  0  0  0  0  0  0  0  0  0
  140.6540   71.1900  224.6750 C   0  0  0  0  0  0  0  0  0  0  0  0
  139.7720   70.8520  223.5280 C   0  0  0  0  0  0  0  0  0  0  0  0
  139.6070   71.6770  222.3360 C   0  0  0  0  0  0  0  0  0  0  0  0
  139.2040   71.1170  221.1270 C   0  0  0  0  0  0  0  0  0  0  0  0
  139.0390   71.8660  219.9910 C   0  0  0  0  0  0  0  0  0  0  0  0
  139.2860   73.2140  220.0700 C   0  0  0  0  0  0  0  0  0  0  0  0
  139.6820   73.8280  221.2140 C   0  0  0  0  0  0  0  0  0  0  0  0
  139.9530   75.2450  221.3460 C   0  0  0  0  0  0  0  0  0  0  0  0
  140.4370   75.9270  220.4020 O   0  0  0  0  0  0  0  0  0  0  0  0
  139.6830   75.9380  222.5570 N   0  0  0  0  0  0  0  0  0  0  0  0
  139.9420   77.3420  222.7120 C   0  0  0  0  0  0  0  0  0  0  0  0
  138.9830   78.2600  223.0110 C   0  0  0  0  0  0  0  0  0  0  0  0
  139.2830   79.6010  223.1500 C   0  0  0  0  0  0  0  0  0  0  0  0
  140.5910   80.0070  222.9780 C   0  0  0  0  0  0  0  0  0  0  0  0
  141.2470   81.2330  223.0380 C   0  0  0  0  0  0  0  0  0  0  0  0
  142.5610   81.0060  222.7760 N   0  0  0  0  0  0  0  0  0  0  0  0
  142.7620   79.7160  222.5570 N   0  0  0  0  0  0  0  0  0  0  0  0
  141.5900   79.0880  222.6720 C   0  0  0  0  0  0  0  0  0  0  0  0
  141.2440   77.7530  222.5420 C   0  0  0  0  0  0  0  0  0  0  0  0
  139.8360   73.0260  222.3470 C   0  0  0  0  0  0  0  0  0  0  0  0
  139.1700   69.7270  223.7280 N   0  0  0  0  0  0  0  0  0  0  0  0
  140.5525   68.6585  229.6396 H   0  0  0  0  0  0  0  0  0  0  0  0
  141.3470   67.2001  228.9551 H   0  0  0  0  0  0  0  0  0  0  0  0
  142.2091   68.7760  228.9551 H   0  0  0  0  0  0  0  0  0  0  0  0
  139.4603   66.8101  227.4334 H   0  0  0  0  0  0  0  0  0  0  0  0
  138.4951   67.3104  225.2235 H   0  0  0  0  0  0  0  0  0  0  0  0
  141.6944   70.4605  227.2723 H   0  0  0  0  0  0  0  0  0  0  0  0
  140.3463   72.1321  225.1522 H   0  0  0  0  0  0  0  0  0  0  0  0
  141.7063   71.3463  224.3953 H   0  0  0  0  0  0  0  0  0  0  0  0
  139.0111   70.0350  221.0817 H   0  0  0  0  0  0  0  0  0  0  0  0
  138.7190   71.4019  219.0465 H   0  0  0  0  0  0  0  0  0  0  0  0
  139.1570   73.8249  219.1644 H   0  0  0  0  0  0  0  0  0  0  0  0
  139.2810   75.4660  223.3960 H   0  0  0  0  0  0  0  0  0  0  0  0
  137.9436   77.9259  223.1453 H   0  0  0  0  0  0  0  0  0  0  0  0
  138.4960   80.3302  223.3927 H   0  0  0  0  0  0  0  0  0  0  0  0
  140.7862   82.2074  223.2573 H   0  0  0  0  0  0  0  0  0  0  0  0
  143.6960   79.2960  222.3330 H   0  0  0  0  0  0  0  0  0  0  0  0
  142.0201   77.0120  222.2998 H   0  0  0  0  0  0  0  0  0  0  0  0
  140.1548   73.4987  223.2877 H   0  0  0  0  0  0  0  0  0  0  0  0
  1  2  1  0
  2  3  2  0
  3  4  1  0
  4  5  2  0
  5  6  1  0
  6  7  2  0
  6  8  1  0
  8  9  1  0
  9 10  1  0
 10 11  2  0
 11 12  1  0
 12 13  2  0
 13 14  1  0
 14 15  1  0
 15 16  2  0
 15 17  1  0
 17 18  1  0
 18 19  2  0
 19 20  1  0
 20 21  2  0
 21 22  1  0
 22 23  2  0
 23 24  1  0
 24 25  1  0
 25 26  2  0
 14 27  2  0
  9 28  2  0
  7  2  1  0
 27 10  1  0
 28  5  1  0
 26 18  1  0
 25 21  1  0
  1 29  1  0
  1 30  1  0
  1 31  1  0
  3 32  1  0
  4 33  1  0
  7 34  1  0
  8 35  1  0
  8 36  1  0
 11 37  1  0
 12 38  1  0
 13 39  1  0
 17 40  1  0
 19 41  1  0
 20 42  1  0
 22 43  1  0
 24 44  1  0
 26 45  1  0
 27 46  1  0
M  END
>  <smiles>  (45) 
Cc1ccc2c(c1)CC(c1cccc(C(=O)Nc3ccc4cn[nH]c4c3)c1)=N2

>  <score_type>  (45) 
oracle

>  <origin>  (45) 
autodockgpu

>  <m_score__min__energy>  (45) 
-9.4399999999999995

>  <m_primary>  (45) 
energy

>  <rmsd>  (45) 
7.627258437461794

>  <m_score__min__rmsd>  (45) 
7.627258437461794

>  <meeko>  (45) 
{"free_energy": -9.3, "intermolecular_energy": -10.2, "internal_energy": -0.7, "cluster_size": 50, "cluster_id": 1, "rank_in_cluster": 34}

>  <energy>  (45) 
-8.86

>  <cluster_rmsd>  (45) 
1.5

>  <cluster>  (45) 
1

$$$$

     RDKit          3D

 46 50  0  0  0  0  0  0  0  0999 V2000
  141.3410   68.2980  228.7830 C   0  0  0  0  0  0  0  0  0  0  0  0
  140.7230   68.5900  227.4630 C   0  0  0  0  0  0  0  0  0  0  0  0
  139.8970   67.6580  226.8450 C   0  0  0  0  0  0  0  0  0  0  0  0
  139.3150   67.9190  225.6160 C   0  0  0  0  0  0  0  0  0  0  0  0
  139.5310   69.1120  224.9540 C   0  0  0  0  0  0  0  0  0  0  0  0
  140.3500   70.0400  225.5650 C   0  0  0  0  0  0  0  0  0  0  0  0
  140.9340   69.7800  226.7980 C   0  0  0  0  0  0  0  0  0  0  0  0
  140.4440   71.2380  224.6890 C   0  0  0  0  0  0  0  0  0  0  0  0
  139.5830   70.8470  223.5420 C   0  0  0  0  0  0  0  0  0  0  0  0
  139.3260   71.6840  222.3750 C   0  0  0  0  0  0  0  0  0  0  0  0
  138.7880   71.1420  221.2100 C   0  0  0  0  0  0  0  0  0  0  0  0
  138.5350   71.9020  220.0980 C   0  0  0  0  0  0  0  0  0  0  0  0
  138.8300   73.2410  220.1550 C   0  0  0  0  0  0  0  0  0  0  0  0
  139.3560   73.8370  221.2550 C   0  0  0  0  0  0  0  0  0  0  0  0
  139.6820   75.2440  221.3630 C   0  0  0  0  0  0  0  0  0  0  0  0
  140.0890   75.9170  220.3780 O   0  0  0  0  0  0  0  0  0  0  0  0
  139.5550   75.9390  222.5970 N   0  0  0  0  0  0  0  0  0  0  0  0
  139.8710   77.3330  222.7290 C   0  0  0  0  0  0  0  0  0  0  0  0
  138.9480   78.2960  222.9940 C   0  0  0  0  0  0  0  0  0  0  0  0
  139.3010   79.6260  223.1120 C   0  0  0  0  0  0  0  0  0  0  0  0
  140.6280   79.9730  222.9530 C   0  0  0  0  0  0  0  0  0  0  0  0
  141.3350   81.1720  223.0000 C   0  0  0  0  0  0  0  0  0  0  0  0
  142.6410   80.8850  222.7620 N   0  0  0  0  0  0  0  0  0  0  0  0
  142.7910   79.5830  222.5720 N   0  0  0  0  0  0  0  0  0  0  0  0
  141.5920   79.0080  222.6810 C   0  0  0  0  0  0  0  0  0  0  0  0
  141.1920   77.6860  222.5710 C   0  0  0  0  0  0  0  0  0  0  0  0
  139.5960   73.0240  222.3660 C   0  0  0  0  0  0  0  0  0  0  0  0
  139.0920   69.6660  223.7180 N   0  0  0  0  0  0  0  0  0  0  0  0
  140.6608   68.6194  229.5855 H   0  0  0  0  0  0  0  0  0  0  0  0
  141.5261   67.2172  228.8702 H   0  0  0  0  0  0  0  0  0  0  0  0
  142.2935   68.8413  228.8702 H   0  0  0  0  0  0  0  0  0  0  0  0
  139.7023   66.6958  227.3413 H   0  0  0  0  0  0  0  0  0  0  0  0
  138.6659   67.1591  225.1564 H   0  0  0  0  0  0  0  0  0  0  0  0
  141.5813   70.5424  227.2559 H   0  0  0  0  0  0  0  0  0  0  0  0
  140.0550   72.1345  225.1940 H   0  0  0  0  0  0  0  0  0  0  0  0
  141.4734   71.5001  224.4032 H   0  0  0  0  0  0  0  0  0  0  0  0
  138.5582   70.0666  221.1816 H   0  0  0  0  0  0  0  0  0  0  0  0
  138.1090   71.4530  219.1887 H   0  0  0  0  0  0  0  0  0  0  0  0
  138.6309   73.8601  219.2678 H   0  0  0  0  0  0  0  0  0  0  0  0
  139.2250   75.4740  223.4710 H   0  0  0  0  0  0  0  0  0  0  0  0
  137.8935   78.0083  223.1175 H   0  0  0  0  0  0  0  0  0  0  0  0
  138.5417   80.3920  223.3279 H   0  0  0  0  0  0  0  0  0  0  0  0
  140.9129   82.1690  223.1943 H   0  0  0  0  0  0  0  0  0  0  0  0
  143.7090   79.1200  222.3710 H   0  0  0  0  0  0  0  0  0  0  0  0
  141.9396   76.9087  222.3546 H   0  0  0  0  0  0  0  0  0  0  0  0
  140.0202   73.4818  223.2718 H   0  0  0  0  0  0  0  0  0  0  0  0
  1  2  1  0
  2  3  2  0
  3  4  1  0
  4  5  2  0
  5  6  1  0
  6  7  2  0
  6  8  1  0
  8  9  1  0
  9 10  1  0
 10 11  2  0
 11 12  1  0
 12 13  2  0
 13 14  1  0
 14 15  1  0
 15 16  2  0
 15 17  1  0
 17 18  1  0
 18 19  2  0
 19 20  1  0
 20 21  2  0
 21 22  1  0
 22 23  2  0
 23 24  1  0
 24 25  1  0
 25 26  2  0
 14 27  2  0
  9 28  2  0
  7  2  1  0
 27 10  1  0
 28  5  1  0
 26 18  1  0
 25 21  1  0
  1 29  1  0
  1 30  1  0
  1 31  1  0
  3 32  1  0
  4 33  1  0
  7 34  1  0
  8 35  1  0
  8 36  1  0
 11 37  1  0
 12 38  1  0
 13 39  1  0
 17 40  1  0
 19 41  1  0
 20 42  1  0
 22 43  1  0
 24 44  1  0
 26 45  1  0
 27 46  1  0
M  END
>  <smiles>  (46) 
Cc1ccc2c(c1)CC(c1cccc(C(=O)Nc3ccc4cn[nH]c4c3)c1)=N2

>  <score_type>  (46) 
oracle

>  <origin>  (46) 
autodockgpu

>  <m_score__min__energy>  (46) 
-9.4399999999999995

>  <m_primary>  (46) 
energy

>  <rmsd>  (46) 
7.610667464623091

>  <m_score__min__rmsd>  (46) 
7.610667464623091

>  <meeko>  (46) 
{"free_energy": -9.26, "intermolecular_energy": -10.16, "internal_energy": -0.72, "cluster_size": 50, "cluster_id": 1, "rank_in_cluster": 39}

>  <energy>  (46) 
-8.85

>  <cluster_rmsd>  (46) 
1.52

>  <cluster>  (46) 
1

$$$$

     RDKit          3D

 46 50  0  0  0  0  0  0  0  0999 V2000
  140.9670   68.2460  228.6000 C   0  0  0  0  0  0  0  0  0  0  0  0
  140.5190   68.6380  227.2380 C   0  0  0  0  0  0  0  0  0  0  0  0
  139.7210   67.7870  226.4820 C   0  0  0  0  0  0  0  0  0  0  0  0
  139.2970   68.1420  225.2120 C   0  0  0  0  0  0  0  0  0  0  0  0
  139.6480   69.3510  224.6450 C   0  0  0  0  0  0  0  0  0  0  0  0
  140.4400   70.1990  225.3940 C   0  0  0  0  0  0  0  0  0  0  0  0
  140.8660   69.8460  226.6670 C   0  0  0  0  0  0  0  0  0  0  0  0
  140.6950   71.4320  224.6010 C   0  0  0  0  0  0  0  0  0  0  0  0
  139.9510   71.1490  223.3470 C   0  0  0  0  0  0  0  0  0  0  0  0
  139.8720   72.0550  222.2060 C   0  0  0  0  0  0  0  0  0  0  0  0
  139.7160   71.5660  220.9120 C   0  0  0  0  0  0  0  0  0  0  0  0
  139.6370   72.3920  219.8210 C   0  0  0  0  0  0  0  0  0  0  0  0
  139.7190   73.7460  220.0340 C   0  0  0  0  0  0  0  0  0  0  0  0
  139.8720   74.2930  221.2670 C   0  0  0  0  0  0  0  0  0  0  0  0
  139.9620   75.7130  221.5410 C   0  0  0  0  0  0  0  0  0  0  0  0
  138.9590   76.4740  221.4800 O   0  0  0  0  0  0  0  0  0  0  0  0
  141.1990   76.3190  221.8950 N   0  0  0  0  0  0  0  0  0  0  0  0
  141.3130   77.7230  222.1720 C   0  0  0  0  0  0  0  0  0  0  0  0
  141.4410   78.2390  223.4240 C   0  0  0  0  0  0  0  0  0  0  0  0
  141.5480   79.5990  223.6400 C   0  0  0  0  0  0  0  0  0  0  0  0
  141.5230   80.4440  222.5490 C   0  0  0  0  0  0  0  0  0  0  0  0
  141.6030   81.8250  222.3830 C   0  0  0  0  0  0  0  0  0  0  0  0
  141.5210   82.0810  221.0520 N   0  0  0  0  0  0  0  0  0  0  0  0
  141.3960   80.9460  220.3800 N   0  0  0  0  0  0  0  0  0  0  0  0
  141.3940   79.9420  221.2590 C   0  0  0  0  0  0  0  0  0  0  0  0
  141.2890   78.5710  221.0890 C   0  0  0  0  0  0  0  0  0  0  0  0
  139.9460   73.4140  222.3490 C   0  0  0  0  0  0  0  0  0  0  0  0
  139.3830   69.9910  223.4020 N   0  0  0  0  0  0  0  0  0  0  0  0
  140.3623   68.7751  229.3513 H   0  0  0  0  0  0  0  0  0  0  0  0
  140.8437   67.1605  228.7283 H   0  0  0  0  0  0  0  0  0  0  0  0
  142.0265   68.5123  228.7283 H   0  0  0  0  0  0  0  0  0  0  0  0
  139.4210   66.8146  226.8997 H   0  0  0  0  0  0  0  0  0  0  0  0
  138.6659   67.4444  224.6419 H   0  0  0  0  0  0  0  0  0  0  0  0
  141.4959   70.5464  227.2351 H   0  0  0  0  0  0  0  0  0  0  0  0
  140.2985   72.3235  225.1089 H   0  0  0  0  0  0  0  0  0  0  0  0
  141.7624   71.6477  224.4455 H   0  0  0  0  0  0  0  0  0  0  0  0
  139.6540   70.4784  220.7597 H   0  0  0  0  0  0  0  0  0  0  0  0
  139.5119   71.9833  218.8074 H   0  0  0  0  0  0  0  0  0  0  0  0
  139.6579   74.4184  219.1656 H   0  0  0  0  0  0  0  0  0  0  0  0
  142.0870   75.7770  221.9740 H   0  0  0  0  0  0  0  0  0  0  0  0
  141.4597   77.5560  224.2861 H   0  0  0  0  0  0  0  0  0  0  0  0
  141.6509   79.9999  224.6592 H   0  0  0  0  0  0  0  0  0  0  0  0
  141.7125   82.5713  223.1836 H   0  0  0  0  0  0  0  0  0  0  0  0
  141.3140   80.8880  219.3370 H   0  0  0  0  0  0  0  0  0  0  0  0
  141.1852   78.1555  220.0758 H   0  0  0  0  0  0  0  0  0  0  0  0
  140.0690   73.8314  223.3593 H   0  0  0  0  0  0  0  0  0  0  0  0
  1  2  1  0
  2  3  2  0
  3  4  1  0
  4  5  2  0
  5  6  1  0
  6  7  2  0
  6  8  1  0
  8  9  1  0
  9 10  1  0
 10 11  2  0
 11 12  1  0
 12 13  2  0
 13 14  1  0
 14 15  1  0
 15 16  2  0
 15 17  1  0
 17 18  1  0
 18 19  2  0
 19 20  1  0
 20 21  2  0
 21 22  1  0
 22 23  2  0
 23 24  1  0
 24 25  1  0
 25 26  2  0
 14 27  2  0
  9 28  2  0
  7  2  1  0
 27 10  1  0
 28  5  1  0
 26 18  1  0
 25 21  1  0
  1 29  1  0
  1 30  1  0
  1 31  1  0
  3 32  1  0
  4 33  1  0
  7 34  1  0
  8 35  1  0
  8 36  1  0
 11 37  1  0
 12 38  1  0
 13 39  1  0
 17 40  1  0
 19 41  1  0
 20 42  1  0
 22 43  1  0
 24 44  1  0
 26 45  1  0
 27 46  1  0
M  END
>  <smiles>  (47) 
Cc1ccc2c(c1)CC(c1cccc(C(=O)Nc3ccc4cn[nH]c4c3)c1)=N2

>  <score_type>  (47) 
oracle

>  <origin>  (47) 
autodockgpu

>  <m_score__min__energy>  (47) 
-9.4399999999999995

>  <m_primary>  (47) 
energy

>  <rmsd>  (47) 
7.404664312836694

>  <m_score__min__rmsd>  (47) 
7.404664312836694

>  <meeko>  (47) 
{"free_energy": -8.86, "intermolecular_energy": -9.75, "internal_energy": -0.72, "cluster_size": 50, "cluster_id": 1, "rank_in_cluster": 45}

>  <energy>  (47) 
-8.66

>  <cluster_rmsd>  (47) 
1.35

>  <cluster>  (47) 
1

$$$$

     RDKit          3D

 46 50  0  0  0  0  0  0  0  0999 V2000
  141.2570   68.2430  228.8890 C   0  0  0  0  0  0  0  0  0  0  0  0
  140.6740   68.5540  227.5580 C   0  0  0  0  0  0  0  0  0  0  0  0
  139.7790   67.6780  226.9530 C   0  0  0  0  0  0  0  0  0  0  0  0
  139.2300   67.9570  225.7140 C   0  0  0  0  0  0  0  0  0  0  0  0
  139.5460   69.1120  225.0270 C   0  0  0  0  0  0  0  0  0  0  0  0
  140.4340   69.9850  225.6240 C   0  0  0  0  0  0  0  0  0  0  0  0
  140.9860   69.7070  226.8680 C   0  0  0  0  0  0  0  0  0  0  0  0
  140.6310   71.1510  224.7220 C   0  0  0  0  0  0  0  0  0  0  0  0
  139.7490   70.8050  223.5770 C   0  0  0  0  0  0  0  0  0  0  0  0
  139.5690   71.6330  222.3890 C   0  0  0  0  0  0  0  0  0  0  0  0
  139.1330   71.0770  221.1890 C   0  0  0  0  0  0  0  0  0  0  0  0
  138.9530   71.8280  220.0570 C   0  0  0  0  0  0  0  0  0  0  0  0
  139.2200   73.1730  220.1290 C   0  0  0  0  0  0  0  0  0  0  0  0
  139.6490   73.7820  221.2640 C   0  0  0  0  0  0  0  0  0  0  0  0
  139.9420   75.1950  221.3900 C   0  0  0  0  0  0  0  0  0  0  0  0
  140.4880   75.8530  220.4630 O   0  0  0  0  0  0  0  0  0  0  0  0
  139.6230   75.9120  222.5750 N   0  0  0  0  0  0  0  0  0  0  0  0
  139.9020   77.3130  222.7230 C   0  0  0  0  0  0  0  0  0  0  0  0
  138.9570   78.2460  223.0190 C   0  0  0  0  0  0  0  0  0  0  0  0
  139.2760   79.5830  223.1510 C   0  0  0  0  0  0  0  0  0  0  0  0
  140.5890   79.9690  222.9750 C   0  0  0  0  0  0  0  0  0  0  0  0
  141.2630   81.1870  223.0290 C   0  0  0  0  0  0  0  0  0  0  0  0
  142.5720   80.9400  222.7650 N   0  0  0  0  0  0  0  0  0  0  0  0
  142.7550   79.6460  222.5520 N   0  0  0  0  0  0  0  0  0  0  0  0
  141.5740   79.0360  222.6720 C   0  0  0  0  0  0  0  0  0  0  0  0
  141.2090   77.7050  222.5490 C   0  0  0  0  0  0  0  0  0  0  0  0
  139.8160   72.9780  222.3940 C   0  0  0  0  0  0  0  0  0  0  0  0
  139.1630   69.6720  223.7750 N   0  0  0  0  0  0  0  0  0  0  0  0
  140.5813   68.6035  229.6786 H   0  0  0  0  0  0  0  0  0  0  0  0
  141.3879   67.1552  228.9869 H   0  0  0  0  0  0  0  0  0  0  0  0
  142.2334   68.7401  228.9869 H   0  0  0  0  0  0  0  0  0  0  0  0
  139.5027   66.7466  227.4688 H   0  0  0  0  0  0  0  0  0  0  0  0
  138.5250   67.2415  225.2657 H   0  0  0  0  0  0  0  0  0  0  0  0
  141.6900   70.4247  227.3144 H   0  0  0  0  0  0  0  0  0  0  0  0
  140.3129   72.0875  225.2034 H   0  0  0  0  0  0  0  0  0  0  0  0
  141.6802   71.3220  224.4392 H   0  0  0  0  0  0  0  0  0  0  0  0
  138.9259   69.9974  221.1484 H   0  0  0  0  0  0  0  0  0  0  0  0
  138.6056   71.3679  219.1202 H   0  0  0  0  0  0  0  0  0  0  0  0
  139.0799   73.7850  219.2258 H   0  0  0  0  0  0  0  0  0  0  0  0
  139.1680   75.4610  223.3980 H   0  0  0  0  0  0  0  0  0  0  0  0
  137.9132   77.9274  223.1565 H   0  0  0  0  0  0  0  0  0  0  0  0
  138.4999   80.3246  223.3913 H   0  0  0  0  0  0  0  0  0  0  0  0
  140.8167   82.1688  223.2457 H   0  0  0  0  0  0  0  0  0  0  0  0
  143.6820   79.2120  222.3290 H   0  0  0  0  0  0  0  0  0  0  0  0
  141.9743   76.9521  222.3091 H   0  0  0  0  0  0  0  0  0  0  0  0
  140.1608   73.4467  223.3275 H   0  0  0  0  0  0  0  0  0  0  0  0
  1  2  1  0
  2  3  2  0
  3  4  1  0
  4  5  2  0
  5  6  1  0
  6  7  2  0
  6  8  1  0
  8  9  1  0
  9 10  1  0
 10 11  2  0
 11 12  1  0
 12 13  2  0
 13 14  1  0
 14 15  1  0
 15 16  2  0
 15 17  1  0
 17 18  1  0
 18 19  2  0
 19 20  1  0
 20 21  2  0
 21 22  1  0
 22 23  2  0
 23 24  1  0
 24 25  1  0
 25 26  2  0
 14 27  2  0
  9 28  2  0
  7  2  1  0
 27 10  1  0
 28  5  1  0
 26 18  1  0
 25 21  1  0
  1 29  1  0
  1 30  1  0
  1 31  1  0
  3 32  1  0
  4 33  1  0
  7 34  1  0
  8 35  1  0
  8 36  1  0
 11 37  1  0
 12 38  1  0
 13 39  1  0
 17 40  1  0
 19 41  1  0
 20 42  1  0
 22 43  1  0
 24 44  1  0
 26 45  1  0
 27 46  1  0
M  END
>  <smiles>  (48) 
Cc1ccc2c(c1)CC(c1cccc(C(=O)Nc3ccc4cn[nH]c4c3)c1)=N2

>  <score_type>  (48) 
oracle

>  <origin>  (48) 
autodockgpu

>  <m_score__min__energy>  (48) 
-9.4399999999999995

>  <m_primary>  (48) 
energy

>  <rmsd>  (48) 
7.642459020509653

>  <m_score__min__rmsd>  (48) 
7.642459020509653

>  <meeko>  (48) 
{"free_energy": -9.33, "intermolecular_energy": -10.23, "internal_energy": -0.69, "cluster_size": 50, "cluster_id": 1, "rank_in_cluster": 29}

>  <energy>  (48) 
-8.64

>  <cluster_rmsd>  (48) 
1.37

>  <cluster>  (48) 
1

$$$$

     RDKit          3D

 46 50  0  0  0  0  0  0  0  0999 V2000
  141.3190   68.2960  228.7890 C   0  0  0  0  0  0  0  0  0  0  0  0
  140.7000   68.5930  227.4700 C   0  0  0  0  0  0  0  0  0  0  0  0
  139.8710   67.6640  226.8500 C   0  0  0  0  0  0  0  0  0  0  0  0
  139.2890   67.9300  225.6230 C   0  0  0  0  0  0  0  0  0  0  0  0
  139.5070   69.1240  224.9630 C   0  0  0  0  0  0  0  0  0  0  0  0
  140.3300   70.0490  225.5760 C   0  0  0  0  0  0  0  0  0  0  0  0
  140.9140   69.7840  226.8070 C   0  0  0  0  0  0  0  0  0  0  0  0
  140.4250   71.2490  224.7020 C   0  0  0  0  0  0  0  0  0  0  0  0
  139.5630   70.8630  223.5560 C   0  0  0  0  0  0  0  0  0  0  0  0
  139.3070   71.7030  222.3910 C   0  0  0  0  0  0  0  0  0  0  0  0
  138.7540   71.1690  221.2300 C   0  0  0  0  0  0  0  0  0  0  0  0
  138.5010   71.9320  220.1200 C   0  0  0  0  0  0  0  0  0  0  0  0
  138.8120   73.2680  220.1750 C   0  0  0  0  0  0  0  0  0  0  0  0
  139.3540   73.8570  221.2720 C   0  0  0  0  0  0  0  0  0  0  0  0
  139.6980   75.2600  221.3780 C   0  0  0  0  0  0  0  0  0  0  0  0
  140.1630   75.9120  220.4050 O   0  0  0  0  0  0  0  0  0  0  0  0
  139.5230   75.9730  222.5950 N   0  0  0  0  0  0  0  0  0  0  0  0
  139.8560   77.3630  222.7250 C   0  0  0  0  0  0  0  0  0  0  0  0
  138.9450   78.3360  223.0010 C   0  0  0  0  0  0  0  0  0  0  0  0
  139.3140   79.6620  223.1160 C   0  0  0  0  0  0  0  0  0  0  0  0
  140.6430   79.9950  222.9430 C   0  0  0  0  0  0  0  0  0  0  0  0
  141.3630   81.1860  222.9830 C   0  0  0  0  0  0  0  0  0  0  0  0
  142.6630   80.8860  222.7310 N   0  0  0  0  0  0  0  0  0  0  0  0
  142.7970   79.5820  222.5380 N   0  0  0  0  0  0  0  0  0  0  0  0
  141.5930   79.0200  222.6600 C   0  0  0  0  0  0  0  0  0  0  0  0
  141.1780   77.7020  222.5530 C   0  0  0  0  0  0  0  0  0  0  0  0
  139.5930   73.0410  222.3800 C   0  0  0  0  0  0  0  0  0  0  0  0
  139.0690   69.6830  223.7290 N   0  0  0  0  0  0  0  0  0  0  0  0
  140.6422   68.6207  229.5931 H   0  0  0  0  0  0  0  0  0  0  0  0
  141.4978   67.2140  228.8748 H   0  0  0  0  0  0  0  0  0  0  0  0
  142.2749   68.8335  228.8748 H   0  0  0  0  0  0  0  0  0  0  0  0
  139.6746   66.7009  227.3437 H   0  0  0  0  0  0  0  0  0  0  0  0
  138.6374   67.1729  225.1623 H   0  0  0  0  0  0  0  0  0  0  0  0
  141.5643   70.5432  227.2659 H   0  0  0  0  0  0  0  0  0  0  0  0
  140.0382   72.1451  225.2094 H   0  0  0  0  0  0  0  0  0  0  0  0
  141.4546   71.5095  224.4155 H   0  0  0  0  0  0  0  0  0  0  0  0
  138.5115   70.0964  221.2028 H   0  0  0  0  0  0  0  0  0  0  0  0
  138.0628   71.4881  219.2140 H   0  0  0  0  0  0  0  0  0  0  0  0
  138.6130   73.8900  219.2898 H   0  0  0  0  0  0  0  0  0  0  0  0
  139.1430   75.5250  223.4580 H   0  0  0  0  0  0  0  0  0  0  0  0
  137.8889   78.0594  223.1358 H   0  0  0  0  0  0  0  0  0  0  0  0
  138.5654   80.4361  223.3405 H   0  0  0  0  0  0  0  0  0  0  0  0
  140.9534   82.1872  223.1824 H   0  0  0  0  0  0  0  0  0  0  0  0
  143.7080   79.1100  222.3270 H   0  0  0  0  0  0  0  0  0  0  0  0
  141.9150   76.9171  222.3277 H   0  0  0  0  0  0  0  0  0  0  0  0
  140.0299   73.4934  223.2825 H   0  0  0  0  0  0  0  0  0  0  0  0
  1  2  1  0
  2  3  2  0
  3  4  1  0
  4  5  2  0
  5  6  1  0
  6  7  2  0
  6  8  1  0
  8  9  1  0
  9 10  1  0
 10 11  2  0
 11 12  1  0
 12 13  2  0
 13 14  1  0
 14 15  1  0
 15 16  2  0
 15 17  1  0
 17 18  1  0
 18 19  2  0
 19 20  1  0
 20 21  2  0
 21 22  1  0
 22 23  2  0
 23 24  1  0
 24 25  1  0
 25 26  2  0
 14 27  2  0
  9 28  2  0
  7  2  1  0
 27 10  1  0
 28  5  1  0
 26 18  1  0
 25 21  1  0
  1 29  1  0
  1 30  1  0
  1 31  1  0
  3 32  1  0
  4 33  1  0
  7 34  1  0
  8 35  1  0
  8 36  1  0
 11 37  1  0
 12 38  1  0
 13 39  1  0
 17 40  1  0
 19 41  1  0
 20 42  1  0
 22 43  1  0
 24 44  1  0
 26 45  1  0
 27 46  1  0
M  END
>  <smiles>  (49) 
Cc1ccc2c(c1)CC(c1cccc(C(=O)Nc3ccc4cn[nH]c4c3)c1)=N2

>  <score_type>  (49) 
oracle

>  <origin>  (49) 
autodockgpu

>  <m_score__min__energy>  (49) 
-9.4399999999999995

>  <m_primary>  (49) 
energy

>  <rmsd>  (49) 
7.6030230846319995

>  <m_score__min__rmsd>  (49) 
7.6030230846319995

>  <meeko>  (49) 
{"free_energy": -9.3, "intermolecular_energy": -10.2, "internal_energy": -0.71, "cluster_size": 50, "cluster_id": 1, "rank_in_cluster": 36}

>  <energy>  (49) 
-8.63

>  <cluster_rmsd>  (49) 
1.3

>  <cluster>  (49) 
1

$$$$

     RDKit          3D

 46 50  0  0  0  0  0  0  0  0999 V2000
  141.2500   68.2200  228.8670 C   0  0  0  0  0  0  0  0  0  0  0  0
  140.6900   68.5480  227.5280 C   0  0  0  0  0  0  0  0  0  0  0  0
  139.7820   67.6950  226.9110 C   0  0  0  0  0  0  0  0  0  0  0  0
  139.2540   67.9910  225.6660 C   0  0  0  0  0  0  0  0  0  0  0  0
  139.6070   69.1400  224.9860 C   0  0  0  0  0  0  0  0  0  0  0  0
  140.5090   69.9890  225.5960 C   0  0  0  0  0  0  0  0  0  0  0  0
  141.0390   69.6950  226.8450 C   0  0  0  0  0  0  0  0  0  0  0  0
  140.7450   71.1520  224.6990 C   0  0  0  0  0  0  0  0  0  0  0  0
  139.8700   70.8300  223.5430 C   0  0  0  0  0  0  0  0  0  0  0  0
  139.7250   71.6640  222.3550 C   0  0  0  0  0  0  0  0  0  0  0  0
  139.3320   71.1150  221.1370 C   0  0  0  0  0  0  0  0  0  0  0  0
  139.1860   71.8720  220.0040 C   0  0  0  0  0  0  0  0  0  0  0  0
  139.4420   73.2180  220.0950 C   0  0  0  0  0  0  0  0  0  0  0  0
  139.8280   73.8220  221.2470 C   0  0  0  0  0  0  0  0  0  0  0  0
  140.1070   75.2360  221.3920 C   0  0  0  0  0  0  0  0  0  0  0  0
  140.7140   75.8950  220.5050 O   0  0  0  0  0  0  0  0  0  0  0  0
  139.7050   75.9530  222.5520 N   0  0  0  0  0  0  0  0  0  0  0  0
  139.9690   77.3540  222.7180 C   0  0  0  0  0  0  0  0  0  0  0  0
  139.0170   78.2700  223.0430 C   0  0  0  0  0  0  0  0  0  0  0  0
  139.3210   79.6090  223.1920 C   0  0  0  0  0  0  0  0  0  0  0  0
  140.6270   80.0150  223.0020 C   0  0  0  0  0  0  0  0  0  0  0  0
  141.2860   81.2400  223.0650 C   0  0  0  0  0  0  0  0  0  0  0  0
  142.5940   81.0140  222.7770 N   0  0  0  0  0  0  0  0  0  0  0  0
  142.7890   79.7260  222.5400 N   0  0  0  0  0  0  0  0  0  0  0  0
  141.6190   79.0990  222.6690 C   0  0  0  0  0  0  0  0  0  0  0  0
  141.2680   77.7650  222.5300 C   0  0  0  0  0  0  0  0  0  0  0  0
  139.9630   73.0110  222.3770 C   0  0  0  0  0  0  0  0  0  0  0  0
  139.2530   69.7120  223.7310 N   0  0  0  0  0  0  0  0  0  0  0  0
  140.5827   68.6108  229.6493 H   0  0  0  0  0  0  0  0  0  0  0  0
  141.3367   67.1283  228.9708 H   0  0  0  0  0  0  0  0  0  0  0  0
  142.2446   68.6783  228.9708 H   0  0  0  0  0  0  0  0  0  0  0  0
  139.4779   66.7690  227.4208 H   0  0  0  0  0  0  0  0  0  0  0  0
  138.5364   67.2946  225.2076 H   0  0  0  0  0  0  0  0  0  0  0  0
  141.7552   70.3940  227.3016 H   0  0  0  0  0  0  0  0  0  0  0  0
  140.4434   72.0948  225.1787 H   0  0  0  0  0  0  0  0  0  0  0  0
  141.8014   71.2983  224.4296 H   0  0  0  0  0  0  0  0  0  0  0  0
  139.1315   70.0348  221.0824 H   0  0  0  0  0  0  0  0  0  0  0  0
  138.8739   71.4163  219.0527 H   0  0  0  0  0  0  0  0  0  0  0  0
  139.3288   73.8355  219.1917 H   0  0  0  0  0  0  0  0  0  0  0  0
  139.1960   75.5000  223.3420 H   0  0  0  0  0  0  0  0  0  0  0  0
  137.9794   77.9359  223.1908 H   0  0  0  0  0  0  0  0  0  0  0  0
  138.5394   80.3365  223.4564 H   0  0  0  0  0  0  0  0  0  0  0  0
  140.8308   82.2124  223.3042 H   0  0  0  0  0  0  0  0  0  0  0  0
  143.7190   79.3080  222.2960 H   0  0  0  0  0  0  0  0  0  0  0  0
  142.0385   77.0256  222.2659 H   0  0  0  0  0  0  0  0  0  0  0  0
  140.2738   73.4755  223.3245 H   0  0  0  0  0  0  0  0  0  0  0  0
  1  2  1  0
  2  3  2  0
  3  4  1  0
  4  5  2  0
  5  6  1  0
  6  7  2  0
  6  8  1  0
  8  9  1  0
  9 10  1  0
 10 11  2  0
 11 12  1  0
 12 13  2  0
 13 14  1  0
 14 15  1  0
 15 16  2  0
 15 17  1  0
 17 18  1  0
 18 19  2  0
 19 20  1  0
 20 21  2  0
 21 22  1  0
 22 23  2  0
 23 24  1  0
 24 25  1  0
 25 26  2  0
 14 27  2  0
  9 28  2  0
  7  2  1  0
 27 10  1  0
 28  5  1  0
 26 18  1  0
 25 21  1  0
  1 29  1  0
  1 30  1  0
  1 31  1  0
  3 32  1  0
  4 33  1  0
  7 34  1  0
  8 35  1  0
  8 36  1  0
 11 37  1  0
 12 38  1  0
 13 39  1  0
 17 40  1  0
 19 41  1  0
 20 42  1  0
 22 43  1  0
 24 44  1  0
 26 45  1  0
 27 46  1  0
M  END
>  <smiles>  (50) 
Cc1ccc2c(c1)CC(c1cccc(C(=O)Nc3ccc4cn[nH]c4c3)c1)=N2

>  <score_type>  (50) 
oracle

>  <origin>  (50) 
autodockgpu

>  <m_score__min__energy>  (50) 
-9.4399999999999995

>  <m_primary>  (50) 
energy

>  <rmsd>  (50) 
7.636245459060706

>  <m_score__min__rmsd>  (50) 
7.636245459060706

>  <meeko>  (50) 
{"free_energy": -9.37, "intermolecular_energy": -10.26, "internal_energy": -0.66, "cluster_size": 50, "cluster_id": 1, "rank_in_cluster": 15}

>  <energy>  (50) 
-8.56

>  <cluster_rmsd>  (50) 
1.6

>  <cluster>  (50) 
1

$$$$
