
     RDKit          3D

 45 48  0  0  0  0  0  0  0  0999 V2000
  139.5350   70.9080  221.4410 O   0  0  0  0  0  0  0  0  0  0  0  0
  139.6550   71.4540  222.5690 C   0  0  0  0  0  0  0  0  0  0  0  0
  139.6920   72.8880  222.5650 N   0  0  0  0  0  0  0  0  0  0  0  0
  139.5850   73.5260  221.2670 C   0  0  0  0  0  0  0  0  0  0  0  0
  140.4660   74.7090  221.2420 C   0  0  0  0  0  0  0  0  0  0  0  0
  140.3860   75.6800  222.0220 O   0  0  0  0  0  0  0  0  0  0  0  0
  141.5050   74.7630  220.2430 N   0  0  0  0  0  0  0  0  0  0  0  0
  141.3790   74.4700  218.8240 C   0  0  0  0  0  0  0  0  0  0  0  0
  142.0050   75.7330  218.2660 C   0  0  0  0  0  0  0  0  0  0  0  0
  143.2120   75.8970  219.1790 C   0  0  0  0  0  0  0  0  0  0  0  0
  142.9060   75.1240  220.4500 C   0  0  2  0  0  0  0  0  0  0  0  0
  143.7130   73.8840  220.5140 C   0  0  0  0  0  0  0  0  0  0  0  0
  145.0600   73.7090  220.7350 C   0  0  0  0  0  0  0  0  0  0  0  0
  145.3100   72.3750  220.6990 N   0  0  0  0  0  0  0  0  0  0  0  0
  144.1340   71.7380  220.4600 C   0  0  0  0  0  0  0  0  0  0  0  0
  143.1610   72.6560  220.3470 N   0  0  0  0  0  0  0  0  0  0  0  0
  139.7520   70.6880  223.8030 C   0  0  0  0  0  0  0  0  0  0  0  0
  139.2360   69.4170  223.8120 C   0  0  0  0  0  0  0  0  0  0  0  0
  139.2990   68.6440  224.9570 C   0  0  0  0  0  0  0  0  0  0  0  0
  139.8890   69.1700  226.0900 C   0  0  0  0  0  0  0  0  0  0  0  0
  139.9450   68.3870  227.2240 C   0  0  0  0  0  0  0  0  0  0  0  0
  140.5350   68.8970  228.3750 C   0  0  0  0  0  0  0  0  0  0  0  0
  141.0430   70.1760  228.3330 C   0  0  0  0  0  0  0  0  0  0  0  0
  140.9880   70.9680  227.1900 C   0  0  0  0  0  0  0  0  0  0  0  0
  140.4030   70.4530  226.0590 C   0  0  0  0  0  0  0  0  0  0  0  0
  140.3110   71.1470  224.9280 N   0  0  0  0  0  0  0  0  0  0  0  0
  139.7890   73.4130  223.4610 H   0  0  0  0  0  0  0  0  0  0  0  0
  139.8928   72.8197  220.4819 H   0  0  0  0  0  0  0  0  0  0  0  0
  138.5440   73.8326  221.0871 H   0  0  0  0  0  0  0  0  0  0  0  0
  141.9413   73.5692  218.5371 H   0  0  0  0  0  0  0  0  0  0  0  0
  140.3591   74.2524  218.4741 H   0  0  0  0  0  0  0  0  0  0  0  0
  142.3086   75.6022  217.2169 H   0  0  0  0  0  0  0  0  0  0  0  0
  141.3301   76.6015  218.2515 H   0  0  0  0  0  0  0  0  0  0  0  0
  144.1117   75.4896  218.6948 H   0  0  0  0  0  0  0  0  0  0  0  0
  143.4017   76.9583  219.3973 H   0  0  0  0  0  0  0  0  0  0  0  0
  143.1147   75.6899  221.3699 H   0  0  0  0  0  0  0  0  0  0  0  0
  145.7993   74.5047  220.9091 H   0  0  0  0  0  0  0  0  0  0  0  0
  146.2460   71.9290  220.8330 H   0  0  0  0  0  0  0  0  0  0  0  0
  144.0010   70.6495  220.3734 H   0  0  0  0  0  0  0  0  0  0  0  0
  138.7692   69.0101  222.9028 H   0  0  0  0  0  0  0  0  0  0  0  0
  138.8852   67.6248  224.9655 H   0  0  0  0  0  0  0  0  0  0  0  0
  139.5272   67.3695  227.2179 H   0  0  0  0  0  0  0  0  0  0  0  0
  140.5943   68.2952  229.2939 H   0  0  0  0  0  0  0  0  0  0  0  0
  141.5110   70.5883  229.2391 H   0  0  0  0  0  0  0  0  0  0  0  0
  141.4047   71.9860  227.1923 H   0  0  0  0  0  0  0  0  0  0  0  0
  1  2  2  0
  2  3  1  0
  3  4  1  0
  4  5  1  0
  5  6  2  0
  5  7  1  0
  7  8  1  0
  8  9  1  0
  9 10  1  0
 10 11  1  0
 11 12  1  0
 12 13  2  0
 13 14  1  0
 14 15  1  0
 15 16  2  0
  2 17  1  0
 17 18  2  0
 18 19  1  0
 19 20  2  0
 20 21  1  0
 21 22  2  0
 22 23  1  0
 23 24  2  0
 24 25  1  0
 25 26  2  0
 11  7  1  0
 16 12  1  0
 26 17  1  0
 25 20  1  0
  3 27  1  0
  4 28  1  0
  4 29  1  0
  8 30  1  0
  8 31  1  0
  9 32  1  0
  9 33  1  0
 10 34  1  0
 10 35  1  0
 11 36  1  1
 13 37  1  0
 14 38  1  0
 15 39  1  0
 18 40  1  0
 19 41  1  0
 21 42  1  0
 22 43  1  0
 23 44  1  0
 24 45  1  0
M  END
>  <smiles>  (1) 
O=C(NCC(=O)N1CCC[C@@H]1c1c[nH]cn1)c1ccc2ccccc2n1

>  <score_type>  (1) 
oracle

>  <origin>  (1) 
autodockgpu

>  <m_score__min__energy>  (1) 
-8.2300000000000004

>  <m_primary>  (1) 
energy

>  <rmsd>  (1) 
2.845925504609358

>  <m_score__min__rmsd>  (1) 
2.845925504609358

>  <meeko>  (1) 
{"free_energy": -7.59, "intermolecular_energy": -9.08, "internal_energy": -1.42, "cluster_size": 21, "cluster_id": 1, "rank_in_cluster": 17}

>  <energy>  (1) 
-8.23

>  <cluster_rmsd>  (1) 
0.0

>  <cluster>  (1) 
1

$$$$

     RDKit          3D

 45 48  0  0  0  0  0  0  0  0999 V2000
  140.6910   71.0520  221.7110 O   0  0  0  0  0  0  0  0  0  0  0  0
  140.3360   71.6770  222.7440 C   0  0  0  0  0  0  0  0  0  0  0  0
  139.9470   73.0430  222.5420 N   0  0  0  0  0  0  0  0  0  0  0  0
  140.0110   73.5290  221.1780 C   0  0  0  0  0  0  0  0  0  0  0  0
  140.8900   74.7140  221.1330 C   0  0  0  0  0  0  0  0  0  0  0  0
  140.8920   75.6380  221.9730 O   0  0  0  0  0  0  0  0  0  0  0  0
  141.8230   74.8290  220.0400 N   0  0  0  0  0  0  0  0  0  0  0  0
  141.6090   74.4440  218.6540 C   0  0  0  0  0  0  0  0  0  0  0  0
  142.0310   75.7370  217.9830 C   0  0  0  0  0  0  0  0  0  0  0  0
  143.2850   76.0860  218.7700 C   0  0  0  0  0  0  0  0  0  0  0  0
  143.1850   75.3570  220.0980 C   0  0  2  0  0  0  0  0  0  0  0  0
  144.1350   74.2210  220.1430 C   0  0  0  0  0  0  0  0  0  0  0  0
  144.8260   73.6800  221.2020 C   0  0  0  0  0  0  0  0  0  0  0  0
  145.5670   72.6480  220.7230 N   0  0  0  0  0  0  0  0  0  0  0  0
  145.3350   72.5550  219.3870 C   0  0  0  0  0  0  0  0  0  0  0  0
  144.4640   73.5120  219.0330 N   0  0  0  0  0  0  0  0  0  0  0  0
  140.3180   71.0620  224.0640 C   0  0  0  0  0  0  0  0  0  0  0  0
  140.6950   71.8320  225.1350 C   0  0  0  0  0  0  0  0  0  0  0  0
  140.6980   71.3000  226.4120 C   0  0  0  0  0  0  0  0  0  0  0  0
  140.3160   69.9850  226.5920 C   0  0  0  0  0  0  0  0  0  0  0  0
  140.3230   69.4680  227.8710 C   0  0  0  0  0  0  0  0  0  0  0  0
  139.9430   68.1480  228.0740 C   0  0  0  0  0  0  0  0  0  0  0  0
  139.5700   67.4030  226.9780 C   0  0  0  0  0  0  0  0  0  0  0  0
  139.5610   67.9210  225.6860 C   0  0  0  0  0  0  0  0  0  0  0  0
  139.9390   69.2280  225.4980 C   0  0  0  0  0  0  0  0  0  0  0  0
  139.9580   69.7950  224.2950 N   0  0  0  0  0  0  0  0  0  0  0  0
  139.6390   73.6270  223.3500 H   0  0  0  0  0  0  0  0  0  0  0  0
  140.4174   72.7429  220.5247 H   0  0  0  0  0  0  0  0  0  0  0  0
  139.0028   73.7997  220.8313 H   0  0  0  0  0  0  0  0  0  0  0  0
  142.2463   73.5979  218.3575 H   0  0  0  0  0  0  0  0  0  0  0  0
  140.5953   74.0928  218.4108 H   0  0  0  0  0  0  0  0  0  0  0  0
  142.2545   75.5831  216.9170 H   0  0  0  0  0  0  0  0  0  0  0  0
  141.2603   76.5218  217.9925 H   0  0  0  0  0  0  0  0  0  0  0  0
  144.1801   75.7554  218.2227 H   0  0  0  0  0  0  0  0  0  0  0  0
  143.3674   77.1725  218.9208 H   0  0  0  0  0  0  0  0  0  0  0  0
  143.4058   75.9939  220.9672 H   0  0  0  0  0  0  0  0  0  0  0  0
  144.7857   74.0213  222.2469 H   0  0  0  0  0  0  0  0  0  0  0  0
  146.2000   72.0410  221.2910 H   0  0  0  0  0  0  0  0  0  0  0  0
  145.7869   71.8169  218.7080 H   0  0  0  0  0  0  0  0  0  0  0  0
  140.9966   72.8781  224.9775 H   0  0  0  0  0  0  0  0  0  0  0  0
  141.0004   71.9157  227.2720 H   0  0  0  0  0  0  0  0  0  0  0  0
  140.6267   70.0955  228.7219 H   0  0  0  0  0  0  0  0  0  0  0  0
  139.9400   67.7096  229.0829 H   0  0  0  0  0  0  0  0  0  0  0  0
  139.2670   66.3565  227.1293 H   0  0  0  0  0  0  0  0  0  0  0  0
  139.2574   67.2963  224.8330 H   0  0  0  0  0  0  0  0  0  0  0  0
  1  2  2  0
  2  3  1  0
  3  4  1  0
  4  5  1  0
  5  6  2  0
  5  7  1  0
  7  8  1  0
  8  9  1  0
  9 10  1  0
 10 11  1  0
 11 12  1  0
 12 13  2  0
 13 14  1  0
 14 15  1  0
 15 16  2  0
  2 17  1  0
 17 18  2  0
 18 19  1  0
 19 20  2  0
 20 21  1  0
 21 22  2  0
 22 23  1  0
 23 24  2  0
 24 25  1  0
 25 26  2  0
 11  7  1  0
 16 12  1  0
 26 17  1  0
 25 20  1  0
  3 27  1  0
  4 28  1  0
  4 29  1  0
  8 30  1  0
  8 31  1  0
  9 32  1  0
  9 33  1  0
 10 34  1  0
 10 35  1  0
 11 36  1  1
 13 37  1  0
 14 38  1  0
 15 39  1  0
 18 40  1  0
 19 41  1  0
 21 42  1  0
 22 43  1  0
 23 44  1  0
 24 45  1  0
M  END
>  <smiles>  (2) 
O=C(NCC(=O)N1CCC[C@@H]1c1c[nH]cn1)c1ccc2ccccc2n1

>  <score_type>  (2) 
oracle

>  <origin>  (2) 
autodockgpu

>  <m_score__min__energy>  (2) 
-8.2300000000000004

>  <m_primary>  (2) 
energy

>  <rmsd>  (2) 
3.6855181059455595

>  <m_score__min__rmsd>  (2) 
3.6855181059455595

>  <meeko>  (2) 
{"free_energy": -7.75, "intermolecular_energy": -9.24, "internal_energy": -1.23, "cluster_size": 21, "cluster_id": 1, "rank_in_cluster": 14}

>  <energy>  (2) 
-8.04

>  <cluster_rmsd>  (2) 
0.82

>  <cluster>  (2) 
1

$$$$

     RDKit          3D

 45 48  0  0  0  0  0  0  0  0999 V2000
  140.9950   73.7580  220.5820 O   0  0  0  0  0  0  0  0  0  0  0  0
  140.5320   74.5630  221.4310 C   0  0  0  0  0  0  0  0  0  0  0  0
  139.5580   74.0230  222.3360 N   0  0  0  0  0  0  0  0  0  0  0  0
  139.2330   72.6210  222.1600 C   0  0  0  0  0  0  0  0  0  0  0  0
  140.2010   71.8070  222.9200 C   0  0  0  0  0  0  0  0  0  0  0  0
  141.4220   71.7270  222.6740 O   0  0  0  0  0  0  0  0  0  0  0  0
  139.7130   71.0370  224.0370 N   0  0  0  0  0  0  0  0  0  0  0  0
  138.3300   70.8670  224.4540 C   0  0  0  0  0  0  0  0  0  0  0  0
  138.2940   69.3530  224.5370 C   0  0  0  0  0  0  0  0  0  0  0  0
  139.6180   69.0600  225.2260 C   0  0  0  0  0  0  0  0  0  0  0  0
  140.5110   70.2640  224.9890 C   0  0  2  0  0  0  0  0  0  0  0  0
  140.6650   71.0540  226.2330 C   0  0  0  0  0  0  0  0  0  0  0  0
  140.0310   70.9330  227.4470 C   0  0  0  0  0  0  0  0  0  0  0  0
  140.5250   71.8990  228.2650 N   0  0  0  0  0  0  0  0  0  0  0  0
  141.4510   72.6030  227.5620 C   0  0  0  0  0  0  0  0  0  0  0  0
  141.5370   72.0900  226.3250 N   0  0  0  0  0  0  0  0  0  0  0  0
  140.9490   75.9570  221.4980 C   0  0  0  0  0  0  0  0  0  0  0  0
  141.4160   76.5420  220.3480 C   0  0  0  0  0  0  0  0  0  0  0  0
  141.8270   77.8620  220.3520 C   0  0  0  0  0  0  0  0  0  0  0  0
  141.7620   78.5820  221.5290 C   0  0  0  0  0  0  0  0  0  0  0  0
  142.1740   79.8980  221.5190 C   0  0  0  0  0  0  0  0  0  0  0  0
  142.1170   80.6400  222.6920 C   0  0  0  0  0  0  0  0  0  0  0  0
  141.6440   80.0220  223.8280 C   0  0  0  0  0  0  0  0  0  0  0  0
  141.2260   78.6950  223.8430 C   0  0  0  0  0  0  0  0  0  0  0  0
  141.2880   77.9720  222.6770 C   0  0  0  0  0  0  0  0  0  0  0  0
  140.9080   76.6990  222.6090 N   0  0  0  0  0  0  0  0  0  0  0  0
  139.1280   74.6290  223.0680 H   0  0  0  0  0  0  0  0  0  0  0  0
  138.2159   72.4282  222.5320 H   0  0  0  0  0  0  0  0  0  0  0  0
  139.2816   72.3582  221.0930 H   0  0  0  0  0  0  0  0  0  0  0  0
  138.1315   71.3387  225.4277 H   0  0  0  0  0  0  0  0  0  0  0  0
  137.5768   71.3235  223.7950 H   0  0  0  0  0  0  0  0  0  0  0  0
  137.4415   69.0029  225.1376 H   0  0  0  0  0  0  0  0  0  0  0  0
  138.1714   68.8517  223.5656 H   0  0  0  0  0  0  0  0  0  0  0  0
  139.4593   68.9126  226.3045 H   0  0  0  0  0  0  0  0  0  0  0  0
  140.0767   68.1434  224.8266 H   0  0  0  0  0  0  0  0  0  0  0  0
  141.5236   70.0003  224.6497 H   0  0  0  0  0  0  0  0  0  0  0  0
  139.2636   70.1895  227.7085 H   0  0  0  0  0  0  0  0  0  0  0  0
  140.2370   72.0610  229.2560 H   0  0  0  0  0  0  0  0  0  0  0  0
  142.0342   73.4537  227.9443 H   0  0  0  0  0  0  0  0  0  0  0  0
  141.4636   75.9573  219.4175 H   0  0  0  0  0  0  0  0  0  0  0  0
  142.2006   78.3324  219.4305 H   0  0  0  0  0  0  0  0  0  0  0  0
  142.5446   80.3562  220.5902 H   0  0  0  0  0  0  0  0  0  0  0  0
  142.4405   81.6912  222.7128 H   0  0  0  0  0  0  0  0  0  0  0  0
  141.5946   80.6012  224.7619 H   0  0  0  0  0  0  0  0  0  0  0  0
  140.8535   78.2344  224.7699 H   0  0  0  0  0  0  0  0  0  0  0  0
  1  2  2  0
  2  3  1  0
  3  4  1  0
  4  5  1  0
  5  6  2  0
  5  7  1  0
  7  8  1  0
  8  9  1  0
  9 10  1  0
 10 11  1  0
 11 12  1  0
 12 13  2  0
 13 14  1  0
 14 15  1  0
 15 16  2  0
  2 17  1  0
 17 18  2  0
 18 19  1  0
 19 20  2  0
 20 21  1  0
 21 22  2  0
 22 23  1  0
 23 24  2  0
 24 25  1  0
 25 26  2  0
 11  7  1  0
 16 12  1  0
 26 17  1  0
 25 20  1  0
  3 27  1  0
  4 28  1  0
  4 29  1  0
  8 30  1  0
  8 31  1  0
  9 32  1  0
  9 33  1  0
 10 34  1  0
 10 35  1  0
 11 36  1  6
 13 37  1  0
 14 38  1  0
 15 39  1  0
 18 40  1  0
 19 41  1  0
 21 42  1  0
 22 43  1  0
 23 44  1  0
 24 45  1  0
M  END
>  <smiles>  (3) 
O=C(NCC(=O)N1CCC[C@@H]1c1c[nH]cn1)c1ccc2ccccc2n1

>  <score_type>  (3) 
oracle

>  <origin>  (3) 
autodockgpu

>  <m_score__min__energy>  (3) 
-8.2300000000000004

>  <m_primary>  (3) 
energy

>  <rmsd>  (3) 
8.404001949542055

>  <m_score__min__rmsd>  (3) 
8.404001949542055

>  <meeko>  (3) 
{"free_energy": -7.77, "intermolecular_energy": -9.26, "internal_energy": -1.21, "cluster_size": 4, "cluster_id": 3, "rank_in_cluster": 1}

>  <energy>  (3) 
-8.01

>  <cluster_rmsd>  (3) 
0.69

>  <cluster>  (3) 
1

$$$$

     RDKit          3D

 45 48  0  0  0  0  0  0  0  0999 V2000
  140.9370   71.6640  221.4370 O   0  0  0  0  0  0  0  0  0  0  0  0
  140.3370   72.1140  222.4480 C   0  0  0  0  0  0  0  0  0  0  0  0
  139.7570   73.4180  222.2980 N   0  0  0  0  0  0  0  0  0  0  0  0
  139.9320   74.0490  221.0050 C   0  0  0  0  0  0  0  0  0  0  0  0
  141.1270   74.9130  221.0530 C   0  0  0  0  0  0  0  0  0  0  0  0
  141.4180   75.6850  221.9900 O   0  0  0  0  0  0  0  0  0  0  0  0
  142.0400   74.8740  219.9370 N   0  0  0  0  0  0  0  0  0  0  0  0
  141.7850   74.3420  218.6080 C   0  0  0  0  0  0  0  0  0  0  0  0
  142.2290   75.5360  217.7860 C   0  0  0  0  0  0  0  0  0  0  0  0
  143.5100   75.9340  218.5060 C   0  0  0  0  0  0  0  0  0  0  0  0
  143.4180   75.3630  219.9100 C   0  0  2  0  0  0  0  0  0  0  0  0
  144.3350   74.2110  220.0670 C   0  0  0  0  0  0  0  0  0  0  0  0
  144.9790   73.7320  221.1850 C   0  0  0  0  0  0  0  0  0  0  0  0
  145.7070   72.6510  220.8060 N   0  0  0  0  0  0  0  0  0  0  0  0
  145.5150   72.4670  219.4730 C   0  0  0  0  0  0  0  0  0  0  0  0
  144.6800   73.4170  219.0230 N   0  0  0  0  0  0  0  0  0  0  0  0
  140.2350   71.3680  223.6940 C   0  0  0  0  0  0  0  0  0  0  0  0
  139.6490   70.1280  223.6530 C   0  0  0  0  0  0  0  0  0  0  0  0
  139.5250   69.3760  224.8060 C   0  0  0  0  0  0  0  0  0  0  0  0
  139.9990   69.8880  225.9980 C   0  0  0  0  0  0  0  0  0  0  0  0
  139.8680   69.1260  227.1400 C   0  0  0  0  0  0  0  0  0  0  0  0
  140.3380   69.6240  228.3490 C   0  0  0  0  0  0  0  0  0  0  0  0
  140.9220   70.8710  228.3550 C   0  0  0  0  0  0  0  0  0  0  0  0
  141.0550   71.6430  227.2050 C   0  0  0  0  0  0  0  0  0  0  0  0
  140.5870   71.1400  226.0160 C   0  0  0  0  0  0  0  0  0  0  0  0
  140.6760   71.8170  224.8740 N   0  0  0  0  0  0  0  0  0  0  0  0
  139.2420   73.8570  223.0920 H   0  0  0  0  0  0  0  0  0  0  0  0
  140.0650   73.2773  220.2325 H   0  0  0  0  0  0  0  0  0  0  0  0
  139.0451   74.6525  220.7616 H   0  0  0  0  0  0  0  0  0  0  0  0
  142.3910   73.4483  218.3981 H   0  0  0  0  0  0  0  0  0  0  0  0
  140.7563   73.9978  218.4253 H   0  0  0  0  0  0  0  0  0  0  0  0
  142.4252   75.2548  216.7408 H   0  0  0  0  0  0  0  0  0  0  0  0
  141.4813   76.3401  217.7192 H   0  0  0  0  0  0  0  0  0  0  0  0
  144.3835   75.5167  217.9837 H   0  0  0  0  0  0  0  0  0  0  0  0
  143.6260   77.0276  218.5309 H   0  0  0  0  0  0  0  0  0  0  0  0
  143.6760   76.0871  220.6969 H   0  0  0  0  0  0  0  0  0  0  0  0
  144.9153   74.1493  222.2008 H   0  0  0  0  0  0  0  0  0  0  0  0
  146.3060   72.0720  221.4360 H   0  0  0  0  0  0  0  0  0  0  0  0
  145.9687   71.6714  218.8638 H   0  0  0  0  0  0  0  0  0  0  0  0
  139.2760   69.7304  222.6976 H   0  0  0  0  0  0  0  0  0  0  0  0
  139.0547   68.3821  224.7747 H   0  0  0  0  0  0  0  0  0  0  0  0
  139.3960   68.1335  227.0942 H   0  0  0  0  0  0  0  0  0  0  0  0
  140.2461   69.0384  229.2756 H   0  0  0  0  0  0  0  0  0  0  0  0
  141.2985   71.2730  229.3072 H   0  0  0  0  0  0  0  0  0  0  0  0
  141.5256   72.6363  227.2475 H   0  0  0  0  0  0  0  0  0  0  0  0
  1  2  2  0
  2  3  1  0
  3  4  1  0
  4  5  1  0
  5  6  2  0
  5  7  1  0
  7  8  1  0
  8  9  1  0
  9 10  1  0
 10 11  1  0
 11 12  1  0
 12 13  2  0
 13 14  1  0
 14 15  1  0
 15 16  2  0
  2 17  1  0
 17 18  2  0
 18 19  1  0
 19 20  2  0
 20 21  1  0
 21 22  2  0
 22 23  1  0
 23 24  2  0
 24 25  1  0
 25 26  2  0
 11  7  1  0
 16 12  1  0
 26 17  1  0
 25 20  1  0
  3 27  1  0
  4 28  1  0
  4 29  1  0
  8 30  1  0
  8 31  1  0
  9 32  1  0
  9 33  1  0
 10 34  1  0
 10 35  1  0
 11 36  1  1
 13 37  1  0
 14 38  1  0
 15 39  1  0
 18 40  1  0
 19 41  1  0
 21 42  1  0
 22 43  1  0
 23 44  1  0
 24 45  1  0
M  END
>  <smiles>  (4) 
O=C(NCC(=O)N1CCC[C@@H]1c1c[nH]cn1)c1ccc2ccccc2n1

>  <score_type>  (4) 
oracle

>  <origin>  (4) 
autodockgpu

>  <m_score__min__energy>  (4) 
-8.2300000000000004

>  <m_primary>  (4) 
energy

>  <rmsd>  (4) 
3.0860252505477925

>  <m_score__min__rmsd>  (4) 
3.0860252505477925

>  <meeko>  (4) 
{"free_energy": -7.96, "intermolecular_energy": -9.45, "internal_energy": -1.3, "cluster_size": 21, "cluster_id": 1, "rank_in_cluster": 8}

>  <energy>  (4) 
-8.01

>  <cluster_rmsd>  (4) 
0.69

>  <cluster>  (4) 
1

$$$$

     RDKit          3D

 45 48  0  0  0  0  0  0  0  0999 V2000
  138.0320   72.2380  222.5020 O   0  0  0  0  0  0  0  0  0  0  0  0
  139.2540   72.1320  222.7820 C   0  0  0  0  0  0  0  0  0  0  0  0
  140.1530   72.8510  221.9260 N   0  0  0  0  0  0  0  0  0  0  0  0
  139.5430   73.6080  220.8510 C   0  0  0  0  0  0  0  0  0  0  0  0
  140.2420   74.9000  220.7180 C   0  0  0  0  0  0  0  0  0  0  0  0
  139.8680   75.9750  221.2310 O   0  0  0  0  0  0  0  0  0  0  0  0
  141.4540   74.9410  219.9370 N   0  0  0  0  0  0  0  0  0  0  0  0
  141.5920   74.6930  218.5120 C   0  0  0  0  0  0  0  0  0  0  0  0
  142.3550   75.9460  218.1270 C   0  0  0  0  0  0  0  0  0  0  0  0
  143.3690   76.0370  219.2580 C   0  0  0  0  0  0  0  0  0  0  0  0
  142.8010   75.2420  220.4200 C   0  0  2  0  0  0  0  0  0  0  0  0
  143.5390   73.9690  220.5930 C   0  0  0  0  0  0  0  0  0  0  0  0
  144.8920   73.7260  220.6480 C   0  0  0  0  0  0  0  0  0  0  0  0
  145.0610   72.3890  220.8200 N   0  0  0  0  0  0  0  0  0  0  0  0
  143.8280   71.8190  220.8710 C   0  0  0  0  0  0  0  0  0  0  0  0
  142.9020   72.7800  220.7320 N   0  0  0  0  0  0  0  0  0  0  0  0
  139.7350   71.3320  223.9000 C   0  0  0  0  0  0  0  0  0  0  0  0
  140.6750   71.8890  224.7290 C   0  0  0  0  0  0  0  0  0  0  0  0
  141.1680   71.1750  225.8060 C   0  0  0  0  0  0  0  0  0  0  0  0
  140.7000   69.8950  226.0350 C   0  0  0  0  0  0  0  0  0  0  0  0
  141.2000   69.1960  227.1120 C   0  0  0  0  0  0  0  0  0  0  0  0
  140.7430   67.9070  227.3600 C   0  0  0  0  0  0  0  0  0  0  0  0
  139.7990   67.3780  226.5090 C   0  0  0  0  0  0  0  0  0  0  0  0
  139.2920   68.0810  225.4200 C   0  0  0  0  0  0  0  0  0  0  0  0
  139.7520   69.3540  225.1860 C   0  0  0  0  0  0  0  0  0  0  0  0
  139.3170   70.0900  224.1670 N   0  0  0  0  0  0  0  0  0  0  0  0
  141.1820   72.8120  222.0950 H   0  0  0  0  0  0  0  0  0  0  0  0
  139.6262   73.0449  219.9097 H   0  0  0  0  0  0  0  0  0  0  0  0
  138.4800   73.7814  221.0746 H   0  0  0  0  0  0  0  0  0  0  0  0
  142.1686   73.7791  218.3061 H   0  0  0  0  0  0  0  0  0  0  0  0
  140.6511   74.5254  217.9673 H   0  0  0  0  0  0  0  0  0  0  0  0
  142.8495   75.8324  217.1510 H   0  0  0  0  0  0  0  0  0  0  0  0
  141.7247   76.8404  218.0141 H   0  0  0  0  0  0  0  0  0  0  0  0
  144.3308   75.6084  218.9399 H   0  0  0  0  0  0  0  0  0  0  0  0
  143.5477   77.0837  219.5452 H   0  0  0  0  0  0  0  0  0  0  0  0
  142.8490   75.7739  221.3817 H   0  0  0  0  0  0  0  0  0  0  0  0
  145.6913   74.4774  220.5674 H   0  0  0  0  0  0  0  0  0  0  0  0
  145.9800   71.8990  220.8980 H   0  0  0  0  0  0  0  0  0  0  0  0
  143.6231   70.7465  221.0043 H   0  0  0  0  0  0  0  0  0  0  0  0
  141.0387   72.9091  224.5363 H   0  0  0  0  0  0  0  0  0  0  0  0
  141.9225   71.6200  226.4714 H   0  0  0  0  0  0  0  0  0  0  0  0
  141.9538   69.6538  227.7694 H   0  0  0  0  0  0  0  0  0  0  0  0
  141.1249   67.3259  228.2123 H   0  0  0  0  0  0  0  0  0  0  0  0
  139.4306   66.3588  226.6973 H   0  0  0  0  0  0  0  0  0  0  0  0
  138.5383   67.6265  224.7602 H   0  0  0  0  0  0  0  0  0  0  0  0
  1  2  2  0
  2  3  1  0
  3  4  1  0
  4  5  1  0
  5  6  2  0
  5  7  1  0
  7  8  1  0
  8  9  1  0
  9 10  1  0
 10 11  1  0
 11 12  1  0
 12 13  2  0
 13 14  1  0
 14 15  1  0
 15 16  2  0
  2 17  1  0
 17 18  2  0
 18 19  1  0
 19 20  2  0
 20 21  1  0
 21 22  2  0
 22 23  1  0
 23 24  2  0
 24 25  1  0
 25 26  2  0
 11  7  1  0
 16 12  1  0
 26 17  1  0
 25 20  1  0
  3 27  1  0
  4 28  1  0
  4 29  1  0
  8 30  1  0
  8 31  1  0
  9 32  1  0
  9 33  1  0
 10 34  1  0
 10 35  1  0
 11 36  1  1
 13 37  1  0
 14 38  1  0
 15 39  1  0
 18 40  1  0
 19 41  1  0
 21 42  1  0
 22 43  1  0
 23 44  1  0
 24 45  1  0
M  END
>  <smiles>  (5) 
O=C(NCC(=O)N1CCC[C@@H]1c1c[nH]cn1)c1ccc2ccccc2n1

>  <score_type>  (5) 
oracle

>  <origin>  (5) 
autodockgpu

>  <m_score__min__energy>  (5) 
-8.2300000000000004

>  <m_primary>  (5) 
energy

>  <rmsd>  (5) 
3.5843993808057184

>  <m_score__min__rmsd>  (5) 
3.5843993808057184

>  <meeko>  (5) 
{"free_energy": -6.55, "intermolecular_energy": -8.05, "internal_energy": -1.92, "cluster_size": 21, "cluster_id": 1, "rank_in_cluster": 21}

>  <energy>  (5) 
-7.99

>  <cluster_rmsd>  (5) 
0.68

>  <cluster>  (5) 
1

$$$$

     RDKit          3D

 45 48  0  0  0  0  0  0  0  0999 V2000
  141.1160   71.8780  221.5060 O   0  0  0  0  0  0  0  0  0  0  0  0
  140.3630   72.2190  222.4560 C   0  0  0  0  0  0  0  0  0  0  0  0
  139.6140   73.4260  222.2530 N   0  0  0  0  0  0  0  0  0  0  0  0
  139.8160   74.0970  220.9840 C   0  0  0  0  0  0  0  0  0  0  0  0
  141.0650   74.8810  221.0510 C   0  0  0  0  0  0  0  0  0  0  0  0
  141.4160   75.5900  222.0170 O   0  0  0  0  0  0  0  0  0  0  0  0
  141.9590   74.8350  219.9210 N   0  0  0  0  0  0  0  0  0  0  0  0
  141.6870   74.2820  218.6040 C   0  0  0  0  0  0  0  0  0  0  0  0
  142.1060   75.4690  217.7580 C   0  0  0  0  0  0  0  0  0  0  0  0
  143.3950   75.8870  218.4510 C   0  0  0  0  0  0  0  0  0  0  0  0
  143.3320   75.3350  219.8640 C   0  0  2  0  0  0  0  0  0  0  0  0
  144.2620   74.1930  220.0210 C   0  0  0  0  0  0  0  0  0  0  0  0
  144.9010   73.7140  221.1410 C   0  0  0  0  0  0  0  0  0  0  0  0
  145.6470   72.6450  220.7600 N   0  0  0  0  0  0  0  0  0  0  0  0
  145.4680   72.4690  219.4240 C   0  0  0  0  0  0  0  0  0  0  0  0
  144.6250   73.4110  218.9740 N   0  0  0  0  0  0  0  0  0  0  0  0
  140.2540   71.4470  223.6850 C   0  0  0  0  0  0  0  0  0  0  0  0
  139.6610   70.2120  223.6160 C   0  0  0  0  0  0  0  0  0  0  0  0
  139.5290   69.4340  224.7520 C   0  0  0  0  0  0  0  0  0  0  0  0
  140.0040   69.9180  225.9560 C   0  0  0  0  0  0  0  0  0  0  0  0
  139.8660   69.1320  227.0800 C   0  0  0  0  0  0  0  0  0  0  0  0
  140.3370   69.6000  228.3000 C   0  0  0  0  0  0  0  0  0  0  0  0
  140.9270   70.8430  228.3350 C   0  0  0  0  0  0  0  0  0  0  0  0
  141.0680   71.6400  227.2030 C   0  0  0  0  0  0  0  0  0  0  0  0
  140.5990   71.1660  226.0020 C   0  0  0  0  0  0  0  0  0  0  0  0
  140.6950   71.8660  224.8760 N   0  0  0  0  0  0  0  0  0  0  0  0
  138.9680   73.7730  222.9950 H   0  0  0  0  0  0  0  0  0  0  0  0
  139.8913   73.3506  220.1795 H   0  0  0  0  0  0  0  0  0  0  0  0
  138.9672   74.7653  220.7766 H   0  0  0  0  0  0  0  0  0  0  0  0
  142.2980   73.3912  218.3964 H   0  0  0  0  0  0  0  0  0  0  0  0
  140.6588   73.9256  218.4434 H   0  0  0  0  0  0  0  0  0  0  0  0
  142.2870   75.1755  216.7134 H   0  0  0  0  0  0  0  0  0  0  0  0
  141.3502   76.2656  217.6927 H   0  0  0  0  0  0  0  0  0  0  0  0
  144.2631   75.4697  217.9197 H   0  0  0  0  0  0  0  0  0  0  0  0
  143.5017   76.9818  218.4592 H   0  0  0  0  0  0  0  0  0  0  0  0
  143.5970   76.0719  220.6365 H   0  0  0  0  0  0  0  0  0  0  0  0
  144.8222   74.1223  222.1594 H   0  0  0  0  0  0  0  0  0  0  0  0
  146.2470   72.0680  221.3910 H   0  0  0  0  0  0  0  0  0  0  0  0
  145.9369   71.6839  218.8127 H   0  0  0  0  0  0  0  0  0  0  0  0
  139.2881   69.8380  222.6511 H   0  0  0  0  0  0  0  0  0  0  0  0
  139.0527   68.4440  224.6978 H   0  0  0  0  0  0  0  0  0  0  0  0
  139.3876   68.1439  227.0114 H   0  0  0  0  0  0  0  0  0  0  0  0
  140.2411   68.9940  229.2130 H   0  0  0  0  0  0  0  0  0  0  0  0
  141.3024   71.2219  229.2970 H   0  0  0  0  0  0  0  0  0  0  0  0
  141.5451   72.6290  227.2685 H   0  0  0  0  0  0  0  0  0  0  0  0
  1  2  2  0
  2  3  1  0
  3  4  1  0
  4  5  1  0
  5  6  2  0
  5  7  1  0
  7  8  1  0
  8  9  1  0
  9 10  1  0
 10 11  1  0
 11 12  1  0
 12 13  2  0
 13 14  1  0
 14 15  1  0
 15 16  2  0
  2 17  1  0
 17 18  2  0
 18 19  1  0
 19 20  2  0
 20 21  1  0
 21 22  2  0
 22 23  1  0
 23 24  2  0
 24 25  1  0
 25 26  2  0
 11  7  1  0
 16 12  1  0
 26 17  1  0
 25 20  1  0
  3 27  1  0
  4 28  1  0
  4 29  1  0
  8 30  1  0
  8 31  1  0
  9 32  1  0
  9 33  1  0
 10 34  1  0
 10 35  1  0
 11 36  1  1
 13 37  1  0
 14 38  1  0
 15 39  1  0
 18 40  1  0
 19 41  1  0
 21 42  1  0
 22 43  1  0
 23 44  1  0
 24 45  1  0
M  END
>  <smiles>  (6) 
O=C(NCC(=O)N1CCC[C@@H]1c1c[nH]cn1)c1ccc2ccccc2n1

>  <score_type>  (6) 
oracle

>  <origin>  (6) 
autodockgpu

>  <m_score__min__energy>  (6) 
-8.2300000000000004

>  <m_primary>  (6) 
energy

>  <rmsd>  (6) 
3.062314408390697

>  <m_score__min__rmsd>  (6) 
3.062314408390697

>  <meeko>  (6) 
{"free_energy": -7.98, "intermolecular_energy": -9.47, "internal_energy": -1.31, "cluster_size": 21, "cluster_id": 1, "rank_in_cluster": 7}

>  <energy>  (6) 
-7.99

>  <cluster_rmsd>  (6) 
0.71

>  <cluster>  (6) 
1

$$$$

     RDKit          3D

 45 48  0  0  0  0  0  0  0  0999 V2000
  140.6590   71.4050  221.2950 O   0  0  0  0  0  0  0  0  0  0  0  0
  140.1710   71.9190  222.3350 C   0  0  0  0  0  0  0  0  0  0  0  0
  139.6350   73.2410  222.1840 N   0  0  0  0  0  0  0  0  0  0  0  0
  139.7200   73.8160  220.8560 C   0  0  0  0  0  0  0  0  0  0  0  0
  140.6510   74.9610  220.8890 C   0  0  0  0  0  0  0  0  0  0  0  0
  140.5940   75.9090  221.6990 O   0  0  0  0  0  0  0  0  0  0  0  0
  141.7140   75.0020  219.9150 N   0  0  0  0  0  0  0  0  0  0  0  0
  141.6880   74.4780  218.5590 C   0  0  0  0  0  0  0  0  0  0  0  0
  142.1630   75.7140  217.8200 C   0  0  0  0  0  0  0  0  0  0  0  0
  143.2980   76.1810  218.7200 C   0  0  0  0  0  0  0  0  0  0  0  0
  143.0450   75.5800  220.0910 C   0  0  2  0  0  0  0  0  0  0  0  0
  144.0060   74.4880  220.3680 C   0  0  0  0  0  0  0  0  0  0  0  0
  143.7900   73.1470  220.5860 C   0  0  0  0  0  0  0  0  0  0  0  0
  145.0000   72.5660  220.7940 N   0  0  0  0  0  0  0  0  0  0  0  0
  145.9470   73.5370  220.7050 C   0  0  0  0  0  0  0  0  0  0  0  0
  145.3430   74.7070  220.4460 N   0  0  0  0  0  0  0  0  0  0  0  0
  140.1500   71.2250  223.6150 C   0  0  0  0  0  0  0  0  0  0  0  0
  139.6180   69.9610  223.6510 C   0  0  0  0  0  0  0  0  0  0  0  0
  139.5710   69.2550  224.8390 C   0  0  0  0  0  0  0  0  0  0  0  0
  140.0670   69.8400  225.9880 C   0  0  0  0  0  0  0  0  0  0  0  0
  140.0140   69.1240  227.1650 C   0  0  0  0  0  0  0  0  0  0  0  0
  140.5070   69.6940  228.3320 C   0  0  0  0  0  0  0  0  0  0  0  0
  141.0350   70.9640  228.2620 C   0  0  0  0  0  0  0  0  0  0  0  0
  141.0900   71.6900  227.0760 C   0  0  0  0  0  0  0  0  0  0  0  0
  140.5990   71.1150  225.9280 C   0  0  0  0  0  0  0  0  0  0  0  0
  140.6150   71.7440  224.7570 N   0  0  0  0  0  0  0  0  0  0  0  0
  139.2130   73.7330  223.0020 H   0  0  0  0  0  0  0  0  0  0  0  0
  140.0906   73.0591  220.1490 H   0  0  0  0  0  0  0  0  0  0  0  0
  138.7247   74.1544  220.5322 H   0  0  0  0  0  0  0  0  0  0  0  0
  142.3770   73.6302  218.4308 H   0  0  0  0  0  0  0  0  0  0  0  0
  140.7220   74.0697  218.2273 H   0  0  0  0  0  0  0  0  0  0  0  0
  142.5248   75.4660  216.8113 H   0  0  0  0  0  0  0  0  0  0  0  0
  141.3800   76.4685  217.6538 H   0  0  0  0  0  0  0  0  0  0  0  0
  144.2632   75.8309  218.3251 H   0  0  0  0  0  0  0  0  0  0  0  0
  143.3356   77.2792  218.7708 H   0  0  0  0  0  0  0  0  0  0  0  0
  143.1383   76.3046  220.9133 H   0  0  0  0  0  0  0  0  0  0  0  0
  142.8149   72.6379  220.5910 H   0  0  0  0  0  0  0  0  0  0  0  0
  145.1610   71.5530  220.9880 H   0  0  0  0  0  0  0  0  0  0  0  0
  147.0302   73.3882  220.8255 H   0  0  0  0  0  0  0  0  0  0  0  0
  139.2264   69.5063  222.7291 H   0  0  0  0  0  0  0  0  0  0  0  0
  139.1445   68.2415  224.8688 H   0  0  0  0  0  0  0  0  0  0  0  0
  139.5854   68.1110  227.1799 H   0  0  0  0  0  0  0  0  0  0  0  0
  140.4765   69.1462  229.2854 H   0  0  0  0  0  0  0  0  0  0  0  0
  141.4292   71.4231  229.1806 H   0  0  0  0  0  0  0  0  0  0  0  0
  141.5176   72.7033  227.0576 H   0  0  0  0  0  0  0  0  0  0  0  0
  1  2  2  0
  2  3  1  0
  3  4  1  0
  4  5  1  0
  5  6  2  0
  5  7  1  0
  7  8  1  0
  8  9  1  0
  9 10  1  0
 10 11  1  0
 11 12  1  0
 12 13  2  0
 13 14  1  0
 14 15  1  0
 15 16  2  0
  2 17  1  0
 17 18  2  0
 18 19  1  0
 19 20  2  0
 20 21  1  0
 21 22  2  0
 22 23  1  0
 23 24  2  0
 24 25  1  0
 25 26  2  0
 11  7  1  0
 16 12  1  0
 26 17  1  0
 25 20  1  0
  3 27  1  0
  4 28  1  0
  4 29  1  0
  8 30  1  0
  8 31  1  0
  9 32  1  0
  9 33  1  0
 10 34  1  0
 10 35  1  0
 11 36  1  1
 13 37  1  0
 14 38  1  0
 15 39  1  0
 18 40  1  0
 19 41  1  0
 21 42  1  0
 22 43  1  0
 23 44  1  0
 24 45  1  0
M  END
>  <smiles>  (7) 
O=C(NCC(=O)N1CCC[C@@H]1c1c[nH]cn1)c1ccc2ccccc2n1

>  <score_type>  (7) 
oracle

>  <origin>  (7) 
autodockgpu

>  <m_score__min__energy>  (7) 
-8.2300000000000004

>  <m_primary>  (7) 
energy

>  <rmsd>  (7) 
2.7650035306637224

>  <m_score__min__rmsd>  (7) 
2.7650035306637224

>  <meeko>  (7) 
{"free_energy": -7.91, "intermolecular_energy": -9.4, "internal_energy": -1.29, "cluster_size": 21, "cluster_id": 1, "rank_in_cluster": 12}

>  <energy>  (7) 
-7.98

>  <cluster_rmsd>  (7) 
0.68

>  <cluster>  (7) 
1

$$$$

     RDKit          3D

 45 48  0  0  0  0  0  0  0  0999 V2000
  135.7340   68.9460  224.4600 O   0  0  0  0  0  0  0  0  0  0  0  0
  135.7790   70.1980  224.5840 C   0  0  0  0  0  0  0  0  0  0  0  0
  136.8710   70.8500  223.9210 N   0  0  0  0  0  0  0  0  0  0  0  0
  137.7810   69.9890  223.1920 C   0  0  0  0  0  0  0  0  0  0  0  0
  139.1470   70.1860  223.7150 C   0  0  0  0  0  0  0  0  0  0  0  0
  140.0630   70.7900  223.1200 O   0  0  0  0  0  0  0  0  0  0  0  0
  139.4640   69.6430  225.0130 N   0  0  0  0  0  0  0  0  0  0  0  0
  138.5550   68.9880  225.9400 C   0  0  0  0  0  0  0  0  0  0  0  0
  139.3550   67.7260  226.2000 C   0  0  0  0  0  0  0  0  0  0  0  0
  140.7580   68.2900  226.3630 C   0  0  0  0  0  0  0  0  0  0  0  0
  140.7700   69.6410  225.6710 C   0  0  2  0  0  0  0  0  0  0  0  0
  140.8040   70.7380  226.6650 C   0  0  0  0  0  0  0  0  0  0  0  0
  140.1110   70.8930  227.8440 C   0  0  0  0  0  0  0  0  0  0  0  0
  140.4980   72.0730  228.3930 N   0  0  0  0  0  0  0  0  0  0  0  0
  141.4160   72.6360  227.5640 C   0  0  0  0  0  0  0  0  0  0  0  0
  141.6030   71.8250  226.5120 N   0  0  0  0  0  0  0  0  0  0  0  0
  134.7910   70.9440  225.3500 C   0  0  0  0  0  0  0  0  0  0  0  0
  133.8750   70.2310  226.0830 C   0  0  0  0  0  0  0  0  0  0  0  0
  132.9140   70.8870  226.8290 C   0  0  0  0  0  0  0  0  0  0  0  0
  132.8880   72.2680  226.8270 C   0  0  0  0  0  0  0  0  0  0  0  0
  131.9240   72.9090  227.5760 C   0  0  0  0  0  0  0  0  0  0  0  0
  131.8810   74.2970  227.5880 C   0  0  0  0  0  0  0  0  0  0  0  0
  132.8140   74.9820  226.8420 C   0  0  0  0  0  0  0  0  0  0  0  0
  133.7890   74.3400  226.0850 C   0  0  0  0  0  0  0  0  0  0  0  0
  133.8220   72.9660  226.0820 C   0  0  0  0  0  0  0  0  0  0  0  0
  134.7210   72.2790  225.3840 N   0  0  0  0  0  0  0  0  0  0  0  0
  136.9750   71.8870  223.9770 H   0  0  0  0  0  0  0  0  0  0  0  0
  137.4824   68.9387  223.3253 H   0  0  0  0  0  0  0  0  0  0  0  0
  137.7523   70.2378  222.1209 H   0  0  0  0  0  0  0  0  0  0  0  0
  138.4041   69.5775  226.8564 H   0  0  0  0  0  0  0  0  0  0  0  0
  137.5309   68.8325  225.5698 H   0  0  0  0  0  0  0  0  0  0  0  0
  139.0172   67.2165  227.1145 H   0  0  0  0  0  0  0  0  0  0  0  0
  139.2646   66.9650  225.4109 H   0  0  0  0  0  0  0  0  0  0  0  0
  140.9968   68.4089  227.4302 H   0  0  0  0  0  0  0  0  0  0  0  0
  141.5083   67.6152  225.9251 H   0  0  0  0  0  0  0  0  0  0  0  0
  141.6334   69.7863  225.0051 H   0  0  0  0  0  0  0  0  0  0  0  0
  139.3775   70.1894  228.2647 H   0  0  0  0  0  0  0  0  0  0  0  0
  140.1450   72.4680  229.2940 H   0  0  0  0  0  0  0  0  0  0  0  0
  141.9224   73.5985  227.7286 H   0  0  0  0  0  0  0  0  0  0  0  0
  133.9060   69.1315  226.0766 H   0  0  0  0  0  0  0  0  0  0  0  0
  132.1795   70.3167  227.4166 H   0  0  0  0  0  0  0  0  0  0  0  0
  131.1955   72.3262  228.1588 H   0  0  0  0  0  0  0  0  0  0  0  0
  131.1229   74.8342  228.1769 H   0  0  0  0  0  0  0  0  0  0  0  0
  132.7874   76.0817  226.8447 H   0  0  0  0  0  0  0  0  0  0  0  0
  134.5185   74.9202  225.5009 H   0  0  0  0  0  0  0  0  0  0  0  0
  1  2  2  0
  2  3  1  0
  3  4  1  0
  4  5  1  0
  5  6  2  0
  5  7  1  0
  7  8  1  0
  8  9  1  0
  9 10  1  0
 10 11  1  0
 11 12  1  0
 12 13  2  0
 13 14  1  0
 14 15  1  0
 15 16  2  0
  2 17  1  0
 17 18  2  0
 18 19  1  0
 19 20  2  0
 20 21  1  0
 21 22  2  0
 22 23  1  0
 23 24  2  0
 24 25  1  0
 25 26  2  0
 11  7  1  0
 16 12  1  0
 26 17  1  0
 25 20  1  0
  3 27  1  0
  4 28  1  0
  4 29  1  0
  8 30  1  0
  8 31  1  0
  9 32  1  0
  9 33  1  0
 10 34  1  0
 10 35  1  0
 11 36  1  6
 13 37  1  0
 14 38  1  0
 15 39  1  0
 18 40  1  0
 19 41  1  0
 21 42  1  0
 22 43  1  0
 23 44  1  0
 24 45  1  0
M  END
>  <smiles>  (8) 
O=C(NCC(=O)N1CCC[C@@H]1c1c[nH]cn1)c1ccc2ccccc2n1

>  <score_type>  (8) 
oracle

>  <origin>  (8) 
autodockgpu

>  <m_score__min__energy>  (8) 
-8.2300000000000004

>  <m_primary>  (8) 
energy

>  <rmsd>  (8) 
8.22556005516941

>  <m_score__min__rmsd>  (8) 
8.22556005516941

>  <meeko>  (8) 
{"free_energy": -7.41, "intermolecular_energy": -8.9, "internal_energy": -1.34, "cluster_size": 2, "cluster_id": 4, "rank_in_cluster": 1}

>  <energy>  (8) 
-7.96

>  <cluster_rmsd>  (8) 
0.67

>  <cluster>  (8) 
1

$$$$

     RDKit          3D

 45 48  0  0  0  0  0  0  0  0999 V2000
  141.5360   72.1990  221.6490 O   0  0  0  0  0  0  0  0  0  0  0  0
  140.6540   72.4450  222.5130 C   0  0  0  0  0  0  0  0  0  0  0  0
  139.9470   73.6830  222.3460 N   0  0  0  0  0  0  0  0  0  0  0  0
  140.3360   74.4900  221.2060 C   0  0  0  0  0  0  0  0  0  0  0  0
  140.0240   75.9040  221.4930 C   0  0  0  0  0  0  0  0  0  0  0  0
  139.0890   76.2990  222.2200 O   0  0  0  0  0  0  0  0  0  0  0  0
  140.8540   76.9190  220.8940 N   0  0  0  0  0  0  0  0  0  0  0  0
  142.1270   76.7310  220.2170 C   0  0  0  0  0  0  0  0  0  0  0  0
  141.8230   77.4790  218.9330 C   0  0  0  0  0  0  0  0  0  0  0  0
  141.1170   78.7160  219.4680 C   0  0  0  0  0  0  0  0  0  0  0  0
  140.5880   78.3570  220.8450 C   0  0  2  0  0  0  0  0  0  0  0  0
  141.3840   79.0250  221.9010 C   0  0  0  0  0  0  0  0  0  0  0  0
  142.2200   80.1150  221.8300 C   0  0  0  0  0  0  0  0  0  0  0  0
  142.7120   80.3350  223.0760 N   0  0  0  0  0  0  0  0  0  0  0  0
  142.1860   79.3920  223.9020 C   0  0  0  0  0  0  0  0  0  0  0  0
  141.3780   78.5950  223.1880 N   0  0  0  0  0  0  0  0  0  0  0  0
  140.3630   71.5390  223.6150 C   0  0  0  0  0  0  0  0  0  0  0  0
  139.6370   70.4070  223.3400 C   0  0  0  0  0  0  0  0  0  0  0  0
  139.3310   69.5120  224.3480 C   0  0  0  0  0  0  0  0  0  0  0  0
  139.7650   69.7720  225.6330 C   0  0  0  0  0  0  0  0  0  0  0  0
  139.4520   68.8700  226.6280 C   0  0  0  0  0  0  0  0  0  0  0  0
  139.8790   69.1130  227.9280 C   0  0  0  0  0  0  0  0  0  0  0  0
  140.6050   70.2580  228.1690 C   0  0  0  0  0  0  0  0  0  0  0  0
  140.9220   71.1710  227.1680 C   0  0  0  0  0  0  0  0  0  0  0  0
  140.4950   70.9190  225.8870 C   0  0  0  0  0  0  0  0  0  0  0  0
  140.7570   71.7430  224.8760 N   0  0  0  0  0  0  0  0  0  0  0  0
  139.2010   73.9570  223.0220 H   0  0  0  0  0  0  0  0  0  0  0  0
  141.4155   74.3791  221.0261 H   0  0  0  0  0  0  0  0  0  0  0  0
  139.7868   74.1611  220.3115 H   0  0  0  0  0  0  0  0  0  0  0  0
  142.9608   77.1856  220.7720 H   0  0  0  0  0  0  0  0  0  0  0  0
  142.4477   75.6862  220.0923 H   0  0  0  0  0  0  0  0  0  0  0  0
  142.7443   77.7431  218.3932 H   0  0  0  0  0  0  0  0  0  0  0  0
  141.2326   76.9029  218.2053 H   0  0  0  0  0  0  0  0  0  0  0  0
  141.8252   79.5545  219.5410 H   0  0  0  0  0  0  0  0  0  0  0  0
  140.3001   79.0249  218.7992 H   0  0  0  0  0  0  0  0  0  0  0  0
  139.5388   78.6473  221.0030 H   0  0  0  0  0  0  0  0  0  0  0  0
  142.4483   80.7016  220.9279 H   0  0  0  0  0  0  0  0  0  0  0  0
  143.3770   81.0960  223.3400 H   0  0  0  0  0  0  0  0  0  0  0  0
  142.3897   79.2983  224.9789 H   0  0  0  0  0  0  0  0  0  0  0  0
  139.2970   70.2111  222.3124 H   0  0  0  0  0  0  0  0  0  0  0  0
  138.7493   68.6044  224.1294 H   0  0  0  0  0  0  0  0  0  0  0  0
  138.8696   67.9664  226.3949 H   0  0  0  0  0  0  0  0  0  0  0  0
  139.6437   68.4107  228.7413 H   0  0  0  0  0  0  0  0  0  0  0  0
  140.9483   70.4591  229.1945 H   0  0  0  0  0  0  0  0  0  0  0  0
  141.5029   72.0764  227.3979 H   0  0  0  0  0  0  0  0  0  0  0  0
  1  2  2  0
  2  3  1  0
  3  4  1  0
  4  5  1  0
  5  6  2  0
  5  7  1  0
  7  8  1  0
  8  9  1  0
  9 10  1  0
 10 11  1  0
 11 12  1  0
 12 13  2  0
 13 14  1  0
 14 15  1  0
 15 16  2  0
  2 17  1  0
 17 18  2  0
 18 19  1  0
 19 20  2  0
 20 21  1  0
 21 22  2  0
 22 23  1  0
 23 24  2  0
 24 25  1  0
 25 26  2  0
 11  7  1  0
 16 12  1  0
 26 17  1  0
 25 20  1  0
  3 27  1  0
  4 28  1  0
  4 29  1  0
  8 30  1  0
  8 31  1  0
  9 32  1  0
  9 33  1  0
 10 34  1  0
 10 35  1  0
 11 36  1  6
 13 37  1  0
 14 38  1  0
 15 39  1  0
 18 40  1  0
 19 41  1  0
 21 42  1  0
 22 43  1  0
 23 44  1  0
 24 45  1  0
M  END
>  <smiles>  (9) 
O=C(NCC(=O)N1CCC[C@@H]1c1c[nH]cn1)c1ccc2ccccc2n1

>  <score_type>  (9) 
oracle

>  <origin>  (9) 
autodockgpu

>  <m_score__min__energy>  (9) 
-8.2300000000000004

>  <m_primary>  (9) 
energy

>  <rmsd>  (9) 
2.252345012721888

>  <m_score__min__rmsd>  (9) 
2.252345012721888

>  <meeko>  (9) 
{"free_energy": -7.59, "intermolecular_energy": -9.08, "internal_energy": -1.34, "cluster_size": 12, "cluster_id": 2, "rank_in_cluster": 12}

>  <energy>  (9) 
-7.96

>  <cluster_rmsd>  (9) 
0.67

>  <cluster>  (9) 
1

$$$$

     RDKit          3D

 45 48  0  0  0  0  0  0  0  0999 V2000
  140.0370   74.5950  222.3060 O   0  0  0  0  0  0  0  0  0  0  0  0
  140.0490   75.6310  221.5920 C   0  0  0  0  0  0  0  0  0  0  0  0
  139.8760   75.4190  220.1840 N   0  0  0  0  0  0  0  0  0  0  0  0
  139.7070   74.0430  219.7620 C   0  0  0  0  0  0  0  0  0  0  0  0
  141.0310   73.3940  219.7040 C   0  0  0  0  0  0  0  0  0  0  0  0
  141.2450   72.1810  219.9020 O   0  0  0  0  0  0  0  0  0  0  0  0
  142.1770   74.2130  219.3950 N   0  0  0  0  0  0  0  0  0  0  0  0
  142.7270   74.5000  218.0800 C   0  0  0  0  0  0  0  0  0  0  0  0
  142.7850   76.0120  218.1730 C   0  0  0  0  0  0  0  0  0  0  0  0
  143.3320   76.2040  219.5790 C   0  0  0  0  0  0  0  0  0  0  0  0
  143.0290   74.9280  220.3440 C   0  0  2  0  0  0  0  0  0  0  0  0
  144.2660   74.1410  220.5600 C   0  0  0  0  0  0  0  0  0  0  0  0
  144.4680   72.7810  220.5450 C   0  0  0  0  0  0  0  0  0  0  0  0
  145.7840   72.5600  220.7990 N   0  0  0  0  0  0  0  0  0  0  0  0
  146.3820   73.7690  220.9670 C   0  0  0  0  0  0  0  0  0  0  0  0
  145.4590   74.7320  220.8220 N   0  0  0  0  0  0  0  0  0  0  0  0
  140.2290   76.9640  222.1500 C   0  0  0  0  0  0  0  0  0  0  0  0
  139.1160   77.6240  222.6060 C   0  0  0  0  0  0  0  0  0  0  0  0
  139.2280   78.8920  223.1460 C   0  0  0  0  0  0  0  0  0  0  0  0
  140.4740   79.4850  223.2190 C   0  0  0  0  0  0  0  0  0  0  0  0
  140.5690   80.7490  223.7600 C   0  0  0  0  0  0  0  0  0  0  0  0
  141.8130   81.3630  223.8420 C   0  0  0  0  0  0  0  0  0  0  0  0
  142.9100   80.6730  223.3760 C   0  0  0  0  0  0  0  0  0  0  0  0
  142.8170   79.3960  222.8300 C   0  0  0  0  0  0  0  0  0  0  0  0
  141.5820   78.8000  222.7530 C   0  0  0  0  0  0  0  0  0  0  0  0
  141.4100   77.5840  222.2440 N   0  0  0  0  0  0  0  0  0  0  0  0
  139.8740   76.2310  219.5270 H   0  0  0  0  0  0  0  0  0  0  0  0
  139.0669   73.5121  220.4820 H   0  0  0  0  0  0  0  0  0  0  0  0
  139.2340   74.0134  218.7693 H   0  0  0  0  0  0  0  0  0  0  0  0
  143.7244   74.0564  217.9441 H   0  0  0  0  0  0  0  0  0  0  0  0
  142.1551   74.0996  217.2300 H   0  0  0  0  0  0  0  0  0  0  0  0
  143.4615   76.4362  217.4164 H   0  0  0  0  0  0  0  0  0  0  0  0
  141.8217   76.5114  217.9926 H   0  0  0  0  0  0  0  0  0  0  0  0
  144.4180   76.3754  219.5430 H   0  0  0  0  0  0  0  0  0  0  0  0
  142.8717   77.0760  220.0666 H   0  0  0  0  0  0  0  0  0  0  0  0
  142.5848   75.1047  221.3347 H   0  0  0  0  0  0  0  0  0  0  0  0
  143.7033   72.0121  220.3609 H   0  0  0  0  0  0  0  0  0  0  0  0
  146.2430   71.6240  220.8540 H   0  0  0  0  0  0  0  0  0  0  0  0
  147.4477   73.9313  221.1859 H   0  0  0  0  0  0  0  0  0  0  0  0
  138.1294   77.1419  222.5417 H   0  0  0  0  0  0  0  0  0  0  0  0
  138.3366   79.4219  223.5128 H   0  0  0  0  0  0  0  0  0  0  0  0
  139.6690   81.2667  224.1233 H   0  0  0  0  0  0  0  0  0  0  0  0
  141.9185   82.3720  224.2672 H   0  0  0  0  0  0  0  0  0  0  0  0
  143.8992   81.1501  223.4378 H   0  0  0  0  0  0  0  0  0  0  0  0
  143.7150   78.8744  222.4673 H   0  0  0  0  0  0  0  0  0  0  0  0
  1  2  2  0
  2  3  1  0
  3  4  1  0
  4  5  1  0
  5  6  2  0
  5  7  1  0
  7  8  1  0
  8  9  1  0
  9 10  1  0
 10 11  1  0
 11 12  1  0
 12 13  2  0
 13 14  1  0
 14 15  1  0
 15 16  2  0
  2 17  1  0
 17 18  2  0
 18 19  1  0
 19 20  2  0
 20 21  1  0
 21 22  2  0
 22 23  1  0
 23 24  2  0
 24 25  1  0
 25 26  2  0
 11  7  1  0
 16 12  1  0
 26 17  1  0
 25 20  1  0
  3 27  1  0
  4 28  1  0
  4 29  1  0
  8 30  1  0
  8 31  1  0
  9 32  1  0
  9 33  1  0
 10 34  1  0
 10 35  1  0
 11 36  1  1
 13 37  1  0
 14 38  1  0
 15 39  1  0
 18 40  1  0
 19 41  1  0
 21 42  1  0
 22 43  1  0
 23 44  1  0
 24 45  1  0
M  END
>  <smiles>  (10) 
O=C(NCC(=O)N1CCC[C@@H]1c1c[nH]cn1)c1ccc2ccccc2n1

>  <score_type>  (10) 
oracle

>  <origin>  (10) 
autodockgpu

>  <m_score__min__energy>  (10) 
-8.2300000000000004

>  <m_primary>  (10) 
energy

>  <rmsd>  (10) 
7.224724976825351

>  <m_score__min__rmsd>  (10) 
7.224724976825351

>  <meeko>  (10) 
{"free_energy": -7.14, "intermolecular_energy": -8.63, "internal_energy": -1.71, "cluster_size": 4, "cluster_id": 6, "rank_in_cluster": 1}

>  <energy>  (10) 
-7.94

>  <cluster_rmsd>  (10) 
0.7

>  <cluster>  (10) 
1

$$$$

     RDKit          3D

 45 48  0  0  0  0  0  0  0  0999 V2000
  139.7620   73.4330  222.3560 O   0  0  0  0  0  0  0  0  0  0  0  0
  140.3200   72.3110  222.4720 C   0  0  0  0  0  0  0  0  0  0  0  0
  141.0580   71.8620  221.3270 N   0  0  0  0  0  0  0  0  0  0  0  0
  141.0690   72.7540  220.1850 C   0  0  0  0  0  0  0  0  0  0  0  0
  141.9580   73.8950  220.4780 C   0  0  0  0  0  0  0  0  0  0  0  0
  143.1430   73.8020  220.8600 O   0  0  0  0  0  0  0  0  0  0  0  0
  141.4310   75.2270  220.3160 N   0  0  0  0  0  0  0  0  0  0  0  0
  140.0670   75.6010  219.9810 C   0  0  0  0  0  0  0  0  0  0  0  0
  139.8130   76.5940  221.0980 C   0  0  0  0  0  0  0  0  0  0  0  0
  141.1190   77.3740  221.1060 C   0  0  0  0  0  0  0  0  0  0  0  0
  142.1630   76.4860  220.4540 C   0  0  2  0  0  0  0  0  0  0  0  0
  142.5070   76.9870  219.1040 C   0  0  0  0  0  0  0  0  0  0  0  0
  142.6090   78.2760  218.6320 C   0  0  0  0  0  0  0  0  0  0  0  0
  142.9530   78.2060  217.3210 N   0  0  0  0  0  0  0  0  0  0  0  0
  143.0600   76.8920  216.9890 C   0  0  0  0  0  0  0  0  0  0  0  0
  142.7890   76.1500  218.0740 N   0  0  0  0  0  0  0  0  0  0  0  0
  140.2270   71.5130  223.6860 C   0  0  0  0  0  0  0  0  0  0  0  0
  139.6230   70.2840  223.6010 C   0  0  0  0  0  0  0  0  0  0  0  0
  139.5060   69.4830  224.7230 C   0  0  0  0  0  0  0  0  0  0  0  0
  140.0050   69.9380  225.9280 C   0  0  0  0  0  0  0  0  0  0  0  0
  139.8820   69.1280  227.0370 C   0  0  0  0  0  0  0  0  0  0  0  0
  140.3770   69.5670  228.2590 C   0  0  0  0  0  0  0  0  0  0  0  0
  140.9770   70.8050  228.3100 C   0  0  0  0  0  0  0  0  0  0  0  0
  141.1030   71.6240  227.1930 C   0  0  0  0  0  0  0  0  0  0  0  0
  140.6100   71.1800  225.9900 C   0  0  0  0  0  0  0  0  0  0  0  0
  140.6920   71.9040  224.8780 N   0  0  0  0  0  0  0  0  0  0  0  0
  141.5490   70.9410  221.3470 H   0  0  0  0  0  0  0  0  0  0  0  0
  141.4386   72.2158  219.2997 H   0  0  0  0  0  0  0  0  0  0  0  0
  140.0499   73.1171  219.9860 H   0  0  0  0  0  0  0  0  0  0  0  0
  139.9998   76.0704  218.9885 H   0  0  0  0  0  0  0  0  0  0  0  0
  139.3506   74.7689  219.9154 H   0  0  0  0  0  0  0  0  0  0  0  0
  138.9563   77.2454  220.8706 H   0  0  0  0  0  0  0  0  0  0  0  0
  139.5587   76.1313  222.0630 H   0  0  0  0  0  0  0  0  0  0  0  0
  141.0061   78.3077  220.5355 H   0  0  0  0  0  0  0  0  0  0  0  0
  141.4130   77.6418  222.1316 H   0  0  0  0  0  0  0  0  0  0  0  0
  143.1034   76.4242  221.0213 H   0  0  0  0  0  0  0  0  0  0  0  0
  142.4420   79.1957  219.2120 H   0  0  0  0  0  0  0  0  0  0  0  0
  143.1040   79.0230  216.6880 H   0  0  0  0  0  0  0  0  0  0  0  0
  143.3249   76.5015  215.9953 H   0  0  0  0  0  0  0  0  0  0  0  0
  139.2296   69.9336  222.6354 H   0  0  0  0  0  0  0  0  0  0  0  0
  139.0222   68.4973  224.6564 H   0  0  0  0  0  0  0  0  0  0  0  0
  139.3969   68.1441  226.9553 H   0  0  0  0  0  0  0  0  0  0  0  0
  140.2918   68.9426  229.1606 H   0  0  0  0  0  0  0  0  0  0  0  0
  141.3726   71.1607  229.2728 H   0  0  0  0  0  0  0  0  0  0  0  0
  141.5880   72.6082  227.2713 H   0  0  0  0  0  0  0  0  0  0  0  0
  1  2  2  0
  2  3  1  0
  3  4  1  0
  4  5  1  0
  5  6  2  0
  5  7  1  0
  7  8  1  0
  8  9  1  0
  9 10  1  0
 10 11  1  0
 11 12  1  0
 12 13  2  0
 13 14  1  0
 14 15  1  0
 15 16  2  0
  2 17  1  0
 17 18  2  0
 18 19  1  0
 19 20  2  0
 20 21  1  0
 21 22  2  0
 22 23  1  0
 23 24  2  0
 24 25  1  0
 25 26  2  0
 11  7  1  0
 16 12  1  0
 26 17  1  0
 25 20  1  0
  3 27  1  0
  4 28  1  0
  4 29  1  0
  8 30  1  0
  8 31  1  0
  9 32  1  0
  9 33  1  0
 10 34  1  0
 10 35  1  0
 11 36  1  1
 13 37  1  0
 14 38  1  0
 15 39  1  0
 18 40  1  0
 19 41  1  0
 21 42  1  0
 22 43  1  0
 23 44  1  0
 24 45  1  0
M  END
>  <smiles>  (11) 
O=C(NCC(=O)N1CCC[C@@H]1c1c[nH]cn1)c1ccc2ccccc2n1

>  <score_type>  (11) 
oracle

>  <origin>  (11) 
autodockgpu

>  <m_score__min__energy>  (11) 
-8.2300000000000004

>  <m_primary>  (11) 
energy

>  <rmsd>  (11) 
2.811472093463772

>  <m_score__min__rmsd>  (11) 
2.811472093463772

>  <meeko>  (11) 
{"free_energy": -7.28, "intermolecular_energy": -8.77, "internal_energy": -1.3, "cluster_size": 1, "cluster_id": 5, "rank_in_cluster": 1}

>  <energy>  (11) 
-7.91

>  <cluster_rmsd>  (11) 
0.69

>  <cluster>  (11) 
1

$$$$

     RDKit          3D

 45 48  0  0  0  0  0  0  0  0999 V2000
  141.3490   71.6370  221.9500 O   0  0  0  0  0  0  0  0  0  0  0  0
  140.4580   71.8550  222.8120 C   0  0  0  0  0  0  0  0  0  0  0  0
  139.4450   72.7980  222.4360 N   0  0  0  0  0  0  0  0  0  0  0  0
  139.5730   73.3780  221.1140 C   0  0  0  0  0  0  0  0  0  0  0  0
  140.5370   74.4930  221.1720 C   0  0  0  0  0  0  0  0  0  0  0  0
  140.5650   75.3730  222.0580 O   0  0  0  0  0  0  0  0  0  0  0  0
  141.5310   74.5890  220.1320 N   0  0  0  0  0  0  0  0  0  0  0  0
  141.4940   73.9690  218.8170 C   0  0  0  0  0  0  0  0  0  0  0  0
  141.7730   75.1960  217.9700 C   0  0  0  0  0  0  0  0  0  0  0  0
  142.8910   75.8570  218.7630 C   0  0  0  0  0  0  0  0  0  0  0  0
  142.7900   75.3320  220.1840 C   0  0  2  0  0  0  0  0  0  0  0  0
  143.8910   74.3830  220.4700 C   0  0  0  0  0  0  0  0  0  0  0  0
  143.8550   73.0370  220.7520 C   0  0  0  0  0  0  0  0  0  0  0  0
  145.1350   72.6240  220.9380 N   0  0  0  0  0  0  0  0  0  0  0  0
  145.9480   73.7010  220.7720 C   0  0  0  0  0  0  0  0  0  0  0  0
  145.1910   74.7720  220.4870 N   0  0  0  0  0  0  0  0  0  0  0  0
  140.4490   71.1970  224.1110 C   0  0  0  0  0  0  0  0  0  0  0  0
  140.9230   71.9010  225.1900 C   0  0  0  0  0  0  0  0  0  0  0  0
  140.9400   71.3260  226.4470 C   0  0  0  0  0  0  0  0  0  0  0  0
  140.4720   70.0360  226.6020 C   0  0  0  0  0  0  0  0  0  0  0  0
  140.4940   69.4760  227.8620 C   0  0  0  0  0  0  0  0  0  0  0  0
  140.0280   68.1790  228.0400 C   0  0  0  0  0  0  0  0  0  0  0  0
  139.5590   67.5000  226.9370 C   0  0  0  0  0  0  0  0  0  0  0  0
  139.5350   68.0620  225.6640 C   0  0  0  0  0  0  0  0  0  0  0  0
  139.9980   69.3450  225.5010 C   0  0  0  0  0  0  0  0  0  0  0  0
  140.0100   69.9510  224.3180 N   0  0  0  0  0  0  0  0  0  0  0  0
  138.6720   73.0300  223.0980 H   0  0  0  0  0  0  0  0  0  0  0  0
  139.9338   72.6144  220.4092 H   0  0  0  0  0  0  0  0  0  0  0  0
  138.5949   73.7487  220.7737 H   0  0  0  0  0  0  0  0  0  0  0  0
  142.2731   73.2013  218.7006 H   0  0  0  0  0  0  0  0  0  0  0  0
  140.5680   73.4268  218.5748 H   0  0  0  0  0  0  0  0  0  0  0  0
  142.1054   74.9200  216.9584 H   0  0  0  0  0  0  0  0  0  0  0  0
  140.8959   75.8391  217.8056 H   0  0  0  0  0  0  0  0  0  0  0  0
  143.8680   75.5948  218.3309 H   0  0  0  0  0  0  0  0  0  0  0  0
  142.7974   76.9528  218.7393 H   0  0  0  0  0  0  0  0  0  0  0  0
  142.8400   76.1209  220.9490 H   0  0  0  0  0  0  0  0  0  0  0  0
  142.9536   72.4097  220.8153 H   0  0  0  0  0  0  0  0  0  0  0  0
  145.4310   71.6480  221.1670 H   0  0  0  0  0  0  0  0  0  0  0  0
  147.0447   73.6955  220.8572 H   0  0  0  0  0  0  0  0  0  0  0  0
  141.2914   72.9285  225.0536 H   0  0  0  0  0  0  0  0  0  0  0  0
  141.3212   71.8884  227.3121 H   0  0  0  0  0  0  0  0  0  0  0  0
  140.8769   70.0507  228.7182 H   0  0  0  0  0  0  0  0  0  0  0  0
  140.0335   67.7077  229.0339 H   0  0  0  0  0  0  0  0  0  0  0  0
  139.1887   66.4725  227.0676 H   0  0  0  0  0  0  0  0  0  0  0  0
  139.1529   67.4902  224.8055 H   0  0  0  0  0  0  0  0  0  0  0  0
  1  2  2  0
  2  3  1  0
  3  4  1  0
  4  5  1  0
  5  6  2  0
  5  7  1  0
  7  8  1  0
  8  9  1  0
  9 10  1  0
 10 11  1  0
 11 12  1  0
 12 13  2  0
 13 14  1  0
 14 15  1  0
 15 16  2  0
  2 17  1  0
 17 18  2  0
 18 19  1  0
 19 20  2  0
 20 21  1  0
 21 22  2  0
 22 23  1  0
 23 24  2  0
 24 25  1  0
 25 26  2  0
 11  7  1  0
 16 12  1  0
 26 17  1  0
 25 20  1  0
  3 27  1  0
  4 28  1  0
  4 29  1  0
  8 30  1  0
  8 31  1  0
  9 32  1  0
  9 33  1  0
 10 34  1  0
 10 35  1  0
 11 36  1  1
 13 37  1  0
 14 38  1  0
 15 39  1  0
 18 40  1  0
 19 41  1  0
 21 42  1  0
 22 43  1  0
 23 44  1  0
 24 45  1  0
M  END
>  <smiles>  (12) 
O=C(NCC(=O)N1CCC[C@@H]1c1c[nH]cn1)c1ccc2ccccc2n1

>  <score_type>  (12) 
oracle

>  <origin>  (12) 
autodockgpu

>  <m_score__min__energy>  (12) 
-8.2300000000000004

>  <m_primary>  (12) 
energy

>  <rmsd>  (12) 
3.4754153498464944

>  <m_score__min__rmsd>  (12) 
3.4754153498464944

>  <meeko>  (12) 
{"free_energy": -8.04, "intermolecular_energy": -9.54, "internal_energy": -1.28, "cluster_size": 21, "cluster_id": 1, "rank_in_cluster": 2}

>  <energy>  (12) 
-7.91

>  <cluster_rmsd>  (12) 
0.28

>  <cluster>  (12) 
1

$$$$

     RDKit          3D

 45 48  0  0  0  0  0  0  0  0999 V2000
  141.2280   72.0200  221.6070 O   0  0  0  0  0  0  0  0  0  0  0  0
  140.3630   72.2770  222.4850 C   0  0  0  0  0  0  0  0  0  0  0  0
  139.5100   73.3970  222.2090 N   0  0  0  0  0  0  0  0  0  0  0  0
  139.7490   74.0880  220.9570 C   0  0  0  0  0  0  0  0  0  0  0  0
  140.9310   74.9570  221.1090 C   0  0  0  0  0  0  0  0  0  0  0  0
  141.2100   75.6170  222.1310 O   0  0  0  0  0  0  0  0  0  0  0  0
  141.8440   75.0640  219.9980 N   0  0  0  0  0  0  0  0  0  0  0  0
  141.5730   74.7650  218.6010 C   0  0  0  0  0  0  0  0  0  0  0  0
  142.0670   76.0580  217.9830 C   0  0  0  0  0  0  0  0  0  0  0  0
  143.3600   76.2820  218.7530 C   0  0  0  0  0  0  0  0  0  0  0  0
  143.2410   75.4960  220.0450 C   0  0  2  0  0  0  0  0  0  0  0  0
  144.1110   74.2980  220.0100 C   0  0  0  0  0  0  0  0  0  0  0  0
  144.7490   73.6310  221.0310 C   0  0  0  0  0  0  0  0  0  0  0  0
  145.4270   72.5910  220.4790 N   0  0  0  0  0  0  0  0  0  0  0  0
  145.2080   72.6180  219.1380 C   0  0  0  0  0  0  0  0  0  0  0  0
  144.4080   73.6560  218.8520 N   0  0  0  0  0  0  0  0  0  0  0  0
  140.2310   71.4950  223.7060 C   0  0  0  0  0  0  0  0  0  0  0  0
  139.5940   70.2830  223.6250 C   0  0  0  0  0  0  0  0  0  0  0  0
  139.4390   69.4980  224.7530 C   0  0  0  0  0  0  0  0  0  0  0  0
  139.9340   69.9520  225.9610 C   0  0  0  0  0  0  0  0  0  0  0  0
  139.7730   69.1580  227.0770 C   0  0  0  0  0  0  0  0  0  0  0  0
  140.2630   69.5960  228.3010 C   0  0  0  0  0  0  0  0  0  0  0  0
  140.8970   70.8180  228.3470 C   0  0  0  0  0  0  0  0  0  0  0  0
  141.0620   71.6210  227.2230 C   0  0  0  0  0  0  0  0  0  0  0  0
  140.5730   71.1770  226.0180 C   0  0  0  0  0  0  0  0  0  0  0  0
  140.6900   71.8860  224.9000 N   0  0  0  0  0  0  0  0  0  0  0  0
  138.7680   73.6720  222.8890 H   0  0  0  0  0  0  0  0  0  0  0  0
  139.9310   73.3534  220.1587 H   0  0  0  0  0  0  0  0  0  0  0  0
  138.8710   74.6959  220.6933 H   0  0  0  0  0  0  0  0  0  0  0  0
  142.1440   73.8939  218.2471 H   0  0  0  0  0  0  0  0  0  0  0  0
  140.5323   74.4958  218.3676 H   0  0  0  0  0  0  0  0  0  0  0  0
  142.2549   75.9431  216.9053 H   0  0  0  0  0  0  0  0  0  0  0  0
  141.3523   76.8914  218.0509 H   0  0  0  0  0  0  0  0  0  0  0  0
  144.2176   75.9200  218.1669 H   0  0  0  0  0  0  0  0  0  0  0  0
  143.5199   77.3515  218.9544 H   0  0  0  0  0  0  0  0  0  0  0  0
  143.5253   76.0725  220.9377 H   0  0  0  0  0  0  0  0  0  0  0  0
  144.7160   73.8922  222.0990 H   0  0  0  0  0  0  0  0  0  0  0  0
  146.0100   71.9010  221.0030 H   0  0  0  0  0  0  0  0  0  0  0  0
  145.6191   71.9058  218.4074 H   0  0  0  0  0  0  0  0  0  0  0  0
  139.2043   69.9335  222.6576 H   0  0  0  0  0  0  0  0  0  0  0  0
  138.9287   68.5256  224.6897 H   0  0  0  0  0  0  0  0  0  0  0  0
  139.2615   68.1873  226.9988 H   0  0  0  0  0  0  0  0  0  0  0  0
  140.1479   68.9842  229.2079 H   0  0  0  0  0  0  0  0  0  0  0  0
  141.2887   71.1733  229.3115 H   0  0  0  0  0  0  0  0  0  0  0  0
  141.5737   72.5919  227.2974 H   0  0  0  0  0  0  0  0  0  0  0  0
  1  2  2  0
  2  3  1  0
  3  4  1  0
  4  5  1  0
  5  6  2  0
  5  7  1  0
  7  8  1  0
  8  9  1  0
  9 10  1  0
 10 11  1  0
 11 12  1  0
 12 13  2  0
 13 14  1  0
 14 15  1  0
 15 16  2  0
  2 17  1  0
 17 18  2  0
 18 19  1  0
 19 20  2  0
 20 21  1  0
 21 22  2  0
 22 23  1  0
 23 24  2  0
 24 25  1  0
 25 26  2  0
 11  7  1  0
 16 12  1  0
 26 17  1  0
 25 20  1  0
  3 27  1  0
  4 28  1  0
  4 29  1  0
  8 30  1  0
  8 31  1  0
  9 32  1  0
  9 33  1  0
 10 34  1  0
 10 35  1  0
 11 36  1  1
 13 37  1  0
 14 38  1  0
 15 39  1  0
 18 40  1  0
 19 41  1  0
 21 42  1  0
 22 43  1  0
 23 44  1  0
 24 45  1  0
M  END
>  <smiles>  (13) 
O=C(NCC(=O)N1CCC[C@@H]1c1c[nH]cn1)c1ccc2ccccc2n1

>  <score_type>  (13) 
oracle

>  <origin>  (13) 
autodockgpu

>  <m_score__min__energy>  (13) 
-8.2300000000000004

>  <m_primary>  (13) 
energy

>  <rmsd>  (13) 
2.982519454280937

>  <m_score__min__rmsd>  (13) 
2.982519454280937

>  <meeko>  (13) 
{"free_energy": -8.01, "intermolecular_energy": -9.5, "internal_energy": -1.3, "cluster_size": 21, "cluster_id": 1, "rank_in_cluster": 4}

>  <energy>  (13) 
-7.78

>  <cluster_rmsd>  (13) 
0.41

>  <cluster>  (13) 
1

$$$$

     RDKit          3D

 45 48  0  0  0  0  0  0  0  0999 V2000
  137.1400   70.5950  222.0320 O   0  0  0  0  0  0  0  0  0  0  0  0
  137.8740   71.3250  222.7480 C   0  0  0  0  0  0  0  0  0  0  0  0
  137.7710   72.7360  222.5070 N   0  0  0  0  0  0  0  0  0  0  0  0
  136.8370   73.1410  221.4750 C   0  0  0  0  0  0  0  0  0  0  0  0
  136.2220   74.4250  221.8630 C   0  0  0  0  0  0  0  0  0  0  0  0
  135.0620   74.5610  222.3040 O   0  0  0  0  0  0  0  0  0  0  0  0
  137.0100   75.6250  221.7280 N   0  0  0  0  0  0  0  0  0  0  0  0
  137.0080   76.5600  220.6150 C   0  0  0  0  0  0  0  0  0  0  0  0
  136.7980   77.8480  221.3880 C   0  0  0  0  0  0  0  0  0  0  0  0
  137.7470   77.6480  222.5610 C   0  0  0  0  0  0  0  0  0  0  0  0
  137.9800   76.1540  222.6870 C   0  0  2  0  0  0  0  0  0  0  0  0
  139.3430   75.7960  222.2300 C   0  0  0  0  0  0  0  0  0  0  0  0
  140.4330   76.5950  221.9720 C   0  0  0  0  0  0  0  0  0  0  0  0
  141.4500   75.7850  221.5790 N   0  0  0  0  0  0  0  0  0  0  0  0
  140.9910   74.5060  221.5960 C   0  0  0  0  0  0  0  0  0  0  0  0
  139.7090   74.5120  221.9920 N   0  0  0  0  0  0  0  0  0  0  0  0
  138.7730   70.7830  223.7570 C   0  0  0  0  0  0  0  0  0  0  0  0
  139.8670   71.5310  224.1090 C   0  0  0  0  0  0  0  0  0  0  0  0
  140.7560   71.0650  225.0610 C   0  0  0  0  0  0  0  0  0  0  0  0
  140.5250   69.8370  225.6510 C   0  0  0  0  0  0  0  0  0  0  0  0
  141.4190   69.3860  226.5990 C   0  0  0  0  0  0  0  0  0  0  0  0
  141.2060   68.1540  227.2050 C   0  0  0  0  0  0  0  0  0  0  0  0
  140.0970   67.4290  226.8290 C   0  0  0  0  0  0  0  0  0  0  0  0
  139.1930   67.8810  225.8730 C   0  0  0  0  0  0  0  0  0  0  0  0
  139.4150   69.1010  225.2810 C   0  0  0  0  0  0  0  0  0  0  0  0
  138.5980   69.6020  224.3590 N   0  0  0  0  0  0  0  0  0  0  0  0
  138.3470   73.4060  223.0620 H   0  0  0  0  0  0  0  0  0  0  0  0
  137.3706   73.2608  220.5206 H   0  0  0  0  0  0  0  0  0  0  0  0
  136.0566   72.3748  221.3576 H   0  0  0  0  0  0  0  0  0  0  0  0
  137.9643   76.5563  220.0715 H   0  0  0  0  0  0  0  0  0  0  0  0
  136.2688   76.3555  219.8265 H   0  0  0  0  0  0  0  0  0  0  0  0
  137.0773   78.7274  220.7892 H   0  0  0  0  0  0  0  0  0  0  0  0
  135.7537   78.0342  221.6793 H   0  0  0  0  0  0  0  0  0  0  0  0
  138.6990   78.1649  222.3702 H   0  0  0  0  0  0  0  0  0  0  0  0
  137.3213   78.0605  223.4877 H   0  0  0  0  0  0  0  0  0  0  0  0
  137.8783   75.7791  223.7161 H   0  0  0  0  0  0  0  0  0  0  0  0
  140.4734   77.6902  222.0667 H   0  0  0  0  0  0  0  0  0  0  0  0
  142.4090   76.1010  221.3130 H   0  0  0  0  0  0  0  0  0  0  0  0
  141.5746   73.6126  221.3290 H   0  0  0  0  0  0  0  0  0  0  0  0
  140.0387   72.5071  223.6317 H   0  0  0  0  0  0  0  0  0  0  0  0
  141.6343   71.6635  225.3443 H   0  0  0  0  0  0  0  0  0  0  0  0
  142.2926   69.9958  226.8729 H   0  0  0  0  0  0  0  0  0  0  0  0
  141.9032   67.7686  227.9635 H   0  0  0  0  0  0  0  0  0  0  0  0
  139.9188   66.4529  227.3039 H   0  0  0  0  0  0  0  0  0  0  0  0
  138.3182   67.2740  225.5966 H   0  0  0  0  0  0  0  0  0  0  0  0
  1  2  2  0
  2  3  1  0
  3  4  1  0
  4  5  1  0
  5  6  2  0
  5  7  1  0
  7  8  1  0
  8  9  1  0
  9 10  1  0
 10 11  1  0
 11 12  1  0
 12 13  2  0
 13 14  1  0
 14 15  1  0
 15 16  2  0
  2 17  1  0
 17 18  2  0
 18 19  1  0
 19 20  2  0
 20 21  1  0
 21 22  2  0
 22 23  1  0
 23 24  2  0
 24 25  1  0
 25 26  2  0
 11  7  1  0
 16 12  1  0
 26 17  1  0
 25 20  1  0
  3 27  1  0
  4 28  1  0
  4 29  1  0
  8 30  1  0
  8 31  1  0
  9 32  1  0
  9 33  1  0
 10 34  1  0
 10 35  1  0
 11 36  1  1
 13 37  1  0
 14 38  1  0
 15 39  1  0
 18 40  1  0
 19 41  1  0
 21 42  1  0
 22 43  1  0
 23 44  1  0
 24 45  1  0
M  END
>  <smiles>  (14) 
O=C(NCC(=O)N1CCC[C@@H]1c1c[nH]cn1)c1ccc2ccccc2n1

>  <score_type>  (14) 
oracle

>  <origin>  (14) 
autodockgpu

>  <m_score__min__energy>  (14) 
-8.2300000000000004

>  <m_primary>  (14) 
energy

>  <rmsd>  (14) 
3.7584147058878528

>  <m_score__min__rmsd>  (14) 
3.7584147058878528

>  <meeko>  (14) 
{"free_energy": -6.77, "intermolecular_energy": -8.27, "internal_energy": -1.94, "cluster_size": 2, "cluster_id": 7, "rank_in_cluster": 2}

>  <energy>  (14) 
-7.75

>  <cluster_rmsd>  (14) 
1.02

>  <cluster>  (14) 
1

$$$$

     RDKit          3D

 45 48  0  0  0  0  0  0  0  0999 V2000
  140.4110   71.6230  221.2970 O   0  0  0  0  0  0  0  0  0  0  0  0
  140.1060   72.1510  222.3980 C   0  0  0  0  0  0  0  0  0  0  0  0
  139.7720   73.5450  222.3480 N   0  0  0  0  0  0  0  0  0  0  0  0
  139.8250   74.1680  221.0400 C   0  0  0  0  0  0  0  0  0  0  0  0
  140.7120   75.3450  221.1070 C   0  0  0  0  0  0  0  0  0  0  0  0
  141.9480   75.3240  220.9350 O   0  0  0  0  0  0  0  0  0  0  0  0
  140.1180   76.6280  221.3930 N   0  0  0  0  0  0  0  0  0  0  0  0
  139.4820   77.5350  220.4510 C   0  0  0  0  0  0  0  0  0  0  0  0
  138.1760   77.7610  221.1870 C   0  0  0  0  0  0  0  0  0  0  0  0
  138.6660   77.9420  222.6160 C   0  0  0  0  0  0  0  0  0  0  0  0
  140.0340   77.2880  222.6950 C   0  0  2  0  0  0  0  0  0  0  0  0
  141.1000   78.3130  222.7800 C   0  0  0  0  0  0  0  0  0  0  0  0
  142.0900   78.6430  221.8840 C   0  0  0  0  0  0  0  0  0  0  0  0
  142.8160   79.6530  222.4300 N   0  0  0  0  0  0  0  0  0  0  0  0
  142.2790   79.9390  223.6460 C   0  0  0  0  0  0  0  0  0  0  0  0
  141.2350   79.1240  223.8600 N   0  0  0  0  0  0  0  0  0  0  0  0
  140.0930   71.4030  223.6470 C   0  0  0  0  0  0  0  0  0  0  0  0
  139.5700   70.1340  223.6300 C   0  0  0  0  0  0  0  0  0  0  0  0
  139.5310   69.3790  224.7870 C   0  0  0  0  0  0  0  0  0  0  0  0
  140.0240   69.9180  225.9590 C   0  0  0  0  0  0  0  0  0  0  0  0
  139.9790   69.1530  227.1050 C   0  0  0  0  0  0  0  0  0  0  0  0
  140.4700   69.6770  228.2950 C   0  0  0  0  0  0  0  0  0  0  0  0
  140.9880   70.9520  228.2780 C   0  0  0  0  0  0  0  0  0  0  0  0
  141.0350   71.7280  227.1230 C   0  0  0  0  0  0  0  0  0  0  0  0
  140.5470   71.1990  225.9530 C   0  0  0  0  0  0  0  0  0  0  0  0
  140.5560   71.8760  224.8090 N   0  0  0  0  0  0  0  0  0  0  0  0
  139.5080   74.0530  223.2210 H   0  0  0  0  0  0  0  0  0  0  0  0
  140.2184   73.4505  220.3049 H   0  0  0  0  0  0  0  0  0  0  0  0
  138.8152   74.4792  220.7342 H   0  0  0  0  0  0  0  0  0  0  0  0
  140.0523   78.4673  220.3265 H   0  0  0  0  0  0  0  0  0  0  0  0
  139.3868   77.1587  219.4217 H   0  0  0  0  0  0  0  0  0  0  0  0
  137.6585   78.6604  220.8219 H   0  0  0  0  0  0  0  0  0  0  0  0
  137.4425   76.9509  221.0617 H   0  0  0  0  0  0  0  0  0  0  0  0
  138.7431   79.0124  222.8575 H   0  0  0  0  0  0  0  0  0  0  0  0
  137.9680   77.4867  223.3340 H   0  0  0  0  0  0  0  0  0  0  0  0
  140.1559   76.6274  223.5661 H   0  0  0  0  0  0  0  0  0  0  0  0
  142.2624   78.1744  220.9039 H   0  0  0  0  0  0  0  0  0  0  0  0
  143.6390   80.1180  221.9850 H   0  0  0  0  0  0  0  0  0  0  0  0
  142.6411   80.7116  224.3402 H   0  0  0  0  0  0  0  0  0  0  0  0
  139.1798   69.7157  222.6904 H   0  0  0  0  0  0  0  0  0  0  0  0
  139.1126   68.3617  224.7745 H   0  0  0  0  0  0  0  0  0  0  0  0
  139.5583   68.1370  227.0778 H   0  0  0  0  0  0  0  0  0  0  0  0
  140.4453   69.0891  229.2244 H   0  0  0  0  0  0  0  0  0  0  0  0
  141.3806   71.3749  229.2145 H   0  0  0  0  0  0  0  0  0  0  0  0
  141.4546   72.7445  227.1469 H   0  0  0  0  0  0  0  0  0  0  0  0
  1  2  2  0
  2  3  1  0
  3  4  1  0
  4  5  1  0
  5  6  2  0
  5  7  1  0
  7  8  1  0
  8  9  1  0
  9 10  1  0
 10 11  1  0
 11 12  1  0
 12 13  2  0
 13 14  1  0
 14 15  1  0
 15 16  2  0
  2 17  1  0
 17 18  2  0
 18 19  1  0
 19 20  2  0
 20 21  1  0
 21 22  2  0
 22 23  1  0
 23 24  2  0
 24 25  1  0
 25 26  2  0
 11  7  1  0
 16 12  1  0
 26 17  1  0
 25 20  1  0
  3 27  1  0
  4 28  1  0
  4 29  1  0
  8 30  1  0
  8 31  1  0
  9 32  1  0
  9 33  1  0
 10 34  1  0
 10 35  1  0
 11 36  1  1
 13 37  1  0
 14 38  1  0
 15 39  1  0
 18 40  1  0
 19 41  1  0
 21 42  1  0
 22 43  1  0
 23 44  1  0
 24 45  1  0
M  END
>  <smiles>  (15) 
O=C(NCC(=O)N1CCC[C@@H]1c1c[nH]cn1)c1ccc2ccccc2n1

>  <score_type>  (15) 
oracle

>  <origin>  (15) 
autodockgpu

>  <m_score__min__energy>  (15) 
-8.2300000000000004

>  <m_primary>  (15) 
energy

>  <rmsd>  (15) 
2.6072459703164372

>  <m_score__min__rmsd>  (15) 
2.6072459703164372

>  <meeko>  (15) 
{"free_energy": -7.98, "intermolecular_energy": -9.48, "internal_energy": -1.09, "cluster_size": 12, "cluster_id": 2, "rank_in_cluster": 3}

>  <energy>  (15) 
-7.66

>  <cluster_rmsd>  (15) 
0.79

>  <cluster>  (15) 
1

$$$$

     RDKit          3D

 45 48  0  0  0  0  0  0  0  0999 V2000
  141.2880   72.0370  221.6300 O   0  0  0  0  0  0  0  0  0  0  0  0
  140.3780   72.2630  222.4690 C   0  0  0  0  0  0  0  0  0  0  0  0
  139.4840   73.3370  222.1450 N   0  0  0  0  0  0  0  0  0  0  0  0
  139.7400   74.0240  220.8940 C   0  0  0  0  0  0  0  0  0  0  0  0
  140.8990   74.9220  221.0700 C   0  0  0  0  0  0  0  0  0  0  0  0
  141.1460   75.5810  222.1010 O   0  0  0  0  0  0  0  0  0  0  0  0
  141.8260   75.0580  219.9740 N   0  0  0  0  0  0  0  0  0  0  0  0
  141.5740   74.7890  218.5680 C   0  0  0  0  0  0  0  0  0  0  0  0
  142.0680   76.0990  217.9850 C   0  0  0  0  0  0  0  0  0  0  0  0
  143.3500   76.3130  218.7770 C   0  0  0  0  0  0  0  0  0  0  0  0
  143.2190   75.4970  220.0500 C   0  0  2  0  0  0  0  0  0  0  0  0
  144.0970   74.3040  219.9990 C   0  0  0  0  0  0  0  0  0  0  0  0
  144.7140   73.6100  221.0140 C   0  0  0  0  0  0  0  0  0  0  0  0
  145.4100   72.5910  220.4480 N   0  0  0  0  0  0  0  0  0  0  0  0
  145.2240   72.6580  219.1030 C   0  0  0  0  0  0  0  0  0  0  0  0
  144.4250   73.7000  218.8290 N   0  0  0  0  0  0  0  0  0  0  0  0
  140.2340   71.4900  223.6950 C   0  0  0  0  0  0  0  0  0  0  0  0
  139.5820   70.2840  223.6200 C   0  0  0  0  0  0  0  0  0  0  0  0
  139.4160   69.5080  224.7520 C   0  0  0  0  0  0  0  0  0  0  0  0
  139.9140   69.9620  225.9580 C   0  0  0  0  0  0  0  0  0  0  0  0
  139.7410   69.1770  227.0780 C   0  0  0  0  0  0  0  0  0  0  0  0
  140.2350   69.6160  228.3000 C   0  0  0  0  0  0  0  0  0  0  0  0
  140.8840   70.8300  228.3410 C   0  0  0  0  0  0  0  0  0  0  0  0
  141.0610   71.6250  227.2120 C   0  0  0  0  0  0  0  0  0  0  0  0
  140.5680   71.1800  226.0090 C   0  0  0  0  0  0  0  0  0  0  0  0
  140.6960   71.8820  224.8870 N   0  0  0  0  0  0  0  0  0  0  0  0
  138.7040   73.5840  222.7920 H   0  0  0  0  0  0  0  0  0  0  0  0
  139.9595   73.2879  220.1066 H   0  0  0  0  0  0  0  0  0  0  0  0
  138.8556   74.6096  220.6026 H   0  0  0  0  0  0  0  0  0  0  0  0
  142.1545   73.9294  218.2018 H   0  0  0  0  0  0  0  0  0  0  0  0
  140.5379   74.5192  218.3157 H   0  0  0  0  0  0  0  0  0  0  0  0
  142.2705   76.0094  216.9075 H   0  0  0  0  0  0  0  0  0  0  0  0
  141.3474   76.9266  218.0619 H   0  0  0  0  0  0  0  0  0  0  0  0
  144.2173   75.9693  218.1942 H   0  0  0  0  0  0  0  0  0  0  0  0
  143.5008   77.3786  219.0044 H   0  0  0  0  0  0  0  0  0  0  0  0
  143.4880   76.0547  220.9592 H   0  0  0  0  0  0  0  0  0  0  0  0
  144.6543   73.8390  222.0883 H   0  0  0  0  0  0  0  0  0  0  0  0
  145.9840   71.8880  220.9650 H   0  0  0  0  0  0  0  0  0  0  0  0
  145.6574   71.9708  218.3614 H   0  0  0  0  0  0  0  0  0  0  0  0
  139.1896   69.9334  222.6540 H   0  0  0  0  0  0  0  0  0  0  0  0
  138.8941   68.5415  224.6932 H   0  0  0  0  0  0  0  0  0  0  0  0
  139.2170   68.2126  227.0048 H   0  0  0  0  0  0  0  0  0  0  0  0
  140.1112   69.0105  229.2100 H   0  0  0  0  0  0  0  0  0  0  0  0
  141.2783   71.1857  229.3044 H   0  0  0  0  0  0  0  0  0  0  0  0
  141.5849   72.5898  227.2815 H   0  0  0  0  0  0  0  0  0  0  0  0
  1  2  2  0
  2  3  1  0
  3  4  1  0
  4  5  1  0
  5  6  2  0
  5  7  1  0
  7  8  1  0
  8  9  1  0
  9 10  1  0
 10 11  1  0
 11 12  1  0
 12 13  2  0
 13 14  1  0
 14 15  1  0
 15 16  2  0
  2 17  1  0
 17 18  2  0
 18 19  1  0
 19 20  2  0
 20 21  1  0
 21 22  2  0
 22 23  1  0
 23 24  2  0
 24 25  1  0
 25 26  2  0
 11  7  1  0
 16 12  1  0
 26 17  1  0
 25 20  1  0
  3 27  1  0
  4 28  1  0
  4 29  1  0
  8 30  1  0
  8 31  1  0
  9 32  1  0
  9 33  1  0
 10 34  1  0
 10 35  1  0
 11 36  1  1
 13 37  1  0
 14 38  1  0
 15 39  1  0
 18 40  1  0
 19 41  1  0
 21 42  1  0
 22 43  1  0
 23 44  1  0
 24 45  1  0
M  END
>  <smiles>  (16) 
O=C(NCC(=O)N1CCC[C@@H]1c1c[nH]cn1)c1ccc2ccccc2n1

>  <score_type>  (16) 
oracle

>  <origin>  (16) 
autodockgpu

>  <m_score__min__energy>  (16) 
-8.2300000000000004

>  <m_primary>  (16) 
energy

>  <rmsd>  (16) 
2.9780300661535244

>  <m_score__min__rmsd>  (16) 
2.9780300661535244

>  <meeko>  (16) 
{"free_energy": -8.01, "intermolecular_energy": -9.5, "internal_energy": -1.3, "cluster_size": 21, "cluster_id": 1, "rank_in_cluster": 3}

>  <energy>  (16) 
-7.6

>  <cluster_rmsd>  (16) 
1.33

>  <cluster>  (16) 
1

$$$$

     RDKit          3D

 45 48  0  0  0  0  0  0  0  0999 V2000
  141.1890   72.5550  221.9120 O   0  0  0  0  0  0  0  0  0  0  0  0
  140.1810   72.4900  222.6640 C   0  0  0  0  0  0  0  0  0  0  0  0
  139.1130   73.3960  222.3510 N   0  0  0  0  0  0  0  0  0  0  0  0
  139.3280   74.2670  221.2130 C   0  0  0  0  0  0  0  0  0  0  0  0
  140.2400   75.3570  221.6100 C   0  0  0  0  0  0  0  0  0  0  0  0
  141.4250   75.2050  221.9720 O   0  0  0  0  0  0  0  0  0  0  0  0
  139.7380   76.7090  221.5840 N   0  0  0  0  0  0  0  0  0  0  0  0
  139.2750   77.4550  220.4250 C   0  0  0  0  0  0  0  0  0  0  0  0
  137.9310   77.9100  220.9590 C   0  0  0  0  0  0  0  0  0  0  0  0
  138.3000   78.3330  222.3730 C   0  0  0  0  0  0  0  0  0  0  0  0
  139.5910   77.6150  222.7220 C   0  0  2  0  0  0  0  0  0  0  0  0
  140.7310   78.5610  222.7280 C   0  0  0  0  0  0  0  0  0  0  0  0
  141.8610   78.5970  221.9450 C   0  0  0  0  0  0  0  0  0  0  0  0
  142.6010   79.6640  222.3440 N   0  0  0  0  0  0  0  0  0  0  0  0
  141.9350   80.2750  223.3590 C   0  0  0  0  0  0  0  0  0  0  0  0
  140.7970   79.6040  223.5940 N   0  0  0  0  0  0  0  0  0  0  0  0
  140.0960   71.5600  223.7810 C   0  0  0  0  0  0  0  0  0  0  0  0
  139.4540   70.3660  223.5730 C   0  0  0  0  0  0  0  0  0  0  0  0
  139.3420   69.4450  224.5990 C   0  0  0  0  0  0  0  0  0  0  0  0
  139.8860   69.7440  225.8330 C   0  0  0  0  0  0  0  0  0  0  0  0
  139.7670   68.8160  226.8460 C   0  0  0  0  0  0  0  0  0  0  0  0
  140.3070   69.0980  228.0950 C   0  0  0  0  0  0  0  0  0  0  0  0
  140.9460   70.3050  228.2690 C   0  0  0  0  0  0  0  0  0  0  0  0
  141.0670   71.2440  227.2490 C   0  0  0  0  0  0  0  0  0  0  0  0
  140.5300   70.9540  226.0190 C   0  0  0  0  0  0  0  0  0  0  0  0
  140.6030   71.7990  224.9950 N   0  0  0  0  0  0  0  0  0  0  0  0
  138.2440   73.4010  222.9290 H   0  0  0  0  0  0  0  0  0  0  0  0
  139.7757   73.6931  220.3883 H   0  0  0  0  0  0  0  0  0  0  0  0
  138.3679   74.6877  220.8794 H   0  0  0  0  0  0  0  0  0  0  0  0
  139.9344   78.3035  220.1900 H   0  0  0  0  0  0  0  0  0  0  0  0
  139.2433   76.8915  219.4808 H   0  0  0  0  0  0  0  0  0  0  0  0
  137.5314   78.7539  220.3775 H   0  0  0  0  0  0  0  0  0  0  0  0
  137.1434   77.1437  220.9090 H   0  0  0  0  0  0  0  0  0  0  0  0
  138.4487   79.4221  222.4160 H   0  0  0  0  0  0  0  0  0  0  0  0
  137.5006   78.0759  223.0835 H   0  0  0  0  0  0  0  0  0  0  0  0
  139.5718   77.1312  223.7097 H   0  0  0  0  0  0  0  0  0  0  0  0
  142.1186   77.8906  221.1421 H   0  0  0  0  0  0  0  0  0  0  0  0
  143.5180   79.9530  221.9350 H   0  0  0  0  0  0  0  0  0  0  0  0
  142.2731   81.1718  223.8989 H   0  0  0  0  0  0  0  0  0  0  0  0
  139.0260   70.1396  222.5853 H   0  0  0  0  0  0  0  0  0  0  0  0
  138.8266   68.4873  224.4344 H   0  0  0  0  0  0  0  0  0  0  0  0
  139.2497   67.8619  226.6672 H   0  0  0  0  0  0  0  0  0  0  0  0
  140.2262   68.3769  228.9217 H   0  0  0  0  0  0  0  0  0  0  0  0
  141.3782   70.5364  229.2537 H   0  0  0  0  0  0  0  0  0  0  0  0
  141.5827   72.1996  227.4247 H   0  0  0  0  0  0  0  0  0  0  0  0
  1  2  2  0
  2  3  1  0
  3  4  1  0
  4  5  1  0
  5  6  2  0
  5  7  1  0
  7  8  1  0
  8  9  1  0
  9 10  1  0
 10 11  1  0
 11 12  1  0
 12 13  2  0
 13 14  1  0
 14 15  1  0
 15 16  2  0
  2 17  1  0
 17 18  2  0
 18 19  1  0
 19 20  2  0
 20 21  1  0
 21 22  2  0
 22 23  1  0
 23 24  2  0
 24 25  1  0
 25 26  2  0
 11  7  1  0
 16 12  1  0
 26 17  1  0
 25 20  1  0
  3 27  1  0
  4 28  1  0
  4 29  1  0
  8 30  1  0
  8 31  1  0
  9 32  1  0
  9 33  1  0
 10 34  1  0
 10 35  1  0
 11 36  1  1
 13 37  1  0
 14 38  1  0
 15 39  1  0
 18 40  1  0
 19 41  1  0
 21 42  1  0
 22 43  1  0
 23 44  1  0
 24 45  1  0
M  END
>  <smiles>  (17) 
O=C(NCC(=O)N1CCC[C@@H]1c1c[nH]cn1)c1ccc2ccccc2n1

>  <score_type>  (17) 
oracle

>  <origin>  (17) 
autodockgpu

>  <m_score__min__energy>  (17) 
-8.2300000000000004

>  <m_primary>  (17) 
energy

>  <rmsd>  (17) 
2.59135081509871

>  <m_score__min__rmsd>  (17) 
2.59135081509871

>  <meeko>  (17) 
{"free_energy": -8.19, "intermolecular_energy": -9.69, "internal_energy": -0.97, "cluster_size": 12, "cluster_id": 2, "rank_in_cluster": 2}

>  <energy>  (17) 
-7.59

>  <cluster_rmsd>  (17) 
0.98

>  <cluster>  (17) 
1

$$$$

     RDKit          3D

 45 48  0  0  0  0  0  0  0  0999 V2000
  139.3530   74.6990  222.3130 O   0  0  0  0  0  0  0  0  0  0  0  0
  140.3220   75.4450  222.0120 C   0  0  0  0  0  0  0  0  0  0  0  0
  141.4190   74.8020  221.3470 N   0  0  0  0  0  0  0  0  0  0  0  0
  141.2730   73.3800  221.1040 C   0  0  0  0  0  0  0  0  0  0  0  0
  141.7670   73.0740  219.7480 C   0  0  0  0  0  0  0  0  0  0  0  0
  141.1850   72.3420  218.9210 O   0  0  0  0  0  0  0  0  0  0  0  0
  143.0180   73.6570  219.3310 N   0  0  0  0  0  0  0  0  0  0  0  0
  144.2150   73.8440  220.1350 C   0  0  0  0  0  0  0  0  0  0  0  0
  145.2260   73.2000  219.2050 C   0  0  0  0  0  0  0  0  0  0  0  0
  144.7940   73.7630  217.8590 C   0  0  0  0  0  0  0  0  0  0  0  0
  143.3440   74.1870  218.0070 C   0  0  2  0  0  0  0  0  0  0  0  0
  143.2320   75.6640  218.0440 C   0  0  0  0  0  0  0  0  0  0  0  0
  143.5870   76.6070  217.1080 C   0  0  0  0  0  0  0  0  0  0  0  0
  143.2800   77.8270  217.6190 N   0  0  0  0  0  0  0  0  0  0  0  0
  142.7440   77.6370  218.8540 C   0  0  0  0  0  0  0  0  0  0  0  0
  142.7140   76.3200  219.1130 N   0  0  0  0  0  0  0  0  0  0  0  0
  140.3380   76.8680  222.3170 C   0  0  0  0  0  0  0  0  0  0  0  0
  139.1370   77.5290  222.3610 C   0  0  0  0  0  0  0  0  0  0  0  0
  139.0920   78.8810  222.6440 C   0  0  0  0  0  0  0  0  0  0  0  0
  140.2730   79.5570  222.8840 C   0  0  0  0  0  0  0  0  0  0  0  0
  140.2130   80.9050  223.1660 C   0  0  0  0  0  0  0  0  0  0  0  0
  141.3890   81.6030  223.4100 C   0  0  0  0  0  0  0  0  0  0  0  0
  142.5780   80.9110  223.3590 C   0  0  0  0  0  0  0  0  0  0  0  0
  142.6430   79.5500  223.0750 C   0  0  0  0  0  0  0  0  0  0  0  0
  141.4730   78.8710  222.8360 C   0  0  0  0  0  0  0  0  0  0  0  0
  141.4510   77.5710  222.5560 N   0  0  0  0  0  0  0  0  0  0  0  0
  142.2580   75.3540  221.0660 H   0  0  0  0  0  0  0  0  0  0  0  0
  141.8578   72.8166  221.8460 H   0  0  0  0  0  0  0  0  0  0  0  0
  140.2141   73.0942  221.1883 H   0  0  0  0  0  0  0  0  0  0  0  0
  144.4333   74.9080  220.3090 H   0  0  0  0  0  0  0  0  0  0  0  0
  144.1730   73.4262  221.1517 H   0  0  0  0  0  0  0  0  0  0  0  0
  146.2536   73.5014  219.4565 H   0  0  0  0  0  0  0  0  0  0  0  0
  145.2426   72.1010  219.2492 H   0  0  0  0  0  0  0  0  0  0  0  0
  145.4170   74.6298  217.5933 H   0  0  0  0  0  0  0  0  0  0  0  0
  144.9070   73.0129  217.0624 H   0  0  0  0  0  0  0  0  0  0  0  0
  142.6979   73.8376  217.1881 H   0  0  0  0  0  0  0  0  0  0  0  0
  144.0377   76.4090  216.1243 H   0  0  0  0  0  0  0  0  0  0  0  0
  143.4340   78.7420  217.1400 H   0  0  0  0  0  0  0  0  0  0  0  0
  142.3929   78.4311  219.5294 H   0  0  0  0  0  0  0  0  0  0  0  0
  138.2035   76.9794  222.1698 H   0  0  0  0  0  0  0  0  0  0  0  0
  138.1291   79.4117  222.6777 H   0  0  0  0  0  0  0  0  0  0  0  0
  139.2431   81.4230  223.1975 H   0  0  0  0  0  0  0  0  0  0  0  0
  141.3707   82.6790  223.6377 H   0  0  0  0  0  0  0  0  0  0  0  0
  143.5144   81.4556  223.5504 H   0  0  0  0  0  0  0  0  0  0  0  0
  143.6112   79.0289  223.0426 H   0  0  0  0  0  0  0  0  0  0  0  0
  1  2  2  0
  2  3  1  0
  3  4  1  0
  4  5  1  0
  5  6  2  0
  5  7  1  0
  7  8  1  0
  8  9  1  0
  9 10  1  0
 10 11  1  0
 11 12  1  0
 12 13  2  0
 13 14  1  0
 14 15  1  0
 15 16  2  0
  2 17  1  0
 17 18  2  0
 18 19  1  0
 19 20  2  0
 20 21  1  0
 21 22  2  0
 22 23  1  0
 23 24  2  0
 24 25  1  0
 25 26  2  0
 11  7  1  0
 16 12  1  0
 26 17  1  0
 25 20  1  0
  3 27  1  0
  4 28  1  0
  4 29  1  0
  8 30  1  0
  8 31  1  0
  9 32  1  0
  9 33  1  0
 10 34  1  0
 10 35  1  0
 11 36  1  6
 13 37  1  0
 14 38  1  0
 15 39  1  0
 18 40  1  0
 19 41  1  0
 21 42  1  0
 22 43  1  0
 23 44  1  0
 24 45  1  0
M  END
>  <smiles>  (18) 
O=C(NCC(=O)N1CCC[C@@H]1c1c[nH]cn1)c1ccc2ccccc2n1

>  <score_type>  (18) 
oracle

>  <origin>  (18) 
autodockgpu

>  <m_score__min__energy>  (18) 
-8.2300000000000004

>  <m_primary>  (18) 
energy

>  <rmsd>  (18) 
7.458632169790241

>  <m_score__min__rmsd>  (18) 
7.458632169790241

>  <meeko>  (18) 
{"free_energy": -6.36, "intermolecular_energy": -7.85, "internal_energy": -2.24, "cluster_size": 4, "cluster_id": 8, "rank_in_cluster": 4}

>  <energy>  (18) 
-7.57

>  <cluster_rmsd>  (18) 
0.75

>  <cluster>  (18) 
1

$$$$

     RDKit          3D

 45 48  0  0  0  0  0  0  0  0999 V2000
  140.7840   71.8240  221.4550 O   0  0  0  0  0  0  0  0  0  0  0  0
  140.1180   72.1870  222.4610 C   0  0  0  0  0  0  0  0  0  0  0  0
  139.3690   73.4010  222.3050 N   0  0  0  0  0  0  0  0  0  0  0  0
  139.4710   74.0530  221.0150 C   0  0  0  0  0  0  0  0  0  0  0  0
  140.5810   75.0250  221.0560 C   0  0  0  0  0  0  0  0  0  0  0  0
  140.6960   75.9480  221.8880 O   0  0  0  0  0  0  0  0  0  0  0  0
  141.6200   74.9130  220.0630 N   0  0  0  0  0  0  0  0  0  0  0  0
  141.4960   74.3930  218.7110 C   0  0  0  0  0  0  0  0  0  0  0  0
  142.1260   75.5470  217.9560 C   0  0  0  0  0  0  0  0  0  0  0  0
  143.3320   75.8540  218.8320 C   0  0  0  0  0  0  0  0  0  0  0  0
  143.0230   75.2990  220.2110 C   0  0  2  0  0  0  0  0  0  0  0  0
  143.8260   74.0840  220.4780 C   0  0  0  0  0  0  0  0  0  0  0  0
  145.1420   73.9520  220.8590 C   0  0  0  0  0  0  0  0  0  0  0  0
  145.4030   72.6250  220.9740 N   0  0  0  0  0  0  0  0  0  0  0  0
  144.2640   71.9490  220.6690 C   0  0  0  0  0  0  0  0  0  0  0  0
  143.3040   72.8360  220.3660 N   0  0  0  0  0  0  0  0  0  0  0  0
  140.1050   71.4320  223.7050 C   0  0  0  0  0  0  0  0  0  0  0  0
  139.5760   70.1660  223.6820 C   0  0  0  0  0  0  0  0  0  0  0  0
  139.5360   69.4040  224.8340 C   0  0  0  0  0  0  0  0  0  0  0  0
  140.0370   69.9330  226.0080 C   0  0  0  0  0  0  0  0  0  0  0  0
  139.9910   69.1610  227.1490 C   0  0  0  0  0  0  0  0  0  0  0  0
  140.4890   69.6750  228.3400 C   0  0  0  0  0  0  0  0  0  0  0  0
  141.0140   70.9480  228.3290 C   0  0  0  0  0  0  0  0  0  0  0  0
  141.0610   71.7300  227.1800 C   0  0  0  0  0  0  0  0  0  0  0  0
  140.5660   71.2110  226.0080 C   0  0  0  0  0  0  0  0  0  0  0  0
  140.5750   71.8960  224.8680 N   0  0  0  0  0  0  0  0  0  0  0  0
  138.7930   73.7660  223.0950 H   0  0  0  0  0  0  0  0  0  0  0  0
  139.6671   73.3015  220.2361 H   0  0  0  0  0  0  0  0  0  0  0  0
  138.5292   74.5728  220.7851 H   0  0  0  0  0  0  0  0  0  0  0  0
  142.0568   73.4563  218.5760 H   0  0  0  0  0  0  0  0  0  0  0  0
  140.4763   74.1233  218.3989 H   0  0  0  0  0  0  0  0  0  0  0  0
  142.4305   75.2467  216.9426 H   0  0  0  0  0  0  0  0  0  0  0  0
  141.4535   76.4033  217.7993 H   0  0  0  0  0  0  0  0  0  0  0  0
  144.2311   75.3710  218.4218 H   0  0  0  0  0  0  0  0  0  0  0  0
  143.5240   76.9362  218.8753 H   0  0  0  0  0  0  0  0  0  0  0  0
  143.2329   76.0064  221.0268 H   0  0  0  0  0  0  0  0  0  0  0  0
  145.8527   74.7724  221.0377 H   0  0  0  0  0  0  0  0  0  0  0  0
  146.3210   72.2090  221.2500 H   0  0  0  0  0  0  0  0  0  0  0  0
  144.1483   70.8551  220.6704 H   0  0  0  0  0  0  0  0  0  0  0  0
  139.1815   69.7553  222.7409 H   0  0  0  0  0  0  0  0  0  0  0  0
  139.1109   68.3896  224.8167 H   0  0  0  0  0  0  0  0  0  0  0  0
  139.5641   68.1477  227.1170 H   0  0  0  0  0  0  0  0  0  0  0  0
  140.4645   69.0816  229.2659 H   0  0  0  0  0  0  0  0  0  0  0  0
  141.4122   71.3630  229.2667 H   0  0  0  0  0  0  0  0  0  0  0  0
  141.4861   72.7441  227.2088 H   0  0  0  0  0  0  0  0  0  0  0  0
  1  2  2  0
  2  3  1  0
  3  4  1  0
  4  5  1  0
  5  6  2  0
  5  7  1  0
  7  8  1  0
  8  9  1  0
  9 10  1  0
 10 11  1  0
 11 12  1  0
 12 13  2  0
 13 14  1  0
 14 15  1  0
 15 16  2  0
  2 17  1  0
 17 18  2  0
 18 19  1  0
 19 20  2  0
 20 21  1  0
 21 22  2  0
 22 23  1  0
 23 24  2  0
 24 25  1  0
 25 26  2  0
 11  7  1  0
 16 12  1  0
 26 17  1  0
 25 20  1  0
  3 27  1  0
  4 28  1  0
  4 29  1  0
  8 30  1  0
  8 31  1  0
  9 32  1  0
  9 33  1  0
 10 34  1  0
 10 35  1  0
 11 36  1  1
 13 37  1  0
 14 38  1  0
 15 39  1  0
 18 40  1  0
 19 41  1  0
 21 42  1  0
 22 43  1  0
 23 44  1  0
 24 45  1  0
M  END
>  <smiles>  (19) 
O=C(NCC(=O)N1CCC[C@@H]1c1c[nH]cn1)c1ccc2ccccc2n1

>  <score_type>  (19) 
oracle

>  <origin>  (19) 
autodockgpu

>  <m_score__min__energy>  (19) 
-8.2300000000000004

>  <m_primary>  (19) 
energy

>  <rmsd>  (19) 
2.8714330616611488

>  <m_score__min__rmsd>  (19) 
2.8714330616611488

>  <meeko>  (19) 
{"free_energy": -7.94, "intermolecular_energy": -9.43, "internal_energy": -1.4, "cluster_size": 21, "cluster_id": 1, "rank_in_cluster": 10}

>  <energy>  (19) 
-7.48

>  <cluster_rmsd>  (19) 
1.31

>  <cluster>  (19) 
1

$$$$

     RDKit          3D

 45 48  0  0  0  0  0  0  0  0999 V2000
  141.3910   72.3320  221.7390 O   0  0  0  0  0  0  0  0  0  0  0  0
  140.4650   72.5050  222.5750 C   0  0  0  0  0  0  0  0  0  0  0  0
  139.6170   73.6380  222.3390 N   0  0  0  0  0  0  0  0  0  0  0  0
  139.9300   74.4370  221.1700 C   0  0  0  0  0  0  0  0  0  0  0  0
  139.7920   75.8640  221.5160 C   0  0  0  0  0  0  0  0  0  0  0  0
  138.9020   76.3430  222.2480 O   0  0  0  0  0  0  0  0  0  0  0  0
  140.7530   76.7920  220.9720 N   0  0  0  0  0  0  0  0  0  0  0  0
  142.0670   76.4850  220.4310 C   0  0  0  0  0  0  0  0  0  0  0  0
  141.9480   77.2030  219.1010 C   0  0  0  0  0  0  0  0  0  0  0  0
  141.2920   78.5090  219.5250 C   0  0  0  0  0  0  0  0  0  0  0  0
  140.6060   78.2420  220.8530 C   0  0  2  0  0  0  0  0  0  0  0  0
  141.3440   78.8890  221.9620 C   0  0  0  0  0  0  0  0  0  0  0  0
  141.3690   78.5930  223.3050 C   0  0  0  0  0  0  0  0  0  0  0  0
  142.2030   79.4820  223.9040 N   0  0  0  0  0  0  0  0  0  0  0  0
  142.6850   80.3130  222.9420 C   0  0  0  0  0  0  0  0  0  0  0  0
  142.1620   79.9530  221.7600 N   0  0  0  0  0  0  0  0  0  0  0  0
  140.2620   71.6190  223.7130 C   0  0  0  0  0  0  0  0  0  0  0  0
  139.5800   70.4480  223.5000 C   0  0  0  0  0  0  0  0  0  0  0  0
  139.3570   69.5700  224.5440 C   0  0  0  0  0  0  0  0  0  0  0  0
  139.8310   69.8870  225.8020 C   0  0  0  0  0  0  0  0  0  0  0  0
  139.6010   69.0010  226.8330 C   0  0  0  0  0  0  0  0  0  0  0  0
  140.0690   69.3010  228.1060 C   0  0  0  0  0  0  0  0  0  0  0  0
  140.7500   70.4840  228.2860 C   0  0  0  0  0  0  0  0  0  0  0  0
  140.9840   71.3810  227.2480 C   0  0  0  0  0  0  0  0  0  0  0  0
  140.5160   71.0730  225.9940 C   0  0  0  0  0  0  0  0  0  0  0  0
  140.6980   71.8770  224.9500 N   0  0  0  0  0  0  0  0  0  0  0  0
  138.8280   73.8470  222.9880 H   0  0  0  0  0  0  0  0  0  0  0  0
  140.9621   74.2330  220.8488 H   0  0  0  0  0  0  0  0  0  0  0  0
  139.2415   74.1839  220.3503 H   0  0  0  0  0  0  0  0  0  0  0  0
  142.8757   76.8978  221.0519 H   0  0  0  0  0  0  0  0  0  0  0  0
  142.3164   75.4153  220.3711 H   0  0  0  0  0  0  0  0  0  0  0  0
  142.9350   77.3768  218.6474 H   0  0  0  0  0  0  0  0  0  0  0  0
  141.3878   76.6449  218.3363 H   0  0  0  0  0  0  0  0  0  0  0  0
  142.0529   79.2947  219.6426 H   0  0  0  0  0  0  0  0  0  0  0  0
  140.5706   78.8529  218.7692 H   0  0  0  0  0  0  0  0  0  0  0  0
  139.5720   78.6148  220.8967 H   0  0  0  0  0  0  0  0  0  0  0  0
  140.8147   77.7839  223.8030 H   0  0  0  0  0  0  0  0  0  0  0  0
  142.4270   79.5120  224.9240 H   0  0  0  0  0  0  0  0  0  0  0  0
  143.3877   81.1433  223.1057 H   0  0  0  0  0  0  0  0  0  0  0  0
  139.2087   70.2065  222.4931 H   0  0  0  0  0  0  0  0  0  0  0  0
  138.8092   68.6311  224.3752 H   0  0  0  0  0  0  0  0  0  0  0  0
  139.0522   68.0656  226.6493 H   0  0  0  0  0  0  0  0  0  0  0  0
  139.9002   68.6124  228.9471 H   0  0  0  0  0  0  0  0  0  0  0  0
  141.1242   70.7301  229.2907 H   0  0  0  0  0  0  0  0  0  0  0  0
  141.5324   72.3173  227.4282 H   0  0  0  0  0  0  0  0  0  0  0  0
  1  2  2  0
  2  3  1  0
  3  4  1  0
  4  5  1  0
  5  6  2  0
  5  7  1  0
  7  8  1  0
  8  9  1  0
  9 10  1  0
 10 11  1  0
 11 12  1  0
 12 13  2  0
 13 14  1  0
 14 15  1  0
 15 16  2  0
  2 17  1  0
 17 18  2  0
 18 19  1  0
 19 20  2  0
 20 21  1  0
 21 22  2  0
 22 23  1  0
 23 24  2  0
 24 25  1  0
 25 26  2  0
 11  7  1  0
 16 12  1  0
 26 17  1  0
 25 20  1  0
  3 27  1  0
  4 28  1  0
  4 29  1  0
  8 30  1  0
  8 31  1  0
  9 32  1  0
  9 33  1  0
 10 34  1  0
 10 35  1  0
 11 36  1  6
 13 37  1  0
 14 38  1  0
 15 39  1  0
 18 40  1  0
 19 41  1  0
 21 42  1  0
 22 43  1  0
 23 44  1  0
 24 45  1  0
M  END
>  <smiles>  (20) 
O=C(NCC(=O)N1CCC[C@@H]1c1c[nH]cn1)c1ccc2ccccc2n1

>  <score_type>  (20) 
oracle

>  <origin>  (20) 
autodockgpu

>  <m_score__min__energy>  (20) 
-8.2300000000000004

>  <m_primary>  (20) 
energy

>  <rmsd>  (20) 
2.218373213811737

>  <m_score__min__rmsd>  (20) 
2.218373213811737

>  <meeko>  (20) 
{"free_energy": -7.74, "intermolecular_energy": -9.24, "internal_energy": -1.24, "cluster_size": 12, "cluster_id": 2, "rank_in_cluster": 5}

>  <energy>  (20) 
-7.43

>  <cluster_rmsd>  (20) 
0.94

>  <cluster>  (20) 
1

$$$$

     RDKit          3D

 45 48  0  0  0  0  0  0  0  0999 V2000
  141.2330   71.9410  221.5740 O   0  0  0  0  0  0  0  0  0  0  0  0
  140.3930   72.2380  222.4650 C   0  0  0  0  0  0  0  0  0  0  0  0
  139.5750   73.3840  222.1910 N   0  0  0  0  0  0  0  0  0  0  0  0
  139.8150   74.0530  220.9280 C   0  0  0  0  0  0  0  0  0  0  0  0
  141.0670   74.8280  221.0270 C   0  0  0  0  0  0  0  0  0  0  0  0
  141.4150   75.5060  222.0160 O   0  0  0  0  0  0  0  0  0  0  0  0
  141.9690   74.8110  219.9030 N   0  0  0  0  0  0  0  0  0  0  0  0
  141.7190   74.2630  218.5800 C   0  0  0  0  0  0  0  0  0  0  0  0
  142.1170   75.4660  217.7460 C   0  0  0  0  0  0  0  0  0  0  0  0
  143.3910   75.9080  218.4510 C   0  0  0  0  0  0  0  0  0  0  0  0
  143.3310   75.3430  219.8590 C   0  0  2  0  0  0  0  0  0  0  0  0
  144.2860   74.2210  220.0140 C   0  0  0  0  0  0  0  0  0  0  0  0
  144.9080   73.7310  221.1380 C   0  0  0  0  0  0  0  0  0  0  0  0
  145.6900   72.6900  220.7520 N   0  0  0  0  0  0  0  0  0  0  0  0
  145.5510   72.5420  219.4080 C   0  0  0  0  0  0  0  0  0  0  0  0
  144.6960   73.4740  218.9580 N   0  0  0  0  0  0  0  0  0  0  0  0
  140.2560   71.4740  223.6960 C   0  0  0  0  0  0  0  0  0  0  0  0
  139.6270   70.2570  223.6290 C   0  0  0  0  0  0  0  0  0  0  0  0
  139.4670   69.4890  224.7680 C   0  0  0  0  0  0  0  0  0  0  0  0
  139.9500   69.9630  225.9720 C   0  0  0  0  0  0  0  0  0  0  0  0
  139.7840   69.1860  227.0990 C   0  0  0  0  0  0  0  0  0  0  0  0
  140.2630   69.6450  228.3200 C   0  0  0  0  0  0  0  0  0  0  0  0
  140.8900   70.8710  228.3520 C   0  0  0  0  0  0  0  0  0  0  0  0
  141.0590   71.6580  227.2170 C   0  0  0  0  0  0  0  0  0  0  0  0
  140.5820   71.1930  226.0160 C   0  0  0  0  0  0  0  0  0  0  0  0
  140.7040   71.8860  224.8870 N   0  0  0  0  0  0  0  0  0  0  0  0
  138.8560   73.6920  222.8820 H   0  0  0  0  0  0  0  0  0  0  0  0
  139.9059   73.3057  220.1259 H   0  0  0  0  0  0  0  0  0  0  0  0
  138.9768   74.7274  220.6987 H   0  0  0  0  0  0  0  0  0  0  0  0
  142.3514   73.3879  218.3698 H   0  0  0  0  0  0  0  0  0  0  0  0
  140.7002   73.8850  218.4092 H   0  0  0  0  0  0  0  0  0  0  0  0
  142.3119   75.1847  216.7006 H   0  0  0  0  0  0  0  0  0  0  0  0
  141.3437   76.2457  217.6815 H   0  0  0  0  0  0  0  0  0  0  0  0
  144.2722   75.5153  217.9225 H   0  0  0  0  0  0  0  0  0  0  0  0
  143.4725   77.0048  218.4687 H   0  0  0  0  0  0  0  0  0  0  0  0
  143.5739   76.0798  220.6388 H   0  0  0  0  0  0  0  0  0  0  0  0
  144.7931   74.1127  222.1632 H   0  0  0  0  0  0  0  0  0  0  0  0
  146.2890   72.1140  221.3850 H   0  0  0  0  0  0  0  0  0  0  0  0
  146.0556   71.7839  218.7911 H   0  0  0  0  0  0  0  0  0  0  0  0
  139.2477   69.8898  222.6640 H   0  0  0  0  0  0  0  0  0  0  0  0
  138.9616   68.5134  224.7157 H   0  0  0  0  0  0  0  0  0  0  0  0
  139.2772   68.2120  227.0321 H   0  0  0  0  0  0  0  0  0  0  0  0
  140.1448   69.0462  229.2351 H   0  0  0  0  0  0  0  0  0  0  0  0
  141.2726   71.2430  229.3139 H   0  0  0  0  0  0  0  0  0  0  0  0
  141.5645   72.6329  227.2804 H   0  0  0  0  0  0  0  0  0  0  0  0
  1  2  2  0
  2  3  1  0
  3  4  1  0
  4  5  1  0
  5  6  2  0
  5  7  1  0
  7  8  1  0
  8  9  1  0
  9 10  1  0
 10 11  1  0
 11 12  1  0
 12 13  2  0
 13 14  1  0
 14 15  1  0
 15 16  2  0
  2 17  1  0
 17 18  2  0
 18 19  1  0
 19 20  2  0
 20 21  1  0
 21 22  2  0
 22 23  1  0
 23 24  2  0
 24 25  1  0
 25 26  2  0
 11  7  1  0
 16 12  1  0
 26 17  1  0
 25 20  1  0
  3 27  1  0
  4 28  1  0
  4 29  1  0
  8 30  1  0
  8 31  1  0
  9 32  1  0
  9 33  1  0
 10 34  1  0
 10 35  1  0
 11 36  1  1
 13 37  1  0
 14 38  1  0
 15 39  1  0
 18 40  1  0
 19 41  1  0
 21 42  1  0
 22 43  1  0
 23 44  1  0
 24 45  1  0
M  END
>  <smiles>  (21) 
O=C(NCC(=O)N1CCC[C@@H]1c1c[nH]cn1)c1ccc2ccccc2n1

>  <score_type>  (21) 
oracle

>  <origin>  (21) 
autodockgpu

>  <m_score__min__energy>  (21) 
-8.2300000000000004

>  <m_primary>  (21) 
energy

>  <rmsd>  (21) 
3.0699456539604326

>  <m_score__min__rmsd>  (21) 
3.0699456539604326

>  <meeko>  (21) 
{"free_energy": -7.99, "intermolecular_energy": -9.49, "internal_energy": -1.29, "cluster_size": 21, "cluster_id": 1, "rank_in_cluster": 5}

>  <energy>  (21) 
-6.55

>  <cluster_rmsd>  (21) 
1.4

>  <cluster>  (21) 
1

$$$$

     RDKit          3D

 45 48  0  0  0  0  0  0  0  0999 V2000
  140.6460   73.4020  222.3630 O   0  0  0  0  0  0  0  0  0  0  0  0
  140.2210   72.2180  222.4160 C   0  0  0  0  0  0  0  0  0  0  0  0
  139.8560   71.6310  221.1580 N   0  0  0  0  0  0  0  0  0  0  0  0
  140.0240   72.4710  219.9890 C   0  0  0  0  0  0  0  0  0  0  0  0
  141.3390   72.1900  219.3830 C   0  0  0  0  0  0  0  0  0  0  0  0
  141.7440   71.0600  219.0390 O   0  0  0  0  0  0  0  0  0  0  0  0
  142.2390   73.2950  219.1650 N   0  0  0  0  0  0  0  0  0  0  0  0
  142.7900   73.7470  217.8980 C   0  0  0  0  0  0  0  0  0  0  0  0
  142.4260   75.2160  217.9930 C   0  0  0  0  0  0  0  0  0  0  0  0
  142.7910   75.5200  219.4390 C   0  0  0  0  0  0  0  0  0  0  0  0
  142.7890   74.1950  220.1790 C   0  0  2  0  0  0  0  0  0  0  0  0
  144.1720   73.7700  220.4940 C   0  0  0  0  0  0  0  0  0  0  0  0
  144.6840   72.5160  220.7340 C   0  0  0  0  0  0  0  0  0  0  0  0
  146.0140   72.6560  220.9740 N   0  0  0  0  0  0  0  0  0  0  0  0
  146.3150   73.9790  220.8820 C   0  0  0  0  0  0  0  0  0  0  0  0
  145.1940   74.6570  220.5900 N   0  0  0  0  0  0  0  0  0  0  0  0
  140.1020   71.4850  223.6680 C   0  0  0  0  0  0  0  0  0  0  0  0
  139.3800   70.3180  223.6620 C   0  0  0  0  0  0  0  0  0  0  0  0
  139.2330   69.5810  224.8220 C   0  0  0  0  0  0  0  0  0  0  0  0
  139.8230   70.0340  225.9860 C   0  0  0  0  0  0  0  0  0  0  0  0
  139.6690   69.2880  227.1350 C   0  0  0  0  0  0  0  0  0  0  0  0
  140.2540   69.7270  228.3160 C   0  0  0  0  0  0  0  0  0  0  0  0
  140.9720   70.9020  228.2880 C   0  0  0  0  0  0  0  0  0  0  0  0
  141.1300   71.6570  227.1300 C   0  0  0  0  0  0  0  0  0  0  0  0
  140.5470   71.2130  225.9690 C   0  0  0  0  0  0  0  0  0  0  0  0
  140.6510   71.8780  224.8220 N   0  0  0  0  0  0  0  0  0  0  0  0
  139.4940   70.6530  221.1210 H   0  0  0  0  0  0  0  0  0  0  0  0
  139.2282   72.2541  219.2612 H   0  0  0  0  0  0  0  0  0  0  0  0
  139.9668   73.5302  220.2802 H   0  0  0  0  0  0  0  0  0  0  0  0
  143.8779   73.5942  217.8431 H   0  0  0  0  0  0  0  0  0  0  0  0
  142.4166   73.2234  217.0056 H   0  0  0  0  0  0  0  0  0  0  0  0
  143.0172   75.8236  217.2920 H   0  0  0  0  0  0  0  0  0  0  0  0
  141.3800   75.4388  217.7357 H   0  0  0  0  0  0  0  0  0  0  0  0
  143.7888   75.9803  219.4891 H   0  0  0  0  0  0  0  0  0  0  0  0
  142.0746   76.2239  219.8875 H   0  0  0  0  0  0  0  0  0  0  0  0
  142.2388   74.2236  221.1311 H   0  0  0  0  0  0  0  0  0  0  0  0
  144.1195   71.5719  220.7320 H   0  0  0  0  0  0  0  0  0  0  0  0
  146.6770   71.8780  221.1900 H   0  0  0  0  0  0  0  0  0  0  0  0
  147.3125   74.4206  221.0235 H   0  0  0  0  0  0  0  0  0  0  0  0
  138.9156   69.9671  222.7286 H   0  0  0  0  0  0  0  0  0  0  0  0
  138.6537   68.6459  224.8183 H   0  0  0  0  0  0  0  0  0  0  0  0
  139.0884   68.3539  227.1168 H   0  0  0  0  0  0  0  0  0  0  0  0
  140.1468   69.1521  229.2477 H   0  0  0  0  0  0  0  0  0  0  0  0
  141.4391   71.2577  229.2182 H   0  0  0  0  0  0  0  0  0  0  0  0
  141.7106   72.5912  227.1444 H   0  0  0  0  0  0  0  0  0  0  0  0
  1  2  2  0
  2  3  1  0
  3  4  1  0
  4  5  1  0
  5  6  2  0
  5  7  1  0
  7  8  1  0
  8  9  1  0
  9 10  1  0
 10 11  1  0
 11 12  1  0
 12 13  2  0
 13 14  1  0
 14 15  1  0
 15 16  2  0
  2 17  1  0
 17 18  2  0
 18 19  1  0
 19 20  2  0
 20 21  1  0
 21 22  2  0
 22 23  1  0
 23 24  2  0
 24 25  1  0
 25 26  2  0
 11  7  1  0
 16 12  1  0
 26 17  1  0
 25 20  1  0
  3 27  1  0
  4 28  1  0
  4 29  1  0
  8 30  1  0
  8 31  1  0
  9 32  1  0
  9 33  1  0
 10 34  1  0
 10 35  1  0
 11 36  1  1
 13 37  1  0
 14 38  1  0
 15 39  1  0
 18 40  1  0
 19 41  1  0
 21 42  1  0
 22 43  1  0
 23 44  1  0
 24 45  1  0
M  END
>  <smiles>  (22) 
O=C(NCC(=O)N1CCC[C@@H]1c1c[nH]cn1)c1ccc2ccccc2n1

>  <score_type>  (22) 
oracle

>  <origin>  (22) 
autodockgpu

>  <m_score__min__energy>  (22) 
-8.2300000000000004

>  <m_primary>  (22) 
energy

>  <rmsd>  (22) 
3.252956317901503

>  <m_score__min__rmsd>  (22) 
3.252956317901503

>  <meeko>  (22) 
{"free_energy": -7.48, "intermolecular_energy": -8.97, "internal_energy": -1.33, "cluster_size": 21, "cluster_id": 1, "rank_in_cluster": 19}

>  <energy>  (22) 
-8.21

>  <cluster_rmsd>  (22) 
0.0

>  <cluster>  (22) 
2

$$$$

     RDKit          3D

 45 48  0  0  0  0  0  0  0  0999 V2000
  141.2250   72.5320  221.8850 O   0  0  0  0  0  0  0  0  0  0  0  0
  140.2270   72.4810  222.6510 C   0  0  0  0  0  0  0  0  0  0  0  0
  139.1640   73.3970  222.3490 N   0  0  0  0  0  0  0  0  0  0  0  0
  139.3730   74.2620  221.2050 C   0  0  0  0  0  0  0  0  0  0  0  0
  140.2880   75.3530  221.5900 C   0  0  0  0  0  0  0  0  0  0  0  0
  141.4780   75.2040  221.9350 O   0  0  0  0  0  0  0  0  0  0  0  0
  139.7830   76.7040  221.5720 N   0  0  0  0  0  0  0  0  0  0  0  0
  139.3280   77.4600  220.4160 C   0  0  0  0  0  0  0  0  0  0  0  0
  137.9780   77.9060  220.9420 C   0  0  0  0  0  0  0  0  0  0  0  0
  138.3330   78.3170  222.3630 C   0  0  0  0  0  0  0  0  0  0  0  0
  139.6220   77.5980  222.7180 C   0  0  2  0  0  0  0  0  0  0  0  0
  140.7590   78.5470  222.7430 C   0  0  0  0  0  0  0  0  0  0  0  0
  141.8710   78.6270  221.9360 C   0  0  0  0  0  0  0  0  0  0  0  0
  142.6170   79.6750  222.3700 N   0  0  0  0  0  0  0  0  0  0  0  0
  141.9740   80.2330  223.4300 C   0  0  0  0  0  0  0  0  0  0  0  0
  140.8430   79.5470  223.6580 N   0  0  0  0  0  0  0  0  0  0  0  0
  140.1470   71.5570  223.7720 C   0  0  0  0  0  0  0  0  0  0  0  0
  139.5530   70.3380  223.5590 C   0  0  0  0  0  0  0  0  0  0  0  0
  139.4490   69.4210  224.5880 C   0  0  0  0  0  0  0  0  0  0  0  0
  139.9510   69.7490  225.8330 C   0  0  0  0  0  0  0  0  0  0  0  0
  139.8400   68.8240  226.8500 C   0  0  0  0  0  0  0  0  0  0  0  0
  140.3380   69.1340  228.1100 C   0  0  0  0  0  0  0  0  0  0  0  0
  140.9280   70.3640  228.2910 C   0  0  0  0  0  0  0  0  0  0  0  0
  141.0410   71.3000  227.2670 C   0  0  0  0  0  0  0  0  0  0  0  0
  140.5450   70.9830  226.0260 C   0  0  0  0  0  0  0  0  0  0  0  0
  140.6150   71.8220  224.9970 N   0  0  0  0  0  0  0  0  0  0  0  0
  138.3030   73.4140  222.9380 H   0  0  0  0  0  0  0  0  0  0  0  0
  139.8151   73.6832  220.3807 H   0  0  0  0  0  0  0  0  0  0  0  0
  138.4112   74.6819  220.8754 H   0  0  0  0  0  0  0  0  0  0  0  0
  139.9870   78.3126  220.1951 H   0  0  0  0  0  0  0  0  0  0  0  0
  139.3064   76.9055  219.4662 H   0  0  0  0  0  0  0  0  0  0  0  0
  137.5810   78.7541  220.3648 H   0  0  0  0  0  0  0  0  0  0  0  0
  137.1933   77.1378  220.8779 H   0  0  0  0  0  0  0  0  0  0  0  0
  138.4794   79.4059  222.4170 H   0  0  0  0  0  0  0  0  0  0  0  0
  137.5273   78.0523  223.0636 H   0  0  0  0  0  0  0  0  0  0  0  0
  139.5939   77.1041  223.7005 H   0  0  0  0  0  0  0  0  0  0  0  0
  142.1115   77.9627  221.0929 H   0  0  0  0  0  0  0  0  0  0  0  0
  143.5230   79.9870  221.9550 H   0  0  0  0  0  0  0  0  0  0  0  0
  142.3230   81.1030  224.0057 H   0  0  0  0  0  0  0  0  0  0  0  0
  139.1573   70.0894  222.5632 H   0  0  0  0  0  0  0  0  0  0  0  0
  138.9733   68.4438  224.4182 H   0  0  0  0  0  0  0  0  0  0  0  0
  139.3621   67.8505  226.6657 H   0  0  0  0  0  0  0  0  0  0  0  0
  140.2626   68.4159  228.9398 H   0  0  0  0  0  0  0  0  0  0  0  0
  141.3262   70.6176  229.2845 H   0  0  0  0  0  0  0  0  0  0  0  0
  141.5182   72.2744  227.4481 H   0  0  0  0  0  0  0  0  0  0  0  0
  1  2  2  0
  2  3  1  0
  3  4  1  0
  4  5  1  0
  5  6  2  0
  5  7  1  0
  7  8  1  0
  8  9  1  0
  9 10  1  0
 10 11  1  0
 11 12  1  0
 12 13  2  0
 13 14  1  0
 14 15  1  0
 15 16  2  0
  2 17  1  0
 17 18  2  0
 18 19  1  0
 19 20  2  0
 20 21  1  0
 21 22  2  0
 22 23  1  0
 23 24  2  0
 24 25  1  0
 25 26  2  0
 11  7  1  0
 16 12  1  0
 26 17  1  0
 25 20  1  0
  3 27  1  0
  4 28  1  0
  4 29  1  0
  8 30  1  0
  8 31  1  0
  9 32  1  0
  9 33  1  0
 10 34  1  0
 10 35  1  0
 11 36  1  1
 13 37  1  0
 14 38  1  0
 15 39  1  0
 18 40  1  0
 19 41  1  0
 21 42  1  0
 22 43  1  0
 23 44  1  0
 24 45  1  0
M  END
>  <smiles>  (23) 
O=C(NCC(=O)N1CCC[C@@H]1c1c[nH]cn1)c1ccc2ccccc2n1

>  <score_type>  (23) 
oracle

>  <origin>  (23) 
autodockgpu

>  <m_score__min__energy>  (23) 
-8.2300000000000004

>  <m_primary>  (23) 
energy

>  <rmsd>  (23) 
2.587335255908767

>  <m_score__min__rmsd>  (23) 
2.587335255908767

>  <meeko>  (23) 
{"free_energy": -8.21, "intermolecular_energy": -9.7, "internal_energy": -0.97, "cluster_size": 12, "cluster_id": 2, "rank_in_cluster": 1}

>  <energy>  (23) 
-8.19

>  <cluster_rmsd>  (23) 
0.06

>  <cluster>  (23) 
2

$$$$

     RDKit          3D

 45 48  0  0  0  0  0  0  0  0999 V2000
  141.3830   72.3060  221.6870 O   0  0  0  0  0  0  0  0  0  0  0  0
  140.4890   72.5050  222.5510 C   0  0  0  0  0  0  0  0  0  0  0  0
  139.6770   73.6700  222.3490 N   0  0  0  0  0  0  0  0  0  0  0  0
  139.9860   74.4680  221.1790 C   0  0  0  0  0  0  0  0  0  0  0  0
  139.8330   75.8960  221.5200 C   0  0  0  0  0  0  0  0  0  0  0  0
  138.9520   76.3640  222.2700 O   0  0  0  0  0  0  0  0  0  0  0  0
  140.7660   76.8350  220.9490 N   0  0  0  0  0  0  0  0  0  0  0  0
  142.0670   76.5440  220.3690 C   0  0  0  0  0  0  0  0  0  0  0  0
  141.9010   77.2620  219.0440 C   0  0  0  0  0  0  0  0  0  0  0  0
  141.2410   78.5590  219.4880 C   0  0  0  0  0  0  0  0  0  0  0  0
  140.5980   78.2840  220.8350 C   0  0  2  0  0  0  0  0  0  0  0  0
  141.3610   78.9390  221.9230 C   0  0  0  0  0  0  0  0  0  0  0  0
  141.4160   78.6540  223.2670 C   0  0  0  0  0  0  0  0  0  0  0  0
  142.2630   79.5470  223.8400 N   0  0  0  0  0  0  0  0  0  0  0  0
  142.7230   80.3700  222.8610 C   0  0  0  0  0  0  0  0  0  0  0  0
  142.1740   80.0010  221.6940 N   0  0  0  0  0  0  0  0  0  0  0  0
  140.2850   71.6160  223.6860 C   0  0  0  0  0  0  0  0  0  0  0  0
  139.6360   70.4280  223.4620 C   0  0  0  0  0  0  0  0  0  0  0  0
  139.4140   69.5450  224.5030 C   0  0  0  0  0  0  0  0  0  0  0  0
  139.8550   69.8760  225.7700 C   0  0  0  0  0  0  0  0  0  0  0  0
  139.6270   68.9860  226.7980 C   0  0  0  0  0  0  0  0  0  0  0  0
  140.0620   69.2990  228.0790 C   0  0  0  0  0  0  0  0  0  0  0  0
  140.7100   70.4990  228.2700 C   0  0  0  0  0  0  0  0  0  0  0  0
  140.9420   71.4000  227.2350 C   0  0  0  0  0  0  0  0  0  0  0  0
  140.5070   71.0790  225.9720 C   0  0  0  0  0  0  0  0  0  0  0  0
  140.6900   71.8860  224.9310 N   0  0  0  0  0  0  0  0  0  0  0  0
  138.9140   73.9020  223.0230 H   0  0  0  0  0  0  0  0  0  0  0  0
  141.0211   74.2730  220.8619 H   0  0  0  0  0  0  0  0  0  0  0  0
  139.3026   74.2057  220.3579 H   0  0  0  0  0  0  0  0  0  0  0  0
  142.8887   76.9655  220.9666 H   0  0  0  0  0  0  0  0  0  0  0  0
  142.3267   75.4773  220.3001 H   0  0  0  0  0  0  0  0  0  0  0  0
  142.8724   77.4487  218.5628 H   0  0  0  0  0  0  0  0  0  0  0  0
  141.3262   76.6977  218.2949 H   0  0  0  0  0  0  0  0  0  0  0  0
  141.9948   79.3544  219.5834 H   0  0  0  0  0  0  0  0  0  0  0  0
  140.4929   78.8931  218.7540 H   0  0  0  0  0  0  0  0  0  0  0  0
  139.5616   78.6451  220.9090 H   0  0  0  0  0  0  0  0  0  0  0  0
  140.8727   77.8491  223.7838 H   0  0  0  0  0  0  0  0  0  0  0  0
  142.5090   79.5850  224.8550 H   0  0  0  0  0  0  0  0  0  0  0  0
  143.4291   81.2016  223.0023 H   0  0  0  0  0  0  0  0  0  0  0  0
  139.2903   70.1765  222.4485 H   0  0  0  0  0  0  0  0  0  0  0  0
  138.8936   68.5924  224.3248 H   0  0  0  0  0  0  0  0  0  0  0  0
  139.1054   68.0369  226.6052 H   0  0  0  0  0  0  0  0  0  0  0  0
  139.8937   68.6077  228.9179 H   0  0  0  0  0  0  0  0  0  0  0  0
  141.0583   70.7557  229.2813 H   0  0  0  0  0  0  0  0  0  0  0  0
  141.4632   72.3500  227.4244 H   0  0  0  0  0  0  0  0  0  0  0  0
  1  2  2  0
  2  3  1  0
  3  4  1  0
  4  5  1  0
  5  6  2  0
  5  7  1  0
  7  8  1  0
  8  9  1  0
  9 10  1  0
 10 11  1  0
 11 12  1  0
 12 13  2  0
 13 14  1  0
 14 15  1  0
 15 16  2  0
  2 17  1  0
 17 18  2  0
 18 19  1  0
 19 20  2  0
 20 21  1  0
 21 22  2  0
 22 23  1  0
 23 24  2  0
 24 25  1  0
 25 26  2  0
 11  7  1  0
 16 12  1  0
 26 17  1  0
 25 20  1  0
  3 27  1  0
  4 28  1  0
  4 29  1  0
  8 30  1  0
  8 31  1  0
  9 32  1  0
  9 33  1  0
 10 34  1  0
 10 35  1  0
 11 36  1  6
 13 37  1  0
 14 38  1  0
 15 39  1  0
 18 40  1  0
 19 41  1  0
 21 42  1  0
 22 43  1  0
 23 44  1  0
 24 45  1  0
M  END
>  <smiles>  (24) 
O=C(NCC(=O)N1CCC[C@@H]1c1c[nH]cn1)c1ccc2ccccc2n1

>  <score_type>  (24) 
oracle

>  <origin>  (24) 
autodockgpu

>  <m_score__min__energy>  (24) 
-8.2300000000000004

>  <m_primary>  (24) 
energy

>  <rmsd>  (24) 
2.2249744957073525

>  <m_score__min__rmsd>  (24) 
2.2249744957073525

>  <meeko>  (24) 
{"free_energy": -7.72, "intermolecular_energy": -9.21, "internal_energy": -1.25, "cluster_size": 12, "cluster_id": 2, "rank_in_cluster": 7}

>  <energy>  (24) 
-7.98

>  <cluster_rmsd>  (24) 
0.58

>  <cluster>  (24) 
2

$$$$

     RDKit          3D

 45 48  0  0  0  0  0  0  0  0999 V2000
  140.1930   71.2880  221.2330 O   0  0  0  0  0  0  0  0  0  0  0  0
  140.0080   71.9050  222.3140 C   0  0  0  0  0  0  0  0  0  0  0  0
  139.7420   73.3100  222.1910 N   0  0  0  0  0  0  0  0  0  0  0  0
  139.7170   73.8390  220.8410 C   0  0  0  0  0  0  0  0  0  0  0  0
  140.5590   75.0490  220.7860 C   0  0  0  0  0  0  0  0  0  0  0  0
  140.3860   76.0750  221.4770 O   0  0  0  0  0  0  0  0  0  0  0  0
  141.6700   75.0650  219.8680 N   0  0  0  0  0  0  0  0  0  0  0  0
  141.7020   74.5380  218.5130 C   0  0  0  0  0  0  0  0  0  0  0  0
  142.2420   75.7610  217.7980 C   0  0  0  0  0  0  0  0  0  0  0  0
  143.3400   76.2050  218.7530 C   0  0  0  0  0  0  0  0  0  0  0  0
  143.0040   75.6130  220.1100 C   0  0  2  0  0  0  0  0  0  0  0  0
  143.9250   74.5000  220.4380 C   0  0  0  0  0  0  0  0  0  0  0  0
  143.6600   73.1780  220.7120 C   0  0  0  0  0  0  0  0  0  0  0  0
  144.8480   72.5640  220.9490 N   0  0  0  0  0  0  0  0  0  0  0  0
  145.8300   73.4960  220.8220 C   0  0  0  0  0  0  0  0  0  0  0  0
  145.2690   74.6740  220.5110 N   0  0  0  0  0  0  0  0  0  0  0  0
  140.0610   71.2460  223.6110 C   0  0  0  0  0  0  0  0  0  0  0  0
  139.5920   69.9600  223.6960 C   0  0  0  0  0  0  0  0  0  0  0  0
  139.6170   69.2850  224.9030 C   0  0  0  0  0  0  0  0  0  0  0  0
  140.1210   69.9230  226.0200 C   0  0  0  0  0  0  0  0  0  0  0  0
  140.1400   69.2380  227.2160 C   0  0  0  0  0  0  0  0  0  0  0  0
  140.6420   69.8620  228.3510 C   0  0  0  0  0  0  0  0  0  0  0  0
  141.1050   71.1530  228.2310 C   0  0  0  0  0  0  0  0  0  0  0  0
  141.0870   71.8490  227.0260 C   0  0  0  0  0  0  0  0  0  0  0  0
  140.5890   71.2210  225.9110 C   0  0  0  0  0  0  0  0  0  0  0  0
  140.5370   71.8170  224.7230 N   0  0  0  0  0  0  0  0  0  0  0  0
  139.5780   73.8900  223.0430 H   0  0  0  0  0  0  0  0  0  0  0  0
  140.1078   73.0851  220.1418 H   0  0  0  0  0  0  0  0  0  0  0  0
  138.6841   74.0907  220.5585 H   0  0  0  0  0  0  0  0  0  0  0  0
  142.3774   73.6746  218.4217 H   0  0  0  0  0  0  0  0  0  0  0  0
  140.7454   74.1504  218.1325 H   0  0  0  0  0  0  0  0  0  0  0  0
  142.6488   75.5024  216.8092 H   0  0  0  0  0  0  0  0  0  0  0  0
  141.4856   76.5325  217.5918 H   0  0  0  0  0  0  0  0  0  0  0  0
  144.3159   75.8325  218.4081 H   0  0  0  0  0  0  0  0  0  0  0  0
  143.4001   77.3022  218.8040 H   0  0  0  0  0  0  0  0  0  0  0  0
  143.0721   76.3376  220.9348 H   0  0  0  0  0  0  0  0  0  0  0  0
  142.6673   72.7048  220.7349 H   0  0  0  0  0  0  0  0  0  0  0  0
  144.9730   71.5540  221.1870 H   0  0  0  0  0  0  0  0  0  0  0  0
  146.9069   73.3139  220.9528 H   0  0  0  0  0  0  0  0  0  0  0  0
  139.1937   69.4626  222.7993 H   0  0  0  0  0  0  0  0  0  0  0  0
  139.2406   68.2538  224.9726 H   0  0  0  0  0  0  0  0  0  0  0  0
  139.7611   68.2068  227.2711 H   0  0  0  0  0  0  0  0  0  0  0  0
  140.6688   69.3393  229.3185 H   0  0  0  0  0  0  0  0  0  0  0  0
  141.5055   71.6549  229.1241 H   0  0  0  0  0  0  0  0  0  0  0  0
  141.4639   72.8808  226.9679 H   0  0  0  0  0  0  0  0  0  0  0  0
  1  2  2  0
  2  3  1  0
  3  4  1  0
  4  5  1  0
  5  6  2  0
  5  7  1  0
  7  8  1  0
  8  9  1  0
  9 10  1  0
 10 11  1  0
 11 12  1  0
 12 13  2  0
 13 14  1  0
 14 15  1  0
 15 16  2  0
  2 17  1  0
 17 18  2  0
 18 19  1  0
 19 20  2  0
 20 21  1  0
 21 22  2  0
 22 23  1  0
 23 24  2  0
 24 25  1  0
 25 26  2  0
 11  7  1  0
 16 12  1  0
 26 17  1  0
 25 20  1  0
  3 27  1  0
  4 28  1  0
  4 29  1  0
  8 30  1  0
  8 31  1  0
  9 32  1  0
  9 33  1  0
 10 34  1  0
 10 35  1  0
 11 36  1  1
 13 37  1  0
 14 38  1  0
 15 39  1  0
 18 40  1  0
 19 41  1  0
 21 42  1  0
 22 43  1  0
 23 44  1  0
 24 45  1  0
M  END
>  <smiles>  (25) 
O=C(NCC(=O)N1CCC[C@@H]1c1c[nH]cn1)c1ccc2ccccc2n1

>  <score_type>  (25) 
oracle

>  <origin>  (25) 
autodockgpu

>  <m_score__min__energy>  (25) 
-8.2300000000000004

>  <m_primary>  (25) 
energy

>  <rmsd>  (25) 
2.7612072087864727

>  <m_score__min__rmsd>  (25) 
2.7612072087864727

>  <meeko>  (25) 
{"free_energy": -7.78, "intermolecular_energy": -9.27, "internal_energy": -1.33, "cluster_size": 21, "cluster_id": 1, "rank_in_cluster": 13}

>  <energy>  (25) 
-7.94

>  <cluster_rmsd>  (25) 
0.61

>  <cluster>  (25) 
2

$$$$

     RDKit          3D

 45 48  0  0  0  0  0  0  0  0999 V2000
  137.3650   70.2660  222.1220 O   0  0  0  0  0  0  0  0  0  0  0  0
  138.0170   71.0420  222.8680 C   0  0  0  0  0  0  0  0  0  0  0  0
  138.0510   72.4170  222.4570 N   0  0  0  0  0  0  0  0  0  0  0  0
  137.3310   72.7380  221.2410 C   0  0  0  0  0  0  0  0  0  0  0  0
  136.4760   73.9150  221.4880 C   0  0  0  0  0  0  0  0  0  0  0  0
  135.2360   73.8860  221.6230 O   0  0  0  0  0  0  0  0  0  0  0  0
  137.1090   75.2070  221.5840 N   0  0  0  0  0  0  0  0  0  0  0  0
  137.0030   76.3120  220.6440 C   0  0  0  0  0  0  0  0  0  0  0  0
  136.6250   77.4130  221.6170 C   0  0  0  0  0  0  0  0  0  0  0  0
  137.5780   77.1320  222.7700 C   0  0  0  0  0  0  0  0  0  0  0  0
  137.9940   75.6770  222.6490 C   0  0  2  0  0  0  0  0  0  0  0  0
  139.3970   75.5710  222.1840 C   0  0  0  0  0  0  0  0  0  0  0  0
  140.3090   76.5550  221.8770 C   0  0  0  0  0  0  0  0  0  0  0  0
  141.4590   75.9410  221.4990 N   0  0  0  0  0  0  0  0  0  0  0  0
  141.2580   74.5990  221.5720 C   0  0  0  0  0  0  0  0  0  0  0  0
  140.0020   74.3730  221.9890 N   0  0  0  0  0  0  0  0  0  0  0  0
  138.6980   70.5840  224.0700 C   0  0  0  0  0  0  0  0  0  0  0  0
  138.6850   69.2390  224.3420 C   0  0  0  0  0  0  0  0  0  0  0  0
  139.3150   68.7470  225.4700 C   0  0  0  0  0  0  0  0  0  0  0  0
  139.9570   69.6280  226.3190 C   0  0  0  0  0  0  0  0  0  0  0  0
  140.5810   69.1230  227.4400 C   0  0  0  0  0  0  0  0  0  0  0  0
  141.2330   69.9920  228.3060 C   0  0  0  0  0  0  0  0  0  0  0  0
  141.2290   71.3350  228.0040 C   0  0  0  0  0  0  0  0  0  0  0  0
  140.6000   71.8490  226.8740 C   0  0  0  0  0  0  0  0  0  0  0  0
  139.9590   70.9800  226.0250 C   0  0  0  0  0  0  0  0  0  0  0  0
  139.3350   71.3920  224.9250 N   0  0  0  0  0  0  0  0  0  0  0  0
  138.5720   73.1210  223.0250 H   0  0  0  0  0  0  0  0  0  0  0  0
  138.0467   72.9638  220.4368 H   0  0  0  0  0  0  0  0  0  0  0  0
  136.7090   71.8824  220.9394 H   0  0  0  0  0  0  0  0  0  0  0  0
  137.9584   76.5175  220.1390 H   0  0  0  0  0  0  0  0  0  0  0  0
  136.3046   76.1578  219.8082 H   0  0  0  0  0  0  0  0  0  0  0  0
  136.7986   78.4095  221.1848 H   0  0  0  0  0  0  0  0  0  0  0  0
  135.5625   77.4175  221.9016 H   0  0  0  0  0  0  0  0  0  0  0  0
  138.4602   77.7854  222.7002 H   0  0  0  0  0  0  0  0  0  0  0  0
  137.0941   77.3254  223.7387 H   0  0  0  0  0  0  0  0  0  0  0  0
  137.9275   75.1208  223.5957 H   0  0  0  0  0  0  0  0  0  0  0  0
  140.1374   77.6403  221.9285 H   0  0  0  0  0  0  0  0  0  0  0  0
  142.3370   76.4250  221.2050 H   0  0  0  0  0  0  0  0  0  0  0  0
  142.0016   73.8255  221.3295 H   0  0  0  0  0  0  0  0  0  0  0  0
  138.1701   68.5480  223.6583 H   0  0  0  0  0  0  0  0  0  0  0  0
  139.3053   67.6690  225.6886 H   0  0  0  0  0  0  0  0  0  0  0  0
  140.5628   68.0427  227.6467 H   0  0  0  0  0  0  0  0  0  0  0  0
  141.7385   69.6171  229.2082 H   0  0  0  0  0  0  0  0  0  0  0  0
  141.7439   72.0302  228.6834 H   0  0  0  0  0  0  0  0  0  0  0  0
  140.6158   72.9289  226.6650 H   0  0  0  0  0  0  0  0  0  0  0  0
  1  2  2  0
  2  3  1  0
  3  4  1  0
  4  5  1  0
  5  6  2  0
  5  7  1  0
  7  8  1  0
  8  9  1  0
  9 10  1  0
 10 11  1  0
 11 12  1  0
 12 13  2  0
 13 14  1  0
 14 15  1  0
 15 16  2  0
  2 17  1  0
 17 18  2  0
 18 19  1  0
 19 20  2  0
 20 21  1  0
 21 22  2  0
 22 23  1  0
 23 24  2  0
 24 25  1  0
 25 26  2  0
 11  7  1  0
 16 12  1  0
 26 17  1  0
 25 20  1  0
  3 27  1  0
  4 28  1  0
  4 29  1  0
  8 30  1  0
  8 31  1  0
  9 32  1  0
  9 33  1  0
 10 34  1  0
 10 35  1  0
 11 36  1  1
 13 37  1  0
 14 38  1  0
 15 39  1  0
 18 40  1  0
 19 41  1  0
 21 42  1  0
 22 43  1  0
 23 44  1  0
 24 45  1  0
M  END
>  <smiles>  (26) 
O=C(NCC(=O)N1CCC[C@@H]1c1c[nH]cn1)c1ccc2ccccc2n1

>  <score_type>  (26) 
oracle

>  <origin>  (26) 
autodockgpu

>  <m_score__min__energy>  (26) 
-8.2300000000000004

>  <m_primary>  (26) 
energy

>  <rmsd>  (26) 
3.2364367064484605

>  <m_score__min__rmsd>  (26) 
3.2364367064484605

>  <meeko>  (26) 
{"free_energy": -6.81, "intermolecular_energy": -8.3, "internal_energy": -2.1, "cluster_size": 2, "cluster_id": 7, "rank_in_cluster": 1}

>  <energy>  (26) 
-7.74

>  <cluster_rmsd>  (26) 
1.39

>  <cluster>  (26) 
2

$$$$

     RDKit          3D

 45 48  0  0  0  0  0  0  0  0999 V2000
  141.0450   71.9590  221.5380 O   0  0  0  0  0  0  0  0  0  0  0  0
  140.2730   72.2640  222.4850 C   0  0  0  0  0  0  0  0  0  0  0  0
  139.4730   73.4370  222.2820 N   0  0  0  0  0  0  0  0  0  0  0  0
  139.6510   74.1210  221.0170 C   0  0  0  0  0  0  0  0  0  0  0  0
  140.8230   75.0120  221.1160 C   0  0  0  0  0  0  0  0  0  0  0  0
  141.0280   75.8290  222.0380 O   0  0  0  0  0  0  0  0  0  0  0  0
  141.8180   74.9470  220.0740 N   0  0  0  0  0  0  0  0  0  0  0  0
  141.6150   74.5740  218.6840 C   0  0  0  0  0  0  0  0  0  0  0  0
  142.2800   75.7640  218.0200 C   0  0  0  0  0  0  0  0  0  0  0  0
  143.5330   75.9170  218.8710 C   0  0  0  0  0  0  0  0  0  0  0  0
  143.2440   75.2430  220.2000 C   0  0  2  0  0  0  0  0  0  0  0  0
  143.9880   73.9670  220.3110 C   0  0  0  0  0  0  0  0  0  0  0  0
  145.2920   73.7260  220.6750 C   0  0  0  0  0  0  0  0  0  0  0  0
  145.4900   72.3840  220.6210 N   0  0  0  0  0  0  0  0  0  0  0  0
  144.3240   71.8070  220.2290 C   0  0  0  0  0  0  0  0  0  0  0  0
  143.4080   72.7700  220.0400 N   0  0  0  0  0  0  0  0  0  0  0  0
  140.1920   71.4820  223.7100 C   0  0  0  0  0  0  0  0  0  0  0  0
  139.5890   70.2520  223.6480 C   0  0  0  0  0  0  0  0  0  0  0  0
  139.4830   69.4670  224.7820 C   0  0  0  0  0  0  0  0  0  0  0  0
  139.9940   69.9380  225.9760 C   0  0  0  0  0  0  0  0  0  0  0  0
  139.8820   69.1440  227.0970 C   0  0  0  0  0  0  0  0  0  0  0  0
  140.3880   69.6000  228.3080 C   0  0  0  0  0  0  0  0  0  0  0  0
  140.9880   70.8390  228.3360 C   0  0  0  0  0  0  0  0  0  0  0  0
  141.1030   71.6430  227.2060 C   0  0  0  0  0  0  0  0  0  0  0  0
  140.5990   71.1820  226.0150 C   0  0  0  0  0  0  0  0  0  0  0  0
  140.6690   71.8900  224.8920 N   0  0  0  0  0  0  0  0  0  0  0  0
  138.8080   73.7530  223.0230 H   0  0  0  0  0  0  0  0  0  0  0  0
  139.8148   73.3829  220.2180 H   0  0  0  0  0  0  0  0  0  0  0  0
  138.7528   74.7114  220.7830 H   0  0  0  0  0  0  0  0  0  0  0  0
  142.1170   73.6279  218.4332 H   0  0  0  0  0  0  0  0  0  0  0  0
  140.5707   74.3910  218.3908 H   0  0  0  0  0  0  0  0  0  0  0  0
  142.5296   75.5520  216.9699 H   0  0  0  0  0  0  0  0  0  0  0  0
  141.6514   76.6657  217.9766 H   0  0  0  0  0  0  0  0  0  0  0  0
  144.3877   75.4311  218.3777 H   0  0  0  0  0  0  0  0  0  0  0  0
  143.7873   76.9778  219.0129 H   0  0  0  0  0  0  0  0  0  0  0  0
  143.5222   75.8527  221.0723 H   0  0  0  0  0  0  0  0  0  0  0  0
  146.0385   74.4826  220.9583 H   0  0  0  0  0  0  0  0  0  0  0  0
  146.3860   71.8930  220.8430 H   0  0  0  0  0  0  0  0  0  0  0  0
  144.1580   70.7286  220.0895 H   0  0  0  0  0  0  0  0  0  0  0  0
  139.1873   69.8875  222.6910 H   0  0  0  0  0  0  0  0  0  0  0  0
  138.9982   68.4808  224.7337 H   0  0  0  0  0  0  0  0  0  0  0  0
  139.3967   68.1589  227.0335 H   0  0  0  0  0  0  0  0  0  0  0  0
  140.3114   68.9882  229.2190 H   0  0  0  0  0  0  0  0  0  0  0  0
  141.3927   71.2081  229.2899 H   0  0  0  0  0  0  0  0  0  0  0  0
  141.5881   72.6284  227.2658 H   0  0  0  0  0  0  0  0  0  0  0  0
  1  2  2  0
  2  3  1  0
  3  4  1  0
  4  5  1  0
  5  6  2  0
  5  7  1  0
  7  8  1  0
  8  9  1  0
  9 10  1  0
 10 11  1  0
 11 12  1  0
 12 13  2  0
 13 14  1  0
 14 15  1  0
 15 16  2  0
  2 17  1  0
 17 18  2  0
 18 19  1  0
 19 20  2  0
 20 21  1  0
 21 22  2  0
 22 23  1  0
 23 24  2  0
 24 25  1  0
 25 26  2  0
 11  7  1  0
 16 12  1  0
 26 17  1  0
 25 20  1  0
  3 27  1  0
  4 28  1  0
  4 29  1  0
  8 30  1  0
  8 31  1  0
  9 32  1  0
  9 33  1  0
 10 34  1  0
 10 35  1  0
 11 36  1  1
 13 37  1  0
 14 38  1  0
 15 39  1  0
 18 40  1  0
 19 41  1  0
 21 42  1  0
 22 43  1  0
 23 44  1  0
 24 45  1  0
M  END
>  <smiles>  (27) 
O=C(NCC(=O)N1CCC[C@@H]1c1c[nH]cn1)c1ccc2ccccc2n1

>  <score_type>  (27) 
oracle

>  <origin>  (27) 
autodockgpu

>  <m_score__min__energy>  (27) 
-8.2300000000000004

>  <m_primary>  (27) 
energy

>  <rmsd>  (27) 
2.9842744021876406

>  <m_score__min__rmsd>  (27) 
2.9842744021876406

>  <meeko>  (27) 
{"free_energy": -7.99, "intermolecular_energy": -9.48, "internal_energy": -1.35, "cluster_size": 21, "cluster_id": 1, "rank_in_cluster": 6}

>  <energy>  (27) 
-7.73

>  <cluster_rmsd>  (27) 
1.28

>  <cluster>  (27) 
2

$$$$

     RDKit          3D

 45 48  0  0  0  0  0  0  0  0999 V2000
  139.9450   74.4380  222.2620 O   0  0  0  0  0  0  0  0  0  0  0  0
  140.1230   75.4600  221.5500 C   0  0  0  0  0  0  0  0  0  0  0  0
  140.2490   75.2230  220.1400 N   0  0  0  0  0  0  0  0  0  0  0  0
  140.1540   73.8400  219.7150 C   0  0  0  0  0  0  0  0  0  0  0  0
  141.3210   73.5170  218.8730 C   0  0  0  0  0  0  0  0  0  0  0  0
  141.4000   72.5410  218.1000 O   0  0  0  0  0  0  0  0  0  0  0  0
  142.4690   74.3880  218.9380 N   0  0  0  0  0  0  0  0  0  0  0  0
  143.2440   74.9100  217.8230 C   0  0  0  0  0  0  0  0  0  0  0  0
  143.2180   76.3820  218.1870 C   0  0  0  0  0  0  0  0  0  0  0  0
  143.4830   76.3230  219.6840 C   0  0  0  0  0  0  0  0  0  0  0  0
  143.0960   74.9290  220.1430 C   0  0  2  0  0  0  0  0  0  0  0  0
  144.3030   74.1270  220.4530 C   0  0  0  0  0  0  0  0  0  0  0  0
  144.5000   72.7660  220.4180 C   0  0  0  0  0  0  0  0  0  0  0  0
  145.7840   72.5290  220.7900 N   0  0  0  0  0  0  0  0  0  0  0  0
  146.3690   73.7280  221.0510 C   0  0  0  0  0  0  0  0  0  0  0  0
  145.4680   74.7010  220.8460 N   0  0  0  0  0  0  0  0  0  0  0  0
  140.1990   76.8010  222.1110 C   0  0  0  0  0  0  0  0  0  0  0  0
  139.0370   77.3780  222.5560 C   0  0  0  0  0  0  0  0  0  0  0  0
  139.0490   78.6500  223.0970 C   0  0  0  0  0  0  0  0  0  0  0  0
  140.2480   79.3310  223.1840 C   0  0  0  0  0  0  0  0  0  0  0  0
  140.2450   80.5990  223.7270 C   0  0  0  0  0  0  0  0  0  0  0  0
  141.4400   81.3010  223.8230 C   0  0  0  0  0  0  0  0  0  0  0  0
  142.5890   80.6940  223.3680 C   0  0  0  0  0  0  0  0  0  0  0  0
  142.5960   79.4150  222.8200 C   0  0  0  0  0  0  0  0  0  0  0  0
  141.4080   78.7310  222.7300 C   0  0  0  0  0  0  0  0  0  0  0  0
  141.3310   77.5060  222.2180 N   0  0  0  0  0  0  0  0  0  0  0  0
  140.3980   76.0210  219.4850 H   0  0  0  0  0  0  0  0  0  0  0  0
  140.1420   73.1828  220.5970 H   0  0  0  0  0  0  0  0  0  0  0  0
  139.2277   73.6896  219.1411 H   0  0  0  0  0  0  0  0  0  0  0  0
  144.2673   74.5068  217.8070 H   0  0  0  0  0  0  0  0  0  0  0  0
  142.8602   74.6626  216.8223 H   0  0  0  0  0  0  0  0  0  0  0  0
  144.0054   76.9411  217.6603 H   0  0  0  0  0  0  0  0  0  0  0  0
  142.2852   76.8973  217.9144 H   0  0  0  0  0  0  0  0  0  0  0  0
  144.5483   76.5066  219.8876 H   0  0  0  0  0  0  0  0  0  0  0  0
  142.9028   77.0898  220.2182 H   0  0  0  0  0  0  0  0  0  0  0  0
  142.4662   74.9219  221.0448 H   0  0  0  0  0  0  0  0  0  0  0  0
  143.7533   72.0079  220.1394 H   0  0  0  0  0  0  0  0  0  0  0  0
  146.2310   71.5880  220.8600 H   0  0  0  0  0  0  0  0  0  0  0  0
  147.4092   73.8761  221.3765 H   0  0  0  0  0  0  0  0  0  0  0  0
  138.0891   76.8248  222.4819 H   0  0  0  0  0  0  0  0  0  0  0  0
  138.1172   79.1135  223.4532 H   0  0  0  0  0  0  0  0  0  0  0  0
  139.3059   81.0498  224.0804 H   0  0  0  0  0  0  0  0  0  0  0  0
  141.4675   82.3140  224.2508 H   0  0  0  0  0  0  0  0  0  0  0  0
  143.5399   81.2423  223.4406 H   0  0  0  0  0  0  0  0  0  0  0  0
  143.5334   78.9610  222.4662 H   0  0  0  0  0  0  0  0  0  0  0  0
  1  2  2  0
  2  3  1  0
  3  4  1  0
  4  5  1  0
  5  6  2  0
  5  7  1  0
  7  8  1  0
  8  9  1  0
  9 10  1  0
 10 11  1  0
 11 12  1  0
 12 13  2  0
 13 14  1  0
 14 15  1  0
 15 16  2  0
  2 17  1  0
 17 18  2  0
 18 19  1  0
 19 20  2  0
 20 21  1  0
 21 22  2  0
 22 23  1  0
 23 24  2  0
 24 25  1  0
 25 26  2  0
 11  7  1  0
 16 12  1  0
 26 17  1  0
 25 20  1  0
  3 27  1  0
  4 28  1  0
  4 29  1  0
  8 30  1  0
  8 31  1  0
  9 32  1  0
  9 33  1  0
 10 34  1  0
 10 35  1  0
 11 36  1  1
 13 37  1  0
 14 38  1  0
 15 39  1  0
 18 40  1  0
 19 41  1  0
 21 42  1  0
 22 43  1  0
 23 44  1  0
 24 45  1  0
M  END
>  <smiles>  (28) 
O=C(NCC(=O)N1CCC[C@@H]1c1c[nH]cn1)c1ccc2ccccc2n1

>  <score_type>  (28) 
oracle

>  <origin>  (28) 
autodockgpu

>  <m_score__min__energy>  (28) 
-8.2300000000000004

>  <m_primary>  (28) 
energy

>  <rmsd>  (28) 
7.226336575059931

>  <m_score__min__rmsd>  (28) 
7.226336575059931

>  <meeko>  (28) 
{"free_energy": -7.14, "intermolecular_energy": -8.63, "internal_energy": -1.58, "cluster_size": 4, "cluster_id": 6, "rank_in_cluster": 2}

>  <energy>  (28) 
-7.72

>  <cluster_rmsd>  (28) 
1.39

>  <cluster>  (28) 
2

$$$$

     RDKit          3D

 45 48  0  0  0  0  0  0  0  0999 V2000
  141.3450   72.2910  221.6210 O   0  0  0  0  0  0  0  0  0  0  0  0
  140.4880   72.5140  222.5170 C   0  0  0  0  0  0  0  0  0  0  0  0
  139.7110   73.7090  222.3510 N   0  0  0  0  0  0  0  0  0  0  0  0
  140.0070   74.5050  221.1770 C   0  0  0  0  0  0  0  0  0  0  0  0
  139.9230   75.9340  221.5340 C   0  0  0  0  0  0  0  0  0  0  0  0
  139.0870   76.4300  222.3170 O   0  0  0  0  0  0  0  0  0  0  0  0
  140.8720   76.8420  220.9390 N   0  0  0  0  0  0  0  0  0  0  0  0
  142.1860   76.5190  220.4070 C   0  0  0  0  0  0  0  0  0  0  0  0
  142.0540   77.1690  219.0430 C   0  0  0  0  0  0  0  0  0  0  0  0
  141.3880   78.4880  219.4040 C   0  0  0  0  0  0  0  0  0  0  0  0
  140.7110   78.2830  220.7480 C   0  0  2  0  0  0  0  0  0  0  0  0
  141.4490   78.9910  221.8190 C   0  0  0  0  0  0  0  0  0  0  0  0
  142.2260   80.1250  221.7640 C   0  0  0  0  0  0  0  0  0  0  0  0
  142.6830   80.3690  223.0200 N   0  0  0  0  0  0  0  0  0  0  0  0
  142.1930   79.3970  223.8350 C   0  0  0  0  0  0  0  0  0  0  0  0
  141.4430   78.5580  223.1050 N   0  0  0  0  0  0  0  0  0  0  0  0
  140.2930   71.6240  223.6520 C   0  0  0  0  0  0  0  0  0  0  0  0
  139.6340   70.4400  223.4340 C   0  0  0  0  0  0  0  0  0  0  0  0
  139.4200   69.5570  224.4750 C   0  0  0  0  0  0  0  0  0  0  0  0
  139.8780   69.8820  225.7370 C   0  0  0  0  0  0  0  0  0  0  0  0
  139.6580   68.9910  226.7660 C   0  0  0  0  0  0  0  0  0  0  0  0
  140.1100   69.2980  228.0430 C   0  0  0  0  0  0  0  0  0  0  0  0
  140.7680   70.4940  228.2290 C   0  0  0  0  0  0  0  0  0  0  0  0
  140.9920   71.3960  227.1930 C   0  0  0  0  0  0  0  0  0  0  0  0
  140.5400   71.0800  225.9350 C   0  0  0  0  0  0  0  0  0  0  0  0
  140.7150   71.8890  224.8940 N   0  0  0  0  0  0  0  0  0  0  0  0
  138.9810   73.9610  223.0530 H   0  0  0  0  0  0  0  0  0  0  0  0
  141.0211   74.2728  220.8197 H   0  0  0  0  0  0  0  0  0  0  0  0
  139.2835   74.2770  220.3804 H   0  0  0  0  0  0  0  0  0  0  0  0
  142.9943   76.9689  221.0022 H   0  0  0  0  0  0  0  0  0  0  0  0
  142.4443   75.4498  220.3993 H   0  0  0  0  0  0  0  0  0  0  0  0
  143.0372   77.3289  218.5764 H   0  0  0  0  0  0  0  0  0  0  0  0
  141.4954   76.5683  218.3101 H   0  0  0  0  0  0  0  0  0  0  0  0
  142.1420   79.2856  219.4773 H   0  0  0  0  0  0  0  0  0  0  0  0
  140.6593   78.7860  218.6358 H   0  0  0  0  0  0  0  0  0  0  0  0
  139.6742   78.6491  220.7786 H   0  0  0  0  0  0  0  0  0  0  0  0
  142.4385   80.7248  220.8667 H   0  0  0  0  0  0  0  0  0  0  0  0
  143.3000   81.1640  223.2970 H   0  0  0  0  0  0  0  0  0  0  0  0
  142.3808   79.3126  224.9156 H   0  0  0  0  0  0  0  0  0  0  0  0
  139.2740   70.1925  222.4245 H   0  0  0  0  0  0  0  0  0  0  0  0
  138.8919   68.6078  224.3011 H   0  0  0  0  0  0  0  0  0  0  0  0
  139.1291   68.0452  226.5772 H   0  0  0  0  0  0  0  0  0  0  0  0
  139.9472   68.6057  228.8822 H   0  0  0  0  0  0  0  0  0  0  0  0
  141.1308   70.7461  229.2364 H   0  0  0  0  0  0  0  0  0  0  0  0
  141.5204   72.3429  227.3779 H   0  0  0  0  0  0  0  0  0  0  0  0
  1  2  2  0
  2  3  1  0
  3  4  1  0
  4  5  1  0
  5  6  2  0
  5  7  1  0
  7  8  1  0
  8  9  1  0
  9 10  1  0
 10 11  1  0
 11 12  1  0
 12 13  2  0
 13 14  1  0
 14 15  1  0
 15 16  2  0
  2 17  1  0
 17 18  2  0
 18 19  1  0
 19 20  2  0
 20 21  1  0
 21 22  2  0
 22 23  1  0
 23 24  2  0
 24 25  1  0
 25 26  2  0
 11  7  1  0
 16 12  1  0
 26 17  1  0
 25 20  1  0
  3 27  1  0
  4 28  1  0
  4 29  1  0
  8 30  1  0
  8 31  1  0
  9 32  1  0
  9 33  1  0
 10 34  1  0
 10 35  1  0
 11 36  1  6
 13 37  1  0
 14 38  1  0
 15 39  1  0
 18 40  1  0
 19 41  1  0
 21 42  1  0
 22 43  1  0
 23 44  1  0
 24 45  1  0
M  END
>  <smiles>  (29) 
O=C(NCC(=O)N1CCC[C@@H]1c1c[nH]cn1)c1ccc2ccccc2n1

>  <score_type>  (29) 
oracle

>  <origin>  (29) 
autodockgpu

>  <m_score__min__energy>  (29) 
-8.2300000000000004

>  <m_primary>  (29) 
energy

>  <rmsd>  (29) 
2.1968335281322

>  <m_score__min__rmsd>  (29) 
2.1968335281322

>  <meeko>  (29) 
{"free_energy": -7.73, "intermolecular_energy": -9.22, "internal_energy": -1.29, "cluster_size": 12, "cluster_id": 2, "rank_in_cluster": 6}

>  <energy>  (29) 
-7.72

>  <cluster_rmsd>  (29) 
1.36

>  <cluster>  (29) 
2

$$$$

     RDKit          3D

 45 48  0  0  0  0  0  0  0  0999 V2000
  139.8300   73.7550  222.5200 O   0  0  0  0  0  0  0  0  0  0  0  0
  140.1030   72.5330  222.3890 C   0  0  0  0  0  0  0  0  0  0  0  0
  140.4160   72.1060  221.0550 N   0  0  0  0  0  0  0  0  0  0  0  0
  140.3800   73.1310  220.0310 C   0  0  0  0  0  0  0  0  0  0  0  0
  141.5080   72.9200  219.1040 C   0  0  0  0  0  0  0  0  0  0  0  0
  141.6300   71.9470  218.3320 O   0  0  0  0  0  0  0  0  0  0  0  0
  142.5580   73.9080  219.0750 N   0  0  0  0  0  0  0  0  0  0  0  0
  143.2220   74.4540  217.9020 C   0  0  0  0  0  0  0  0  0  0  0  0
  143.0580   75.9310  218.2060 C   0  0  0  0  0  0  0  0  0  0  0  0
  143.3950   75.9700  219.6890 C   0  0  0  0  0  0  0  0  0  0  0  0
  143.1790   74.5660  220.2240 C   0  0  2  0  0  0  0  0  0  0  0  0
  144.4760   73.9090  220.5060 C   0  0  0  0  0  0  0  0  0  0  0  0
  144.8180   72.5760  220.5020 C   0  0  0  0  0  0  0  0  0  0  0  0
  146.1340   72.4900  220.8270 N   0  0  0  0  0  0  0  0  0  0  0  0
  146.5950   73.7530  221.0270 C   0  0  0  0  0  0  0  0  0  0  0  0
  145.5870   74.6170  220.8320 N   0  0  0  0  0  0  0  0  0  0  0  0
  140.1040   71.6060  223.5110 C   0  0  0  0  0  0  0  0  0  0  0  0
  139.5800   70.3540  223.3100 C   0  0  0  0  0  0  0  0  0  0  0  0
  139.5530   69.4330  224.3400 C   0  0  0  0  0  0  0  0  0  0  0  0
  140.0610   69.7900  225.5740 C   0  0  0  0  0  0  0  0  0  0  0  0
  140.0280   68.8610  226.5920 C   0  0  0  0  0  0  0  0  0  0  0  0
  140.5330   69.2000  227.8410 C   0  0  0  0  0  0  0  0  0  0  0  0
  141.0520   70.4650  228.0100 C   0  0  0  0  0  0  0  0  0  0  0  0
  141.0870   71.4050  226.9850 C   0  0  0  0  0  0  0  0  0  0  0  0
  140.5840   71.0580  225.7550 C   0  0  0  0  0  0  0  0  0  0  0  0
  140.5810   71.8990  224.7260 N   0  0  0  0  0  0  0  0  0  0  0  0
  140.6540   71.1070  220.8670 H   0  0  0  0  0  0  0  0  0  0  0  0
  139.4310   73.0677  219.4783 H   0  0  0  0  0  0  0  0  0  0  0  0
  140.4602   74.1249  220.4955 H   0  0  0  0  0  0  0  0  0  0  0  0
  144.2802   74.1579  217.8512 H   0  0  0  0  0  0  0  0  0  0  0  0
  142.8213   74.1221  216.9328 H   0  0  0  0  0  0  0  0  0  0  0  0
  143.7576   76.5432  217.6179 H   0  0  0  0  0  0  0  0  0  0  0  0
  142.0646   76.3338  217.9593 H   0  0  0  0  0  0  0  0  0  0  0  0
  144.4429   76.2727  219.8315 H   0  0  0  0  0  0  0  0  0  0  0  0
  142.7616   76.6965  220.2191 H   0  0  0  0  0  0  0  0  0  0  0  0
  142.5954   74.5351  221.1559 H   0  0  0  0  0  0  0  0  0  0  0  0
  144.1476   71.7335  220.2766 H   0  0  0  0  0  0  0  0  0  0  0  0
  146.6830   71.6050  220.9050 H   0  0  0  0  0  0  0  0  0  0  0  0
  147.6251   74.0225  221.3033 H   0  0  0  0  0  0  0  0  0  0  0  0
  139.1788   70.0816  222.3227 H   0  0  0  0  0  0  0  0  0  0  0  0
  139.1327   68.4292  224.1794 H   0  0  0  0  0  0  0  0  0  0  0  0
  139.6057   67.8605  226.4169 H   0  0  0  0  0  0  0  0  0  0  0  0
  140.5189   68.4789  228.6715 H   0  0  0  0  0  0  0  0  0  0  0  0
  141.4549   70.7430  228.9951 H   0  0  0  0  0  0  0  0  0  0  0  0
  141.5091   72.4062  227.1563 H   0  0  0  0  0  0  0  0  0  0  0  0
  1  2  2  0
  2  3  1  0
  3  4  1  0
  4  5  1  0
  5  6  2  0
  5  7  1  0
  7  8  1  0
  8  9  1  0
  9 10  1  0
 10 11  1  0
 11 12  1  0
 12 13  2  0
 13 14  1  0
 14 15  1  0
 15 16  2  0
  2 17  1  0
 17 18  2  0
 18 19  1  0
 19 20  2  0
 20 21  1  0
 21 22  2  0
 22 23  1  0
 23 24  2  0
 24 25  1  0
 25 26  2  0
 11  7  1  0
 16 12  1  0
 26 17  1  0
 25 20  1  0
  3 27  1  0
  4 28  1  0
  4 29  1  0
  8 30  1  0
  8 31  1  0
  9 32  1  0
  9 33  1  0
 10 34  1  0
 10 35  1  0
 11 36  1  1
 13 37  1  0
 14 38  1  0
 15 39  1  0
 18 40  1  0
 19 41  1  0
 21 42  1  0
 22 43  1  0
 23 44  1  0
 24 45  1  0
M  END
>  <smiles>  (30) 
O=C(NCC(=O)N1CCC[C@@H]1c1c[nH]cn1)c1ccc2ccccc2n1

>  <score_type>  (30) 
oracle

>  <origin>  (30) 
autodockgpu

>  <m_score__min__energy>  (30) 
-8.2300000000000004

>  <m_primary>  (30) 
energy

>  <rmsd>  (30) 
3.3978557723697023

>  <m_score__min__rmsd>  (30) 
3.3978557723697023

>  <meeko>  (30) 
{"free_energy": -7.6, "intermolecular_energy": -9.09, "internal_energy": -1.24, "cluster_size": 21, "cluster_id": 1, "rank_in_cluster": 16}

>  <energy>  (30) 
-7.66

>  <cluster_rmsd>  (30) 
1.37

>  <cluster>  (30) 
2

$$$$

     RDKit          3D

 45 48  0  0  0  0  0  0  0  0999 V2000
  140.9360   71.6860  221.4660 O   0  0  0  0  0  0  0  0  0  0  0  0
  140.2660   72.0880  222.4530 C   0  0  0  0  0  0  0  0  0  0  0  0
  139.5840   73.3380  222.2740 N   0  0  0  0  0  0  0  0  0  0  0  0
  139.7510   73.9770  220.9840 C   0  0  0  0  0  0  0  0  0  0  0  0
  140.8740   74.9320  221.0640 C   0  0  0  0  0  0  0  0  0  0  0  0
  141.0170   75.7970  221.9530 O   0  0  0  0  0  0  0  0  0  0  0  0
  141.8910   74.8730  220.0450 N   0  0  0  0  0  0  0  0  0  0  0  0
  141.8230   74.1770  218.7700 C   0  0  0  0  0  0  0  0  0  0  0  0
  142.2270   75.3180  217.8560 C   0  0  0  0  0  0  0  0  0  0  0  0
  143.3840   75.9270  218.6340 C   0  0  0  0  0  0  0  0  0  0  0  0
  143.2110   75.5030  220.0810 C   0  0  2  0  0  0  0  0  0  0  0  0
  144.2170   74.4810  220.4510 C   0  0  0  0  0  0  0  0  0  0  0  0
  144.1050   73.1120  220.5340 C   0  0  0  0  0  0  0  0  0  0  0  0
  145.3140   72.6260  220.9160 N   0  0  0  0  0  0  0  0  0  0  0  0
  146.1580   73.6810  221.0660 C   0  0  0  0  0  0  0  0  0  0  0  0
  145.4900   74.8110  220.7830 N   0  0  0  0  0  0  0  0  0  0  0  0
  140.1830   71.3410  223.6990 C   0  0  0  0  0  0  0  0  0  0  0  0
  139.5960   70.1010  223.6670 C   0  0  0  0  0  0  0  0  0  0  0  0
  139.4890   69.3480  224.8210 C   0  0  0  0  0  0  0  0  0  0  0  0
  139.9820   69.8590  226.0060 C   0  0  0  0  0  0  0  0  0  0  0  0
  139.8690   69.0960  227.1480 C   0  0  0  0  0  0  0  0  0  0  0  0
  140.3590   69.5920  228.3500 C   0  0  0  0  0  0  0  0  0  0  0  0
  140.9430   70.8390  228.3490 C   0  0  0  0  0  0  0  0  0  0  0  0
  141.0590   71.6120  227.1970 C   0  0  0  0  0  0  0  0  0  0  0  0
  140.5710   71.1110  226.0150 C   0  0  0  0  0  0  0  0  0  0  0  0
  140.6430   71.7880  224.8730 N   0  0  0  0  0  0  0  0  0  0  0  0
  139.0080   73.7360  223.0480 H   0  0  0  0  0  0  0  0  0  0  0  0
  139.9678   73.2156  220.2203 H   0  0  0  0  0  0  0  0  0  0  0  0
  138.8283   74.5095  220.7102 H   0  0  0  0  0  0  0  0  0  0  0  0
  142.5319   73.3374  218.7199 H   0  0  0  0  0  0  0  0  0  0  0  0
  140.8565   73.7051  218.5392 H   0  0  0  0  0  0  0  0  0  0  0  0
  142.5528   74.9498  216.8720 H   0  0  0  0  0  0  0  0  0  0  0  0
  141.4143   76.0242  217.6304 H   0  0  0  0  0  0  0  0  0  0  0  0
  144.3418   75.5541  218.2421 H   0  0  0  0  0  0  0  0  0  0  0  0
  143.3880   77.0231  218.5417 H   0  0  0  0  0  0  0  0  0  0  0  0
  143.3182   76.3308  220.7974 H   0  0  0  0  0  0  0  0  0  0  0  0
  143.2012   72.5196  220.3284 H   0  0  0  0  0  0  0  0  0  0  0  0
  145.5430   71.6180  221.0660 H   0  0  0  0  0  0  0  0  0  0  0  0
  147.2136   73.6193  221.3691 H   0  0  0  0  0  0  0  0  0  0  0  0
  139.2083   69.7040  222.7172 H   0  0  0  0  0  0  0  0  0  0  0  0
  139.0173   68.3546  224.7962 H   0  0  0  0  0  0  0  0  0  0  0  0
  139.3955   68.1039  227.1084 H   0  0  0  0  0  0  0  0  0  0  0  0
  140.2824   69.0046  229.2769 H   0  0  0  0  0  0  0  0  0  0  0  0
  141.3333   71.2403  229.2959 H   0  0  0  0  0  0  0  0  0  0  0  0
  141.5322   72.6044  227.2327 H   0  0  0  0  0  0  0  0  0  0  0  0
  1  2  2  0
  2  3  1  0
  3  4  1  0
  4  5  1  0
  5  6  2  0
  5  7  1  0
  7  8  1  0
  8  9  1  0
  9 10  1  0
 10 11  1  0
 11 12  1  0
 12 13  2  0
 13 14  1  0
 14 15  1  0
 15 16  2  0
  2 17  1  0
 17 18  2  0
 18 19  1  0
 19 20  2  0
 20 21  1  0
 21 22  2  0
 22 23  1  0
 23 24  2  0
 24 25  1  0
 25 26  2  0
 11  7  1  0
 16 12  1  0
 26 17  1  0
 25 20  1  0
  3 27  1  0
  4 28  1  0
  4 29  1  0
  8 30  1  0
  8 31  1  0
  9 32  1  0
  9 33  1  0
 10 34  1  0
 10 35  1  0
 11 36  1  1
 13 37  1  0
 14 38  1  0
 15 39  1  0
 18 40  1  0
 19 41  1  0
 21 42  1  0
 22 43  1  0
 23 44  1  0
 24 45  1  0
M  END
>  <smiles>  (31) 
O=C(NCC(=O)N1CCC[C@@H]1c1c[nH]cn1)c1ccc2ccccc2n1

>  <score_type>  (31) 
oracle

>  <origin>  (31) 
autodockgpu

>  <m_score__min__energy>  (31) 
-8.2300000000000004

>  <m_primary>  (31) 
energy

>  <rmsd>  (31) 
2.8218313812468834

>  <m_score__min__rmsd>  (31) 
2.8218313812468834

>  <meeko>  (31) 
{"free_energy": -8.23, "intermolecular_energy": -9.72, "internal_energy": -1.21, "cluster_size": 21, "cluster_id": 1, "rank_in_cluster": 1}

>  <energy>  (31) 
-7.65

>  <cluster_rmsd>  (31) 
1.15

>  <cluster>  (31) 
2

$$$$

     RDKit          3D

 45 48  0  0  0  0  0  0  0  0999 V2000
  140.3330   74.3710  222.1660 O   0  0  0  0  0  0  0  0  0  0  0  0
  140.2900   75.4140  221.4620 C   0  0  0  0  0  0  0  0  0  0  0  0
  140.2150   75.2050  220.0440 N   0  0  0  0  0  0  0  0  0  0  0  0
  140.1950   73.8250  219.6030 C   0  0  0  0  0  0  0  0  0  0  0  0
  141.3280   73.6010  218.6840 C   0  0  0  0  0  0  0  0  0  0  0  0
  141.3640   72.7330  217.7880 O   0  0  0  0  0  0  0  0  0  0  0  0
  142.4910   74.4420  218.8200 N   0  0  0  0  0  0  0  0  0  0  0  0
  143.2870   75.0250  217.7510 C   0  0  0  0  0  0  0  0  0  0  0  0
  143.2860   76.4680  218.2170 C   0  0  0  0  0  0  0  0  0  0  0  0
  143.5340   76.3000  219.7090 C   0  0  0  0  0  0  0  0  0  0  0  0
  143.1160   74.8850  220.0650 C   0  0  2  0  0  0  0  0  0  0  0  0
  144.3040   74.0400  220.3290 C   0  0  0  0  0  0  0  0  0  0  0  0
  144.4860   72.6860  220.1670 C   0  0  0  0  0  0  0  0  0  0  0  0
  145.7560   72.3950  220.5500 N   0  0  0  0  0  0  0  0  0  0  0  0
  146.3470   73.5550  220.9420 C   0  0  0  0  0  0  0  0  0  0  0  0
  145.4630   74.5560  220.8080 N   0  0  0  0  0  0  0  0  0  0  0  0
  140.3170   76.7500  222.0400 C   0  0  0  0  0  0  0  0  0  0  0  0
  139.1290   77.2900  222.4620 C   0  0  0  0  0  0  0  0  0  0  0  0
  139.0940   78.5550  223.0180 C   0  0  0  0  0  0  0  0  0  0  0  0
  140.2720   79.2670  223.1430 C   0  0  0  0  0  0  0  0  0  0  0  0
  140.2220   80.5270  223.7000 C   0  0  0  0  0  0  0  0  0  0  0  0
  141.3950   81.2590  223.8350 C   0  0  0  0  0  0  0  0  0  0  0  0
  142.5710   80.6880  223.4010 C   0  0  0  0  0  0  0  0  0  0  0  0
  142.6250   79.4170  222.8390 C   0  0  0  0  0  0  0  0  0  0  0  0
  141.4580   78.7020  222.7110 C   0  0  0  0  0  0  0  0  0  0  0  0
  141.4270   77.4820  222.1840 N   0  0  0  0  0  0  0  0  0  0  0  0
  140.1760   76.0220  219.3950 H   0  0  0  0  0  0  0  0  0  0  0  0
  140.2874   73.1579  220.4727 H   0  0  0  0  0  0  0  0  0  0  0  0
  139.2477   73.6124  219.0859 H   0  0  0  0  0  0  0  0  0  0  0  0
  144.3024   74.6034  217.7155 H   0  0  0  0  0  0  0  0  0  0  0  0
  142.9084   74.8559  216.7321 H   0  0  0  0  0  0  0  0  0  0  0  0
  144.0897   77.0464  217.7379 H   0  0  0  0  0  0  0  0  0  0  0  0
  142.3662   77.0195  217.9726 H   0  0  0  0  0  0  0  0  0  0  0  0
  144.6003   76.4483  219.9350 H   0  0  0  0  0  0  0  0  0  0  0  0
  142.9629   77.0389  220.2903 H   0  0  0  0  0  0  0  0  0  0  0  0
  142.4768   74.8271  220.9584 H   0  0  0  0  0  0  0  0  0  0  0  0
  143.7388   71.9695  219.7950 H   0  0  0  0  0  0  0  0  0  0  0  0
  146.1900   71.4450  220.5410 H   0  0  0  0  0  0  0  0  0  0  0  0
  147.3792   73.6564  221.3085 H   0  0  0  0  0  0  0  0  0  0  0  0
  138.1984   76.7129  222.3574 H   0  0  0  0  0  0  0  0  0  0  0  0
  138.1416   78.9891  223.3564 H   0  0  0  0  0  0  0  0  0  0  0  0
  139.2626   80.9487  224.0343 H   0  0  0  0  0  0  0  0  0  0  0  0
  141.3849   82.2666  224.2762 H   0  0  0  0  0  0  0  0  0  0  0  0
  143.5049   81.2603  223.5030 H   0  0  0  0  0  0  0  0  0  0  0  0
  143.5827   78.9923  222.5036 H   0  0  0  0  0  0  0  0  0  0  0  0
  1  2  2  0
  2  3  1  0
  3  4  1  0
  4  5  1  0
  5  6  2  0
  5  7  1  0
  7  8  1  0
  8  9  1  0
  9 10  1  0
 10 11  1  0
 11 12  1  0
 12 13  2  0
 13 14  1  0
 14 15  1  0
 15 16  2  0
  2 17  1  0
 17 18  2  0
 18 19  1  0
 19 20  2  0
 20 21  1  0
 21 22  2  0
 22 23  1  0
 23 24  2  0
 24 25  1  0
 25 26  2  0
 11  7  1  0
 16 12  1  0
 26 17  1  0
 25 20  1  0
  3 27  1  0
  4 28  1  0
  4 29  1  0
  8 30  1  0
  8 31  1  0
  9 32  1  0
  9 33  1  0
 10 34  1  0
 10 35  1  0
 11 36  1  1
 13 37  1  0
 14 38  1  0
 15 39  1  0
 18 40  1  0
 19 41  1  0
 21 42  1  0
 22 43  1  0
 23 44  1  0
 24 45  1  0
M  END
>  <smiles>  (32) 
O=C(NCC(=O)N1CCC[C@@H]1c1c[nH]cn1)c1ccc2ccccc2n1

>  <score_type>  (32) 
oracle

>  <origin>  (32) 
autodockgpu

>  <m_score__min__energy>  (32) 
-8.2300000000000004

>  <m_primary>  (32) 
energy

>  <rmsd>  (32) 
7.2274747023749315

>  <m_score__min__rmsd>  (32) 
7.2274747023749315

>  <meeko>  (32) 
{"free_energy": -7.07, "intermolecular_energy": -8.56, "internal_energy": -1.61, "cluster_size": 4, "cluster_id": 6, "rank_in_cluster": 4}

>  <energy>  (32) 
-7.63

>  <cluster_rmsd>  (32) 
1.32

>  <cluster>  (32) 
2

$$$$

     RDKit          3D

 45 48  0  0  0  0  0  0  0  0999 V2000
  140.9670   71.7470  221.4620 O   0  0  0  0  0  0  0  0  0  0  0  0
  140.3120   72.1630  222.4540 C   0  0  0  0  0  0  0  0  0  0  0  0
  139.6710   73.4350  222.2860 N   0  0  0  0  0  0  0  0  0  0  0  0
  139.8550   74.0790  221.0000 C   0  0  0  0  0  0  0  0  0  0  0  0
  141.0790   74.9010  221.0480 C   0  0  0  0  0  0  0  0  0  0  0  0
  141.4010   75.6550  221.9890 O   0  0  0  0  0  0  0  0  0  0  0  0
  141.9840   74.8410  219.9270 N   0  0  0  0  0  0  0  0  0  0  0  0
  141.7250   74.2690  218.6150 C   0  0  0  0  0  0  0  0  0  0  0  0
  142.1510   75.4450  217.7570 C   0  0  0  0  0  0  0  0  0  0  0  0
  143.4320   75.8750  218.4560 C   0  0  0  0  0  0  0  0  0  0  0  0
  143.3560   75.3420  219.8760 C   0  0  2  0  0  0  0  0  0  0  0  0
  144.2870   74.2040  220.0580 C   0  0  0  0  0  0  0  0  0  0  0  0
  144.9090   73.7360  221.1920 C   0  0  0  0  0  0  0  0  0  0  0  0
  145.6630   72.6660  220.8330 N   0  0  0  0  0  0  0  0  0  0  0  0
  145.5070   72.4780  219.4950 C   0  0  0  0  0  0  0  0  0  0  0  0
  144.6690   73.4140  219.0230 N   0  0  0  0  0  0  0  0  0  0  0  0
  140.2090   71.4100  223.6950 C   0  0  0  0  0  0  0  0  0  0  0  0
  139.6180   70.1720  223.6470 C   0  0  0  0  0  0  0  0  0  0  0  0
  139.4910   69.4130  224.7960 C   0  0  0  0  0  0  0  0  0  0  0  0
  139.9680   69.9160  225.9900 C   0  0  0  0  0  0  0  0  0  0  0  0
  139.8360   69.1470  227.1270 C   0  0  0  0  0  0  0  0  0  0  0  0
  140.3080   69.6360  228.3390 C   0  0  0  0  0  0  0  0  0  0  0  0
  140.8960   70.8810  228.3530 C   0  0  0  0  0  0  0  0  0  0  0  0
  141.0310   71.6600  227.2070 C   0  0  0  0  0  0  0  0  0  0  0  0
  140.5610   71.1660  226.0150 C   0  0  0  0  0  0  0  0  0  0  0  0
  140.6520   71.8490  224.8780 N   0  0  0  0  0  0  0  0  0  0  0  0
  139.1090   73.8460  223.0640 H   0  0  0  0  0  0  0  0  0  0  0  0
  139.9540   73.3147  220.2151 H   0  0  0  0  0  0  0  0  0  0  0  0
  138.9869   74.7159  220.7746 H   0  0  0  0  0  0  0  0  0  0  0  0
  142.3389   73.3761  218.4256 H   0  0  0  0  0  0  0  0  0  0  0  0
  140.6989   73.9089  218.4494 H   0  0  0  0  0  0  0  0  0  0  0  0
  142.3427   75.1373  216.7185 H   0  0  0  0  0  0  0  0  0  0  0  0
  141.3947   76.2394  217.6737 H   0  0  0  0  0  0  0  0  0  0  0  0
  144.3060   75.4522  217.9389 H   0  0  0  0  0  0  0  0  0  0  0  0
  143.5369   76.9700  218.4501 H   0  0  0  0  0  0  0  0  0  0  0  0
  143.6122   76.0898  220.6409 H   0  0  0  0  0  0  0  0  0  0  0  0
  144.8129   74.1530  222.2054 H   0  0  0  0  0  0  0  0  0  0  0  0
  146.2540   72.0960  221.4780 H   0  0  0  0  0  0  0  0  0  0  0  0
  145.9882   71.6891  218.8983 H   0  0  0  0  0  0  0  0  0  0  0  0
  139.2434   69.7815  222.6893 H   0  0  0  0  0  0  0  0  0  0  0  0
  139.0161   68.4215  224.7591 H   0  0  0  0  0  0  0  0  0  0  0  0
  139.3616   68.1559  227.0750 H   0  0  0  0  0  0  0  0  0  0  0  0
  140.2145   69.0448  229.2619 H   0  0  0  0  0  0  0  0  0  0  0  0
  141.2741   71.2758  229.3075 H   0  0  0  0  0  0  0  0  0  0  0  0
  141.5048   72.6516  227.2554 H   0  0  0  0  0  0  0  0  0  0  0  0
  1  2  2  0
  2  3  1  0
  3  4  1  0
  4  5  1  0
  5  6  2  0
  5  7  1  0
  7  8  1  0
  8  9  1  0
  9 10  1  0
 10 11  1  0
 11 12  1  0
 12 13  2  0
 13 14  1  0
 14 15  1  0
 15 16  2  0
  2 17  1  0
 17 18  2  0
 18 19  1  0
 19 20  2  0
 20 21  1  0
 21 22  2  0
 22 23  1  0
 23 24  2  0
 24 25  1  0
 25 26  2  0
 11  7  1  0
 16 12  1  0
 26 17  1  0
 25 20  1  0
  3 27  1  0
  4 28  1  0
  4 29  1  0
  8 30  1  0
  8 31  1  0
  9 32  1  0
  9 33  1  0
 10 34  1  0
 10 35  1  0
 11 36  1  1
 13 37  1  0
 14 38  1  0
 15 39  1  0
 18 40  1  0
 19 41  1  0
 21 42  1  0
 22 43  1  0
 23 44  1  0
 24 45  1  0
M  END
>  <smiles>  (33) 
O=C(NCC(=O)N1CCC[C@@H]1c1c[nH]cn1)c1ccc2ccccc2n1

>  <score_type>  (33) 
oracle

>  <origin>  (33) 
autodockgpu

>  <m_score__min__energy>  (33) 
-8.2300000000000004

>  <m_primary>  (33) 
energy

>  <rmsd>  (33) 
3.067557483120581

>  <m_score__min__rmsd>  (33) 
3.067557483120581

>  <meeko>  (33) 
{"free_energy": -7.96, "intermolecular_energy": -9.45, "internal_energy": -1.31, "cluster_size": 21, "cluster_id": 1, "rank_in_cluster": 9}

>  <energy>  (33) 
-7.59

>  <cluster_rmsd>  (33) 
1.29

>  <cluster>  (33) 
2

$$$$

     RDKit          3D

 45 48  0  0  0  0  0  0  0  0999 V2000
  141.1070   72.9260  222.0860 O   0  0  0  0  0  0  0  0  0  0  0  0
  140.0610   72.6390  222.7250 C   0  0  0  0  0  0  0  0  0  0  0  0
  138.8760   73.3430  222.3280 N   0  0  0  0  0  0  0  0  0  0  0  0
  139.0310   74.2930  221.2430 C   0  0  0  0  0  0  0  0  0  0  0  0
  139.4030   75.6050  221.8060 C   0  0  0  0  0  0  0  0  0  0  0  0
  138.8340   76.1610  222.7680 O   0  0  0  0  0  0  0  0  0  0  0  0
  140.5090   76.3120  221.2090 N   0  0  0  0  0  0  0  0  0  0  0  0
  141.8080   75.7710  220.8430 C   0  0  0  0  0  0  0  0  0  0  0  0
  141.8730   76.2630  219.4100 C   0  0  0  0  0  0  0  0  0  0  0  0
  141.3590   77.6870  219.5600 C   0  0  0  0  0  0  0  0  0  0  0  0
  140.5540   77.7290  220.8470 C   0  0  2  0  0  0  0  0  0  0  0  0
  141.2900   78.4660  221.9000 C   0  0  0  0  0  0  0  0  0  0  0  0
  141.3350   78.2650  223.2610 C   0  0  0  0  0  0  0  0  0  0  0  0
  142.1570   79.2100  223.7860 N   0  0  0  0  0  0  0  0  0  0  0  0
  142.6110   79.9820  222.7630 C   0  0  0  0  0  0  0  0  0  0  0  0
  142.0840   79.5290  221.6150 N   0  0  0  0  0  0  0  0  0  0  0  0
  140.0460   71.6570  223.8000 C   0  0  0  0  0  0  0  0  0  0  0  0
  139.4930   70.4290  223.5390 C   0  0  0  0  0  0  0  0  0  0  0  0
  139.4500   69.4580  224.5230 C   0  0  0  0  0  0  0  0  0  0  0  0
  139.9720   69.7420  225.7700 C   0  0  0  0  0  0  0  0  0  0  0  0
  139.9230   68.7650  226.7410 C   0  0  0  0  0  0  0  0  0  0  0  0
  140.4430   69.0300  228.0020 C   0  0  0  0  0  0  0  0  0  0  0  0
  140.9910   70.2730  228.2310 C   0  0  0  0  0  0  0  0  0  0  0  0
  141.0420   71.2620  227.2530 C   0  0  0  0  0  0  0  0  0  0  0  0
  140.5250   70.9870  226.0100 C   0  0  0  0  0  0  0  0  0  0  0  0
  140.5360   71.8790  225.0240 N   0  0  0  0  0  0  0  0  0  0  0  0
  137.9690   73.1590  222.8100 H   0  0  0  0  0  0  0  0  0  0  0  0
  139.8205   73.9473  220.5595 H   0  0  0  0  0  0  0  0  0  0  0  0
  138.0862   74.3806  220.6865 H   0  0  0  0  0  0  0  0  0  0  0  0
  142.6175   76.1884  221.4598 H   0  0  0  0  0  0  0  0  0  0  0  0
  141.9236   74.6853  220.9767 H   0  0  0  0  0  0  0  0  0  0  0  0
  142.9031   76.2452  219.0245 H   0  0  0  0  0  0  0  0  0  0  0  0
  141.3014   75.6506  218.6971 H   0  0  0  0  0  0  0  0  0  0  0  0
  142.2029   78.3902  219.6179 H   0  0  0  0  0  0  0  0  0  0  0  0
  140.7405   77.9765  218.6977 H   0  0  0  0  0  0  0  0  0  0  0  0
  139.5751   78.2188  220.7381 H   0  0  0  0  0  0  0  0  0  0  0  0
  140.8026   77.4821  223.8210 H   0  0  0  0  0  0  0  0  0  0  0  0
  142.3900   79.3160  224.7990 H   0  0  0  0  0  0  0  0  0  0  0  0
  143.2968   80.8365  222.8603 H   0  0  0  0  0  0  0  0  0  0  0  0
  139.0814   70.2154  222.5415 H   0  0  0  0  0  0  0  0  0  0  0  0
  139.0062   68.4731  224.3154 H   0  0  0  0  0  0  0  0  0  0  0  0
  139.4763   67.7844  226.5197 H   0  0  0  0  0  0  0  0  0  0  0  0
  140.4178   68.2684  228.7953 H   0  0  0  0  0  0  0  0  0  0  0  0
  141.4047   70.4926  229.2263 H   0  0  0  0  0  0  0  0  0  0  0  0
  141.4873   72.2440  227.4708 H   0  0  0  0  0  0  0  0  0  0  0  0
  1  2  2  0
  2  3  1  0
  3  4  1  0
  4  5  1  0
  5  6  2  0
  5  7  1  0
  7  8  1  0
  8  9  1  0
  9 10  1  0
 10 11  1  0
 11 12  1  0
 12 13  2  0
 13 14  1  0
 14 15  1  0
 15 16  2  0
  2 17  1  0
 17 18  2  0
 18 19  1  0
 19 20  2  0
 20 21  1  0
 21 22  2  0
 22 23  1  0
 23 24  2  0
 24 25  1  0
 25 26  2  0
 11  7  1  0
 16 12  1  0
 26 17  1  0
 25 20  1  0
  3 27  1  0
  4 28  1  0
  4 29  1  0
  8 30  1  0
  8 31  1  0
  9 32  1  0
  9 33  1  0
 10 34  1  0
 10 35  1  0
 11 36  1  6
 13 37  1  0
 14 38  1  0
 15 39  1  0
 18 40  1  0
 19 41  1  0
 21 42  1  0
 22 43  1  0
 23 44  1  0
 24 45  1  0
M  END
>  <smiles>  (34) 
O=C(NCC(=O)N1CCC[C@@H]1c1c[nH]cn1)c1ccc2ccccc2n1

>  <score_type>  (34) 
oracle

>  <origin>  (34) 
autodockgpu

>  <m_score__min__energy>  (34) 
-8.2300000000000004

>  <m_primary>  (34) 
energy

>  <rmsd>  (34) 
2.0128749507597203

>  <m_score__min__rmsd>  (34) 
2.0128749507597203

>  <meeko>  (34) 
{"free_energy": -7.63, "intermolecular_energy": -9.12, "internal_energy": -1.2, "cluster_size": 12, "cluster_id": 2, "rank_in_cluster": 11}

>  <energy>  (34) 
-7.77

>  <cluster_rmsd>  (34) 
0.0

>  <cluster>  (34) 
3

$$$$

     RDKit          3D

 45 48  0  0  0  0  0  0  0  0999 V2000
  135.5050   69.7110  224.4230 O   0  0  0  0  0  0  0  0  0  0  0  0
  135.6410   70.9570  224.5350 C   0  0  0  0  0  0  0  0  0  0  0  0
  136.7700   71.5240  223.8550 N   0  0  0  0  0  0  0  0  0  0  0  0
  137.6090   70.5940  223.1260 C   0  0  0  0  0  0  0  0  0  0  0  0
  138.9880   70.6890  223.6410 C   0  0  0  0  0  0  0  0  0  0  0  0
  139.9150   71.3240  223.0980 O   0  0  0  0  0  0  0  0  0  0  0  0
  139.3060   69.9990  224.8670 N   0  0  0  0  0  0  0  0  0  0  0  0
  138.3840   69.3070  225.7530 C   0  0  0  0  0  0  0  0  0  0  0  0
  139.1110   67.9800  225.8590 C   0  0  0  0  0  0  0  0  0  0  0  0
  140.5510   68.4420  226.0310 C   0  0  0  0  0  0  0  0  0  0  0  0
  140.6270   69.8530  225.4780 C   0  0  2  0  0  0  0  0  0  0  0  0
  140.7550   70.8390  226.5760 C   0  0  0  0  0  0  0  0  0  0  0  0
  140.1950   70.8510  227.8320 C   0  0  0  0  0  0  0  0  0  0  0  0
  140.6230   71.9750  228.4610 N   0  0  0  0  0  0  0  0  0  0  0  0
  141.4370   72.6460  227.6030 C   0  0  0  0  0  0  0  0  0  0  0  0
  141.5180   71.9550  226.4560 N   0  0  0  0  0  0  0  0  0  0  0  0
  134.7170   71.7790  225.3040 C   0  0  0  0  0  0  0  0  0  0  0  0
  133.7440   71.1410  226.0310 C   0  0  0  0  0  0  0  0  0  0  0  0
  132.8380   71.8710  226.7790 C   0  0  0  0  0  0  0  0  0  0  0  0
  132.9280   73.2500  226.7840 C   0  0  0  0  0  0  0  0  0  0  0  0
  132.0180   73.9640  227.5350 C   0  0  0  0  0  0  0  0  0  0  0  0
  132.0910   75.3510  227.5540 C   0  0  0  0  0  0  0  0  0  0  0  0
  133.0790   75.9600  226.8140 C   0  0  0  0  0  0  0  0  0  0  0  0
  133.9990   75.2430  226.0550 C   0  0  0  0  0  0  0  0  0  0  0  0
  133.9170   73.8710  226.0440 C   0  0  0  0  0  0  0  0  0  0  0  0
  134.7570   73.1150  225.3440 N   0  0  0  0  0  0  0  0  0  0  0  0
  136.9480   72.5520  223.9010 H   0  0  0  0  0  0  0  0  0  0  0  0
  137.2326   69.5699  223.2655 H   0  0  0  0  0  0  0  0  0  0  0  0
  137.5939   70.8403  222.0540 H   0  0  0  0  0  0  0  0  0  0  0  0
  138.2945   69.8077  226.7283 H   0  0  0  0  0  0  0  0  0  0  0  0
  137.3428   69.2502  225.4028 H   0  0  0  0  0  0  0  0  0  0  0  0
  138.7673   67.4008  226.7287 H   0  0  0  0  0  0  0  0  0  0  0  0
  138.9523   67.3096  225.0015 H   0  0  0  0  0  0  0  0  0  0  0  0
  140.8257   68.4373  227.0962 H   0  0  0  0  0  0  0  0  0  0  0  0
  141.2463   67.7728  225.5030 H   0  0  0  0  0  0  0  0  0  0  0  0
  141.4792   70.0147  224.8015 H   0  0  0  0  0  0  0  0  0  0  0  0
  139.5223   70.0881  228.2509 H   0  0  0  0  0  0  0  0  0  0  0  0
  140.3660   72.2620  229.4320 H   0  0  0  0  0  0  0  0  0  0  0  0
  141.9452   73.5983  227.8145 H   0  0  0  0  0  0  0  0  0  0  0  0
  133.6841   70.0427  226.0190 H   0  0  0  0  0  0  0  0  0  0  0  0
  132.0568   71.3610  227.3617 H   0  0  0  0  0  0  0  0  0  0  0  0
  131.2423   73.4405  228.1131 H   0  0  0  0  0  0  0  0  0  0  0  0
  131.3788   75.9463  228.1442 H   0  0  0  0  0  0  0  0  0  0  0  0
  133.1440   77.0580  226.8229 H   0  0  0  0  0  0  0  0  0  0  0  0
  134.7758   75.7635  225.4757 H   0  0  0  0  0  0  0  0  0  0  0  0
  1  2  2  0
  2  3  1  0
  3  4  1  0
  4  5  1  0
  5  6  2  0
  5  7  1  0
  7  8  1  0
  8  9  1  0
  9 10  1  0
 10 11  1  0
 11 12  1  0
 12 13  2  0
 13 14  1  0
 14 15  1  0
 15 16  2  0
  2 17  1  0
 17 18  2  0
 18 19  1  0
 19 20  2  0
 20 21  1  0
 21 22  2  0
 22 23  1  0
 23 24  2  0
 24 25  1  0
 25 26  2  0
 11  7  1  0
 16 12  1  0
 26 17  1  0
 25 20  1  0
  3 27  1  0
  4 28  1  0
  4 29  1  0
  8 30  1  0
  8 31  1  0
  9 32  1  0
  9 33  1  0
 10 34  1  0
 10 35  1  0
 11 36  1  6
 13 37  1  0
 14 38  1  0
 15 39  1  0
 18 40  1  0
 19 41  1  0
 21 42  1  0
 22 43  1  0
 23 44  1  0
 24 45  1  0
M  END
>  <smiles>  (35) 
O=C(NCC(=O)N1CCC[C@@H]1c1c[nH]cn1)c1ccc2ccccc2n1

>  <score_type>  (35) 
oracle

>  <origin>  (35) 
autodockgpu

>  <m_score__min__energy>  (35) 
-8.2300000000000004

>  <m_primary>  (35) 
energy

>  <rmsd>  (35) 
8.185158995960098

>  <m_score__min__rmsd>  (35) 
8.185158995960098

>  <meeko>  (35) 
{"free_energy": -7.37, "intermolecular_energy": -8.86, "internal_energy": -1.36, "cluster_size": 2, "cluster_id": 4, "rank_in_cluster": 2}

>  <energy>  (35) 
-7.69

>  <cluster_rmsd>  (35) 
0.75

>  <cluster>  (35) 
3

$$$$

     RDKit          3D

 45 48  0  0  0  0  0  0  0  0999 V2000
  140.4190   71.4970  221.3110 O   0  0  0  0  0  0  0  0  0  0  0  0
  140.0070   72.0230  222.3780 C   0  0  0  0  0  0  0  0  0  0  0  0
  139.4860   73.3540  222.2550 N   0  0  0  0  0  0  0  0  0  0  0  0
  139.4990   73.9230  220.9220 C   0  0  0  0  0  0  0  0  0  0  0  0
  140.4090   75.0840  220.9070 C   0  0  0  0  0  0  0  0  0  0  0  0
  140.2730   76.1130  221.6010 O   0  0  0  0  0  0  0  0  0  0  0  0
  141.5500   75.0430  220.0260 N   0  0  0  0  0  0  0  0  0  0  0  0
  141.5580   74.7190  218.6080 C   0  0  0  0  0  0  0  0  0  0  0  0
  142.3250   75.9230  218.0960 C   0  0  0  0  0  0  0  0  0  0  0  0
  143.4340   76.0320  219.1310 C   0  0  0  0  0  0  0  0  0  0  0  0
  142.9430   75.3170  220.3760 C   0  0  2  0  0  0  0  0  0  0  0  0
  143.6520   74.0280  220.5540 C   0  0  0  0  0  0  0  0  0  0  0  0
  144.9960   73.7610  220.6720 C   0  0  0  0  0  0  0  0  0  0  0  0
  145.1350   72.4180  220.8160 N   0  0  0  0  0  0  0  0  0  0  0  0
  143.8930   71.8670  220.7870 C   0  0  0  0  0  0  0  0  0  0  0  0
  142.9900   72.8460  220.6270 N   0  0  0  0  0  0  0  0  0  0  0  0
  140.0540   71.3330  223.6590 C   0  0  0  0  0  0  0  0  0  0  0  0
  139.5780   70.0470  223.7130 C   0  0  0  0  0  0  0  0  0  0  0  0
  139.5960   69.3440  224.9040 C   0  0  0  0  0  0  0  0  0  0  0  0
  140.1000   69.9530  226.0370 C   0  0  0  0  0  0  0  0  0  0  0  0
  140.1120   69.2400  227.2160 C   0  0  0  0  0  0  0  0  0  0  0  0
  140.6140   69.8350  228.3670 C   0  0  0  0  0  0  0  0  0  0  0  0
  141.0840   71.1260  228.2790 C   0  0  0  0  0  0  0  0  0  0  0  0
  141.0730   71.8490  227.0900 C   0  0  0  0  0  0  0  0  0  0  0  0
  140.5750   71.2500  225.9590 C   0  0  0  0  0  0  0  0  0  0  0  0
  140.5290   71.8750  224.7860 N   0  0  0  0  0  0  0  0  0  0  0  0
  139.1260   73.8560  223.0960 H   0  0  0  0  0  0  0  0  0  0  0  0
  139.8503   73.1691  220.2021 H   0  0  0  0  0  0  0  0  0  0  0  0
  138.4838   74.2415  220.6428 H   0  0  0  0  0  0  0  0  0  0  0  0
  142.0856   73.7758  218.4031 H   0  0  0  0  0  0  0  0  0  0  0  0
  140.5694   74.5584  218.1531 H   0  0  0  0  0  0  0  0  0  0  0  0
  142.7301   75.7440  217.0891 H   0  0  0  0  0  0  0  0  0  0  0  0
  141.7164   76.8332  217.9903 H   0  0  0  0  0  0  0  0  0  0  0  0
  144.3506   75.5532  218.7559 H   0  0  0  0  0  0  0  0  0  0  0  0
  143.6702   77.0843  219.3473 H   0  0  0  0  0  0  0  0  0  0  0  0
  143.0912   75.8937  221.3009 H   0  0  0  0  0  0  0  0  0  0  0  0
  145.8100   74.5006  220.6532 H   0  0  0  0  0  0  0  0  0  0  0  0
  146.0420   71.9110  220.9280 H   0  0  0  0  0  0  0  0  0  0  0  0
  143.6656   70.7947  220.8795 H   0  0  0  0  0  0  0  0  0  0  0  0
  139.1799   69.5726  222.8039 H   0  0  0  0  0  0  0  0  0  0  0  0
  139.2140   68.3134  224.9485 H   0  0  0  0  0  0  0  0  0  0  0  0
  139.7279   68.2097  227.2458 H   0  0  0  0  0  0  0  0  0  0  0  0
  140.6353   69.2896  229.3220 H   0  0  0  0  0  0  0  0  0  0  0  0
  141.4842   71.6051  229.1847 H   0  0  0  0  0  0  0  0  0  0  0  0
  141.4556   72.8798  227.0567 H   0  0  0  0  0  0  0  0  0  0  0  0
  1  2  2  0
  2  3  1  0
  3  4  1  0
  4  5  1  0
  5  6  2  0
  5  7  1  0
  7  8  1  0
  8  9  1  0
  9 10  1  0
 10 11  1  0
 11 12  1  0
 12 13  2  0
 13 14  1  0
 14 15  1  0
 15 16  2  0
  2 17  1  0
 17 18  2  0
 18 19  1  0
 19 20  2  0
 20 21  1  0
 21 22  2  0
 22 23  1  0
 23 24  2  0
 24 25  1  0
 25 26  2  0
 11  7  1  0
 16 12  1  0
 26 17  1  0
 25 20  1  0
  3 27  1  0
  4 28  1  0
  4 29  1  0
  8 30  1  0
  8 31  1  0
  9 32  1  0
  9 33  1  0
 10 34  1  0
 10 35  1  0
 11 36  1  1
 13 37  1  0
 14 38  1  0
 15 39  1  0
 18 40  1  0
 19 41  1  0
 21 42  1  0
 22 43  1  0
 23 44  1  0
 24 45  1  0
M  END
>  <smiles>  (36) 
O=C(NCC(=O)N1CCC[C@@H]1c1c[nH]cn1)c1ccc2ccccc2n1

>  <score_type>  (36) 
oracle

>  <origin>  (36) 
autodockgpu

>  <m_score__min__energy>  (36) 
-8.2300000000000004

>  <m_primary>  (36) 
energy

>  <rmsd>  (36) 
2.850690712378713

>  <m_score__min__rmsd>  (36) 
2.850690712378713

>  <meeko>  (36) 
{"free_energy": -7.66, "intermolecular_energy": -9.15, "internal_energy": -1.52, "cluster_size": 21, "cluster_id": 1, "rank_in_cluster": 15}

>  <energy>  (36) 
-7.51

>  <cluster_rmsd>  (36) 
1.41

>  <cluster>  (36) 
3

$$$$

     RDKit          3D

 45 48  0  0  0  0  0  0  0  0999 V2000
  141.7370   72.0560  221.0830 O   0  0  0  0  0  0  0  0  0  0  0  0
  141.0270   72.8960  221.6950 C   0  0  0  0  0  0  0  0  0  0  0  0
  140.0890   72.3510  222.6340 N   0  0  0  0  0  0  0  0  0  0  0  0
  140.0780   70.9080  222.7600 C   0  0  0  0  0  0  0  0  0  0  0  0
  138.9920   70.5160  223.6790 C   0  0  0  0  0  0  0  0  0  0  0  0
  137.7750   70.6990  223.4710 O   0  0  0  0  0  0  0  0  0  0  0  0
  139.3480   69.8710  224.9190 N   0  0  0  0  0  0  0  0  0  0  0  0
  138.4640   69.1640  225.8310 C   0  0  0  0  0  0  0  0  0  0  0  0
  139.2460   67.8720  225.9630 C   0  0  0  0  0  0  0  0  0  0  0  0
  140.6670   68.3970  226.1090 C   0  0  0  0  0  0  0  0  0  0  0  0
  140.6790   69.7950  225.5200 C   0  0  2  0  0  0  0  0  0  0  0  0
  140.7770   70.8140  226.5910 C   0  0  0  0  0  0  0  0  0  0  0  0
  140.1550   70.8780  227.8170 C   0  0  0  0  0  0  0  0  0  0  0  0
  140.5780   72.0120  228.4310 N   0  0  0  0  0  0  0  0  0  0  0  0
  141.4490   72.6380  227.5950 C   0  0  0  0  0  0  0  0  0  0  0  0
  141.5700   71.9090  226.4750 N   0  0  0  0  0  0  0  0  0  0  0  0
  141.1420   74.3300  221.4700 C   0  0  0  0  0  0  0  0  0  0  0  0
  142.0070   74.7600  220.4960 C   0  0  0  0  0  0  0  0  0  0  0  0
  142.1580   76.1100  220.2400 C   0  0  0  0  0  0  0  0  0  0  0  0
  141.4250   77.0200  220.9780 C   0  0  0  0  0  0  0  0  0  0  0  0
  141.5850   78.3630  220.7110 C   0  0  0  0  0  0  0  0  0  0  0  0
  140.8580   79.2940  221.4420 C   0  0  0  0  0  0  0  0  0  0  0  0
  139.9980   78.8300  222.4120 C   0  0  0  0  0  0  0  0  0  0  0  0
  139.8340   77.4750  222.6840 C   0  0  0  0  0  0  0  0  0  0  0  0
  140.5580   76.5640  221.9550 C   0  0  0  0  0  0  0  0  0  0  0  0
  140.4580   75.2530  222.1550 N   0  0  0  0  0  0  0  0  0  0  0  0
  139.4650   72.9850  223.1800 H   0  0  0  0  0  0  0  0  0  0  0  0
  139.9088   70.4526  221.7731 H   0  0  0  0  0  0  0  0  0  0  0  0
  141.0440   70.5614  223.1558 H   0  0  0  0  0  0  0  0  0  0  0  0
  138.3624   69.6852  226.7943 H   0  0  0  0  0  0  0  0  0  0  0  0
  137.4231   69.0551  225.4925 H   0  0  0  0  0  0  0  0  0  0  0  0
  138.9343   67.3015  226.8504 H   0  0  0  0  0  0  0  0  0  0  0  0
  139.1076   67.1740  225.1242 H   0  0  0  0  0  0  0  0  0  0  0  0
  140.9512   68.4309  227.1711 H   0  0  0  0  0  0  0  0  0  0  0  0
  141.3848   67.7438  225.5913 H   0  0  0  0  0  0  0  0  0  0  0  0
  141.5175   69.9739  224.8309 H   0  0  0  0  0  0  0  0  0  0  0  0
  139.4446   70.1439  228.2249 H   0  0  0  0  0  0  0  0  0  0  0  0
  140.2810   72.3370  229.3790 H   0  0  0  0  0  0  0  0  0  0  0  0
  141.9684   73.5852  227.8026 H   0  0  0  0  0  0  0  0  0  0  0  0
  142.5842   74.0257  219.9149 H   0  0  0  0  0  0  0  0  0  0  0  0
  142.8521   76.4553  219.4596 H   0  0  0  0  0  0  0  0  0  0  0  0
  142.2816   78.6941  219.9267 H   0  0  0  0  0  0  0  0  0  0  0  0
  140.9664   80.3719  221.2512 H   0  0  0  0  0  0  0  0  0  0  0  0
  139.4172   79.5596  222.9954 H   0  0  0  0  0  0  0  0  0  0  0  0
  139.1382   77.1404  223.4675 H   0  0  0  0  0  0  0  0  0  0  0  0
  1  2  2  0
  2  3  1  0
  3  4  1  0
  4  5  1  0
  5  6  2  0
  5  7  1  0
  7  8  1  0
  8  9  1  0
  9 10  1  0
 10 11  1  0
 11 12  1  0
 12 13  2  0
 13 14  1  0
 14 15  1  0
 15 16  2  0
  2 17  1  0
 17 18  2  0
 18 19  1  0
 19 20  2  0
 20 21  1  0
 21 22  2  0
 22 23  1  0
 23 24  2  0
 24 25  1  0
 25 26  2  0
 11  7  1  0
 16 12  1  0
 26 17  1  0
 25 20  1  0
  3 27  1  0
  4 28  1  0
  4 29  1  0
  8 30  1  0
  8 31  1  0
  9 32  1  0
  9 33  1  0
 10 34  1  0
 10 35  1  0
 11 36  1  6
 13 37  1  0
 14 38  1  0
 15 39  1  0
 18 40  1  0
 19 41  1  0
 21 42  1  0
 22 43  1  0
 23 44  1  0
 24 45  1  0
M  END
>  <smiles>  (37) 
O=C(NCC(=O)N1CCC[C@@H]1c1c[nH]cn1)c1ccc2ccccc2n1

>  <score_type>  (37) 
oracle

>  <origin>  (37) 
autodockgpu

>  <m_score__min__energy>  (37) 
-8.2300000000000004

>  <m_primary>  (37) 
energy

>  <rmsd>  (37) 
8.558879526594541

>  <m_score__min__rmsd>  (37) 
8.558879526594541

>  <meeko>  (37) 
{"free_energy": -7.51, "intermolecular_energy": -9.0, "internal_energy": -1.26, "cluster_size": 4, "cluster_id": 3, "rank_in_cluster": 3}

>  <energy>  (37) 
-7.31

>  <cluster_rmsd>  (37) 
1.76

>  <cluster>  (37) 
3

$$$$

     RDKit          3D

 45 48  0  0  0  0  0  0  0  0999 V2000
  140.3520   71.2390  221.1800 O   0  0  0  0  0  0  0  0  0  0  0  0
  139.9440   71.8470  222.2040 C   0  0  0  0  0  0  0  0  0  0  0  0
  139.4370   73.1710  221.9800 N   0  0  0  0  0  0  0  0  0  0  0  0
  139.4570   73.6380  220.6090 C   0  0  0  0  0  0  0  0  0  0  0  0
  140.1350   74.9480  220.5590 C   0  0  0  0  0  0  0  0  0  0  0  0
  139.7020   76.0000  221.0730 O   0  0  0  0  0  0  0  0  0  0  0  0
  141.3960   75.0360  219.8670 N   0  0  0  0  0  0  0  0  0  0  0  0
  141.6280   74.9090  218.4370 C   0  0  0  0  0  0  0  0  0  0  0  0
  142.4290   76.1770  218.2140 C   0  0  0  0  0  0  0  0  0  0  0  0
  143.3660   76.1520  219.4130 C   0  0  0  0  0  0  0  0  0  0  0  0
  142.7120   75.2700  220.4610 C   0  0  2  0  0  0  0  0  0  0  0  0
  143.4220   73.9740  220.5710 C   0  0  0  0  0  0  0  0  0  0  0  0
  144.7520   73.7050  220.7990 C   0  0  0  0  0  0  0  0  0  0  0  0
  144.9000   72.3550  220.8110 N   0  0  0  0  0  0  0  0  0  0  0  0
  143.6770   71.8020  220.5940 C   0  0  0  0  0  0  0  0  0  0  0  0
  142.7780   72.7870  220.4470 N   0  0  0  0  0  0  0  0  0  0  0  0
  139.9820   71.2540  223.5330 C   0  0  0  0  0  0  0  0  0  0  0  0
  139.4810   69.9860  223.6850 C   0  0  0  0  0  0  0  0  0  0  0  0
  139.4900   69.3750  224.9250 C   0  0  0  0  0  0  0  0  0  0  0  0
  140.0110   70.0570  226.0070 C   0  0  0  0  0  0  0  0  0  0  0  0
  140.0140   69.4340  227.2370 C   0  0  0  0  0  0  0  0  0  0  0  0
  140.5330   70.1030  228.3380 C   0  0  0  0  0  0  0  0  0  0  0  0
  141.0290   71.3740  228.1520 C   0  0  0  0  0  0  0  0  0  0  0  0
  141.0270   72.0060  226.9120 C   0  0  0  0  0  0  0  0  0  0  0  0
  140.5110   71.3350  225.8310 C   0  0  0  0  0  0  0  0  0  0  0  0
  140.4730   71.8700  224.6140 N   0  0  0  0  0  0  0  0  0  0  0  0
  139.0810   73.7380  222.7800 H   0  0  0  0  0  0  0  0  0  0  0  0
  140.0009   72.9167  219.9813 H   0  0  0  0  0  0  0  0  0  0  0  0
  138.4275   73.7371  220.2344 H   0  0  0  0  0  0  0  0  0  0  0  0
  142.2071   74.0066  218.1915 H   0  0  0  0  0  0  0  0  0  0  0  0
  140.7245   74.8048  217.8182 H   0  0  0  0  0  0  0  0  0  0  0  0
  142.9864   76.1399  217.2664 H   0  0  0  0  0  0  0  0  0  0  0  0
  141.8180   77.0886  218.1385 H   0  0  0  0  0  0  0  0  0  0  0  0
  144.3418   75.7355  219.1226 H   0  0  0  0  0  0  0  0  0  0  0  0
  143.5375   77.1667  219.8017 H   0  0  0  0  0  0  0  0  0  0  0  0
  142.7019   75.7160  221.4665 H   0  0  0  0  0  0  0  0  0  0  0  0
  145.5500   74.4479  220.9449 H   0  0  0  0  0  0  0  0  0  0  0  0
  145.7980   71.8450  220.9620 H   0  0  0  0  0  0  0  0  0  0  0  0
  143.4603   70.7246  220.5467 H   0  0  0  0  0  0  0  0  0  0  0  0
  139.0698   69.4525  222.8153 H   0  0  0  0  0  0  0  0  0  0  0  0
  139.0874   68.3588  225.0483 H   0  0  0  0  0  0  0  0  0  0  0  0
  139.6093   68.4169  227.3453 H   0  0  0  0  0  0  0  0  0  0  0  0
  140.5474   69.6305  229.3312 H   0  0  0  0  0  0  0  0  0  0  0  0
  141.4433   71.9112  229.0179 H   0  0  0  0  0  0  0  0  0  0  0  0
  141.4308   73.0231  226.8002 H   0  0  0  0  0  0  0  0  0  0  0  0
  1  2  2  0
  2  3  1  0
  3  4  1  0
  4  5  1  0
  5  6  2  0
  5  7  1  0
  7  8  1  0
  8  9  1  0
  9 10  1  0
 10 11  1  0
 11 12  1  0
 12 13  2  0
 13 14  1  0
 14 15  1  0
 15 16  2  0
  2 17  1  0
 17 18  2  0
 18 19  1  0
 19 20  2  0
 20 21  1  0
 21 22  2  0
 22 23  1  0
 23 24  2  0
 24 25  1  0
 25 26  2  0
 11  7  1  0
 16 12  1  0
 26 17  1  0
 25 20  1  0
  3 27  1  0
  4 28  1  0
  4 29  1  0
  8 30  1  0
  8 31  1  0
  9 32  1  0
  9 33  1  0
 10 34  1  0
 10 35  1  0
 11 36  1  1
 13 37  1  0
 14 38  1  0
 15 39  1  0
 18 40  1  0
 19 41  1  0
 21 42  1  0
 22 43  1  0
 23 44  1  0
 24 45  1  0
M  END
>  <smiles>  (38) 
O=C(NCC(=O)N1CCC[C@@H]1c1c[nH]cn1)c1ccc2ccccc2n1

>  <score_type>  (38) 
oracle

>  <origin>  (38) 
autodockgpu

>  <m_score__min__energy>  (38) 
-8.2300000000000004

>  <m_primary>  (38) 
energy

>  <rmsd>  (38) 
2.874537859068956

>  <m_score__min__rmsd>  (38) 
2.874537859068956

>  <meeko>  (38) 
{"free_energy": -7.43, "intermolecular_energy": -8.92, "internal_energy": -1.54, "cluster_size": 21, "cluster_id": 1, "rank_in_cluster": 20}

>  <energy>  (38) 
-7.41

>  <cluster_rmsd>  (38) 
0.0

>  <cluster>  (38) 
4

$$$$

     RDKit          3D

 45 48  0  0  0  0  0  0  0  0999 V2000
  140.3030   74.4790  222.3210 O   0  0  0  0  0  0  0  0  0  0  0  0
  140.0990   75.5050  221.6190 C   0  0  0  0  0  0  0  0  0  0  0  0
  139.7670   75.2620  220.2450 N   0  0  0  0  0  0  0  0  0  0  0  0
  139.7050   73.8720  219.8390 C   0  0  0  0  0  0  0  0  0  0  0  0
  141.0530   73.2810  219.9490 C   0  0  0  0  0  0  0  0  0  0  0  0
  141.3060   72.1510  220.4150 O   0  0  0  0  0  0  0  0  0  0  0  0
  142.1760   74.0580  219.4860 N   0  0  0  0  0  0  0  0  0  0  0  0
  142.6530   74.1900  218.1190 C   0  0  0  0  0  0  0  0  0  0  0  0
  142.7080   75.7040  218.0330 C   0  0  0  0  0  0  0  0  0  0  0  0
  143.3280   76.0560  219.3770 C   0  0  0  0  0  0  0  0  0  0  0  0
  143.0740   74.8780  220.3000 C   0  0  2  0  0  0  0  0  0  0  0  0
  144.3240   74.1210  220.5380 C   0  0  0  0  0  0  0  0  0  0  0  0
  144.5640   72.7660  220.5100 C   0  0  0  0  0  0  0  0  0  0  0  0
  145.8770   72.5770  220.7970 N   0  0  0  0  0  0  0  0  0  0  0  0
  146.4390   73.7990  220.9990 C   0  0  0  0  0  0  0  0  0  0  0  0
  145.4940   74.7390  220.8410 N   0  0  0  0  0  0  0  0  0  0  0  0
  140.1950   76.8530  222.1580 C   0  0  0  0  0  0  0  0  0  0  0  0
  139.0320   77.4800  222.5290 C   0  0  0  0  0  0  0  0  0  0  0  0
  139.0630   78.7620  223.0460 C   0  0  0  0  0  0  0  0  0  0  0  0
  140.2790   79.4020  223.1850 C   0  0  0  0  0  0  0  0  0  0  0  0
  140.2940   80.6800  223.7030 C   0  0  0  0  0  0  0  0  0  0  0  0
  141.5070   81.3410  223.8500 C   0  0  0  0  0  0  0  0  0  0  0  0
  142.6560   80.6840  223.4690 C   0  0  0  0  0  0  0  0  0  0  0  0
  142.6440   79.3940  222.9460 C   0  0  0  0  0  0  0  0  0  0  0  0
  141.4390   78.7510  222.8050 C   0  0  0  0  0  0  0  0  0  0  0  0
  141.3450   77.5190  222.3130 N   0  0  0  0  0  0  0  0  0  0  0  0
  139.5840   76.0620  219.6000 H   0  0  0  0  0  0  0  0  0  0  0  0
  139.0084   73.3270  220.4931 H   0  0  0  0  0  0  0  0  0  0  0  0
  139.3515   73.8028  218.7996 H   0  0  0  0  0  0  0  0  0  0  0  0
  143.6440   73.7327  217.9818 H   0  0  0  0  0  0  0  0  0  0  0  0
  142.0384   73.6943  217.3532 H   0  0  0  0  0  0  0  0  0  0  0  0
  143.3413   76.0372  217.1976 H   0  0  0  0  0  0  0  0  0  0  0  0
  141.7341   76.1806  217.8473 H   0  0  0  0  0  0  0  0  0  0  0  0
  144.4095   76.2215  219.2633 H   0  0  0  0  0  0  0  0  0  0  0  0
  142.8885   76.9783  219.7846 H   0  0  0  0  0  0  0  0  0  0  0  0
  142.6830   75.1685  221.2863 H   0  0  0  0  0  0  0  0  0  0  0  0
  143.8259   71.9794  220.2943 H   0  0  0  0  0  0  0  0  0  0  0  0
  146.3600   71.6520  220.8510 H   0  0  0  0  0  0  0  0  0  0  0  0
  147.4935   73.9860  221.2503 H   0  0  0  0  0  0  0  0  0  0  0  0
  138.0696   76.9597  222.4144 H   0  0  0  0  0  0  0  0  0  0  0  0
  138.1312   79.2657  223.3428 H   0  0  0  0  0  0  0  0  0  0  0  0
  139.3547   81.1712  223.9969 H   0  0  0  0  0  0  0  0  0  0  0  0
  141.5487   82.3611  224.2595 H   0  0  0  0  0  0  0  0  0  0  0  0
  143.6213   81.1990  223.5825 H   0  0  0  0  0  0  0  0  0  0  0  0
  143.5814   78.8995  222.6515 H   0  0  0  0  0  0  0  0  0  0  0  0
  1  2  2  0
  2  3  1  0
  3  4  1  0
  4  5  1  0
  5  6  2  0
  5  7  1  0
  7  8  1  0
  8  9  1  0
  9 10  1  0
 10 11  1  0
 11 12  1  0
 12 13  2  0
 13 14  1  0
 14 15  1  0
 15 16  2  0
  2 17  1  0
 17 18  2  0
 18 19  1  0
 19 20  2  0
 20 21  1  0
 21 22  2  0
 22 23  1  0
 23 24  2  0
 24 25  1  0
 25 26  2  0
 11  7  1  0
 16 12  1  0
 26 17  1  0
 25 20  1  0
  3 27  1  0
  4 28  1  0
  4 29  1  0
  8 30  1  0
  8 31  1  0
  9 32  1  0
  9 33  1  0
 10 34  1  0
 10 35  1  0
 11 36  1  1
 13 37  1  0
 14 38  1  0
 15 39  1  0
 18 40  1  0
 19 41  1  0
 21 42  1  0
 22 43  1  0
 23 44  1  0
 24 45  1  0
M  END
>  <smiles>  (39) 
O=C(NCC(=O)N1CCC[C@@H]1c1c[nH]cn1)c1ccc2ccccc2n1

>  <score_type>  (39) 
oracle

>  <origin>  (39) 
autodockgpu

>  <m_score__min__energy>  (39) 
-8.2300000000000004

>  <m_primary>  (39) 
energy

>  <rmsd>  (39) 
7.157194012858434

>  <m_score__min__rmsd>  (39) 
7.157194012858434

>  <meeko>  (39) 
{"free_energy": -7.12, "intermolecular_energy": -8.61, "internal_energy": -1.56, "cluster_size": 4, "cluster_id": 6, "rank_in_cluster": 3}

>  <energy>  (39) 
-7.37

>  <cluster_rmsd>  (39) 
0.63

>  <cluster>  (39) 
4

$$$$

     RDKit          3D

 45 48  0  0  0  0  0  0  0  0999 V2000
  139.0140   75.2460  221.5800 O   0  0  0  0  0  0  0  0  0  0  0  0
  140.1360   75.7800  221.7770 C   0  0  0  0  0  0  0  0  0  0  0  0
  141.2760   74.9740  221.4460 N   0  0  0  0  0  0  0  0  0  0  0  0
  140.9920   73.6510  220.9260 C   0  0  0  0  0  0  0  0  0  0  0  0
  142.2410   72.8650  220.9090 C   0  0  0  0  0  0  0  0  0  0  0  0
  142.3890   71.7410  221.4310 O   0  0  0  0  0  0  0  0  0  0  0  0
  143.3890   73.4270  220.2420 N   0  0  0  0  0  0  0  0  0  0  0  0
  144.6600   73.8030  220.8410 C   0  0  0  0  0  0  0  0  0  0  0  0
  145.5920   73.0590  219.9040 C   0  0  0  0  0  0  0  0  0  0  0  0
  144.9620   73.3640  218.5530 C   0  0  0  0  0  0  0  0  0  0  0  0
  143.5150   73.7380  218.8190 C   0  0  2  0  0  0  0  0  0  0  0  0
  143.3080   75.1930  218.6290 C   0  0  0  0  0  0  0  0  0  0  0  0
  143.4210   75.9680  217.4980 C   0  0  0  0  0  0  0  0  0  0  0  0
  143.1270   77.2460  217.8470 N   0  0  0  0  0  0  0  0  0  0  0  0
  142.8380   77.2580  219.1760 C   0  0  0  0  0  0  0  0  0  0  0  0
  142.9480   76.0090  219.6520 N   0  0  0  0  0  0  0  0  0  0  0  0
  140.2790   77.1280  222.3080 C   0  0  0  0  0  0  0  0  0  0  0  0
  139.1390   77.7990  222.6700 C   0  0  0  0  0  0  0  0  0  0  0  0
  139.2150   79.0830  223.1790 C   0  0  0  0  0  0  0  0  0  0  0  0
  140.4530   79.6790  223.3180 C   0  0  0  0  0  0  0  0  0  0  0  0
  140.5130   80.9580  223.8270 C   0  0  0  0  0  0  0  0  0  0  0  0
  141.7490   81.5760  223.9740 C   0  0  0  0  0  0  0  0  0  0  0  0
  142.8740   80.8750  223.6010 C   0  0  0  0  0  0  0  0  0  0  0  0
  142.8170   79.5830  223.0870 C   0  0  0  0  0  0  0  0  0  0  0  0
  141.5900   78.9830  222.9460 C   0  0  0  0  0  0  0  0  0  0  0  0
  141.4520   77.7530  222.4620 N   0  0  0  0  0  0  0  0  0  0  0  0
  142.2410   75.3480  221.5810 H   0  0  0  0  0  0  0  0  0  0  0  0
  140.2512   73.1530  221.5687 H   0  0  0  0  0  0  0  0  0  0  0  0
  140.5882   73.7306  219.9059 H   0  0  0  0  0  0  0  0  0  0  0  0
  144.8252   74.8901  220.8100 H   0  0  0  0  0  0  0  0  0  0  0  0
  144.7701   73.5616  221.9085 H   0  0  0  0  0  0  0  0  0  0  0  0
  146.6194   73.4470  219.9661 H   0  0  0  0  0  0  0  0  0  0  0  0
  145.6892   71.9856  220.1238 H   0  0  0  0  0  0  0  0  0  0  0  0
  145.4872   74.2015  218.0705 H   0  0  0  0  0  0  0  0  0  0  0  0
  145.0284   72.4956  217.8811 H   0  0  0  0  0  0  0  0  0  0  0  0
  142.7997   73.2239  218.1602 H   0  0  0  0  0  0  0  0  0  0  0  0
  143.6991   75.6159  216.4937 H   0  0  0  0  0  0  0  0  0  0  0  0
  143.1270   78.0670  217.2010 H   0  0  0  0  0  0  0  0  0  0  0  0
  142.5600   78.1455  219.7634 H   0  0  0  0  0  0  0  0  0  0  0  0
  138.1587   77.3134  222.5549 H   0  0  0  0  0  0  0  0  0  0  0  0
  138.3013   79.6223  223.4693 H   0  0  0  0  0  0  0  0  0  0  0  0
  139.5912   81.4850  224.1143 H   0  0  0  0  0  0  0  0  0  0  0  0
  141.8265   82.5966  224.3770 H   0  0  0  0  0  0  0  0  0  0  0  0
  143.8571   81.3555  223.7138 H   0  0  0  0  0  0  0  0  0  0  0  0
  143.7369   79.0528  222.7993 H   0  0  0  0  0  0  0  0  0  0  0  0
  1  2  2  0
  2  3  1  0
  3  4  1  0
  4  5  1  0
  5  6  2  0
  5  7  1  0
  7  8  1  0
  8  9  1  0
  9 10  1  0
 10 11  1  0
 11 12  1  0
 12 13  2  0
 13 14  1  0
 14 15  1  0
 15 16  2  0
  2 17  1  0
 17 18  2  0
 18 19  1  0
 19 20  2  0
 20 21  1  0
 21 22  2  0
 22 23  1  0
 23 24  2  0
 24 25  1  0
 25 26  2  0
 11  7  1  0
 16 12  1  0
 26 17  1  0
 25 20  1  0
  3 27  1  0
  4 28  1  0
  4 29  1  0
  8 30  1  0
  8 31  1  0
  9 32  1  0
  9 33  1  0
 10 34  1  0
 10 35  1  0
 11 36  1  6
 13 37  1  0
 14 38  1  0
 15 39  1  0
 18 40  1  0
 19 41  1  0
 21 42  1  0
 22 43  1  0
 23 44  1  0
 24 45  1  0
M  END
>  <smiles>  (40) 
O=C(NCC(=O)N1CCC[C@@H]1c1c[nH]cn1)c1ccc2ccccc2n1

>  <score_type>  (40) 
oracle

>  <origin>  (40) 
autodockgpu

>  <m_score__min__energy>  (40) 
-8.2300000000000004

>  <m_primary>  (40) 
energy

>  <rmsd>  (40) 
7.5583486395386625

>  <m_score__min__rmsd>  (40) 
7.5583486395386625

>  <meeko>  (40) 
{"free_energy": -6.66, "intermolecular_energy": -8.15, "internal_energy": -2.23, "cluster_size": 4, "cluster_id": 8, "rank_in_cluster": 1}

>  <energy>  (40) 
-7.28

>  <cluster_rmsd>  (40) 
0.0

>  <cluster>  (40) 
5

$$$$

     RDKit          3D

 45 48  0  0  0  0  0  0  0  0999 V2000
  141.4560   71.5350  221.6410 O   0  0  0  0  0  0  0  0  0  0  0  0
  140.6070   72.4030  221.9730 C   0  0  0  0  0  0  0  0  0  0  0  0
  139.4390   71.9070  222.6420 N   0  0  0  0  0  0  0  0  0  0  0  0
  139.3840   70.4730  222.8510 C   0  0  0  0  0  0  0  0  0  0  0  0
  138.6150   70.1980  224.0800 C   0  0  0  0  0  0  0  0  0  0  0  0
  137.3890   70.3890  224.2180 O   0  0  0  0  0  0  0  0  0  0  0  0
  139.3220   69.6680  225.2200 N   0  0  0  0  0  0  0  0  0  0  0  0
  138.7660   68.8970  226.3200 C   0  0  0  0  0  0  0  0  0  0  0  0
  139.7290   67.7260  226.2980 C   0  0  0  0  0  0  0  0  0  0  0  0
  141.0610   68.4380  226.1110 C   0  0  0  0  0  0  0  0  0  0  0  0
  140.7500   69.7960  225.5080 C   0  0  2  0  0  0  0  0  0  0  0  0
  140.9390   70.8700  226.5100 C   0  0  0  0  0  0  0  0  0  0  0  0
  141.4290   72.1470  226.3650 C   0  0  0  0  0  0  0  0  0  0  0  0
  141.3990   72.7380  227.5870 N   0  0  0  0  0  0  0  0  0  0  0  0
  140.8980   71.8370  228.4720 C   0  0  0  0  0  0  0  0  0  0  0  0
  140.6170   70.6990  227.8180 N   0  0  0  0  0  0  0  0  0  0  0  0
  140.7900   73.8210  221.7000 C   0  0  0  0  0  0  0  0  0  0  0  0
  141.7240   74.1790  220.7610 C   0  0  0  0  0  0  0  0  0  0  0  0
  141.9410   75.5120  220.4630 C   0  0  0  0  0  0  0  0  0  0  0  0
  141.2030   76.4770  221.1210 C   0  0  0  0  0  0  0  0  0  0  0  0
  141.4300   77.8010  220.8120 C   0  0  0  0  0  0  0  0  0  0  0  0
  140.6990   78.7870  221.4640 C   0  0  0  0  0  0  0  0  0  0  0  0
  139.7690   78.3950  222.4000 C   0  0  0  0  0  0  0  0  0  0  0  0
  139.5380   77.0590  222.7150 C   0  0  0  0  0  0  0  0  0  0  0  0
  140.2660   76.0930  222.0640 C   0  0  0  0  0  0  0  0  0  0  0  0
  140.1050   74.7960  222.3090 N   0  0  0  0  0  0  0  0  0  0  0  0
  138.6900   72.5660  222.9490 H   0  0  0  0  0  0  0  0  0  0  0  0
  138.8916   69.9934  221.9923 H   0  0  0  0  0  0  0  0  0  0  0  0
  140.4033   70.0718  222.9516 H   0  0  0  0  0  0  0  0  0  0  0  0
  138.8070   69.4471  227.2717 H   0  0  0  0  0  0  0  0  0  0  0  0
  137.7015   68.6365  226.2251 H   0  0  0  0  0  0  0  0  0  0  0  0
  139.7019   67.1646  227.2436 H   0  0  0  0  0  0  0  0  0  0  0  0
  139.5074   66.9752  225.5252 H   0  0  0  0  0  0  0  0  0  0  0  0
  141.5646   68.5606  227.0812 H   0  0  0  0  0  0  0  0  0  0  0  0
  141.7302   67.8592  225.4574 H   0  0  0  0  0  0  0  0  0  0  0  0
  141.3837   70.0488  224.6451 H   0  0  0  0  0  0  0  0  0  0  0  0
  141.7811   72.6059  225.4294 H   0  0  0  0  0  0  0  0  0  0  0  0
  141.7100   73.7130  227.7970 H   0  0  0  0  0  0  0  0  0  0  0  0
  140.7474   72.0114  229.5476 H   0  0  0  0  0  0  0  0  0  0  0  0
  142.3036   73.4013  220.2421 H   0  0  0  0  0  0  0  0  0  0  0  0
  142.6913   75.8001  219.7120 H   0  0  0  0  0  0  0  0  0  0  0  0
  142.1819   78.0744  220.0571 H   0  0  0  0  0  0  0  0  0  0  0  0
  140.8593   79.8516  221.2382 H   0  0  0  0  0  0  0  0  0  0  0  0
  139.1849   79.1686  222.9199 H   0  0  0  0  0  0  0  0  0  0  0  0
  138.7875   76.7823  223.4701 H   0  0  0  0  0  0  0  0  0  0  0  0
  1  2  2  0
  2  3  1  0
  3  4  1  0
  4  5  1  0
  5  6  2  0
  5  7  1  0
  7  8  1  0
  8  9  1  0
  9 10  1  0
 10 11  1  0
 11 12  1  0
 12 13  2  0
 13 14  1  0
 14 15  1  0
 15 16  2  0
  2 17  1  0
 17 18  2  0
 18 19  1  0
 19 20  2  0
 20 21  1  0
 21 22  2  0
 22 23  1  0
 23 24  2  0
 24 25  1  0
 25 26  2  0
 11  7  1  0
 16 12  1  0
 26 17  1  0
 25 20  1  0
  3 27  1  0
  4 28  1  0
  4 29  1  0
  8 30  1  0
  8 31  1  0
  9 32  1  0
  9 33  1  0
 10 34  1  0
 10 35  1  0
 11 36  1  6
 13 37  1  0
 14 38  1  0
 15 39  1  0
 18 40  1  0
 19 41  1  0
 21 42  1  0
 22 43  1  0
 23 44  1  0
 24 45  1  0
M  END
>  <smiles>  (41) 
O=C(NCC(=O)N1CCC[C@@H]1c1c[nH]cn1)c1ccc2ccccc2n1

>  <score_type>  (41) 
oracle

>  <origin>  (41) 
autodockgpu

>  <m_score__min__energy>  (41) 
-8.2300000000000004

>  <m_primary>  (41) 
energy

>  <rmsd>  (41) 
8.583893359945542

>  <m_score__min__rmsd>  (41) 
8.583893359945542

>  <meeko>  (41) 
{"free_energy": -7.31, "intermolecular_energy": -8.81, "internal_energy": -1.4, "cluster_size": 4, "cluster_id": 3, "rank_in_cluster": 4}

>  <energy>  (41) 
-7.14

>  <cluster_rmsd>  (41) 
0.0

>  <cluster>  (41) 
6

$$$$

     RDKit          3D

 45 48  0  0  0  0  0  0  0  0999 V2000
  140.4580   71.8310  221.1520 O   0  0  0  0  0  0  0  0  0  0  0  0
  140.0490   72.2680  222.2590 C   0  0  0  0  0  0  0  0  0  0  0  0
  139.5700   73.6210  222.2560 N   0  0  0  0  0  0  0  0  0  0  0  0
  139.6150   74.3110  220.9830 C   0  0  0  0  0  0  0  0  0  0  0  0
  140.7740   75.2240  220.9740 C   0  0  0  0  0  0  0  0  0  0  0  0
  140.9510   76.1670  221.7720 O   0  0  0  0  0  0  0  0  0  0  0  0
  141.7900   75.0230  219.9710 N   0  0  0  0  0  0  0  0  0  0  0  0
  141.6060   74.5340  218.6140 C   0  0  0  0  0  0  0  0  0  0  0  0
  142.3400   75.6310  217.8660 C   0  0  0  0  0  0  0  0  0  0  0  0
  143.5760   75.8080  218.7350 C   0  0  0  0  0  0  0  0  0  0  0  0
  143.2250   75.2690  220.1110 C   0  0  2  0  0  0  0  0  0  0  0  0
  143.9080   73.9780  220.3570 C   0  0  0  0  0  0  0  0  0  0  0  0
  145.2480   73.6650  220.3490 C   0  0  0  0  0  0  0  0  0  0  0  0
  145.3600   72.3420  220.6360 N   0  0  0  0  0  0  0  0  0  0  0  0
  144.1060   71.8490  220.8170 C   0  0  0  0  0  0  0  0  0  0  0  0
  143.2220   72.8440  220.6470 N   0  0  0  0  0  0  0  0  0  0  0  0
  140.0600   71.4610  223.4710 C   0  0  0  0  0  0  0  0  0  0  0  0
  139.5560   70.1870  223.3980 C   0  0  0  0  0  0  0  0  0  0  0  0
  139.5400   69.3760  224.5180 C   0  0  0  0  0  0  0  0  0  0  0  0
  140.0380   69.8660  225.7090 C   0  0  0  0  0  0  0  0  0  0  0  0
  140.0160   69.0450  226.8170 C   0  0  0  0  0  0  0  0  0  0  0  0
  140.5130   69.5190  228.0250 C   0  0  0  0  0  0  0  0  0  0  0  0
  141.0110   70.8010  228.0650 C   0  0  0  0  0  0  0  0  0  0  0  0
  141.0350   71.6320  226.9490 C   0  0  0  0  0  0  0  0  0  0  0  0
  140.5420   71.1530  225.7600 C   0  0  0  0  0  0  0  0  0  0  0  0
  140.5290   71.8850  224.6500 N   0  0  0  0  0  0  0  0  0  0  0  0
  139.2150   74.0530  223.1370 H   0  0  0  0  0  0  0  0  0  0  0  0
  139.7163   73.5779  220.1692 H   0  0  0  0  0  0  0  0  0  0  0  0
  138.6879   74.8848  220.8376 H   0  0  0  0  0  0  0  0  0  0  0  0
  142.0720   73.5490  218.4636 H   0  0  0  0  0  0  0  0  0  0  0  0
  140.5625   74.3686  218.3077 H   0  0  0  0  0  0  0  0  0  0  0  0
  142.6062   75.3148  216.8466 H   0  0  0  0  0  0  0  0  0  0  0  0
  141.7531   76.5505  217.7245 H   0  0  0  0  0  0  0  0  0  0  0  0
  144.4206   75.2446  218.3116 H   0  0  0  0  0  0  0  0  0  0  0  0
  143.8727   76.8659  218.7890 H   0  0  0  0  0  0  0  0  0  0  0  0
  143.5091   75.9427  220.9328 H   0  0  0  0  0  0  0  0  0  0  0  0
  146.0770   74.3593  220.1471 H   0  0  0  0  0  0  0  0  0  0  0  0
  146.2560   71.8090  220.7020 H   0  0  0  0  0  0  0  0  0  0  0  0
  143.8571   70.8060  221.0624 H   0  0  0  0  0  0  0  0  0  0  0  0
  139.1624   69.8085  222.4431 H   0  0  0  0  0  0  0  0  0  0  0  0
  139.1360   68.3545  224.4609 H   0  0  0  0  0  0  0  0  0  0  0  0
  139.6092   68.0255  226.7452 H   0  0  0  0  0  0  0  0  0  0  0  0
  140.5084   68.8864  228.9249 H   0  0  0  0  0  0  0  0  0  0  0  0
  141.4060   71.1844  229.0173 H   0  0  0  0  0  0  0  0  0  0  0  0
  141.4407   72.6521  227.0178 H   0  0  0  0  0  0  0  0  0  0  0  0
  1  2  2  0
  2  3  1  0
  3  4  1  0
  4  5  1  0
  5  6  2  0
  5  7  1  0
  7  8  1  0
  8  9  1  0
  9 10  1  0
 10 11  1  0
 11 12  1  0
 12 13  2  0
 13 14  1  0
 14 15  1  0
 15 16  2  0
  2 17  1  0
 17 18  2  0
 18 19  1  0
 19 20  2  0
 20 21  1  0
 21 22  2  0
 22 23  1  0
 23 24  2  0
 24 25  1  0
 25 26  2  0
 11  7  1  0
 16 12  1  0
 26 17  1  0
 25 20  1  0
  3 27  1  0
  4 28  1  0
  4 29  1  0
  8 30  1  0
  8 31  1  0
  9 32  1  0
  9 33  1  0
 10 34  1  0
 10 35  1  0
 11 36  1  1
 13 37  1  0
 14 38  1  0
 15 39  1  0
 18 40  1  0
 19 41  1  0
 21 42  1  0
 22 43  1  0
 23 44  1  0
 24 45  1  0
M  END
>  <smiles>  (42) 
O=C(NCC(=O)N1CCC[C@@H]1c1c[nH]cn1)c1ccc2ccccc2n1

>  <score_type>  (42) 
oracle

>  <origin>  (42) 
autodockgpu

>  <m_score__min__energy>  (42) 
-8.2300000000000004

>  <m_primary>  (42) 
energy

>  <rmsd>  (42) 
2.8949902312549187

>  <m_score__min__rmsd>  (42) 
2.8949902312549187

>  <meeko>  (42) 
{"free_energy": -7.57, "intermolecular_energy": -9.06, "internal_energy": -1.53, "cluster_size": 21, "cluster_id": 1, "rank_in_cluster": 18}

>  <energy>  (42) 
-7.14

>  <cluster_rmsd>  (42) 
0.5

>  <cluster>  (42) 
6

$$$$

     RDKit          3D

 45 48  0  0  0  0  0  0  0  0999 V2000
  141.4630   72.3090  221.6940 O   0  0  0  0  0  0  0  0  0  0  0  0
  140.5290   72.4500  222.5260 C   0  0  0  0  0  0  0  0  0  0  0  0
  139.7080   73.6130  222.3480 N   0  0  0  0  0  0  0  0  0  0  0  0
  140.0550   74.4760  221.2370 C   0  0  0  0  0  0  0  0  0  0  0  0
  139.9440   75.8820  221.6700 C   0  0  0  0  0  0  0  0  0  0  0  0
  139.1730   76.3000  222.5590 O   0  0  0  0  0  0  0  0  0  0  0  0
  140.7830   76.8620  221.0250 N   0  0  0  0  0  0  0  0  0  0  0  0
  142.0400   76.6270  220.3340 C   0  0  0  0  0  0  0  0  0  0  0  0
  141.7290   77.3390  219.0310 C   0  0  0  0  0  0  0  0  0  0  0  0
  141.0560   78.6060  219.5380 C   0  0  0  0  0  0  0  0  0  0  0  0
  140.5440   78.3020  220.9340 C   0  0  2  0  0  0  0  0  0  0  0  0
  141.3690   78.9870  221.9550 C   0  0  0  0  0  0  0  0  0  0  0  0
  141.4850   78.7580  223.3060 C   0  0  0  0  0  0  0  0  0  0  0  0
  142.3740   79.6580  223.8000 N   0  0  0  0  0  0  0  0  0  0  0  0
  142.7990   80.4310  222.7650 C   0  0  0  0  0  0  0  0  0  0  0  0
  142.1880   80.0230  221.6420 N   0  0  0  0  0  0  0  0  0  0  0  0
  140.2890   71.4990  223.6020 C   0  0  0  0  0  0  0  0  0  0  0  0
  139.5970   70.3530  223.3040 C   0  0  0  0  0  0  0  0  0  0  0  0
  139.3400   69.4160  224.2870 C   0  0  0  0  0  0  0  0  0  0  0  0
  139.7900   69.6490  225.5720 C   0  0  0  0  0  0  0  0  0  0  0  0
  139.5270   68.7050  226.5420 C   0  0  0  0  0  0  0  0  0  0  0  0
  139.9700   68.9200  227.8410 C   0  0  0  0  0  0  0  0  0  0  0  0
  140.6620   70.0800  228.1070 C   0  0  0  0  0  0  0  0  0  0  0  0
  140.9300   71.0360  227.1310 C   0  0  0  0  0  0  0  0  0  0  0  0
  140.4860   70.8110  225.8500 C   0  0  0  0  0  0  0  0  0  0  0  0
  140.7010   71.6750  224.8620 N   0  0  0  0  0  0  0  0  0  0  0  0
  138.9120   73.7980  222.9980 H   0  0  0  0  0  0  0  0  0  0  0  0
  141.0868   74.2687  220.9169 H   0  0  0  0  0  0  0  0  0  0  0  0
  139.3724   74.2909  220.3945 H   0  0  0  0  0  0  0  0  0  0  0  0
  142.8918   77.0826  220.8602 H   0  0  0  0  0  0  0  0  0  0  0  0
  142.3381   75.5725  220.2383 H   0  0  0  0  0  0  0  0  0  0  0  0
  142.6460   77.5675  218.4680 H   0  0  0  0  0  0  0  0  0  0  0  0
  141.1159   76.7518  218.3315 H   0  0  0  0  0  0  0  0  0  0  0  0
  141.7813   79.4323  219.5722 H   0  0  0  0  0  0  0  0  0  0  0  0
  140.2336   78.9092  218.8733 H   0  0  0  0  0  0  0  0  0  0  0  0
  139.5035   78.6183  221.0993 H   0  0  0  0  0  0  0  0  0  0  0  0
  140.9540   77.9859  223.8821 H   0  0  0  0  0  0  0  0  0  0  0  0
  142.6700   79.7340  224.7990 H   0  0  0  0  0  0  0  0  0  0  0  0
  143.5242   81.2550  222.8365 H   0  0  0  0  0  0  0  0  0  0  0  0
  139.2445   70.1786  222.2767 H   0  0  0  0  0  0  0  0  0  0  0  0
  138.7844   68.4969  224.0492 H   0  0  0  0  0  0  0  0  0  0  0  0
  138.9714   67.7898  226.2895 H   0  0  0  0  0  0  0  0  0  0  0  0
  139.7734   68.1841  228.6346 H   0  0  0  0  0  0  0  0  0  0  0  0
  141.0177   70.2588  229.1324 H   0  0  0  0  0  0  0  0  0  0  0  0
  141.4855   71.9522  227.3800 H   0  0  0  0  0  0  0  0  0  0  0  0
  1  2  2  0
  2  3  1  0
  3  4  1  0
  4  5  1  0
  5  6  2  0
  5  7  1  0
  7  8  1  0
  8  9  1  0
  9 10  1  0
 10 11  1  0
 11 12  1  0
 12 13  2  0
 13 14  1  0
 14 15  1  0
 15 16  2  0
  2 17  1  0
 17 18  2  0
 18 19  1  0
 19 20  2  0
 20 21  1  0
 21 22  2  0
 22 23  1  0
 23 24  2  0
 24 25  1  0
 25 26  2  0
 11  7  1  0
 16 12  1  0
 26 17  1  0
 25 20  1  0
  3 27  1  0
  4 28  1  0
  4 29  1  0
  8 30  1  0
  8 31  1  0
  9 32  1  0
  9 33  1  0
 10 34  1  0
 10 35  1  0
 11 36  1  6
 13 37  1  0
 14 38  1  0
 15 39  1  0
 18 40  1  0
 19 41  1  0
 21 42  1  0
 22 43  1  0
 23 44  1  0
 24 45  1  0
M  END
>  <smiles>  (43) 
O=C(NCC(=O)N1CCC[C@@H]1c1c[nH]cn1)c1ccc2ccccc2n1

>  <score_type>  (43) 
oracle

>  <origin>  (43) 
autodockgpu

>  <m_score__min__energy>  (43) 
-8.2300000000000004

>  <m_primary>  (43) 
energy

>  <rmsd>  (43) 
2.226948289545471

>  <m_score__min__rmsd>  (43) 
2.226948289545471

>  <meeko>  (43) 
{"free_energy": -7.66, "intermolecular_energy": -9.15, "internal_energy": -1.27, "cluster_size": 12, "cluster_id": 2, "rank_in_cluster": 9}

>  <energy>  (43) 
-7.12

>  <cluster_rmsd>  (43) 
0.23

>  <cluster>  (43) 
6

$$$$

     RDKit          3D

 45 48  0  0  0  0  0  0  0  0999 V2000
  140.3460   71.5770  221.2750 O   0  0  0  0  0  0  0  0  0  0  0  0
  140.0860   72.1140  222.3840 C   0  0  0  0  0  0  0  0  0  0  0  0
  139.7720   73.5130  222.3400 N   0  0  0  0  0  0  0  0  0  0  0  0
  139.7910   74.1300  221.0280 C   0  0  0  0  0  0  0  0  0  0  0  0
  140.7250   75.2720  221.0510 C   0  0  0  0  0  0  0  0  0  0  0  0
  141.9670   75.1850  220.9620 O   0  0  0  0  0  0  0  0  0  0  0  0
  140.1760   76.5990  221.1860 N   0  0  0  0  0  0  0  0  0  0  0  0
  139.7240   77.4780  220.1200 C   0  0  0  0  0  0  0  0  0  0  0  0
  138.3470   77.8150  220.6610 C   0  0  0  0  0  0  0  0  0  0  0  0
  138.6550   78.0560  222.1310 C   0  0  0  0  0  0  0  0  0  0  0  0
  139.9590   77.3390  222.4290 C   0  0  2  0  0  0  0  0  0  0  0  0
  141.0630   78.3110  222.6030 C   0  0  0  0  0  0  0  0  0  0  0  0
  142.0690   78.6780  221.7390 C   0  0  0  0  0  0  0  0  0  0  0  0
  142.8300   79.6090  222.3710 N   0  0  0  0  0  0  0  0  0  0  0  0
  142.2990   79.8110  223.6060 C   0  0  0  0  0  0  0  0  0  0  0  0
  141.2240   79.0210  223.7480 N   0  0  0  0  0  0  0  0  0  0  0  0
  140.1030   71.3710  223.6350 C   0  0  0  0  0  0  0  0  0  0  0  0
  139.6100   70.0900  223.6280 C   0  0  0  0  0  0  0  0  0  0  0  0
  139.6000   69.3380  224.7880 C   0  0  0  0  0  0  0  0  0  0  0  0
  140.0930   69.8930  225.9530 C   0  0  0  0  0  0  0  0  0  0  0  0
  140.0770   69.1310  227.1020 C   0  0  0  0  0  0  0  0  0  0  0  0
  140.5680   69.6710  228.2840 C   0  0  0  0  0  0  0  0  0  0  0  0
  141.0560   70.9580  228.2580 C   0  0  0  0  0  0  0  0  0  0  0  0
  141.0740   71.7300  227.1000 C   0  0  0  0  0  0  0  0  0  0  0  0
  140.5860   71.1860  225.9370 C   0  0  0  0  0  0  0  0  0  0  0  0
  140.5670   71.8590  224.7910 N   0  0  0  0  0  0  0  0  0  0  0  0
  139.5450   74.0280  223.2190 H   0  0  0  0  0  0  0  0  0  0  0  0
  140.1236   73.3959  220.2794 H   0  0  0  0  0  0  0  0  0  0  0  0
  138.7815   74.4791  220.7654 H   0  0  0  0  0  0  0  0  0  0  0  0
  140.3595   78.3707  220.0237 H   0  0  0  0  0  0  0  0  0  0  0  0
  139.7430   77.0452  219.1089 H   0  0  0  0  0  0  0  0  0  0  0  0
  137.9359   78.7163  220.1827 H   0  0  0  0  0  0  0  0  0  0  0  0
  137.5897   77.0378  220.4810 H   0  0  0  0  0  0  0  0  0  0  0  0
  138.7628   79.1336  222.3236 H   0  0  0  0  0  0  0  0  0  0  0  0
  137.8430   77.6807  222.7711 H   0  0  0  0  0  0  0  0  0  0  0  0
  139.9251   76.7266  223.3421 H   0  0  0  0  0  0  0  0  0  0  0  0
  142.2279   78.2888  220.7225 H   0  0  0  0  0  0  0  0  0  0  0  0
  143.6720   80.0790  221.9690 H   0  0  0  0  0  0  0  0  0  0  0  0
  142.6868   80.5074  224.3640 H   0  0  0  0  0  0  0  0  0  0  0  0
  139.2205   69.6592  222.6938 H   0  0  0  0  0  0  0  0  0  0  0  0
  139.2048   68.3115  224.7834 H   0  0  0  0  0  0  0  0  0  0  0  0
  139.6793   68.1056  227.0829 H   0  0  0  0  0  0  0  0  0  0  0  0
  140.5669   69.0860  229.2156 H   0  0  0  0  0  0  0  0  0  0  0  0
  141.4472   71.3935  229.1893 H   0  0  0  0  0  0  0  0  0  0  0  0
  141.4712   72.7556  227.1159 H   0  0  0  0  0  0  0  0  0  0  0  0
  1  2  2  0
  2  3  1  0
  3  4  1  0
  4  5  1  0
  5  6  2  0
  5  7  1  0
  7  8  1  0
  8  9  1  0
  9 10  1  0
 10 11  1  0
 11 12  1  0
 12 13  2  0
 13 14  1  0
 14 15  1  0
 15 16  2  0
  2 17  1  0
 17 18  2  0
 18 19  1  0
 19 20  2  0
 20 21  1  0
 21 22  2  0
 22 23  1  0
 23 24  2  0
 24 25  1  0
 25 26  2  0
 11  7  1  0
 16 12  1  0
 26 17  1  0
 25 20  1  0
  3 27  1  0
  4 28  1  0
  4 29  1  0
  8 30  1  0
  8 31  1  0
  9 32  1  0
  9 33  1  0
 10 34  1  0
 10 35  1  0
 11 36  1  1
 13 37  1  0
 14 38  1  0
 15 39  1  0
 18 40  1  0
 19 41  1  0
 21 42  1  0
 22 43  1  0
 23 44  1  0
 24 45  1  0
M  END
>  <smiles>  (44) 
O=C(NCC(=O)N1CCC[C@@H]1c1c[nH]cn1)c1ccc2ccccc2n1

>  <score_type>  (44) 
oracle

>  <origin>  (44) 
autodockgpu

>  <m_score__min__energy>  (44) 
-8.2300000000000004

>  <m_primary>  (44) 
energy

>  <rmsd>  (44) 
2.4509191413039257

>  <m_score__min__rmsd>  (44) 
2.4509191413039257

>  <meeko>  (44) 
{"free_energy": -7.94, "intermolecular_energy": -9.43, "internal_energy": -1.04, "cluster_size": 12, "cluster_id": 2, "rank_in_cluster": 4}

>  <energy>  (44) 
-7.07

>  <cluster_rmsd>  (44) 
0.6

>  <cluster>  (44) 
6

$$$$

     RDKit          3D

 45 48  0  0  0  0  0  0  0  0999 V2000
  139.2360   74.6840  222.0910 O   0  0  0  0  0  0  0  0  0  0  0  0
  140.2570   75.4030  221.9300 C   0  0  0  0  0  0  0  0  0  0  0  0
  141.3630   74.7730  221.2680 N   0  0  0  0  0  0  0  0  0  0  0  0
  141.1660   73.3940  220.8680 C   0  0  0  0  0  0  0  0  0  0  0  0
  142.4680   72.7000  220.8860 C   0  0  0  0  0  0  0  0  0  0  0  0
  142.6850   71.5950  221.4260 O   0  0  0  0  0  0  0  0  0  0  0  0
  143.5870   73.3350  220.2350 N   0  0  0  0  0  0  0  0  0  0  0  0
  144.8320   73.7690  220.8470 C   0  0  0  0  0  0  0  0  0  0  0  0
  145.8070   73.0930  219.9020 C   0  0  0  0  0  0  0  0  0  0  0  0
  145.1680   73.3860  218.5530 C   0  0  0  0  0  0  0  0  0  0  0  0
  143.7020   73.6770  218.8180 C   0  0  2  0  0  0  0  0  0  0  0  0
  143.4170   75.1210  218.6520 C   0  0  0  0  0  0  0  0  0  0  0  0
  143.3320   75.8860  217.5120 C   0  0  0  0  0  0  0  0  0  0  0  0
  143.0480   77.1580  217.8930 N   0  0  0  0  0  0  0  0  0  0  0  0
  142.9590   77.1750  219.2490 C   0  0  0  0  0  0  0  0  0  0  0  0
  143.1840   75.9360  219.7120 N   0  0  0  0  0  0  0  0  0  0  0  0
  140.3210   76.7850  222.3840 C   0  0  0  0  0  0  0  0  0  0  0  0
  139.1400   77.4200  222.6760 C   0  0  0  0  0  0  0  0  0  0  0  0
  139.1400   78.7330  223.1100 C   0  0  0  0  0  0  0  0  0  0  0  0
  140.3450   79.3940  223.2470 C   0  0  0  0  0  0  0  0  0  0  0  0
  140.3300   80.7030  223.6820 C   0  0  0  0  0  0  0  0  0  0  0  0
  141.5310   81.3860  223.8270 C   0  0  0  0  0  0  0  0  0  0  0  0
  142.6980   80.7210  223.5260 C   0  0  0  0  0  0  0  0  0  0  0  0
  142.7170   79.4000  223.0870 C   0  0  0  0  0  0  0  0  0  0  0  0
  141.5230   78.7340  222.9490 C   0  0  0  0  0  0  0  0  0  0  0  0
  141.4580   77.4730  222.5340 N   0  0  0  0  0  0  0  0  0  0  0  0
  142.2450   75.3050  221.0980 H   0  0  0  0  0  0  0  0  0  0  0  0
  140.4754   72.9015  221.5684 H   0  0  0  0  0  0  0  0  0  0  0  0
  140.7384   73.3574  219.8552 H   0  0  0  0  0  0  0  0  0  0  0  0
  144.9379   74.8638  220.8356 H   0  0  0  0  0  0  0  0  0  0  0  0
  144.9505   73.5157  221.9109 H   0  0  0  0  0  0  0  0  0  0  0  0
  146.8115   73.5351  219.9761 H   0  0  0  0  0  0  0  0  0  0  0  0
  145.9610   72.0228  220.1041 H   0  0  0  0  0  0  0  0  0  0  0  0
  145.6494   74.2585  218.0871 H   0  0  0  0  0  0  0  0  0  0  0  0
  145.2843   72.5340  217.8670 H   0  0  0  0  0  0  0  0  0  0  0  0
  143.0185   73.1366  218.1466 H   0  0  0  0  0  0  0  0  0  0  0  0
  143.4691   75.5318  216.4796 H   0  0  0  0  0  0  0  0  0  0  0  0
  142.9220   77.9710  217.2490 H   0  0  0  0  0  0  0  0  0  0  0  0
  142.7388   78.0590  219.8654 H   0  0  0  0  0  0  0  0  0  0  0  0
  138.1875   76.8813  222.5641 H   0  0  0  0  0  0  0  0  0  0  0  0
  138.1939   79.2437  223.3428 H   0  0  0  0  0  0  0  0  0  0  0  0
  139.3765   81.2011  223.9118 H   0  0  0  0  0  0  0  0  0  0  0  0
  141.5489   82.4300  224.1730 H   0  0  0  0  0  0  0  0  0  0  0  0
  143.6535   81.2545  223.6367 H   0  0  0  0  0  0  0  0  0  0  0  0
  143.6687   78.8994  222.8553 H   0  0  0  0  0  0  0  0  0  0  0  0
  1  2  2  0
  2  3  1  0
  3  4  1  0
  4  5  1  0
  5  6  2  0
  5  7  1  0
  7  8  1  0
  8  9  1  0
  9 10  1  0
 10 11  1  0
 11 12  1  0
 12 13  2  0
 13 14  1  0
 14 15  1  0
 15 16  2  0
  2 17  1  0
 17 18  2  0
 18 19  1  0
 19 20  2  0
 20 21  1  0
 21 22  2  0
 22 23  1  0
 23 24  2  0
 24 25  1  0
 25 26  2  0
 11  7  1  0
 16 12  1  0
 26 17  1  0
 25 20  1  0
  3 27  1  0
  4 28  1  0
  4 29  1  0
  8 30  1  0
  8 31  1  0
  9 32  1  0
  9 33  1  0
 10 34  1  0
 10 35  1  0
 11 36  1  6
 13 37  1  0
 14 38  1  0
 15 39  1  0
 18 40  1  0
 19 41  1  0
 21 42  1  0
 22 43  1  0
 23 44  1  0
 24 45  1  0
M  END
>  <smiles>  (45) 
O=C(NCC(=O)N1CCC[C@@H]1c1c[nH]cn1)c1ccc2ccccc2n1

>  <score_type>  (45) 
oracle

>  <origin>  (45) 
autodockgpu

>  <m_score__min__energy>  (45) 
-8.2300000000000004

>  <m_primary>  (45) 
energy

>  <rmsd>  (45) 
7.469594250290781

>  <m_score__min__rmsd>  (45) 
7.469594250290781

>  <meeko>  (45) 
{"free_energy": -6.61, "intermolecular_energy": -8.1, "internal_energy": -2.24, "cluster_size": 4, "cluster_id": 8, "rank_in_cluster": 3}

>  <energy>  (45) 
-6.81

>  <cluster_rmsd>  (45) 
0.0

>  <cluster>  (45) 
7

$$$$

     RDKit          3D

 45 48  0  0  0  0  0  0  0  0999 V2000
  141.1440   72.8960  222.1440 O   0  0  0  0  0  0  0  0  0  0  0  0
  140.0760   72.6300  222.7550 C   0  0  0  0  0  0  0  0  0  0  0  0
  138.9110   73.3390  222.3090 N   0  0  0  0  0  0  0  0  0  0  0  0
  139.1090   74.2660  221.2130 C   0  0  0  0  0  0  0  0  0  0  0  0
  139.4240   75.5980  221.7650 C   0  0  0  0  0  0  0  0  0  0  0  0
  138.8170   76.1470  222.7070 O   0  0  0  0  0  0  0  0  0  0  0  0
  140.5160   76.3360  221.1790 N   0  0  0  0  0  0  0  0  0  0  0  0
  141.8260   75.8260  220.8070 C   0  0  0  0  0  0  0  0  0  0  0  0
  141.8830   76.3400  219.3810 C   0  0  0  0  0  0  0  0  0  0  0  0
  141.3400   77.7510  219.5510 C   0  0  0  0  0  0  0  0  0  0  0  0
  140.5340   77.7580  220.8380 C   0  0  2  0  0  0  0  0  0  0  0  0
  141.2540   78.4940  221.9020 C   0  0  0  0  0  0  0  0  0  0  0  0
  142.1520   79.5330  221.8150 C   0  0  0  0  0  0  0  0  0  0  0  0
  142.5270   79.8570  223.0790 N   0  0  0  0  0  0  0  0  0  0  0  0
  141.8690   79.0290  223.9320 C   0  0  0  0  0  0  0  0  0  0  0  0
  141.0940   78.1990  223.2170 N   0  0  0  0  0  0  0  0  0  0  0  0
  140.0180   71.6690  223.8470 C   0  0  0  0  0  0  0  0  0  0  0  0
  139.3350   70.4980  223.6360 C   0  0  0  0  0  0  0  0  0  0  0  0
  139.2460   69.5500  224.6380 C   0  0  0  0  0  0  0  0  0  0  0  0
  139.8550   69.7970  225.8530 C   0  0  0  0  0  0  0  0  0  0  0  0
  139.7580   68.8410  226.8420 C   0  0  0  0  0  0  0  0  0  0  0  0
  140.3630   69.0700  228.0720 C   0  0  0  0  0  0  0  0  0  0  0  0
  141.0410   70.2550  228.2520 C   0  0  0  0  0  0  0  0  0  0  0  0
  141.1410   71.2220  227.2550 C   0  0  0  0  0  0  0  0  0  0  0  0
  140.5390   70.9840  226.0440 C   0  0  0  0  0  0  0  0  0  0  0  0
  140.5880   71.8570  225.0430 N   0  0  0  0  0  0  0  0  0  0  0  0
  137.9880   73.1720  222.7670 H   0  0  0  0  0  0  0  0  0  0  0  0
  139.9422   73.9207  220.5832 H   0  0  0  0  0  0  0  0  0  0  0  0
  138.1958   74.3219  220.6023 H   0  0  0  0  0  0  0  0  0  0  0  0
  142.6265   76.2503  221.4309 H   0  0  0  0  0  0  0  0  0  0  0  0
  141.9628   74.7410  220.9252 H   0  0  0  0  0  0  0  0  0  0  0  0
  142.9137   76.3487  218.9970 H   0  0  0  0  0  0  0  0  0  0  0  0
  141.3250   75.7265  218.6583 H   0  0  0  0  0  0  0  0  0  0  0  0
  142.1693   78.4704  219.6195 H   0  0  0  0  0  0  0  0  0  0  0  0
  140.7160   78.0402  218.6925 H   0  0  0  0  0  0  0  0  0  0  0  0
  139.5457   78.2300  220.7354 H   0  0  0  0  0  0  0  0  0  0  0  0
  142.5023   80.0136  220.8897 H   0  0  0  0  0  0  0  0  0  0  0  0
  143.2030   80.6110  223.3370 H   0  0  0  0  0  0  0  0  0  0  0  0
  141.9571   79.0376  225.0284 H   0  0  0  0  0  0  0  0  0  0  0  0
  138.8554   70.3124  222.6636 H   0  0  0  0  0  0  0  0  0  0  0  0
  138.6975   68.6114  224.4701 H   0  0  0  0  0  0  0  0  0  0  0  0
  139.2073   67.9065  226.6592 H   0  0  0  0  0  0  0  0  0  0  0  0
  140.3020   68.3254  228.8794 H   0  0  0  0  0  0  0  0  0  0  0  0
  141.5229   70.4453  229.2223 H   0  0  0  0  0  0  0  0  0  0  0  0
  141.6911   72.1576  227.4339 H   0  0  0  0  0  0  0  0  0  0  0  0
  1  2  2  0
  2  3  1  0
  3  4  1  0
  4  5  1  0
  5  6  2  0
  5  7  1  0
  7  8  1  0
  8  9  1  0
  9 10  1  0
 10 11  1  0
 11 12  1  0
 12 13  2  0
 13 14  1  0
 14 15  1  0
 15 16  2  0
  2 17  1  0
 17 18  2  0
 18 19  1  0
 19 20  2  0
 20 21  1  0
 21 22  2  0
 22 23  1  0
 23 24  2  0
 24 25  1  0
 25 26  2  0
 11  7  1  0
 16 12  1  0
 26 17  1  0
 25 20  1  0
  3 27  1  0
  4 28  1  0
  4 29  1  0
  8 30  1  0
  8 31  1  0
  9 32  1  0
  9 33  1  0
 10 34  1  0
 10 35  1  0
 11 36  1  6
 13 37  1  0
 14 38  1  0
 15 39  1  0
 18 40  1  0
 19 41  1  0
 21 42  1  0
 22 43  1  0
 23 44  1  0
 24 45  1  0
M  END
>  <smiles>  (46) 
O=C(NCC(=O)N1CCC[C@@H]1c1c[nH]cn1)c1ccc2ccccc2n1

>  <score_type>  (46) 
oracle

>  <origin>  (46) 
autodockgpu

>  <m_score__min__energy>  (46) 
-8.2300000000000004

>  <m_primary>  (46) 
energy

>  <rmsd>  (46) 
2.0115687591374996

>  <m_score__min__rmsd>  (46) 
2.0115687591374996

>  <meeko>  (46) 
{"free_energy": -7.65, "intermolecular_energy": -9.14, "internal_energy": -1.23, "cluster_size": 12, "cluster_id": 2, "rank_in_cluster": 10}

>  <energy>  (46) 
-6.77

>  <cluster_rmsd>  (46) 
0.85

>  <cluster>  (46) 
7

$$$$

     RDKit          3D

 45 48  0  0  0  0  0  0  0  0999 V2000
  139.0150   75.2370  221.5930 O   0  0  0  0  0  0  0  0  0  0  0  0
  140.1370   75.7690  221.7990 C   0  0  0  0  0  0  0  0  0  0  0  0
  141.2780   74.9580  221.4830 N   0  0  0  0  0  0  0  0  0  0  0  0
  140.9960   73.6330  220.9670 C   0  0  0  0  0  0  0  0  0  0  0  0
  142.2470   72.8510  220.9460 C   0  0  0  0  0  0  0  0  0  0  0  0
  142.4040   71.7330  221.4780 O   0  0  0  0  0  0  0  0  0  0  0  0
  143.3880   73.4100  220.2630 N   0  0  0  0  0  0  0  0  0  0  0  0
  144.6720   73.7700  220.8420 C   0  0  0  0  0  0  0  0  0  0  0  0
  145.5800   73.0260  219.8810 C   0  0  0  0  0  0  0  0  0  0  0  0
  144.9280   73.3500  218.5450 C   0  0  0  0  0  0  0  0  0  0  0  0
  143.4900   73.7340  218.8410 C   0  0  2  0  0  0  0  0  0  0  0  0
  143.2920   75.1920  218.6690 C   0  0  0  0  0  0  0  0  0  0  0  0
  143.3840   75.9760  217.5420 C   0  0  0  0  0  0  0  0  0  0  0  0
  143.1110   77.2540  217.9100 N   0  0  0  0  0  0  0  0  0  0  0  0
  142.8540   77.2570  219.2450 C   0  0  0  0  0  0  0  0  0  0  0  0
  142.9650   76.0020  219.7080 N   0  0  0  0  0  0  0  0  0  0  0  0
  140.2780   77.1190  222.3250 C   0  0  0  0  0  0  0  0  0  0  0  0
  139.1370   77.7880  222.6900 C   0  0  0  0  0  0  0  0  0  0  0  0
  139.2110   79.0730  223.1950 C   0  0  0  0  0  0  0  0  0  0  0  0
  140.4480   79.6730  223.3270 C   0  0  0  0  0  0  0  0  0  0  0  0
  140.5060   80.9540  223.8330 C   0  0  0  0  0  0  0  0  0  0  0  0
  141.7410   81.5760  223.9730 C   0  0  0  0  0  0  0  0  0  0  0  0
  142.8660   80.8770  223.5980 C   0  0  0  0  0  0  0  0  0  0  0  0
  142.8120   79.5840  223.0870 C   0  0  0  0  0  0  0  0  0  0  0  0
  141.5850   78.9800  222.9530 C   0  0  0  0  0  0  0  0  0  0  0  0
  141.4500   77.7470  222.4730 N   0  0  0  0  0  0  0  0  0  0  0  0
  142.2420   75.3300  221.6270 H   0  0  0  0  0  0  0  0  0  0  0  0
  140.2596   73.1340  221.6141 H   0  0  0  0  0  0  0  0  0  0  0  0
  140.5875   73.7093  219.9485 H   0  0  0  0  0  0  0  0  0  0  0  0
  144.8460   74.8559  220.8175 H   0  0  0  0  0  0  0  0  0  0  0  0
  144.7996   73.5187  221.9053 H   0  0  0  0  0  0  0  0  0  0  0  0
  146.6120   73.4038  219.9277 H   0  0  0  0  0  0  0  0  0  0  0  0
  145.6713   71.9497  220.0888 H   0  0  0  0  0  0  0  0  0  0  0  0
  145.4518   74.1876  218.0612 H   0  0  0  0  0  0  0  0  0  0  0  0
  144.9741   72.4876  217.8637 H   0  0  0  0  0  0  0  0  0  0  0  0
  142.7581   73.2329  218.1904 H   0  0  0  0  0  0  0  0  0  0  0  0
  143.6333   75.6304  216.5279 H   0  0  0  0  0  0  0  0  0  0  0  0
  143.1020   78.0810  217.2710 H   0  0  0  0  0  0  0  0  0  0  0  0
  142.5975   78.1417  219.8463 H   0  0  0  0  0  0  0  0  0  0  0  0
  138.1577   77.2992  222.5802 H   0  0  0  0  0  0  0  0  0  0  0  0
  138.2969   79.6103  223.4878 H   0  0  0  0  0  0  0  0  0  0  0  0
  139.5838   81.4788  224.1231 H   0  0  0  0  0  0  0  0  0  0  0  0
  141.8173   82.5981  224.3723 H   0  0  0  0  0  0  0  0  0  0  0  0
  143.8480   81.3605  223.7068 H   0  0  0  0  0  0  0  0  0  0  0  0
  143.7323   79.0563  222.7963 H   0  0  0  0  0  0  0  0  0  0  0  0
  1  2  2  0
  2  3  1  0
  3  4  1  0
  4  5  1  0
  5  6  2  0
  5  7  1  0
  7  8  1  0
  8  9  1  0
  9 10  1  0
 10 11  1  0
 11 12  1  0
 12 13  2  0
 13 14  1  0
 14 15  1  0
 15 16  2  0
  2 17  1  0
 17 18  2  0
 18 19  1  0
 19 20  2  0
 20 21  1  0
 21 22  2  0
 22 23  1  0
 23 24  2  0
 24 25  1  0
 25 26  2  0
 11  7  1  0
 16 12  1  0
 26 17  1  0
 25 20  1  0
  3 27  1  0
  4 28  1  0
  4 29  1  0
  8 30  1  0
  8 31  1  0
  9 32  1  0
  9 33  1  0
 10 34  1  0
 10 35  1  0
 11 36  1  6
 13 37  1  0
 14 38  1  0
 15 39  1  0
 18 40  1  0
 19 41  1  0
 21 42  1  0
 22 43  1  0
 23 44  1  0
 24 45  1  0
M  END
>  <smiles>  (47) 
O=C(NCC(=O)N1CCC[C@@H]1c1c[nH]cn1)c1ccc2ccccc2n1

>  <score_type>  (47) 
oracle

>  <origin>  (47) 
autodockgpu

>  <m_score__min__energy>  (47) 
-8.2300000000000004

>  <m_primary>  (47) 
energy

>  <rmsd>  (47) 
7.552454814147216

>  <m_score__min__rmsd>  (47) 
7.552454814147216

>  <meeko>  (47) 
{"free_energy": -6.65, "intermolecular_energy": -8.14, "internal_energy": -2.24, "cluster_size": 4, "cluster_id": 8, "rank_in_cluster": 2}

>  <energy>  (47) 
-6.66

>  <cluster_rmsd>  (47) 
0.0

>  <cluster>  (47) 
8

$$$$

     RDKit          3D

 45 48  0  0  0  0  0  0  0  0999 V2000
  141.4260   72.5200  221.7730 O   0  0  0  0  0  0  0  0  0  0  0  0
  140.4550   72.5960  222.5700 C   0  0  0  0  0  0  0  0  0  0  0  0
  139.5490   73.6850  222.3440 N   0  0  0  0  0  0  0  0  0  0  0  0
  139.8640   74.5570  221.2300 C   0  0  0  0  0  0  0  0  0  0  0  0
  139.8730   75.9550  221.7040 C   0  0  0  0  0  0  0  0  0  0  0  0
  139.1630   76.4040  222.6270 O   0  0  0  0  0  0  0  0  0  0  0  0
  140.7650   76.8870  221.0600 N   0  0  0  0  0  0  0  0  0  0  0  0
  142.0290   76.5890  220.4070 C   0  0  0  0  0  0  0  0  0  0  0  0
  141.7790   77.2810  219.0810 C   0  0  0  0  0  0  0  0  0  0  0  0
  141.1420   78.5840  219.5410 C   0  0  0  0  0  0  0  0  0  0  0  0
  140.5830   78.3320  220.9300 C   0  0  2  0  0  0  0  0  0  0  0  0
  141.4080   79.0100  221.9560 C   0  0  0  0  0  0  0  0  0  0  0  0
  141.5310   78.7630  223.3040 C   0  0  0  0  0  0  0  0  0  0  0  0
  142.4160   79.6630  223.8050 N   0  0  0  0  0  0  0  0  0  0  0  0
  142.8310   80.4530  222.7800 C   0  0  0  0  0  0  0  0  0  0  0  0
  142.2180   80.0560  221.6540 N   0  0  0  0  0  0  0  0  0  0  0  0
  140.2560   71.6450  223.6540 C   0  0  0  0  0  0  0  0  0  0  0  0
  139.5980   70.4750  223.3690 C   0  0  0  0  0  0  0  0  0  0  0  0
  139.3800   69.5360  224.3600 C   0  0  0  0  0  0  0  0  0  0  0  0
  139.8330   69.7920  225.6390 C   0  0  0  0  0  0  0  0  0  0  0  0
  139.6090   68.8460  226.6170 C   0  0  0  0  0  0  0  0  0  0  0  0
  140.0570   69.0840  227.9110 C   0  0  0  0  0  0  0  0  0  0  0  0
  140.7130   70.2680  228.1640 C   0  0  0  0  0  0  0  0  0  0  0  0
  140.9410   71.2250  227.1790 C   0  0  0  0  0  0  0  0  0  0  0  0
  140.4940   70.9780  225.9040 C   0  0  0  0  0  0  0  0  0  0  0  0
  140.6720   71.8420  224.9090 N   0  0  0  0  0  0  0  0  0  0  0  0
  138.7190   73.8140  222.9630 H   0  0  0  0  0  0  0  0  0  0  0  0
  140.8539   74.2976  220.8266 H   0  0  0  0  0  0  0  0  0  0  0  0
  139.1098   74.4370  220.4383 H   0  0  0  0  0  0  0  0  0  0  0  0
  142.8840   77.0245  220.9449 H   0  0  0  0  0  0  0  0  0  0  0  0
  142.2885   75.5220  220.3426 H   0  0  0  0  0  0  0  0  0  0  0  0
  142.7182   77.4616  218.5375 H   0  0  0  0  0  0  0  0  0  0  0  0
  141.1621   76.7008  218.3790 H   0  0  0  0  0  0  0  0  0  0  0  0
  141.8971   79.3832  219.5758 H   0  0  0  0  0  0  0  0  0  0  0  0
  140.3492   78.9022  218.8480 H   0  0  0  0  0  0  0  0  0  0  0  0
  139.5512   78.6902  221.0608 H   0  0  0  0  0  0  0  0  0  0  0  0
  141.0080   77.9796  223.8721 H   0  0  0  0  0  0  0  0  0  0  0  0
  142.7160   79.7280  224.8040 H   0  0  0  0  0  0  0  0  0  0  0  0
  143.5506   81.2812  222.8600 H   0  0  0  0  0  0  0  0  0  0  0  0
  139.2419   70.2831  222.3461 H   0  0  0  0  0  0  0  0  0  0  0  0
  138.8528   68.5977  224.1327 H   0  0  0  0  0  0  0  0  0  0  0  0
  139.0808   67.9119  226.3753 H   0  0  0  0  0  0  0  0  0  0  0  0
  139.8921   68.3470  228.7108 H   0  0  0  0  0  0  0  0  0  0  0  0
  141.0712   70.4655  229.1851 H   0  0  0  0  0  0  0  0  0  0  0  0
  141.4686   72.1604  227.4171 H   0  0  0  0  0  0  0  0  0  0  0  0
  1  2  2  0
  2  3  1  0
  3  4  1  0
  4  5  1  0
  5  6  2  0
  5  7  1  0
  7  8  1  0
  8  9  1  0
  9 10  1  0
 10 11  1  0
 11 12  1  0
 12 13  2  0
 13 14  1  0
 14 15  1  0
 15 16  2  0
  2 17  1  0
 17 18  2  0
 18 19  1  0
 19 20  2  0
 20 21  1  0
 21 22  2  0
 22 23  1  0
 23 24  2  0
 24 25  1  0
 25 26  2  0
 11  7  1  0
 16 12  1  0
 26 17  1  0
 25 20  1  0
  3 27  1  0
  4 28  1  0
  4 29  1  0
  8 30  1  0
  8 31  1  0
  9 32  1  0
  9 33  1  0
 10 34  1  0
 10 35  1  0
 11 36  1  6
 13 37  1  0
 14 38  1  0
 15 39  1  0
 18 40  1  0
 19 41  1  0
 21 42  1  0
 22 43  1  0
 23 44  1  0
 24 45  1  0
M  END
>  <smiles>  (48) 
O=C(NCC(=O)N1CCC[C@@H]1c1c[nH]cn1)c1ccc2ccccc2n1

>  <score_type>  (48) 
oracle

>  <origin>  (48) 
autodockgpu

>  <m_score__min__energy>  (48) 
-8.2300000000000004

>  <m_primary>  (48) 
energy

>  <rmsd>  (48) 
2.2329181358852224

>  <m_score__min__rmsd>  (48) 
2.2329181358852224

>  <meeko>  (48) 
{"free_energy": -7.72, "intermolecular_energy": -9.21, "internal_energy": -1.22, "cluster_size": 12, "cluster_id": 2, "rank_in_cluster": 8}

>  <energy>  (48) 
-6.65

>  <cluster_rmsd>  (48) 
0.04

>  <cluster>  (48) 
8

$$$$

     RDKit          3D

 45 48  0  0  0  0  0  0  0  0999 V2000
  140.7830   71.3750  221.3770 O   0  0  0  0  0  0  0  0  0  0  0  0
  140.2680   71.8730  222.4120 C   0  0  0  0  0  0  0  0  0  0  0  0
  139.7700   73.2120  222.2760 N   0  0  0  0  0  0  0  0  0  0  0  0
  139.9200   73.8190  220.9690 C   0  0  0  0  0  0  0  0  0  0  0  0
  140.9140   74.9060  221.0570 C   0  0  0  0  0  0  0  0  0  0  0  0
  141.0120   75.7140  222.0030 O   0  0  0  0  0  0  0  0  0  0  0  0
  141.8520   75.0600  219.9730 N   0  0  0  0  0  0  0  0  0  0  0  0
  141.6170   74.8040  218.5610 C   0  0  0  0  0  0  0  0  0  0  0  0
  142.1100   76.1230  217.9970 C   0  0  0  0  0  0  0  0  0  0  0  0
  143.3810   76.3360  218.8050 C   0  0  0  0  0  0  0  0  0  0  0  0
  143.2420   75.5050  220.0680 C   0  0  2  0  0  0  0  0  0  0  0  0
  144.1270   74.3190  220.0140 C   0  0  0  0  0  0  0  0  0  0  0  0
  144.7290   73.6110  221.0290 C   0  0  0  0  0  0  0  0  0  0  0  0
  145.4420   72.6060  220.4590 N   0  0  0  0  0  0  0  0  0  0  0  0
  145.2810   72.6940  219.1120 C   0  0  0  0  0  0  0  0  0  0  0  0
  144.4810   73.7370  218.8400 N   0  0  0  0  0  0  0  0  0  0  0  0
  140.1810   71.1470  223.6710 C   0  0  0  0  0  0  0  0  0  0  0  0
  139.5930   69.9070  223.6570 C   0  0  0  0  0  0  0  0  0  0  0  0
  139.4820   69.1730  224.8230 C   0  0  0  0  0  0  0  0  0  0  0  0
  139.9720   69.7040  226.0010 C   0  0  0  0  0  0  0  0  0  0  0  0
  139.8550   68.9590  227.1550 C   0  0  0  0  0  0  0  0  0  0  0  0
  140.3410   69.4750  228.3510 C   0  0  0  0  0  0  0  0  0  0  0  0
  140.9250   70.7220  228.3300 C   0  0  0  0  0  0  0  0  0  0  0  0
  141.0450   71.4760  227.1670 C   0  0  0  0  0  0  0  0  0  0  0  0
  140.5610   70.9550  225.9910 C   0  0  0  0  0  0  0  0  0  0  0  0
  140.6370   71.6130  224.8380 N   0  0  0  0  0  0  0  0  0  0  0  0
  139.3290   73.6930  223.0910 H   0  0  0  0  0  0  0  0  0  0  0  0
  140.2632   73.0625  220.2479 H   0  0  0  0  0  0  0  0  0  0  0  0
  138.9539   74.2242  220.6336 H   0  0  0  0  0  0  0  0  0  0  0  0
  142.2064   73.9515  218.1925 H   0  0  0  0  0  0  0  0  0  0  0  0
  140.5853   74.5310  218.2945 H   0  0  0  0  0  0  0  0  0  0  0  0
  142.3251   76.0456  216.9210 H   0  0  0  0  0  0  0  0  0  0  0  0
  141.3838   76.9456  218.0743 H   0  0  0  0  0  0  0  0  0  0  0  0
  144.2567   76.0043  218.2279 H   0  0  0  0  0  0  0  0  0  0  0  0
  143.5220   77.4000  219.0460 H   0  0  0  0  0  0  0  0  0  0  0  0
  143.4989   76.0537  220.9861 H   0  0  0  0  0  0  0  0  0  0  0  0
  144.6474   73.8210  222.1057 H   0  0  0  0  0  0  0  0  0  0  0  0
  146.0100   71.8970  220.9740 H   0  0  0  0  0  0  0  0  0  0  0  0
  145.7320   72.0213  218.3676 H   0  0  0  0  0  0  0  0  0  0  0  0
  139.2079   69.4949  222.7126 H   0  0  0  0  0  0  0  0  0  0  0  0
  139.0099   68.1795  224.8134 H   0  0  0  0  0  0  0  0  0  0  0  0
  139.3819   67.9663  227.1298 H   0  0  0  0  0  0  0  0  0  0  0  0
  140.2613   68.9034  229.2875 H   0  0  0  0  0  0  0  0  0  0  0  0
  141.3125   71.1389  229.2713 H   0  0  0  0  0  0  0  0  0  0  0  0
  141.5177   72.4690  227.1883 H   0  0  0  0  0  0  0  0  0  0  0  0
  1  2  2  0
  2  3  1  0
  3  4  1  0
  4  5  1  0
  5  6  2  0
  5  7  1  0
  7  8  1  0
  8  9  1  0
  9 10  1  0
 10 11  1  0
 11 12  1  0
 12 13  2  0
 13 14  1  0
 14 15  1  0
 15 16  2  0
  2 17  1  0
 17 18  2  0
 18 19  1  0
 19 20  2  0
 20 21  1  0
 21 22  2  0
 22 23  1  0
 23 24  2  0
 24 25  1  0
 25 26  2  0
 11  7  1  0
 16 12  1  0
 26 17  1  0
 25 20  1  0
  3 27  1  0
  4 28  1  0
  4 29  1  0
  8 30  1  0
  8 31  1  0
  9 32  1  0
  9 33  1  0
 10 34  1  0
 10 35  1  0
 11 36  1  1
 13 37  1  0
 14 38  1  0
 15 39  1  0
 18 40  1  0
 19 41  1  0
 21 42  1  0
 22 43  1  0
 23 44  1  0
 24 45  1  0
M  END
>  <smiles>  (49) 
O=C(NCC(=O)N1CCC[C@@H]1c1c[nH]cn1)c1ccc2ccccc2n1

>  <score_type>  (49) 
oracle

>  <origin>  (49) 
autodockgpu

>  <m_score__min__energy>  (49) 
-8.2300000000000004

>  <m_primary>  (49) 
energy

>  <rmsd>  (49) 
2.9564018056936825

>  <m_score__min__rmsd>  (49) 
2.9564018056936825

>  <meeko>  (49) 
{"free_energy": -7.91, "intermolecular_energy": -9.4, "internal_energy": -1.29, "cluster_size": 21, "cluster_id": 1, "rank_in_cluster": 11}

>  <energy>  (49) 
-6.61

>  <cluster_rmsd>  (49) 
0.32

>  <cluster>  (49) 
8

$$$$

     RDKit          3D

 45 48  0  0  0  0  0  0  0  0999 V2000
  140.5960   74.1570  220.2890 O   0  0  0  0  0  0  0  0  0  0  0  0
  140.3440   74.8850  221.2840 C   0  0  0  0  0  0  0  0  0  0  0  0
  139.5340   74.2850  222.3060 N   0  0  0  0  0  0  0  0  0  0  0  0
  139.1110   72.9200  222.0640 C   0  0  0  0  0  0  0  0  0  0  0  0
  140.0520   72.0020  222.7350 C   0  0  0  0  0  0  0  0  0  0  0  0
  141.2700   71.9080  222.4770 O   0  0  0  0  0  0  0  0  0  0  0  0
  139.5400   71.1410  223.7720 N   0  0  0  0  0  0  0  0  0  0  0  0
  138.1600   71.0180  224.2140 C   0  0  0  0  0  0  0  0  0  0  0  0
  138.0160   69.5110  224.1220 C   0  0  0  0  0  0  0  0  0  0  0  0
  139.3340   69.0480  224.7260 C   0  0  0  0  0  0  0  0  0  0  0  0
  140.3050   70.2090  224.5990 C   0  0  2  0  0  0  0  0  0  0  0  0
  140.5480   70.8330  225.9200 C   0  0  0  0  0  0  0  0  0  0  0  0
  141.3500   71.8960  226.2680 C   0  0  0  0  0  0  0  0  0  0  0  0
  141.2270   72.0800  227.6070 N   0  0  0  0  0  0  0  0  0  0  0  0
  140.3610   71.1440  228.0770 C   0  0  0  0  0  0  0  0  0  0  0  0
  139.9470   70.3840  227.0510 N   0  0  0  0  0  0  0  0  0  0  0  0
  140.8370   76.2500  221.4000 C   0  0  0  0  0  0  0  0  0  0  0  0
  141.2380   76.8870  220.2530 C   0  0  0  0  0  0  0  0  0  0  0  0
  141.7150   78.1840  220.3030 C   0  0  0  0  0  0  0  0  0  0  0  0
  141.7820   78.8280  221.5230 C   0  0  0  0  0  0  0  0  0  0  0  0
  142.2600   80.1210  221.5570 C   0  0  0  0  0  0  0  0  0  0  0  0
  142.3360   80.7870  222.7740 C   0  0  0  0  0  0  0  0  0  0  0  0
  141.9250   80.1200  223.9070 C   0  0  0  0  0  0  0  0  0  0  0  0
  141.4430   78.8150  223.8760 C   0  0  0  0  0  0  0  0  0  0  0  0
  141.3720   78.1670  222.6670 C   0  0  0  0  0  0  0  0  0  0  0  0
  140.9240   76.9210  222.5540 N   0  0  0  0  0  0  0  0  0  0  0  0
  139.2830   74.8270  223.1620 H   0  0  0  0  0  0  0  0  0  0  0  0
  138.0984   72.7702  222.4668 H   0  0  0  0  0  0  0  0  0  0  0  0
  139.1013   72.7189  220.9826 H   0  0  0  0  0  0  0  0  0  0  0  0
  138.0219   71.3837  225.2422 H   0  0  0  0  0  0  0  0  0  0  0  0
  137.4249   71.5999  223.6387 H   0  0  0  0  0  0  0  0  0  0  0  0
  137.1567   69.1521  224.7074 H   0  0  0  0  0  0  0  0  0  0  0  0
  137.8312   69.1375  223.1040 H   0  0  0  0  0  0  0  0  0  0  0  0
  139.1940   68.7852  225.7849 H   0  0  0  0  0  0  0  0  0  0  0  0
  139.7147   68.1557  224.2074 H   0  0  0  0  0  0  0  0  0  0  0  0
  141.2867   69.9196  224.1959 H   0  0  0  0  0  0  0  0  0  0  0  0
  141.9766   72.4886  225.5852 H   0  0  0  0  0  0  0  0  0  0  0  0
  141.7160   72.8150  228.1660 H   0  0  0  0  0  0  0  0  0  0  0  0
  140.0504   71.0282  229.1259 H   0  0  0  0  0  0  0  0  0  0  0  0
  141.1797   76.3628  219.2877 H   0  0  0  0  0  0  0  0  0  0  0  0
  142.0366   78.6957  219.3839 H   0  0  0  0  0  0  0  0  0  0  0  0
  142.5780   80.6202  220.6298 H   0  0  0  0  0  0  0  0  0  0  0  0
  142.7139   81.8185  222.8312 H   0  0  0  0  0  0  0  0  0  0  0  0
  141.9800   80.6397  224.8749 H   0  0  0  0  0  0  0  0  0  0  0  0
  141.1251   78.3123  224.8014 H   0  0  0  0  0  0  0  0  0  0  0  0
  1  2  2  0
  2  3  1  0
  3  4  1  0
  4  5  1  0
  5  6  2  0
  5  7  1  0
  7  8  1  0
  8  9  1  0
  9 10  1  0
 10 11  1  0
 11 12  1  0
 12 13  2  0
 13 14  1  0
 14 15  1  0
 15 16  2  0
  2 17  1  0
 17 18  2  0
 18 19  1  0
 19 20  2  0
 20 21  1  0
 21 22  2  0
 22 23  1  0
 23 24  2  0
 24 25  1  0
 25 26  2  0
 11  7  1  0
 16 12  1  0
 26 17  1  0
 25 20  1  0
  3 27  1  0
  4 28  1  0
  4 29  1  0
  8 30  1  0
  8 31  1  0
  9 32  1  0
  9 33  1  0
 10 34  1  0
 10 35  1  0
 11 36  1  6
 13 37  1  0
 14 38  1  0
 15 39  1  0
 18 40  1  0
 19 41  1  0
 21 42  1  0
 22 43  1  0
 23 44  1  0
 24 45  1  0
M  END
>  <smiles>  (50) 
O=C(NCC(=O)N1CCC[C@@H]1c1c[nH]cn1)c1ccc2ccccc2n1

>  <score_type>  (50) 
oracle

>  <origin>  (50) 
autodockgpu

>  <m_score__min__energy>  (50) 
-8.2300000000000004

>  <m_primary>  (50) 
energy

>  <rmsd>  (50) 
8.571092815180602

>  <m_score__min__rmsd>  (50) 
8.571092815180602

>  <meeko>  (50) 
{"free_energy": -7.69, "intermolecular_energy": -9.18, "internal_energy": -1.22, "cluster_size": 4, "cluster_id": 3, "rank_in_cluster": 2}

>  <energy>  (50) 
-6.36

>  <cluster_rmsd>  (50) 
0.84

>  <cluster>  (50) 
8

$$$$
