
     RDKit          3D

 54 58  0  0  0  0  0  0  0  0999 V2000
  142.8500   74.9610  220.5780 O   0  0  0  0  0  0  0  0  0  0  0  0
  141.7730   74.5750  221.1310 C   0  0  0  0  0  0  0  0  0  0  0  0
  141.5500   73.1080  221.2170 C   0  0  0  0  0  0  0  0  0  0  0  0
  140.2840   72.8500  221.8910 C   0  0  0  0  0  0  0  0  0  0  0  0
  139.8870   71.4530  222.1160 C   0  0  0  0  0  0  0  0  0  0  0  0
  139.6250   70.5930  221.0540 C   0  0  0  0  0  0  0  0  0  0  0  0
  139.2680   69.2790  221.2500 C   0  0  0  0  0  0  0  0  0  0  0  0
  139.1680   68.7950  222.5570 C   0  0  0  0  0  0  0  0  0  0  0  0
  139.4250   69.6320  223.6490 C   0  0  0  0  0  0  0  0  0  0  0  0
  139.3120   69.0620  224.9690 C   0  0  0  0  0  0  0  0  0  0  0  0
  138.9640   67.8410  225.0720 O   0  0  0  0  0  0  0  0  0  0  0  0
  139.5890   69.8800  226.0950 N   0  0  0  0  0  0  0  0  0  0  0  0
  139.9950   71.2880  226.1130 C   0  0  0  0  0  0  0  0  0  0  0  0
  141.0850   71.2720  227.1740 C   0  0  0  0  0  0  0  0  0  0  0  0
  140.9580   69.9660  227.9260 C   0  0  0  0  0  0  0  0  0  0  0  0
  139.5430   69.5200  227.5200 C   0  0  0  0  0  0  0  0  0  0  0  0
  139.7740   70.9250  223.4010 C   0  0  0  0  0  0  0  0  0  0  0  0
  139.4640   73.7430  222.3410 N   0  0  0  0  0  0  0  0  0  0  0  0
  139.6710   75.1360  222.2490 C   0  0  0  0  0  0  0  0  0  0  0  0
  138.8020   76.0880  222.7220 C   0  0  0  0  0  0  0  0  0  0  0  0
  139.0540   77.4580  222.6090 C   0  0  0  0  0  0  0  0  0  0  0  0
  140.2130   77.8830  222.0040 C   0  0  0  0  0  0  0  0  0  0  0  0
  140.5780   79.2320  221.8240 N   0  0  0  0  0  0  0  0  0  0  0  0
  140.7050   80.0550  220.6400 C   0  0  0  0  0  0  0  0  0  0  0  0
  141.8390   81.0280  220.9510 C   0  0  0  0  0  0  0  0  0  0  0  0
  142.1450   80.8190  222.4060 C   0  0  0  0  0  0  0  0  0  0  0  0
  140.9000   80.1380  222.9300 C   0  0  0  0  0  0  0  0  0  0  0  0
  141.1000   76.9100  221.5200 C   0  0  0  0  0  0  0  0  0  0  0  0
  140.8340   75.5620  221.6410 C   0  0  0  0  0  0  0  0  0  0  0  0
  141.5200   72.6812  220.2036 H   0  0  0  0  0  0  0  0  0  0  0  0
  142.3700   72.6442  221.7848 H   0  0  0  0  0  0  0  0  0  0  0  0
  139.7058   70.9757  220.0259 H   0  0  0  0  0  0  0  0  0  0  0  0
  139.0648   68.6206  220.3925 H   0  0  0  0  0  0  0  0  0  0  0  0
  138.8846   67.7462  222.7293 H   0  0  0  0  0  0  0  0  0  0  0  0
  140.3887   71.6058  225.1363 H   0  0  0  0  0  0  0  0  0  0  0  0
  139.1744   71.9902  226.3216 H   0  0  0  0  0  0  0  0  0  0  0  0
  142.0747   71.3384  226.6986 H   0  0  0  0  0  0  0  0  0  0  0  0
  140.9779   72.1278  227.8568 H   0  0  0  0  0  0  0  0  0  0  0  0
  141.7176   69.2394  227.6020 H   0  0  0  0  0  0  0  0  0  0  0  0
  141.1076   70.0555  229.0121 H   0  0  0  0  0  0  0  0  0  0  0  0
  139.3923   68.4405  227.6682 H   0  0  0  0  0  0  0  0  0  0  0  0
  138.7212   69.9708  228.0958 H   0  0  0  0  0  0  0  0  0  0  0  0
  139.9767   71.5852  224.2572 H   0  0  0  0  0  0  0  0  0  0  0  0
  137.8717   75.7598  223.2086 H   0  0  0  0  0  0  0  0  0  0  0  0
  138.3317   78.1894  223.0005 H   0  0  0  0  0  0  0  0  0  0  0  0
  140.9556   79.4369  219.7653 H   0  0  0  0  0  0  0  0  0  0  0  0
  139.7677   80.5782  220.3996 H   0  0  0  0  0  0  0  0  0  0  0  0
  142.7216   80.8024  220.3344 H   0  0  0  0  0  0  0  0  0  0  0  0
  141.5599   82.0696  220.7338 H   0  0  0  0  0  0  0  0  0  0  0  0
  143.0289   80.1769  222.5344 H   0  0  0  0  0  0  0  0  0  0  0  0
  142.3785   81.7547  222.9352 H   0  0  0  0  0  0  0  0  0  0  0  0
  141.1050   79.5834  223.8576 H   0  0  0  0  0  0  0  0  0  0  0  0
  140.0871   80.8299  223.1954 H   0  0  0  0  0  0  0  0  0  0  0  0
  142.0319   77.2304  221.0313 H   0  0  0  0  0  0  0  0  0  0  0  0
  1  2  2  0
  2  3  1  0
  3  4  1  0
  4  5  1  0
  5  6  2  0
  6  7  1  0
  7  8  2  0
  8  9  1  0
  9 10  1  0
 10 11  2  0
 10 12  1  0
 12 13  1  0
 13 14  1  0
 14 15  1  0
 15 16  1  0
  9 17  2  0
  4 18  2  0
 18 19  1  0
 19 20  2  0
 20 21  1  0
 21 22  2  0
 22 23  1  0
 23 24  1  0
 24 25  1  0
 25 26  1  0
 26 27  1  0
 22 28  1  0
 28 29  2  0
 29  2  1  0
 17  5  1  0
 29 19  1  0
 16 12  1  0
 27 23  1  0
  3 30  1  0
  3 31  1  0
  6 32  1  0
  7 33  1  0
  8 34  1  0
 13 35  1  0
 13 36  1  0
 14 37  1  0
 14 38  1  0
 15 39  1  0
 15 40  1  0
 16 41  1  0
 16 42  1  0
 17 43  1  0
 20 44  1  0
 21 45  1  0
 24 46  1  0
 24 47  1  0
 25 48  1  0
 25 49  1  0
 26 50  1  0
 26 51  1  0
 27 52  1  0
 27 53  1  0
 28 54  1  0
M  END
>  <smiles>  (1) 
O=C1CC(c2cccc(C(=O)N3CCCC3)c2)=Nc2ccc(N3CCCC3)cc21

>  <score_type>  (1) 
oracle

>  <origin>  (1) 
autodockgpu

>  <m_score__min__energy>  (1) 
-8.5

>  <m_primary>  (1) 
energy

>  <rmsd>  (1) 
6.289498020987599

>  <m_score__min__rmsd>  (1) 
6.289498020987599

>  <meeko>  (1) 
{"free_energy": -8.45, "intermolecular_energy": -9.35, "internal_energy": -0.58, "cluster_size": 46, "cluster_id": 1, "rank_in_cluster": 15}

>  <energy>  (1) 
-8.5

>  <cluster_rmsd>  (1) 
0.0

>  <cluster>  (1) 
1

$$$$

     RDKit          3D

 54 58  0  0  0  0  0  0  0  0999 V2000
  142.8570   74.9710  220.6320 O   0  0  0  0  0  0  0  0  0  0  0  0
  141.7730   74.5770  221.1660 C   0  0  0  0  0  0  0  0  0  0  0  0
  141.5590   73.1090  221.2470 C   0  0  0  0  0  0  0  0  0  0  0  0
  140.2850   72.8410  221.9000 C   0  0  0  0  0  0  0  0  0  0  0  0
  139.8940   71.4410  222.1170 C   0  0  0  0  0  0  0  0  0  0  0  0
  139.5890   70.5990  221.0520 C   0  0  0  0  0  0  0  0  0  0  0  0
  139.2380   69.2820  221.2400 C   0  0  0  0  0  0  0  0  0  0  0  0
  139.1870   68.7770  222.5410 C   0  0  0  0  0  0  0  0  0  0  0  0
  139.4880   69.5960  223.6360 C   0  0  0  0  0  0  0  0  0  0  0  0
  139.4240   69.0040  224.9500 C   0  0  0  0  0  0  0  0  0  0  0  0
  139.1460   67.7640  225.0420 O   0  0  0  0  0  0  0  0  0  0  0  0
  139.6710   69.8210  226.0830 N   0  0  0  0  0  0  0  0  0  0  0  0
  140.0000   71.2500  226.1150 C   0  0  0  0  0  0  0  0  0  0  0  0
  141.1040   71.2810  227.1610 C   0  0  0  0  0  0  0  0  0  0  0  0
  141.0590   69.9600  227.8970 C   0  0  0  0  0  0  0  0  0  0  0  0
  139.6660   69.4420  227.5040 C   0  0  0  0  0  0  0  0  0  0  0  0
  139.8290   70.8920  223.3960 C   0  0  0  0  0  0  0  0  0  0  0  0
  139.4510   73.7280  222.3370 N   0  0  0  0  0  0  0  0  0  0  0  0
  139.6500   75.1220  222.2500 C   0  0  0  0  0  0  0  0  0  0  0  0
  138.7660   76.0670  222.7090 C   0  0  0  0  0  0  0  0  0  0  0  0
  139.0100   77.4390  222.6020 C   0  0  0  0  0  0  0  0  0  0  0  0
  140.1750   77.8730  222.0170 C   0  0  0  0  0  0  0  0  0  0  0  0
  140.5340   79.2250  221.8440 N   0  0  0  0  0  0  0  0  0  0  0  0
  140.8200   80.0110  220.6630 C   0  0  0  0  0  0  0  0  0  0  0  0
  141.8720   81.0250  221.1050 C   0  0  0  0  0  0  0  0  0  0  0  0
  141.9580   80.8730  222.5960 C   0  0  0  0  0  0  0  0  0  0  0  0
  140.6640   80.1760  222.9520 C   0  0  0  0  0  0  0  0  0  0  0  0
  141.0770   76.9080  221.5470 C   0  0  0  0  0  0  0  0  0  0  0  0
  140.8190   75.5580  221.6610 C   0  0  0  0  0  0  0  0  0  0  0  0
  141.5483   72.6832  220.2328 H   0  0  0  0  0  0  0  0  0  0  0  0
  142.3731   72.6506  221.8277 H   0  0  0  0  0  0  0  0  0  0  0  0
  139.6298   70.9987  220.0280 H   0  0  0  0  0  0  0  0  0  0  0  0
  139.0016   68.6379  220.3802 H   0  0  0  0  0  0  0  0  0  0  0  0
  138.9078   67.7261  222.7070 H   0  0  0  0  0  0  0  0  0  0  0  0
  140.3620   71.6014  225.1375 H   0  0  0  0  0  0  0  0  0  0  0  0
  139.1451   71.9030  226.3444 H   0  0  0  0  0  0  0  0  0  0  0  0
  142.0819   71.4078  226.6734 H   0  0  0  0  0  0  0  0  0  0  0  0
  140.9600   72.1210  227.8565 H   0  0  0  0  0  0  0  0  0  0  0  0
  141.8528   69.2805  227.5532 H   0  0  0  0  0  0  0  0  0  0  0  0
  141.2182   70.0439  228.9822 H   0  0  0  0  0  0  0  0  0  0  0  0
  139.5771   68.3541  227.6402 H   0  0  0  0  0  0  0  0  0  0  0  0
  138.8291   69.8402  228.0965 H   0  0  0  0  0  0  0  0  0  0  0  0
  140.0649   71.5379  224.2546 H   0  0  0  0  0  0  0  0  0  0  0  0
  137.8298   75.7314  223.1790 H   0  0  0  0  0  0  0  0  0  0  0  0
  138.2761   78.1647  222.9826 H   0  0  0  0  0  0  0  0  0  0  0  0
  141.2139   79.3713  219.8595 H   0  0  0  0  0  0  0  0  0  0  0  0
  139.9184   80.4996  220.2649 H   0  0  0  0  0  0  0  0  0  0  0  0
  142.8427   80.8034  220.6374 H   0  0  0  0  0  0  0  0  0  0  0  0
  141.6062   82.0507  220.8095 H   0  0  0  0  0  0  0  0  0  0  0  0
  142.8263   80.2602  222.8798 H   0  0  0  0  0  0  0  0  0  0  0  0
  142.0873   81.8321  223.1189 H   0  0  0  0  0  0  0  0  0  0  0  0
  140.7387   79.6585  223.9198 H   0  0  0  0  0  0  0  0  0  0  0  0
  139.8049   80.8534  223.0666 H   0  0  0  0  0  0  0  0  0  0  0  0
  142.0148   77.2362  221.0750 H   0  0  0  0  0  0  0  0  0  0  0  0
  1  2  2  0
  2  3  1  0
  3  4  1  0
  4  5  1  0
  5  6  2  0
  6  7  1  0
  7  8  2  0
  8  9  1  0
  9 10  1  0
 10 11  2  0
 10 12  1  0
 12 13  1  0
 13 14  1  0
 14 15  1  0
 15 16  1  0
  9 17  2  0
  4 18  2  0
 18 19  1  0
 19 20  2  0
 20 21  1  0
 21 22  2  0
 22 23  1  0
 23 24  1  0
 24 25  1  0
 25 26  1  0
 26 27  1  0
 22 28  1  0
 28 29  2  0
 29  2  1  0
 17  5  1  0
 29 19  1  0
 16 12  1  0
 27 23  1  0
  3 30  1  0
  3 31  1  0
  6 32  1  0
  7 33  1  0
  8 34  1  0
 13 35  1  0
 13 36  1  0
 14 37  1  0
 14 38  1  0
 15 39  1  0
 15 40  1  0
 16 41  1  0
 16 42  1  0
 17 43  1  0
 20 44  1  0
 21 45  1  0
 24 46  1  0
 24 47  1  0
 25 48  1  0
 25 49  1  0
 26 50  1  0
 26 51  1  0
 27 52  1  0
 27 53  1  0
 28 54  1  0
M  END
>  <smiles>  (2) 
O=C1CC(c2cccc(C(=O)N3CCCC3)c2)=Nc2ccc(N3CCCC3)cc21

>  <score_type>  (2) 
oracle

>  <origin>  (2) 
autodockgpu

>  <m_score__min__energy>  (2) 
-8.5

>  <m_primary>  (2) 
energy

>  <rmsd>  (2) 
6.284275370693678

>  <m_score__min__rmsd>  (2) 
6.284275370693678

>  <meeko>  (2) 
{"free_energy": -8.5, "intermolecular_energy": -9.39, "internal_energy": -0.58, "cluster_size": 46, "cluster_id": 1, "rank_in_cluster": 5}

>  <energy>  (2) 
-8.5

>  <cluster_rmsd>  (2) 
0.01

>  <cluster>  (2) 
1

$$$$

     RDKit          3D

 54 58  0  0  0  0  0  0  0  0999 V2000
  142.8020   74.9890  220.5900 O   0  0  0  0  0  0  0  0  0  0  0  0
  141.7280   74.5870  221.1380 C   0  0  0  0  0  0  0  0  0  0  0  0
  141.5230   73.1170  221.2150 C   0  0  0  0  0  0  0  0  0  0  0  0
  140.2590   72.8390  221.8840 C   0  0  0  0  0  0  0  0  0  0  0  0
  139.8790   71.4360  222.1010 C   0  0  0  0  0  0  0  0  0  0  0  0
  139.6080   70.5850  221.0340 C   0  0  0  0  0  0  0  0  0  0  0  0
  139.2670   69.2660  221.2210 C   0  0  0  0  0  0  0  0  0  0  0  0
  139.1910   68.7670  222.5240 C   0  0  0  0  0  0  0  0  0  0  0  0
  139.4580   69.5950  223.6210 C   0  0  0  0  0  0  0  0  0  0  0  0
  139.3710   69.0100  224.9360 C   0  0  0  0  0  0  0  0  0  0  0  0
  139.0590   67.7790  225.0310 O   0  0  0  0  0  0  0  0  0  0  0  0
  139.6330   69.8250  226.0680 N   0  0  0  0  0  0  0  0  0  0  0  0
  140.0000   71.2440  226.0970 C   0  0  0  0  0  0  0  0  0  0  0  0
  141.0980   71.2490  227.1490 C   0  0  0  0  0  0  0  0  0  0  0  0
  141.0140   69.9330  227.8900 C   0  0  0  0  0  0  0  0  0  0  0  0
  139.6090   69.4510  227.4900 C   0  0  0  0  0  0  0  0  0  0  0  0
  139.7910   70.8940  223.3810 C   0  0  0  0  0  0  0  0  0  0  0  0
  139.4270   73.7200  222.3370 N   0  0  0  0  0  0  0  0  0  0  0  0
  139.6170   75.1150  222.2540 C   0  0  0  0  0  0  0  0  0  0  0  0
  138.7350   76.0540  222.7300 C   0  0  0  0  0  0  0  0  0  0  0  0
  138.9700   77.4270  222.6250 C   0  0  0  0  0  0  0  0  0  0  0  0
  140.1240   77.8700  222.0260 C   0  0  0  0  0  0  0  0  0  0  0  0
  140.4740   79.2250  221.8530 N   0  0  0  0  0  0  0  0  0  0  0  0
  140.8010   80.0020  220.6780 C   0  0  0  0  0  0  0  0  0  0  0  0
  141.8200   81.0340  221.1540 C   0  0  0  0  0  0  0  0  0  0  0  0
  141.8440   80.8990  222.6480 C   0  0  0  0  0  0  0  0  0  0  0  0
  140.5440   80.1890  222.9560 C   0  0  0  0  0  0  0  0  0  0  0  0
  141.0250   76.9120  221.5390 C   0  0  0  0  0  0  0  0  0  0  0  0
  140.7760   75.5600  221.6510 C   0  0  0  0  0  0  0  0  0  0  0  0
  141.5009   72.6958  220.1991 H   0  0  0  0  0  0  0  0  0  0  0  0
  142.3473   72.6603  221.7825 H   0  0  0  0  0  0  0  0  0  0  0  0
  139.6684   70.9796  220.0090 H   0  0  0  0  0  0  0  0  0  0  0  0
  139.0576   68.6148  220.3595 H   0  0  0  0  0  0  0  0  0  0  0  0
  138.9189   67.7141  222.6894 H   0  0  0  0  0  0  0  0  0  0  0  0
  140.3770   71.5820  225.1205 H   0  0  0  0  0  0  0  0  0  0  0  0
  139.1617   71.9207  226.3191 H   0  0  0  0  0  0  0  0  0  0  0  0
  142.0816   71.3477  226.6666 H   0  0  0  0  0  0  0  0  0  0  0  0
  140.9721   72.0951  227.8406 H   0  0  0  0  0  0  0  0  0  0  0  0
  141.7914   69.2312  227.5537 H   0  0  0  0  0  0  0  0  0  0  0  0
  141.1694   70.0167  228.9757 H   0  0  0  0  0  0  0  0  0  0  0  0
  139.4900   68.3663  227.6292 H   0  0  0  0  0  0  0  0  0  0  0  0
  138.7795   69.8735  228.0761 H   0  0  0  0  0  0  0  0  0  0  0  0
  140.0008   71.5472  224.2408 H   0  0  0  0  0  0  0  0  0  0  0  0
  137.8077   75.7117  223.2126 H   0  0  0  0  0  0  0  0  0  0  0  0
  138.2374   78.1470  223.0185 H   0  0  0  0  0  0  0  0  0  0  0  0
  141.2374   79.3593  219.8992 H   0  0  0  0  0  0  0  0  0  0  0  0
  139.9115   80.4748  220.2361 H   0  0  0  0  0  0  0  0  0  0  0  0
  142.8126   80.8202  220.7309 H   0  0  0  0  0  0  0  0  0  0  0  0
  141.5539   82.0530  220.8364 H   0  0  0  0  0  0  0  0  0  0  0  0
  142.7068   80.3004  222.9755 H   0  0  0  0  0  0  0  0  0  0  0  0
  141.9391   81.8651  223.1653 H   0  0  0  0  0  0  0  0  0  0  0  0
  140.5833   79.6823  223.9316 H   0  0  0  0  0  0  0  0  0  0  0  0
  139.6724   80.8563  223.0268 H   0  0  0  0  0  0  0  0  0  0  0  0
  141.9542   77.2475  221.0552 H   0  0  0  0  0  0  0  0  0  0  0  0
  1  2  2  0
  2  3  1  0
  3  4  1  0
  4  5  1  0
  5  6  2  0
  6  7  1  0
  7  8  2  0
  8  9  1  0
  9 10  1  0
 10 11  2  0
 10 12  1  0
 12 13  1  0
 13 14  1  0
 14 15  1  0
 15 16  1  0
  9 17  2  0
  4 18  2  0
 18 19  1  0
 19 20  2  0
 20 21  1  0
 21 22  2  0
 22 23  1  0
 23 24  1  0
 24 25  1  0
 25 26  1  0
 26 27  1  0
 22 28  1  0
 28 29  2  0
 29  2  1  0
 17  5  1  0
 29 19  1  0
 16 12  1  0
 27 23  1  0
  3 30  1  0
  3 31  1  0
  6 32  1  0
  7 33  1  0
  8 34  1  0
 13 35  1  0
 13 36  1  0
 14 37  1  0
 14 38  1  0
 15 39  1  0
 15 40  1  0
 16 41  1  0
 16 42  1  0
 17 43  1  0
 20 44  1  0
 21 45  1  0
 24 46  1  0
 24 47  1  0
 25 48  1  0
 25 49  1  0
 26 50  1  0
 26 51  1  0
 27 52  1  0
 27 53  1  0
 28 54  1  0
M  END
>  <smiles>  (3) 
O=C1CC(c2cccc(C(=O)N3CCCC3)c2)=Nc2ccc(N3CCCC3)cc21

>  <score_type>  (3) 
oracle

>  <origin>  (3) 
autodockgpu

>  <m_score__min__energy>  (3) 
-8.5

>  <m_primary>  (3) 
energy

>  <rmsd>  (3) 
6.284536681396689

>  <m_score__min__rmsd>  (3) 
6.284536681396689

>  <meeko>  (3) 
{"free_energy": -8.49, "intermolecular_energy": -9.38, "internal_energy": -0.58, "cluster_size": 46, "cluster_id": 1, "rank_in_cluster": 8}

>  <energy>  (3) 
-8.5

>  <cluster_rmsd>  (3) 
0.06

>  <cluster>  (3) 
1

$$$$

     RDKit          3D

 54 58  0  0  0  0  0  0  0  0999 V2000
  142.8650   74.9130  220.6400 O   0  0  0  0  0  0  0  0  0  0  0  0
  141.7760   74.5380  221.1760 C   0  0  0  0  0  0  0  0  0  0  0  0
  141.5360   73.0750  221.2570 C   0  0  0  0  0  0  0  0  0  0  0  0
  140.2570   72.8290  221.9110 C   0  0  0  0  0  0  0  0  0  0  0  0
  139.8420   71.4360  222.1290 C   0  0  0  0  0  0  0  0  0  0  0  0
  139.4920   70.6090  221.0660 C   0  0  0  0  0  0  0  0  0  0  0  0
  139.1180   69.2990  221.2540 C   0  0  0  0  0  0  0  0  0  0  0  0
  139.0880   68.7860  222.5530 C   0  0  0  0  0  0  0  0  0  0  0  0
  139.4340   69.5900  223.6460 C   0  0  0  0  0  0  0  0  0  0  0  0
  139.3890   68.9900  224.9570 C   0  0  0  0  0  0  0  0  0  0  0  0
  139.1160   67.7490  225.0450 O   0  0  0  0  0  0  0  0  0  0  0  0
  139.6500   69.8020  226.0910 N   0  0  0  0  0  0  0  0  0  0  0  0
  139.9760   71.2310  226.1260 C   0  0  0  0  0  0  0  0  0  0  0  0
  141.0940   71.2590  227.1570 C   0  0  0  0  0  0  0  0  0  0  0  0
  141.0630   69.9340  227.8860 C   0  0  0  0  0  0  0  0  0  0  0  0
  139.6660   69.4140  227.5100 C   0  0  0  0  0  0  0  0  0  0  0  0
  139.7970   70.8800  223.4060 C   0  0  0  0  0  0  0  0  0  0  0  0
  139.4400   73.7310  222.3490 N   0  0  0  0  0  0  0  0  0  0  0  0
  139.6640   75.1210  222.2620 C   0  0  0  0  0  0  0  0  0  0  0  0
  138.7980   76.0820  222.7220 C   0  0  0  0  0  0  0  0  0  0  0  0
  139.0660   77.4490  222.6150 C   0  0  0  0  0  0  0  0  0  0  0  0
  140.2380   77.8630  222.0280 C   0  0  0  0  0  0  0  0  0  0  0  0
  140.6210   79.2080  221.8540 N   0  0  0  0  0  0  0  0  0  0  0  0
  141.4590   79.8610  220.8720 C   0  0  0  0  0  0  0  0  0  0  0  0
  142.1290   81.0090  221.6210 C   0  0  0  0  0  0  0  0  0  0  0  0
  141.4480   81.0550  222.9570 C   0  0  0  0  0  0  0  0  0  0  0  0
  140.1590   80.2990  222.7180 C   0  0  0  0  0  0  0  0  0  0  0  0
  141.1220   76.8810  221.5570 C   0  0  0  0  0  0  0  0  0  0  0  0
  140.8400   75.5360  221.6720 C   0  0  0  0  0  0  0  0  0  0  0  0
  141.5172   72.6496  220.2428 H   0  0  0  0  0  0  0  0  0  0  0  0
  142.3420   72.6023  221.8375 H   0  0  0  0  0  0  0  0  0  0  0  0
  139.5152   71.0155  220.0441 H   0  0  0  0  0  0  0  0  0  0  0  0
  138.8471   68.6660  220.3962 H   0  0  0  0  0  0  0  0  0  0  0  0
  138.7897   67.7403  222.7189 H   0  0  0  0  0  0  0  0  0  0  0  0
  140.3239   71.5884  225.1456 H   0  0  0  0  0  0  0  0  0  0  0  0
  139.1228   71.8809  226.3703 H   0  0  0  0  0  0  0  0  0  0  0  0
  142.0647   71.3914  226.6569 H   0  0  0  0  0  0  0  0  0  0  0  0
  140.9569   72.0945  227.8592 H   0  0  0  0  0  0  0  0  0  0  0  0
  141.8538   69.2587  227.5272 H   0  0  0  0  0  0  0  0  0  0  0  0
  141.2373   70.0124  228.9693 H   0  0  0  0  0  0  0  0  0  0  0  0
  139.5823   68.3250  227.6408 H   0  0  0  0  0  0  0  0  0  0  0  0
  138.8364   69.8057  228.1168 H   0  0  0  0  0  0  0  0  0  0  0  0
  140.0682   71.5148  224.2625 H   0  0  0  0  0  0  0  0  0  0  0  0
  137.8565   75.7632  223.1931 H   0  0  0  0  0  0  0  0  0  0  0  0
  138.3456   78.1873  222.9970 H   0  0  0  0  0  0  0  0  0  0  0  0
  142.2135   79.1619  220.4821 H   0  0  0  0  0  0  0  0  0  0  0  0
  140.8798   80.2160  220.0068 H   0  0  0  0  0  0  0  0  0  0  0  0
  143.2049   80.8149  221.7426 H   0  0  0  0  0  0  0  0  0  0  0  0
  142.0388   81.9623  221.0796 H   0  0  0  0  0  0  0  0  0  0  0  0
  142.0578   80.5602  223.7272 H   0  0  0  0  0  0  0  0  0  0  0  0
  141.2843   82.0800  223.3212 H   0  0  0  0  0  0  0  0  0  0  0  0
  139.7365   79.9162  223.6587 H   0  0  0  0  0  0  0  0  0  0  0  0
  139.3538   80.9085  222.2819 H   0  0  0  0  0  0  0  0  0  0  0  0
  142.0649   77.1919  221.0835 H   0  0  0  0  0  0  0  0  0  0  0  0
  1  2  2  0
  2  3  1  0
  3  4  1  0
  4  5  1  0
  5  6  2  0
  6  7  1  0
  7  8  2  0
  8  9  1  0
  9 10  1  0
 10 11  2  0
 10 12  1  0
 12 13  1  0
 13 14  1  0
 14 15  1  0
 15 16  1  0
  9 17  2  0
  4 18  2  0
 18 19  1  0
 19 20  2  0
 20 21  1  0
 21 22  2  0
 22 23  1  0
 23 24  1  0
 24 25  1  0
 25 26  1  0
 26 27  1  0
 22 28  1  0
 28 29  2  0
 29  2  1  0
 17  5  1  0
 29 19  1  0
 16 12  1  0
 27 23  1  0
  3 30  1  0
  3 31  1  0
  6 32  1  0
  7 33  1  0
  8 34  1  0
 13 35  1  0
 13 36  1  0
 14 37  1  0
 14 38  1  0
 15 39  1  0
 15 40  1  0
 16 41  1  0
 16 42  1  0
 17 43  1  0
 20 44  1  0
 21 45  1  0
 24 46  1  0
 24 47  1  0
 25 48  1  0
 25 49  1  0
 26 50  1  0
 26 51  1  0
 27 52  1  0
 27 53  1  0
 28 54  1  0
M  END
>  <smiles>  (4) 
O=C1CC(c2cccc(C(=O)N3CCCC3)c2)=Nc2ccc(N3CCCC3)cc21

>  <score_type>  (4) 
oracle

>  <origin>  (4) 
autodockgpu

>  <m_score__min__energy>  (4) 
-8.5

>  <m_primary>  (4) 
energy

>  <rmsd>  (4) 
6.27274990746606

>  <m_score__min__rmsd>  (4) 
6.27274990746606

>  <meeko>  (4) 
{"free_energy": -8.5, "intermolecular_energy": -9.4, "internal_energy": -0.58, "cluster_size": 46, "cluster_id": 1, "rank_in_cluster": 2}

>  <energy>  (4) 
-8.5

>  <cluster_rmsd>  (4) 
0.06

>  <cluster>  (4) 
1

$$$$

     RDKit          3D

 54 58  0  0  0  0  0  0  0  0999 V2000
  142.8700   74.8610  220.6340 O   0  0  0  0  0  0  0  0  0  0  0  0
  141.7790   74.4920  221.1720 C   0  0  0  0  0  0  0  0  0  0  0  0
  141.5310   73.0300  221.2540 C   0  0  0  0  0  0  0  0  0  0  0  0
  140.2520   72.7920  221.9110 C   0  0  0  0  0  0  0  0  0  0  0  0
  139.8290   71.4020  222.1300 C   0  0  0  0  0  0  0  0  0  0  0  0
  139.4610   70.5800  221.0680 C   0  0  0  0  0  0  0  0  0  0  0  0
  139.0790   69.2720  221.2570 C   0  0  0  0  0  0  0  0  0  0  0  0
  139.0600   68.7550  222.5550 C   0  0  0  0  0  0  0  0  0  0  0  0
  139.4250   69.5530  223.6460 C   0  0  0  0  0  0  0  0  0  0  0  0
  139.3920   68.9500  224.9550 C   0  0  0  0  0  0  0  0  0  0  0  0
  139.1250   67.7080  225.0420 O   0  0  0  0  0  0  0  0  0  0  0  0
  139.6560   69.7600  226.0900 N   0  0  0  0  0  0  0  0  0  0  0  0
  139.9740   71.1910  226.1270 C   0  0  0  0  0  0  0  0  0  0  0  0
  141.0990   71.2210  227.1510 C   0  0  0  0  0  0  0  0  0  0  0  0
  141.0790   69.8950  227.8770 C   0  0  0  0  0  0  0  0  0  0  0  0
  139.6820   69.3690  227.5070 C   0  0  0  0  0  0  0  0  0  0  0  0
  139.7950   70.8420  223.4050 C   0  0  0  0  0  0  0  0  0  0  0  0
  139.4410   73.6980  222.3500 N   0  0  0  0  0  0  0  0  0  0  0  0
  139.6720   75.0870  222.2630 C   0  0  0  0  0  0  0  0  0  0  0  0
  138.8130   76.0530  222.7240 C   0  0  0  0  0  0  0  0  0  0  0  0
  139.0890   77.4190  222.6160 C   0  0  0  0  0  0  0  0  0  0  0  0
  140.2620   77.8260  222.0270 C   0  0  0  0  0  0  0  0  0  0  0  0
  140.6530   79.1690  221.8530 N   0  0  0  0  0  0  0  0  0  0  0  0
  141.7030   79.7810  221.0680 C   0  0  0  0  0  0  0  0  0  0  0  0
  142.1380   81.0040  221.8710 C   0  0  0  0  0  0  0  0  0  0  0  0
  141.1360   81.1180  222.9830 C   0  0  0  0  0  0  0  0  0  0  0  0
  139.9660   80.2990  222.4840 C   0  0  0  0  0  0  0  0  0  0  0  0
  141.1400   76.8390  221.5550 C   0  0  0  0  0  0  0  0  0  0  0  0
  140.8500   75.4950  221.6700 C   0  0  0  0  0  0  0  0  0  0  0  0
  141.5075   72.6043  220.2400 H   0  0  0  0  0  0  0  0  0  0  0  0
  142.3357   72.5527  221.8326 H   0  0  0  0  0  0  0  0  0  0  0  0
  139.4762   70.9889  220.0469 H   0  0  0  0  0  0  0  0  0  0  0  0
  138.7933   68.6436  220.4006 H   0  0  0  0  0  0  0  0  0  0  0  0
  138.7554   67.7112  222.7212 H   0  0  0  0  0  0  0  0  0  0  0  0
  140.3134   71.5534  225.1454 H   0  0  0  0  0  0  0  0  0  0  0  0
  139.1190   71.8357  226.3786 H   0  0  0  0  0  0  0  0  0  0  0  0
  142.0658   71.3588  226.6447 H   0  0  0  0  0  0  0  0  0  0  0  0
  140.9626   72.0541  227.8562 H   0  0  0  0  0  0  0  0  0  0  0  0
  141.8712   69.2245  227.5125 H   0  0  0  0  0  0  0  0  0  0  0  0
  141.2590   69.9717  228.9595 H   0  0  0  0  0  0  0  0  0  0  0  0
  139.6043   68.2793  227.6355 H   0  0  0  0  0  0  0  0  0  0  0  0
  138.8539   69.7554  228.1193 H   0  0  0  0  0  0  0  0  0  0  0  0
  140.0812   71.4720  224.2601 H   0  0  0  0  0  0  0  0  0  0  0  0
  137.8705   75.7400  223.1970 H   0  0  0  0  0  0  0  0  0  0  0  0
  138.3736   78.1616  222.9991 H   0  0  0  0  0  0  0  0  0  0  0  0
  142.5445   79.0845  220.9388 H   0  0  0  0  0  0  0  0  0  0  0  0
  141.3589   80.0515  220.0588 H   0  0  0  0  0  0  0  0  0  0  0  0
  143.1503   80.8597  222.2765 H   0  0  0  0  0  0  0  0  0  0  0  0
  142.1722   81.9127  221.2521 H   0  0  0  0  0  0  0  0  0  0  0  0
  141.5373   80.7020  223.9189 H   0  0  0  0  0  0  0  0  0  0  0  0
  140.8653   82.1591  223.2128 H   0  0  0  0  0  0  0  0  0  0  0  0
  139.3240   79.9674  223.3134 H   0  0  0  0  0  0  0  0  0  0  0  0
  139.2883   80.8457  221.8118 H   0  0  0  0  0  0  0  0  0  0  0  0
  142.0843   77.1445  221.0808 H   0  0  0  0  0  0  0  0  0  0  0  0
  1  2  2  0
  2  3  1  0
  3  4  1  0
  4  5  1  0
  5  6  2  0
  6  7  1  0
  7  8  2  0
  8  9  1  0
  9 10  1  0
 10 11  2  0
 10 12  1  0
 12 13  1  0
 13 14  1  0
 14 15  1  0
 15 16  1  0
  9 17  2  0
  4 18  2  0
 18 19  1  0
 19 20  2  0
 20 21  1  0
 21 22  2  0
 22 23  1  0
 23 24  1  0
 24 25  1  0
 25 26  1  0
 26 27  1  0
 22 28  1  0
 28 29  2  0
 29  2  1  0
 17  5  1  0
 29 19  1  0
 16 12  1  0
 27 23  1  0
  3 30  1  0
  3 31  1  0
  6 32  1  0
  7 33  1  0
  8 34  1  0
 13 35  1  0
 13 36  1  0
 14 37  1  0
 14 38  1  0
 15 39  1  0
 15 40  1  0
 16 41  1  0
 16 42  1  0
 17 43  1  0
 20 44  1  0
 21 45  1  0
 24 46  1  0
 24 47  1  0
 25 48  1  0
 25 49  1  0
 26 50  1  0
 26 51  1  0
 27 52  1  0
 27 53  1  0
 28 54  1  0
M  END
>  <smiles>  (5) 
O=C1CC(c2cccc(C(=O)N3CCCC3)c2)=Nc2ccc(N3CCCC3)cc21

>  <score_type>  (5) 
oracle

>  <origin>  (5) 
autodockgpu

>  <m_score__min__energy>  (5) 
-8.5

>  <m_primary>  (5) 
energy

>  <rmsd>  (5) 
6.261106904915123

>  <m_score__min__rmsd>  (5) 
6.261106904915123

>  <meeko>  (5) 
{"free_energy": -8.48, "intermolecular_energy": -9.37, "internal_energy": -0.58, "cluster_size": 46, "cluster_id": 1, "rank_in_cluster": 11}

>  <energy>  (5) 
-8.5

>  <cluster_rmsd>  (5) 
0.24

>  <cluster>  (5) 
1

$$$$

     RDKit          3D

 54 58  0  0  0  0  0  0  0  0999 V2000
  143.1690   75.5100  219.7420 O   0  0  0  0  0  0  0  0  0  0  0  0
  142.1910   75.2000  220.4920 C   0  0  0  0  0  0  0  0  0  0  0  0
  141.8720   73.7550  220.6180 C   0  0  0  0  0  0  0  0  0  0  0  0
  140.7440   73.5850  221.5230 C   0  0  0  0  0  0  0  0  0  0  0  0
  140.2870   72.2190  221.8200 C   0  0  0  0  0  0  0  0  0  0  0  0
  140.3930   71.1990  220.8790 C   0  0  0  0  0  0  0  0  0  0  0  0
  139.9850   69.9130  221.1490 C   0  0  0  0  0  0  0  0  0  0  0  0
  139.4500   69.6250  222.4070 C   0  0  0  0  0  0  0  0  0  0  0  0
  139.3290   70.6270  223.3770 C   0  0  0  0  0  0  0  0  0  0  0  0
  138.7760   70.2560  224.6560 C   0  0  0  0  0  0  0  0  0  0  0  0
  137.5090   70.2210  224.7800 O   0  0  0  0  0  0  0  0  0  0  0  0
  139.6610   69.9450  225.7220 N   0  0  0  0  0  0  0  0  0  0  0  0
  141.1270   69.9470  225.7110 C   0  0  0  0  0  0  0  0  0  0  0  0
  141.4330   68.6680  226.4770 C   0  0  0  0  0  0  0  0  0  0  0  0
  140.1580   68.2470  227.1730 C   0  0  0  0  0  0  0  0  0  0  0  0
  139.3310   69.5420  227.0970 C   0  0  0  0  0  0  0  0  0  0  0  0
  139.7470   71.8840  223.0600 C   0  0  0  0  0  0  0  0  0  0  0  0
  140.0990   74.5320  222.1240 N   0  0  0  0  0  0  0  0  0  0  0  0
  140.3950   75.9050  221.9960 C   0  0  0  0  0  0  0  0  0  0  0  0
  139.7110   76.9140  222.6280 C   0  0  0  0  0  0  0  0  0  0  0  0
  140.0450   78.2620  222.4700 C   0  0  0  0  0  0  0  0  0  0  0  0
  141.0960   78.6060  221.6530 C   0  0  0  0  0  0  0  0  0  0  0  0
  141.5260   79.9250  221.4070 N   0  0  0  0  0  0  0  0  0  0  0  0
  141.8310   81.0290  222.2910 C   0  0  0  0  0  0  0  0  0  0  0  0
  141.4320   82.2810  221.5150 C   0  0  0  0  0  0  0  0  0  0  0  0
  141.1130   81.7990  220.1310 C   0  0  0  0  0  0  0  0  0  0  0  0
  141.7960   80.4500  220.0650 C   0  0  0  0  0  0  0  0  0  0  0  0
  141.7930   77.5750  221.0070 C   0  0  0  0  0  0  0  0  0  0  0  0
  141.4490   76.2500  221.1740 C   0  0  0  0  0  0  0  0  0  0  0  0
  141.6133   73.3488  219.6290 H   0  0  0  0  0  0  0  0  0  0  0  0
  142.7463   73.2195  221.0165 H   0  0  0  0  0  0  0  0  0  0  0  0
  140.8157   71.4279  219.8896 H   0  0  0  0  0  0  0  0  0  0  0  0
  140.0785   69.1250  220.3872 H   0  0  0  0  0  0  0  0  0  0  0  0
  139.1207   68.6011  222.6375 H   0  0  0  0  0  0  0  0  0  0  0  0
  141.5220   69.9062  224.6852 H   0  0  0  0  0  0  0  0  0  0  0  0
  141.5794   70.8510  226.1448 H   0  0  0  0  0  0  0  0  0  0  0  0
  141.7599   67.8812  225.7813 H   0  0  0  0  0  0  0  0  0  0  0  0
  142.2395   68.8335  227.2065 H   0  0  0  0  0  0  0  0  0  0  0  0
  139.6628   67.4212  226.6412 H   0  0  0  0  0  0  0  0  0  0  0  0
  140.3069   67.8670  228.1945 H   0  0  0  0  0  0  0  0  0  0  0  0
  138.2550   69.3523  227.2243 H   0  0  0  0  0  0  0  0  0  0  0  0
  139.5492   70.2891  227.8743 H   0  0  0  0  0  0  0  0  0  0  0  0
  139.6537   72.6735  223.8203 H   0  0  0  0  0  0  0  0  0  0  0  0
  138.8678   76.6514  223.2838 H   0  0  0  0  0  0  0  0  0  0  0  0
  139.4721   79.0408  222.9947 H   0  0  0  0  0  0  0  0  0  0  0  0
  141.2504   80.9502  223.2219 H   0  0  0  0  0  0  0  0  0  0  0  0
  142.8920   81.0442  222.5808 H   0  0  0  0  0  0  0  0  0  0  0  0
  140.5501   82.7537  221.9720 H   0  0  0  0  0  0  0  0  0  0  0  0
  142.2312   83.0368  221.5138 H   0  0  0  0  0  0  0  0  0  0  0  0
  140.0268   81.6979  219.9897 H   0  0  0  0  0  0  0  0  0  0  0  0
  141.4513   82.4912  219.3459 H   0  0  0  0  0  0  0  0  0  0  0  0
  141.3527   79.8119  219.2863 H   0  0  0  0  0  0  0  0  0  0  0  0
  142.8642   80.4982  219.8068 H   0  0  0  0  0  0  0  0  0  0  0  0
  142.6370   77.8299  220.3492 H   0  0  0  0  0  0  0  0  0  0  0  0
  1  2  2  0
  2  3  1  0
  3  4  1  0
  4  5  1  0
  5  6  2  0
  6  7  1  0
  7  8  2  0
  8  9  1  0
  9 10  1  0
 10 11  2  0
 10 12  1  0
 12 13  1  0
 13 14  1  0
 14 15  1  0
 15 16  1  0
  9 17  2  0
  4 18  2  0
 18 19  1  0
 19 20  2  0
 20 21  1  0
 21 22  2  0
 22 23  1  0
 23 24  1  0
 24 25  1  0
 25 26  1  0
 26 27  1  0
 22 28  1  0
 28 29  2  0
 29  2  1  0
 17  5  1  0
 29 19  1  0
 16 12  1  0
 27 23  1  0
  3 30  1  0
  3 31  1  0
  6 32  1  0
  7 33  1  0
  8 34  1  0
 13 35  1  0
 13 36  1  0
 14 37  1  0
 14 38  1  0
 15 39  1  0
 15 40  1  0
 16 41  1  0
 16 42  1  0
 17 43  1  0
 20 44  1  0
 21 45  1  0
 24 46  1  0
 24 47  1  0
 25 48  1  0
 25 49  1  0
 26 50  1  0
 26 51  1  0
 27 52  1  0
 27 53  1  0
 28 54  1  0
M  END
>  <smiles>  (6) 
O=C1CC(c2cccc(C(=O)N3CCCC3)c2)=Nc2ccc(N3CCCC3)cc21

>  <score_type>  (6) 
oracle

>  <origin>  (6) 
autodockgpu

>  <m_score__min__energy>  (6) 
-8.5

>  <m_primary>  (6) 
energy

>  <rmsd>  (6) 
6.982078189761787

>  <m_score__min__rmsd>  (6) 
6.982078189761787

>  <meeko>  (6) 
{"free_energy": -7.86, "intermolecular_energy": -8.75, "internal_energy": -1.01, "cluster_size": 46, "cluster_id": 1, "rank_in_cluster": 41}

>  <energy>  (6) 
-8.49

>  <cluster_rmsd>  (6) 
0.21

>  <cluster>  (6) 
1

$$$$

     RDKit          3D

 54 58  0  0  0  0  0  0  0  0999 V2000
  142.8590   74.9960  220.5520 O   0  0  0  0  0  0  0  0  0  0  0  0
  141.7870   74.6070  221.1130 C   0  0  0  0  0  0  0  0  0  0  0  0
  141.5720   73.1400  221.2090 C   0  0  0  0  0  0  0  0  0  0  0  0
  140.3120   72.8790  221.8920 C   0  0  0  0  0  0  0  0  0  0  0  0
  139.9240   71.4810  222.1290 C   0  0  0  0  0  0  0  0  0  0  0  0
  139.6910   70.6050  221.0730 C   0  0  0  0  0  0  0  0  0  0  0  0
  139.3430   69.2910  221.2790 C   0  0  0  0  0  0  0  0  0  0  0  0
  139.2210   68.8230  222.5900 C   0  0  0  0  0  0  0  0  0  0  0  0
  139.4490   69.6760  223.6760 C   0  0  0  0  0  0  0  0  0  0  0  0
  139.3150   69.1230  225.0010 C   0  0  0  0  0  0  0  0  0  0  0  0
  138.9080   67.9210  225.1150 O   0  0  0  0  0  0  0  0  0  0  0  0
  139.6390   69.9330  226.1190 N   0  0  0  0  0  0  0  0  0  0  0  0
  140.1150   71.3200  226.1240 C   0  0  0  0  0  0  0  0  0  0  0  0
  141.2100   71.2570  227.1790 C   0  0  0  0  0  0  0  0  0  0  0  0
  141.0220   69.9640  227.9420 C   0  0  0  0  0  0  0  0  0  0  0  0
  139.5840   69.5870  227.5470 C   0  0  0  0  0  0  0  0  0  0  0  0
  139.7900   70.9700  223.4170 C   0  0  0  0  0  0  0  0  0  0  0  0
  139.4900   73.7710  222.3420 N   0  0  0  0  0  0  0  0  0  0  0  0
  139.6890   75.1640  222.2410 C   0  0  0  0  0  0  0  0  0  0  0  0
  138.8180   76.1140  222.7130 C   0  0  0  0  0  0  0  0  0  0  0  0
  139.0620   77.4840  222.5910 C   0  0  0  0  0  0  0  0  0  0  0  0
  140.2140   77.9120  221.9770 C   0  0  0  0  0  0  0  0  0  0  0  0
  140.5720   79.2620  221.7860 N   0  0  0  0  0  0  0  0  0  0  0  0
  140.6840   80.0790  220.5970 C   0  0  0  0  0  0  0  0  0  0  0  0
  141.8150   81.0600  220.8930 C   0  0  0  0  0  0  0  0  0  0  0  0
  142.1350   80.8600  222.3460 C   0  0  0  0  0  0  0  0  0  0  0  0
  140.8980   80.1760  222.8850 C   0  0  0  0  0  0  0  0  0  0  0  0
  141.1040   76.9420  221.4930 C   0  0  0  0  0  0  0  0  0  0  0  0
  140.8460   75.5930  221.6230 C   0  0  0  0  0  0  0  0  0  0  0  0
  141.5380   72.7072  220.1983 H   0  0  0  0  0  0  0  0  0  0  0  0
  142.3978   72.6840  221.7748 H   0  0  0  0  0  0  0  0  0  0  0  0
  139.7882   70.9753  220.0418 H   0  0  0  0  0  0  0  0  0  0  0  0
  139.1637   68.6195  220.4264 H   0  0  0  0  0  0  0  0  0  0  0  0
  138.9431   67.7741  222.7702 H   0  0  0  0  0  0  0  0  0  0  0  0
  140.5179   71.6108  225.1426 H   0  0  0  0  0  0  0  0  0  0  0  0
  139.3318   72.0638  226.3322 H   0  0  0  0  0  0  0  0  0  0  0  0
  142.1988   71.2700  226.6972 H   0  0  0  0  0  0  0  0  0  0  0  0
  141.1505   72.1221  227.8558 H   0  0  0  0  0  0  0  0  0  0  0  0
  141.7422   69.1977  227.6193 H   0  0  0  0  0  0  0  0  0  0  0  0
  141.1823   70.0536  229.0266 H   0  0  0  0  0  0  0  0  0  0  0  0
  139.3799   68.5176  227.7046 H   0  0  0  0  0  0  0  0  0  0  0  0
  138.7896   70.0835  228.1236 H   0  0  0  0  0  0  0  0  0  0  0  0
  139.9681   71.6440  224.2679 H   0  0  0  0  0  0  0  0  0  0  0  0
  137.8920   75.7838  223.2064 H   0  0  0  0  0  0  0  0  0  0  0  0
  138.3382   78.2136  222.9831 H   0  0  0  0  0  0  0  0  0  0  0  0
  140.9306   79.4577  219.7234 H   0  0  0  0  0  0  0  0  0  0  0  0
  139.7417   80.5955  220.3619 H   0  0  0  0  0  0  0  0  0  0  0  0
  142.6933   80.8364  220.2697 H   0  0  0  0  0  0  0  0  0  0  0  0
  141.5280   82.0989  220.6731 H   0  0  0  0  0  0  0  0  0  0  0  0
  143.0230   80.2226  222.4696 H   0  0  0  0  0  0  0  0  0  0  0  0
  142.3689   81.7995  222.8681 H   0  0  0  0  0  0  0  0  0  0  0  0
  141.1137   79.6278  223.8139 H   0  0  0  0  0  0  0  0  0  0  0  0
  140.0838   80.8650  223.1539 H   0  0  0  0  0  0  0  0  0  0  0  0
  142.0312   77.2651  220.9972 H   0  0  0  0  0  0  0  0  0  0  0  0
  1  2  2  0
  2  3  1  0
  3  4  1  0
  4  5  1  0
  5  6  2  0
  6  7  1  0
  7  8  2  0
  8  9  1  0
  9 10  1  0
 10 11  2  0
 10 12  1  0
 12 13  1  0
 13 14  1  0
 14 15  1  0
 15 16  1  0
  9 17  2  0
  4 18  2  0
 18 19  1  0
 19 20  2  0
 20 21  1  0
 21 22  2  0
 22 23  1  0
 23 24  1  0
 24 25  1  0
 25 26  1  0
 26 27  1  0
 22 28  1  0
 28 29  2  0
 29  2  1  0
 17  5  1  0
 29 19  1  0
 16 12  1  0
 27 23  1  0
  3 30  1  0
  3 31  1  0
  6 32  1  0
  7 33  1  0
  8 34  1  0
 13 35  1  0
 13 36  1  0
 14 37  1  0
 14 38  1  0
 15 39  1  0
 15 40  1  0
 16 41  1  0
 16 42  1  0
 17 43  1  0
 20 44  1  0
 21 45  1  0
 24 46  1  0
 24 47  1  0
 25 48  1  0
 25 49  1  0
 26 50  1  0
 26 51  1  0
 27 52  1  0
 27 53  1  0
 28 54  1  0
M  END
>  <smiles>  (7) 
O=C1CC(c2cccc(C(=O)N3CCCC3)c2)=Nc2ccc(N3CCCC3)cc21

>  <score_type>  (7) 
oracle

>  <origin>  (7) 
autodockgpu

>  <m_score__min__energy>  (7) 
-8.5

>  <m_primary>  (7) 
energy

>  <rmsd>  (7) 
6.317835476860952

>  <m_score__min__rmsd>  (7) 
6.317835476860952

>  <meeko>  (7) 
{"free_energy": -8.42, "intermolecular_energy": -9.32, "internal_energy": -0.57, "cluster_size": 46, "cluster_id": 1, "rank_in_cluster": 16}

>  <energy>  (7) 
-8.49

>  <cluster_rmsd>  (7) 
0.3

>  <cluster>  (7) 
1

$$$$

     RDKit          3D

 54 58  0  0  0  0  0  0  0  0999 V2000
  142.7640   75.5680  220.3730 O   0  0  0  0  0  0  0  0  0  0  0  0
  141.7270   75.1530  220.9810 C   0  0  0  0  0  0  0  0  0  0  0  0
  141.5360   73.6810  221.0540 C   0  0  0  0  0  0  0  0  0  0  0  0
  140.3160   73.3880  221.7950 C   0  0  0  0  0  0  0  0  0  0  0  0
  139.9580   71.9810  222.0190 C   0  0  0  0  0  0  0  0  0  0  0  0
  140.1210   71.0230  221.0220 C   0  0  0  0  0  0  0  0  0  0  0  0
  139.8050   69.7000  221.2240 C   0  0  0  0  0  0  0  0  0  0  0  0
  139.3060   69.3070  222.4680 C   0  0  0  0  0  0  0  0  0  0  0  0
  139.1300   70.2430  223.4940 C   0  0  0  0  0  0  0  0  0  0  0  0
  138.6200   69.7650  224.7550 C   0  0  0  0  0  0  0  0  0  0  0  0
  137.3610   69.6150  224.8800 O   0  0  0  0  0  0  0  0  0  0  0  0
  139.5350   69.4810  225.8010 N   0  0  0  0  0  0  0  0  0  0  0  0
  140.9960   69.6090  225.7870 C   0  0  0  0  0  0  0  0  0  0  0  0
  141.4160   68.3260  226.4900 C   0  0  0  0  0  0  0  0  0  0  0  0
  140.1860   67.7640  227.1670 C   0  0  0  0  0  0  0  0  0  0  0  0
  139.2500   68.9850  227.1560 C   0  0  0  0  0  0  0  0  0  0  0  0
  139.4570   71.5410  223.2430 C   0  0  0  0  0  0  0  0  0  0  0  0
  139.5080   74.2590  222.3070 N   0  0  0  0  0  0  0  0  0  0  0  0
  139.6840   75.6560  222.2270 C   0  0  0  0  0  0  0  0  0  0  0  0
  138.8270   76.5840  222.7650 C   0  0  0  0  0  0  0  0  0  0  0  0
  139.0480   77.9600  222.6620 C   0  0  0  0  0  0  0  0  0  0  0  0
  140.1610   78.4170  221.9990 C   0  0  0  0  0  0  0  0  0  0  0  0
  140.4920   79.7750  221.8200 N   0  0  0  0  0  0  0  0  0  0  0  0
  140.8200   80.5490  220.6430 C   0  0  0  0  0  0  0  0  0  0  0  0
  141.8180   81.6000  221.1230 C   0  0  0  0  0  0  0  0  0  0  0  0
  141.8270   81.4750  222.6180 C   0  0  0  0  0  0  0  0  0  0  0  0
  140.5350   80.7480  222.9160 C   0  0  0  0  0  0  0  0  0  0  0  0
  141.0360   77.4690  221.4480 C   0  0  0  0  0  0  0  0  0  0  0  0
  140.8020   76.1140  221.5600 C   0  0  0  0  0  0  0  0  0  0  0  0
  141.4552   73.2704  220.0367 H   0  0  0  0  0  0  0  0  0  0  0  0
  142.3957   73.2236  221.5655 H   0  0  0  0  0  0  0  0  0  0  0  0
  140.5145   71.3338  220.0430 H   0  0  0  0  0  0  0  0  0  0  0  0
  139.9429   68.9632  220.4190 H   0  0  0  0  0  0  0  0  0  0  0  0
  139.0489   68.2519  222.6432 H   0  0  0  0  0  0  0  0  0  0  0  0
  141.3865   69.6512  224.7595 H   0  0  0  0  0  0  0  0  0  0  0  0
  141.3718   70.5267  226.2631 H   0  0  0  0  0  0  0  0  0  0  0  0
  141.8054   67.6045  225.7567 H   0  0  0  0  0  0  0  0  0  0  0  0
  142.2097   68.5253  227.2251 H   0  0  0  0  0  0  0  0  0  0  0  0
  139.7603   66.9254  226.5965 H   0  0  0  0  0  0  0  0  0  0  0  0
  140.3733   67.3495  228.1686 H   0  0  0  0  0  0  0  0  0  0  0  0
  138.1952   68.6972  227.2765 H   0  0  0  0  0  0  0  0  0  0  0  0
  139.4083   69.7098  227.9682 H   0  0  0  0  0  0  0  0  0  0  0  0
  139.3188   72.2793  224.0466 H   0  0  0  0  0  0  0  0  0  0  0  0
  137.9318   76.2307  223.2977 H   0  0  0  0  0  0  0  0  0  0  0  0
  138.3369   78.6710  223.1079 H   0  0  0  0  0  0  0  0  0  0  0  0
  141.2747   79.9078  219.8736 H   0  0  0  0  0  0  0  0  0  0  0  0
  139.9283   81.0050  220.1881 H   0  0  0  0  0  0  0  0  0  0  0  0
  142.8185   81.3987  220.7124 H   0  0  0  0  0  0  0  0  0  0  0  0
  141.5402   82.6127  220.7954 H   0  0  0  0  0  0  0  0  0  0  0  0
  142.6948   80.8915  222.9591 H   0  0  0  0  0  0  0  0  0  0  0  0
  141.9018   82.4457  223.1299 H   0  0  0  0  0  0  0  0  0  0  0  0
  140.5706   80.2493  223.8958 H   0  0  0  0  0  0  0  0  0  0  0  0
  139.6528   81.4027  222.9714 H   0  0  0  0  0  0  0  0  0  0  0  0
  141.9323   77.8152  220.9125 H   0  0  0  0  0  0  0  0  0  0  0  0
  1  2  2  0
  2  3  1  0
  3  4  1  0
  4  5  1  0
  5  6  2  0
  6  7  1  0
  7  8  2  0
  8  9  1  0
  9 10  1  0
 10 11  2  0
 10 12  1  0
 12 13  1  0
 13 14  1  0
 14 15  1  0
 15 16  1  0
  9 17  2  0
  4 18  2  0
 18 19  1  0
 19 20  2  0
 20 21  1  0
 21 22  2  0
 22 23  1  0
 23 24  1  0
 24 25  1  0
 25 26  1  0
 26 27  1  0
 22 28  1  0
 28 29  2  0
 29  2  1  0
 17  5  1  0
 29 19  1  0
 16 12  1  0
 27 23  1  0
  3 30  1  0
  3 31  1  0
  6 32  1  0
  7 33  1  0
  8 34  1  0
 13 35  1  0
 13 36  1  0
 14 37  1  0
 14 38  1  0
 15 39  1  0
 15 40  1  0
 16 41  1  0
 16 42  1  0
 17 43  1  0
 20 44  1  0
 21 45  1  0
 24 46  1  0
 24 47  1  0
 25 48  1  0
 25 49  1  0
 26 50  1  0
 26 51  1  0
 27 52  1  0
 27 53  1  0
 28 54  1  0
M  END
>  <smiles>  (8) 
O=C1CC(c2cccc(C(=O)N3CCCC3)c2)=Nc2ccc(N3CCCC3)cc21

>  <score_type>  (8) 
oracle

>  <origin>  (8) 
autodockgpu

>  <m_score__min__energy>  (8) 
-8.5

>  <m_primary>  (8) 
energy

>  <rmsd>  (8) 
6.785130082343785

>  <m_score__min__rmsd>  (8) 
6.785130082343785

>  <meeko>  (8) 
{"free_energy": -7.63, "intermolecular_energy": -8.53, "internal_energy": -1.01, "cluster_size": 46, "cluster_id": 1, "rank_in_cluster": 44}

>  <energy>  (8) 
-8.49

>  <cluster_rmsd>  (8) 
0.22

>  <cluster>  (8) 
1

$$$$

     RDKit          3D

 54 58  0  0  0  0  0  0  0  0999 V2000
  143.1770   75.4980  219.7390 O   0  0  0  0  0  0  0  0  0  0  0  0
  142.1950   75.1890  220.4850 C   0  0  0  0  0  0  0  0  0  0  0  0
  141.8750   73.7440  220.6100 C   0  0  0  0  0  0  0  0  0  0  0  0
  140.7420   73.5750  221.5100 C   0  0  0  0  0  0  0  0  0  0  0  0
  140.2820   72.2110  221.8050 C   0  0  0  0  0  0  0  0  0  0  0  0
  140.3860   71.1910  220.8640 C   0  0  0  0  0  0  0  0  0  0  0  0
  139.9760   69.9060  221.1320 C   0  0  0  0  0  0  0  0  0  0  0  0
  139.4390   69.6180  222.3890 C   0  0  0  0  0  0  0  0  0  0  0  0
  139.3210   70.6190  223.3610 C   0  0  0  0  0  0  0  0  0  0  0  0
  138.7670   70.2470  224.6390 C   0  0  0  0  0  0  0  0  0  0  0  0
  137.5000   70.2070  224.7610 O   0  0  0  0  0  0  0  0  0  0  0  0
  139.6500   69.9410  225.7070 N   0  0  0  0  0  0  0  0  0  0  0  0
  141.1170   69.9480  225.6990 C   0  0  0  0  0  0  0  0  0  0  0  0
  141.4260   68.6720  226.4670 C   0  0  0  0  0  0  0  0  0  0  0  0
  140.1510   68.2470  227.1600 C   0  0  0  0  0  0  0  0  0  0  0  0
  139.3190   69.5380  227.0810 C   0  0  0  0  0  0  0  0  0  0  0  0
  139.7410   71.8750  223.0440 C   0  0  0  0  0  0  0  0  0  0  0  0
  140.0950   74.5230  222.1080 N   0  0  0  0  0  0  0  0  0  0  0  0
  140.3940   75.8960  221.9810 C   0  0  0  0  0  0  0  0  0  0  0  0
  139.7090   76.9060  222.6100 C   0  0  0  0  0  0  0  0  0  0  0  0
  140.0450   78.2540  222.4530 C   0  0  0  0  0  0  0  0  0  0  0  0
  141.0990   78.5960  221.6410 C   0  0  0  0  0  0  0  0  0  0  0  0
  141.5320   79.9150  221.3960 N   0  0  0  0  0  0  0  0  0  0  0  0
  141.8390   81.0170  222.2810 C   0  0  0  0  0  0  0  0  0  0  0  0
  141.4420   82.2710  221.5070 C   0  0  0  0  0  0  0  0  0  0  0  0
  141.1230   81.7910  220.1210 C   0  0  0  0  0  0  0  0  0  0  0  0
  141.8030   80.4410  220.0550 C   0  0  0  0  0  0  0  0  0  0  0  0
  141.7980   77.5640  220.9970 C   0  0  0  0  0  0  0  0  0  0  0  0
  141.4520   76.2400  221.1640 C   0  0  0  0  0  0  0  0  0  0  0  0
  141.6210   73.3375  219.6199 H   0  0  0  0  0  0  0  0  0  0  0  0
  142.7471   73.2082  221.0129 H   0  0  0  0  0  0  0  0  0  0  0  0
  140.8094   71.4198  219.8749 H   0  0  0  0  0  0  0  0  0  0  0  0
  140.0693   69.1185  220.3697 H   0  0  0  0  0  0  0  0  0  0  0  0
  139.1056   68.5949  222.6175 H   0  0  0  0  0  0  0  0  0  0  0  0
  141.5142   69.9071  224.6740 H   0  0  0  0  0  0  0  0  0  0  0  0
  141.5653   70.8541  226.1325 H   0  0  0  0  0  0  0  0  0  0  0  0
  141.7579   67.8856  225.7732 H   0  0  0  0  0  0  0  0  0  0  0  0
  142.2299   68.8416  227.1984 H   0  0  0  0  0  0  0  0  0  0  0  0
  139.6604   67.4188  226.6277 H   0  0  0  0  0  0  0  0  0  0  0  0
  140.2990   67.8688  228.1823 H   0  0  0  0  0  0  0  0  0  0  0  0
  138.2435   69.3439  227.2062 H   0  0  0  0  0  0  0  0  0  0  0  0
  139.5325   70.2867  227.8581 H   0  0  0  0  0  0  0  0  0  0  0  0
  139.6484   72.6641  223.8047 H   0  0  0  0  0  0  0  0  0  0  0  0
  138.8631   76.6445  223.2627 H   0  0  0  0  0  0  0  0  0  0  0  0
  139.4707   79.0336  222.9749 H   0  0  0  0  0  0  0  0  0  0  0  0
  141.2585   80.9379  223.2120 H   0  0  0  0  0  0  0  0  0  0  0  0
  142.9002   81.0299  222.5703 H   0  0  0  0  0  0  0  0  0  0  0  0
  140.5604   82.7440  221.9642 H   0  0  0  0  0  0  0  0  0  0  0  0
  142.2420   83.0260  221.5076 H   0  0  0  0  0  0  0  0  0  0  0  0
  140.0367   81.6924  219.9784 H   0  0  0  0  0  0  0  0  0  0  0  0
  141.4634   82.4832  219.3368 H   0  0  0  0  0  0  0  0  0  0  0  0
  141.3587   79.8044  219.2757 H   0  0  0  0  0  0  0  0  0  0  0  0
  142.8714   80.4877  219.7976 H   0  0  0  0  0  0  0  0  0  0  0  0
  142.6442   77.8179  220.3417 H   0  0  0  0  0  0  0  0  0  0  0  0
  1  2  2  0
  2  3  1  0
  3  4  1  0
  4  5  1  0
  5  6  2  0
  6  7  1  0
  7  8  2  0
  8  9  1  0
  9 10  1  0
 10 11  2  0
 10 12  1  0
 12 13  1  0
 13 14  1  0
 14 15  1  0
 15 16  1  0
  9 17  2  0
  4 18  2  0
 18 19  1  0
 19 20  2  0
 20 21  1  0
 21 22  2  0
 22 23  1  0
 23 24  1  0
 24 25  1  0
 25 26  1  0
 26 27  1  0
 22 28  1  0
 28 29  2  0
 29  2  1  0
 17  5  1  0
 29 19  1  0
 16 12  1  0
 27 23  1  0
  3 30  1  0
  3 31  1  0
  6 32  1  0
  7 33  1  0
  8 34  1  0
 13 35  1  0
 13 36  1  0
 14 37  1  0
 14 38  1  0
 15 39  1  0
 15 40  1  0
 16 41  1  0
 16 42  1  0
 17 43  1  0
 20 44  1  0
 21 45  1  0
 24 46  1  0
 24 47  1  0
 25 48  1  0
 25 49  1  0
 26 50  1  0
 26 51  1  0
 27 52  1  0
 27 53  1  0
 28 54  1  0
M  END
>  <smiles>  (9) 
O=C1CC(c2cccc(C(=O)N3CCCC3)c2)=Nc2ccc(N3CCCC3)cc21

>  <score_type>  (9) 
oracle

>  <origin>  (9) 
autodockgpu

>  <m_score__min__energy>  (9) 
-8.5

>  <m_primary>  (9) 
energy

>  <rmsd>  (9) 
6.977104220175282

>  <m_score__min__rmsd>  (9) 
6.977104220175282

>  <meeko>  (9) 
{"free_energy": -7.86, "intermolecular_energy": -8.75, "internal_energy": -1.01, "cluster_size": 46, "cluster_id": 1, "rank_in_cluster": 33}

>  <energy>  (9) 
-8.48

>  <cluster_rmsd>  (9) 
0.3

>  <cluster>  (9) 
1

$$$$

     RDKit          3D

 54 58  0  0  0  0  0  0  0  0999 V2000
  142.8790   74.8530  220.6910 O   0  0  0  0  0  0  0  0  0  0  0  0
  141.7770   74.4860  221.2070 C   0  0  0  0  0  0  0  0  0  0  0  0
  141.5220   73.0240  221.2780 C   0  0  0  0  0  0  0  0  0  0  0  0
  140.2310   72.7880  221.9100 C   0  0  0  0  0  0  0  0  0  0  0  0
  139.7990   71.3980  222.1150 C   0  0  0  0  0  0  0  0  0  0  0  0
  139.3770   70.6050  221.0510 C   0  0  0  0  0  0  0  0  0  0  0  0
  138.9860   69.2980  221.2260 C   0  0  0  0  0  0  0  0  0  0  0  0
  139.0150   68.7520  222.5120 C   0  0  0  0  0  0  0  0  0  0  0  0
  139.4340   69.5200  223.6040 C   0  0  0  0  0  0  0  0  0  0  0  0
  139.4470   68.8880  224.9000 C   0  0  0  0  0  0  0  0  0  0  0  0
  139.2300   67.6340  224.9630 O   0  0  0  0  0  0  0  0  0  0  0  0
  139.6990   69.6820  226.0480 N   0  0  0  0  0  0  0  0  0  0  0  0
  139.9630   71.1230  226.1120 C   0  0  0  0  0  0  0  0  0  0  0  0
  141.1030   71.1750  227.1180 C   0  0  0  0  0  0  0  0  0  0  0  0
  141.1470   69.8320  227.8140 C   0  0  0  0  0  0  0  0  0  0  0  0
  139.7650   69.2610  227.4560 C   0  0  0  0  0  0  0  0  0  0  0  0
  139.8100   70.8090  223.3770 C   0  0  0  0  0  0  0  0  0  0  0  0
  139.4150   73.6950  222.3380 N   0  0  0  0  0  0  0  0  0  0  0  0
  139.6530   75.0840  222.2610 C   0  0  0  0  0  0  0  0  0  0  0  0
  138.7880   76.0500  222.7110 C   0  0  0  0  0  0  0  0  0  0  0  0
  139.0710   77.4150  222.6140 C   0  0  0  0  0  0  0  0  0  0  0  0
  140.2560   77.8210  222.0490 C   0  0  0  0  0  0  0  0  0  0  0  0
  140.6540   79.1630  221.8880 N   0  0  0  0  0  0  0  0  0  0  0  0
  140.5900   80.0670  220.7600 C   0  0  0  0  0  0  0  0  0  0  0  0
  141.8160   80.9650  220.8990 C   0  0  0  0  0  0  0  0  0  0  0  0
  142.3910   80.6340  222.2450 C   0  0  0  0  0  0  0  0  0  0  0  0
  141.2390   79.9680  222.9640 C   0  0  0  0  0  0  0  0  0  0  0  0
  141.1390   76.8330  221.5880 C   0  0  0  0  0  0  0  0  0  0  0  0
  140.8420   75.4900  221.6920 C   0  0  0  0  0  0  0  0  0  0  0  0
  141.5156   72.6028  220.2618 H   0  0  0  0  0  0  0  0  0  0  0  0
  142.3141   72.5412  221.8691 H   0  0  0  0  0  0  0  0  0  0  0  0
  139.3557   71.0371  220.0396 H   0  0  0  0  0  0  0  0  0  0  0  0
  138.6562   68.6930  220.3685 H   0  0  0  0  0  0  0  0  0  0  0  0
  138.7053   67.7080  222.6674 H   0  0  0  0  0  0  0  0  0  0  0  0
  140.2716   71.5193  225.1334 H   0  0  0  0  0  0  0  0  0  0  0  0
  139.0883   71.7284  226.3920 H   0  0  0  0  0  0  0  0  0  0  0  0
  142.0549   71.3622  226.5996 H   0  0  0  0  0  0  0  0  0  0  0  0
  140.9463   71.9863  227.8442 H   0  0  0  0  0  0  0  0  0  0  0  0
  141.9575   69.2010  227.4205 H   0  0  0  0  0  0  0  0  0  0  0  0
  141.3435   69.8912  228.8947 H   0  0  0  0  0  0  0  0  0  0  0  0
  139.7312   68.1666  227.5611 H   0  0  0  0  0  0  0  0  0  0  0  0
  138.9338   69.6017  228.0908 H   0  0  0  0  0  0  0  0  0  0  0  0
  140.1390   71.4156  224.2336 H   0  0  0  0  0  0  0  0  0  0  0  0
  137.8360   75.7379  223.1652 H   0  0  0  0  0  0  0  0  0  0  0  0
  138.3511   78.1584  222.9869 H   0  0  0  0  0  0  0  0  0  0  0  0
  140.6269   79.5070  219.8139 H   0  0  0  0  0  0  0  0  0  0  0  0
  139.6547   80.6459  220.7487 H   0  0  0  0  0  0  0  0  0  0  0  0
  142.5449   80.7495  220.1039 H   0  0  0  0  0  0  0  0  0  0  0  0
  141.5588   82.0309  220.8110 H   0  0  0  0  0  0  0  0  0  0  0  0
  143.2454   79.9477  222.1501 H   0  0  0  0  0  0  0  0  0  0  0  0
  142.7762   81.5168  222.7764 H   0  0  0  0  0  0  0  0  0  0  0  0
  141.5927   79.3365  223.7923 H   0  0  0  0  0  0  0  0  0  0  0  0
  140.5351   80.6708  223.4337 H   0  0  0  0  0  0  0  0  0  0  0  0
  142.0927   77.1372  221.1319 H   0  0  0  0  0  0  0  0  0  0  0  0
  1  2  2  0
  2  3  1  0
  3  4  1  0
  4  5  1  0
  5  6  2  0
  6  7  1  0
  7  8  2  0
  8  9  1  0
  9 10  1  0
 10 11  2  0
 10 12  1  0
 12 13  1  0
 13 14  1  0
 14 15  1  0
 15 16  1  0
  9 17  2  0
  4 18  2  0
 18 19  1  0
 19 20  2  0
 20 21  1  0
 21 22  2  0
 22 23  1  0
 23 24  1  0
 24 25  1  0
 25 26  1  0
 26 27  1  0
 22 28  1  0
 28 29  2  0
 29  2  1  0
 17  5  1  0
 29 19  1  0
 16 12  1  0
 27 23  1  0
  3 30  1  0
  3 31  1  0
  6 32  1  0
  7 33  1  0
  8 34  1  0
 13 35  1  0
 13 36  1  0
 14 37  1  0
 14 38  1  0
 15 39  1  0
 15 40  1  0
 16 41  1  0
 16 42  1  0
 17 43  1  0
 20 44  1  0
 21 45  1  0
 24 46  1  0
 24 47  1  0
 25 48  1  0
 25 49  1  0
 26 50  1  0
 26 51  1  0
 27 52  1  0
 27 53  1  0
 28 54  1  0
M  END
>  <smiles>  (10) 
O=C1CC(c2cccc(C(=O)N3CCCC3)c2)=Nc2ccc(N3CCCC3)cc21

>  <score_type>  (10) 
oracle

>  <origin>  (10) 
autodockgpu

>  <m_score__min__energy>  (10) 
-8.5

>  <m_primary>  (10) 
energy

>  <rmsd>  (10) 
6.250467709873385

>  <m_score__min__rmsd>  (10) 
6.250467709873385

>  <meeko>  (10) 
{"free_energy": -8.38, "intermolecular_energy": -9.28, "internal_energy": -0.6, "cluster_size": 46, "cluster_id": 1, "rank_in_cluster": 22}

>  <energy>  (10) 
-8.48

>  <cluster_rmsd>  (10) 
0.18

>  <cluster>  (10) 
1

$$$$

     RDKit          3D

 54 58  0  0  0  0  0  0  0  0999 V2000
  142.7420   75.5500  220.4540 O   0  0  0  0  0  0  0  0  0  0  0  0
  141.6950   75.1310  221.0400 C   0  0  0  0  0  0  0  0  0  0  0  0
  141.4990   73.6590  221.0930 C   0  0  0  0  0  0  0  0  0  0  0  0
  140.2660   73.3610  221.8100 C   0  0  0  0  0  0  0  0  0  0  0  0
  139.9000   71.9520  222.0120 C   0  0  0  0  0  0  0  0  0  0  0  0
  140.0370   71.0140  220.9930 C   0  0  0  0  0  0  0  0  0  0  0  0
  139.7150   69.6890  221.1730 C   0  0  0  0  0  0  0  0  0  0  0  0
  139.2360   69.2740  222.4180 C   0  0  0  0  0  0  0  0  0  0  0  0
  139.0860   70.1900  223.4660 C   0  0  0  0  0  0  0  0  0  0  0  0
  138.5960   69.6900  224.7260 C   0  0  0  0  0  0  0  0  0  0  0  0
  137.3470   69.4690  224.8440 O   0  0  0  0  0  0  0  0  0  0  0  0
  139.5190   69.4650  225.7800 N   0  0  0  0  0  0  0  0  0  0  0  0
  140.9700   69.6770  225.7740 C   0  0  0  0  0  0  0  0  0  0  0  0
  141.4580   68.4240  226.4870 C   0  0  0  0  0  0  0  0  0  0  0  0
  140.2580   67.7960  227.1600 C   0  0  0  0  0  0  0  0  0  0  0  0
  139.2540   68.9600  227.1360 C   0  0  0  0  0  0  0  0  0  0  0  0
  139.4190   71.4910  223.2350 C   0  0  0  0  0  0  0  0  0  0  0  0
  139.4510   74.2270  222.3180 N   0  0  0  0  0  0  0  0  0  0  0  0
  139.6320   75.6250  222.2580 C   0  0  0  0  0  0  0  0  0  0  0  0
  138.7680   76.5490  222.7920 C   0  0  0  0  0  0  0  0  0  0  0  0
  138.9940   77.9250  222.7080 C   0  0  0  0  0  0  0  0  0  0  0  0
  140.1190   78.3870  222.0690 C   0  0  0  0  0  0  0  0  0  0  0  0
  140.4560   79.7470  221.9120 N   0  0  0  0  0  0  0  0  0  0  0  0
  140.8070   80.5330  220.7490 C   0  0  0  0  0  0  0  0  0  0  0  0
  141.7980   81.5760  221.2580 C   0  0  0  0  0  0  0  0  0  0  0  0
  141.7820   81.4340  222.7520 C   0  0  0  0  0  0  0  0  0  0  0  0
  140.4830   80.7070  223.0190 C   0  0  0  0  0  0  0  0  0  0  0  0
  141.0010   77.4430  221.5220 C   0  0  0  0  0  0  0  0  0  0  0  0
  140.7620   76.0880  221.6150 C   0  0  0  0  0  0  0  0  0  0  0  0
  141.4342   73.2602  220.0699 H   0  0  0  0  0  0  0  0  0  0  0  0
  142.3488   73.1934  221.6137 H   0  0  0  0  0  0  0  0  0  0  0  0
  140.4145   71.3425  220.0134 H   0  0  0  0  0  0  0  0  0  0  0  0
  139.8327   68.9682  220.3505 H   0  0  0  0  0  0  0  0  0  0  0  0
  138.9742   68.2174  222.5763 H   0  0  0  0  0  0  0  0  0  0  0  0
  141.3640   69.7360  224.7487 H   0  0  0  0  0  0  0  0  0  0  0  0
  141.2896   70.6174  226.2468 H   0  0  0  0  0  0  0  0  0  0  0  0
  141.8927   67.7220  225.7602 H   0  0  0  0  0  0  0  0  0  0  0  0
  142.2342   68.6725  227.2257 H   0  0  0  0  0  0  0  0  0  0  0  0
  139.8849   66.9310  226.5921 H   0  0  0  0  0  0  0  0  0  0  0  0
  140.4625   67.3988  228.1652 H   0  0  0  0  0  0  0  0  0  0  0  0
  138.2167   68.6124  227.2512 H   0  0  0  0  0  0  0  0  0  0  0  0
  139.3648   69.6969  227.9451 H   0  0  0  0  0  0  0  0  0  0  0  0
  139.3020   72.2137  224.0560 H   0  0  0  0  0  0  0  0  0  0  0  0
  137.8632   76.1920  223.3057 H   0  0  0  0  0  0  0  0  0  0  0  0
  138.2771   78.6327  223.1498 H   0  0  0  0  0  0  0  0  0  0  0  0
  141.2742   79.8989  219.9811 H   0  0  0  0  0  0  0  0  0  0  0  0
  139.9247   80.9959  220.2829 H   0  0  0  0  0  0  0  0  0  0  0  0
  142.8049   81.3777  220.8620 H   0  0  0  0  0  0  0  0  0  0  0  0
  141.5271   82.5929  220.9377 H   0  0  0  0  0  0  0  0  0  0  0  0
  142.6425   80.8442  223.1009 H   0  0  0  0  0  0  0  0  0  0  0  0
  141.8510   82.3984  223.2766 H   0  0  0  0  0  0  0  0  0  0  0  0
  140.5003   80.1970  223.9935 H   0  0  0  0  0  0  0  0  0  0  0  0
  139.6017   81.3636  223.0664 H   0  0  0  0  0  0  0  0  0  0  0  0
  141.9070   77.7928  221.0054 H   0  0  0  0  0  0  0  0  0  0  0  0
  1  2  2  0
  2  3  1  0
  3  4  1  0
  4  5  1  0
  5  6  2  0
  6  7  1  0
  7  8  2  0
  8  9  1  0
  9 10  1  0
 10 11  2  0
 10 12  1  0
 12 13  1  0
 13 14  1  0
 14 15  1  0
 15 16  1  0
  9 17  2  0
  4 18  2  0
 18 19  1  0
 19 20  2  0
 20 21  1  0
 21 22  2  0
 22 23  1  0
 23 24  1  0
 24 25  1  0
 25 26  1  0
 26 27  1  0
 22 28  1  0
 28 29  2  0
 29  2  1  0
 17  5  1  0
 29 19  1  0
 16 12  1  0
 27 23  1  0
  3 30  1  0
  3 31  1  0
  6 32  1  0
  7 33  1  0
  8 34  1  0
 13 35  1  0
 13 36  1  0
 14 37  1  0
 14 38  1  0
 15 39  1  0
 15 40  1  0
 16 41  1  0
 16 42  1  0
 17 43  1  0
 20 44  1  0
 21 45  1  0
 24 46  1  0
 24 47  1  0
 25 48  1  0
 25 49  1  0
 26 50  1  0
 26 51  1  0
 27 52  1  0
 27 53  1  0
 28 54  1  0
M  END
>  <smiles>  (11) 
O=C1CC(c2cccc(C(=O)N3CCCC3)c2)=Nc2ccc(N3CCCC3)cc21

>  <score_type>  (11) 
oracle

>  <origin>  (11) 
autodockgpu

>  <m_score__min__energy>  (11) 
-8.5

>  <m_primary>  (11) 
energy

>  <rmsd>  (11) 
6.736378621611099

>  <m_score__min__rmsd>  (11) 
6.736378621611099

>  <meeko>  (11) 
{"free_energy": -7.65, "intermolecular_energy": -8.54, "internal_energy": -1.01, "cluster_size": 46, "cluster_id": 1, "rank_in_cluster": 43}

>  <energy>  (11) 
-8.48

>  <cluster_rmsd>  (11) 
0.12

>  <cluster>  (11) 
1

$$$$

     RDKit          3D

 54 58  0  0  0  0  0  0  0  0999 V2000
  142.8340   75.2170  220.4860 O   0  0  0  0  0  0  0  0  0  0  0  0
  141.7820   74.8050  221.0690 C   0  0  0  0  0  0  0  0  0  0  0  0
  141.5980   73.3340  221.1620 C   0  0  0  0  0  0  0  0  0  0  0  0
  140.3580   73.0450  221.8710 C   0  0  0  0  0  0  0  0  0  0  0  0
  140.0020   71.6390  222.1080 C   0  0  0  0  0  0  0  0  0  0  0  0
  139.8560   70.7410  221.0560 C   0  0  0  0  0  0  0  0  0  0  0  0
  139.5390   69.4180  221.2650 C   0  0  0  0  0  0  0  0  0  0  0  0
  139.3600   68.9660  222.5740 C   0  0  0  0  0  0  0  0  0  0  0  0
  139.5000   69.8430  223.6570 C   0  0  0  0  0  0  0  0  0  0  0  0
  139.3110   69.3040  224.9810 C   0  0  0  0  0  0  0  0  0  0  0  0
  138.8200   68.1340  225.0940 O   0  0  0  0  0  0  0  0  0  0  0  0
  139.6760   70.0950  226.1020 N   0  0  0  0  0  0  0  0  0  0  0  0
  140.2470   71.4450  226.1090 C   0  0  0  0  0  0  0  0  0  0  0  0
  141.3200   71.3100  227.1790 C   0  0  0  0  0  0  0  0  0  0  0  0
  141.0340   70.0370  227.9420 C   0  0  0  0  0  0  0  0  0  0  0  0
  139.5780   69.7580  227.5300 C   0  0  0  0  0  0  0  0  0  0  0  0
  139.8140   71.1420  223.3960 C   0  0  0  0  0  0  0  0  0  0  0  0
  139.5290   73.9190  222.3420 N   0  0  0  0  0  0  0  0  0  0  0  0
  139.6990   75.3160  222.2440 C   0  0  0  0  0  0  0  0  0  0  0  0
  138.8200   76.2470  222.7390 C   0  0  0  0  0  0  0  0  0  0  0  0
  139.0350   77.6220  222.6190 C   0  0  0  0  0  0  0  0  0  0  0  0
  140.1650   78.0750  221.9820 C   0  0  0  0  0  0  0  0  0  0  0  0
  140.4920   79.4330  221.7900 N   0  0  0  0  0  0  0  0  0  0  0  0
  140.8380   80.1910  220.6080 C   0  0  0  0  0  0  0  0  0  0  0  0
  141.8220   81.2540  221.0900 C   0  0  0  0  0  0  0  0  0  0  0  0
  141.8040   81.1510  222.5870 C   0  0  0  0  0  0  0  0  0  0  0  0
  140.5100   80.4210  222.8720 C   0  0  0  0  0  0  0  0  0  0  0  0
  141.0620   77.1240  221.4750 C   0  0  0  0  0  0  0  0  0  0  0  0
  140.8330   75.7700  221.6030 C   0  0  0  0  0  0  0  0  0  0  0  0
  141.5506   72.9054  220.1500 H   0  0  0  0  0  0  0  0  0  0  0  0
  142.4447   72.8916  221.7074 H   0  0  0  0  0  0  0  0  0  0  0  0
  139.9982   71.0990  220.0256 H   0  0  0  0  0  0  0  0  0  0  0  0
  139.4285   68.7284  220.4152 H   0  0  0  0  0  0  0  0  0  0  0  0
  139.1067   67.9112  222.7563 H   0  0  0  0  0  0  0  0  0  0  0  0
  140.6825   71.7029  225.1324 H   0  0  0  0  0  0  0  0  0  0  0  0
  139.5148   72.2425  226.3037 H   0  0  0  0  0  0  0  0  0  0  0  0
  142.3138   71.2534  226.7109 H   0  0  0  0  0  0  0  0  0  0  0  0
  141.3104   72.1793  227.8530 H   0  0  0  0  0  0  0  0  0  0  0  0
  141.7037   69.2219  227.6305 H   0  0  0  0  0  0  0  0  0  0  0  0
  141.1865   70.1194  229.0283 H   0  0  0  0  0  0  0  0  0  0  0  0
  139.2989   68.7057  227.6875 H   0  0  0  0  0  0  0  0  0  0  0  0
  138.8119   70.3091  228.0952 H   0  0  0  0  0  0  0  0  0  0  0  0
  139.9247   71.8335  224.2443 H   0  0  0  0  0  0  0  0  0  0  0  0
  137.9111   75.8967  223.2500 H   0  0  0  0  0  0  0  0  0  0  0  0
  138.3062   78.3357  223.0308 H   0  0  0  0  0  0  0  0  0  0  0  0
  141.3097   79.5406  219.8567 H   0  0  0  0  0  0  0  0  0  0  0  0
  139.9526   80.6358  220.1303 H   0  0  0  0  0  0  0  0  0  0  0  0
  142.8308   81.0517  220.7008 H   0  0  0  0  0  0  0  0  0  0  0  0
  141.5458   82.2603  220.7421 H   0  0  0  0  0  0  0  0  0  0  0  0
  142.6684   80.5774  222.9526 H   0  0  0  0  0  0  0  0  0  0  0  0
  141.8642   82.1296  223.0858 H   0  0  0  0  0  0  0  0  0  0  0  0
  140.5303   79.9364  223.8593 H   0  0  0  0  0  0  0  0  0  0  0  0
  139.6235   81.0716  222.9021 H   0  0  0  0  0  0  0  0  0  0  0  0
  141.9724   77.4669  220.9616 H   0  0  0  0  0  0  0  0  0  0  0  0
  1  2  2  0
  2  3  1  0
  3  4  1  0
  4  5  1  0
  5  6  2  0
  6  7  1  0
  7  8  2  0
  8  9  1  0
  9 10  1  0
 10 11  2  0
 10 12  1  0
 12 13  1  0
 13 14  1  0
 14 15  1  0
 15 16  1  0
  9 17  2  0
  4 18  2  0
 18 19  1  0
 19 20  2  0
 20 21  1  0
 21 22  2  0
 22 23  1  0
 23 24  1  0
 24 25  1  0
 25 26  1  0
 26 27  1  0
 22 28  1  0
 28 29  2  0
 29  2  1  0
 17  5  1  0
 29 19  1  0
 16 12  1  0
 27 23  1  0
  3 30  1  0
  3 31  1  0
  6 32  1  0
  7 33  1  0
  8 34  1  0
 13 35  1  0
 13 36  1  0
 14 37  1  0
 14 38  1  0
 15 39  1  0
 15 40  1  0
 16 41  1  0
 16 42  1  0
 17 43  1  0
 20 44  1  0
 21 45  1  0
 24 46  1  0
 24 47  1  0
 25 48  1  0
 25 49  1  0
 26 50  1  0
 26 51  1  0
 27 52  1  0
 27 53  1  0
 28 54  1  0
M  END
>  <smiles>  (12) 
O=C1CC(c2cccc(C(=O)N3CCCC3)c2)=Nc2ccc(N3CCCC3)cc21

>  <score_type>  (12) 
oracle

>  <origin>  (12) 
autodockgpu

>  <m_score__min__energy>  (12) 
-8.5

>  <m_primary>  (12) 
energy

>  <rmsd>  (12) 
6.397351217339183

>  <m_score__min__rmsd>  (12) 
6.397351217339183

>  <meeko>  (12) 
{"free_energy": -8.38, "intermolecular_energy": -9.27, "internal_energy": -0.6, "cluster_size": 46, "cluster_id": 1, "rank_in_cluster": 23}

>  <energy>  (12) 
-8.48

>  <cluster_rmsd>  (12) 
0.21

>  <cluster>  (12) 
1

$$$$

     RDKit          3D

 54 58  0  0  0  0  0  0  0  0999 V2000
  142.8620   74.9270  220.6030 O   0  0  0  0  0  0  0  0  0  0  0  0
  141.7840   74.5360  221.1500 C   0  0  0  0  0  0  0  0  0  0  0  0
  141.5670   73.0680  221.2340 C   0  0  0  0  0  0  0  0  0  0  0  0
  140.2990   72.8040  221.9010 C   0  0  0  0  0  0  0  0  0  0  0  0
  139.9060   71.4050  222.1230 C   0  0  0  0  0  0  0  0  0  0  0  0
  139.6110   70.5570  221.0600 C   0  0  0  0  0  0  0  0  0  0  0  0
  139.2590   69.2410  221.2530 C   0  0  0  0  0  0  0  0  0  0  0  0
  139.1970   68.7430  222.5570 C   0  0  0  0  0  0  0  0  0  0  0  0
  139.4890   69.5680  223.6500 C   0  0  0  0  0  0  0  0  0  0  0  0
  139.4140   68.9850  224.9660 C   0  0  0  0  0  0  0  0  0  0  0  0
  139.1220   67.7480  225.0640 O   0  0  0  0  0  0  0  0  0  0  0  0
  139.6660   69.8050  226.0960 N   0  0  0  0  0  0  0  0  0  0  0  0
  140.0090   71.2310  226.1210 C   0  0  0  0  0  0  0  0  0  0  0  0
  141.1100   71.2560  227.1710 C   0  0  0  0  0  0  0  0  0  0  0  0
  141.0490   69.9400  227.9140 C   0  0  0  0  0  0  0  0  0  0  0  0
  139.6510   69.4340  227.5190 C   0  0  0  0  0  0  0  0  0  0  0  0
  139.8310   70.8640  223.4050 C   0  0  0  0  0  0  0  0  0  0  0  0
  139.4720   73.6930  222.3460 N   0  0  0  0  0  0  0  0  0  0  0  0
  139.6730   75.0870  222.2570 C   0  0  0  0  0  0  0  0  0  0  0  0
  138.7970   76.0340  222.7250 C   0  0  0  0  0  0  0  0  0  0  0  0
  139.0440   77.4050  222.6150 C   0  0  0  0  0  0  0  0  0  0  0  0
  140.2030   77.8360  222.0160 C   0  0  0  0  0  0  0  0  0  0  0  0
  140.5640   79.1870  221.8380 N   0  0  0  0  0  0  0  0  0  0  0  0
  141.4120   79.8470  220.8690 C   0  0  0  0  0  0  0  0  0  0  0  0
  142.0420   81.0160  221.6220 C   0  0  0  0  0  0  0  0  0  0  0  0
  141.3290   81.0600  222.9420 C   0  0  0  0  0  0  0  0  0  0  0  0
  140.0620   80.2760  222.6810 C   0  0  0  0  0  0  0  0  0  0  0  0
  141.0980   76.8680  221.5370 C   0  0  0  0  0  0  0  0  0  0  0  0
  140.8370   75.5190  221.6550 C   0  0  0  0  0  0  0  0  0  0  0  0
  141.5442   72.6417  220.2202 H   0  0  0  0  0  0  0  0  0  0  0  0
  142.3860   72.6075  221.8059 H   0  0  0  0  0  0  0  0  0  0  0  0
  139.6607   70.9507  220.0341 H   0  0  0  0  0  0  0  0  0  0  0  0
  139.0302   68.5917  220.3950 H   0  0  0  0  0  0  0  0  0  0  0  0
  138.9162   67.6930  222.7265 H   0  0  0  0  0  0  0  0  0  0  0  0
  140.3779   71.5734  225.1429 H   0  0  0  0  0  0  0  0  0  0  0  0
  139.1600   71.8941  226.3435 H   0  0  0  0  0  0  0  0  0  0  0  0
  142.0908   71.3700  226.6861 H   0  0  0  0  0  0  0  0  0  0  0  0
  140.9721   72.1011  227.8615 H   0  0  0  0  0  0  0  0  0  0  0  0
  141.8368   69.2504  227.5766 H   0  0  0  0  0  0  0  0  0  0  0  0
  141.2056   70.0282  228.9992 H   0  0  0  0  0  0  0  0  0  0  0  0
  139.5500   68.3479  227.6611 H   0  0  0  0  0  0  0  0  0  0  0  0
  138.8160   69.8440  228.1061 H   0  0  0  0  0  0  0  0  0  0  0  0
  140.0591   71.5154  224.2615 H   0  0  0  0  0  0  0  0  0  0  0  0
  137.8649   75.7012  223.2050 H   0  0  0  0  0  0  0  0  0  0  0  0
  138.3169   78.1328  223.0045 H   0  0  0  0  0  0  0  0  0  0  0  0
  142.1890   79.1592  220.5040 H   0  0  0  0  0  0  0  0  0  0  0  0
  140.8464   80.1820  219.9870 H   0  0  0  0  0  0  0  0  0  0  0  0
  143.1185   80.8449  221.7700 H   0  0  0  0  0  0  0  0  0  0  0  0
  141.9456   81.9623  221.0695 H   0  0  0  0  0  0  0  0  0  0  0  0
  141.9308   80.5848  223.7307 H   0  0  0  0  0  0  0  0  0  0  0  0
  141.1360   82.0847  223.2924 H   0  0  0  0  0  0  0  0  0  0  0  0
  139.6261   79.8931  223.6156 H   0  0  0  0  0  0  0  0  0  0  0  0
  139.2553   80.8655  222.2209 H   0  0  0  0  0  0  0  0  0  0  0  0
  142.0318   77.1931  221.0550 H   0  0  0  0  0  0  0  0  0  0  0  0
  1  2  2  0
  2  3  1  0
  3  4  1  0
  4  5  1  0
  5  6  2  0
  6  7  1  0
  7  8  2  0
  8  9  1  0
  9 10  1  0
 10 11  2  0
 10 12  1  0
 12 13  1  0
 13 14  1  0
 14 15  1  0
 15 16  1  0
  9 17  2  0
  4 18  2  0
 18 19  1  0
 19 20  2  0
 20 21  1  0
 21 22  2  0
 22 23  1  0
 23 24  1  0
 24 25  1  0
 25 26  1  0
 26 27  1  0
 22 28  1  0
 28 29  2  0
 29  2  1  0
 17  5  1  0
 29 19  1  0
 16 12  1  0
 27 23  1  0
  3 30  1  0
  3 31  1  0
  6 32  1  0
  7 33  1  0
  8 34  1  0
 13 35  1  0
 13 36  1  0
 14 37  1  0
 14 38  1  0
 15 39  1  0
 15 40  1  0
 16 41  1  0
 16 42  1  0
 17 43  1  0
 20 44  1  0
 21 45  1  0
 24 46  1  0
 24 47  1  0
 25 48  1  0
 25 49  1  0
 26 50  1  0
 26 51  1  0
 27 52  1  0
 27 53  1  0
 28 54  1  0
M  END
>  <smiles>  (13) 
O=C1CC(c2cccc(C(=O)N3CCCC3)c2)=Nc2ccc(N3CCCC3)cc21

>  <score_type>  (13) 
oracle

>  <origin>  (13) 
autodockgpu

>  <m_score__min__energy>  (13) 
-8.5

>  <m_primary>  (13) 
energy

>  <rmsd>  (13) 
6.27721232386991

>  <m_score__min__rmsd>  (13) 
6.27721232386991

>  <meeko>  (13) 
{"free_energy": -8.5, "intermolecular_energy": -9.39, "internal_energy": -0.58, "cluster_size": 46, "cluster_id": 1, "rank_in_cluster": 4}

>  <energy>  (13) 
-8.47

>  <cluster_rmsd>  (13) 
0.11

>  <cluster>  (13) 
1

$$$$

     RDKit          3D

 54 58  0  0  0  0  0  0  0  0999 V2000
  142.8140   74.8250  220.6790 O   0  0  0  0  0  0  0  0  0  0  0  0
  141.7090   74.4740  221.1980 C   0  0  0  0  0  0  0  0  0  0  0  0
  141.4370   73.0150  221.2770 C   0  0  0  0  0  0  0  0  0  0  0  0
  140.1430   72.7980  221.9110 C   0  0  0  0  0  0  0  0  0  0  0  0
  139.6950   71.4140  222.1250 C   0  0  0  0  0  0  0  0  0  0  0  0
  139.2240   70.6350  221.0720 C   0  0  0  0  0  0  0  0  0  0  0  0
  138.8170   69.3330  221.2540 C   0  0  0  0  0  0  0  0  0  0  0  0
  138.8800   68.7800  222.5350 C   0  0  0  0  0  0  0  0  0  0  0  0
  139.3490   69.5350  223.6160 C   0  0  0  0  0  0  0  0  0  0  0  0
  139.3960   68.8960  224.9080 C   0  0  0  0  0  0  0  0  0  0  0  0
  139.1990   67.6380  224.9680 O   0  0  0  0  0  0  0  0  0  0  0  0
  139.6570   69.6870  226.0560 N   0  0  0  0  0  0  0  0  0  0  0  0
  139.8990   71.1320  226.1240 C   0  0  0  0  0  0  0  0  0  0  0  0
  141.0570   71.1950  227.1100 C   0  0  0  0  0  0  0  0  0  0  0  0
  141.1340   69.8500  227.7960 C   0  0  0  0  0  0  0  0  0  0  0  0
  139.7540   69.2590  227.4600 C   0  0  0  0  0  0  0  0  0  0  0  0
  139.7390   70.8190  223.3830 C   0  0  0  0  0  0  0  0  0  0  0  0
  139.3380   73.7170  222.3360 N   0  0  0  0  0  0  0  0  0  0  0  0
  139.5930   75.1020  222.2510 C   0  0  0  0  0  0  0  0  0  0  0  0
  138.7400   76.0820  222.6970 C   0  0  0  0  0  0  0  0  0  0  0  0
  139.0390   77.4430  222.5920 C   0  0  0  0  0  0  0  0  0  0  0  0
  140.2280   77.8310  222.0240 C   0  0  0  0  0  0  0  0  0  0  0  0
  140.6420   79.1680  221.8550 N   0  0  0  0  0  0  0  0  0  0  0  0
  141.2330   79.8680  220.7350 C   0  0  0  0  0  0  0  0  0  0  0  0
  142.1540   80.9120  221.3600 C   0  0  0  0  0  0  0  0  0  0  0  0
  141.8550   80.8670  222.8300 C   0  0  0  0  0  0  0  0  0  0  0  0
  140.5010   80.1950  222.8900 C   0  0  0  0  0  0  0  0  0  0  0  0
  141.0990   76.8300  221.5670 C   0  0  0  0  0  0  0  0  0  0  0  0
  140.7870   75.4910  221.6790 C   0  0  0  0  0  0  0  0  0  0  0  0
  141.4252   72.5884  220.2632 H   0  0  0  0  0  0  0  0  0  0  0  0
  142.2237   72.5260  221.8703 H   0  0  0  0  0  0  0  0  0  0  0  0
  139.1756   71.0732  220.0642 H   0  0  0  0  0  0  0  0  0  0  0  0
  138.4485   68.7382  220.4053 H   0  0  0  0  0  0  0  0  0  0  0  0
  138.5578   67.7406  222.6958 H   0  0  0  0  0  0  0  0  0  0  0  0
  140.1834   71.5392  225.1425 H   0  0  0  0  0  0  0  0  0  0  0  0
  139.0202   71.7221  226.4232 H   0  0  0  0  0  0  0  0  0  0  0  0
  141.9964   71.3997  226.5755 H   0  0  0  0  0  0  0  0  0  0  0  0
  140.9014   71.9993  227.8441 H   0  0  0  0  0  0  0  0  0  0  0  0
  141.9468   69.2340  227.3838 H   0  0  0  0  0  0  0  0  0  0  0  0
  141.3492   69.9061  228.8733 H   0  0  0  0  0  0  0  0  0  0  0  0
  139.7390   68.1636  227.5594 H   0  0  0  0  0  0  0  0  0  0  0  0
  138.9290   69.5827  228.1117 H   0  0  0  0  0  0  0  0  0  0  0  0
  140.1070   71.4155  224.2308 H   0  0  0  0  0  0  0  0  0  0  0  0
  137.7850   75.7840  223.1543 H   0  0  0  0  0  0  0  0  0  0  0  0
  138.3283   78.1972  222.9610 H   0  0  0  0  0  0  0  0  0  0  0  0
  141.8080   79.1732  220.1053 H   0  0  0  0  0  0  0  0  0  0  0  0
  140.4713   80.3256  220.0866 H   0  0  0  0  0  0  0  0  0  0  0  0
  143.2080   80.6591  221.1723 H   0  0  0  0  0  0  0  0  0  0  0  0
  141.9891   81.9136  220.9363 H   0  0  0  0  0  0  0  0  0  0  0  0
  142.6117   80.2772  223.3680 H   0  0  0  0  0  0  0  0  0  0  0  0
  141.8632   81.8609  223.3013 H   0  0  0  0  0  0  0  0  0  0  0  0
  140.3172   79.7479  223.8781 H   0  0  0  0  0  0  0  0  0  0  0  0
  139.6528   80.8777  222.7335 H   0  0  0  0  0  0  0  0  0  0  0  0
  142.0553   77.1207  221.1076 H   0  0  0  0  0  0  0  0  0  0  0  0
  1  2  2  0
  2  3  1  0
  3  4  1  0
  4  5  1  0
  5  6  2  0
  6  7  1  0
  7  8  2  0
  8  9  1  0
  9 10  1  0
 10 11  2  0
 10 12  1  0
 12 13  1  0
 13 14  1  0
 14 15  1  0
 15 16  1  0
  9 17  2  0
  4 18  2  0
 18 19  1  0
 19 20  2  0
 20 21  1  0
 21 22  2  0
 22 23  1  0
 23 24  1  0
 24 25  1  0
 25 26  1  0
 26 27  1  0
 22 28  1  0
 28 29  2  0
 29  2  1  0
 17  5  1  0
 29 19  1  0
 16 12  1  0
 27 23  1  0
  3 30  1  0
  3 31  1  0
  6 32  1  0
  7 33  1  0
  8 34  1  0
 13 35  1  0
 13 36  1  0
 14 37  1  0
 14 38  1  0
 15 39  1  0
 15 40  1  0
 16 41  1  0
 16 42  1  0
 17 43  1  0
 20 44  1  0
 21 45  1  0
 24 46  1  0
 24 47  1  0
 25 48  1  0
 25 49  1  0
 26 50  1  0
 26 51  1  0
 27 52  1  0
 27 53  1  0
 28 54  1  0
M  END
>  <smiles>  (14) 
O=C1CC(c2cccc(C(=O)N3CCCC3)c2)=Nc2ccc(N3CCCC3)cc21

>  <score_type>  (14) 
oracle

>  <origin>  (14) 
autodockgpu

>  <m_score__min__energy>  (14) 
-8.5

>  <m_primary>  (14) 
energy

>  <rmsd>  (14) 
6.245600356357664

>  <m_score__min__rmsd>  (14) 
6.245600356357664

>  <meeko>  (14) 
{"free_energy": -8.41, "intermolecular_energy": -9.3, "internal_energy": -0.6, "cluster_size": 46, "cluster_id": 1, "rank_in_cluster": 19}

>  <energy>  (14) 
-8.47

>  <cluster_rmsd>  (14) 
0.07

>  <cluster>  (14) 
1

$$$$

     RDKit          3D

 54 58  0  0  0  0  0  0  0  0999 V2000
  143.1580   75.5280  219.7250 O   0  0  0  0  0  0  0  0  0  0  0  0
  142.1850   75.2160  220.4800 C   0  0  0  0  0  0  0  0  0  0  0  0
  141.8650   73.7710  220.6020 C   0  0  0  0  0  0  0  0  0  0  0  0
  140.7420   73.5990  221.5150 C   0  0  0  0  0  0  0  0  0  0  0  0
  140.2850   72.2330  221.8090 C   0  0  0  0  0  0  0  0  0  0  0  0
  140.3860   71.2160  220.8650 C   0  0  0  0  0  0  0  0  0  0  0  0
  139.9780   69.9300  221.1320 C   0  0  0  0  0  0  0  0  0  0  0  0
  139.4470   69.6380  222.3910 C   0  0  0  0  0  0  0  0  0  0  0  0
  139.3310   70.6370  223.3640 C   0  0  0  0  0  0  0  0  0  0  0  0
  138.7820   70.2620  224.6440 C   0  0  0  0  0  0  0  0  0  0  0  0
  137.5150   70.2210  224.7700 O   0  0  0  0  0  0  0  0  0  0  0  0
  139.6700   69.9570  225.7080 N   0  0  0  0  0  0  0  0  0  0  0  0
  141.1360   69.9660  225.6950 C   0  0  0  0  0  0  0  0  0  0  0  0
  141.4500   68.6890  226.4600 C   0  0  0  0  0  0  0  0  0  0  0  0
  140.1780   68.2610  227.1570 C   0  0  0  0  0  0  0  0  0  0  0  0
  139.3440   69.5510  227.0830 C   0  0  0  0  0  0  0  0  0  0  0  0
  139.7490   71.8950  223.0490 C   0  0  0  0  0  0  0  0  0  0  0  0
  140.1030   74.5450  222.1240 N   0  0  0  0  0  0  0  0  0  0  0  0
  140.4010   75.9180  221.9990 C   0  0  0  0  0  0  0  0  0  0  0  0
  139.7230   76.9250  222.6400 C   0  0  0  0  0  0  0  0  0  0  0  0
  140.0590   78.2730  222.4860 C   0  0  0  0  0  0  0  0  0  0  0  0
  141.1040   78.6190  221.6630 C   0  0  0  0  0  0  0  0  0  0  0  0
  141.5350   79.9380  221.4190 N   0  0  0  0  0  0  0  0  0  0  0  0
  141.8360   81.0420  222.3050 C   0  0  0  0  0  0  0  0  0  0  0  0
  141.4400   82.2950  221.5290 C   0  0  0  0  0  0  0  0  0  0  0  0
  141.1270   81.8130  220.1430 C   0  0  0  0  0  0  0  0  0  0  0  0
  141.8100   80.4650  220.0790 C   0  0  0  0  0  0  0  0  0  0  0  0
  141.7950   77.5890  221.0080 C   0  0  0  0  0  0  0  0  0  0  0  0
  141.4500   76.2640  221.1720 C   0  0  0  0  0  0  0  0  0  0  0  0
  141.5988   73.3693  219.6132 H   0  0  0  0  0  0  0  0  0  0  0  0
  142.7413   73.2324  220.9920 H   0  0  0  0  0  0  0  0  0  0  0  0
  140.8051   71.4476  219.8747 H   0  0  0  0  0  0  0  0  0  0  0  0
  140.0682   69.1445  220.3672 H   0  0  0  0  0  0  0  0  0  0  0  0
  139.1172   68.6137  222.6193 H   0  0  0  0  0  0  0  0  0  0  0  0
  141.5296   69.9274  224.6686 H   0  0  0  0  0  0  0  0  0  0  0  0
  141.5843   70.8721  226.1286 H   0  0  0  0  0  0  0  0  0  0  0  0
  141.7806   67.9042  225.7637 H   0  0  0  0  0  0  0  0  0  0  0  0
  142.2564   68.8586  227.1887 H   0  0  0  0  0  0  0  0  0  0  0  0
  139.6866   67.4329  226.6251 H   0  0  0  0  0  0  0  0  0  0  0  0
  140.3301   67.8813  228.1781 H   0  0  0  0  0  0  0  0  0  0  0  0
  138.2692   69.3552  227.2114 H   0  0  0  0  0  0  0  0  0  0  0  0
  139.5591   70.2987  227.8606 H   0  0  0  0  0  0  0  0  0  0  0  0
  139.6586   72.6824  223.8118 H   0  0  0  0  0  0  0  0  0  0  0  0
  138.8834   76.6610  223.2999 H   0  0  0  0  0  0  0  0  0  0  0  0
  139.4919   79.0504  223.0190 H   0  0  0  0  0  0  0  0  0  0  0  0
  141.2516   80.9622  223.2335 H   0  0  0  0  0  0  0  0  0  0  0  0
  142.8960   81.0572  222.5985 H   0  0  0  0  0  0  0  0  0  0  0  0
  140.5561   82.7671  221.9826 H   0  0  0  0  0  0  0  0  0  0  0  0
  142.2385   83.0515  221.5320 H   0  0  0  0  0  0  0  0  0  0  0  0
  140.0414   81.7117  219.9971 H   0  0  0  0  0  0  0  0  0  0  0  0
  141.4688   82.5056  219.3597 H   0  0  0  0  0  0  0  0  0  0  0  0
  141.3700   79.8277  219.2978 H   0  0  0  0  0  0  0  0  0  0  0  0
  142.8793   80.5140  219.8256 H   0  0  0  0  0  0  0  0  0  0  0  0
  142.6349   77.8451  220.3455 H   0  0  0  0  0  0  0  0  0  0  0  0
  1  2  2  0
  2  3  1  0
  3  4  1  0
  4  5  1  0
  5  6  2  0
  6  7  1  0
  7  8  2  0
  8  9  1  0
  9 10  1  0
 10 11  2  0
 10 12  1  0
 12 13  1  0
 13 14  1  0
 14 15  1  0
 15 16  1  0
  9 17  2  0
  4 18  2  0
 18 19  1  0
 19 20  2  0
 20 21  1  0
 21 22  2  0
 22 23  1  0
 23 24  1  0
 24 25  1  0
 25 26  1  0
 26 27  1  0
 22 28  1  0
 28 29  2  0
 29  2  1  0
 17  5  1  0
 29 19  1  0
 16 12  1  0
 27 23  1  0
  3 30  1  0
  3 31  1  0
  6 32  1  0
  7 33  1  0
  8 34  1  0
 13 35  1  0
 13 36  1  0
 14 37  1  0
 14 38  1  0
 15 39  1  0
 15 40  1  0
 16 41  1  0
 16 42  1  0
 17 43  1  0
 20 44  1  0
 21 45  1  0
 24 46  1  0
 24 47  1  0
 25 48  1  0
 25 49  1  0
 26 50  1  0
 26 51  1  0
 27 52  1  0
 27 53  1  0
 28 54  1  0
M  END
>  <smiles>  (15) 
O=C1CC(c2cccc(C(=O)N3CCCC3)c2)=Nc2ccc(N3CCCC3)cc21

>  <score_type>  (15) 
oracle

>  <origin>  (15) 
autodockgpu

>  <m_score__min__energy>  (15) 
-8.5

>  <m_primary>  (15) 
energy

>  <rmsd>  (15) 
6.9857573269153015

>  <m_score__min__rmsd>  (15) 
6.9857573269153015

>  <meeko>  (15) 
{"free_energy": -7.86, "intermolecular_energy": -8.75, "internal_energy": -1.01, "cluster_size": 46, "cluster_id": 1, "rank_in_cluster": 37}

>  <energy>  (15) 
-8.45

>  <cluster_rmsd>  (15) 
0.3

>  <cluster>  (15) 
1

$$$$

     RDKit          3D

 54 58  0  0  0  0  0  0  0  0999 V2000
  143.1800   75.4910  219.7340 O   0  0  0  0  0  0  0  0  0  0  0  0
  142.1950   75.1840  220.4770 C   0  0  0  0  0  0  0  0  0  0  0  0
  141.8720   73.7390  220.6000 C   0  0  0  0  0  0  0  0  0  0  0  0
  140.7360   73.5720  221.4970 C   0  0  0  0  0  0  0  0  0  0  0  0
  140.2740   72.2070  221.7900 C   0  0  0  0  0  0  0  0  0  0  0  0
  140.3810   71.1880  220.8490 C   0  0  0  0  0  0  0  0  0  0  0  0
  139.9680   69.9030  221.1150 C   0  0  0  0  0  0  0  0  0  0  0  0
  139.4250   69.6150  222.3700 C   0  0  0  0  0  0  0  0  0  0  0  0
  139.3040   70.6170  223.3410 C   0  0  0  0  0  0  0  0  0  0  0  0
  138.7440   70.2450  224.6170 C   0  0  0  0  0  0  0  0  0  0  0  0
  137.4760   70.2150  224.7350 O   0  0  0  0  0  0  0  0  0  0  0  0
  139.6220   69.9310  225.6860 N   0  0  0  0  0  0  0  0  0  0  0  0
  141.0880   69.9270  225.6820 C   0  0  0  0  0  0  0  0  0  0  0  0
  141.3870   68.6460  226.4480 C   0  0  0  0  0  0  0  0  0  0  0  0
  140.1070   68.2290  227.1370 C   0  0  0  0  0  0  0  0  0  0  0  0
  139.2840   69.5260  227.0590 C   0  0  0  0  0  0  0  0  0  0  0  0
  139.7270   71.8730  223.0260 C   0  0  0  0  0  0  0  0  0  0  0  0
  140.0900   74.5200  222.0930 N   0  0  0  0  0  0  0  0  0  0  0  0
  140.3910   75.8930  221.9680 C   0  0  0  0  0  0  0  0  0  0  0  0
  139.7050   76.9030  222.5950 C   0  0  0  0  0  0  0  0  0  0  0  0
  140.0440   78.2500  222.4400 C   0  0  0  0  0  0  0  0  0  0  0  0
  141.1010   78.5910  221.6310 C   0  0  0  0  0  0  0  0  0  0  0  0
  141.5370   79.9100  221.3880 N   0  0  0  0  0  0  0  0  0  0  0  0
  141.8370   81.0130  222.2750 C   0  0  0  0  0  0  0  0  0  0  0  0
  141.4470   82.2660  221.4960 C   0  0  0  0  0  0  0  0  0  0  0  0
  141.1400   81.7840  220.1080 C   0  0  0  0  0  0  0  0  0  0  0  0
  141.8200   80.4340  220.0490 C   0  0  0  0  0  0  0  0  0  0  0  0
  141.8010   77.5590  220.9890 C   0  0  0  0  0  0  0  0  0  0  0  0
  141.4520   76.2350  221.1540 C   0  0  0  0  0  0  0  0  0  0  0  0
  141.6199   73.3336  219.6090 H   0  0  0  0  0  0  0  0  0  0  0  0
  142.7420   73.2010  221.0046 H   0  0  0  0  0  0  0  0  0  0  0  0
  140.8090   71.4168  219.8618 H   0  0  0  0  0  0  0  0  0  0  0  0
  140.0636   69.1156  220.3528 H   0  0  0  0  0  0  0  0  0  0  0  0
  139.0897   68.5923  222.5972 H   0  0  0  0  0  0  0  0  0  0  0  0
  141.4874   69.8859  224.6579 H   0  0  0  0  0  0  0  0  0  0  0  0
  141.5413   70.8287  226.1195 H   0  0  0  0  0  0  0  0  0  0  0  0
  141.7148   67.8589  225.7530 H   0  0  0  0  0  0  0  0  0  0  0  0
  142.1909   68.8076  227.1813 H   0  0  0  0  0  0  0  0  0  0  0  0
  139.6118   67.4055  226.6017 H   0  0  0  0  0  0  0  0  0  0  0  0
  140.2499   67.8478  228.1589 H   0  0  0  0  0  0  0  0  0  0  0  0
  138.2069   69.3389  227.1805 H   0  0  0  0  0  0  0  0  0  0  0  0
  139.5004   70.2711  227.8388 H   0  0  0  0  0  0  0  0  0  0  0  0
  139.6317   72.6626  223.7859 H   0  0  0  0  0  0  0  0  0  0  0  0
  138.8561   76.6424  223.2442 H   0  0  0  0  0  0  0  0  0  0  0  0
  139.4697   79.0302  222.9610 H   0  0  0  0  0  0  0  0  0  0  0  0
  141.2485   80.9351  223.2011 H   0  0  0  0  0  0  0  0  0  0  0  0
  142.8956   81.0259  222.5737 H   0  0  0  0  0  0  0  0  0  0  0  0
  140.5616   82.7398  221.9449 H   0  0  0  0  0  0  0  0  0  0  0  0
  142.2470   83.0209  221.5025 H   0  0  0  0  0  0  0  0  0  0  0  0
  140.0550   81.6855  219.9562 H   0  0  0  0  0  0  0  0  0  0  0  0
  141.4876   82.4752  219.3260 H   0  0  0  0  0  0  0  0  0  0  0  0
  141.3823   79.7967  219.2666 H   0  0  0  0  0  0  0  0  0  0  0  0
  142.8906   80.4798  219.8006 H   0  0  0  0  0  0  0  0  0  0  0  0
  142.6501   77.8121  220.3372 H   0  0  0  0  0  0  0  0  0  0  0  0
  1  2  2  0
  2  3  1  0
  3  4  1  0
  4  5  1  0
  5  6  2  0
  6  7  1  0
  7  8  2  0
  8  9  1  0
  9 10  1  0
 10 11  2  0
 10 12  1  0
 12 13  1  0
 13 14  1  0
 14 15  1  0
 15 16  1  0
  9 17  2  0
  4 18  2  0
 18 19  1  0
 19 20  2  0
 20 21  1  0
 21 22  2  0
 22 23  1  0
 23 24  1  0
 24 25  1  0
 25 26  1  0
 26 27  1  0
 22 28  1  0
 28 29  2  0
 29  2  1  0
 17  5  1  0
 29 19  1  0
 16 12  1  0
 27 23  1  0
  3 30  1  0
  3 31  1  0
  6 32  1  0
  7 33  1  0
  8 34  1  0
 13 35  1  0
 13 36  1  0
 14 37  1  0
 14 38  1  0
 15 39  1  0
 15 40  1  0
 16 41  1  0
 16 42  1  0
 17 43  1  0
 20 44  1  0
 21 45  1  0
 24 46  1  0
 24 47  1  0
 25 48  1  0
 25 49  1  0
 26 50  1  0
 26 51  1  0
 27 52  1  0
 27 53  1  0
 28 54  1  0
M  END
>  <smiles>  (16) 
O=C1CC(c2cccc(C(=O)N3CCCC3)c2)=Nc2ccc(N3CCCC3)cc21

>  <score_type>  (16) 
oracle

>  <origin>  (16) 
autodockgpu

>  <m_score__min__energy>  (16) 
-8.5

>  <m_primary>  (16) 
energy

>  <rmsd>  (16) 
6.974816065192797

>  <m_score__min__rmsd>  (16) 
6.974816065192797

>  <meeko>  (16) 
{"free_energy": -7.86, "intermolecular_energy": -8.75, "internal_energy": -1.01, "cluster_size": 46, "cluster_id": 1, "rank_in_cluster": 40}

>  <energy>  (16) 
-8.42

>  <cluster_rmsd>  (16) 
0.32

>  <cluster>  (16) 
1

$$$$

     RDKit          3D

 54 58  0  0  0  0  0  0  0  0999 V2000
  142.8600   74.9480  220.6030 O   0  0  0  0  0  0  0  0  0  0  0  0
  141.7820   74.5520  221.1480 C   0  0  0  0  0  0  0  0  0  0  0  0
  141.5660   73.0850  221.2230 C   0  0  0  0  0  0  0  0  0  0  0  0
  140.2990   72.8150  221.8900 C   0  0  0  0  0  0  0  0  0  0  0  0
  139.9080   71.4140  222.1040 C   0  0  0  0  0  0  0  0  0  0  0  0
  139.6090   70.5740  221.0360 C   0  0  0  0  0  0  0  0  0  0  0  0
  139.2580   69.2560  221.2210 C   0  0  0  0  0  0  0  0  0  0  0  0
  139.2010   68.7500  222.5220 C   0  0  0  0  0  0  0  0  0  0  0  0
  139.4950   69.5680  223.6190 C   0  0  0  0  0  0  0  0  0  0  0  0
  139.4250   68.9750  224.9320 C   0  0  0  0  0  0  0  0  0  0  0  0
  139.1440   67.7350  225.0220 O   0  0  0  0  0  0  0  0  0  0  0  0
  139.6690   69.7900  226.0670 N   0  0  0  0  0  0  0  0  0  0  0  0
  140.0000   71.2190  226.1010 C   0  0  0  0  0  0  0  0  0  0  0  0
  141.1000   71.2460  227.1520 C   0  0  0  0  0  0  0  0  0  0  0  0
  141.0500   69.9250  227.8870 C   0  0  0  0  0  0  0  0  0  0  0  0
  139.6570   69.4100  227.4870 C   0  0  0  0  0  0  0  0  0  0  0  0
  139.8370   70.8650  223.3820 C   0  0  0  0  0  0  0  0  0  0  0  0
  139.4720   73.7010  222.3420 N   0  0  0  0  0  0  0  0  0  0  0  0
  139.6730   75.0950  222.2610 C   0  0  0  0  0  0  0  0  0  0  0  0
  138.7970   76.0390  222.7360 C   0  0  0  0  0  0  0  0  0  0  0  0
  139.0430   77.4110  222.6340 C   0  0  0  0  0  0  0  0  0  0  0  0
  140.2010   77.8470  222.0370 C   0  0  0  0  0  0  0  0  0  0  0  0
  140.5610   79.1990  221.8670 N   0  0  0  0  0  0  0  0  0  0  0  0
  141.4000   79.8670  220.8960 C   0  0  0  0  0  0  0  0  0  0  0  0
  142.0380   81.0280  221.6530 C   0  0  0  0  0  0  0  0  0  0  0  0
  141.3380   81.0620  222.9800 C   0  0  0  0  0  0  0  0  0  0  0  0
  140.0670   80.2810  222.7240 C   0  0  0  0  0  0  0  0  0  0  0  0
  141.0960   76.8820  221.5510 C   0  0  0  0  0  0  0  0  0  0  0  0
  140.8360   75.5320  221.6610 C   0  0  0  0  0  0  0  0  0  0  0  0
  141.5422   72.6653  220.2065 H   0  0  0  0  0  0  0  0  0  0  0  0
  142.3860   72.6218  221.7914 H   0  0  0  0  0  0  0  0  0  0  0  0
  139.6545   70.9753  220.0128 H   0  0  0  0  0  0  0  0  0  0  0  0
  139.0264   68.6123  220.3596 H   0  0  0  0  0  0  0  0  0  0  0  0
  138.9224   67.6985  222.6858 H   0  0  0  0  0  0  0  0  0  0  0  0
  140.3667   71.5706  225.1253 H   0  0  0  0  0  0  0  0  0  0  0  0
  139.1455   71.8738  226.3267 H   0  0  0  0  0  0  0  0  0  0  0  0
  142.0801   71.3712  226.6684 H   0  0  0  0  0  0  0  0  0  0  0  0
  140.9542   72.0854  227.8478 H   0  0  0  0  0  0  0  0  0  0  0  0
  141.8441   69.2443  227.5463 H   0  0  0  0  0  0  0  0  0  0  0  0
  141.2050   70.0076  228.9729 H   0  0  0  0  0  0  0  0  0  0  0  0
  139.5653   68.3222  227.6219 H   0  0  0  0  0  0  0  0  0  0  0  0
  138.8183   69.8095  228.0761 H   0  0  0  0  0  0  0  0  0  0  0  0
  140.0685   71.5104  224.2421 H   0  0  0  0  0  0  0  0  0  0  0  0
  137.8657   75.7028  223.2153 H   0  0  0  0  0  0  0  0  0  0  0  0
  138.3155   78.1357  223.0284 H   0  0  0  0  0  0  0  0  0  0  0  0
  142.1728   79.1819  220.5172 H   0  0  0  0  0  0  0  0  0  0  0  0
  140.8261   80.2104  220.0226 H   0  0  0  0  0  0  0  0  0  0  0  0
  143.1156   80.8543  221.7893 H   0  0  0  0  0  0  0  0  0  0  0  0
  141.9371   81.9791  221.1096 H   0  0  0  0  0  0  0  0  0  0  0  0
  141.9467   80.5796  223.7590 H   0  0  0  0  0  0  0  0  0  0  0  0
  141.1497   82.0839  223.3410 H   0  0  0  0  0  0  0  0  0  0  0  0
  139.6394   79.8904  223.6592 H   0  0  0  0  0  0  0  0  0  0  0  0
  139.2563   80.8749  222.2767 H   0  0  0  0  0  0  0  0  0  0  0  0
  142.0290   77.2106  221.0699 H   0  0  0  0  0  0  0  0  0  0  0  0
  1  2  2  0
  2  3  1  0
  3  4  1  0
  4  5  1  0
  5  6  2  0
  6  7  1  0
  7  8  2  0
  8  9  1  0
  9 10  1  0
 10 11  2  0
 10 12  1  0
 12 13  1  0
 13 14  1  0
 14 15  1  0
 15 16  1  0
  9 17  2  0
  4 18  2  0
 18 19  1  0
 19 20  2  0
 20 21  1  0
 21 22  2  0
 22 23  1  0
 23 24  1  0
 24 25  1  0
 25 26  1  0
 26 27  1  0
 22 28  1  0
 28 29  2  0
 29  2  1  0
 17  5  1  0
 29 19  1  0
 16 12  1  0
 27 23  1  0
  3 30  1  0
  3 31  1  0
  6 32  1  0
  7 33  1  0
  8 34  1  0
 13 35  1  0
 13 36  1  0
 14 37  1  0
 14 38  1  0
 15 39  1  0
 15 40  1  0
 16 41  1  0
 16 42  1  0
 17 43  1  0
 20 44  1  0
 21 45  1  0
 24 46  1  0
 24 47  1  0
 25 48  1  0
 25 49  1  0
 26 50  1  0
 26 51  1  0
 27 52  1  0
 27 53  1  0
 28 54  1  0
M  END
>  <smiles>  (17) 
O=C1CC(c2cccc(C(=O)N3CCCC3)c2)=Nc2ccc(N3CCCC3)cc21

>  <score_type>  (17) 
oracle

>  <origin>  (17) 
autodockgpu

>  <m_score__min__energy>  (17) 
-8.5

>  <m_primary>  (17) 
energy

>  <rmsd>  (17) 
6.277198215883628

>  <m_score__min__rmsd>  (17) 
6.277198215883628

>  <meeko>  (17) 
{"free_energy": -8.5, "intermolecular_energy": -9.39, "internal_energy": -0.58, "cluster_size": 46, "cluster_id": 1, "rank_in_cluster": 3}

>  <energy>  (17) 
-8.42

>  <cluster_rmsd>  (17) 
0.31

>  <cluster>  (17) 
1

$$$$

     RDKit          3D

 54 58  0  0  0  0  0  0  0  0999 V2000
  142.9790   75.3460  220.0760 O   0  0  0  0  0  0  0  0  0  0  0  0
  141.9510   75.0260  220.7510 C   0  0  0  0  0  0  0  0  0  0  0  0
  141.6430   73.5770  220.8590 C   0  0  0  0  0  0  0  0  0  0  0  0
  140.4510   73.3950  221.6770 C   0  0  0  0  0  0  0  0  0  0  0  0
  139.9910   72.0250  221.9450 C   0  0  0  0  0  0  0  0  0  0  0  0
  140.0210   71.0450  220.9570 C   0  0  0  0  0  0  0  0  0  0  0  0
  139.6090   69.7540  221.1980 C   0  0  0  0  0  0  0  0  0  0  0  0
  139.1480   69.4200  222.4740 C   0  0  0  0  0  0  0  0  0  0  0  0
  139.1060   70.3810  223.4910 C   0  0  0  0  0  0  0  0  0  0  0  0
  138.6280   69.9630  224.7860 C   0  0  0  0  0  0  0  0  0  0  0  0
  137.3710   69.8500  224.9590 O   0  0  0  0  0  0  0  0  0  0  0  0
  139.5710   69.6950  225.8120 N   0  0  0  0  0  0  0  0  0  0  0  0
  141.0330   69.7860  225.7440 C   0  0  0  0  0  0  0  0  0  0  0  0
  141.4460   68.5200  226.4800 C   0  0  0  0  0  0  0  0  0  0  0  0
  140.2270   68.0150  227.2190 C   0  0  0  0  0  0  0  0  0  0  0  0
  139.3210   69.2570  227.1930 C   0  0  0  0  0  0  0  0  0  0  0  0
  139.5240   71.6450  223.2010 C   0  0  0  0  0  0  0  0  0  0  0  0
  139.7510   74.3350  222.2230 N   0  0  0  0  0  0  0  0  0  0  0  0
  140.0380   75.7120  222.1120 C   0  0  0  0  0  0  0  0  0  0  0  0
  139.2960   76.7140  222.6860 C   0  0  0  0  0  0  0  0  0  0  0  0
  139.6240   78.0660  222.5480 C   0  0  0  0  0  0  0  0  0  0  0  0
  140.7280   78.4200  221.8120 C   0  0  0  0  0  0  0  0  0  0  0  0
  141.1590   79.7440  221.5920 N   0  0  0  0  0  0  0  0  0  0  0  0
  142.0060   80.6310  222.3610 C   0  0  0  0  0  0  0  0  0  0  0  0
  141.4540   82.0300  222.1040 C   0  0  0  0  0  0  0  0  0  0  0  0
  140.4360   81.8550  221.0160 C   0  0  0  0  0  0  0  0  0  0  0  0
  140.8070   80.5230  220.4020 C   0  0  0  0  0  0  0  0  0  0  0  0
  141.4860   77.3970  221.2240 C   0  0  0  0  0  0  0  0  0  0  0  0
  141.1470   76.0680  221.3710 C   0  0  0  0  0  0  0  0  0  0  0  0
  141.4658   73.1637  219.8551 H   0  0  0  0  0  0  0  0  0  0  0  0
  142.4916   73.0548  221.3251 H   0  0  0  0  0  0  0  0  0  0  0  0
  140.3849   71.3103  219.9534 H   0  0  0  0  0  0  0  0  0  0  0  0
  139.6421   68.9980  220.3996 H   0  0  0  0  0  0  0  0  0  0  0  0
  138.8150   68.3923  222.6813 H   0  0  0  0  0  0  0  0  0  0  0  0
  141.3887   69.7807  224.7031 H   0  0  0  0  0  0  0  0  0  0  0  0
  141.4468   70.7109  226.1722 H   0  0  0  0  0  0  0  0  0  0  0  0
  141.7921   67.7622  225.7616 H   0  0  0  0  0  0  0  0  0  0  0  0
  142.2695   68.7259  227.1796 H   0  0  0  0  0  0  0  0  0  0  0  0
  139.7619   67.1666  226.6956 H   0  0  0  0  0  0  0  0  0  0  0  0
  140.4390   67.6338  228.2288 H   0  0  0  0  0  0  0  0  0  0  0  0
  138.2644   69.0004  227.3594 H   0  0  0  0  0  0  0  0  0  0  0  0
  139.5242   70.0072  227.9714 H   0  0  0  0  0  0  0  0  0  0  0  0
  139.4910   72.4025  223.9979 H   0  0  0  0  0  0  0  0  0  0  0  0
  138.4091   76.4428  223.2774 H   0  0  0  0  0  0  0  0  0  0  0  0
  139.0034   78.8391  223.0246 H   0  0  0  0  0  0  0  0  0  0  0  0
  141.9514   80.3850  223.4317 H   0  0  0  0  0  0  0  0  0  0  0  0
  143.0635   80.5455  222.0705 H   0  0  0  0  0  0  0  0  0  0  0  0
  140.9825   82.4320  223.0129 H   0  0  0  0  0  0  0  0  0  0  0  0
  142.2450   82.7389  221.8180 H   0  0  0  0  0  0  0  0  0  0  0  0
  139.4174   81.8277  221.4303 H   0  0  0  0  0  0  0  0  0  0  0  0
  140.4383   82.6797  220.2881 H   0  0  0  0  0  0  0  0  0  0  0  0
  139.9567   80.0764  219.8658 H   0  0  0  0  0  0  0  0  0  0  0  0
  141.6077   80.5819  219.6501 H   0  0  0  0  0  0  0  0  0  0  0  0
  142.3736   77.6612  220.6304 H   0  0  0  0  0  0  0  0  0  0  0  0
  1  2  2  0
  2  3  1  0
  3  4  1  0
  4  5  1  0
  5  6  2  0
  6  7  1  0
  7  8  2  0
  8  9  1  0
  9 10  1  0
 10 11  2  0
 10 12  1  0
 12 13  1  0
 13 14  1  0
 14 15  1  0
 15 16  1  0
  9 17  2  0
  4 18  2  0
 18 19  1  0
 19 20  2  0
 20 21  1  0
 21 22  2  0
 22 23  1  0
 23 24  1  0
 24 25  1  0
 25 26  1  0
 26 27  1  0
 22 28  1  0
 28 29  2  0
 29  2  1  0
 17  5  1  0
 29 19  1  0
 16 12  1  0
 27 23  1  0
  3 30  1  0
  3 31  1  0
  6 32  1  0
  7 33  1  0
  8 34  1  0
 13 35  1  0
 13 36  1  0
 14 37  1  0
 14 38  1  0
 15 39  1  0
 15 40  1  0
 16 41  1  0
 16 42  1  0
 17 43  1  0
 20 44  1  0
 21 45  1  0
 24 46  1  0
 24 47  1  0
 25 48  1  0
 25 49  1  0
 26 50  1  0
 26 51  1  0
 27 52  1  0
 27 53  1  0
 28 54  1  0
M  END
>  <smiles>  (18) 
O=C1CC(c2cccc(C(=O)N3CCCC3)c2)=Nc2ccc(N3CCCC3)cc21

>  <score_type>  (18) 
oracle

>  <origin>  (18) 
autodockgpu

>  <m_score__min__energy>  (18) 
-8.5

>  <m_primary>  (18) 
energy

>  <rmsd>  (18) 
6.822390849414157

>  <m_score__min__rmsd>  (18) 
6.822390849414157

>  <meeko>  (18) 
{"free_energy": -7.8, "intermolecular_energy": -8.69, "internal_energy": -1.0, "cluster_size": 46, "cluster_id": 1, "rank_in_cluster": 42}

>  <energy>  (18) 
-8.41

>  <cluster_rmsd>  (18) 
0.14

>  <cluster>  (18) 
1

$$$$

     RDKit          3D

 54 58  0  0  0  0  0  0  0  0999 V2000
  142.8220   74.8130  220.6950 O   0  0  0  0  0  0  0  0  0  0  0  0
  141.7130   74.4710  221.2140 C   0  0  0  0  0  0  0  0  0  0  0  0
  141.4310   73.0140  221.2930 C   0  0  0  0  0  0  0  0  0  0  0  0
  140.1350   72.8060  221.9270 C   0  0  0  0  0  0  0  0  0  0  0  0
  139.6770   71.4260  222.1400 C   0  0  0  0  0  0  0  0  0  0  0  0
  139.1840   70.6560  221.0900 C   0  0  0  0  0  0  0  0  0  0  0  0
  138.7670   69.3580  221.2720 C   0  0  0  0  0  0  0  0  0  0  0  0
  138.8420   68.7970  222.5500 C   0  0  0  0  0  0  0  0  0  0  0  0
  139.3330   69.5430  223.6280 C   0  0  0  0  0  0  0  0  0  0  0  0
  139.3910   68.8970  224.9160 C   0  0  0  0  0  0  0  0  0  0  0  0
  139.1980   67.6390  224.9700 O   0  0  0  0  0  0  0  0  0  0  0  0
  139.6590   69.6830  226.0660 N   0  0  0  0  0  0  0  0  0  0  0  0
  139.8990   71.1280  226.1390 C   0  0  0  0  0  0  0  0  0  0  0  0
  141.0640   71.1890  227.1160 C   0  0  0  0  0  0  0  0  0  0  0  0
  141.1490   69.8410  227.7950 C   0  0  0  0  0  0  0  0  0  0  0  0
  139.7690   69.2480  227.4660 C   0  0  0  0  0  0  0  0  0  0  0  0
  139.7320   70.8250  223.3950 C   0  0  0  0  0  0  0  0  0  0  0  0
  139.3370   73.7310  222.3510 N   0  0  0  0  0  0  0  0  0  0  0  0
  139.6020   75.1150  222.2670 C   0  0  0  0  0  0  0  0  0  0  0  0
  138.7560   76.1000  222.7120 C   0  0  0  0  0  0  0  0  0  0  0  0
  139.0650   77.4590  222.6080 C   0  0  0  0  0  0  0  0  0  0  0  0
  140.2580   77.8380  222.0390 C   0  0  0  0  0  0  0  0  0  0  0  0
  140.6820   79.1720  221.8700 N   0  0  0  0  0  0  0  0  0  0  0  0
  141.2500   79.8760  220.7410 C   0  0  0  0  0  0  0  0  0  0  0  0
  142.1980   80.9050  221.3490 C   0  0  0  0  0  0  0  0  0  0  0  0
  141.9390   80.8500  222.8270 C   0  0  0  0  0  0  0  0  0  0  0  0
  140.5800   80.1920  222.9180 C   0  0  0  0  0  0  0  0  0  0  0  0
  141.1210   76.8310  221.5830 C   0  0  0  0  0  0  0  0  0  0  0  0
  140.7990   75.4950  221.6950 C   0  0  0  0  0  0  0  0  0  0  0  0
  141.4164   72.5874  220.2792 H   0  0  0  0  0  0  0  0  0  0  0  0
  142.2142   72.5195  221.8864 H   0  0  0  0  0  0  0  0  0  0  0  0
  139.1263   71.0990  220.0848 H   0  0  0  0  0  0  0  0  0  0  0  0
  138.3808   68.7710  220.4256 H   0  0  0  0  0  0  0  0  0  0  0  0
  138.5122   67.7599  222.7102 H   0  0  0  0  0  0  0  0  0  0  0  0
  140.1750   71.5403  225.1573 H   0  0  0  0  0  0  0  0  0  0  0  0
  139.0214   71.7149  226.4479 H   0  0  0  0  0  0  0  0  0  0  0  0
  141.9988   71.3982  226.5753 H   0  0  0  0  0  0  0  0  0  0  0  0
  140.9124   71.9896  227.8550 H   0  0  0  0  0  0  0  0  0  0  0  0
  141.9605   69.2291  227.3743 H   0  0  0  0  0  0  0  0  0  0  0  0
  141.3713   69.8927  228.8711 H   0  0  0  0  0  0  0  0  0  0  0  0
  139.7582   68.1520  227.5593 H   0  0  0  0  0  0  0  0  0  0  0  0
  138.9482   69.5658  228.1258 H   0  0  0  0  0  0  0  0  0  0  0  0
  140.1167   71.4144  224.2403 H   0  0  0  0  0  0  0  0  0  0  0  0
  137.7983   75.8086  223.1679 H   0  0  0  0  0  0  0  0  0  0  0  0
  138.3604   78.2184  222.9779 H   0  0  0  0  0  0  0  0  0  0  0  0
  141.8007   79.1810  220.0901 H   0  0  0  0  0  0  0  0  0  0  0  0
  140.4757   80.3472  220.1177 H   0  0  0  0  0  0  0  0  0  0  0  0
  143.2438   80.6434  221.1302 H   0  0  0  0  0  0  0  0  0  0  0  0
  142.0316   81.9119  220.9385 H   0  0  0  0  0  0  0  0  0  0  0  0
  142.7037   80.2473  223.3389 H   0  0  0  0  0  0  0  0  0  0  0  0
  141.9712   81.8394  223.3067 H   0  0  0  0  0  0  0  0  0  0  0  0
  140.4181   79.7381  223.9068 H   0  0  0  0  0  0  0  0  0  0  0  0
  139.7353   80.8850  222.7905 H   0  0  0  0  0  0  0  0  0  0  0  0
  142.0797   77.1143  221.1240 H   0  0  0  0  0  0  0  0  0  0  0  0
  1  2  2  0
  2  3  1  0
  3  4  1  0
  4  5  1  0
  5  6  2  0
  6  7  1  0
  7  8  2  0
  8  9  1  0
  9 10  1  0
 10 11  2  0
 10 12  1  0
 12 13  1  0
 13 14  1  0
 14 15  1  0
 15 16  1  0
  9 17  2  0
  4 18  2  0
 18 19  1  0
 19 20  2  0
 20 21  1  0
 21 22  2  0
 22 23  1  0
 23 24  1  0
 24 25  1  0
 25 26  1  0
 26 27  1  0
 22 28  1  0
 28 29  2  0
 29  2  1  0
 17  5  1  0
 29 19  1  0
 16 12  1  0
 27 23  1  0
  3 30  1  0
  3 31  1  0
  6 32  1  0
  7 33  1  0
  8 34  1  0
 13 35  1  0
 13 36  1  0
 14 37  1  0
 14 38  1  0
 15 39  1  0
 15 40  1  0
 16 41  1  0
 16 42  1  0
 17 43  1  0
 20 44  1  0
 21 45  1  0
 24 46  1  0
 24 47  1  0
 25 48  1  0
 25 49  1  0
 26 50  1  0
 26 51  1  0
 27 52  1  0
 27 53  1  0
 28 54  1  0
M  END
>  <smiles>  (19) 
O=C1CC(c2cccc(C(=O)N3CCCC3)c2)=Nc2ccc(N3CCCC3)cc21

>  <score_type>  (19) 
oracle

>  <origin>  (19) 
autodockgpu

>  <m_score__min__energy>  (19) 
-8.5

>  <m_primary>  (19) 
energy

>  <rmsd>  (19) 
6.244778130696007

>  <m_score__min__rmsd>  (19) 
6.244778130696007

>  <meeko>  (19) 
{"free_energy": -8.39, "intermolecular_energy": -9.29, "internal_energy": -0.63, "cluster_size": 46, "cluster_id": 1, "rank_in_cluster": 20}

>  <energy>  (19) 
-8.41

>  <cluster_rmsd>  (19) 
0.19

>  <cluster>  (19) 
1

$$$$

     RDKit          3D

 54 58  0  0  0  0  0  0  0  0999 V2000
  142.8350   74.9160  220.6170 O   0  0  0  0  0  0  0  0  0  0  0  0
  141.7450   74.5470  221.1550 C   0  0  0  0  0  0  0  0  0  0  0  0
  141.5000   73.0840  221.2400 C   0  0  0  0  0  0  0  0  0  0  0  0
  140.2200   72.8450  221.8950 C   0  0  0  0  0  0  0  0  0  0  0  0
  139.8000   71.4540  222.1180 C   0  0  0  0  0  0  0  0  0  0  0  0
  139.4270   70.6320  221.0590 C   0  0  0  0  0  0  0  0  0  0  0  0
  139.0470   69.3230  221.2510 C   0  0  0  0  0  0  0  0  0  0  0  0
  139.0370   68.8070  222.5490 C   0  0  0  0  0  0  0  0  0  0  0  0
  139.4070   69.6060  223.6370 C   0  0  0  0  0  0  0  0  0  0  0  0
  139.3820   69.0040  224.9470 C   0  0  0  0  0  0  0  0  0  0  0  0
  139.1220   67.7610  225.0360 O   0  0  0  0  0  0  0  0  0  0  0  0
  139.6460   69.8160  226.0800 N   0  0  0  0  0  0  0  0  0  0  0  0
  139.9570   71.2490  226.1150 C   0  0  0  0  0  0  0  0  0  0  0  0
  141.0860   71.2860  227.1350 C   0  0  0  0  0  0  0  0  0  0  0  0
  141.0750   69.9590  227.8620 C   0  0  0  0  0  0  0  0  0  0  0  0
  139.6790   69.4260  227.4980 C   0  0  0  0  0  0  0  0  0  0  0  0
  139.7740   70.8950  223.3940 C   0  0  0  0  0  0  0  0  0  0  0  0
  139.4060   73.7510  222.3310 N   0  0  0  0  0  0  0  0  0  0  0  0
  139.6350   75.1400  222.2410 C   0  0  0  0  0  0  0  0  0  0  0  0
  138.7730   76.1050  222.6980 C   0  0  0  0  0  0  0  0  0  0  0  0
  139.0460   77.4710  222.5870 C   0  0  0  0  0  0  0  0  0  0  0  0
  140.2190   77.8790  221.9980 C   0  0  0  0  0  0  0  0  0  0  0  0
  140.6070   79.2220  221.8210 N   0  0  0  0  0  0  0  0  0  0  0  0
  141.7380   79.8270  221.1500 C   0  0  0  0  0  0  0  0  0  0  0  0
  142.0480   81.0880  221.9520 C   0  0  0  0  0  0  0  0  0  0  0  0
  140.9120   81.2220  222.9240 C   0  0  0  0  0  0  0  0  0  0  0  0
  139.8280   80.3610  222.3150 C   0  0  0  0  0  0  0  0  0  0  0  0
  141.0990   76.8930  221.5300 C   0  0  0  0  0  0  0  0  0  0  0  0
  140.8130   75.5490  221.6480 C   0  0  0  0  0  0  0  0  0  0  0  0
  141.4795   72.6558  220.2270 H   0  0  0  0  0  0  0  0  0  0  0  0
  142.3045   72.6098  221.8213 H   0  0  0  0  0  0  0  0  0  0  0  0
  139.4361   71.0405  220.0377 H   0  0  0  0  0  0  0  0  0  0  0  0
  138.7561   68.6940  220.3968 H   0  0  0  0  0  0  0  0  0  0  0  0
  138.7355   67.7627  222.7177 H   0  0  0  0  0  0  0  0  0  0  0  0
  140.2908   71.6125  225.1319 H   0  0  0  0  0  0  0  0  0  0  0  0
  139.0996   71.8893  226.3696 H   0  0  0  0  0  0  0  0  0  0  0  0
  142.0502   71.4285  226.6251 H   0  0  0  0  0  0  0  0  0  0  0  0
  140.9484   72.1190  227.8401 H   0  0  0  0  0  0  0  0  0  0  0  0
  141.8688   69.2921  227.4944 H   0  0  0  0  0  0  0  0  0  0  0  0
  141.2589   70.0370  228.9437 H   0  0  0  0  0  0  0  0  0  0  0  0
  139.6070   68.3361  227.6277 H   0  0  0  0  0  0  0  0  0  0  0  0
  138.8514   69.8088  228.1132 H   0  0  0  0  0  0  0  0  0  0  0  0
  140.0642   71.5258  224.2472 H   0  0  0  0  0  0  0  0  0  0  0  0
  137.8304   75.7910  223.1701 H   0  0  0  0  0  0  0  0  0  0  0  0
  138.3287   78.2130  222.9676 H   0  0  0  0  0  0  0  0  0  0  0  0
  142.6005   79.1443  221.1551 H   0  0  0  0  0  0  0  0  0  0  0  0
  141.5196   80.0523  220.0957 H   0  0  0  0  0  0  0  0  0  0  0  0
  143.0032   80.9805  222.4868 H   0  0  0  0  0  0  0  0  0  0  0  0
  142.1451   81.9735  221.3067 H   0  0  0  0  0  0  0  0  0  0  0  0
  141.1986   80.8495  223.9185 H   0  0  0  0  0  0  0  0  0  0  0  0
  140.5976   82.2650  223.0768 H   0  0  0  0  0  0  0  0  0  0  0  0
  139.0915   80.0478  223.0696 H   0  0  0  0  0  0  0  0  0  0  0  0
  139.2325   80.8679  221.5415 H   0  0  0  0  0  0  0  0  0  0  0  0
  142.0430   77.1996  221.0559 H   0  0  0  0  0  0  0  0  0  0  0  0
  1  2  2  0
  2  3  1  0
  3  4  1  0
  4  5  1  0
  5  6  2  0
  6  7  1  0
  7  8  2  0
  8  9  1  0
  9 10  1  0
 10 11  2  0
 10 12  1  0
 12 13  1  0
 13 14  1  0
 14 15  1  0
 15 16  1  0
  9 17  2  0
  4 18  2  0
 18 19  1  0
 19 20  2  0
 20 21  1  0
 21 22  2  0
 22 23  1  0
 23 24  1  0
 24 25  1  0
 25 26  1  0
 26 27  1  0
 22 28  1  0
 28 29  2  0
 29  2  1  0
 17  5  1  0
 29 19  1  0
 16 12  1  0
 27 23  1  0
  3 30  1  0
  3 31  1  0
  6 32  1  0
  7 33  1  0
  8 34  1  0
 13 35  1  0
 13 36  1  0
 14 37  1  0
 14 38  1  0
 15 39  1  0
 15 40  1  0
 16 41  1  0
 16 42  1  0
 17 43  1  0
 20 44  1  0
 21 45  1  0
 24 46  1  0
 24 47  1  0
 25 48  1  0
 25 49  1  0
 26 50  1  0
 26 51  1  0
 27 52  1  0
 27 53  1  0
 28 54  1  0
M  END
>  <smiles>  (20) 
O=C1CC(c2cccc(C(=O)N3CCCC3)c2)=Nc2ccc(N3CCCC3)cc21

>  <score_type>  (20) 
oracle

>  <origin>  (20) 
autodockgpu

>  <m_score__min__energy>  (20) 
-8.5

>  <m_primary>  (20) 
energy

>  <rmsd>  (20) 
6.277126015014913

>  <m_score__min__rmsd>  (20) 
6.277126015014913

>  <meeko>  (20) 
{"free_energy": -8.48, "intermolecular_energy": -9.37, "internal_energy": -0.58, "cluster_size": 46, "cluster_id": 1, "rank_in_cluster": 10}

>  <energy>  (20) 
-8.39

>  <cluster_rmsd>  (20) 
0.21

>  <cluster>  (20) 
1

$$$$

     RDKit          3D

 54 58  0  0  0  0  0  0  0  0999 V2000
  146.0890   73.5060  219.3370 O   0  0  0  0  0  0  0  0  0  0  0  0
  144.8830   73.3250  219.6940 C   0  0  0  0  0  0  0  0  0  0  0  0
  144.1170   74.5290  220.1070 C   0  0  0  0  0  0  0  0  0  0  0  0
  142.7590   74.1410  220.4640 C   0  0  0  0  0  0  0  0  0  0  0  0
  141.8160   75.1930  220.8670 C   0  0  0  0  0  0  0  0  0  0  0  0
  140.6620   74.8960  221.5880 C   0  0  0  0  0  0  0  0  0  0  0  0
  139.7790   75.8730  221.9860 C   0  0  0  0  0  0  0  0  0  0  0  0
  140.0510   77.2030  221.6560 C   0  0  0  0  0  0  0  0  0  0  0  0
  141.2020   77.5380  220.9330 C   0  0  0  0  0  0  0  0  0  0  0  0
  141.4230   78.9320  220.6360 C   0  0  0  0  0  0  0  0  0  0  0  0
  141.1740   79.3460  219.4580 O   0  0  0  0  0  0  0  0  0  0  0  0
  141.9070   79.7830  221.6630 N   0  0  0  0  0  0  0  0  0  0  0  0
  142.2310   79.4350  223.0500 C   0  0  0  0  0  0  0  0  0  0  0  0
  141.6290   80.6130  223.8020 C   0  0  0  0  0  0  0  0  0  0  0  0
  141.3490   81.6970  222.7860 C   0  0  0  0  0  0  0  0  0  0  0  0
  142.2000   81.2230  221.5960 C   0  0  0  0  0  0  0  0  0  0  0  0
  142.0440   76.5330  220.5620 C   0  0  0  0  0  0  0  0  0  0  0  0
  142.2800   72.9400  220.4430 N   0  0  0  0  0  0  0  0  0  0  0  0
  143.0110   71.7950  220.0610 C   0  0  0  0  0  0  0  0  0  0  0  0
  142.5070   70.5180  220.0410 C   0  0  0  0  0  0  0  0  0  0  0  0
  143.2720   69.4150  219.6520 C   0  0  0  0  0  0  0  0  0  0  0  0
  144.5800   69.6000  219.2730 C   0  0  0  0  0  0  0  0  0  0  0  0
  145.4550   68.5730  218.8670 N   0  0  0  0  0  0  0  0  0  0  0  0
  146.2510   68.3890  217.6730 C   0  0  0  0  0  0  0  0  0  0  0  0
  146.2840   66.8800  217.4450 C   0  0  0  0  0  0  0  0  0  0  0  0
  145.6600   66.2860  218.6740 C   0  0  0  0  0  0  0  0  0  0  0  0
  145.7630   67.4000  219.6910 C   0  0  0  0  0  0  0  0  0  0  0  0
  145.0940   70.9050  219.2950 C   0  0  0  0  0  0  0  0  0  0  0  0
  144.3240   71.9820  219.6820 C   0  0  0  0  0  0  0  0  0  0  0  0
  144.6058   74.9946  220.9755 H   0  0  0  0  0  0  0  0  0  0  0  0
  144.0865   75.2478  219.2749 H   0  0  0  0  0  0  0  0  0  0  0  0
  140.4501   73.8482  221.8471 H   0  0  0  0  0  0  0  0  0  0  0  0
  138.8743   75.6115  222.5543 H   0  0  0  0  0  0  0  0  0  0  0  0
  139.3538   77.9948  221.9674 H   0  0  0  0  0  0  0  0  0  0  0  0
  141.7617   78.4855  223.3470 H   0  0  0  0  0  0  0  0  0  0  0  0
  143.3042   79.2824  223.2370 H   0  0  0  0  0  0  0  0  0  0  0  0
  140.6940   80.3075  224.2944 H   0  0  0  0  0  0  0  0  0  0  0  0
  142.3197   80.9746  224.5780 H   0  0  0  0  0  0  0  0  0  0  0  0
  140.2810   81.7387  222.5258 H   0  0  0  0  0  0  0  0  0  0  0  0
  141.5880   82.7127  223.1340 H   0  0  0  0  0  0  0  0  0  0  0  0
  141.8664   81.6681  220.6470 H   0  0  0  0  0  0  0  0  0  0  0  0
  143.2658   81.4915  221.6397 H   0  0  0  0  0  0  0  0  0  0  0  0
  142.9490   76.7928  219.9932 H   0  0  0  0  0  0  0  0  0  0  0  0
  141.4615   70.3570  220.3426 H   0  0  0  0  0  0  0  0  0  0  0  0
  142.8309   68.4073  219.6492 H   0  0  0  0  0  0  0  0  0  0  0  0
  145.7858   68.8988  216.8165 H   0  0  0  0  0  0  0  0  0  0  0  0
  147.2608   68.8113  217.7820 H   0  0  0  0  0  0  0  0  0  0  0  0
  145.7044   66.6119  216.5494 H   0  0  0  0  0  0  0  0  0  0  0  0
  147.3069   66.5098  217.2817 H   0  0  0  0  0  0  0  0  0  0  0  0
  144.6096   66.0157  218.4910 H   0  0  0  0  0  0  0  0  0  0  0  0
  146.1527   65.3584  219.0009 H   0  0  0  0  0  0  0  0  0  0  0  0
  145.0301   67.2739  220.5015 H   0  0  0  0  0  0  0  0  0  0  0  0
  146.7350   67.4529  220.2033 H   0  0  0  0  0  0  0  0  0  0  0  0
  146.1389   71.0740  218.9957 H   0  0  0  0  0  0  0  0  0  0  0  0
  1  2  2  0
  2  3  1  0
  3  4  1  0
  4  5  1  0
  5  6  2  0
  6  7  1  0
  7  8  2  0
  8  9  1  0
  9 10  1  0
 10 11  2  0
 10 12  1  0
 12 13  1  0
 13 14  1  0
 14 15  1  0
 15 16  1  0
  9 17  2  0
  4 18  2  0
 18 19  1  0
 19 20  2  0
 20 21  1  0
 21 22  2  0
 22 23  1  0
 23 24  1  0
 24 25  1  0
 25 26  1  0
 26 27  1  0
 22 28  1  0
 28 29  2  0
 29  2  1  0
 17  5  1  0
 29 19  1  0
 16 12  1  0
 27 23  1  0
  3 30  1  0
  3 31  1  0
  6 32  1  0
  7 33  1  0
  8 34  1  0
 13 35  1  0
 13 36  1  0
 14 37  1  0
 14 38  1  0
 15 39  1  0
 15 40  1  0
 16 41  1  0
 16 42  1  0
 17 43  1  0
 20 44  1  0
 21 45  1  0
 24 46  1  0
 24 47  1  0
 25 48  1  0
 25 49  1  0
 26 50  1  0
 26 51  1  0
 27 52  1  0
 27 53  1  0
 28 54  1  0
M  END
>  <smiles>  (21) 
O=C1CC(c2cccc(C(=O)N3CCCC3)c2)=Nc2ccc(N3CCCC3)cc21

>  <score_type>  (21) 
oracle

>  <origin>  (21) 
autodockgpu

>  <m_score__min__energy>  (21) 
-8.5

>  <m_primary>  (21) 
energy

>  <rmsd>  (21) 
8.462188964258091

>  <m_score__min__rmsd>  (21) 
8.462188964258091

>  <meeko>  (21) 
{"free_energy": -7.72, "intermolecular_energy": -8.61, "internal_energy": -1.0, "cluster_size": 3, "cluster_id": 2, "rank_in_cluster": 3}

>  <energy>  (21) 
-8.39

>  <cluster_rmsd>  (21) 
0.48

>  <cluster>  (21) 
1

$$$$

     RDKit          3D

 54 58  0  0  0  0  0  0  0  0999 V2000
  142.8230   75.2780  220.4800 O   0  0  0  0  0  0  0  0  0  0  0  0
  141.7780   74.8480  221.0620 C   0  0  0  0  0  0  0  0  0  0  0  0
  141.6120   73.3740  221.1420 C   0  0  0  0  0  0  0  0  0  0  0  0
  140.3780   73.0640  221.8520 C   0  0  0  0  0  0  0  0  0  0  0  0
  140.0400   71.6510  222.0780 C   0  0  0  0  0  0  0  0  0  0  0  0
  139.9260   70.7550  221.0190 C   0  0  0  0  0  0  0  0  0  0  0  0
  139.6260   69.4270  221.2170 C   0  0  0  0  0  0  0  0  0  0  0  0
  139.4310   68.9670  222.5210 C   0  0  0  0  0  0  0  0  0  0  0  0
  139.5390   69.8400  223.6100 C   0  0  0  0  0  0  0  0  0  0  0  0
  139.3350   69.2940  224.9280 C   0  0  0  0  0  0  0  0  0  0  0  0
  138.8320   68.1270  225.0280 O   0  0  0  0  0  0  0  0  0  0  0  0
  139.6990   70.0720  226.0580 N   0  0  0  0  0  0  0  0  0  0  0  0
  140.2820   71.4170  226.0800 C   0  0  0  0  0  0  0  0  0  0  0  0
  141.3460   71.2640  227.1570 C   0  0  0  0  0  0  0  0  0  0  0  0
  141.0420   69.9870  227.9080 C   0  0  0  0  0  0  0  0  0  0  0  0
  139.5880   69.7250  227.4820 C   0  0  0  0  0  0  0  0  0  0  0  0
  139.8370   71.1460  223.3600 C   0  0  0  0  0  0  0  0  0  0  0  0
  139.5400   73.9230  222.3340 N   0  0  0  0  0  0  0  0  0  0  0  0
  139.6930   75.3230  222.2480 C   0  0  0  0  0  0  0  0  0  0  0  0
  138.8040   76.2380  222.7550 C   0  0  0  0  0  0  0  0  0  0  0  0
  139.0020   77.6170  222.6460 C   0  0  0  0  0  0  0  0  0  0  0  0
  140.1250   78.0900  222.0100 C   0  0  0  0  0  0  0  0  0  0  0  0
  140.4350   79.4530  221.8300 N   0  0  0  0  0  0  0  0  0  0  0  0
  141.0350   80.1760  220.7300 C   0  0  0  0  0  0  0  0  0  0  0  0
  141.8230   81.3090  221.3810 C   0  0  0  0  0  0  0  0  0  0  0  0
  141.4360   81.2710  222.8300 C   0  0  0  0  0  0  0  0  0  0  0  0
  140.1420   80.4880  222.8260 C   0  0  0  0  0  0  0  0  0  0  0  0
  141.0320   77.1540  221.4920 C   0  0  0  0  0  0  0  0  0  0  0  0
  140.8200   75.7960  221.6080 C   0  0  0  0  0  0  0  0  0  0  0  0
  141.5665   72.9541  220.1263 H   0  0  0  0  0  0  0  0  0  0  0  0
  142.4657   72.9367  221.6805 H   0  0  0  0  0  0  0  0  0  0  0  0
  140.0804   71.1197  219.9928 H   0  0  0  0  0  0  0  0  0  0  0  0
  139.5412   68.7393  220.3627 H   0  0  0  0  0  0  0  0  0  0  0  0
  139.1900   67.9078  222.6943 H   0  0  0  0  0  0  0  0  0  0  0  0
  140.7271   71.6788  225.1087 H   0  0  0  0  0  0  0  0  0  0  0  0
  139.5555   72.2194  226.2757 H   0  0  0  0  0  0  0  0  0  0  0  0
  142.3427   71.2018  226.6959 H   0  0  0  0  0  0  0  0  0  0  0  0
  141.3396   72.1281  227.8376 H   0  0  0  0  0  0  0  0  0  0  0  0
  141.7068   69.1682  227.5955 H   0  0  0  0  0  0  0  0  0  0  0  0
  141.1863   70.0594  228.9961 H   0  0  0  0  0  0  0  0  0  0  0  0
  139.2982   68.6741  227.6290 H   0  0  0  0  0  0  0  0  0  0  0  0
  138.8230   70.2792  228.0455 H   0  0  0  0  0  0  0  0  0  0  0  0
  139.9214   71.8355  224.2129 H   0  0  0  0  0  0  0  0  0  0  0  0
  137.9016   75.8718  223.2664 H   0  0  0  0  0  0  0  0  0  0  0  0
  138.2654   78.3180  223.0656 H   0  0  0  0  0  0  0  0  0  0  0  0
  141.7056   79.5193  220.1564 H   0  0  0  0  0  0  0  0  0  0  0  0
  140.2802   80.5520  220.0237 H   0  0  0  0  0  0  0  0  0  0  0  0
  142.9043   81.1436  221.2655 H   0  0  0  0  0  0  0  0  0  0  0  0
  141.6016   82.2831  220.9204 H   0  0  0  0  0  0  0  0  0  0  0  0
  142.2037   80.7597  223.4293 H   0  0  0  0  0  0  0  0  0  0  0  0
  141.3310   82.2723  223.2732 H   0  0  0  0  0  0  0  0  0  0  0  0
  139.9338   80.0494  223.8131 H   0  0  0  0  0  0  0  0  0  0  0  0
  139.2510   81.0919  222.5991 H   0  0  0  0  0  0  0  0  0  0  0  0
  141.9368   77.5125  220.9794 H   0  0  0  0  0  0  0  0  0  0  0  0
  1  2  2  0
  2  3  1  0
  3  4  1  0
  4  5  1  0
  5  6  2  0
  6  7  1  0
  7  8  2  0
  8  9  1  0
  9 10  1  0
 10 11  2  0
 10 12  1  0
 12 13  1  0
 13 14  1  0
 14 15  1  0
 15 16  1  0
  9 17  2  0
  4 18  2  0
 18 19  1  0
 19 20  2  0
 20 21  1  0
 21 22  2  0
 22 23  1  0
 23 24  1  0
 24 25  1  0
 25 26  1  0
 26 27  1  0
 22 28  1  0
 28 29  2  0
 29  2  1  0
 17  5  1  0
 29 19  1  0
 16 12  1  0
 27 23  1  0
  3 30  1  0
  3 31  1  0
  6 32  1  0
  7 33  1  0
  8 34  1  0
 13 35  1  0
 13 36  1  0
 14 37  1  0
 14 38  1  0
 15 39  1  0
 15 40  1  0
 16 41  1  0
 16 42  1  0
 17 43  1  0
 20 44  1  0
 21 45  1  0
 24 46  1  0
 24 47  1  0
 25 48  1  0
 25 49  1  0
 26 50  1  0
 26 51  1  0
 27 52  1  0
 27 53  1  0
 28 54  1  0
M  END
>  <smiles>  (22) 
O=C1CC(c2cccc(C(=O)N3CCCC3)c2)=Nc2ccc(N3CCCC3)cc21

>  <score_type>  (22) 
oracle

>  <origin>  (22) 
autodockgpu

>  <m_score__min__energy>  (22) 
-8.5

>  <m_primary>  (22) 
energy

>  <rmsd>  (22) 
6.406931973938541

>  <m_score__min__rmsd>  (22) 
6.406931973938541

>  <meeko>  (22) 
{"free_energy": -8.33, "intermolecular_energy": -9.23, "internal_energy": -0.62, "cluster_size": 46, "cluster_id": 1, "rank_in_cluster": 27}

>  <energy>  (22) 
-8.38

>  <cluster_rmsd>  (22) 
0.35

>  <cluster>  (22) 
1

$$$$

     RDKit          3D

 54 58  0  0  0  0  0  0  0  0999 V2000
  142.8370   75.2050  220.5500 O   0  0  0  0  0  0  0  0  0  0  0  0
  141.7750   74.7910  221.1140 C   0  0  0  0  0  0  0  0  0  0  0  0
  141.5880   73.3190  221.1950 C   0  0  0  0  0  0  0  0  0  0  0  0
  140.3360   73.0280  221.8820 C   0  0  0  0  0  0  0  0  0  0  0  0
  139.9750   71.6210  222.1060 C   0  0  0  0  0  0  0  0  0  0  0  0
  139.8100   70.7370  221.0430 C   0  0  0  0  0  0  0  0  0  0  0  0
  139.4880   69.4140  221.2390 C   0  0  0  0  0  0  0  0  0  0  0  0
  139.3230   68.9460  222.5450 C   0  0  0  0  0  0  0  0  0  0  0  0
  139.4830   69.8070  223.6370 C   0  0  0  0  0  0  0  0  0  0  0  0
  139.3070   69.2520  224.9560 C   0  0  0  0  0  0  0  0  0  0  0  0
  138.8250   68.0780  225.0590 O   0  0  0  0  0  0  0  0  0  0  0  0
  139.6750   70.0320  226.0830 N   0  0  0  0  0  0  0  0  0  0  0  0
  140.2370   71.3860  226.1020 C   0  0  0  0  0  0  0  0  0  0  0  0
  141.3190   71.2470  227.1620 C   0  0  0  0  0  0  0  0  0  0  0  0
  141.0470   69.9620  227.9120 C   0  0  0  0  0  0  0  0  0  0  0  0
  139.5910   69.6780  227.5080 C   0  0  0  0  0  0  0  0  0  0  0  0
  139.8000   71.1080  223.3890 C   0  0  0  0  0  0  0  0  0  0  0  0
  139.5000   73.8990  222.3450 N   0  0  0  0  0  0  0  0  0  0  0  0
  139.6730   75.2970  222.2570 C   0  0  0  0  0  0  0  0  0  0  0  0
  138.7870   76.2260  222.7440 C   0  0  0  0  0  0  0  0  0  0  0  0
  139.0050   77.6020  222.6340 C   0  0  0  0  0  0  0  0  0  0  0  0
  140.1460   78.0570  222.0190 C   0  0  0  0  0  0  0  0  0  0  0  0
  140.4780   79.4160  221.8400 N   0  0  0  0  0  0  0  0  0  0  0  0
  140.7740   80.1960  220.6590 C   0  0  0  0  0  0  0  0  0  0  0  0
  141.7910   81.2390  221.1150 C   0  0  0  0  0  0  0  0  0  0  0  0
  141.8450   81.1040  222.6090 C   0  0  0  0  0  0  0  0  0  0  0  0
  140.5590   80.3800  222.9410 C   0  0  0  0  0  0  0  0  0  0  0  0
  141.0510   77.1080  221.5210 C   0  0  0  0  0  0  0  0  0  0  0  0
  140.8190   75.7540  221.6380 C   0  0  0  0  0  0  0  0  0  0  0  0
  141.5566   72.8965  220.1799 H   0  0  0  0  0  0  0  0  0  0  0  0
  142.4252   72.8719  221.7511 H   0  0  0  0  0  0  0  0  0  0  0  0
  139.9410   71.1076  220.0156 H   0  0  0  0  0  0  0  0  0  0  0  0
  139.3626   68.7360  220.3819 H   0  0  0  0  0  0  0  0  0  0  0  0
  139.0648   67.8906  222.7168 H   0  0  0  0  0  0  0  0  0  0  0  0
  140.6633   71.6584  225.1252 H   0  0  0  0  0  0  0  0  0  0  0  0
  139.5005   72.1756  226.3120 H   0  0  0  0  0  0  0  0  0  0  0  0
  142.3097   71.2032  226.6860 H   0  0  0  0  0  0  0  0  0  0  0  0
  141.3088   72.1084  227.8461 H   0  0  0  0  0  0  0  0  0  0  0  0
  141.7199   69.1554  227.5856 H   0  0  0  0  0  0  0  0  0  0  0  0
  141.2070   70.0324  228.9980 H   0  0  0  0  0  0  0  0  0  0  0  0
  139.3204   68.6221  227.6555 H   0  0  0  0  0  0  0  0  0  0  0  0
  138.8258   70.2175  228.0854 H   0  0  0  0  0  0  0  0  0  0  0  0
  139.9241   71.7878  224.2449 H   0  0  0  0  0  0  0  0  0  0  0  0
  137.8704   75.8737  223.2398 H   0  0  0  0  0  0  0  0  0  0  0  0
  138.2696   78.3143  223.0362 H   0  0  0  0  0  0  0  0  0  0  0  0
  141.2021   79.5577  219.8720 H   0  0  0  0  0  0  0  0  0  0  0  0
  139.8712   80.6592  220.2344 H   0  0  0  0  0  0  0  0  0  0  0  0
  142.7775   81.0358  220.6728 H   0  0  0  0  0  0  0  0  0  0  0  0
  141.5083   82.2551  220.8025 H   0  0  0  0  0  0  0  0  0  0  0  0
  142.7203   80.5147  222.9198 H   0  0  0  0  0  0  0  0  0  0  0  0
  141.9396   82.0709  223.1249 H   0  0  0  0  0  0  0  0  0  0  0  0
  140.6223   79.8736  223.9154 H   0  0  0  0  0  0  0  0  0  0  0  0
  139.6819   81.0380  223.0283 H   0  0  0  0  0  0  0  0  0  0  0  0
  141.9697   77.4531  221.0242 H   0  0  0  0  0  0  0  0  0  0  0  0
  1  2  2  0
  2  3  1  0
  3  4  1  0
  4  5  1  0
  5  6  2  0
  6  7  1  0
  7  8  2  0
  8  9  1  0
  9 10  1  0
 10 11  2  0
 10 12  1  0
 12 13  1  0
 13 14  1  0
 14 15  1  0
 15 16  1  0
  9 17  2  0
  4 18  2  0
 18 19  1  0
 19 20  2  0
 20 21  1  0
 21 22  2  0
 22 23  1  0
 23 24  1  0
 24 25  1  0
 25 26  1  0
 26 27  1  0
 22 28  1  0
 28 29  2  0
 29  2  1  0
 17  5  1  0
 29 19  1  0
 16 12  1  0
 27 23  1  0
  3 30  1  0
  3 31  1  0
  6 32  1  0
  7 33  1  0
  8 34  1  0
 13 35  1  0
 13 36  1  0
 14 37  1  0
 14 38  1  0
 15 39  1  0
 15 40  1  0
 16 41  1  0
 16 42  1  0
 17 43  1  0
 20 44  1  0
 21 45  1  0
 24 46  1  0
 24 47  1  0
 25 48  1  0
 25 49  1  0
 26 50  1  0
 26 51  1  0
 27 52  1  0
 27 53  1  0
 28 54  1  0
M  END
>  <smiles>  (23) 
O=C1CC(c2cccc(C(=O)N3CCCC3)c2)=Nc2ccc(N3CCCC3)cc21

>  <score_type>  (23) 
oracle

>  <origin>  (23) 
autodockgpu

>  <m_score__min__energy>  (23) 
-8.5

>  <m_primary>  (23) 
energy

>  <rmsd>  (23) 
6.378434781894751

>  <m_score__min__rmsd>  (23) 
6.378434781894751

>  <meeko>  (23) 
{"free_energy": -8.37, "intermolecular_energy": -9.26, "internal_energy": -0.6, "cluster_size": 46, "cluster_id": 1, "rank_in_cluster": 24}

>  <energy>  (23) 
-8.38

>  <cluster_rmsd>  (23) 
0.35

>  <cluster>  (23) 
1

$$$$

     RDKit          3D

 54 58  0  0  0  0  0  0  0  0999 V2000
  142.8040   74.8100  220.6980 O   0  0  0  0  0  0  0  0  0  0  0  0
  141.6950   74.4660  221.2150 C   0  0  0  0  0  0  0  0  0  0  0  0
  141.4140   73.0100  221.2950 C   0  0  0  0  0  0  0  0  0  0  0  0
  140.1180   72.8010  221.9270 C   0  0  0  0  0  0  0  0  0  0  0  0
  139.6600   71.4210  222.1400 C   0  0  0  0  0  0  0  0  0  0  0  0
  139.1700   70.6490  221.0910 C   0  0  0  0  0  0  0  0  0  0  0  0
  138.7540   69.3500  221.2730 C   0  0  0  0  0  0  0  0  0  0  0  0
  138.8270   68.7920  222.5520 C   0  0  0  0  0  0  0  0  0  0  0  0
  139.3150   69.5400  223.6300 C   0  0  0  0  0  0  0  0  0  0  0  0
  139.3710   68.8950  224.9190 C   0  0  0  0  0  0  0  0  0  0  0  0
  139.1820   67.6370  224.9740 O   0  0  0  0  0  0  0  0  0  0  0  0
  139.6330   69.6840  226.0690 N   0  0  0  0  0  0  0  0  0  0  0  0
  139.8680   71.1290  226.1410 C   0  0  0  0  0  0  0  0  0  0  0  0
  141.0300   71.1950  227.1220 C   0  0  0  0  0  0  0  0  0  0  0  0
  141.1170   69.8480  227.8030 C   0  0  0  0  0  0  0  0  0  0  0  0
  139.7390   69.2510  227.4700 C   0  0  0  0  0  0  0  0  0  0  0  0
  139.7140   70.8210  223.3960 C   0  0  0  0  0  0  0  0  0  0  0  0
  139.3170   73.7260  222.3480 N   0  0  0  0  0  0  0  0  0  0  0  0
  139.5810   75.1100  222.2620 C   0  0  0  0  0  0  0  0  0  0  0  0
  138.7330   76.0950  222.7050 C   0  0  0  0  0  0  0  0  0  0  0  0
  139.0410   77.4540  222.5990 C   0  0  0  0  0  0  0  0  0  0  0  0
  140.2340   77.8340  222.0330 C   0  0  0  0  0  0  0  0  0  0  0  0
  140.6570   79.1680  221.8630 N   0  0  0  0  0  0  0  0  0  0  0  0
  141.1100   79.9030  220.7030 C   0  0  0  0  0  0  0  0  0  0  0  0
  142.1340   80.9000  221.2390 C   0  0  0  0  0  0  0  0  0  0  0  0
  142.0340   80.7970  222.7330 C   0  0  0  0  0  0  0  0  0  0  0  0
  140.6840   80.1520  222.9490 C   0  0  0  0  0  0  0  0  0  0  0  0
  141.0990   76.8270  221.5800 C   0  0  0  0  0  0  0  0  0  0  0  0
  140.7780   75.4900  221.6930 C   0  0  0  0  0  0  0  0  0  0  0  0
  141.4012   72.5825  220.2815 H   0  0  0  0  0  0  0  0  0  0  0  0
  142.1967   72.5170  221.8903 H   0  0  0  0  0  0  0  0  0  0  0  0
  139.1135   71.0908  220.0852 H   0  0  0  0  0  0  0  0  0  0  0  0
  138.3707   68.7612  220.4265 H   0  0  0  0  0  0  0  0  0  0  0  0
  138.4978   67.7549  222.7134 H   0  0  0  0  0  0  0  0  0  0  0  0
  140.1459   71.5410  225.1596 H   0  0  0  0  0  0  0  0  0  0  0  0
  138.9875   71.7134  226.4464 H   0  0  0  0  0  0  0  0  0  0  0  0
  141.9659   71.4065  226.5840 H   0  0  0  0  0  0  0  0  0  0  0  0
  140.8735   71.9961  227.8594 H   0  0  0  0  0  0  0  0  0  0  0  0
  141.9315   69.2378  227.3856 H   0  0  0  0  0  0  0  0  0  0  0  0
  141.3361   69.9014  228.8796 H   0  0  0  0  0  0  0  0  0  0  0  0
  139.7305   68.1551  227.5647 H   0  0  0  0  0  0  0  0  0  0  0  0
  138.9152   69.5676  228.1266 H   0  0  0  0  0  0  0  0  0  0  0  0
  140.0981   71.4113  224.2410 H   0  0  0  0  0  0  0  0  0  0  0  0
  137.7752   75.8034  223.1605 H   0  0  0  0  0  0  0  0  0  0  0  0
  138.3343   78.2131  222.9656 H   0  0  0  0  0  0  0  0  0  0  0  0
  141.5767   79.2244  219.9739 H   0  0  0  0  0  0  0  0  0  0  0  0
  140.2804   80.4039  220.1826 H   0  0  0  0  0  0  0  0  0  0  0  0
  143.1462   80.6339  220.9003 H   0  0  0  0  0  0  0  0  0  0  0  0
  141.9402   81.9223  220.8822 H   0  0  0  0  0  0  0  0  0  0  0  0
  142.8402   80.1685  223.1393 H   0  0  0  0  0  0  0  0  0  0  0  0
  142.1318   81.7691  223.2384 H   0  0  0  0  0  0  0  0  0  0  0  0
  140.6232   79.6660  223.9340 H   0  0  0  0  0  0  0  0  0  0  0  0
  139.8409   80.8584  222.9371 H   0  0  0  0  0  0  0  0  0  0  0  0
  142.0584   77.1107  221.1227 H   0  0  0  0  0  0  0  0  0  0  0  0
  1  2  2  0
  2  3  1  0
  3  4  1  0
  4  5  1  0
  5  6  2  0
  6  7  1  0
  7  8  2  0
  8  9  1  0
  9 10  1  0
 10 11  2  0
 10 12  1  0
 12 13  1  0
 13 14  1  0
 14 15  1  0
 15 16  1  0
  9 17  2  0
  4 18  2  0
 18 19  1  0
 19 20  2  0
 20 21  1  0
 21 22  2  0
 22 23  1  0
 23 24  1  0
 24 25  1  0
 25 26  1  0
 26 27  1  0
 22 28  1  0
 28 29  2  0
 29  2  1  0
 17  5  1  0
 29 19  1  0
 16 12  1  0
 27 23  1  0
  3 30  1  0
  3 31  1  0
  6 32  1  0
  7 33  1  0
  8 34  1  0
 13 35  1  0
 13 36  1  0
 14 37  1  0
 14 38  1  0
 15 39  1  0
 15 40  1  0
 16 41  1  0
 16 42  1  0
 17 43  1  0
 20 44  1  0
 21 45  1  0
 24 46  1  0
 24 47  1  0
 25 48  1  0
 25 49  1  0
 26 50  1  0
 26 51  1  0
 27 52  1  0
 27 53  1  0
 28 54  1  0
M  END
>  <smiles>  (24) 
O=C1CC(c2cccc(C(=O)N3CCCC3)c2)=Nc2ccc(N3CCCC3)cc21

>  <score_type>  (24) 
oracle

>  <origin>  (24) 
autodockgpu

>  <m_score__min__energy>  (24) 
-8.5

>  <m_primary>  (24) 
energy

>  <rmsd>  (24) 
6.240375450543026

>  <m_score__min__rmsd>  (24) 
6.240375450543026

>  <meeko>  (24) 
{"free_energy": -8.36, "intermolecular_energy": -9.25, "internal_energy": -0.63, "cluster_size": 46, "cluster_id": 1, "rank_in_cluster": 25}

>  <energy>  (24) 
-8.37

>  <cluster_rmsd>  (24) 
0.33

>  <cluster>  (24) 
1

$$$$

     RDKit          3D

 54 58  0  0  0  0  0  0  0  0999 V2000
  142.8520   75.2380  220.4680 O   0  0  0  0  0  0  0  0  0  0  0  0
  141.8030   74.8200  221.0510 C   0  0  0  0  0  0  0  0  0  0  0  0
  141.6210   73.3480  221.1330 C   0  0  0  0  0  0  0  0  0  0  0  0
  140.3840   73.0530  221.8430 C   0  0  0  0  0  0  0  0  0  0  0  0
  140.0300   71.6440  222.0710 C   0  0  0  0  0  0  0  0  0  0  0  0
  139.8960   70.7500  221.0130 C   0  0  0  0  0  0  0  0  0  0  0  0
  139.5820   69.4260  221.2130 C   0  0  0  0  0  0  0  0  0  0  0  0
  139.3920   68.9670  222.5190 C   0  0  0  0  0  0  0  0  0  0  0  0
  139.5200   69.8390  223.6070 C   0  0  0  0  0  0  0  0  0  0  0  0
  139.3200   69.2940  224.9270 C   0  0  0  0  0  0  0  0  0  0  0  0
  138.8200   68.1260  225.0290 O   0  0  0  0  0  0  0  0  0  0  0  0
  139.6840   70.0750  226.0540 N   0  0  0  0  0  0  0  0  0  0  0  0
  140.2640   71.4210  226.0730 C   0  0  0  0  0  0  0  0  0  0  0  0
  141.3310   71.2730  227.1470 C   0  0  0  0  0  0  0  0  0  0  0  0
  141.0310   69.9960  227.9010 C   0  0  0  0  0  0  0  0  0  0  0  0
  139.5770   69.7300  227.4790 C   0  0  0  0  0  0  0  0  0  0  0  0
  139.8310   71.1410  223.3550 C   0  0  0  0  0  0  0  0  0  0  0  0
  139.5540   73.9210  222.3240 N   0  0  0  0  0  0  0  0  0  0  0  0
  139.7230   75.3190  222.2360 C   0  0  0  0  0  0  0  0  0  0  0  0
  138.8440   76.2450  222.7420 C   0  0  0  0  0  0  0  0  0  0  0  0
  139.0570   77.6220  222.6310 C   0  0  0  0  0  0  0  0  0  0  0  0
  140.1840   78.0810  221.9940 C   0  0  0  0  0  0  0  0  0  0  0  0
  140.5090   79.4410  221.8120 N   0  0  0  0  0  0  0  0  0  0  0  0
  140.8610   80.2060  220.6360 C   0  0  0  0  0  0  0  0  0  0  0  0
  141.8390   81.2690  221.1310 C   0  0  0  0  0  0  0  0  0  0  0  0
  141.8110   81.1580  222.6280 C   0  0  0  0  0  0  0  0  0  0  0  0
  140.5170   80.4230  222.9000 C   0  0  0  0  0  0  0  0  0  0  0  0
  141.0810   77.1350  221.4770 C   0  0  0  0  0  0  0  0  0  0  0  0
  140.8550   75.7800  221.5960 C   0  0  0  0  0  0  0  0  0  0  0  0
  141.5710   72.9271  220.1179 H   0  0  0  0  0  0  0  0  0  0  0  0
  142.4698   72.9020  221.6721 H   0  0  0  0  0  0  0  0  0  0  0  0
  140.0457   71.1133  219.9856 H   0  0  0  0  0  0  0  0  0  0  0  0
  139.4821   68.7398  220.3591 H   0  0  0  0  0  0  0  0  0  0  0  0
  139.1395   67.9108  222.6940 H   0  0  0  0  0  0  0  0  0  0  0  0
  140.7059   71.6824  225.1002 H   0  0  0  0  0  0  0  0  0  0  0  0
  139.5359   72.2216  226.2699 H   0  0  0  0  0  0  0  0  0  0  0  0
  142.3267   71.2122  226.6835 H   0  0  0  0  0  0  0  0  0  0  0  0
  141.3251   72.1385  227.8259 H   0  0  0  0  0  0  0  0  0  0  0  0
  141.6969   69.1781  227.5884 H   0  0  0  0  0  0  0  0  0  0  0  0
  141.1774   70.0707  228.9887 H   0  0  0  0  0  0  0  0  0  0  0  0
  139.2900   68.6787  227.6284 H   0  0  0  0  0  0  0  0  0  0  0  0
  138.8120   70.2833  228.0434 H   0  0  0  0  0  0  0  0  0  0  0  0
  139.9299   71.8293  224.2073 H   0  0  0  0  0  0  0  0  0  0  0  0
  137.9378   75.8895  223.2542 H   0  0  0  0  0  0  0  0  0  0  0  0
  138.3285   78.3317  223.0501 H   0  0  0  0  0  0  0  0  0  0  0  0
  141.3396   79.5608  219.8846 H   0  0  0  0  0  0  0  0  0  0  0  0
  139.9779   80.6509  220.1541 H   0  0  0  0  0  0  0  0  0  0  0  0
  142.8510   81.0713  220.7478 H   0  0  0  0  0  0  0  0  0  0  0  0
  141.5624   82.2765  220.7868 H   0  0  0  0  0  0  0  0  0  0  0  0
  142.6744   80.5847  222.9966 H   0  0  0  0  0  0  0  0  0  0  0  0
  141.8651   82.1340  223.1325 H   0  0  0  0  0  0  0  0  0  0  0  0
  140.5319   79.9327  223.8846 H   0  0  0  0  0  0  0  0  0  0  0  0
  139.6286   81.0711  222.9278 H   0  0  0  0  0  0  0  0  0  0  0  0
  141.9890   77.4832  220.9629 H   0  0  0  0  0  0  0  0  0  0  0  0
  1  2  2  0
  2  3  1  0
  3  4  1  0
  4  5  1  0
  5  6  2  0
  6  7  1  0
  7  8  2  0
  8  9  1  0
  9 10  1  0
 10 11  2  0
 10 12  1  0
 12 13  1  0
 13 14  1  0
 14 15  1  0
 15 16  1  0
  9 17  2  0
  4 18  2  0
 18 19  1  0
 19 20  2  0
 20 21  1  0
 21 22  2  0
 22 23  1  0
 23 24  1  0
 24 25  1  0
 25 26  1  0
 26 27  1  0
 22 28  1  0
 28 29  2  0
 29  2  1  0
 17  5  1  0
 29 19  1  0
 16 12  1  0
 27 23  1  0
  3 30  1  0
  3 31  1  0
  6 32  1  0
  7 33  1  0
  8 34  1  0
 13 35  1  0
 13 36  1  0
 14 37  1  0
 14 38  1  0
 15 39  1  0
 15 40  1  0
 16 41  1  0
 16 42  1  0
 17 43  1  0
 20 44  1  0
 21 45  1  0
 24 46  1  0
 24 47  1  0
 25 48  1  0
 25 49  1  0
 26 50  1  0
 26 51  1  0
 27 52  1  0
 27 53  1  0
 28 54  1  0
M  END
>  <smiles>  (25) 
O=C1CC(c2cccc(C(=O)N3CCCC3)c2)=Nc2ccc(N3CCCC3)cc21

>  <score_type>  (25) 
oracle

>  <origin>  (25) 
autodockgpu

>  <m_score__min__energy>  (25) 
-8.5

>  <m_primary>  (25) 
energy

>  <rmsd>  (25) 
6.401385867881897

>  <m_score__min__rmsd>  (25) 
6.401385867881897

>  <meeko>  (25) 
{"free_energy": -8.35, "intermolecular_energy": -9.25, "internal_energy": -0.62, "cluster_size": 46, "cluster_id": 1, "rank_in_cluster": 26}

>  <energy>  (25) 
-8.36

>  <cluster_rmsd>  (25) 
0.25

>  <cluster>  (25) 
1

$$$$

     RDKit          3D

 54 58  0  0  0  0  0  0  0  0999 V2000
  143.1760   75.4610  219.7600 O   0  0  0  0  0  0  0  0  0  0  0  0
  142.1940   75.1550  220.5050 C   0  0  0  0  0  0  0  0  0  0  0  0
  141.8730   73.7100  220.6330 C   0  0  0  0  0  0  0  0  0  0  0  0
  140.7380   73.5440  221.5330 C   0  0  0  0  0  0  0  0  0  0  0  0
  140.2780   72.1800  221.8310 C   0  0  0  0  0  0  0  0  0  0  0  0
  140.3690   71.1620  220.8860 C   0  0  0  0  0  0  0  0  0  0  0  0
  139.9580   69.8780  221.1570 C   0  0  0  0  0  0  0  0  0  0  0  0
  139.4340   69.5890  222.4190 C   0  0  0  0  0  0  0  0  0  0  0  0
  139.3290   70.5890  223.3930 C   0  0  0  0  0  0  0  0  0  0  0  0
  138.7870   70.2160  224.6770 C   0  0  0  0  0  0  0  0  0  0  0  0
  137.5210   70.1930  224.8150 O   0  0  0  0  0  0  0  0  0  0  0  0
  139.6810   69.8930  225.7310 N   0  0  0  0  0  0  0  0  0  0  0  0
  141.1470   69.8800  225.7030 C   0  0  0  0  0  0  0  0  0  0  0  0
  141.4500   68.5960  226.4590 C   0  0  0  0  0  0  0  0  0  0  0  0
  140.1790   68.1830  227.1680 C   0  0  0  0  0  0  0  0  0  0  0  0
  139.3630   69.4860  227.1070 C   0  0  0  0  0  0  0  0  0  0  0  0
  139.7490   71.8450  223.0750 C   0  0  0  0  0  0  0  0  0  0  0  0
  140.0920   74.4940  222.1270 N   0  0  0  0  0  0  0  0  0  0  0  0
  140.3910   75.8660  221.9970 C   0  0  0  0  0  0  0  0  0  0  0  0
  139.7060   76.8780  222.6230 C   0  0  0  0  0  0  0  0  0  0  0  0
  140.0430   78.2250  222.4630 C   0  0  0  0  0  0  0  0  0  0  0  0
  141.0980   78.5650  221.6520 C   0  0  0  0  0  0  0  0  0  0  0  0
  141.5320   79.8830  221.4040 N   0  0  0  0  0  0  0  0  0  0  0  0
  141.8470   80.9850  222.2870 C   0  0  0  0  0  0  0  0  0  0  0  0
  141.4470   82.2400  221.5160 C   0  0  0  0  0  0  0  0  0  0  0  0
  141.1180   81.7600  220.1330 C   0  0  0  0  0  0  0  0  0  0  0  0
  141.7950   80.4090  220.0610 C   0  0  0  0  0  0  0  0  0  0  0  0
  141.7970   77.5310  221.0110 C   0  0  0  0  0  0  0  0  0  0  0  0
  141.4500   76.2070  221.1810 C   0  0  0  0  0  0  0  0  0  0  0  0
  141.6197   73.3013  219.6437 H   0  0  0  0  0  0  0  0  0  0  0  0
  142.7444   73.1745  221.0378 H   0  0  0  0  0  0  0  0  0  0  0  0
  140.7821   71.3915  219.8927 H   0  0  0  0  0  0  0  0  0  0  0  0
  140.0405   69.0915  220.3924 H   0  0  0  0  0  0  0  0  0  0  0  0
  139.1008   68.5664  222.6497 H   0  0  0  0  0  0  0  0  0  0  0  0
  141.5294   69.8399  224.6724 H   0  0  0  0  0  0  0  0  0  0  0  0
  141.6131   70.7774  226.1359 H   0  0  0  0  0  0  0  0  0  0  0  0
  141.7619   67.8095  225.7560 H   0  0  0  0  0  0  0  0  0  0  0  0
  142.2662   68.7510  227.1799 H   0  0  0  0  0  0  0  0  0  0  0  0
  139.6703   67.3641  226.6383 H   0  0  0  0  0  0  0  0  0  0  0  0
  140.3360   67.7969  228.1860 H   0  0  0  0  0  0  0  0  0  0  0  0
  138.2868   69.3054  227.2453 H   0  0  0  0  0  0  0  0  0  0  0  0
  139.5969   70.2273  227.8853 H   0  0  0  0  0  0  0  0  0  0  0  0
  139.6663   72.6332  223.8379 H   0  0  0  0  0  0  0  0  0  0  0  0
  138.8593   76.6187  223.2756 H   0  0  0  0  0  0  0  0  0  0  0  0
  139.4682   79.0061  222.9822 H   0  0  0  0  0  0  0  0  0  0  0  0
  141.2728   80.9069  223.2220 H   0  0  0  0  0  0  0  0  0  0  0  0
  142.9102   80.9961  222.5688 H   0  0  0  0  0  0  0  0  0  0  0  0
  140.5694   82.7146  221.9792 H   0  0  0  0  0  0  0  0  0  0  0  0
  142.2480   82.9939  221.5113 H   0  0  0  0  0  0  0  0  0  0  0  0
  140.0306   81.6631  219.9982 H   0  0  0  0  0  0  0  0  0  0  0  0
  141.4546   82.4517  219.3467 H   0  0  0  0  0  0  0  0  0  0  0  0
  141.3441   79.7737  219.2844 H   0  0  0  0  0  0  0  0  0  0  0  0
  142.8617   80.4536  219.7959 H   0  0  0  0  0  0  0  0  0  0  0  0
  142.6439   77.7829  220.3558 H   0  0  0  0  0  0  0  0  0  0  0  0
  1  2  2  0
  2  3  1  0
  3  4  1  0
  4  5  1  0
  5  6  2  0
  6  7  1  0
  7  8  2  0
  8  9  1  0
  9 10  1  0
 10 11  2  0
 10 12  1  0
 12 13  1  0
 13 14  1  0
 14 15  1  0
 15 16  1  0
  9 17  2  0
  4 18  2  0
 18 19  1  0
 19 20  2  0
 20 21  1  0
 21 22  2  0
 22 23  1  0
 23 24  1  0
 24 25  1  0
 25 26  1  0
 26 27  1  0
 22 28  1  0
 28 29  2  0
 29  2  1  0
 17  5  1  0
 29 19  1  0
 16 12  1  0
 27 23  1  0
  3 30  1  0
  3 31  1  0
  6 32  1  0
  7 33  1  0
  8 34  1  0
 13 35  1  0
 13 36  1  0
 14 37  1  0
 14 38  1  0
 15 39  1  0
 15 40  1  0
 16 41  1  0
 16 42  1  0
 17 43  1  0
 20 44  1  0
 21 45  1  0
 24 46  1  0
 24 47  1  0
 25 48  1  0
 25 49  1  0
 26 50  1  0
 26 51  1  0
 27 52  1  0
 27 53  1  0
 28 54  1  0
M  END
>  <smiles>  (26) 
O=C1CC(c2cccc(C(=O)N3CCCC3)c2)=Nc2ccc(N3CCCC3)cc21

>  <score_type>  (26) 
oracle

>  <origin>  (26) 
autodockgpu

>  <m_score__min__energy>  (26) 
-8.5

>  <m_primary>  (26) 
energy

>  <rmsd>  (26) 
6.970372641053055

>  <m_score__min__rmsd>  (26) 
6.970372641053055

>  <meeko>  (26) 
{"free_energy": -7.86, "intermolecular_energy": -8.76, "internal_energy": -1.01, "cluster_size": 46, "cluster_id": 1, "rank_in_cluster": 31}

>  <energy>  (26) 
-8.35

>  <cluster_rmsd>  (26) 
0.35

>  <cluster>  (26) 
1

$$$$

     RDKit          3D

 54 58  0  0  0  0  0  0  0  0999 V2000
  143.1960   75.3060  219.8270 O   0  0  0  0  0  0  0  0  0  0  0  0
  142.1890   75.0120  220.5440 C   0  0  0  0  0  0  0  0  0  0  0  0
  141.8600   73.5700  220.6800 C   0  0  0  0  0  0  0  0  0  0  0  0
  140.6970   73.4180  221.5450 C   0  0  0  0  0  0  0  0  0  0  0  0
  140.2240   72.0590  221.8460 C   0  0  0  0  0  0  0  0  0  0  0  0
  140.2890   71.0430  220.8970 C   0  0  0  0  0  0  0  0  0  0  0  0
  139.8650   69.7630  221.1700 C   0  0  0  0  0  0  0  0  0  0  0  0
  139.3550   69.4770  222.4380 C   0  0  0  0  0  0  0  0  0  0  0  0
  139.2760   70.4750  223.4170 C   0  0  0  0  0  0  0  0  0  0  0  0
  138.7470   70.1060  224.7070 C   0  0  0  0  0  0  0  0  0  0  0  0
  137.4830   70.0610  224.8520 O   0  0  0  0  0  0  0  0  0  0  0  0
  139.6520   69.8080  225.7590 N   0  0  0  0  0  0  0  0  0  0  0  0
  141.1170   69.8210  225.7240 C   0  0  0  0  0  0  0  0  0  0  0  0
  141.4470   68.5490  226.4910 C   0  0  0  0  0  0  0  0  0  0  0  0
  140.1860   68.1220  227.2100 C   0  0  0  0  0  0  0  0  0  0  0  0
  139.3480   69.4090  227.1410 C   0  0  0  0  0  0  0  0  0  0  0  0
  139.7080   71.7260  223.0960 C   0  0  0  0  0  0  0  0  0  0  0  0
  140.0350   74.3770  222.1070 N   0  0  0  0  0  0  0  0  0  0  0  0
  140.3420   75.7470  221.9690 C   0  0  0  0  0  0  0  0  0  0  0  0
  139.6400   76.7680  222.5600 C   0  0  0  0  0  0  0  0  0  0  0  0
  139.9850   78.1120  222.3940 C   0  0  0  0  0  0  0  0  0  0  0  0
  141.0670   78.4390  221.6120 C   0  0  0  0  0  0  0  0  0  0  0  0
  141.5120   79.7520  221.3610 N   0  0  0  0  0  0  0  0  0  0  0  0
  141.8210   80.8580  222.2420 C   0  0  0  0  0  0  0  0  0  0  0  0
  141.4400   82.1100  221.4560 C   0  0  0  0  0  0  0  0  0  0  0  0
  141.1280   81.6230  220.0720 C   0  0  0  0  0  0  0  0  0  0  0  0
  141.7980   80.2680  220.0190 C   0  0  0  0  0  0  0  0  0  0  0  0
  141.7840   77.3960  221.0080 C   0  0  0  0  0  0  0  0  0  0  0  0
  141.4270   76.0750  221.1820 C   0  0  0  0  0  0  0  0  0  0  0  0
  141.6372   73.1494  219.6883 H   0  0  0  0  0  0  0  0  0  0  0  0
  142.7166   73.0377  221.1193 H   0  0  0  0  0  0  0  0  0  0  0  0
  140.6914   71.2702  219.8988 H   0  0  0  0  0  0  0  0  0  0  0  0
  139.9267   68.9778  220.4021 H   0  0  0  0  0  0  0  0  0  0  0  0
  139.0120   68.4579  222.6701 H   0  0  0  0  0  0  0  0  0  0  0  0
  141.4952   69.7781  224.6919 H   0  0  0  0  0  0  0  0  0  0  0  0
  141.5688   70.7307  226.1462 H   0  0  0  0  0  0  0  0  0  0  0  0
  141.7690   67.7612  225.7941 H   0  0  0  0  0  0  0  0  0  0  0  0
  142.2645   68.7243  227.2058 H   0  0  0  0  0  0  0  0  0  0  0  0
  139.6887   67.2896  226.6906 H   0  0  0  0  0  0  0  0  0  0  0  0
  140.3545   67.7489  228.2310 H   0  0  0  0  0  0  0  0  0  0  0  0
  138.2758   69.2113  227.2868 H   0  0  0  0  0  0  0  0  0  0  0  0
  139.5730   70.1617  227.9109 H   0  0  0  0  0  0  0  0  0  0  0  0
  139.6463   72.5128  223.8623 H   0  0  0  0  0  0  0  0  0  0  0  0
  138.7724   76.5186  223.1885 H   0  0  0  0  0  0  0  0  0  0  0  0
  139.3961   78.9009  222.8846 H   0  0  0  0  0  0  0  0  0  0  0  0
  141.2325   80.7897  223.1688 H   0  0  0  0  0  0  0  0  0  0  0  0
  142.8798   80.8645  222.5401 H   0  0  0  0  0  0  0  0  0  0  0  0
  140.5588   82.5933  221.9031 H   0  0  0  0  0  0  0  0  0  0  0  0
  142.2460   82.8586  221.4574 H   0  0  0  0  0  0  0  0  0  0  0  0
  140.0421   81.5315  219.9222 H   0  0  0  0  0  0  0  0  0  0  0  0
  141.4797   82.3075  219.2860 H   0  0  0  0  0  0  0  0  0  0  0  0
  141.3552   79.6303  219.2398 H   0  0  0  0  0  0  0  0  0  0  0  0
  142.8688   80.3049  219.7699 H   0  0  0  0  0  0  0  0  0  0  0  0
  142.6536   77.6376  220.3792 H   0  0  0  0  0  0  0  0  0  0  0  0
  1  2  2  0
  2  3  1  0
  3  4  1  0
  4  5  1  0
  5  6  2  0
  6  7  1  0
  7  8  2  0
  8  9  1  0
  9 10  1  0
 10 11  2  0
 10 12  1  0
 12 13  1  0
 13 14  1  0
 14 15  1  0
 15 16  1  0
  9 17  2  0
  4 18  2  0
 18 19  1  0
 19 20  2  0
 20 21  1  0
 21 22  2  0
 22 23  1  0
 23 24  1  0
 24 25  1  0
 25 26  1  0
 26 27  1  0
 22 28  1  0
 28 29  2  0
 29  2  1  0
 17  5  1  0
 29 19  1  0
 16 12  1  0
 27 23  1  0
  3 30  1  0
  3 31  1  0
  6 32  1  0
  7 33  1  0
  8 34  1  0
 13 35  1  0
 13 36  1  0
 14 37  1  0
 14 38  1  0
 15 39  1  0
 15 40  1  0
 16 41  1  0
 16 42  1  0
 17 43  1  0
 20 44  1  0
 21 45  1  0
 24 46  1  0
 24 47  1  0
 25 48  1  0
 25 49  1  0
 26 50  1  0
 26 51  1  0
 27 52  1  0
 27 53  1  0
 28 54  1  0
M  END
>  <smiles>  (27) 
O=C1CC(c2cccc(C(=O)N3CCCC3)c2)=Nc2ccc(N3CCCC3)cc21

>  <score_type>  (27) 
oracle

>  <origin>  (27) 
autodockgpu

>  <m_score__min__energy>  (27) 
-8.5

>  <m_primary>  (27) 
energy

>  <rmsd>  (27) 
6.913046368656191

>  <m_score__min__rmsd>  (27) 
6.913046368656191

>  <meeko>  (27) 
{"free_energy": -7.86, "intermolecular_energy": -8.75, "internal_energy": -1.01, "cluster_size": 46, "cluster_id": 1, "rank_in_cluster": 34}

>  <energy>  (27) 
-8.33

>  <cluster_rmsd>  (27) 
0.33

>  <cluster>  (27) 
1

$$$$

     RDKit          3D

 54 58  0  0  0  0  0  0  0  0999 V2000
  146.1000   73.4320  219.3550 O   0  0  0  0  0  0  0  0  0  0  0  0
  144.8870   73.2570  219.6900 C   0  0  0  0  0  0  0  0  0  0  0  0
  144.1250   74.4610  220.1100 C   0  0  0  0  0  0  0  0  0  0  0  0
  142.7590   74.0790  220.4400 C   0  0  0  0  0  0  0  0  0  0  0  0
  141.8180   75.1340  220.8450 C   0  0  0  0  0  0  0  0  0  0  0  0
  140.6690   74.8400  221.5720 C   0  0  0  0  0  0  0  0  0  0  0  0
  139.7890   75.8190  221.9720 C   0  0  0  0  0  0  0  0  0  0  0  0
  140.0600   77.1470  221.6370 C   0  0  0  0  0  0  0  0  0  0  0  0
  141.2070   77.4790  220.9070 C   0  0  0  0  0  0  0  0  0  0  0  0
  141.4280   78.8720  220.6050 C   0  0  0  0  0  0  0  0  0  0  0  0
  141.1820   79.2810  219.4240 O   0  0  0  0  0  0  0  0  0  0  0  0
  141.9070   79.7280  221.6300 N   0  0  0  0  0  0  0  0  0  0  0  0
  142.2260   79.3860  223.0200 C   0  0  0  0  0  0  0  0  0  0  0  0
  141.6210   80.5670  223.7650 C   0  0  0  0  0  0  0  0  0  0  0  0
  141.3430   81.6460  222.7430 C   0  0  0  0  0  0  0  0  0  0  0  0
  142.1990   81.1670  221.5580 C   0  0  0  0  0  0  0  0  0  0  0  0
  142.0460   76.4720  220.5340 C   0  0  0  0  0  0  0  0  0  0  0  0
  142.2690   72.8830  220.3910 N   0  0  0  0  0  0  0  0  0  0  0  0
  142.9960   71.7380  220.0020 C   0  0  0  0  0  0  0  0  0  0  0  0
  142.4820   70.4660  219.9530 C   0  0  0  0  0  0  0  0  0  0  0  0
  143.2430   69.3630  219.5580 C   0  0  0  0  0  0  0  0  0  0  0  0
  144.5580   69.5420  219.2030 C   0  0  0  0  0  0  0  0  0  0  0  0
  145.4300   68.5130  218.7940 N   0  0  0  0  0  0  0  0  0  0  0  0
  146.0250   68.1950  217.5150 C   0  0  0  0  0  0  0  0  0  0  0  0
  146.1370   66.6730  217.4960 C   0  0  0  0  0  0  0  0  0  0  0  0
  145.7790   66.2370  218.8870 C   0  0  0  0  0  0  0  0  0  0  0  0
  145.9640   67.4960  219.7050 C   0  0  0  0  0  0  0  0  0  0  0  0
  145.0830   70.8420  219.2540 C   0  0  0  0  0  0  0  0  0  0  0  0
  144.3170   71.9190  219.6470 C   0  0  0  0  0  0  0  0  0  0  0  0
  144.6042   74.9089  220.9931 H   0  0  0  0  0  0  0  0  0  0  0  0
  144.1133   75.1930  219.2890 H   0  0  0  0  0  0  0  0  0  0  0  0
  140.4576   73.7930  221.8350 H   0  0  0  0  0  0  0  0  0  0  0  0
  138.8872   75.5598  222.5460 H   0  0  0  0  0  0  0  0  0  0  0  0
  139.3651   77.9402  221.9499 H   0  0  0  0  0  0  0  0  0  0  0  0
  141.7558   78.4377  223.3193 H   0  0  0  0  0  0  0  0  0  0  0  0
  143.2986   79.2346  223.2115 H   0  0  0  0  0  0  0  0  0  0  0  0
  140.6849   80.2631  224.2562 H   0  0  0  0  0  0  0  0  0  0  0  0
  142.3092   80.9327  224.5413 H   0  0  0  0  0  0  0  0  0  0  0  0
  140.2759   81.6852  222.4790 H   0  0  0  0  0  0  0  0  0  0  0  0
  141.5794   82.6638  223.0870 H   0  0  0  0  0  0  0  0  0  0  0  0
  141.8687   81.6077  220.6058 H   0  0  0  0  0  0  0  0  0  0  0  0
  143.2645   81.4364  221.6048 H   0  0  0  0  0  0  0  0  0  0  0  0
  142.9478   76.7288  219.9589 H   0  0  0  0  0  0  0  0  0  0  0  0
  141.4305   70.3092  220.2356 H   0  0  0  0  0  0  0  0  0  0  0  0
  142.7930   68.3596  219.5315 H   0  0  0  0  0  0  0  0  0  0  0  0
  145.3836   68.5453  216.6929 H   0  0  0  0  0  0  0  0  0  0  0  0
  147.0025   68.6819  217.3827 H   0  0  0  0  0  0  0  0  0  0  0  0
  145.4368   66.2434  216.7644 H   0  0  0  0  0  0  0  0  0  0  0  0
  147.1434   66.3375  217.2052 H   0  0  0  0  0  0  0  0  0  0  0  0
  144.7376   65.8860  218.9341 H   0  0  0  0  0  0  0  0  0  0  0  0
  146.3917   65.3968  219.2457 H   0  0  0  0  0  0  0  0  0  0  0  0
  145.3904   67.4546  220.6427 H   0  0  0  0  0  0  0  0  0  0  0  0
  147.0011   67.6773  220.0236 H   0  0  0  0  0  0  0  0  0  0  0  0
  146.1337   71.0065  218.9730 H   0  0  0  0  0  0  0  0  0  0  0  0
  1  2  2  0
  2  3  1  0
  3  4  1  0
  4  5  1  0
  5  6  2  0
  6  7  1  0
  7  8  2  0
  8  9  1  0
  9 10  1  0
 10 11  2  0
 10 12  1  0
 12 13  1  0
 13 14  1  0
 14 15  1  0
 15 16  1  0
  9 17  2  0
  4 18  2  0
 18 19  1  0
 19 20  2  0
 20 21  1  0
 21 22  2  0
 22 23  1  0
 23 24  1  0
 24 25  1  0
 25 26  1  0
 26 27  1  0
 22 28  1  0
 28 29  2  0
 29  2  1  0
 17  5  1  0
 29 19  1  0
 16 12  1  0
 27 23  1  0
  3 30  1  0
  3 31  1  0
  6 32  1  0
  7 33  1  0
  8 34  1  0
 13 35  1  0
 13 36  1  0
 14 37  1  0
 14 38  1  0
 15 39  1  0
 15 40  1  0
 16 41  1  0
 16 42  1  0
 17 43  1  0
 20 44  1  0
 21 45  1  0
 24 46  1  0
 24 47  1  0
 25 48  1  0
 25 49  1  0
 26 50  1  0
 26 51  1  0
 27 52  1  0
 27 53  1  0
 28 54  1  0
M  END
>  <smiles>  (28) 
O=C1CC(c2cccc(C(=O)N3CCCC3)c2)=Nc2ccc(N3CCCC3)cc21

>  <score_type>  (28) 
oracle

>  <origin>  (28) 
autodockgpu

>  <m_score__min__energy>  (28) 
-8.5

>  <m_primary>  (28) 
energy

>  <rmsd>  (28) 
8.437100682101274

>  <m_score__min__rmsd>  (28) 
8.437100682101274

>  <meeko>  (28) 
{"free_energy": -7.79, "intermolecular_energy": -8.68, "internal_energy": -0.99, "cluster_size": 3, "cluster_id": 2, "rank_in_cluster": 1}

>  <energy>  (28) 
-8.26

>  <cluster_rmsd>  (28) 
0.58

>  <cluster>  (28) 
1

$$$$

     RDKit          3D

 54 58  0  0  0  0  0  0  0  0999 V2000
  142.8930   74.9490  220.5730 O   0  0  0  0  0  0  0  0  0  0  0  0
  141.8130   74.5630  221.1210 C   0  0  0  0  0  0  0  0  0  0  0  0
  141.5880   73.0970  221.2030 C   0  0  0  0  0  0  0  0  0  0  0  0
  140.3200   72.8380  221.8710 C   0  0  0  0  0  0  0  0  0  0  0  0
  139.9200   71.4410  222.0920 C   0  0  0  0  0  0  0  0  0  0  0  0
  139.6500   70.5870  221.0270 C   0  0  0  0  0  0  0  0  0  0  0  0
  139.2910   69.2730  221.2180 C   0  0  0  0  0  0  0  0  0  0  0  0
  139.1960   68.7830  222.5230 C   0  0  0  0  0  0  0  0  0  0  0  0
  139.4610   69.6140  223.6180 C   0  0  0  0  0  0  0  0  0  0  0  0
  139.3520   69.0380  224.9360 C   0  0  0  0  0  0  0  0  0  0  0  0
  138.9940   67.8200  225.0350 O   0  0  0  0  0  0  0  0  0  0  0  0
  139.6440   69.8470  226.0640 N   0  0  0  0  0  0  0  0  0  0  0  0
  140.0630   71.2520  226.0870 C   0  0  0  0  0  0  0  0  0  0  0  0
  141.1610   71.2200  227.1400 C   0  0  0  0  0  0  0  0  0  0  0  0
  141.0280   69.9110  227.8850 C   0  0  0  0  0  0  0  0  0  0  0  0
  139.6060   69.4800  227.4880 C   0  0  0  0  0  0  0  0  0  0  0  0
  139.8110   70.9080  223.3740 C   0  0  0  0  0  0  0  0  0  0  0  0
  139.4990   73.7310  222.3200 N   0  0  0  0  0  0  0  0  0  0  0  0
  139.7080   75.1240  222.2330 C   0  0  0  0  0  0  0  0  0  0  0  0
  138.8380   76.0760  222.7040 C   0  0  0  0  0  0  0  0  0  0  0  0
  139.0930   77.4450  222.5960 C   0  0  0  0  0  0  0  0  0  0  0  0
  140.2530   77.8710  221.9960 C   0  0  0  0  0  0  0  0  0  0  0  0
  140.6220   79.2200  221.8200 N   0  0  0  0  0  0  0  0  0  0  0  0
  140.6840   80.0650  220.6480 C   0  0  0  0  0  0  0  0  0  0  0  0
  141.8440   81.0220  220.9080 C   0  0  0  0  0  0  0  0  0  0  0  0
  142.2370   80.7800  222.3360 C   0  0  0  0  0  0  0  0  0  0  0  0
  141.0200   80.1010  222.9230 C   0  0  0  0  0  0  0  0  0  0  0  0
  141.1410   76.8990  221.5140 C   0  0  0  0  0  0  0  0  0  0  0  0
  140.8740   75.5500  221.6300 C   0  0  0  0  0  0  0  0  0  0  0  0
  141.5616   72.6726  220.1885 H   0  0  0  0  0  0  0  0  0  0  0  0
  142.4052   72.6315  221.7735 H   0  0  0  0  0  0  0  0  0  0  0  0
  139.7260   70.9748  220.0004 H   0  0  0  0  0  0  0  0  0  0  0  0
  139.0823   68.6193  220.3583 H   0  0  0  0  0  0  0  0  0  0  0  0
  138.9102   67.7342  222.6916 H   0  0  0  0  0  0  0  0  0  0  0  0
  140.4523   71.5719  225.1092 H   0  0  0  0  0  0  0  0  0  0  0  0
  139.2503   71.9603  226.3058 H   0  0  0  0  0  0  0  0  0  0  0  0
  142.1477   71.2805  226.6576 H   0  0  0  0  0  0  0  0  0  0  0  0
  141.0666   72.0726  227.8286 H   0  0  0  0  0  0  0  0  0  0  0  0
  141.7784   69.1795  227.5506 H   0  0  0  0  0  0  0  0  0  0  0  0
  141.1869   69.9928  228.9704 H   0  0  0  0  0  0  0  0  0  0  0  0
  139.4466   68.4012  227.6319 H   0  0  0  0  0  0  0  0  0  0  0  0
  138.7930   69.9353  228.0725 H   0  0  0  0  0  0  0  0  0  0  0  0
  140.0178   71.5643  224.2322 H   0  0  0  0  0  0  0  0  0  0  0  0
  137.9045   75.7481  223.1847 H   0  0  0  0  0  0  0  0  0  0  0  0
  138.3708   78.1761  222.9882 H   0  0  0  0  0  0  0  0  0  0  0  0
  140.8748   79.4628  219.7475 H   0  0  0  0  0  0  0  0  0  0  0  0
  139.7388   80.6006  220.4759 H   0  0  0  0  0  0  0  0  0  0  0  0
  142.6847   80.8023  220.2334 H   0  0  0  0  0  0  0  0  0  0  0  0
  141.5618   82.0702  220.7299 H   0  0  0  0  0  0  0  0  0  0  0  0
  143.1199   80.1266  222.3961 H   0  0  0  0  0  0  0  0  0  0  0  0
  142.5132   81.7023  222.8681 H   0  0  0  0  0  0  0  0  0  0  0  0
  141.2757   79.5261  223.8253 H   0  0  0  0  0  0  0  0  0  0  0  0
  140.2322   80.7946  223.2521 H   0  0  0  0  0  0  0  0  0  0  0  0
  142.0754   77.2202  221.0305 H   0  0  0  0  0  0  0  0  0  0  0  0
  1  2  2  0
  2  3  1  0
  3  4  1  0
  4  5  1  0
  5  6  2  0
  6  7  1  0
  7  8  2  0
  8  9  1  0
  9 10  1  0
 10 11  2  0
 10 12  1  0
 12 13  1  0
 13 14  1  0
 14 15  1  0
 15 16  1  0
  9 17  2  0
  4 18  2  0
 18 19  1  0
 19 20  2  0
 20 21  1  0
 21 22  2  0
 22 23  1  0
 23 24  1  0
 24 25  1  0
 25 26  1  0
 26 27  1  0
 22 28  1  0
 28 29  2  0
 29  2  1  0
 17  5  1  0
 29 19  1  0
 16 12  1  0
 27 23  1  0
  3 30  1  0
  3 31  1  0
  6 32  1  0
  7 33  1  0
  8 34  1  0
 13 35  1  0
 13 36  1  0
 14 37  1  0
 14 38  1  0
 15 39  1  0
 15 40  1  0
 16 41  1  0
 16 42  1  0
 17 43  1  0
 20 44  1  0
 21 45  1  0
 24 46  1  0
 24 47  1  0
 25 48  1  0
 25 49  1  0
 26 50  1  0
 26 51  1  0
 27 52  1  0
 27 53  1  0
 28 54  1  0
M  END
>  <smiles>  (29) 
O=C1CC(c2cccc(C(=O)N3CCCC3)c2)=Nc2ccc(N3CCCC3)cc21

>  <score_type>  (29) 
oracle

>  <origin>  (29) 
autodockgpu

>  <m_score__min__energy>  (29) 
-8.5

>  <m_primary>  (29) 
energy

>  <rmsd>  (29) 
6.292947221958455

>  <m_score__min__rmsd>  (29) 
6.292947221958455

>  <meeko>  (29) 
{"free_energy": -8.42, "intermolecular_energy": -9.31, "internal_energy": -0.58, "cluster_size": 46, "cluster_id": 1, "rank_in_cluster": 17}

>  <energy>  (29) 
-8.19

>  <cluster_rmsd>  (29) 
0.6

>  <cluster>  (29) 
1

$$$$

     RDKit          3D

 54 58  0  0  0  0  0  0  0  0999 V2000
  143.0420   73.7430  220.2660 O   0  0  0  0  0  0  0  0  0  0  0  0
  141.9390   73.6180  220.8850 C   0  0  0  0  0  0  0  0  0  0  0  0
  141.4790   72.2330  221.1640 C   0  0  0  0  0  0  0  0  0  0  0  0
  140.2170   72.2800  221.8900 C   0  0  0  0  0  0  0  0  0  0  0  0
  139.6020   71.0090  222.3020 C   0  0  0  0  0  0  0  0  0  0  0  0
  138.7670   70.2970  221.4460 C   0  0  0  0  0  0  0  0  0  0  0  0
  138.1990   69.0990  221.8120 C   0  0  0  0  0  0  0  0  0  0  0  0
  138.4690   68.5840  223.0820 C   0  0  0  0  0  0  0  0  0  0  0  0
  139.3040   69.2740  223.9680 C   0  0  0  0  0  0  0  0  0  0  0  0
  139.5470   68.6780  225.2590 C   0  0  0  0  0  0  0  0  0  0  0  0
  139.5100   67.4080  225.3550 O   0  0  0  0  0  0  0  0  0  0  0  0
  139.8140   69.5240  226.3660 N   0  0  0  0  0  0  0  0  0  0  0  0
  139.8840   70.9880  226.3900 C   0  0  0  0  0  0  0  0  0  0  0  0
  141.1110   71.2150  227.2600 C   0  0  0  0  0  0  0  0  0  0  0  0
  141.4140   69.9070  227.9560 C   0  0  0  0  0  0  0  0  0  0  0  0
  140.0920   69.1470  227.7600 C   0  0  0  0  0  0  0  0  0  0  0  0
  139.8420   70.4560  223.5570 C   0  0  0  0  0  0  0  0  0  0  0  0
  139.5760   73.3480  222.2370 N   0  0  0  0  0  0  0  0  0  0  0  0
  140.0090   74.6630  221.9630 C   0  0  0  0  0  0  0  0  0  0  0  0
  139.3310   75.8000  222.3270 C   0  0  0  0  0  0  0  0  0  0  0  0
  139.8030   77.0820  222.0340 C   0  0  0  0  0  0  0  0  0  0  0  0
  140.9900   77.2260  221.3560 C   0  0  0  0  0  0  0  0  0  0  0  0
  141.5670   78.4600  220.9960 N   0  0  0  0  0  0  0  0  0  0  0  0
  142.0580   79.5700  221.7840 C   0  0  0  0  0  0  0  0  0  0  0  0
  141.7750   80.8110  220.9410 C   0  0  0  0  0  0  0  0  0  0  0  0
  141.3210   80.2850  219.6110 C   0  0  0  0  0  0  0  0  0  0  0  0
  141.8240   78.8590  219.6090 C   0  0  0  0  0  0  0  0  0  0  0  0
  141.6820   76.0640  220.9840 C   0  0  0  0  0  0  0  0  0  0  0  0
  141.2000   74.8060  221.2820 C   0  0  0  0  0  0  0  0  0  0  0  0
  141.3368   71.6952  220.2150 H   0  0  0  0  0  0  0  0  0  0  0  0
  142.2331   71.7103  221.7708 H   0  0  0  0  0  0  0  0  0  0  0  0
  138.5549   70.7046  220.4466 H   0  0  0  0  0  0  0  0  0  0  0  0
  137.5430   68.5555  221.1161 H   0  0  0  0  0  0  0  0  0  0  0  0
  138.0211   67.6272  223.3885 H   0  0  0  0  0  0  0  0  0  0  0  0
  140.0248   71.4008  225.3801 H   0  0  0  0  0  0  0  0  0  0  0  0
  138.9715   71.4760  226.7630 H   0  0  0  0  0  0  0  0  0  0  0  0
  141.9651   71.5164  226.6357 H   0  0  0  0  0  0  0  0  0  0  0  0
  140.9273   72.0141  227.9933 H   0  0  0  0  0  0  0  0  0  0  0  0
  142.2546   69.3822  227.4785 H   0  0  0  0  0  0  0  0  0  0  0  0
  141.7186   70.0166  229.0073 H   0  0  0  0  0  0  0  0  0  0  0  0
  140.2198   68.0606  227.8758 H   0  0  0  0  0  0  0  0  0  0  0  0
  139.2974   69.3862  228.4821 H   0  0  0  0  0  0  0  0  0  0  0  0
  140.4988   71.0007  224.2512 H   0  0  0  0  0  0  0  0  0  0  0  0
  138.3799   75.6978  222.8700 H   0  0  0  0  0  0  0  0  0  0  0  0
  139.2297   77.9684  222.3432 H   0  0  0  0  0  0  0  0  0  0  0  0
  141.5262   79.6265  222.7453 H   0  0  0  0  0  0  0  0  0  0  0  0
  143.1274   79.4670  222.0204 H   0  0  0  0  0  0  0  0  0  0  0  0
  140.9859   81.4211  221.4047 H   0  0  0  0  0  0  0  0  0  0  0  0
  142.6605   81.4569  220.8482 H   0  0  0  0  0  0  0  0  0  0  0  0
  140.2245   80.3159  219.5288 H   0  0  0  0  0  0  0  0  0  0  0  0
  141.6992   80.8754  218.7634 H   0  0  0  0  0  0  0  0  0  0  0  0
  141.2608   78.2347  218.8997 H   0  0  0  0  0  0  0  0  0  0  0  0
  142.8736   78.7527  219.2975 H   0  0  0  0  0  0  0  0  0  0  0  0
  142.6337   76.1581  220.4405 H   0  0  0  0  0  0  0  0  0  0  0  0
  1  2  2  0
  2  3  1  0
  3  4  1  0
  4  5  1  0
  5  6  2  0
  6  7  1  0
  7  8  2  0
  8  9  1  0
  9 10  1  0
 10 11  2  0
 10 12  1  0
 12 13  1  0
 13 14  1  0
 14 15  1  0
 15 16  1  0
  9 17  2  0
  4 18  2  0
 18 19  1  0
 19 20  2  0
 20 21  1  0
 21 22  2  0
 22 23  1  0
 23 24  1  0
 24 25  1  0
 25 26  1  0
 26 27  1  0
 22 28  1  0
 28 29  2  0
 29  2  1  0
 17  5  1  0
 29 19  1  0
 16 12  1  0
 27 23  1  0
  3 30  1  0
  3 31  1  0
  6 32  1  0
  7 33  1  0
  8 34  1  0
 13 35  1  0
 13 36  1  0
 14 37  1  0
 14 38  1  0
 15 39  1  0
 15 40  1  0
 16 41  1  0
 16 42  1  0
 17 43  1  0
 20 44  1  0
 21 45  1  0
 24 46  1  0
 24 47  1  0
 25 48  1  0
 25 49  1  0
 26 50  1  0
 26 51  1  0
 27 52  1  0
 27 53  1  0
 28 54  1  0
M  END
>  <smiles>  (30) 
O=C1CC(c2cccc(C(=O)N3CCCC3)c2)=Nc2ccc(N3CCCC3)cc21

>  <score_type>  (30) 
oracle

>  <origin>  (30) 
autodockgpu

>  <m_score__min__energy>  (30) 
-8.5

>  <m_primary>  (30) 
energy

>  <rmsd>  (30) 
6.221553680820761

>  <m_score__min__rmsd>  (30) 
6.221553680820761

>  <meeko>  (30) 
{"free_energy": -7.98, "intermolecular_energy": -8.87, "internal_energy": -0.81, "cluster_size": 46, "cluster_id": 1, "rank_in_cluster": 30}

>  <energy>  (30) 
-7.98

>  <cluster_rmsd>  (30) 
0.85

>  <cluster>  (30) 
1

$$$$

     RDKit          3D

 54 58  0  0  0  0  0  0  0  0999 V2000
  142.8070   74.8260  220.6700 O   0  0  0  0  0  0  0  0  0  0  0  0
  141.7040   74.4770  221.1970 C   0  0  0  0  0  0  0  0  0  0  0  0
  141.4300   73.0190  221.2750 C   0  0  0  0  0  0  0  0  0  0  0  0
  140.1400   72.8030  221.9190 C   0  0  0  0  0  0  0  0  0  0  0  0
  139.6910   71.4200  222.1320 C   0  0  0  0  0  0  0  0  0  0  0  0
  139.2080   70.6440  221.0820 C   0  0  0  0  0  0  0  0  0  0  0  0
  138.8000   69.3430  221.2650 C   0  0  0  0  0  0  0  0  0  0  0  0
  138.8730   68.7860  222.5440 C   0  0  0  0  0  0  0  0  0  0  0  0
  139.3540   69.5370  223.6230 C   0  0  0  0  0  0  0  0  0  0  0  0
  139.4110   68.8940  224.9120 C   0  0  0  0  0  0  0  0  0  0  0  0
  139.2210   67.6360  224.9690 O   0  0  0  0  0  0  0  0  0  0  0  0
  139.6740   69.6840  226.0610 N   0  0  0  0  0  0  0  0  0  0  0  0
  139.9090   71.1300  226.1320 C   0  0  0  0  0  0  0  0  0  0  0  0
  141.0720   71.1970  227.1110 C   0  0  0  0  0  0  0  0  0  0  0  0
  141.1600   69.8500  227.7940 C   0  0  0  0  0  0  0  0  0  0  0  0
  139.7810   69.2530  227.4630 C   0  0  0  0  0  0  0  0  0  0  0  0
  139.7450   70.8210  223.3890 C   0  0  0  0  0  0  0  0  0  0  0  0
  139.3410   73.7230  222.3510 N   0  0  0  0  0  0  0  0  0  0  0  0
  139.5970   75.1080  222.2670 C   0  0  0  0  0  0  0  0  0  0  0  0
  138.7500   76.0880  222.7210 C   0  0  0  0  0  0  0  0  0  0  0  0
  139.0510   77.4490  222.6170 C   0  0  0  0  0  0  0  0  0  0  0  0
  140.2370   77.8350  222.0400 C   0  0  0  0  0  0  0  0  0  0  0  0
  140.6520   79.1710  221.8700 N   0  0  0  0  0  0  0  0  0  0  0  0
  141.6010   79.7870  220.9680 C   0  0  0  0  0  0  0  0  0  0  0  0
  142.1980   80.9520  221.7520 C   0  0  0  0  0  0  0  0  0  0  0  0
  141.3740   81.0430  223.0040 C   0  0  0  0  0  0  0  0  0  0  0  0
  140.1110   80.2910  222.6460 C   0  0  0  0  0  0  0  0  0  0  0  0
  141.1020   76.8340  221.5750 C   0  0  0  0  0  0  0  0  0  0  0  0
  140.7880   75.4950  221.6870 C   0  0  0  0  0  0  0  0  0  0  0  0
  141.4094   72.5946  220.2604 H   0  0  0  0  0  0  0  0  0  0  0  0
  142.2204   72.5272  221.8610 H   0  0  0  0  0  0  0  0  0  0  0  0
  139.1508   71.0844  220.0756 H   0  0  0  0  0  0  0  0  0  0  0  0
  138.4225   68.7511  220.4182 H   0  0  0  0  0  0  0  0  0  0  0  0
  138.5493   67.7471  222.7049 H   0  0  0  0  0  0  0  0  0  0  0  0
  140.1854   71.5415  225.1500 H   0  0  0  0  0  0  0  0  0  0  0  0
  139.0288   71.7143  226.4384 H   0  0  0  0  0  0  0  0  0  0  0  0
  142.0071   71.4078  226.5714 H   0  0  0  0  0  0  0  0  0  0  0  0
  140.9166   71.9989  227.8477 H   0  0  0  0  0  0  0  0  0  0  0  0
  141.9739   69.2392  227.3763 H   0  0  0  0  0  0  0  0  0  0  0  0
  141.3806   69.9044  228.8703 H   0  0  0  0  0  0  0  0  0  0  0  0
  139.7720   68.1573  227.5594 H   0  0  0  0  0  0  0  0  0  0  0  0
  138.9579   69.5711  228.1197 H   0  0  0  0  0  0  0  0  0  0  0  0
  140.1222   71.4146  224.2348 H   0  0  0  0  0  0  0  0  0  0  0  0
  137.7977   75.7909  223.1845 H   0  0  0  0  0  0  0  0  0  0  0  0
  138.3452   78.2040  222.9935 H   0  0  0  0  0  0  0  0  0  0  0  0
  142.3857   79.0700  220.6848 H   0  0  0  0  0  0  0  0  0  0  0  0
  141.1247   80.1204  220.0342 H   0  0  0  0  0  0  0  0  0  0  0  0
  143.2519   80.7533  221.9967 H   0  0  0  0  0  0  0  0  0  0  0  0
  142.1789   81.8893  221.1766 H   0  0  0  0  0  0  0  0  0  0  0  0
  141.8898   80.5662  223.8505 H   0  0  0  0  0  0  0  0  0  0  0  0
  141.1828   82.0796  223.3186 H   0  0  0  0  0  0  0  0  0  0  0  0
  139.5831   79.9399  223.5450 H   0  0  0  0  0  0  0  0  0  0  0  0
  139.3660   80.8940  222.1062 H   0  0  0  0  0  0  0  0  0  0  0  0
  142.0554   77.1237  221.1090 H   0  0  0  0  0  0  0  0  0  0  0  0
  1  2  2  0
  2  3  1  0
  3  4  1  0
  4  5  1  0
  5  6  2  0
  6  7  1  0
  7  8  2  0
  8  9  1  0
  9 10  1  0
 10 11  2  0
 10 12  1  0
 12 13  1  0
 13 14  1  0
 14 15  1  0
 15 16  1  0
  9 17  2  0
  4 18  2  0
 18 19  1  0
 19 20  2  0
 20 21  1  0
 21 22  2  0
 22 23  1  0
 23 24  1  0
 24 25  1  0
 25 26  1  0
 26 27  1  0
 22 28  1  0
 28 29  2  0
 29  2  1  0
 17  5  1  0
 29 19  1  0
 16 12  1  0
 27 23  1  0
  3 30  1  0
  3 31  1  0
  6 32  1  0
  7 33  1  0
  8 34  1  0
 13 35  1  0
 13 36  1  0
 14 37  1  0
 14 38  1  0
 15 39  1  0
 15 40  1  0
 16 41  1  0
 16 42  1  0
 17 43  1  0
 20 44  1  0
 21 45  1  0
 24 46  1  0
 24 47  1  0
 25 48  1  0
 25 49  1  0
 26 50  1  0
 26 51  1  0
 27 52  1  0
 27 53  1  0
 28 54  1  0
M  END
>  <smiles>  (31) 
O=C1CC(c2cccc(C(=O)N3CCCC3)c2)=Nc2ccc(N3CCCC3)cc21

>  <score_type>  (31) 
oracle

>  <origin>  (31) 
autodockgpu

>  <m_score__min__energy>  (31) 
-8.5

>  <m_primary>  (31) 
energy

>  <rmsd>  (31) 
6.248315578736537

>  <m_score__min__rmsd>  (31) 
6.248315578736537

>  <meeko>  (31) 
{"free_energy": -8.41, "intermolecular_energy": -9.31, "internal_energy": -0.63, "cluster_size": 46, "cluster_id": 1, "rank_in_cluster": 18}

>  <energy>  (31) 
-7.86

>  <cluster_rmsd>  (31) 
1.22

>  <cluster>  (31) 
1

$$$$

     RDKit          3D

 54 58  0  0  0  0  0  0  0  0999 V2000
  143.0290   75.0910  220.1900 O   0  0  0  0  0  0  0  0  0  0  0  0
  141.9970   74.7230  220.8350 C   0  0  0  0  0  0  0  0  0  0  0  0
  141.7470   73.2620  220.9260 C   0  0  0  0  0  0  0  0  0  0  0  0
  140.5410   73.0250  221.7090 C   0  0  0  0  0  0  0  0  0  0  0  0
  140.1320   71.6350  221.9560 C   0  0  0  0  0  0  0  0  0  0  0  0
  139.9650   70.7320  220.9100 C   0  0  0  0  0  0  0  0  0  0  0  0
  139.5980   69.4240  221.1280 C   0  0  0  0  0  0  0  0  0  0  0  0
  139.3890   68.9910  222.4400 C   0  0  0  0  0  0  0  0  0  0  0  0
  139.5500   69.8720  223.5160 C   0  0  0  0  0  0  0  0  0  0  0  0
  139.3270   69.3540  224.8430 C   0  0  0  0  0  0  0  0  0  0  0  0
  138.7910   68.2040  224.9610 O   0  0  0  0  0  0  0  0  0  0  0  0
  139.7100   70.1410  225.9600 N   0  0  0  0  0  0  0  0  0  0  0  0
  140.3310   71.4690  225.9610 C   0  0  0  0  0  0  0  0  0  0  0  0
  141.3880   71.3040  227.0430 C   0  0  0  0  0  0  0  0  0  0  0  0
  141.0460   70.0490  227.8150 C   0  0  0  0  0  0  0  0  0  0  0  0
  139.5860   69.8210  227.3900 C   0  0  0  0  0  0  0  0  0  0  0  0
  139.9130   71.1570  223.2460 C   0  0  0  0  0  0  0  0  0  0  0  0
  139.7870   73.9310  222.2410 N   0  0  0  0  0  0  0  0  0  0  0  0
  140.0190   75.3200  222.1450 C   0  0  0  0  0  0  0  0  0  0  0  0
  139.2200   76.2860  222.7030 C   0  0  0  0  0  0  0  0  0  0  0  0
  139.4940   77.6510  222.5820 C   0  0  0  0  0  0  0  0  0  0  0  0
  140.6030   78.0560  221.8790 C   0  0  0  0  0  0  0  0  0  0  0  0
  140.9830   79.3990  221.6790 N   0  0  0  0  0  0  0  0  0  0  0  0
  142.0730   80.1890  222.2090 C   0  0  0  0  0  0  0  0  0  0  0  0
  141.5210   81.6070  222.3180 C   0  0  0  0  0  0  0  0  0  0  0  0
  140.1880   81.5610  221.6300 C   0  0  0  0  0  0  0  0  0  0  0  0
  140.2770   80.3140  220.7780 C   0  0  0  0  0  0  0  0  0  0  0  0
  141.4190   77.0690  221.3070 C   0  0  0  0  0  0  0  0  0  0  0  0
  141.1320   75.7260  221.4370 C   0  0  0  0  0  0  0  0  0  0  0  0
  141.6154   72.8486  219.9152 H   0  0  0  0  0  0  0  0  0  0  0  0
  142.6033   72.7724  221.4129 H   0  0  0  0  0  0  0  0  0  0  0  0
  140.1314   71.0744  219.8780 H   0  0  0  0  0  0  0  0  0  0  0  0
  139.4712   68.7307  220.2835 H   0  0  0  0  0  0  0  0  0  0  0  0
  139.0952   67.9480  222.6292 H   0  0  0  0  0  0  0  0  0  0  0  0
  140.7853   71.7017  224.9866 H   0  0  0  0  0  0  0  0  0  0  0  0
  139.6272   72.2949  226.1415 H   0  0  0  0  0  0  0  0  0  0  0  0
  142.3835   71.2055  226.5854 H   0  0  0  0  0  0  0  0  0  0  0  0
  141.4051   72.1794  227.7088 H   0  0  0  0  0  0  0  0  0  0  0  0
  141.6879   69.2064  227.5183 H   0  0  0  0  0  0  0  0  0  0  0  0
  141.1900   70.1360  228.9021 H   0  0  0  0  0  0  0  0  0  0  0  0
  139.2663   68.7813  227.5538 H   0  0  0  0  0  0  0  0  0  0  0  0
  138.8357   70.4058  227.9423 H   0  0  0  0  0  0  0  0  0  0  0  0
  140.0395   71.8521  224.0891 H   0  0  0  0  0  0  0  0  0  0  0  0
  138.3291   75.9738  223.2676 H   0  0  0  0  0  0  0  0  0  0  0  0
  138.8282   78.3941  223.0451 H   0  0  0  0  0  0  0  0  0  0  0  0
  142.3751   79.8153  223.1985 H   0  0  0  0  0  0  0  0  0  0  0  0
  142.9652   80.1426  221.5673 H   0  0  0  0  0  0  0  0  0  0  0  0
  141.4015   81.8950  223.3729 H   0  0  0  0  0  0  0  0  0  0  0  0
  142.1947   82.3479  221.8627 H   0  0  0  0  0  0  0  0  0  0  0  0
  139.3701   81.4808  222.3612 H   0  0  0  0  0  0  0  0  0  0  0  0
  139.9752   82.4674  221.0443 H   0  0  0  0  0  0  0  0  0  0  0  0
  139.2787   79.9322  220.5179 H   0  0  0  0  0  0  0  0  0  0  0  0
  140.7756   80.4655  219.8093 H   0  0  0  0  0  0  0  0  0  0  0  0
  142.3110   77.3738  220.7400 H   0  0  0  0  0  0  0  0  0  0  0  0
  1  2  2  0
  2  3  1  0
  3  4  1  0
  4  5  1  0
  5  6  2  0
  6  7  1  0
  7  8  2  0
  8  9  1  0
  9 10  1  0
 10 11  2  0
 10 12  1  0
 12 13  1  0
 13 14  1  0
 14 15  1  0
 15 16  1  0
  9 17  2  0
  4 18  2  0
 18 19  1  0
 19 20  2  0
 20 21  1  0
 21 22  2  0
 22 23  1  0
 23 24  1  0
 24 25  1  0
 25 26  1  0
 26 27  1  0
 22 28  1  0
 28 29  2  0
 29  2  1  0
 17  5  1  0
 29 19  1  0
 16 12  1  0
 27 23  1  0
  3 30  1  0
  3 31  1  0
  6 32  1  0
  7 33  1  0
  8 34  1  0
 13 35  1  0
 13 36  1  0
 14 37  1  0
 14 38  1  0
 15 39  1  0
 15 40  1  0
 16 41  1  0
 16 42  1  0
 17 43  1  0
 20 44  1  0
 21 45  1  0
 24 46  1  0
 24 47  1  0
 25 48  1  0
 25 49  1  0
 26 50  1  0
 26 51  1  0
 27 52  1  0
 27 53  1  0
 28 54  1  0
M  END
>  <smiles>  (32) 
O=C1CC(c2cccc(C(=O)N3CCCC3)c2)=Nc2ccc(N3CCCC3)cc21

>  <score_type>  (32) 
oracle

>  <origin>  (32) 
autodockgpu

>  <m_score__min__energy>  (32) 
-8.5

>  <m_primary>  (32) 
energy

>  <rmsd>  (32) 
6.4317929742410405

>  <m_score__min__rmsd>  (32) 
6.4317929742410405

>  <meeko>  (32) 
{"free_energy": -8.19, "intermolecular_energy": -9.09, "internal_energy": -0.59, "cluster_size": 46, "cluster_id": 1, "rank_in_cluster": 29}

>  <energy>  (32) 
-7.86

>  <cluster_rmsd>  (32) 
1.23

>  <cluster>  (32) 
1

$$$$

     RDKit          3D

 54 58  0  0  0  0  0  0  0  0999 V2000
  142.9740   74.7720  220.4860 O   0  0  0  0  0  0  0  0  0  0  0  0
  141.8900   74.4570  221.0710 C   0  0  0  0  0  0  0  0  0  0  0  0
  141.5820   73.0080  221.1820 C   0  0  0  0  0  0  0  0  0  0  0  0
  140.3210   72.8340  221.8910 C   0  0  0  0  0  0  0  0  0  0  0  0
  139.8470   71.4660  222.1450 C   0  0  0  0  0  0  0  0  0  0  0  0
  139.4240   70.6420  221.1070 C   0  0  0  0  0  0  0  0  0  0  0  0
  138.9930   69.3540  221.3280 C   0  0  0  0  0  0  0  0  0  0  0  0
  138.9820   68.8620  222.6350 C   0  0  0  0  0  0  0  0  0  0  0  0
  139.4020   69.6630  223.7030 C   0  0  0  0  0  0  0  0  0  0  0  0
  139.3720   69.0850  225.0240 C   0  0  0  0  0  0  0  0  0  0  0  0
  139.0960   67.8470  225.1360 O   0  0  0  0  0  0  0  0  0  0  0  0
  139.6500   69.9140  226.1410 N   0  0  0  0  0  0  0  0  0  0  0  0
  139.9800   71.3430  226.1490 C   0  0  0  0  0  0  0  0  0  0  0  0
  141.1120   71.3840  227.1650 C   0  0  0  0  0  0  0  0  0  0  0  0
  141.0860   70.0710  227.9160 C   0  0  0  0  0  0  0  0  0  0  0  0
  139.6820   69.5500  227.5660 C   0  0  0  0  0  0  0  0  0  0  0  0
  139.8180   70.9310  223.4310 C   0  0  0  0  0  0  0  0  0  0  0  0
  139.5690   73.7810  222.3510 N   0  0  0  0  0  0  0  0  0  0  0  0
  139.8570   75.1570  222.2370 C   0  0  0  0  0  0  0  0  0  0  0  0
  139.0600   76.1650  222.7200 C   0  0  0  0  0  0  0  0  0  0  0  0
  139.3910   77.5160  222.5840 C   0  0  0  0  0  0  0  0  0  0  0  0
  140.5560   77.8640  221.9430 C   0  0  0  0  0  0  0  0  0  0  0  0
  140.9970   79.1860  221.7360 N   0  0  0  0  0  0  0  0  0  0  0  0
  142.2050   79.8800  222.1280 C   0  0  0  0  0  0  0  0  0  0  0  0
  141.7740   81.3250  222.3650 C   0  0  0  0  0  0  0  0  0  0  0  0
  140.3560   81.3950  221.8780 C   0  0  0  0  0  0  0  0  0  0  0  0
  140.2350   80.1840  220.9800 C   0  0  0  0  0  0  0  0  0  0  0  0
  141.3700   76.8340  221.4490 C   0  0  0  0  0  0  0  0  0  0  0  0
  141.0270   75.5060  221.5930 C   0  0  0  0  0  0  0  0  0  0  0  0
  141.5002   72.5721  220.1754 H   0  0  0  0  0  0  0  0  0  0  0  0
  142.3873   72.5026  221.7353 H   0  0  0  0  0  0  0  0  0  0  0  0
  139.4344   71.0319  220.0785 H   0  0  0  0  0  0  0  0  0  0  0  0
  138.6629   68.7228  220.4898 H   0  0  0  0  0  0  0  0  0  0  0  0
  138.6397   67.8344  222.8270 H   0  0  0  0  0  0  0  0  0  0  0  0
  140.3158   71.6839  225.1585 H   0  0  0  0  0  0  0  0  0  0  0  0
  139.1318   71.9991  226.3941 H   0  0  0  0  0  0  0  0  0  0  0  0
  142.0765   71.5047  226.6501 H   0  0  0  0  0  0  0  0  0  0  0  0
  140.9871   72.2314  227.8551 H   0  0  0  0  0  0  0  0  0  0  0  0
  141.8698   69.3871  227.5583 H   0  0  0  0  0  0  0  0  0  0  0  0
  141.2745   70.1662  228.9955 H   0  0  0  0  0  0  0  0  0  0  0  0
  139.5959   68.4637  227.7162 H   0  0  0  0  0  0  0  0  0  0  0  0
  138.8614   69.9552  228.1763 H   0  0  0  0  0  0  0  0  0  0  0  0
  140.1474   71.5640  224.2681 H   0  0  0  0  0  0  0  0  0  0  0  0
  138.1245   75.8991  223.2340 H   0  0  0  0  0  0  0  0  0  0  0  0
  138.7252   78.2938  222.9863 H   0  0  0  0  0  0  0  0  0  0  0  0
  142.6190   79.4444  223.0493 H   0  0  0  0  0  0  0  0  0  0  0  0
  142.9908   79.8045  221.3620 H   0  0  0  0  0  0  0  0  0  0  0  0
  141.8274   81.5733  223.4353 H   0  0  0  0  0  0  0  0  0  0  0  0
  142.4253   82.0405  221.8416 H   0  0  0  0  0  0  0  0  0  0  0  0
  139.6478   81.3350  222.7176 H   0  0  0  0  0  0  0  0  0  0  0  0
  140.1249   82.3382  221.3613 H   0  0  0  0  0  0  0  0  0  0  0  0
  139.1855   79.8790  220.8551 H   0  0  0  0  0  0  0  0  0  0  0  0
  140.5995   80.3461  219.9549 H   0  0  0  0  0  0  0  0  0  0  0  0
  142.3066   77.0923  220.9332 H   0  0  0  0  0  0  0  0  0  0  0  0
  1  2  2  0
  2  3  1  0
  3  4  1  0
  4  5  1  0
  5  6  2  0
  6  7  1  0
  7  8  2  0
  8  9  1  0
  9 10  1  0
 10 11  2  0
 10 12  1  0
 12 13  1  0
 13 14  1  0
 14 15  1  0
 15 16  1  0
  9 17  2  0
  4 18  2  0
 18 19  1  0
 19 20  2  0
 20 21  1  0
 21 22  2  0
 22 23  1  0
 23 24  1  0
 24 25  1  0
 25 26  1  0
 26 27  1  0
 22 28  1  0
 28 29  2  0
 29  2  1  0
 17  5  1  0
 29 19  1  0
 16 12  1  0
 27 23  1  0
  3 30  1  0
  3 31  1  0
  6 32  1  0
  7 33  1  0
  8 34  1  0
 13 35  1  0
 13 36  1  0
 14 37  1  0
 14 38  1  0
 15 39  1  0
 15 40  1  0
 16 41  1  0
 16 42  1  0
 17 43  1  0
 20 44  1  0
 21 45  1  0
 24 46  1  0
 24 47  1  0
 25 48  1  0
 25 49  1  0
 26 50  1  0
 26 51  1  0
 27 52  1  0
 27 53  1  0
 28 54  1  0
M  END
>  <smiles>  (33) 
O=C1CC(c2cccc(C(=O)N3CCCC3)c2)=Nc2ccc(N3CCCC3)cc21

>  <score_type>  (33) 
oracle

>  <origin>  (33) 
autodockgpu

>  <m_score__min__energy>  (33) 
-8.5

>  <m_primary>  (33) 
energy

>  <rmsd>  (33) 
6.293987091153898

>  <m_score__min__rmsd>  (33) 
6.293987091153898

>  <meeko>  (33) 
{"free_energy": -8.39, "intermolecular_energy": -9.28, "internal_energy": -0.57, "cluster_size": 46, "cluster_id": 1, "rank_in_cluster": 21}

>  <energy>  (33) 
-7.86

>  <cluster_rmsd>  (33) 
1.23

>  <cluster>  (33) 
1

$$$$

     RDKit          3D

 54 58  0  0  0  0  0  0  0  0999 V2000
  142.8080   74.9780  220.5900 O   0  0  0  0  0  0  0  0  0  0  0  0
  141.7340   74.5780  221.1380 C   0  0  0  0  0  0  0  0  0  0  0  0
  141.5280   73.1090  221.2180 C   0  0  0  0  0  0  0  0  0  0  0  0
  140.2630   72.8330  221.8870 C   0  0  0  0  0  0  0  0  0  0  0  0
  139.8810   71.4310  222.1060 C   0  0  0  0  0  0  0  0  0  0  0  0
  139.5930   70.5830  221.0410 C   0  0  0  0  0  0  0  0  0  0  0  0
  139.2510   69.2640  221.2320 C   0  0  0  0  0  0  0  0  0  0  0  0
  139.1920   68.7630  222.5340 C   0  0  0  0  0  0  0  0  0  0  0  0
  139.4760   69.5880  223.6290 C   0  0  0  0  0  0  0  0  0  0  0  0
  139.4050   69.0010  224.9440 C   0  0  0  0  0  0  0  0  0  0  0  0
  139.1060   67.7670  225.0400 O   0  0  0  0  0  0  0  0  0  0  0  0
  139.6690   69.8170  226.0750 N   0  0  0  0  0  0  0  0  0  0  0  0
  140.0220   71.2400  226.1010 C   0  0  0  0  0  0  0  0  0  0  0  0
  141.1290   71.2540  227.1450 C   0  0  0  0  0  0  0  0  0  0  0  0
  141.0630   69.9370  227.8850 C   0  0  0  0  0  0  0  0  0  0  0  0
  139.6600   69.4410  227.4960 C   0  0  0  0  0  0  0  0  0  0  0  0
  139.8090   70.8870  223.3870 C   0  0  0  0  0  0  0  0  0  0  0  0
  139.4300   73.7150  222.3370 N   0  0  0  0  0  0  0  0  0  0  0  0
  139.6220   75.1100  222.2500 C   0  0  0  0  0  0  0  0  0  0  0  0
  138.7400   76.0500  222.7230 C   0  0  0  0  0  0  0  0  0  0  0  0
  138.9760   77.4230  222.6160 C   0  0  0  0  0  0  0  0  0  0  0  0
  140.1310   77.8650  222.0160 C   0  0  0  0  0  0  0  0  0  0  0  0
  140.4820   79.2190  221.8410 N   0  0  0  0  0  0  0  0  0  0  0  0
  140.8390   79.9860  220.6680 C   0  0  0  0  0  0  0  0  0  0  0  0
  141.8420   81.0250  221.1620 C   0  0  0  0  0  0  0  0  0  0  0  0
  141.8250   80.9030  222.6580 C   0  0  0  0  0  0  0  0  0  0  0  0
  140.5190   80.1920  222.9360 C   0  0  0  0  0  0  0  0  0  0  0  0
  141.0320   76.9040  221.5330 C   0  0  0  0  0  0  0  0  0  0  0  0
  140.7810   75.5530  221.6470 C   0  0  0  0  0  0  0  0  0  0  0  0
  141.5063   72.6857  220.2029 H   0  0  0  0  0  0  0  0  0  0  0  0
  142.3516   72.6531  221.7871 H   0  0  0  0  0  0  0  0  0  0  0  0
  139.6402   70.9789  220.0158 H   0  0  0  0  0  0  0  0  0  0  0  0
  139.0277   68.6146  220.3727 H   0  0  0  0  0  0  0  0  0  0  0  0
  138.9199   67.7104  222.7010 H   0  0  0  0  0  0  0  0  0  0  0  0
  140.3879   71.5820  225.1216 H   0  0  0  0  0  0  0  0  0  0  0  0
  139.1792   71.9089  226.3293 H   0  0  0  0  0  0  0  0  0  0  0  0
  142.1078   71.3622  226.6549 H   0  0  0  0  0  0  0  0  0  0  0  0
  141.0008   72.0982  227.8385 H   0  0  0  0  0  0  0  0  0  0  0  0
  141.8446   69.2431  227.5421 H   0  0  0  0  0  0  0  0  0  0  0  0
  141.2256   70.0217  228.9696 H   0  0  0  0  0  0  0  0  0  0  0  0
  139.5533   68.3550  227.6346 H   0  0  0  0  0  0  0  0  0  0  0  0
  138.8309   69.8539  228.0894 H   0  0  0  0  0  0  0  0  0  0  0  0
  140.0320   71.5383  224.2450 H   0  0  0  0  0  0  0  0  0  0  0  0
  137.8118   75.7090  223.2048 H   0  0  0  0  0  0  0  0  0  0  0  0
  138.2438   78.1440  223.0085 H   0  0  0  0  0  0  0  0  0  0  0  0
  141.2980   79.3373  219.9075 H   0  0  0  0  0  0  0  0  0  0  0  0
  139.9608   80.4522  220.1976 H   0  0  0  0  0  0  0  0  0  0  0  0
  142.8464   80.8102  220.7682 H   0  0  0  0  0  0  0  0  0  0  0  0
  141.5825   82.0404  220.8279 H   0  0  0  0  0  0  0  0  0  0  0  0
  142.6800   80.3097  223.0144 H   0  0  0  0  0  0  0  0  0  0  0  0
  141.9032   81.8738  223.1693 H   0  0  0  0  0  0  0  0  0  0  0  0
  140.5326   79.6940  223.9167 H   0  0  0  0  0  0  0  0  0  0  0  0
  139.6440   80.8574  222.9766 H   0  0  0  0  0  0  0  0  0  0  0  0
  141.9629   77.2371  221.0508 H   0  0  0  0  0  0  0  0  0  0  0  0
  1  2  2  0
  2  3  1  0
  3  4  1  0
  4  5  1  0
  5  6  2  0
  6  7  1  0
  7  8  2  0
  8  9  1  0
  9 10  1  0
 10 11  2  0
 10 12  1  0
 12 13  1  0
 13 14  1  0
 14 15  1  0
 15 16  1  0
  9 17  2  0
  4 18  2  0
 18 19  1  0
 19 20  2  0
 20 21  1  0
 21 22  2  0
 22 23  1  0
 23 24  1  0
 24 25  1  0
 25 26  1  0
 26 27  1  0
 22 28  1  0
 28 29  2  0
 29  2  1  0
 17  5  1  0
 29 19  1  0
 16 12  1  0
 27 23  1  0
  3 30  1  0
  3 31  1  0
  6 32  1  0
  7 33  1  0
  8 34  1  0
 13 35  1  0
 13 36  1  0
 14 37  1  0
 14 38  1  0
 15 39  1  0
 15 40  1  0
 16 41  1  0
 16 42  1  0
 17 43  1  0
 20 44  1  0
 21 45  1  0
 24 46  1  0
 24 47  1  0
 25 48  1  0
 25 49  1  0
 26 50  1  0
 26 51  1  0
 27 52  1  0
 27 53  1  0
 28 54  1  0
M  END
>  <smiles>  (34) 
O=C1CC(c2cccc(C(=O)N3CCCC3)c2)=Nc2ccc(N3CCCC3)cc21

>  <score_type>  (34) 
oracle

>  <origin>  (34) 
autodockgpu

>  <m_score__min__energy>  (34) 
-8.5

>  <m_primary>  (34) 
energy

>  <rmsd>  (34) 
6.286183350423039

>  <m_score__min__rmsd>  (34) 
6.286183350423039

>  <meeko>  (34) 
{"free_energy": -8.49, "intermolecular_energy": -9.39, "internal_energy": -0.58, "cluster_size": 46, "cluster_id": 1, "rank_in_cluster": 6}

>  <energy>  (34) 
-7.86

>  <cluster_rmsd>  (34) 
1.18

>  <cluster>  (34) 
1

$$$$

     RDKit          3D

 54 58  0  0  0  0  0  0  0  0999 V2000
  142.4880   72.4490  220.1520 O   0  0  0  0  0  0  0  0  0  0  0  0
  141.4780   72.7830  220.8480 C   0  0  0  0  0  0  0  0  0  0  0  0
  140.7760   71.6960  221.5780 C   0  0  0  0  0  0  0  0  0  0  0  0
  139.6640   72.2590  222.3320 C   0  0  0  0  0  0  0  0  0  0  0  0
  138.8550   71.3550  223.1610 C   0  0  0  0  0  0  0  0  0  0  0  0
  137.4640   71.3830  223.1200 C   0  0  0  0  0  0  0  0  0  0  0  0
  136.6950   70.5310  223.8780 C   0  0  0  0  0  0  0  0  0  0  0  0
  137.3320   69.6100  224.7140 C   0  0  0  0  0  0  0  0  0  0  0  0
  138.7290   69.5540  224.7800 C   0  0  0  0  0  0  0  0  0  0  0  0
  139.3180   68.5730  225.6570 C   0  0  0  0  0  0  0  0  0  0  0  0
  139.4970   67.3930  225.2110 O   0  0  0  0  0  0  0  0  0  0  0  0
  139.6730   68.9560  226.9760 N   0  0  0  0  0  0  0  0  0  0  0  0
  139.5220   70.2710  227.6080 C   0  0  0  0  0  0  0  0  0  0  0  0
  140.8510   70.4080  228.3350 C   0  0  0  0  0  0  0  0  0  0  0  0
  141.4860   69.0360  228.3690 C   0  0  0  0  0  0  0  0  0  0  0  0
  140.2830   68.1380  228.0340 C   0  0  0  0  0  0  0  0  0  0  0  0
  139.4450   70.4200  224.0090 C   0  0  0  0  0  0  0  0  0  0  0  0
  139.3190   73.5060  222.3650 N   0  0  0  0  0  0  0  0  0  0  0  0
  139.9800   74.5360  221.6630 C   0  0  0  0  0  0  0  0  0  0  0  0
  139.6150   75.8590  221.6920 C   0  0  0  0  0  0  0  0  0  0  0  0
  140.3040   76.8440  220.9800 C   0  0  0  0  0  0  0  0  0  0  0  0
  141.3910   76.4900  220.2170 C   0  0  0  0  0  0  0  0  0  0  0  0
  142.1630   77.3850  219.4500 N   0  0  0  0  0  0  0  0  0  0  0  0
  142.1530   78.8280  219.3380 C   0  0  0  0  0  0  0  0  0  0  0  0
  142.5460   79.1170  217.8920 C   0  0  0  0  0  0  0  0  0  0  0  0
  142.9640   77.7900  217.3280 C   0  0  0  0  0  0  0  0  0  0  0  0
  143.2480   76.9600  218.5600 C   0  0  0  0  0  0  0  0  0  0  0  0
  141.7630   75.1380  220.1870 C   0  0  0  0  0  0  0  0  0  0  0  0
  141.0700   74.1790  220.8960 C   0  0  0  0  0  0  0  0  0  0  0  0
  140.3944   70.9572  220.8578 H   0  0  0  0  0  0  0  0  0  0  0  0
  141.4772   71.2051  222.2689 H   0  0  0  0  0  0  0  0  0  0  0  0
  136.9645   72.1087  222.4613 H   0  0  0  0  0  0  0  0  0  0  0  0
  135.5970   70.5739  223.8270 H   0  0  0  0  0  0  0  0  0  0  0  0
  136.7297   68.9225  225.3260 H   0  0  0  0  0  0  0  0  0  0  0  0
  139.3896   71.0650  226.8583 H   0  0  0  0  0  0  0  0  0  0  0  0
  138.6409   70.3581  228.2608 H   0  0  0  0  0  0  0  0  0  0  0  0
  141.5035   71.1120  227.7978 H   0  0  0  0  0  0  0  0  0  0  0  0
  140.7005   70.7938  229.3541 H   0  0  0  0  0  0  0  0  0  0  0  0
  142.2812   68.9416  227.6148 H   0  0  0  0  0  0  0  0  0  0  0  0
  141.9789   68.7915  229.3215 H   0  0  0  0  0  0  0  0  0  0  0  0
  140.5959   67.1507  227.6633 H   0  0  0  0  0  0  0  0  0  0  0  0
  139.6253   67.8929  228.8809 H   0  0  0  0  0  0  0  0  0  0  0  0
  140.5431   70.3788  224.0586 H   0  0  0  0  0  0  0  0  0  0  0  0
  138.7468   76.1550  222.2991 H   0  0  0  0  0  0  0  0  0  0  0  0
  139.9793   77.8938  221.0296 H   0  0  0  0  0  0  0  0  0  0  0  0
  141.1498   79.2251  219.5523 H   0  0  0  0  0  0  0  0  0  0  0  0
  142.8401   79.3019  220.0545 H   0  0  0  0  0  0  0  0  0  0  0  0
  141.6898   79.5220  217.3326 H   0  0  0  0  0  0  0  0  0  0  0  0
  143.3496   79.8651  217.8248 H   0  0  0  0  0  0  0  0  0  0  0  0
  142.1554   77.3438  216.7305 H   0  0  0  0  0  0  0  0  0  0  0  0
  143.8279   77.8637  216.6511 H   0  0  0  0  0  0  0  0  0  0  0  0
  143.1914   75.8833  218.3419 H   0  0  0  0  0  0  0  0  0  0  0  0
  144.2554   77.1042  218.9776 H   0  0  0  0  0  0  0  0  0  0  0  0
  142.6302   74.8345  219.5822 H   0  0  0  0  0  0  0  0  0  0  0  0
  1  2  2  0
  2  3  1  0
  3  4  1  0
  4  5  1  0
  5  6  2  0
  6  7  1  0
  7  8  2  0
  8  9  1  0
  9 10  1  0
 10 11  2  0
 10 12  1  0
 12 13  1  0
 13 14  1  0
 14 15  1  0
 15 16  1  0
  9 17  2  0
  4 18  2  0
 18 19  1  0
 19 20  2  0
 20 21  1  0
 21 22  2  0
 22 23  1  0
 23 24  1  0
 24 25  1  0
 25 26  1  0
 26 27  1  0
 22 28  1  0
 28 29  2  0
 29  2  1  0
 17  5  1  0
 29 19  1  0
 16 12  1  0
 27 23  1  0
  3 30  1  0
  3 31  1  0
  6 32  1  0
  7 33  1  0
  8 34  1  0
 13 35  1  0
 13 36  1  0
 14 37  1  0
 14 38  1  0
 15 39  1  0
 15 40  1  0
 16 41  1  0
 16 42  1  0
 17 43  1  0
 20 44  1  0
 21 45  1  0
 24 46  1  0
 24 47  1  0
 25 48  1  0
 25 49  1  0
 26 50  1  0
 26 51  1  0
 27 52  1  0
 27 53  1  0
 28 54  1  0
M  END
>  <smiles>  (35) 
O=C1CC(c2cccc(C(=O)N3CCCC3)c2)=Nc2ccc(N3CCCC3)cc21

>  <score_type>  (35) 
oracle

>  <origin>  (35) 
autodockgpu

>  <m_score__min__energy>  (35) 
-8.5

>  <m_primary>  (35) 
energy

>  <rmsd>  (35) 
6.456665094450769

>  <m_score__min__rmsd>  (35) 
6.456665094450769

>  <meeko>  (35) 
{"free_energy": -7.6, "intermolecular_energy": -8.5, "internal_energy": -1.03, "cluster_size": 46, "cluster_id": 1, "rank_in_cluster": 45}

>  <energy>  (35) 
-7.86

>  <cluster_rmsd>  (35) 
1.21

>  <cluster>  (35) 
1

$$$$

     RDKit          3D

 54 58  0  0  0  0  0  0  0  0999 V2000
  143.1720   75.4830  219.7480 O   0  0  0  0  0  0  0  0  0  0  0  0
  142.1910   75.1760  220.4960 C   0  0  0  0  0  0  0  0  0  0  0  0
  141.8700   73.7310  220.6240 C   0  0  0  0  0  0  0  0  0  0  0  0
  140.7390   73.5640  221.5270 C   0  0  0  0  0  0  0  0  0  0  0  0
  140.2800   72.2000  221.8250 C   0  0  0  0  0  0  0  0  0  0  0  0
  140.3820   71.1790  220.8840 C   0  0  0  0  0  0  0  0  0  0  0  0
  139.9720   69.8940  221.1560 C   0  0  0  0  0  0  0  0  0  0  0  0
  139.4370   69.6080  222.4140 C   0  0  0  0  0  0  0  0  0  0  0  0
  139.3200   70.6110  223.3840 C   0  0  0  0  0  0  0  0  0  0  0  0
  138.7680   70.2410  224.6640 C   0  0  0  0  0  0  0  0  0  0  0  0
  137.5010   70.2080  224.7890 O   0  0  0  0  0  0  0  0  0  0  0  0
  139.6530   69.9300  225.7290 N   0  0  0  0  0  0  0  0  0  0  0  0
  141.1200   69.9300  225.7160 C   0  0  0  0  0  0  0  0  0  0  0  0
  141.4250   68.6510  226.4830 C   0  0  0  0  0  0  0  0  0  0  0  0
  140.1500   68.2330  227.1800 C   0  0  0  0  0  0  0  0  0  0  0  0
  139.3240   69.5280  227.1050 C   0  0  0  0  0  0  0  0  0  0  0  0
  139.7400   71.8670  223.0650 C   0  0  0  0  0  0  0  0  0  0  0  0
  140.0940   74.5130  222.1240 N   0  0  0  0  0  0  0  0  0  0  0  0
  140.3930   75.8860  221.9940 C   0  0  0  0  0  0  0  0  0  0  0  0
  139.7090   76.8970  222.6230 C   0  0  0  0  0  0  0  0  0  0  0  0
  140.0460   78.2440  222.4640 C   0  0  0  0  0  0  0  0  0  0  0  0
  141.0990   78.5850  221.6490 C   0  0  0  0  0  0  0  0  0  0  0  0
  141.5320   79.9030  221.4010 N   0  0  0  0  0  0  0  0  0  0  0  0
  141.8350   81.0080  222.2840 C   0  0  0  0  0  0  0  0  0  0  0  0
  141.4400   82.2600  221.5050 C   0  0  0  0  0  0  0  0  0  0  0  0
  141.1250   81.7750  220.1200 C   0  0  0  0  0  0  0  0  0  0  0  0
  141.8060   80.4250  220.0590 C   0  0  0  0  0  0  0  0  0  0  0  0
  141.7960   77.5520  221.0060 C   0  0  0  0  0  0  0  0  0  0  0  0
  141.4490   76.2270  221.1750 C   0  0  0  0  0  0  0  0  0  0  0  0
  141.6133   73.3232  219.6351 H   0  0  0  0  0  0  0  0  0  0  0  0
  142.7427   73.1952  221.0256 H   0  0  0  0  0  0  0  0  0  0  0  0
  140.8029   71.4064  219.8935 H   0  0  0  0  0  0  0  0  0  0  0  0
  140.0641   69.1049  220.3951 H   0  0  0  0  0  0  0  0  0  0  0  0
  139.1044   68.5852  222.6449 H   0  0  0  0  0  0  0  0  0  0  0  0
  141.5136   69.8877  224.6897 H   0  0  0  0  0  0  0  0  0  0  0  0
  141.5743   70.8337  226.1482 H   0  0  0  0  0  0  0  0  0  0  0  0
  141.7502   67.8631  225.7878 H   0  0  0  0  0  0  0  0  0  0  0  0
  142.2325   68.8157  227.2116 H   0  0  0  0  0  0  0  0  0  0  0  0
  139.6532   67.4077  226.6489 H   0  0  0  0  0  0  0  0  0  0  0  0
  140.2998   67.8539  228.2017 H   0  0  0  0  0  0  0  0  0  0  0  0
  138.2480   69.3392  227.2336 H   0  0  0  0  0  0  0  0  0  0  0  0
  139.5434   70.2752  227.8819 H   0  0  0  0  0  0  0  0  0  0  0  0
  139.6481   72.6575  223.8244 H   0  0  0  0  0  0  0  0  0  0  0  0
  138.8636   76.6368  223.2769 H   0  0  0  0  0  0  0  0  0  0  0  0
  139.4735   79.0245  222.9866 H   0  0  0  0  0  0  0  0  0  0  0  0
  141.2512   80.9311  223.2131 H   0  0  0  0  0  0  0  0  0  0  0  0
  142.8952   81.0225  222.5770 H   0  0  0  0  0  0  0  0  0  0  0  0
  140.5571   82.7344  221.9583 H   0  0  0  0  0  0  0  0  0  0  0  0
  142.2397   83.0154  221.5055 H   0  0  0  0  0  0  0  0  0  0  0  0
  140.0392   81.6752  219.9751 H   0  0  0  0  0  0  0  0  0  0  0  0
  141.4673   82.4650  219.3347 H   0  0  0  0  0  0  0  0  0  0  0  0
  141.3638   79.7859  219.2805 H   0  0  0  0  0  0  0  0  0  0  0  0
  142.8750   80.4713  219.8037 H   0  0  0  0  0  0  0  0  0  0  0  0
  142.6417   77.8045  220.3495 H   0  0  0  0  0  0  0  0  0  0  0  0
  1  2  2  0
  2  3  1  0
  3  4  1  0
  4  5  1  0
  5  6  2  0
  6  7  1  0
  7  8  2  0
  8  9  1  0
  9 10  1  0
 10 11  2  0
 10 12  1  0
 12 13  1  0
 13 14  1  0
 14 15  1  0
 15 16  1  0
  9 17  2  0
  4 18  2  0
 18 19  1  0
 19 20  2  0
 20 21  1  0
 21 22  2  0
 22 23  1  0
 23 24  1  0
 24 25  1  0
 25 26  1  0
 26 27  1  0
 22 28  1  0
 28 29  2  0
 29  2  1  0
 17  5  1  0
 29 19  1  0
 16 12  1  0
 27 23  1  0
  3 30  1  0
  3 31  1  0
  6 32  1  0
  7 33  1  0
  8 34  1  0
 13 35  1  0
 13 36  1  0
 14 37  1  0
 14 38  1  0
 15 39  1  0
 15 40  1  0
 16 41  1  0
 16 42  1  0
 17 43  1  0
 20 44  1  0
 21 45  1  0
 24 46  1  0
 24 47  1  0
 25 48  1  0
 25 49  1  0
 26 50  1  0
 26 51  1  0
 27 52  1  0
 27 53  1  0
 28 54  1  0
M  END
>  <smiles>  (36) 
O=C1CC(c2cccc(C(=O)N3CCCC3)c2)=Nc2ccc(N3CCCC3)cc21

>  <score_type>  (36) 
oracle

>  <origin>  (36) 
autodockgpu

>  <m_score__min__energy>  (36) 
-8.5

>  <m_primary>  (36) 
energy

>  <rmsd>  (36) 
6.974001990814845

>  <m_score__min__rmsd>  (36) 
6.974001990814845

>  <meeko>  (36) 
{"free_energy": -7.86, "intermolecular_energy": -8.75, "internal_energy": -1.01, "cluster_size": 46, "cluster_id": 1, "rank_in_cluster": 39}

>  <energy>  (36) 
-7.86

>  <cluster_rmsd>  (36) 
1.24

>  <cluster>  (36) 
1

$$$$

     RDKit          3D

 54 58  0  0  0  0  0  0  0  0999 V2000
  142.9260   74.3380  220.3680 O   0  0  0  0  0  0  0  0  0  0  0  0
  141.8380   74.1170  220.9850 C   0  0  0  0  0  0  0  0  0  0  0  0
  141.4550   72.6950  221.1850 C   0  0  0  0  0  0  0  0  0  0  0  0
  140.1990   72.6310  221.9200 C   0  0  0  0  0  0  0  0  0  0  0  0
  139.6580   71.3070  222.2610 C   0  0  0  0  0  0  0  0  0  0  0  0
  139.0560   70.5010  221.2990 C   0  0  0  0  0  0  0  0  0  0  0  0
  138.5600   69.2540  221.6000 C   0  0  0  0  0  0  0  0  0  0  0  0
  138.6650   68.7840  222.9110 C   0  0  0  0  0  0  0  0  0  0  0  0
  139.2660   69.5680  223.9040 C   0  0  0  0  0  0  0  0  0  0  0  0
  139.3490   69.0150  225.2330 C   0  0  0  0  0  0  0  0  0  0  0  0
  139.1340   67.7680  225.3840 O   0  0  0  0  0  0  0  0  0  0  0  0
  139.6660   69.8760  226.3150 N   0  0  0  0  0  0  0  0  0  0  0  0
  139.9340   71.3170  226.2780 C   0  0  0  0  0  0  0  0  0  0  0  0
  141.1280   71.4240  227.2140 C   0  0  0  0  0  0  0  0  0  0  0  0
  141.2080   70.1260  227.9860 C   0  0  0  0  0  0  0  0  0  0  0  0
  139.8080   69.5400  227.7400 C   0  0  0  0  0  0  0  0  0  0  0  0
  139.7400   70.7960  223.5540 C   0  0  0  0  0  0  0  0  0  0  0  0
  139.5050   73.6410  222.3330 N   0  0  0  0  0  0  0  0  0  0  0  0
  139.8630   74.9910  222.1340 C   0  0  0  0  0  0  0  0  0  0  0  0
  139.1270   76.0660  222.5670 C   0  0  0  0  0  0  0  0  0  0  0  0
  139.5260   77.3870  222.3460 C   0  0  0  0  0  0  0  0  0  0  0  0
  140.6980   77.6350  221.6710 C   0  0  0  0  0  0  0  0  0  0  0  0
  141.2040   78.9170  221.3800 N   0  0  0  0  0  0  0  0  0  0  0  0
  141.8930   79.8970  222.1920 C   0  0  0  0  0  0  0  0  0  0  0  0
  141.4510   81.2510  221.6430 C   0  0  0  0  0  0  0  0  0  0  0  0
  140.6840   80.9330  220.3930 C   0  0  0  0  0  0  0  0  0  0  0  0
  141.1370   79.5310  220.0510 C   0  0  0  0  0  0  0  0  0  0  0  0
  141.4480   76.5360  221.2280 C   0  0  0  0  0  0  0  0  0  0  0  0
  141.0380   75.2390  221.4550 C   0  0  0  0  0  0  0  0  0  0  0  0
  141.3331   72.2067  220.2069 H   0  0  0  0  0  0  0  0  0  0  0  0
  142.2414   72.1795  221.7558 H   0  0  0  0  0  0  0  0  0  0  0  0
  138.9745   70.8726  220.2669 H   0  0  0  0  0  0  0  0  0  0  0  0
  138.0884   68.6370  220.8210 H   0  0  0  0  0  0  0  0  0  0  0  0
  138.2720   67.7888  223.1661 H   0  0  0  0  0  0  0  0  0  0  0  0
  140.1879   71.6531  225.2618 H   0  0  0  0  0  0  0  0  0  0  0  0
  139.0767   71.9416  226.5694 H   0  0  0  0  0  0  0  0  0  0  0  0
  142.0500   71.5747  226.6333 H   0  0  0  0  0  0  0  0  0  0  0  0
  141.0136   72.2785  227.8972 H   0  0  0  0  0  0  0  0  0  0  0  0
  141.9950   69.4688  227.5876 H   0  0  0  0  0  0  0  0  0  0  0  0
  141.4633   70.2499  229.0488 H   0  0  0  0  0  0  0  0  0  0  0  0
  139.7791   68.4540  227.9127 H   0  0  0  0  0  0  0  0  0  0  0  0
  139.0130   69.9212  228.3978 H   0  0  0  0  0  0  0  0  0  0  0  0
  140.2112   71.4152  224.3315 H   0  0  0  0  0  0  0  0  0  0  0  0
  138.1876   75.8805  223.1084 H   0  0  0  0  0  0  0  0  0  0  0  0
  138.9077   78.2213  222.7089 H   0  0  0  0  0  0  0  0  0  0  0  0
  141.6033   79.7955  223.2483 H   0  0  0  0  0  0  0  0  0  0  0  0
  142.9851   79.7722  222.1500 H   0  0  0  0  0  0  0  0  0  0  0  0
  140.8086   81.7712  222.3688 H   0  0  0  0  0  0  0  0  0  0  0  0
  142.3054   81.9150  221.4453 H   0  0  0  0  0  0  0  0  0  0  0  0
  139.6001   80.9623  220.5781 H   0  0  0  0  0  0  0  0  0  0  0  0
  140.8669   81.6533  219.5820 H   0  0  0  0  0  0  0  0  0  0  0  0
  140.4073   79.0182  219.4071 H   0  0  0  0  0  0  0  0  0  0  0  0
  142.0807   79.4880  219.4875 H   0  0  0  0  0  0  0  0  0  0  0  0
  142.3881   76.7132  220.6851 H   0  0  0  0  0  0  0  0  0  0  0  0
  1  2  2  0
  2  3  1  0
  3  4  1  0
  4  5  1  0
  5  6  2  0
  6  7  1  0
  7  8  2  0
  8  9  1  0
  9 10  1  0
 10 11  2  0
 10 12  1  0
 12 13  1  0
 13 14  1  0
 14 15  1  0
 15 16  1  0
  9 17  2  0
  4 18  2  0
 18 19  1  0
 19 20  2  0
 20 21  1  0
 21 22  2  0
 22 23  1  0
 23 24  1  0
 24 25  1  0
 25 26  1  0
 26 27  1  0
 22 28  1  0
 28 29  2  0
 29  2  1  0
 17  5  1  0
 29 19  1  0
 16 12  1  0
 27 23  1  0
  3 30  1  0
  3 31  1  0
  6 32  1  0
  7 33  1  0
  8 34  1  0
 13 35  1  0
 13 36  1  0
 14 37  1  0
 14 38  1  0
 15 39  1  0
 15 40  1  0
 16 41  1  0
 16 42  1  0
 17 43  1  0
 20 44  1  0
 21 45  1  0
 24 46  1  0
 24 47  1  0
 25 48  1  0
 25 49  1  0
 26 50  1  0
 26 51  1  0
 27 52  1  0
 27 53  1  0
 28 54  1  0
M  END
>  <smiles>  (37) 
O=C1CC(c2cccc(C(=O)N3CCCC3)c2)=Nc2ccc(N3CCCC3)cc21

>  <score_type>  (37) 
oracle

>  <origin>  (37) 
autodockgpu

>  <m_score__min__energy>  (37) 
-8.5

>  <m_primary>  (37) 
energy

>  <rmsd>  (37) 
6.258169093321718

>  <m_score__min__rmsd>  (37) 
6.258169093321718

>  <meeko>  (37) 
{"free_energy": -8.26, "intermolecular_energy": -9.15, "internal_energy": -0.64, "cluster_size": 46, "cluster_id": 1, "rank_in_cluster": 28}

>  <energy>  (37) 
-7.86

>  <cluster_rmsd>  (37) 
1.24

>  <cluster>  (37) 
1

$$$$

     RDKit          3D

 54 58  0  0  0  0  0  0  0  0999 V2000
  146.0910   73.4250  219.4170 O   0  0  0  0  0  0  0  0  0  0  0  0
  144.8720   73.2520  219.7310 C   0  0  0  0  0  0  0  0  0  0  0  0
  144.1120   74.4550  220.1590 C   0  0  0  0  0  0  0  0  0  0  0  0
  142.7380   74.0760  220.4620 C   0  0  0  0  0  0  0  0  0  0  0  0
  141.7980   75.1300  220.8700 C   0  0  0  0  0  0  0  0  0  0  0  0
  140.6540   74.8360  221.6060 C   0  0  0  0  0  0  0  0  0  0  0  0
  139.7750   75.8140  222.0080 C   0  0  0  0  0  0  0  0  0  0  0  0
  140.0400   77.1430  221.6670 C   0  0  0  0  0  0  0  0  0  0  0  0
  141.1820   77.4740  220.9280 C   0  0  0  0  0  0  0  0  0  0  0  0
  141.3980   78.8670  220.6200 C   0  0  0  0  0  0  0  0  0  0  0  0
  141.1260   79.2750  219.4450 O   0  0  0  0  0  0  0  0  0  0  0  0
  141.9030   79.7230  221.6330 N   0  0  0  0  0  0  0  0  0  0  0  0
  142.2540   79.3810  223.0150 C   0  0  0  0  0  0  0  0  0  0  0  0
  141.6680   80.5630  223.7740 C   0  0  0  0  0  0  0  0  0  0  0  0
  141.3680   81.6420  222.7570 C   0  0  0  0  0  0  0  0  0  0  0  0
  142.1950   81.1620  221.5530 C   0  0  0  0  0  0  0  0  0  0  0  0
  142.0210   76.4680  220.5530 C   0  0  0  0  0  0  0  0  0  0  0  0
  142.2420   72.8840  220.3870 N   0  0  0  0  0  0  0  0  0  0  0  0
  142.9670   71.7410  219.9910 C   0  0  0  0  0  0  0  0  0  0  0  0
  142.4460   70.4730  219.9140 C   0  0  0  0  0  0  0  0  0  0  0  0
  143.2060   69.3710  219.5130 C   0  0  0  0  0  0  0  0  0  0  0  0
  144.5280   69.5480  219.1800 C   0  0  0  0  0  0  0  0  0  0  0  0
  145.4000   68.5200  218.7690 N   0  0  0  0  0  0  0  0  0  0  0  0
  145.9570   68.1770  217.4780 C   0  0  0  0  0  0  0  0  0  0  0  0
  146.0890   66.6570  217.4930 C   0  0  0  0  0  0  0  0  0  0  0  0
  145.7820   66.2520  218.9050 C   0  0  0  0  0  0  0  0  0  0  0  0
  145.9760   67.5330  219.6860 C   0  0  0  0  0  0  0  0  0  0  0  0
  145.0600   70.8430  219.2600 C   0  0  0  0  0  0  0  0  0  0  0  0
  144.2950   71.9190  219.6590 C   0  0  0  0  0  0  0  0  0  0  0  0
  144.5806   74.8853  221.0564 H   0  0  0  0  0  0  0  0  0  0  0  0
  144.1180   75.2008  219.3504 H   0  0  0  0  0  0  0  0  0  0  0  0
  140.4467   73.7895  221.8743 H   0  0  0  0  0  0  0  0  0  0  0  0
  138.8776   75.5544  222.5887 H   0  0  0  0  0  0  0  0  0  0  0  0
  139.3454   77.9357  221.9819 H   0  0  0  0  0  0  0  0  0  0  0  0
  141.7898   78.4333  223.3254 H   0  0  0  0  0  0  0  0  0  0  0  0
  143.3306   79.2285  223.1813 H   0  0  0  0  0  0  0  0  0  0  0  0
  140.7431   80.2606  224.2869 H   0  0  0  0  0  0  0  0  0  0  0  0
  142.3740   80.9280  224.5345 H   0  0  0  0  0  0  0  0  0  0  0  0
  140.2951   81.6824  222.5178 H   0  0  0  0  0  0  0  0  0  0  0  0
  141.6141   82.6595  223.0948 H   0  0  0  0  0  0  0  0  0  0  0  0
  141.8428   81.6025  220.6086 H   0  0  0  0  0  0  0  0  0  0  0  0
  143.2616   81.4304  221.5742 H   0  0  0  0  0  0  0  0  0  0  0  0
  142.9185   76.7251  219.9713 H   0  0  0  0  0  0  0  0  0  0  0  0
  141.3894   70.3186  220.1782 H   0  0  0  0  0  0  0  0  0  0  0  0
  142.7505   68.3709  219.4642 H   0  0  0  0  0  0  0  0  0  0  0  0
  145.2840   68.4982  216.6694 H   0  0  0  0  0  0  0  0  0  0  0  0
  146.9229   68.6728  217.3010 H   0  0  0  0  0  0  0  0  0  0  0  0
  145.3715   66.2001  216.7955 H   0  0  0  0  0  0  0  0  0  0  0  0
  147.0899   66.3270  217.1779 H   0  0  0  0  0  0  0  0  0  0  0  0
  144.7475   65.8890  218.9945 H   0  0  0  0  0  0  0  0  0  0  0  0
  146.4176   65.4291  219.2641 H   0  0  0  0  0  0  0  0  0  0  0  0
  145.4332   67.5074  220.6424 H   0  0  0  0  0  0  0  0  0  0  0  0
  147.0202   67.7351  219.9666 H   0  0  0  0  0  0  0  0  0  0  0  0
  146.1159   71.0050  218.9975 H   0  0  0  0  0  0  0  0  0  0  0  0
  1  2  2  0
  2  3  1  0
  3  4  1  0
  4  5  1  0
  5  6  2  0
  6  7  1  0
  7  8  2  0
  8  9  1  0
  9 10  1  0
 10 11  2  0
 10 12  1  0
 12 13  1  0
 13 14  1  0
 14 15  1  0
 15 16  1  0
  9 17  2  0
  4 18  2  0
 18 19  1  0
 19 20  2  0
 20 21  1  0
 21 22  2  0
 22 23  1  0
 23 24  1  0
 24 25  1  0
 25 26  1  0
 26 27  1  0
 22 28  1  0
 28 29  2  0
 29  2  1  0
 17  5  1  0
 29 19  1  0
 16 12  1  0
 27 23  1  0
  3 30  1  0
  3 31  1  0
  6 32  1  0
  7 33  1  0
  8 34  1  0
 13 35  1  0
 13 36  1  0
 14 37  1  0
 14 38  1  0
 15 39  1  0
 15 40  1  0
 16 41  1  0
 16 42  1  0
 17 43  1  0
 20 44  1  0
 21 45  1  0
 24 46  1  0
 24 47  1  0
 25 48  1  0
 25 49  1  0
 26 50  1  0
 26 51  1  0
 27 52  1  0
 27 53  1  0
 28 54  1  0
M  END
>  <smiles>  (38) 
O=C1CC(c2cccc(C(=O)N3CCCC3)c2)=Nc2ccc(N3CCCC3)cc21

>  <score_type>  (38) 
oracle

>  <origin>  (38) 
autodockgpu

>  <m_score__min__energy>  (38) 
-8.5

>  <m_primary>  (38) 
energy

>  <rmsd>  (38) 
8.419503127246962

>  <m_score__min__rmsd>  (38) 
8.419503127246962

>  <meeko>  (38) 
{"free_energy": -7.78, "intermolecular_energy": -8.68, "internal_energy": -0.99, "cluster_size": 3, "cluster_id": 2, "rank_in_cluster": 2}

>  <energy>  (38) 
-7.86

>  <cluster_rmsd>  (38) 
1.23

>  <cluster>  (38) 
1

$$$$

     RDKit          3D

 54 58  0  0  0  0  0  0  0  0999 V2000
  142.6880   75.2840  220.5760 O   0  0  0  0  0  0  0  0  0  0  0  0
  141.6060   74.9090  221.1270 C   0  0  0  0  0  0  0  0  0  0  0  0
  141.3490   73.4470  221.1760 C   0  0  0  0  0  0  0  0  0  0  0  0
  140.0830   73.2000  221.8530 C   0  0  0  0  0  0  0  0  0  0  0  0
  139.6550   71.8070  222.0460 C   0  0  0  0  0  0  0  0  0  0  0  0
  139.6610   70.8950  220.9940 C   0  0  0  0  0  0  0  0  0  0  0  0
  139.2790   69.5840  221.1640 C   0  0  0  0  0  0  0  0  0  0  0  0
  138.8730   69.1580  222.4310 C   0  0  0  0  0  0  0  0  0  0  0  0
  138.8560   70.0490  223.5110 C   0  0  0  0  0  0  0  0  0  0  0  0
  138.4350   69.5370  224.7920 C   0  0  0  0  0  0  0  0  0  0  0  0
  137.2060   69.2410  224.9500 O   0  0  0  0  0  0  0  0  0  0  0  0
  139.4000   69.3840  225.8200 N   0  0  0  0  0  0  0  0  0  0  0  0
  140.8340   69.6850  225.7680 C   0  0  0  0  0  0  0  0  0  0  0  0
  141.4200   68.4750  226.4810 C   0  0  0  0  0  0  0  0  0  0  0  0
  140.2820   67.7830  227.1970 C   0  0  0  0  0  0  0  0  0  0  0  0
  139.2070   68.8840  227.1900 C   0  0  0  0  0  0  0  0  0  0  0  0
  139.2430   71.3360  223.2900 C   0  0  0  0  0  0  0  0  0  0  0  0
  139.2870   74.1000  222.3330 N   0  0  0  0  0  0  0  0  0  0  0  0
  139.5270   75.4890  222.2770 C   0  0  0  0  0  0  0  0  0  0  0  0
  138.6830   76.4480  222.7810 C   0  0  0  0  0  0  0  0  0  0  0  0
  138.9670   77.8140  222.7020 C   0  0  0  0  0  0  0  0  0  0  0  0
  140.1300   78.2280  222.0990 C   0  0  0  0  0  0  0  0  0  0  0  0
  140.5260   79.5730  221.9510 N   0  0  0  0  0  0  0  0  0  0  0  0
  140.6730   80.4200  220.7870 C   0  0  0  0  0  0  0  0  0  0  0  0
  141.8270   81.3610  221.1230 C   0  0  0  0  0  0  0  0  0  0  0  0
  142.1250   81.1110  222.5730 C   0  0  0  0  0  0  0  0  0  0  0  0
  140.8640   80.4460  223.0790 C   0  0  0  0  0  0  0  0  0  0  0  0
  140.9900   77.2490  221.5830 C   0  0  0  0  0  0  0  0  0  0  0  0
  140.6940   75.9040  221.6700 C   0  0  0  0  0  0  0  0  0  0  0  0
  141.3013   73.0484  220.1519 H   0  0  0  0  0  0  0  0  0  0  0  0
  142.1621   72.9495  221.7250 H   0  0  0  0  0  0  0  0  0  0  0  0
  139.9807   71.2326  219.9971 H   0  0  0  0  0  0  0  0  0  0  0  0
  139.2931   68.8831  220.3163 H   0  0  0  0  0  0  0  0  0  0  0  0
  138.5639   68.1131  222.5816 H   0  0  0  0  0  0  0  0  0  0  0  0
  141.1934   69.7540  224.7307 H   0  0  0  0  0  0  0  0  0  0  0  0
  141.1080   70.6498  226.2197 H   0  0  0  0  0  0  0  0  0  0  0  0
  141.8765   67.7914  225.7500 H   0  0  0  0  0  0  0  0  0  0  0  0
  142.2003   68.7816  227.1931 H   0  0  0  0  0  0  0  0  0  0  0  0
  139.9466   66.8893  226.6504 H   0  0  0  0  0  0  0  0  0  0  0  0
  140.5402   67.4120  228.1999 H   0  0  0  0  0  0  0  0  0  0  0  0
  138.1970   68.4755  227.3417 H   0  0  0  0  0  0  0  0  0  0  0  0
  139.2962   69.6379  227.9861 H   0  0  0  0  0  0  0  0  0  0  0  0
  139.2294   72.0384  224.1364 H   0  0  0  0  0  0  0  0  0  0  0  0
  137.7482   76.1289  223.2651 H   0  0  0  0  0  0  0  0  0  0  0  0
  138.2654   78.5515  223.1190 H   0  0  0  0  0  0  0  0  0  0  0  0
  140.9124   79.8172  219.8986 H   0  0  0  0  0  0  0  0  0  0  0  0
  139.7477   80.9684  220.5569 H   0  0  0  0  0  0  0  0  0  0  0  0
  142.7059   81.1312  220.5028 H   0  0  0  0  0  0  0  0  0  0  0  0
  141.5708   82.4132  220.9300 H   0  0  0  0  0  0  0  0  0  0  0  0
  142.9940   80.4464  222.6876 H   0  0  0  0  0  0  0  0  0  0  0  0
  142.3782   82.0285  223.1244 H   0  0  0  0  0  0  0  0  0  0  0  0
  141.0542   79.8659  223.9940 H   0  0  0  0  0  0  0  0  0  0  0  0
  140.0657   81.1490  223.3590 H   0  0  0  0  0  0  0  0  0  0  0  0
  141.9256   77.5610  221.0958 H   0  0  0  0  0  0  0  0  0  0  0  0
  1  2  2  0
  2  3  1  0
  3  4  1  0
  4  5  1  0
  5  6  2  0
  6  7  1  0
  7  8  2  0
  8  9  1  0
  9 10  1  0
 10 11  2  0
 10 12  1  0
 12 13  1  0
 13 14  1  0
 14 15  1  0
 15 16  1  0
  9 17  2  0
  4 18  2  0
 18 19  1  0
 19 20  2  0
 20 21  1  0
 21 22  2  0
 22 23  1  0
 23 24  1  0
 24 25  1  0
 25 26  1  0
 26 27  1  0
 22 28  1  0
 28 29  2  0
 29  2  1  0
 17  5  1  0
 29 19  1  0
 16 12  1  0
 27 23  1  0
  3 30  1  0
  3 31  1  0
  6 32  1  0
  7 33  1  0
  8 34  1  0
 13 35  1  0
 13 36  1  0
 14 37  1  0
 14 38  1  0
 15 39  1  0
 15 40  1  0
 16 41  1  0
 16 42  1  0
 17 43  1  0
 20 44  1  0
 21 45  1  0
 24 46  1  0
 24 47  1  0
 25 48  1  0
 25 49  1  0
 26 50  1  0
 26 51  1  0
 27 52  1  0
 27 53  1  0
 28 54  1  0
M  END
>  <smiles>  (39) 
O=C1CC(c2cccc(C(=O)N3CCCC3)c2)=Nc2ccc(N3CCCC3)cc21

>  <score_type>  (39) 
oracle

>  <origin>  (39) 
autodockgpu

>  <m_score__min__energy>  (39) 
-8.5

>  <m_primary>  (39) 
energy

>  <rmsd>  (39) 
6.616524816859187

>  <m_score__min__rmsd>  (39) 
6.616524816859187

>  <meeko>  (39) 
{"free_energy": -7.57, "intermolecular_energy": -8.47, "internal_energy": -1.01, "cluster_size": 46, "cluster_id": 1, "rank_in_cluster": 46}

>  <energy>  (39) 
-7.86

>  <cluster_rmsd>  (39) 
1.23

>  <cluster>  (39) 
1

$$$$

     RDKit          3D

 54 58  0  0  0  0  0  0  0  0999 V2000
  142.8370   74.9220  220.6300 O   0  0  0  0  0  0  0  0  0  0  0  0
  141.7490   74.5380  221.1640 C   0  0  0  0  0  0  0  0  0  0  0  0
  141.5240   73.0720  221.2510 C   0  0  0  0  0  0  0  0  0  0  0  0
  140.2450   72.8170  221.9020 C   0  0  0  0  0  0  0  0  0  0  0  0
  139.8430   71.4210  222.1250 C   0  0  0  0  0  0  0  0  0  0  0  0
  139.5070   70.5850  221.0650 C   0  0  0  0  0  0  0  0  0  0  0  0
  139.1450   69.2720  221.2580 C   0  0  0  0  0  0  0  0  0  0  0  0
  139.1140   68.7650  222.5590 C   0  0  0  0  0  0  0  0  0  0  0  0
  139.4470   69.5770  223.6490 C   0  0  0  0  0  0  0  0  0  0  0  0
  139.4030   68.9840  224.9630 C   0  0  0  0  0  0  0  0  0  0  0  0
  139.1370   67.7420  225.0560 O   0  0  0  0  0  0  0  0  0  0  0  0
  139.6570   69.8020  226.0940 N   0  0  0  0  0  0  0  0  0  0  0  0
  139.9730   71.2330  226.1230 C   0  0  0  0  0  0  0  0  0  0  0  0
  141.0890   71.2730  227.1570 C   0  0  0  0  0  0  0  0  0  0  0  0
  141.0640   69.9510  227.8920 C   0  0  0  0  0  0  0  0  0  0  0  0
  139.6710   69.4210  227.5140 C   0  0  0  0  0  0  0  0  0  0  0  0
  139.7980   70.8710  223.4040 C   0  0  0  0  0  0  0  0  0  0  0  0
  139.4170   73.7120  222.3340 N   0  0  0  0  0  0  0  0  0  0  0  0
  139.6280   75.1050  222.2420 C   0  0  0  0  0  0  0  0  0  0  0  0
  138.7510   76.0590  222.6950 C   0  0  0  0  0  0  0  0  0  0  0  0
  139.0060   77.4280  222.5820 C   0  0  0  0  0  0  0  0  0  0  0  0
  140.1750   77.8510  221.9970 C   0  0  0  0  0  0  0  0  0  0  0  0
  140.5450   79.1990  221.8190 N   0  0  0  0  0  0  0  0  0  0  0  0
  140.6590   80.0270  220.6380 C   0  0  0  0  0  0  0  0  0  0  0  0
  141.8020   80.9930  220.9380 C   0  0  0  0  0  0  0  0  0  0  0  0
  142.1280   80.7750  222.3870 C   0  0  0  0  0  0  0  0  0  0  0  0
  140.8870   80.0970  222.9260 C   0  0  0  0  0  0  0  0  0  0  0  0
  141.0710   76.8760  221.5340 C   0  0  0  0  0  0  0  0  0  0  0  0
  140.8020   75.5280  221.6530 C   0  0  0  0  0  0  0  0  0  0  0  0
  141.5130   72.6415  220.2388 H   0  0  0  0  0  0  0  0  0  0  0  0
  142.3329   72.6099  221.8359 H   0  0  0  0  0  0  0  0  0  0  0  0
  139.5316   70.9862  220.0411 H   0  0  0  0  0  0  0  0  0  0  0  0
  138.8843   68.6321  220.4021 H   0  0  0  0  0  0  0  0  0  0  0  0
  138.8250   67.7173  222.7285 H   0  0  0  0  0  0  0  0  0  0  0  0
  140.3207   71.5882  225.1417 H   0  0  0  0  0  0  0  0  0  0  0  0
  139.1149   71.8783  226.3622 H   0  0  0  0  0  0  0  0  0  0  0  0
  142.0601   71.4090  226.6586 H   0  0  0  0  0  0  0  0  0  0  0  0
  140.9454   72.1111  227.8549 H   0  0  0  0  0  0  0  0  0  0  0  0
  141.8599   69.2789  227.5386 H   0  0  0  0  0  0  0  0  0  0  0  0
  141.2347   70.0352  228.9754 H   0  0  0  0  0  0  0  0  0  0  0  0
  139.5933   68.3322  227.6496 H   0  0  0  0  0  0  0  0  0  0  0  0
  138.8372   69.8108  228.1165 H   0  0  0  0  0  0  0  0  0  0  0  0
  140.0586   71.5128  224.2585 H   0  0  0  0  0  0  0  0  0  0  0  0
  137.8114   75.7331  223.1650 H   0  0  0  0  0  0  0  0  0  0  0  0
  138.2771   78.1609  222.9582 H   0  0  0  0  0  0  0  0  0  0  0  0
  140.8943   79.4122  219.7567 H   0  0  0  0  0  0  0  0  0  0  0  0
  139.7209   80.5558  220.4134 H   0  0  0  0  0  0  0  0  0  0  0  0
  142.6745   80.7666  220.3076 H   0  0  0  0  0  0  0  0  0  0  0  0
  141.5245   82.0370  220.7305 H   0  0  0  0  0  0  0  0  0  0  0  0
  143.0105   80.1280  222.4991 H   0  0  0  0  0  0  0  0  0  0  0  0
  142.3737   81.7068  222.9174 H   0  0  0  0  0  0  0  0  0  0  0  0
  141.1028   79.5361  223.8473 H   0  0  0  0  0  0  0  0  0  0  0  0
  140.0814   80.7911  223.2077 H   0  0  0  0  0  0  0  0  0  0  0  0
  142.0129   77.1946  221.0636 H   0  0  0  0  0  0  0  0  0  0  0  0
  1  2  2  0
  2  3  1  0
  3  4  1  0
  4  5  1  0
  5  6  2  0
  6  7  1  0
  7  8  2  0
  8  9  1  0
  9 10  1  0
 10 11  2  0
 10 12  1  0
 12 13  1  0
 13 14  1  0
 14 15  1  0
 15 16  1  0
  9 17  2  0
  4 18  2  0
 18 19  1  0
 19 20  2  0
 20 21  1  0
 21 22  2  0
 22 23  1  0
 23 24  1  0
 24 25  1  0
 25 26  1  0
 26 27  1  0
 22 28  1  0
 28 29  2  0
 29  2  1  0
 17  5  1  0
 29 19  1  0
 16 12  1  0
 27 23  1  0
  3 30  1  0
  3 31  1  0
  6 32  1  0
  7 33  1  0
  8 34  1  0
 13 35  1  0
 13 36  1  0
 14 37  1  0
 14 38  1  0
 15 39  1  0
 15 40  1  0
 16 41  1  0
 16 42  1  0
 17 43  1  0
 20 44  1  0
 21 45  1  0
 24 46  1  0
 24 47  1  0
 25 48  1  0
 25 49  1  0
 26 50  1  0
 26 51  1  0
 27 52  1  0
 27 53  1  0
 28 54  1  0
M  END
>  <smiles>  (40) 
O=C1CC(c2cccc(C(=O)N3CCCC3)c2)=Nc2ccc(N3CCCC3)cc21

>  <score_type>  (40) 
oracle

>  <origin>  (40) 
autodockgpu

>  <m_score__min__energy>  (40) 
-8.5

>  <m_primary>  (40) 
energy

>  <rmsd>  (40) 
6.273345765583625

>  <m_score__min__rmsd>  (40) 
6.273345765583625

>  <meeko>  (40) 
{"free_energy": -8.49, "intermolecular_energy": -9.39, "internal_energy": -0.58, "cluster_size": 46, "cluster_id": 1, "rank_in_cluster": 7}

>  <energy>  (40) 
-7.86

>  <cluster_rmsd>  (40) 
1.24

>  <cluster>  (40) 
1

$$$$

     RDKit          3D

 54 58  0  0  0  0  0  0  0  0999 V2000
  143.1870   75.4470  219.8080 O   0  0  0  0  0  0  0  0  0  0  0  0
  142.1910   75.1430  220.5370 C   0  0  0  0  0  0  0  0  0  0  0  0
  141.8680   73.6990  220.6630 C   0  0  0  0  0  0  0  0  0  0  0  0
  140.7170   73.5360  221.5420 C   0  0  0  0  0  0  0  0  0  0  0  0
  140.2520   72.1730  221.8360 C   0  0  0  0  0  0  0  0  0  0  0  0
  140.3370   71.1580  220.8880 C   0  0  0  0  0  0  0  0  0  0  0  0
  139.9210   69.8740  221.1550 C   0  0  0  0  0  0  0  0  0  0  0  0
  139.3970   69.5830  222.4170 C   0  0  0  0  0  0  0  0  0  0  0  0
  139.2970   70.5800  223.3940 C   0  0  0  0  0  0  0  0  0  0  0  0
  138.7550   70.2050  224.6770 C   0  0  0  0  0  0  0  0  0  0  0  0
  137.4890   70.1690  224.8120 O   0  0  0  0  0  0  0  0  0  0  0  0
  139.6480   69.8940  225.7340 N   0  0  0  0  0  0  0  0  0  0  0  0
  141.1150   69.8960  225.7110 C   0  0  0  0  0  0  0  0  0  0  0  0
  141.4280   68.6160  226.4720 C   0  0  0  0  0  0  0  0  0  0  0  0
  140.1590   68.1930  227.1780 C   0  0  0  0  0  0  0  0  0  0  0  0
  139.3300   69.4870  227.1110 C   0  0  0  0  0  0  0  0  0  0  0  0
  139.7220   71.8350  223.0790 C   0  0  0  0  0  0  0  0  0  0  0  0
  140.0600   74.4870  222.1220 N   0  0  0  0  0  0  0  0  0  0  0  0
  140.3620   75.8590  221.9930 C   0  0  0  0  0  0  0  0  0  0  0  0
  139.6650   76.8730  222.6030 C   0  0  0  0  0  0  0  0  0  0  0  0
  140.0050   78.2190  222.4460 C   0  0  0  0  0  0  0  0  0  0  0  0
  141.0750   78.5570  221.6520 C   0  0  0  0  0  0  0  0  0  0  0  0
  141.5130   79.8740  221.4090 N   0  0  0  0  0  0  0  0  0  0  0  0
  141.8270   80.9730  222.2950 C   0  0  0  0  0  0  0  0  0  0  0  0
  141.4340   82.2310  221.5240 C   0  0  0  0  0  0  0  0  0  0  0  0
  141.1100   81.7540  220.1380 C   0  0  0  0  0  0  0  0  0  0  0  0
  141.7840   80.4010  220.0680 C   0  0  0  0  0  0  0  0  0  0  0  0
  141.7860   77.5210  221.0280 C   0  0  0  0  0  0  0  0  0  0  0  0
  141.4350   76.1980  221.1950 C   0  0  0  0  0  0  0  0  0  0  0  0
  141.6330   73.2874  219.6703 H   0  0  0  0  0  0  0  0  0  0  0  0
  142.7317   73.1645  221.0852 H   0  0  0  0  0  0  0  0  0  0  0  0
  140.7494   71.3892  219.8948 H   0  0  0  0  0  0  0  0  0  0  0  0
  139.9997   69.0897  220.3877 H   0  0  0  0  0  0  0  0  0  0  0  0
  139.0600   68.5610  222.6448 H   0  0  0  0  0  0  0  0  0  0  0  0
  141.5015   69.8571  224.6819 H   0  0  0  0  0  0  0  0  0  0  0  0
  141.5706   70.7992  226.1429 H   0  0  0  0  0  0  0  0  0  0  0  0
  141.7495   67.8306  225.7721 H   0  0  0  0  0  0  0  0  0  0  0  0
  142.2405   68.7806  227.1950 H   0  0  0  0  0  0  0  0  0  0  0  0
  139.6601   67.3675  226.6491 H   0  0  0  0  0  0  0  0  0  0  0  0
  140.3169   67.8119  228.1977 H   0  0  0  0  0  0  0  0  0  0  0  0
  138.2553   69.2956  227.2466 H   0  0  0  0  0  0  0  0  0  0  0  0
  139.5540   70.2327  227.8880 H   0  0  0  0  0  0  0  0  0  0  0  0
  139.6428   72.6210  223.8445 H   0  0  0  0  0  0  0  0  0  0  0  0
  138.8058   76.6155  223.2398 H   0  0  0  0  0  0  0  0  0  0  0  0
  139.4216   79.0014  222.9533 H   0  0  0  0  0  0  0  0  0  0  0  0
  141.2482   80.8949  223.2272 H   0  0  0  0  0  0  0  0  0  0  0  0
  142.8889   80.9805  222.5817 H   0  0  0  0  0  0  0  0  0  0  0  0
  140.5556   82.7073  221.9839 H   0  0  0  0  0  0  0  0  0  0  0  0
  142.2371   82.9827  221.5243 H   0  0  0  0  0  0  0  0  0  0  0  0
  140.0230   81.6603  219.9977 H   0  0  0  0  0  0  0  0  0  0  0  0
  141.4519   82.4459  219.3542 H   0  0  0  0  0  0  0  0  0  0  0  0
  141.3354   79.7677  219.2884 H   0  0  0  0  0  0  0  0  0  0  0  0
  142.8521   80.4432  219.8084 H   0  0  0  0  0  0  0  0  0  0  0  0
  142.6458   77.7706  220.3889 H   0  0  0  0  0  0  0  0  0  0  0  0
  1  2  2  0
  2  3  1  0
  3  4  1  0
  4  5  1  0
  5  6  2  0
  6  7  1  0
  7  8  2  0
  8  9  1  0
  9 10  1  0
 10 11  2  0
 10 12  1  0
 12 13  1  0
 13 14  1  0
 14 15  1  0
 15 16  1  0
  9 17  2  0
  4 18  2  0
 18 19  1  0
 19 20  2  0
 20 21  1  0
 21 22  2  0
 22 23  1  0
 23 24  1  0
 24 25  1  0
 25 26  1  0
 26 27  1  0
 22 28  1  0
 28 29  2  0
 29  2  1  0
 17  5  1  0
 29 19  1  0
 16 12  1  0
 27 23  1  0
  3 30  1  0
  3 31  1  0
  6 32  1  0
  7 33  1  0
  8 34  1  0
 13 35  1  0
 13 36  1  0
 14 37  1  0
 14 38  1  0
 15 39  1  0
 15 40  1  0
 16 41  1  0
 16 42  1  0
 17 43  1  0
 20 44  1  0
 21 45  1  0
 24 46  1  0
 24 47  1  0
 25 48  1  0
 25 49  1  0
 26 50  1  0
 26 51  1  0
 27 52  1  0
 27 53  1  0
 28 54  1  0
M  END
>  <smiles>  (41) 
O=C1CC(c2cccc(C(=O)N3CCCC3)c2)=Nc2ccc(N3CCCC3)cc21

>  <score_type>  (41) 
oracle

>  <origin>  (41) 
autodockgpu

>  <m_score__min__energy>  (41) 
-8.5

>  <m_primary>  (41) 
energy

>  <rmsd>  (41) 
6.95353555444669

>  <m_score__min__rmsd>  (41) 
6.95353555444669

>  <meeko>  (41) 
{"free_energy": -7.86, "intermolecular_energy": -8.75, "internal_energy": -1.01, "cluster_size": 46, "cluster_id": 1, "rank_in_cluster": 35}

>  <energy>  (41) 
-7.86

>  <cluster_rmsd>  (41) 
1.23

>  <cluster>  (41) 
1

$$$$

     RDKit          3D

 54 58  0  0  0  0  0  0  0  0999 V2000
  142.8180   74.8780  220.6550 O   0  0  0  0  0  0  0  0  0  0  0  0
  141.7250   74.5010  221.1840 C   0  0  0  0  0  0  0  0  0  0  0  0
  141.4900   73.0360  221.2660 C   0  0  0  0  0  0  0  0  0  0  0  0
  140.2080   72.7870  221.9120 C   0  0  0  0  0  0  0  0  0  0  0  0
  139.7960   71.3930  222.1290 C   0  0  0  0  0  0  0  0  0  0  0  0
  139.4400   70.5680  221.0660 C   0  0  0  0  0  0  0  0  0  0  0  0
  139.0690   69.2570  221.2540 C   0  0  0  0  0  0  0  0  0  0  0  0
  139.0490   68.7400  222.5510 C   0  0  0  0  0  0  0  0  0  0  0  0
  139.4010   69.5420  223.6440 C   0  0  0  0  0  0  0  0  0  0  0  0
  139.3670   68.9390  224.9530 C   0  0  0  0  0  0  0  0  0  0  0  0
  139.0900   67.6980  225.0410 O   0  0  0  0  0  0  0  0  0  0  0  0
  139.6400   69.7460  226.0870 N   0  0  0  0  0  0  0  0  0  0  0  0
  139.9690   71.1750  226.1240 C   0  0  0  0  0  0  0  0  0  0  0  0
  141.0960   71.1970  227.1450 C   0  0  0  0  0  0  0  0  0  0  0  0
  141.0680   69.8700  227.8700 C   0  0  0  0  0  0  0  0  0  0  0  0
  139.6660   69.3550  227.5050 C   0  0  0  0  0  0  0  0  0  0  0  0
  139.7600   70.8330  223.4040 C   0  0  0  0  0  0  0  0  0  0  0  0
  139.3840   73.6860  222.3430 N   0  0  0  0  0  0  0  0  0  0  0  0
  139.6040   75.0770  222.2550 C   0  0  0  0  0  0  0  0  0  0  0  0
  138.7310   76.0360  222.7080 C   0  0  0  0  0  0  0  0  0  0  0  0
  138.9950   77.4040  222.6000 C   0  0  0  0  0  0  0  0  0  0  0  0
  140.1700   77.8210  222.0210 C   0  0  0  0  0  0  0  0  0  0  0  0
  140.5490   79.1670  221.8480 N   0  0  0  0  0  0  0  0  0  0  0  0
  140.6950   79.9920  220.6680 C   0  0  0  0  0  0  0  0  0  0  0  0
  141.8340   80.9540  220.9930 C   0  0  0  0  0  0  0  0  0  0  0  0
  142.1240   80.7380  222.4500 C   0  0  0  0  0  0  0  0  0  0  0  0
  140.8680   80.0670  222.9600 C   0  0  0  0  0  0  0  0  0  0  0  0
  141.0610   76.8410  221.5580 C   0  0  0  0  0  0  0  0  0  0  0  0
  140.7830   75.4950  221.6720 C   0  0  0  0  0  0  0  0  0  0  0  0
  141.4794   72.6087  220.2524 H   0  0  0  0  0  0  0  0  0  0  0  0
  142.2941   72.5671  221.8522 H   0  0  0  0  0  0  0  0  0  0  0  0
  139.4558   70.9768  220.0449 H   0  0  0  0  0  0  0  0  0  0  0  0
  138.7925   68.6260  220.3965 H   0  0  0  0  0  0  0  0  0  0  0  0
  138.7541   67.6932  222.7158 H   0  0  0  0  0  0  0  0  0  0  0  0
  140.3088   71.5352  225.1418 H   0  0  0  0  0  0  0  0  0  0  0  0
  139.1193   71.8257  226.3780 H   0  0  0  0  0  0  0  0  0  0  0  0
  142.0626   71.3285  226.6367 H   0  0  0  0  0  0  0  0  0  0  0  0
  140.9673   72.0307  227.8510 H   0  0  0  0  0  0  0  0  0  0  0  0
  141.8536   69.1937  227.5019 H   0  0  0  0  0  0  0  0  0  0  0  0
  141.2524   69.9445  228.9519 H   0  0  0  0  0  0  0  0  0  0  0  0
  139.5799   68.2660  227.6344 H   0  0  0  0  0  0  0  0  0  0  0  0
  138.8426   69.7479  228.1195 H   0  0  0  0  0  0  0  0  0  0  0  0
  140.0356   71.4661  224.2603 H   0  0  0  0  0  0  0  0  0  0  0  0
  137.7877   75.7147  223.1737 H   0  0  0  0  0  0  0  0  0  0  0  0
  138.2691   78.1406  222.9749 H   0  0  0  0  0  0  0  0  0  0  0  0
  140.9490   79.3742  219.7940 H   0  0  0  0  0  0  0  0  0  0  0  0
  139.7648   80.5240  220.4198 H   0  0  0  0  0  0  0  0  0  0  0  0
  142.7205   80.7227  220.3843 H   0  0  0  0  0  0  0  0  0  0  0  0
  141.5659   81.9986  220.7764 H   0  0  0  0  0  0  0  0  0  0  0  0
  143.0007   80.0874  222.5849 H   0  0  0  0  0  0  0  0  0  0  0  0
  142.3609   81.6700  222.9841 H   0  0  0  0  0  0  0  0  0  0  0  0
  141.0589   79.5080  223.8880 H   0  0  0  0  0  0  0  0  0  0  0  0
  140.0588   80.7654  223.2196 H   0  0  0  0  0  0  0  0  0  0  0  0
  142.0066   77.1547  221.0916 H   0  0  0  0  0  0  0  0  0  0  0  0
  1  2  2  0
  2  3  1  0
  3  4  1  0
  4  5  1  0
  5  6  2  0
  6  7  1  0
  7  8  2  0
  8  9  1  0
  9 10  1  0
 10 11  2  0
 10 12  1  0
 12 13  1  0
 13 14  1  0
 14 15  1  0
 15 16  1  0
  9 17  2  0
  4 18  2  0
 18 19  1  0
 19 20  2  0
 20 21  1  0
 21 22  2  0
 22 23  1  0
 23 24  1  0
 24 25  1  0
 25 26  1  0
 26 27  1  0
 22 28  1  0
 28 29  2  0
 29  2  1  0
 17  5  1  0
 29 19  1  0
 16 12  1  0
 27 23  1  0
  3 30  1  0
  3 31  1  0
  6 32  1  0
  7 33  1  0
  8 34  1  0
 13 35  1  0
 13 36  1  0
 14 37  1  0
 14 38  1  0
 15 39  1  0
 15 40  1  0
 16 41  1  0
 16 42  1  0
 17 43  1  0
 20 44  1  0
 21 45  1  0
 24 46  1  0
 24 47  1  0
 25 48  1  0
 25 49  1  0
 26 50  1  0
 26 51  1  0
 27 52  1  0
 27 53  1  0
 28 54  1  0
M  END
>  <smiles>  (42) 
O=C1CC(c2cccc(C(=O)N3CCCC3)c2)=Nc2ccc(N3CCCC3)cc21

>  <score_type>  (42) 
oracle

>  <origin>  (42) 
autodockgpu

>  <m_score__min__energy>  (42) 
-8.5

>  <m_primary>  (42) 
energy

>  <rmsd>  (42) 
6.2558586271865995

>  <m_score__min__rmsd>  (42) 
6.2558586271865995

>  <meeko>  (42) 
{"free_energy": -8.48, "intermolecular_energy": -9.38, "internal_energy": -0.58, "cluster_size": 46, "cluster_id": 1, "rank_in_cluster": 9}

>  <energy>  (42) 
-7.8

>  <cluster_rmsd>  (42) 
1.11

>  <cluster>  (42) 
1

$$$$

     RDKit          3D

 54 58  0  0  0  0  0  0  0  0999 V2000
  142.8520   74.9580  220.6080 O   0  0  0  0  0  0  0  0  0  0  0  0
  141.7720   74.5660  221.1510 C   0  0  0  0  0  0  0  0  0  0  0  0
  141.5550   73.0980  221.2290 C   0  0  0  0  0  0  0  0  0  0  0  0
  140.2850   72.8320  221.8920 C   0  0  0  0  0  0  0  0  0  0  0  0
  139.8920   71.4320  222.1100 C   0  0  0  0  0  0  0  0  0  0  0  0
  139.6310   70.5780  221.0420 C   0  0  0  0  0  0  0  0  0  0  0  0
  139.2780   69.2620  221.2300 C   0  0  0  0  0  0  0  0  0  0  0  0
  139.1810   68.7690  222.5340 C   0  0  0  0  0  0  0  0  0  0  0  0
  139.4380   69.6000  223.6310 C   0  0  0  0  0  0  0  0  0  0  0  0
  139.3280   69.0210  224.9470 C   0  0  0  0  0  0  0  0  0  0  0  0
  138.9810   67.7990  225.0430 O   0  0  0  0  0  0  0  0  0  0  0  0
  139.6080   69.8310  226.0780 N   0  0  0  0  0  0  0  0  0  0  0  0
  140.0140   71.2390  226.1050 C   0  0  0  0  0  0  0  0  0  0  0  0
  141.1070   71.2160  227.1630 C   0  0  0  0  0  0  0  0  0  0  0  0
  140.9820   69.9050  227.9060 C   0  0  0  0  0  0  0  0  0  0  0  0
  139.5670   69.4610  227.5010 C   0  0  0  0  0  0  0  0  0  0  0  0
  139.7820   70.8960  223.3900 C   0  0  0  0  0  0  0  0  0  0  0  0
  139.4580   73.7190  222.3390 N   0  0  0  0  0  0  0  0  0  0  0  0
  139.6600   75.1130  222.2550 C   0  0  0  0  0  0  0  0  0  0  0  0
  138.7830   76.0590  222.7240 C   0  0  0  0  0  0  0  0  0  0  0  0
  139.0300   77.4310  222.6190 C   0  0  0  0  0  0  0  0  0  0  0  0
  140.1910   77.8640  222.0250 C   0  0  0  0  0  0  0  0  0  0  0  0
  140.5520   79.2150  221.8520 N   0  0  0  0  0  0  0  0  0  0  0  0
  141.4010   79.8780  220.8860 C   0  0  0  0  0  0  0  0  0  0  0  0
  142.0310   81.0440  221.6440 C   0  0  0  0  0  0  0  0  0  0  0  0
  141.3180   81.0830  222.9640 C   0  0  0  0  0  0  0  0  0  0  0  0
  140.0500   80.3010  222.6990 C   0  0  0  0  0  0  0  0  0  0  0  0
  141.0860   76.8970  221.5440 C   0  0  0  0  0  0  0  0  0  0  0  0
  140.8250   75.5470  221.6570 C   0  0  0  0  0  0  0  0  0  0  0  0
  141.5347   72.6754  220.2136 H   0  0  0  0  0  0  0  0  0  0  0  0
  142.3726   72.6352  221.8011 H   0  0  0  0  0  0  0  0  0  0  0  0
  139.7095   70.9676  220.0163 H   0  0  0  0  0  0  0  0  0  0  0  0
  139.0755   68.6087  220.3685 H   0  0  0  0  0  0  0  0  0  0  0  0
  138.9002   67.7185  222.7000 H   0  0  0  0  0  0  0  0  0  0  0  0
  140.4051   71.5637  225.1295 H   0  0  0  0  0  0  0  0  0  0  0  0
  139.1938   71.9395  226.3209 H   0  0  0  0  0  0  0  0  0  0  0  0
  142.0954   71.2858  226.6854 H   0  0  0  0  0  0  0  0  0  0  0  0
  141.0018   72.0671  227.8519 H   0  0  0  0  0  0  0  0  0  0  0  0
  141.7411   69.1809  227.5751 H   0  0  0  0  0  0  0  0  0  0  0  0
  141.1339   69.9874  228.9923 H   0  0  0  0  0  0  0  0  0  0  0  0
  139.4176   68.3803  227.6420 H   0  0  0  0  0  0  0  0  0  0  0  0
  138.7467   69.9073  228.0823 H   0  0  0  0  0  0  0  0  0  0  0  0
  139.9829   71.5518  224.2500 H   0  0  0  0  0  0  0  0  0  0  0  0
  137.8498   75.7247  223.2009 H   0  0  0  0  0  0  0  0  0  0  0  0
  138.3015   78.1574  223.0084 H   0  0  0  0  0  0  0  0  0  0  0  0
  142.1779   79.1912  220.5190 H   0  0  0  0  0  0  0  0  0  0  0  0
  140.8363   80.2164  220.0047 H   0  0  0  0  0  0  0  0  0  0  0  0
  143.1075   80.8722  221.7915 H   0  0  0  0  0  0  0  0  0  0  0  0
  141.9346   81.9925  221.0953 H   0  0  0  0  0  0  0  0  0  0  0  0
  141.9192   80.6038  223.7507 H   0  0  0  0  0  0  0  0  0  0  0  0
  141.1260   82.1063  223.3190 H   0  0  0  0  0  0  0  0  0  0  0  0
  139.6131   79.9148  223.6317 H   0  0  0  0  0  0  0  0  0  0  0  0
  139.2440   80.8929  222.2408 H   0  0  0  0  0  0  0  0  0  0  0  0
  142.0204   77.2236  221.0642 H   0  0  0  0  0  0  0  0  0  0  0  0
  1  2  2  0
  2  3  1  0
  3  4  1  0
  4  5  1  0
  5  6  2  0
  6  7  1  0
  7  8  2  0
  8  9  1  0
  9 10  1  0
 10 11  2  0
 10 12  1  0
 12 13  1  0
 13 14  1  0
 14 15  1  0
 15 16  1  0
  9 17  2  0
  4 18  2  0
 18 19  1  0
 19 20  2  0
 20 21  1  0
 21 22  2  0
 22 23  1  0
 23 24  1  0
 24 25  1  0
 25 26  1  0
 26 27  1  0
 22 28  1  0
 28 29  2  0
 29  2  1  0
 17  5  1  0
 29 19  1  0
 16 12  1  0
 27 23  1  0
  3 30  1  0
  3 31  1  0
  6 32  1  0
  7 33  1  0
  8 34  1  0
 13 35  1  0
 13 36  1  0
 14 37  1  0
 14 38  1  0
 15 39  1  0
 15 40  1  0
 16 41  1  0
 16 42  1  0
 17 43  1  0
 20 44  1  0
 21 45  1  0
 24 46  1  0
 24 47  1  0
 25 48  1  0
 25 49  1  0
 26 50  1  0
 26 51  1  0
 27 52  1  0
 27 53  1  0
 28 54  1  0
M  END
>  <smiles>  (43) 
O=C1CC(c2cccc(C(=O)N3CCCC3)c2)=Nc2ccc(N3CCCC3)cc21

>  <score_type>  (43) 
oracle

>  <origin>  (43) 
autodockgpu

>  <m_score__min__energy>  (43) 
-8.5

>  <m_primary>  (43) 
energy

>  <rmsd>  (43) 
6.281411996045495

>  <m_score__min__rmsd>  (43) 
6.281411996045495

>  <meeko>  (43) 
{"free_energy": -8.47, "intermolecular_energy": -9.36, "internal_energy": -0.58, "cluster_size": 46, "cluster_id": 1, "rank_in_cluster": 14}

>  <energy>  (43) 
-7.65

>  <cluster_rmsd>  (43) 
0.97

>  <cluster>  (43) 
1

$$$$

     RDKit          3D

 54 58  0  0  0  0  0  0  0  0999 V2000
  142.8060   74.9680  220.6130 O   0  0  0  0  0  0  0  0  0  0  0  0
  141.7300   74.5660  221.1570 C   0  0  0  0  0  0  0  0  0  0  0  0
  141.5240   73.0960  221.2320 C   0  0  0  0  0  0  0  0  0  0  0  0
  140.2580   72.8180  221.8960 C   0  0  0  0  0  0  0  0  0  0  0  0
  139.8760   71.4150  222.1110 C   0  0  0  0  0  0  0  0  0  0  0  0
  139.6210   70.5620  221.0410 C   0  0  0  0  0  0  0  0  0  0  0  0
  139.2790   69.2420  221.2260 C   0  0  0  0  0  0  0  0  0  0  0  0
  139.1870   68.7450  222.5290 C   0  0  0  0  0  0  0  0  0  0  0  0
  139.4380   69.5760  223.6280 C   0  0  0  0  0  0  0  0  0  0  0  0
  139.3340   68.9930  224.9430 C   0  0  0  0  0  0  0  0  0  0  0  0
  139.0040   67.7660  225.0360 O   0  0  0  0  0  0  0  0  0  0  0  0
  139.5990   69.8040  226.0760 N   0  0  0  0  0  0  0  0  0  0  0  0
  139.9850   71.2190  226.1060 C   0  0  0  0  0  0  0  0  0  0  0  0
  141.0760   71.2090  227.1660 C   0  0  0  0  0  0  0  0  0  0  0  0
  140.9690   69.8950  227.9070 C   0  0  0  0  0  0  0  0  0  0  0  0
  139.5610   69.4320  227.4980 C   0  0  0  0  0  0  0  0  0  0  0  0
  139.7720   70.8750  223.3900 C   0  0  0  0  0  0  0  0  0  0  0  0
  139.4240   73.6980  222.3470 N   0  0  0  0  0  0  0  0  0  0  0  0
  139.6150   75.0940  222.2660 C   0  0  0  0  0  0  0  0  0  0  0  0
  138.7310   76.0320  222.7390 C   0  0  0  0  0  0  0  0  0  0  0  0
  138.9670   77.4050  222.6370 C   0  0  0  0  0  0  0  0  0  0  0  0
  140.1240   77.8490  222.0420 C   0  0  0  0  0  0  0  0  0  0  0  0
  140.4740   79.2040  221.8720 N   0  0  0  0  0  0  0  0  0  0  0  0
  140.8270   79.9770  220.7010 C   0  0  0  0  0  0  0  0  0  0  0  0
  141.8320   81.0130  221.1970 C   0  0  0  0  0  0  0  0  0  0  0  0
  141.8210   80.8840  222.6920 C   0  0  0  0  0  0  0  0  0  0  0  0
  140.5160   80.1720  222.9720 C   0  0  0  0  0  0  0  0  0  0  0  0
  141.0260   76.8900  221.5580 C   0  0  0  0  0  0  0  0  0  0  0  0
  140.7760   75.5380  221.6670 C   0  0  0  0  0  0  0  0  0  0  0  0
  141.5053   72.6758  220.2156 H   0  0  0  0  0  0  0  0  0  0  0  0
  142.3460   72.6385  221.8021 H   0  0  0  0  0  0  0  0  0  0  0  0
  139.6951   70.9551  220.0163 H   0  0  0  0  0  0  0  0  0  0  0  0
  139.0814   68.5891  220.3630 H   0  0  0  0  0  0  0  0  0  0  0  0
  138.9150   67.6918  222.6928 H   0  0  0  0  0  0  0  0  0  0  0  0
  140.3733   71.5510  225.1318 H   0  0  0  0  0  0  0  0  0  0  0  0
  139.1546   71.9076  226.3213 H   0  0  0  0  0  0  0  0  0  0  0  0
  142.0642   71.2938  226.6903 H   0  0  0  0  0  0  0  0  0  0  0  0
  140.9568   72.0570  227.8564 H   0  0  0  0  0  0  0  0  0  0  0  0
  141.7390   69.1824  227.5764 H   0  0  0  0  0  0  0  0  0  0  0  0
  141.1181   69.9773  228.9937 H   0  0  0  0  0  0  0  0  0  0  0  0
  139.4264   68.3492  227.6374 H   0  0  0  0  0  0  0  0  0  0  0  0
  138.7336   69.8665  228.0781 H   0  0  0  0  0  0  0  0  0  0  0  0
  139.9694   71.5300  224.2514 H   0  0  0  0  0  0  0  0  0  0  0  0
  137.8013   75.6892  223.2166 H   0  0  0  0  0  0  0  0  0  0  0  0
  138.2334   78.1247  223.0293 H   0  0  0  0  0  0  0  0  0  0  0  0
  141.2831   79.3320  219.9355 H   0  0  0  0  0  0  0  0  0  0  0  0
  139.9473   80.4457  220.2358 H   0  0  0  0  0  0  0  0  0  0  0  0
  142.8348   80.7999  220.7984 H   0  0  0  0  0  0  0  0  0  0  0  0
  141.5711   82.0301  220.8692 H   0  0  0  0  0  0  0  0  0  0  0  0
  142.6773   80.2889  223.0422 H   0  0  0  0  0  0  0  0  0  0  0  0
  141.9015   81.8524  223.2075 H   0  0  0  0  0  0  0  0  0  0  0  0
  140.5336   79.6692  223.9502 H   0  0  0  0  0  0  0  0  0  0  0  0
  139.6414   80.8375  223.0196 H   0  0  0  0  0  0  0  0  0  0  0  0
  141.9576   77.2252  221.0787 H   0  0  0  0  0  0  0  0  0  0  0  0
  1  2  2  0
  2  3  1  0
  3  4  1  0
  4  5  1  0
  5  6  2  0
  6  7  1  0
  7  8  2  0
  8  9  1  0
  9 10  1  0
 10 11  2  0
 10 12  1  0
 12 13  1  0
 13 14  1  0
 14 15  1  0
 15 16  1  0
  9 17  2  0
  4 18  2  0
 18 19  1  0
 19 20  2  0
 20 21  1  0
 21 22  2  0
 22 23  1  0
 23 24  1  0
 24 25  1  0
 25 26  1  0
 26 27  1  0
 22 28  1  0
 28 29  2  0
 29  2  1  0
 17  5  1  0
 29 19  1  0
 16 12  1  0
 27 23  1  0
  3 30  1  0
  3 31  1  0
  6 32  1  0
  7 33  1  0
  8 34  1  0
 13 35  1  0
 13 36  1  0
 14 37  1  0
 14 38  1  0
 15 39  1  0
 15 40  1  0
 16 41  1  0
 16 42  1  0
 17 43  1  0
 20 44  1  0
 21 45  1  0
 24 46  1  0
 24 47  1  0
 25 48  1  0
 25 49  1  0
 26 50  1  0
 26 51  1  0
 27 52  1  0
 27 53  1  0
 28 54  1  0
M  END
>  <smiles>  (44) 
O=C1CC(c2cccc(C(=O)N3CCCC3)c2)=Nc2ccc(N3CCCC3)cc21

>  <score_type>  (44) 
oracle

>  <origin>  (44) 
autodockgpu

>  <m_score__min__energy>  (44) 
-8.5

>  <m_primary>  (44) 
energy

>  <rmsd>  (44) 
6.273129987454575

>  <m_score__min__rmsd>  (44) 
6.273129987454575

>  <meeko>  (44) 
{"free_energy": -8.48, "intermolecular_energy": -9.37, "internal_energy": -0.58, "cluster_size": 46, "cluster_id": 1, "rank_in_cluster": 12}

>  <energy>  (44) 
-7.63

>  <cluster_rmsd>  (44) 
1.01

>  <cluster>  (44) 
1

$$$$

     RDKit          3D

 54 58  0  0  0  0  0  0  0  0999 V2000
  143.1770   75.5160  219.7540 O   0  0  0  0  0  0  0  0  0  0  0  0
  142.1940   75.2090  220.5000 C   0  0  0  0  0  0  0  0  0  0  0  0
  141.8750   73.7630  220.6290 C   0  0  0  0  0  0  0  0  0  0  0  0
  140.7410   73.5970  221.5290 C   0  0  0  0  0  0  0  0  0  0  0  0
  140.2830   72.2330  221.8280 C   0  0  0  0  0  0  0  0  0  0  0  0
  140.3800   71.2130  220.8860 C   0  0  0  0  0  0  0  0  0  0  0  0
  139.9710   69.9280  221.1580 C   0  0  0  0  0  0  0  0  0  0  0  0
  139.4420   69.6410  222.4190 C   0  0  0  0  0  0  0  0  0  0  0  0
  139.3300   70.6430  223.3900 C   0  0  0  0  0  0  0  0  0  0  0  0
  138.7830   70.2720  224.6720 C   0  0  0  0  0  0  0  0  0  0  0  0
  137.5160   70.2450  224.8040 O   0  0  0  0  0  0  0  0  0  0  0  0
  139.6730   69.9550  225.7310 N   0  0  0  0  0  0  0  0  0  0  0  0
  141.1390   69.9480  225.7110 C   0  0  0  0  0  0  0  0  0  0  0  0
  141.4430   68.6660  226.4730 C   0  0  0  0  0  0  0  0  0  0  0  0
  140.1690   68.2510  227.1760 C   0  0  0  0  0  0  0  0  0  0  0  0
  139.3490   69.5510  227.1080 C   0  0  0  0  0  0  0  0  0  0  0  0
  139.7490   71.8990  223.0700 C   0  0  0  0  0  0  0  0  0  0  0  0
  140.0940   74.5460  222.1230 N   0  0  0  0  0  0  0  0  0  0  0  0
  140.3910   75.9190  221.9910 C   0  0  0  0  0  0  0  0  0  0  0  0
  139.7040   76.9300  222.6170 C   0  0  0  0  0  0  0  0  0  0  0  0
  140.0390   78.2770  222.4560 C   0  0  0  0  0  0  0  0  0  0  0  0
  141.0940   78.6180  221.6440 C   0  0  0  0  0  0  0  0  0  0  0  0
  141.5260   79.9360  221.3950 N   0  0  0  0  0  0  0  0  0  0  0  0
  141.8230   81.0440  222.2760 C   0  0  0  0  0  0  0  0  0  0  0  0
  141.4300   82.2930  221.4920 C   0  0  0  0  0  0  0  0  0  0  0  0
  141.1230   81.8040  220.1070 C   0  0  0  0  0  0  0  0  0  0  0  0
  141.8070   80.4560  220.0530 C   0  0  0  0  0  0  0  0  0  0  0  0
  141.7950   77.5850  221.0040 C   0  0  0  0  0  0  0  0  0  0  0  0
  141.4490   76.2600  221.1750 C   0  0  0  0  0  0  0  0  0  0  0  0
  141.6220   73.3532  219.6401 H   0  0  0  0  0  0  0  0  0  0  0  0
  142.7471   73.2285  221.0336 H   0  0  0  0  0  0  0  0  0  0  0  0
  140.7964   71.4413  219.8938 H   0  0  0  0  0  0  0  0  0  0  0  0
  140.0589   69.1398  220.3957 H   0  0  0  0  0  0  0  0  0  0  0  0
  139.1105   68.6181  222.6509 H   0  0  0  0  0  0  0  0  0  0  0  0
  141.5273   69.9066  224.6826 H   0  0  0  0  0  0  0  0  0  0  0  0
  141.5992   70.8485  226.1438 H   0  0  0  0  0  0  0  0  0  0  0  0
  141.7615   67.8786  225.7741 H   0  0  0  0  0  0  0  0  0  0  0  0
  142.2549   68.8256  227.1978 H   0  0  0  0  0  0  0  0  0  0  0  0
  139.6657   67.4294  226.6453 H   0  0  0  0  0  0  0  0  0  0  0  0
  140.3218   67.8680  228.1958 H   0  0  0  0  0  0  0  0  0  0  0  0
  138.2727   69.3673  227.2416 H   0  0  0  0  0  0  0  0  0  0  0  0
  139.5763   70.2952  227.8855 H   0  0  0  0  0  0  0  0  0  0  0  0
  139.6612   72.6888  223.8306 H   0  0  0  0  0  0  0  0  0  0  0  0
  138.8579   76.6695  223.2699 H   0  0  0  0  0  0  0  0  0  0  0  0
  139.4633   79.0577  222.9747 H   0  0  0  0  0  0  0  0  0  0  0  0
  141.2348   80.9689  223.2025 H   0  0  0  0  0  0  0  0  0  0  0  0
  142.8818   81.0609  222.5738 H   0  0  0  0  0  0  0  0  0  0  0  0
  140.5440   82.7671  221.9395 H   0  0  0  0  0  0  0  0  0  0  0  0
  142.2283   83.0497  221.4946 H   0  0  0  0  0  0  0  0  0  0  0  0
  140.0381   81.7014  219.9570 H   0  0  0  0  0  0  0  0  0  0  0  0
  141.4676   82.4928  219.3216 H   0  0  0  0  0  0  0  0  0  0  0  0
  141.3709   79.8143  219.2732 H   0  0  0  0  0  0  0  0  0  0  0  0
  142.8774   80.5041  219.8040 H   0  0  0  0  0  0  0  0  0  0  0  0
  142.6420   77.8376  220.3492 H   0  0  0  0  0  0  0  0  0  0  0  0
  1  2  2  0
  2  3  1  0
  3  4  1  0
  4  5  1  0
  5  6  2  0
  6  7  1  0
  7  8  2  0
  8  9  1  0
  9 10  1  0
 10 11  2  0
 10 12  1  0
 12 13  1  0
 13 14  1  0
 14 15  1  0
 15 16  1  0
  9 17  2  0
  4 18  2  0
 18 19  1  0
 19 20  2  0
 20 21  1  0
 21 22  2  0
 22 23  1  0
 23 24  1  0
 24 25  1  0
 25 26  1  0
 26 27  1  0
 22 28  1  0
 28 29  2  0
 29  2  1  0
 17  5  1  0
 29 19  1  0
 16 12  1  0
 27 23  1  0
  3 30  1  0
  3 31  1  0
  6 32  1  0
  7 33  1  0
  8 34  1  0
 13 35  1  0
 13 36  1  0
 14 37  1  0
 14 38  1  0
 15 39  1  0
 15 40  1  0
 16 41  1  0
 16 42  1  0
 17 43  1  0
 20 44  1  0
 21 45  1  0
 24 46  1  0
 24 47  1  0
 25 48  1  0
 25 49  1  0
 26 50  1  0
 26 51  1  0
 27 52  1  0
 27 53  1  0
 28 54  1  0
M  END
>  <smiles>  (45) 
O=C1CC(c2cccc(C(=O)N3CCCC3)c2)=Nc2ccc(N3CCCC3)cc21

>  <score_type>  (45) 
oracle

>  <origin>  (45) 
autodockgpu

>  <m_score__min__energy>  (45) 
-8.5

>  <m_primary>  (45) 
energy

>  <rmsd>  (45) 
6.987805647028576

>  <m_score__min__rmsd>  (45) 
6.987805647028576

>  <meeko>  (45) 
{"free_energy": -7.86, "intermolecular_energy": -8.75, "internal_energy": -1.01, "cluster_size": 46, "cluster_id": 1, "rank_in_cluster": 36}

>  <energy>  (45) 
-7.6

>  <cluster_rmsd>  (45) 
1.95

>  <cluster>  (45) 
1

$$$$

     RDKit          3D

 54 58  0  0  0  0  0  0  0  0999 V2000
  142.8700   74.9120  220.6300 O   0  0  0  0  0  0  0  0  0  0  0  0
  141.7820   74.5350  221.1670 C   0  0  0  0  0  0  0  0  0  0  0  0
  141.5440   73.0710  221.2470 C   0  0  0  0  0  0  0  0  0  0  0  0
  140.2670   72.8230  221.9030 C   0  0  0  0  0  0  0  0  0  0  0  0
  139.8530   71.4290  222.1200 C   0  0  0  0  0  0  0  0  0  0  0  0
  139.5120   70.6010  221.0560 C   0  0  0  0  0  0  0  0  0  0  0  0
  139.1390   69.2900  221.2430 C   0  0  0  0  0  0  0  0  0  0  0  0
  139.1030   68.7770  222.5420 C   0  0  0  0  0  0  0  0  0  0  0  0
  139.4410   69.5830  223.6360 C   0  0  0  0  0  0  0  0  0  0  0  0
  139.3910   68.9840  224.9470 C   0  0  0  0  0  0  0  0  0  0  0  0
  139.1140   67.7440  225.0350 O   0  0  0  0  0  0  0  0  0  0  0  0
  139.6500   69.7960  226.0820 N   0  0  0  0  0  0  0  0  0  0  0  0
  139.9790   71.2240  226.1170 C   0  0  0  0  0  0  0  0  0  0  0  0
  141.0940   71.2490  227.1520 C   0  0  0  0  0  0  0  0  0  0  0  0
  141.0570   69.9250  227.8810 C   0  0  0  0  0  0  0  0  0  0  0  0
  139.6600   69.4090  227.5000 C   0  0  0  0  0  0  0  0  0  0  0  0
  139.8020   70.8740  223.3970 C   0  0  0  0  0  0  0  0  0  0  0  0
  139.4500   73.7230  222.3450 N   0  0  0  0  0  0  0  0  0  0  0  0
  139.6720   75.1140  222.2600 C   0  0  0  0  0  0  0  0  0  0  0  0
  138.8060   76.0730  222.7230 C   0  0  0  0  0  0  0  0  0  0  0  0
  139.0730   77.4410  222.6170 C   0  0  0  0  0  0  0  0  0  0  0  0
  140.2430   77.8560  222.0290 C   0  0  0  0  0  0  0  0  0  0  0  0
  140.6250   79.2020  221.8560 N   0  0  0  0  0  0  0  0  0  0  0  0
  141.4620   79.8570  220.8750 C   0  0  0  0  0  0  0  0  0  0  0  0
  142.1310   81.0060  221.6250 C   0  0  0  0  0  0  0  0  0  0  0  0
  141.4490   81.0490  222.9610 C   0  0  0  0  0  0  0  0  0  0  0  0
  140.1610   80.2920  222.7210 C   0  0  0  0  0  0  0  0  0  0  0  0
  141.1270   76.8760  221.5540 C   0  0  0  0  0  0  0  0  0  0  0  0
  140.8470   75.5310  221.6670 C   0  0  0  0  0  0  0  0  0  0  0  0
  141.5238   72.6466  220.2324 H   0  0  0  0  0  0  0  0  0  0  0  0
  142.3518   72.5987  221.8253 H   0  0  0  0  0  0  0  0  0  0  0  0
  139.5414   71.0065  220.0339 H   0  0  0  0  0  0  0  0  0  0  0  0
  138.8736   68.6562  220.3840 H   0  0  0  0  0  0  0  0  0  0  0  0
  138.8065   67.7306  222.7068 H   0  0  0  0  0  0  0  0  0  0  0  0
  140.3310   71.5801  225.1375 H   0  0  0  0  0  0  0  0  0  0  0  0
  139.1267   71.8764  226.3578 H   0  0  0  0  0  0  0  0  0  0  0  0
  142.0667   71.3785  226.6550 H   0  0  0  0  0  0  0  0  0  0  0  0
  140.9569   72.0850  227.8536 H   0  0  0  0  0  0  0  0  0  0  0  0
  141.8472   69.2474  227.5253 H   0  0  0  0  0  0  0  0  0  0  0  0
  141.2278   70.0031  228.9648 H   0  0  0  0  0  0  0  0  0  0  0  0
  139.5727   68.3203  227.6309 H   0  0  0  0  0  0  0  0  0  0  0  0
  138.8294   69.8036  228.1036 H   0  0  0  0  0  0  0  0  0  0  0  0
  140.0665   71.5102  224.2545 H   0  0  0  0  0  0  0  0  0  0  0  0
  137.8658   75.7527  223.1956 H   0  0  0  0  0  0  0  0  0  0  0  0
  138.3528   78.1785  223.0009 H   0  0  0  0  0  0  0  0  0  0  0  0
  142.2174   79.1592  220.4846 H   0  0  0  0  0  0  0  0  0  0  0  0
  140.8821   80.2121  220.0103 H   0  0  0  0  0  0  0  0  0  0  0  0
  143.2071   80.8134  221.7466 H   0  0  0  0  0  0  0  0  0  0  0  0
  142.0402   81.9598  221.0845 H   0  0  0  0  0  0  0  0  0  0  0  0
  142.0592   80.5538  223.7307 H   0  0  0  0  0  0  0  0  0  0  0  0
  141.2837   82.0733  223.3263 H   0  0  0  0  0  0  0  0  0  0  0  0
  139.7385   79.9079  223.6612 H   0  0  0  0  0  0  0  0  0  0  0  0
  139.3552   80.9009  222.2853 H   0  0  0  0  0  0  0  0  0  0  0  0
  142.0684   77.1890  221.0788 H   0  0  0  0  0  0  0  0  0  0  0  0
  1  2  2  0
  2  3  1  0
  3  4  1  0
  4  5  1  0
  5  6  2  0
  6  7  1  0
  7  8  2  0
  8  9  1  0
  9 10  1  0
 10 11  2  0
 10 12  1  0
 12 13  1  0
 13 14  1  0
 14 15  1  0
 15 16  1  0
  9 17  2  0
  4 18  2  0
 18 19  1  0
 19 20  2  0
 20 21  1  0
 21 22  2  0
 22 23  1  0
 23 24  1  0
 24 25  1  0
 25 26  1  0
 26 27  1  0
 22 28  1  0
 28 29  2  0
 29  2  1  0
 17  5  1  0
 29 19  1  0
 16 12  1  0
 27 23  1  0
  3 30  1  0
  3 31  1  0
  6 32  1  0
  7 33  1  0
  8 34  1  0
 13 35  1  0
 13 36  1  0
 14 37  1  0
 14 38  1  0
 15 39  1  0
 15 40  1  0
 16 41  1  0
 16 42  1  0
 17 43  1  0
 20 44  1  0
 21 45  1  0
 24 46  1  0
 24 47  1  0
 25 48  1  0
 25 49  1  0
 26 50  1  0
 26 51  1  0
 27 52  1  0
 27 53  1  0
 28 54  1  0
M  END
>  <smiles>  (46) 
O=C1CC(c2cccc(C(=O)N3CCCC3)c2)=Nc2ccc(N3CCCC3)cc21

>  <score_type>  (46) 
oracle

>  <origin>  (46) 
autodockgpu

>  <m_score__min__energy>  (46) 
-8.5

>  <m_primary>  (46) 
energy

>  <rmsd>  (46) 
6.27206880469404

>  <m_score__min__rmsd>  (46) 
6.27206880469404

>  <meeko>  (46) 
{"free_energy": -8.5, "intermolecular_energy": -9.4, "internal_energy": -0.58, "cluster_size": 46, "cluster_id": 1, "rank_in_cluster": 1}

>  <energy>  (46) 
-7.57

>  <cluster_rmsd>  (46) 
0.93

>  <cluster>  (46) 
1

$$$$

     RDKit          3D

 54 58  0  0  0  0  0  0  0  0999 V2000
  142.8140   74.9160  220.6500 O   0  0  0  0  0  0  0  0  0  0  0  0
  141.7190   74.5520  221.1810 C   0  0  0  0  0  0  0  0  0  0  0  0
  141.4630   73.0910  221.2600 C   0  0  0  0  0  0  0  0  0  0  0  0
  140.1800   72.8580  221.9090 C   0  0  0  0  0  0  0  0  0  0  0  0
  139.7490   71.4690  222.1240 C   0  0  0  0  0  0  0  0  0  0  0  0
  139.3540   70.6600  221.0630 C   0  0  0  0  0  0  0  0  0  0  0  0
  138.9640   69.3540  221.2470 C   0  0  0  0  0  0  0  0  0  0  0  0
  138.9660   68.8250  222.5410 C   0  0  0  0  0  0  0  0  0  0  0  0
  139.3580   69.6110  223.6310 C   0  0  0  0  0  0  0  0  0  0  0  0
  139.3450   68.9970  224.9360 C   0  0  0  0  0  0  0  0  0  0  0  0
  139.0890   67.7510  225.0150 O   0  0  0  0  0  0  0  0  0  0  0  0
  139.6140   69.7990  226.0740 N   0  0  0  0  0  0  0  0  0  0  0  0
  139.9210   71.2320  226.1200 C   0  0  0  0  0  0  0  0  0  0  0  0
  141.0570   71.2640  227.1320 C   0  0  0  0  0  0  0  0  0  0  0  0
  141.0560   69.9310  227.8460 C   0  0  0  0  0  0  0  0  0  0  0  0
  139.6590   69.3960  227.4880 C   0  0  0  0  0  0  0  0  0  0  0  0
  139.7340   70.8980  223.3950 C   0  0  0  0  0  0  0  0  0  0  0  0
  139.3700   73.7670  222.3450 N   0  0  0  0  0  0  0  0  0  0  0  0
  139.6090   75.1550  222.2610 C   0  0  0  0  0  0  0  0  0  0  0  0
  138.7510   76.1250  222.7180 C   0  0  0  0  0  0  0  0  0  0  0  0
  139.0340   77.4890  222.6140 C   0  0  0  0  0  0  0  0  0  0  0  0
  140.2120   77.8910  222.0320 C   0  0  0  0  0  0  0  0  0  0  0  0
  140.6100   79.2320  221.8610 N   0  0  0  0  0  0  0  0  0  0  0  0
  141.6000   79.8510  221.0070 C   0  0  0  0  0  0  0  0  0  0  0  0
  142.1230   81.0440  221.8030 C   0  0  0  0  0  0  0  0  0  0  0  0
  141.2210   81.1410  222.9990 C   0  0  0  0  0  0  0  0  0  0  0  0
  139.9980   80.3550  222.5790 C   0  0  0  0  0  0  0  0  0  0  0  0
  141.0880   76.9010  221.5630 C   0  0  0  0  0  0  0  0  0  0  0  0
  140.7910   75.5580  221.6750 C   0  0  0  0  0  0  0  0  0  0  0  0
  141.4432   72.6667  220.2453 H   0  0  0  0  0  0  0  0  0  0  0  0
  142.2619   72.6094  221.8429 H   0  0  0  0  0  0  0  0  0  0  0  0
  139.3537   71.0780  220.0455 H   0  0  0  0  0  0  0  0  0  0  0  0
  138.6558   68.7363  220.3906 H   0  0  0  0  0  0  0  0  0  0  0  0
  138.6568   67.7820  222.7041 H   0  0  0  0  0  0  0  0  0  0  0  0
  140.2466   71.6053  225.1379 H   0  0  0  0  0  0  0  0  0  0  0  0
  139.0634   71.8670  226.3868 H   0  0  0  0  0  0  0  0  0  0  0  0
  142.0170   71.4150  226.6166 H   0  0  0  0  0  0  0  0  0  0  0  0
  140.9215   72.0899  227.8458 H   0  0  0  0  0  0  0  0  0  0  0  0
  141.8493   69.2705  227.4660 H   0  0  0  0  0  0  0  0  0  0  0  0
  141.2478   69.9997  228.9270 H   0  0  0  0  0  0  0  0  0  0  0  0
  139.5919   68.3047  227.6082 H   0  0  0  0  0  0  0  0  0  0  0  0
  138.8346   69.7699  228.1131 H   0  0  0  0  0  0  0  0  0  0  0  0
  140.0412   71.5179  224.2502 H   0  0  0  0  0  0  0  0  0  0  0  0
  137.8039   75.8158  223.1842 H   0  0  0  0  0  0  0  0  0  0  0  0
  138.3203   78.2345  222.9946 H   0  0  0  0  0  0  0  0  0  0  0  0
  142.4154   79.1461  220.7874 H   0  0  0  0  0  0  0  0  0  0  0  0
  141.1760   80.1559  220.0389 H   0  0  0  0  0  0  0  0  0  0  0  0
  143.1634   80.8729  222.1167 H   0  0  0  0  0  0  0  0  0  0  0  0
  142.1206   81.9695  221.2085 H   0  0  0  0  0  0  0  0  0  0  0  0
  141.6926   80.6917  223.8854 H   0  0  0  0  0  0  0  0  0  0  0  0
  140.9894   82.1790  223.2798 H   0  0  0  0  0  0  0  0  0  0  0  0
  139.4224   80.0099  223.4505 H   0  0  0  0  0  0  0  0  0  0  0  0
  139.2757   80.9311  221.9820 H   0  0  0  0  0  0  0  0  0  0  0  0
  142.0361   77.2029  221.0939 H   0  0  0  0  0  0  0  0  0  0  0  0
  1  2  2  0
  2  3  1  0
  3  4  1  0
  4  5  1  0
  5  6  2  0
  6  7  1  0
  7  8  2  0
  8  9  1  0
  9 10  1  0
 10 11  2  0
 10 12  1  0
 12 13  1  0
 13 14  1  0
 14 15  1  0
 15 16  1  0
  9 17  2  0
  4 18  2  0
 18 19  1  0
 19 20  2  0
 20 21  1  0
 21 22  2  0
 22 23  1  0
 23 24  1  0
 24 25  1  0
 25 26  1  0
 26 27  1  0
 22 28  1  0
 28 29  2  0
 29  2  1  0
 17  5  1  0
 29 19  1  0
 16 12  1  0
 27 23  1  0
  3 30  1  0
  3 31  1  0
  6 32  1  0
  7 33  1  0
  8 34  1  0
 13 35  1  0
 13 36  1  0
 14 37  1  0
 14 38  1  0
 15 39  1  0
 15 40  1  0
 16 41  1  0
 16 42  1  0
 17 43  1  0
 20 44  1  0
 21 45  1  0
 24 46  1  0
 24 47  1  0
 25 48  1  0
 25 49  1  0
 26 50  1  0
 26 51  1  0
 27 52  1  0
 27 53  1  0
 28 54  1  0
M  END
>  <smiles>  (47) 
O=C1CC(c2cccc(C(=O)N3CCCC3)c2)=Nc2ccc(N3CCCC3)cc21

>  <score_type>  (47) 
oracle

>  <origin>  (47) 
autodockgpu

>  <m_score__min__energy>  (47) 
-8.5

>  <m_primary>  (47) 
energy

>  <rmsd>  (47) 
6.26873567442083

>  <m_score__min__rmsd>  (47) 
6.26873567442083

>  <meeko>  (47) 
{"free_energy": -8.47, "intermolecular_energy": -9.36, "internal_energy": -0.58, "cluster_size": 46, "cluster_id": 1, "rank_in_cluster": 13}

>  <energy>  (47) 
-7.79

>  <cluster_rmsd>  (47) 
0.0

>  <cluster>  (47) 
2

$$$$

     RDKit          3D

 54 58  0  0  0  0  0  0  0  0999 V2000
  143.1530   75.5100  219.7270 O   0  0  0  0  0  0  0  0  0  0  0  0
  142.1800   75.1990  220.4830 C   0  0  0  0  0  0  0  0  0  0  0  0
  141.8610   73.7530  220.6060 C   0  0  0  0  0  0  0  0  0  0  0  0
  140.7380   73.5810  221.5180 C   0  0  0  0  0  0  0  0  0  0  0  0
  140.2820   72.2150  221.8130 C   0  0  0  0  0  0  0  0  0  0  0  0
  140.3830   71.1980  220.8680 C   0  0  0  0  0  0  0  0  0  0  0  0
  139.9750   69.9110  221.1360 C   0  0  0  0  0  0  0  0  0  0  0  0
  139.4450   69.6200  222.3950 C   0  0  0  0  0  0  0  0  0  0  0  0
  139.3300   70.6190  223.3690 C   0  0  0  0  0  0  0  0  0  0  0  0
  138.7820   70.2430  224.6490 C   0  0  0  0  0  0  0  0  0  0  0  0
  137.5160   70.2040  224.7770 O   0  0  0  0  0  0  0  0  0  0  0  0
  139.6710   69.9340  225.7110 N   0  0  0  0  0  0  0  0  0  0  0  0
  141.1370   69.9400  225.6960 C   0  0  0  0  0  0  0  0  0  0  0  0
  141.4500   68.6620  226.4590 C   0  0  0  0  0  0  0  0  0  0  0  0
  140.1790   68.2360  227.1580 C   0  0  0  0  0  0  0  0  0  0  0  0
  139.3470   69.5270  227.0870 C   0  0  0  0  0  0  0  0  0  0  0  0
  139.7470   71.8760  223.0530 C   0  0  0  0  0  0  0  0  0  0  0  0
  140.0990   74.5260  222.1270 N   0  0  0  0  0  0  0  0  0  0  0  0
  140.3960   75.9000  222.0030 C   0  0  0  0  0  0  0  0  0  0  0  0
  139.7190   76.9070  222.6440 C   0  0  0  0  0  0  0  0  0  0  0  0
  140.0540   78.2550  222.4890 C   0  0  0  0  0  0  0  0  0  0  0  0
  141.0990   78.6010  221.6660 C   0  0  0  0  0  0  0  0  0  0  0  0
  141.5290   79.9200  221.4220 N   0  0  0  0  0  0  0  0  0  0  0  0
  141.8330   81.0230  222.3080 C   0  0  0  0  0  0  0  0  0  0  0  0
  141.4340   82.2770  221.5350 C   0  0  0  0  0  0  0  0  0  0  0  0
  141.1170   81.7960  220.1490 C   0  0  0  0  0  0  0  0  0  0  0  0
  141.8000   80.4480  220.0810 C   0  0  0  0  0  0  0  0  0  0  0  0
  141.7900   77.5710  221.0100 C   0  0  0  0  0  0  0  0  0  0  0  0
  141.4450   76.2460  221.1750 C   0  0  0  0  0  0  0  0  0  0  0  0
  141.5958   73.3503  219.6173 H   0  0  0  0  0  0  0  0  0  0  0  0
  142.7374   73.2154  220.9969 H   0  0  0  0  0  0  0  0  0  0  0  0
  140.8014   71.4297  219.8774 H   0  0  0  0  0  0  0  0  0  0  0  0
  140.0649   69.1251  220.3716 H   0  0  0  0  0  0  0  0  0  0  0  0
  139.1147   68.5959  222.6235 H   0  0  0  0  0  0  0  0  0  0  0  0
  141.5290   69.9017  224.6689 H   0  0  0  0  0  0  0  0  0  0  0  0
  141.5875   70.8448  226.1301 H   0  0  0  0  0  0  0  0  0  0  0  0
  141.7776   67.8772  225.7613 H   0  0  0  0  0  0  0  0  0  0  0  0
  142.2583   68.8294  227.1861 H   0  0  0  0  0  0  0  0  0  0  0  0
  139.6851   67.4092  226.6265 H   0  0  0  0  0  0  0  0  0  0  0  0
  140.3327   67.8554  228.1786 H   0  0  0  0  0  0  0  0  0  0  0  0
  138.2722   69.3327  227.2174 H   0  0  0  0  0  0  0  0  0  0  0  0
  139.5648   70.2736  227.8649 H   0  0  0  0  0  0  0  0  0  0  0  0
  139.6567   72.6634  223.8158 H   0  0  0  0  0  0  0  0  0  0  0  0
  138.8804   76.6431  223.3052 H   0  0  0  0  0  0  0  0  0  0  0  0
  139.4862   79.0324  223.0211 H   0  0  0  0  0  0  0  0  0  0  0  0
  141.2520   80.9420  223.2385 H   0  0  0  0  0  0  0  0  0  0  0  0
  142.8941   81.0381  222.5976 H   0  0  0  0  0  0  0  0  0  0  0  0
  140.5512   82.7480  221.9919 H   0  0  0  0  0  0  0  0  0  0  0  0
  142.2319   83.0342  221.5367 H   0  0  0  0  0  0  0  0  0  0  0  0
  140.0310   81.6947  220.0063 H   0  0  0  0  0  0  0  0  0  0  0  0
  141.4566   82.4895  219.3656 H   0  0  0  0  0  0  0  0  0  0  0  0
  141.3575   79.8114  219.3007 H   0  0  0  0  0  0  0  0  0  0  0  0
  142.8684   80.4970  219.8238 H   0  0  0  0  0  0  0  0  0  0  0  0
  142.6291   77.8272  220.3465 H   0  0  0  0  0  0  0  0  0  0  0  0
  1  2  2  0
  2  3  1  0
  3  4  1  0
  4  5  1  0
  5  6  2  0
  6  7  1  0
  7  8  2  0
  8  9  1  0
  9 10  1  0
 10 11  2  0
 10 12  1  0
 12 13  1  0
 13 14  1  0
 14 15  1  0
 15 16  1  0
  9 17  2  0
  4 18  2  0
 18 19  1  0
 19 20  2  0
 20 21  1  0
 21 22  2  0
 22 23  1  0
 23 24  1  0
 24 25  1  0
 25 26  1  0
 26 27  1  0
 22 28  1  0
 28 29  2  0
 29  2  1  0
 17  5  1  0
 29 19  1  0
 16 12  1  0
 27 23  1  0
  3 30  1  0
  3 31  1  0
  6 32  1  0
  7 33  1  0
  8 34  1  0
 13 35  1  0
 13 36  1  0
 14 37  1  0
 14 38  1  0
 15 39  1  0
 15 40  1  0
 16 41  1  0
 16 42  1  0
 17 43  1  0
 20 44  1  0
 21 45  1  0
 24 46  1  0
 24 47  1  0
 25 48  1  0
 25 49  1  0
 26 50  1  0
 26 51  1  0
 27 52  1  0
 27 53  1  0
 28 54  1  0
M  END
>  <smiles>  (48) 
O=C1CC(c2cccc(C(=O)N3CCCC3)c2)=Nc2ccc(N3CCCC3)cc21

>  <score_type>  (48) 
oracle

>  <origin>  (48) 
autodockgpu

>  <m_score__min__energy>  (48) 
-8.5

>  <m_primary>  (48) 
energy

>  <rmsd>  (48) 
6.979917448019882

>  <m_score__min__rmsd>  (48) 
6.979917448019882

>  <meeko>  (48) 
{"free_energy": -7.86, "intermolecular_energy": -8.75, "internal_energy": -1.01, "cluster_size": 46, "cluster_id": 1, "rank_in_cluster": 38}

>  <energy>  (48) 
-7.78

>  <cluster_rmsd>  (48) 
0.04

>  <cluster>  (48) 
2

$$$$

     RDKit          3D

 54 58  0  0  0  0  0  0  0  0999 V2000
  141.4860   81.0060  224.0190 O   0  0  0  0  0  0  0  0  0  0  0  0
  140.9120   80.1570  223.2680 C   0  0  0  0  0  0  0  0  0  0  0  0
  141.7740   79.4130  222.3130 C   0  0  0  0  0  0  0  0  0  0  0  0
  140.9580   78.4780  221.5510 C   0  0  0  0  0  0  0  0  0  0  0  0
  141.6250   77.6090  220.5710 C   0  0  0  0  0  0  0  0  0  0  0  0
  142.2050   78.1280  219.4170 C   0  0  0  0  0  0  0  0  0  0  0  0
  142.8460   77.3280  218.5000 C   0  0  0  0  0  0  0  0  0  0  0  0
  142.9170   75.9530  218.7360 C   0  0  0  0  0  0  0  0  0  0  0  0
  142.3450   75.3970  219.8860 C   0  0  0  0  0  0  0  0  0  0  0  0
  142.4640   73.9720  220.0700 C   0  0  0  0  0  0  0  0  0  0  0  0
  141.4330   73.2490  219.8750 O   0  0  0  0  0  0  0  0  0  0  0  0
  143.7180   73.4330  220.4580 N   0  0  0  0  0  0  0  0  0  0  0  0
  144.9720   74.1490  220.7110 C   0  0  0  0  0  0  0  0  0  0  0  0
  145.9800   73.2430  220.0200 C   0  0  0  0  0  0  0  0  0  0  0  0
  145.2890   71.9230  219.7590 C   0  0  0  0  0  0  0  0  0  0  0  0
  144.0750   72.0260  220.6970 C   0  0  0  0  0  0  0  0  0  0  0  0
  141.7200   76.2320  220.7630 C   0  0  0  0  0  0  0  0  0  0  0  0
  139.6800   78.3140  221.6640 N   0  0  0  0  0  0  0  0  0  0  0  0
  138.8600   79.0280  222.5630 C   0  0  0  0  0  0  0  0  0  0  0  0
  137.5030   78.8610  222.6840 C   0  0  0  0  0  0  0  0  0  0  0  0
  136.7330   79.5920  223.5930 C   0  0  0  0  0  0  0  0  0  0  0  0
  137.3450   80.5180  224.4030 C   0  0  0  0  0  0  0  0  0  0  0  0
  136.6820   81.3220  225.3520 N   0  0  0  0  0  0  0  0  0  0  0  0
  137.1650   82.2800  226.3220 C   0  0  0  0  0  0  0  0  0  0  0  0
  136.2040   82.1720  227.5020 C   0  0  0  0  0  0  0  0  0  0  0  0
  135.0930   81.2850  227.0210 C   0  0  0  0  0  0  0  0  0  0  0  0
  135.2250   81.3450  225.5160 C   0  0  0  0  0  0  0  0  0  0  0  0
  138.7320   80.6900  224.2780 C   0  0  0  0  0  0  0  0  0  0  0  0
  139.4750   79.9590  223.3750 C   0  0  0  0  0  0  0  0  0  0  0  0
  142.2574   80.1227  221.6256 H   0  0  0  0  0  0  0  0  0  0  0  0
  142.5447   78.8590  222.8690 H   0  0  0  0  0  0  0  0  0  0  0  0
  142.1490   79.2110  219.2328 H   0  0  0  0  0  0  0  0  0  0  0  0
  143.2954   77.7638  217.5955 H   0  0  0  0  0  0  0  0  0  0  0  0
  143.4271   75.3013  218.0114 H   0  0  0  0  0  0  0  0  0  0  0  0
  144.9596   75.1531  220.2620 H   0  0  0  0  0  0  0  0  0  0  0  0
  145.1821   74.3251  221.7763 H   0  0  0  0  0  0  0  0  0  0  0  0
  146.3028   73.6938  219.0700 H   0  0  0  0  0  0  0  0  0  0  0  0
  146.8715   73.0998  220.6482 H   0  0  0  0  0  0  0  0  0  0  0  0
  144.9786   71.8322  218.7076 H   0  0  0  0  0  0  0  0  0  0  0  0
  145.9217   71.0410  219.9373 H   0  0  0  0  0  0  0  0  0  0  0  0
  143.2671   71.3398  220.4029 H   0  0  0  0  0  0  0  0  0  0  0  0
  144.2643   71.7578  221.7469 H   0  0  0  0  0  0  0  0  0  0  0  0
  141.2682   75.7977  221.6670 H   0  0  0  0  0  0  0  0  0  0  0  0
  137.0019   78.1230  222.0404 H   0  0  0  0  0  0  0  0  0  0  0  0
  135.6474   79.4276  223.6593 H   0  0  0  0  0  0  0  0  0  0  0  0
  138.1895   82.0297  226.6345 H   0  0  0  0  0  0  0  0  0  0  0  0
  137.1994   83.2999  225.9113 H   0  0  0  0  0  0  0  0  0  0  0  0
  136.7079   81.7232  228.3707 H   0  0  0  0  0  0  0  0  0  0  0  0
  135.8350   83.1567  227.8247 H   0  0  0  0  0  0  0  0  0  0  0  0
  135.2240   80.2560  227.3871 H   0  0  0  0  0  0  0  0  0  0  0  0
  134.1029   81.6037  227.3788 H   0  0  0  0  0  0  0  0  0  0  0  0
  134.7523   80.4756  225.0357 H   0  0  0  0  0  0  0  0  0  0  0  0
  134.7345   82.2155  225.0560 H   0  0  0  0  0  0  0  0  0  0  0  0
  139.2400   81.4273  224.9171 H   0  0  0  0  0  0  0  0  0  0  0  0
  1  2  2  0
  2  3  1  0
  3  4  1  0
  4  5  1  0
  5  6  2  0
  6  7  1  0
  7  8  2  0
  8  9  1  0
  9 10  1  0
 10 11  2  0
 10 12  1  0
 12 13  1  0
 13 14  1  0
 14 15  1  0
 15 16  1  0
  9 17  2  0
  4 18  2  0
 18 19  1  0
 19 20  2  0
 20 21  1  0
 21 22  2  0
 22 23  1  0
 23 24  1  0
 24 25  1  0
 25 26  1  0
 26 27  1  0
 22 28  1  0
 28 29  2  0
 29  2  1  0
 17  5  1  0
 29 19  1  0
 16 12  1  0
 27 23  1  0
  3 30  1  0
  3 31  1  0
  6 32  1  0
  7 33  1  0
  8 34  1  0
 13 35  1  0
 13 36  1  0
 14 37  1  0
 14 38  1  0
 15 39  1  0
 15 40  1  0
 16 41  1  0
 16 42  1  0
 17 43  1  0
 20 44  1  0
 21 45  1  0
 24 46  1  0
 24 47  1  0
 25 48  1  0
 25 49  1  0
 26 50  1  0
 26 51  1  0
 27 52  1  0
 27 53  1  0
 28 54  1  0
M  END
>  <smiles>  (49) 
O=C1CC(c2cccc(C(=O)N3CCCC3)c2)=Nc2ccc(N3CCCC3)cc21

>  <score_type>  (49) 
oracle

>  <origin>  (49) 
autodockgpu

>  <m_score__min__energy>  (49) 
-8.5

>  <m_primary>  (49) 
energy

>  <rmsd>  (49) 
9.010318946817947

>  <m_score__min__rmsd>  (49) 
9.010318946817947

>  <meeko>  (49) 
{"free_energy": -7.51, "intermolecular_energy": -8.4, "internal_energy": -0.99, "cluster_size": 1, "cluster_id": 3, "rank_in_cluster": 1}

>  <energy>  (49) 
-7.72

>  <cluster_rmsd>  (49) 
0.12

>  <cluster>  (49) 
2

$$$$

     RDKit          3D

 54 58  0  0  0  0  0  0  0  0999 V2000
  143.1690   75.4920  219.7540 O   0  0  0  0  0  0  0  0  0  0  0  0
  142.1880   75.1850  220.5010 C   0  0  0  0  0  0  0  0  0  0  0  0
  141.8660   73.7400  220.6270 C   0  0  0  0  0  0  0  0  0  0  0  0
  140.7330   73.5740  221.5280 C   0  0  0  0  0  0  0  0  0  0  0  0
  140.2730   72.2090  221.8240 C   0  0  0  0  0  0  0  0  0  0  0  0
  140.3670   71.1920  220.8800 C   0  0  0  0  0  0  0  0  0  0  0  0
  139.9560   69.9070  221.1490 C   0  0  0  0  0  0  0  0  0  0  0  0
  139.4270   69.6180  222.4100 C   0  0  0  0  0  0  0  0  0  0  0  0
  139.3180   70.6170  223.3830 C   0  0  0  0  0  0  0  0  0  0  0  0
  138.7720   70.2450  224.6650 C   0  0  0  0  0  0  0  0  0  0  0  0
  137.5050   70.2140  224.7970 O   0  0  0  0  0  0  0  0  0  0  0  0
  139.6610   69.9290  225.7240 N   0  0  0  0  0  0  0  0  0  0  0  0
  141.1280   69.9250  225.7040 C   0  0  0  0  0  0  0  0  0  0  0  0
  141.4340   68.6440  226.4650 C   0  0  0  0  0  0  0  0  0  0  0  0
  140.1620   68.2250  227.1680 C   0  0  0  0  0  0  0  0  0  0  0  0
  139.3390   69.5230  227.1000 C   0  0  0  0  0  0  0  0  0  0  0  0
  139.7390   71.8730  223.0660 C   0  0  0  0  0  0  0  0  0  0  0  0
  140.0890   74.5220  222.1270 N   0  0  0  0  0  0  0  0  0  0  0  0
  140.3890   75.8950  221.9980 C   0  0  0  0  0  0  0  0  0  0  0  0
  139.7060   76.9060  222.6280 C   0  0  0  0  0  0  0  0  0  0  0  0
  140.0440   78.2530  222.4710 C   0  0  0  0  0  0  0  0  0  0  0  0
  141.0980   78.5940  221.6570 C   0  0  0  0  0  0  0  0  0  0  0  0
  141.5330   79.9120  221.4110 N   0  0  0  0  0  0  0  0  0  0  0  0
  141.8440   81.0130  222.2960 C   0  0  0  0  0  0  0  0  0  0  0  0
  141.4470   82.2680  221.5240 C   0  0  0  0  0  0  0  0  0  0  0  0
  141.1220   81.7890  220.1400 C   0  0  0  0  0  0  0  0  0  0  0  0
  141.8000   80.4380  220.0700 C   0  0  0  0  0  0  0  0  0  0  0  0
  141.7950   77.5610  221.0130 C   0  0  0  0  0  0  0  0  0  0  0  0
  141.4470   76.2370  221.1810 C   0  0  0  0  0  0  0  0  0  0  0  0
  141.6107   73.3331  219.6374 H   0  0  0  0  0  0  0  0  0  0  0  0
  142.7375   73.2028  221.0294 H   0  0  0  0  0  0  0  0  0  0  0  0
  140.7827   71.4222  219.8879 H   0  0  0  0  0  0  0  0  0  0  0  0
  140.0422   69.1205  220.3848 H   0  0  0  0  0  0  0  0  0  0  0  0
  139.0932   68.5953  222.6395 H   0  0  0  0  0  0  0  0  0  0  0  0
  141.5164   69.8848  224.6756 H   0  0  0  0  0  0  0  0  0  0  0  0
  141.5865   70.8262  226.1371 H   0  0  0  0  0  0  0  0  0  0  0  0
  141.7543   67.8578  225.7655 H   0  0  0  0  0  0  0  0  0  0  0  0
  142.2452   68.8056  227.1902 H   0  0  0  0  0  0  0  0  0  0  0  0
  139.6608   67.4021  226.6373 H   0  0  0  0  0  0  0  0  0  0  0  0
  140.3158   67.8418  228.1876 H   0  0  0  0  0  0  0  0  0  0  0  0
  138.2632   69.3365  227.2338 H   0  0  0  0  0  0  0  0  0  0  0  0
  139.5653   70.2674  227.8776 H   0  0  0  0  0  0  0  0  0  0  0  0
  139.6531   72.6611  223.8285 H   0  0  0  0  0  0  0  0  0  0  0  0
  138.8602   76.6457  223.2814 H   0  0  0  0  0  0  0  0  0  0  0  0
  139.4718   79.0333  222.9941 H   0  0  0  0  0  0  0  0  0  0  0  0
  141.2658   80.9341  223.2284 H   0  0  0  0  0  0  0  0  0  0  0  0
  142.9059   81.0241  222.5826 H   0  0  0  0  0  0  0  0  0  0  0  0
  140.5682   82.7429  221.9846 H   0  0  0  0  0  0  0  0  0  0  0  0
  142.2486   83.0213  221.5218 H   0  0  0  0  0  0  0  0  0  0  0  0
  140.0350   81.6918  220.0019 H   0  0  0  0  0  0  0  0  0  0  0  0
  141.4602   82.4812  219.3548 H   0  0  0  0  0  0  0  0  0  0  0  0
  141.3520   79.8026  219.2918 H   0  0  0  0  0  0  0  0  0  0  0  0
  142.8675   80.4831  219.8085 H   0  0  0  0  0  0  0  0  0  0  0  0
  142.6411   77.8134  220.3570 H   0  0  0  0  0  0  0  0  0  0  0  0
  1  2  2  0
  2  3  1  0
  3  4  1  0
  4  5  1  0
  5  6  2  0
  6  7  1  0
  7  8  2  0
  8  9  1  0
  9 10  1  0
 10 11  2  0
 10 12  1  0
 12 13  1  0
 13 14  1  0
 14 15  1  0
 15 16  1  0
  9 17  2  0
  4 18  2  0
 18 19  1  0
 19 20  2  0
 20 21  1  0
 21 22  2  0
 22 23  1  0
 23 24  1  0
 24 25  1  0
 25 26  1  0
 26 27  1  0
 22 28  1  0
 28 29  2  0
 29  2  1  0
 17  5  1  0
 29 19  1  0
 16 12  1  0
 27 23  1  0
  3 30  1  0
  3 31  1  0
  6 32  1  0
  7 33  1  0
  8 34  1  0
 13 35  1  0
 13 36  1  0
 14 37  1  0
 14 38  1  0
 15 39  1  0
 15 40  1  0
 16 41  1  0
 16 42  1  0
 17 43  1  0
 20 44  1  0
 21 45  1  0
 24 46  1  0
 24 47  1  0
 25 48  1  0
 25 49  1  0
 26 50  1  0
 26 51  1  0
 27 52  1  0
 27 53  1  0
 28 54  1  0
M  END
>  <smiles>  (50) 
O=C1CC(c2cccc(C(=O)N3CCCC3)c2)=Nc2ccc(N3CCCC3)cc21

>  <score_type>  (50) 
oracle

>  <origin>  (50) 
autodockgpu

>  <m_score__min__energy>  (50) 
-8.5

>  <m_primary>  (50) 
energy

>  <rmsd>  (50) 
6.975674659153385

>  <m_score__min__rmsd>  (50) 
6.975674659153385

>  <meeko>  (50) 
{"free_energy": -7.86, "intermolecular_energy": -8.75, "internal_energy": -1.01, "cluster_size": 46, "cluster_id": 1, "rank_in_cluster": 32}

>  <energy>  (50) 
-7.51

>  <cluster_rmsd>  (50) 
0.0

>  <cluster>  (50) 
3

$$$$
