
     RDKit          3D

 55 58  0  0  0  0  0  0  0  0999 V2000
  148.2300   74.5010  217.1240 N   0  0  0  0  0  0  0  0  0  0  0  0
  147.9830   74.1870  215.4400 S   0  0  0  0  0  0  0  0  0  0  0  0
  149.1400   74.7320  214.6420 O   0  0  0  0  0  0  0  0  0  0  0  0
  147.8710   72.7120  215.2340 O   0  0  0  0  0  0  0  0  0  0  0  0
  146.4720   74.9630  214.9800 C   0  0  0  0  0  0  0  0  0  0  0  0
  146.0810   75.0550  213.6610 C   0  0  0  0  0  0  0  0  0  0  0  0
  144.8850   75.6830  213.4040 C   0  0  0  0  0  0  0  0  0  0  0  0
  144.0910   76.2070  214.4140 C   0  0  0  0  0  0  0  0  0  0  0  0
  144.4690   76.1200  215.7290 C   0  0  0  0  0  0  0  0  0  0  0  0
  143.6850   76.6510  216.8470 C   0  0  0  0  0  0  0  0  0  0  0  0
  142.9010   75.9460  217.6110 C   0  0  0  0  0  0  0  0  0  0  0  0
  142.3580   76.1730  218.9090 C   0  0  0  0  0  0  0  0  0  0  0  0
  142.2260   77.5200  219.2980 C   0  0  0  0  0  0  0  0  0  0  0  0
  141.7850   77.9280  220.5120 C   0  0  0  0  0  0  0  0  0  0  0  0
  141.6860   79.2540  220.8110 C   0  0  0  0  0  0  0  0  0  0  0  0
  141.2290   79.5920  222.0730 C   0  0  0  0  0  0  0  0  0  0  0  0
  141.0950   81.2880  222.4780 Cl  0  0  0  0  0  0  0  0  0  0  0  0
  140.8740   78.6550  223.0210 C   0  0  0  0  0  0  0  0  0  0  0  0
  140.9780   77.3190  222.7040 C   0  0  0  0  0  0  0  0  0  0  0  0
  141.4360   76.9860  221.4420 C   0  0  0  0  0  0  0  0  0  0  0  0
  141.5570   75.6760  221.0810 C   0  0  0  0  0  0  0  0  0  0  0  0
  141.2320   74.8120  221.9520 O   0  0  0  0  0  0  0  0  0  0  0  0
  142.0100   75.2710  219.8380 N   0  0  0  0  0  0  0  0  0  0  0  0
  142.1060   73.8530  219.6880 C   0  0  0  0  0  0  0  0  0  0  0  0
  143.4440   73.2470  219.8710 C   0  0  0  0  0  0  0  0  0  0  0  0
  144.0380   72.5610  218.7150 C   0  0  0  0  0  0  0  0  0  0  0  0
  145.1890   73.4080  218.1600 C   0  0  0  0  0  0  0  0  0  0  0  0
  146.2890   73.2620  219.0950 N   0  0  0  0  0  0  0  0  0  0  0  0
  145.8560   73.7530  220.3660 C   0  0  0  0  0  0  0  0  0  0  0  0
  144.4510   74.2300  220.4410 C   0  0  0  0  0  0  0  0  0  0  0  0
  145.6810   75.4830  215.9810 C   0  0  0  0  0  0  0  0  0  0  0  0
  147.2950   74.5150  217.5850 H   0  0  0  0  0  0  0  0  0  0  0  0
  148.5830   75.4970  217.1610 H   0  0  0  0  0  0  0  0  0  0  0  0
  146.6991   74.6438  212.8493 H   0  0  0  0  0  0  0  0  0  0  0  0
  144.5459   75.7731  212.3614 H   0  0  0  0  0  0  0  0  0  0  0  0
  143.1425   76.7004  214.1554 H   0  0  0  0  0  0  0  0  0  0  0  0
  143.7648   77.7278  217.0571 H   0  0  0  0  0  0  0  0  0  0  0  0
  142.5981   74.9862  217.1672 H   0  0  0  0  0  0  0  0  0  0  0  0
  142.4998   78.2939  218.5658 H   0  0  0  0  0  0  0  0  0  0  0  0
  141.9590   80.0265  220.0770 H   0  0  0  0  0  0  0  0  0  0  0  0
  140.5144   78.9692  224.0119 H   0  0  0  0  0  0  0  0  0  0  0  0
  140.7053   76.5407  223.4319 H   0  0  0  0  0  0  0  0  0  0  0  0
  141.4305   73.3948  220.4254 H   0  0  0  0  0  0  0  0  0  0  0  0
  141.8457   73.6586  218.6371 H   0  0  0  0  0  0  0  0  0  0  0  0
  143.2228   72.4486  220.5946 H   0  0  0  0  0  0  0  0  0  0  0  0
  144.4221   71.5789  219.0280 H   0  0  0  0  0  0  0  0  0  0  0  0
  143.2737   72.4221  217.9361 H   0  0  0  0  0  0  0  0  0  0  0  0
  145.4842   73.0443  217.1647 H   0  0  0  0  0  0  0  0  0  0  0  0
  144.8937   74.4620  218.0512 H   0  0  0  0  0  0  0  0  0  0  0  0
  147.1180   73.7960  218.7870 H   0  0  0  0  0  0  0  0  0  0  0  0
  145.9739   72.9401  221.0977 H   0  0  0  0  0  0  0  0  0  0  0  0
  146.4783   74.6374  220.5674 H   0  0  0  0  0  0  0  0  0  0  0  0
  144.2011   74.4109  221.4968 H   0  0  0  0  0  0  0  0  0  0  0  0
  144.3881   75.1449  219.8335 H   0  0  0  0  0  0  0  0  0  0  0  0
  146.0213   75.3910  217.0230 H   0  0  0  0  0  0  0  0  0  0  0  0
  1  2  1  0
  2  3  2  0
  2  4  2  0
  2  5  1  0
  5  6  2  0
  6  7  1  0
  7  8  2  0
  8  9  1  0
  9 10  1  0
 10 11  2  0
 11 12  1  0
 12 13  2  0
 13 14  1  0
 14 15  2  0
 15 16  1  0
 16 17  1  0
 16 18  2  0
 18 19  1  0
 19 20  2  0
 20 21  1  0
 21 22  2  0
 21 23  1  0
 23 24  1  0
 24 25  1  0
 25 26  1  0
 26 27  1  0
 27 28  1  0
 28 29  1  0
 29 30  1  0
  9 31  2  0
 31  5  1  0
 23 12  1  0
 30 25  1  0
 20 14  1  0
  1 32  1  0
  1 33  1  0
  6 34  1  0
  7 35  1  0
  8 36  1  0
 10 37  1  0
 11 38  1  0
 13 39  1  0
 15 40  1  0
 18 41  1  0
 19 42  1  0
 24 43  1  0
 24 44  1  0
 25 45  1  0
 26 46  1  0
 26 47  1  0
 27 48  1  0
 27 49  1  0
 28 50  1  0
 29 51  1  0
 29 52  1  0
 30 53  1  0
 30 54  1  0
 31 55  1  0
M  END
>  <smiles>  (1) 
NS(=O)(=O)c1cccc(/C=C/c2cc3cc(Cl)ccc3c(=O)n2CC2CCNCC2)c1

>  <score_type>  (1) 
oracle

>  <origin>  (1) 
autodockgpu

>  <m_score__min__energy>  (1) 
-9.2899999999999991

>  <m_primary>  (1) 
energy

>  <rmsd>  (1) 
5.423920594898229

>  <m_score__min__rmsd>  (1) 
5.423920594898229

>  <meeko>  (1) 
{"free_energy": -7.98, "intermolecular_energy": -10.06, "internal_energy": -3.02, "cluster_size": 4, "cluster_id": 6, "rank_in_cluster": 1}

>  <energy>  (1) 
-9.29

>  <cluster_rmsd>  (1) 
0.0

>  <cluster>  (1) 
1

$$$$

     RDKit          3D

 55 58  0  0  0  0  0  0  0  0999 V2000
  139.5340   72.0830  228.6950 N   0  0  0  0  0  0  0  0  0  0  0  0
  140.8610   71.5380  227.7270 S   0  0  0  0  0  0  0  0  0  0  0  0
  141.8830   72.6380  227.5930 O   0  0  0  0  0  0  0  0  0  0  0  0
  141.4790   70.3460  228.3820 O   0  0  0  0  0  0  0  0  0  0  0  0
  140.2100   71.0780  226.1590 C   0  0  0  0  0  0  0  0  0  0  0  0
  139.2860   70.0620  226.0310 C   0  0  0  0  0  0  0  0  0  0  0  0
  138.8400   69.7760  224.7620 C   0  0  0  0  0  0  0  0  0  0  0  0
  139.2880   70.4680  223.6460 C   0  0  0  0  0  0  0  0  0  0  0  0
  140.2060   71.4800  223.7610 C   0  0  0  0  0  0  0  0  0  0  0  0
  140.7260   72.2520  222.6290 C   0  0  0  0  0  0  0  0  0  0  0  0
  140.1660   73.3160  222.1310 C   0  0  0  0  0  0  0  0  0  0  0  0
  140.6960   74.5050  221.5510 C   0  0  0  0  0  0  0  0  0  0  0  0
  140.4530   75.7000  222.2550 C   0  0  0  0  0  0  0  0  0  0  0  0
  140.8280   76.9300  221.8320 C   0  0  0  0  0  0  0  0  0  0  0  0
  140.5530   78.0390  222.5750 C   0  0  0  0  0  0  0  0  0  0  0  0
  140.9670   79.2620  222.0750 C   0  0  0  0  0  0  0  0  0  0  0  0
  140.6240   80.6980  223.0110 Cl  0  0  0  0  0  0  0  0  0  0  0  0
  141.6370   79.3970  220.8770 C   0  0  0  0  0  0  0  0  0  0  0  0
  141.9100   78.2670  220.1370 C   0  0  0  0  0  0  0  0  0  0  0  0
  141.4920   77.0480  220.6410 C   0  0  0  0  0  0  0  0  0  0  0  0
  141.7370   75.9000  219.9460 C   0  0  0  0  0  0  0  0  0  0  0  0
  142.3530   76.0220  218.8430 O   0  0  0  0  0  0  0  0  0  0  0  0
  141.3480   74.6480  220.3880 N   0  0  0  0  0  0  0  0  0  0  0  0
  141.6620   73.5880  219.4820 C   0  0  0  0  0  0  0  0  0  0  0  0
  143.0210   73.0100  219.5690 C   0  0  0  0  0  0  0  0  0  0  0  0
  143.7080   72.7040  218.3050 C   0  0  0  0  0  0  0  0  0  0  0  0
  144.8340   73.7200  218.0830 C   0  0  0  0  0  0  0  0  0  0  0  0
  145.8950   73.3590  219.0040 N   0  0  0  0  0  0  0  0  0  0  0  0
  145.3760   73.4510  220.3330 C   0  0  0  0  0  0  0  0  0  0  0  0
  143.9440   73.8310  220.4530 C   0  0  0  0  0  0  0  0  0  0  0  0
  140.6520   71.7630  225.0490 C   0  0  0  0  0  0  0  0  0  0  0  0
  139.8360   72.9510  229.1880 H   0  0  0  0  0  0  0  0  0  0  0  0
  139.4310   71.3470  229.4470 H   0  0  0  0  0  0  0  0  0  0  0  0
  138.9215   69.5045  226.9064 H   0  0  0  0  0  0  0  0  0  0  0  0
  138.1027   68.9709  224.6271 H   0  0  0  0  0  0  0  0  0  0  0  0
  138.9001   70.2002  222.6521 H   0  0  0  0  0  0  0  0  0  0  0  0
  141.6611   71.9056  222.1648 H   0  0  0  0  0  0  0  0  0  0  0  0
  139.0667   73.2931  222.1643 H   0  0  0  0  0  0  0  0  0  0  0  0
  139.9215   75.6291  223.2155 H   0  0  0  0  0  0  0  0  0  0  0  0
  140.0222   77.9652  223.5356 H   0  0  0  0  0  0  0  0  0  0  0  0
  141.9480   80.3894  220.5185 H   0  0  0  0  0  0  0  0  0  0  0  0
  142.4429   78.3319  219.1769 H   0  0  0  0  0  0  0  0  0  0  0  0
  140.9435   72.7746  219.6612 H   0  0  0  0  0  0  0  0  0  0  0  0
  141.6085   74.0423  218.4816 H   0  0  0  0  0  0  0  0  0  0  0  0
  142.8097   72.0311  220.0242 H   0  0  0  0  0  0  0  0  0  0  0  0
  144.1318   71.6901  218.3530 H   0  0  0  0  0  0  0  0  0  0  0  0
  142.9912   72.7598  217.4725 H   0  0  0  0  0  0  0  0  0  0  0  0
  145.1957   73.6671  217.0455 H   0  0  0  0  0  0  0  0  0  0  0  0
  144.4851   74.7484  218.2581 H   0  0  0  0  0  0  0  0  0  0  0  0
  146.7060   73.9920  218.9100 H   0  0  0  0  0  0  0  0  0  0  0  0
  145.5040   72.4691  220.8121 H   0  0  0  0  0  0  0  0  0  0  0  0
  145.9382   74.2656  220.8130 H   0  0  0  0  0  0  0  0  0  0  0  0
  143.6347   73.6951  221.4998 H   0  0  0  0  0  0  0  0  0  0  0  0
  143.8592   74.8773  220.1243 H   0  0  0  0  0  0  0  0  0  0  0  0
  141.3889   72.5681  225.1860 H   0  0  0  0  0  0  0  0  0  0  0  0
  1  2  1  0
  2  3  2  0
  2  4  2  0
  2  5  1  0
  5  6  2  0
  6  7  1  0
  7  8  2  0
  8  9  1  0
  9 10  1  0
 10 11  2  0
 11 12  1  0
 12 13  2  0
 13 14  1  0
 14 15  2  0
 15 16  1  0
 16 17  1  0
 16 18  2  0
 18 19  1  0
 19 20  2  0
 20 21  1  0
 21 22  2  0
 21 23  1  0
 23 24  1  0
 24 25  1  0
 25 26  1  0
 26 27  1  0
 27 28  1  0
 28 29  1  0
 29 30  1  0
  9 31  2  0
 31  5  1  0
 23 12  1  0
 30 25  1  0
 20 14  1  0
  1 32  1  0
  1 33  1  0
  6 34  1  0
  7 35  1  0
  8 36  1  0
 10 37  1  0
 11 38  1  0
 13 39  1  0
 15 40  1  0
 18 41  1  0
 19 42  1  0
 24 43  1  0
 24 44  1  0
 25 45  1  0
 26 46  1  0
 26 47  1  0
 27 48  1  0
 27 49  1  0
 28 50  1  0
 29 51  1  0
 29 52  1  0
 30 53  1  0
 30 54  1  0
 31 55  1  0
M  END
>  <smiles>  (2) 
NS(=O)(=O)c1cccc(/C=C/c2cc3cc(Cl)ccc3c(=O)n2CC2CCNCC2)c1

>  <score_type>  (2) 
oracle

>  <origin>  (2) 
autodockgpu

>  <m_score__min__energy>  (2) 
-9.2899999999999991

>  <m_primary>  (2) 
energy

>  <rmsd>  (2) 
5.046532429844319

>  <m_score__min__rmsd>  (2) 
5.046532429844319

>  <meeko>  (2) 
{"free_energy": -9.27, "intermolecular_energy": -11.36, "internal_energy": -1.32, "cluster_size": 6, "cluster_id": 1, "rank_in_cluster": 2}

>  <energy>  (2) 
-9.27

>  <cluster_rmsd>  (2) 
1.05

>  <cluster>  (2) 
1

$$$$

     RDKit          3D

 55 58  0  0  0  0  0  0  0  0999 V2000
  131.7760   73.9650  228.1320 N   0  0  0  0  0  0  0  0  0  0  0  0
  132.5610   73.7980  226.5990 S   0  0  0  0  0  0  0  0  0  0  0  0
  131.5490   73.9260  225.4880 O   0  0  0  0  0  0  0  0  0  0  0  0
  133.5990   74.8640  226.4680 O   0  0  0  0  0  0  0  0  0  0  0  0
  133.3330   72.2170  226.5770 C   0  0  0  0  0  0  0  0  0  0  0  0
  133.7730   71.6130  227.7360 C   0  0  0  0  0  0  0  0  0  0  0  0
  134.3660   70.3780  227.6130 C   0  0  0  0  0  0  0  0  0  0  0  0
  134.5240   69.7500  226.3860 C   0  0  0  0  0  0  0  0  0  0  0  0
  134.0890   70.3420  225.2270 C   0  0  0  0  0  0  0  0  0  0  0  0
  134.2240   69.7410  223.8970 C   0  0  0  0  0  0  0  0  0  0  0  0
  135.2990   69.7830  223.1640 C   0  0  0  0  0  0  0  0  0  0  0  0
  136.6490   70.1390  223.4510 C   0  0  0  0  0  0  0  0  0  0  0  0
  137.2760   69.4110  224.4800 C   0  0  0  0  0  0  0  0  0  0  0  0
  138.5320   69.6440  224.9290 C   0  0  0  0  0  0  0  0  0  0  0  0
  139.0660   68.8930  225.9330 C   0  0  0  0  0  0  0  0  0  0  0  0
  140.3560   69.1940  226.3390 C   0  0  0  0  0  0  0  0  0  0  0  0
  141.0610   68.2420  227.6250 Cl  0  0  0  0  0  0  0  0  0  0  0  0
  141.1060   70.2040  225.7750 C   0  0  0  0  0  0  0  0  0  0  0  0
  140.5530   70.9540  224.7600 C   0  0  0  0  0  0  0  0  0  0  0  0
  139.2640   70.6510  224.3600 C   0  0  0  0  0  0  0  0  0  0  0  0
  138.6720   71.3650  223.3600 C   0  0  0  0  0  0  0  0  0  0  0  0
  139.3610   72.2960  222.8400 O   0  0  0  0  0  0  0  0  0  0  0  0
  137.3880   71.1180  222.9090 N   0  0  0  0  0  0  0  0  0  0  0  0
  136.9460   72.0160  221.8890 C   0  0  0  0  0  0  0  0  0  0  0  0
  136.3090   73.2760  222.3320 C   0  0  0  0  0  0  0  0  0  0  0  0
  135.0450   73.6580  221.6860 C   0  0  0  0  0  0  0  0  0  0  0  0
  133.8910   73.4600  222.6760 C   0  0  0  0  0  0  0  0  0  0  0  0
  133.9860   74.5450  223.6340 N   0  0  0  0  0  0  0  0  0  0  0  0
  135.2510   74.4410  224.2930 C   0  0  0  0  0  0  0  0  0  0  0  0
  136.1380   73.3390  223.8400 C   0  0  0  0  0  0  0  0  0  0  0  0
  133.4900   71.5910  225.3600 C   0  0  0  0  0  0  0  0  0  0  0  0
  132.4320   74.4610  228.7720 H   0  0  0  0  0  0  0  0  0  0  0  0
  131.7030   72.9780  228.5040 H   0  0  0  0  0  0  0  0  0  0  0  0
  133.6549   72.0978  228.7163 H   0  0  0  0  0  0  0  0  0  0  0  0
  134.7277   69.8704  228.5194 H   0  0  0  0  0  0  0  0  0  0  0  0
  135.0055   68.7620  226.3416 H   0  0  0  0  0  0  0  0  0  0  0  0
  133.3499   69.2140  223.4868 H   0  0  0  0  0  0  0  0  0  0  0  0
  135.1330   69.4854  222.1181 H   0  0  0  0  0  0  0  0  0  0  0  0
  136.7063   68.5968  224.9517 H   0  0  0  0  0  0  0  0  0  0  0  0
  138.4947   68.0790  226.4031 H   0  0  0  0  0  0  0  0  0  0  0  0
  142.1275   70.4074  226.1289 H   0  0  0  0  0  0  0  0  0  0  0  0
  141.1186   71.7679  224.2829 H   0  0  0  0  0  0  0  0  0  0  0  0
  137.8222   72.2835  221.2802 H   0  0  0  0  0  0  0  0  0  0  0  0
  136.1562   71.4707  221.3515 H   0  0  0  0  0  0  0  0  0  0  0  0
  137.0423   74.0204  221.9884 H   0  0  0  0  0  0  0  0  0  0  0  0
  135.0918   74.7142  221.3824 H   0  0  0  0  0  0  0  0  0  0  0  0
  134.8805   73.0307  220.7975 H   0  0  0  0  0  0  0  0  0  0  0  0
  132.9261   73.5003  222.1493 H   0  0  0  0  0  0  0  0  0  0  0  0
  133.9543   72.4808  223.1732 H   0  0  0  0  0  0  0  0  0  0  0  0
  133.2300   74.4940  224.3360 H   0  0  0  0  0  0  0  0  0  0  0  0
  135.7881   75.3886  224.1397 H   0  0  0  0  0  0  0  0  0  0  0  0
  135.0176   74.2176  225.3445 H   0  0  0  0  0  0  0  0  0  0  0  0
  137.1287   73.4802  224.2966 H   0  0  0  0  0  0  0  0  0  0  0  0
  135.6645   72.3959  224.1503 H   0  0  0  0  0  0  0  0  0  0  0  0
  133.1265   72.0999  224.4551 H   0  0  0  0  0  0  0  0  0  0  0  0
  1  2  1  0
  2  3  2  0
  2  4  2  0
  2  5  1  0
  5  6  2  0
  6  7  1  0
  7  8  2  0
  8  9  1  0
  9 10  1  0
 10 11  2  0
 11 12  1  0
 12 13  2  0
 13 14  1  0
 14 15  2  0
 15 16  1  0
 16 17  1  0
 16 18  2  0
 18 19  1  0
 19 20  2  0
 20 21  1  0
 21 22  2  0
 21 23  1  0
 23 24  1  0
 24 25  1  0
 25 26  1  0
 26 27  1  0
 27 28  1  0
 28 29  1  0
 29 30  1  0
  9 31  2  0
 31  5  1  0
 23 12  1  0
 30 25  1  0
 20 14  1  0
  1 32  1  0
  1 33  1  0
  6 34  1  0
  7 35  1  0
  8 36  1  0
 10 37  1  0
 11 38  1  0
 13 39  1  0
 15 40  1  0
 18 41  1  0
 19 42  1  0
 24 43  1  0
 24 44  1  0
 25 45  1  0
 26 46  1  0
 26 47  1  0
 27 48  1  0
 27 49  1  0
 28 50  1  0
 29 51  1  0
 29 52  1  0
 30 53  1  0
 30 54  1  0
 31 55  1  0
M  END
>  <smiles>  (3) 
NS(=O)(=O)c1cccc(/C=C/c2cc3cc(Cl)ccc3c(=O)n2CC2CCNCC2)c1

>  <score_type>  (3) 
oracle

>  <origin>  (3) 
autodockgpu

>  <m_score__min__energy>  (3) 
-9.2899999999999991

>  <m_primary>  (3) 
energy

>  <rmsd>  (3) 
10.891749996485043

>  <m_score__min__rmsd>  (3) 
10.891749996485043

>  <meeko>  (3) 
{"free_energy": -7.03, "intermolecular_energy": -9.12, "internal_energy": -3.74, "cluster_size": 1, "cluster_id": 11, "rank_in_cluster": 1}

>  <energy>  (3) 
-9.23

>  <cluster_rmsd>  (3) 
0.49

>  <cluster>  (3) 
1

$$$$

     RDKit          3D

 55 58  0  0  0  0  0  0  0  0999 V2000
  139.1990   67.0260  226.5610 N   0  0  0  0  0  0  0  0  0  0  0  0
  139.9410   68.5890  226.6040 S   0  0  0  0  0  0  0  0  0  0  0  0
  139.6880   69.2400  227.9410 O   0  0  0  0  0  0  0  0  0  0  0  0
  141.4100   68.4340  226.3830 O   0  0  0  0  0  0  0  0  0  0  0  0
  139.2430   69.5360  225.2950 C   0  0  0  0  0  0  0  0  0  0  0  0
  137.9630   69.3020  224.8390 C   0  0  0  0  0  0  0  0  0  0  0  0
  137.5100   70.0940  223.8100 C   0  0  0  0  0  0  0  0  0  0  0  0
  138.2920   71.0890  223.2410 C   0  0  0  0  0  0  0  0  0  0  0  0
  139.5660   71.3300  223.6860 C   0  0  0  0  0  0  0  0  0  0  0  0
  140.4500   72.3600  223.1330 C   0  0  0  0  0  0  0  0  0  0  0  0
  140.3590   72.8550  221.9320 C   0  0  0  0  0  0  0  0  0  0  0  0
  140.9210   74.0130  221.3210 C   0  0  0  0  0  0  0  0  0  0  0  0
  140.6030   75.2470  221.9210 C   0  0  0  0  0  0  0  0  0  0  0  0
  140.9970   76.4530  221.4500 C   0  0  0  0  0  0  0  0  0  0  0  0
  140.6450   77.6040  222.0910 C   0  0  0  0  0  0  0  0  0  0  0  0
  141.0850   78.7980  221.5460 C   0  0  0  0  0  0  0  0  0  0  0  0
  140.6440   80.2860  222.3520 Cl  0  0  0  0  0  0  0  0  0  0  0  0
  141.8520   78.8670  220.4020 C   0  0  0  0  0  0  0  0  0  0  0  0
  142.2010   77.6960  219.7660 C   0  0  0  0  0  0  0  0  0  0  0  0
  141.7590   76.5050  220.3130 C   0  0  0  0  0  0  0  0  0  0  0  0
  142.0770   75.3190  219.7200 C   0  0  0  0  0  0  0  0  0  0  0  0
  142.7830   75.3800  218.6660 O   0  0  0  0  0  0  0  0  0  0  0  0
  141.6680   74.0920  220.2100 N   0  0  0  0  0  0  0  0  0  0  0  0
  142.0710   72.9810  219.4070 C   0  0  0  0  0  0  0  0  0  0  0  0
  143.4760   72.5330  219.5350 C   0  0  0  0  0  0  0  0  0  0  0  0
  144.2230   72.2860  218.2930 C   0  0  0  0  0  0  0  0  0  0  0  0
  145.2540   73.4020  218.0920 C   0  0  0  0  0  0  0  0  0  0  0  0
  146.3190   73.1480  219.0440 N   0  0  0  0  0  0  0  0  0  0  0  0
  145.7570   73.1990  220.3580 C   0  0  0  0  0  0  0  0  0  0  0  0
  144.2930   73.4430  220.4360 C   0  0  0  0  0  0  0  0  0  0  0  0
  140.0170   70.5240  224.7290 C   0  0  0  0  0  0  0  0  0  0  0  0
  139.7960   66.3770  227.1170 H   0  0  0  0  0  0  0  0  0  0  0  0
  139.2950   66.7140  225.5550 H   0  0  0  0  0  0  0  0  0  0  0  0
  137.3316   68.5161  225.2791 H   0  0  0  0  0  0  0  0  0  0  0  0
  136.4923   69.9331  223.4246 H   0  0  0  0  0  0  0  0  0  0  0  0
  137.8828   71.6946  222.4190 H   0  0  0  0  0  0  0  0  0  0  0  0
  141.2511   72.7440  223.7817 H   0  0  0  0  0  0  0  0  0  0  0  0
  139.7236   72.2631  221.2568 H   0  0  0  0  0  0  0  0  0  0  0  0
  139.9922   75.2292  222.8357 H   0  0  0  0  0  0  0  0  0  0  0  0
  140.0348   77.5844  223.0060 H   0  0  0  0  0  0  0  0  0  0  0  0
  142.1791   79.8392  220.0047 H   0  0  0  0  0  0  0  0  0  0  0  0
  142.8122   77.7077  218.8515 H   0  0  0  0  0  0  0  0  0  0  0  0
  141.4261   72.1298  219.6708 H   0  0  0  0  0  0  0  0  0  0  0  0
  141.9765   73.3305  218.3683 H   0  0  0  0  0  0  0  0  0  0  0  0
  143.3452   71.5410  219.9921 H   0  0  0  0  0  0  0  0  0  0  0  0
  144.7390   71.3169  218.3610 H   0  0  0  0  0  0  0  0  0  0  0  0
  143.5270   72.2693  217.4413 H   0  0  0  0  0  0  0  0  0  0  0  0
  145.6471   73.3770  217.0649 H   0  0  0  0  0  0  0  0  0  0  0  0
  144.8054   74.3941  218.2488 H   0  0  0  0  0  0  0  0  0  0  0  0
  147.0700   73.8530  218.9670 H   0  0  0  0  0  0  0  0  0  0  0  0
  145.9636   72.2366  220.8490 H   0  0  0  0  0  0  0  0  0  0  0  0
  146.2266   74.0659  220.8458 H   0  0  0  0  0  0  0  0  0  0  0  0
  143.9690   73.2853  221.4753 H   0  0  0  0  0  0  0  0  0  0  0  0
  144.1193   74.4745  220.0956 H   0  0  0  0  0  0  0  0  0  0  0  0
  141.0340   70.6836  225.1165 H   0  0  0  0  0  0  0  0  0  0  0  0
  1  2  1  0
  2  3  2  0
  2  4  2  0
  2  5  1  0
  5  6  2  0
  6  7  1  0
  7  8  2  0
  8  9  1  0
  9 10  1  0
 10 11  2  0
 11 12  1  0
 12 13  2  0
 13 14  1  0
 14 15  2  0
 15 16  1  0
 16 17  1  0
 16 18  2  0
 18 19  1  0
 19 20  2  0
 20 21  1  0
 21 22  2  0
 21 23  1  0
 23 24  1  0
 24 25  1  0
 25 26  1  0
 26 27  1  0
 27 28  1  0
 28 29  1  0
 29 30  1  0
  9 31  2  0
 31  5  1  0
 23 12  1  0
 30 25  1  0
 20 14  1  0
  1 32  1  0
  1 33  1  0
  6 34  1  0
  7 35  1  0
  8 36  1  0
 10 37  1  0
 11 38  1  0
 13 39  1  0
 15 40  1  0
 18 41  1  0
 19 42  1  0
 24 43  1  0
 24 44  1  0
 25 45  1  0
 26 46  1  0
 26 47  1  0
 27 48  1  0
 27 49  1  0
 28 50  1  0
 29 51  1  0
 29 52  1  0
 30 53  1  0
 30 54  1  0
 31 55  1  0
M  END
>  <smiles>  (4) 
NS(=O)(=O)c1cccc(/C=C/c2cc3cc(Cl)ccc3c(=O)n2CC2CCNCC2)c1

>  <score_type>  (4) 
oracle

>  <origin>  (4) 
autodockgpu

>  <m_score__min__energy>  (4) 
-9.2899999999999991

>  <m_primary>  (4) 
energy

>  <rmsd>  (4) 
5.584991377691868

>  <m_score__min__rmsd>  (4) 
5.584991377691868

>  <meeko>  (4) 
{"free_energy": -9.03, "intermolecular_energy": -11.12, "internal_energy": -1.19, "cluster_size": 6, "cluster_id": 1, "rank_in_cluster": 5}

>  <energy>  (4) 
-9.03

>  <cluster_rmsd>  (4) 
0.43

>  <cluster>  (4) 
1

$$$$

     RDKit          3D

 55 58  0  0  0  0  0  0  0  0999 V2000
  148.6230   74.8160  216.7550 N   0  0  0  0  0  0  0  0  0  0  0  0
  147.1780   73.9550  216.3490 S   0  0  0  0  0  0  0  0  0  0  0  0
  147.5000   72.8400  215.3850 O   0  0  0  0  0  0  0  0  0  0  0  0
  146.5830   73.3920  217.5980 O   0  0  0  0  0  0  0  0  0  0  0  0
  146.0630   75.1130  215.6330 C   0  0  0  0  0  0  0  0  0  0  0  0
  146.3060   75.6800  214.4000 C   0  0  0  0  0  0  0  0  0  0  0  0
  145.3760   76.5760  213.9270 C   0  0  0  0  0  0  0  0  0  0  0  0
  144.2360   76.9080  214.6450 C   0  0  0  0  0  0  0  0  0  0  0  0
  143.9850   76.3500  215.8730 C   0  0  0  0  0  0  0  0  0  0  0  0
  142.8060   76.6540  216.6880 C   0  0  0  0  0  0  0  0  0  0  0  0
  142.3950   75.9450  217.7010 C   0  0  0  0  0  0  0  0  0  0  0  0
  141.9910   76.2940  219.0220 C   0  0  0  0  0  0  0  0  0  0  0  0
  141.9990   77.6680  219.3300 C   0  0  0  0  0  0  0  0  0  0  0  0
  141.7020   78.1830  220.5460 C   0  0  0  0  0  0  0  0  0  0  0  0
  141.7340   79.5280  220.7630 C   0  0  0  0  0  0  0  0  0  0  0  0
  141.4200   79.9780  222.0340 C   0  0  0  0  0  0  0  0  0  0  0  0
  141.4550   81.7000  222.3350 Cl  0  0  0  0  0  0  0  0  0  0  0  0
  141.0810   79.1320  223.0700 C   0  0  0  0  0  0  0  0  0  0  0  0
  141.0510   77.7750  222.8360 C   0  0  0  0  0  0  0  0  0  0  0  0
  141.3670   77.3310  221.5650 C   0  0  0  0  0  0  0  0  0  0  0  0
  141.3540   75.9960  221.2820 C   0  0  0  0  0  0  0  0  0  0  0  0
  141.0420   75.2160  222.2340 O   0  0  0  0  0  0  0  0  0  0  0  0
  141.6590   75.4810  220.0350 N   0  0  0  0  0  0  0  0  0  0  0  0
  141.6310   74.0540  219.9730 C   0  0  0  0  0  0  0  0  0  0  0  0
  142.8240   73.3360  220.4760 C   0  0  0  0  0  0  0  0  0  0  0  0
  143.1160   72.0190  219.8910 C   0  0  0  0  0  0  0  0  0  0  0  0
  144.3430   72.1310  218.9800 C   0  0  0  0  0  0  0  0  0  0  0  0
  145.4930   72.2440  219.8580 N   0  0  0  0  0  0  0  0  0  0  0  0
  145.3310   73.4240  220.6480 C   0  0  0  0  0  0  0  0  0  0  0  0
  144.0770   74.1920  220.4300 C   0  0  0  0  0  0  0  0  0  0  0  0
  144.9310   75.4440  216.3430 C   0  0  0  0  0  0  0  0  0  0  0  0
  148.6720   74.8800  217.7950 H   0  0  0  0  0  0  0  0  0  0  0  0
  148.4510   75.8020  216.4140 H   0  0  0  0  0  0  0  0  0  0  0  0
  147.2053   75.4266  213.8194 H   0  0  0  0  0  0  0  0  0  0  0  0
  145.5415   77.0454  212.9461 H   0  0  0  0  0  0  0  0  0  0  0  0
  143.5219   77.6303  214.2228 H   0  0  0  0  0  0  0  0  0  0  0  0
  142.2234   77.5491  216.4246 H   0  0  0  0  0  0  0  0  0  0  0  0
  142.3514   74.8651  217.4961 H   0  0  0  0  0  0  0  0  0  0  0  0
  142.2649   78.3713  218.5271 H   0  0  0  0  0  0  0  0  0  0  0  0
  141.9993   80.2297  219.9585 H   0  0  0  0  0  0  0  0  0  0  0  0
  140.8391   79.5341  224.0649 H   0  0  0  0  0  0  0  0  0  0  0  0
  140.7842   77.0671  223.6345 H   0  0  0  0  0  0  0  0  0  0  0  0
  140.7661   73.7132  220.5611 H   0  0  0  0  0  0  0  0  0  0  0  0
  141.5852   73.8155  218.9002 H   0  0  0  0  0  0  0  0  0  0  0  0
  142.5289   73.1288  221.5152 H   0  0  0  0  0  0  0  0  0  0  0  0
  143.3200   71.2967  220.6951 H   0  0  0  0  0  0  0  0  0  0  0  0
  142.2511   71.6762  219.3042 H   0  0  0  0  0  0  0  0  0  0  0  0
  144.4321   71.2343  218.3491 H   0  0  0  0  0  0  0  0  0  0  0  0
  144.2651   72.9993  218.3092 H   0  0  0  0  0  0  0  0  0  0  0  0
  146.3720   72.3120  219.3200 H   0  0  0  0  0  0  0  0  0  0  0  0
  145.3627   73.1264  221.7065 H   0  0  0  0  0  0  0  0  0  0  0  0
  146.1456   74.0972  220.3427 H   0  0  0  0  0  0  0  0  0  0  0  0
  144.0007   74.9623  221.2115 H   0  0  0  0  0  0  0  0  0  0  0  0
  144.1352   74.6245  219.4203 H   0  0  0  0  0  0  0  0  0  0  0  0
  144.7673   74.9724  217.3232 H   0  0  0  0  0  0  0  0  0  0  0  0
  1  2  1  0
  2  3  2  0
  2  4  2  0
  2  5  1  0
  5  6  2  0
  6  7  1  0
  7  8  2  0
  8  9  1  0
  9 10  1  0
 10 11  2  0
 11 12  1  0
 12 13  2  0
 13 14  1  0
 14 15  2  0
 15 16  1  0
 16 17  1  0
 16 18  2  0
 18 19  1  0
 19 20  2  0
 20 21  1  0
 21 22  2  0
 21 23  1  0
 23 24  1  0
 24 25  1  0
 25 26  1  0
 26 27  1  0
 27 28  1  0
 28 29  1  0
 29 30  1  0
  9 31  2  0
 31  5  1  0
 23 12  1  0
 30 25  1  0
 20 14  1  0
  1 32  1  0
  1 33  1  0
  6 34  1  0
  7 35  1  0
  8 36  1  0
 10 37  1  0
 11 38  1  0
 13 39  1  0
 15 40  1  0
 18 41  1  0
 19 42  1  0
 24 43  1  0
 24 44  1  0
 25 45  1  0
 26 46  1  0
 26 47  1  0
 27 48  1  0
 27 49  1  0
 28 50  1  0
 29 51  1  0
 29 52  1  0
 30 53  1  0
 30 54  1  0
 31 55  1  0
M  END
>  <smiles>  (5) 
NS(=O)(=O)c1cccc(/C=C/c2cc3cc(Cl)ccc3c(=O)n2CC2CCNCC2)c1

>  <score_type>  (5) 
oracle

>  <origin>  (5) 
autodockgpu

>  <m_score__min__energy>  (5) 
-9.2899999999999991

>  <m_primary>  (5) 
energy

>  <rmsd>  (5) 
5.3323534557734185

>  <m_score__min__rmsd>  (5) 
5.3323534557734185

>  <meeko>  (5) 
{"free_energy": -7.42, "intermolecular_energy": -9.51, "internal_energy": -2.42, "cluster_size": 4, "cluster_id": 6, "rank_in_cluster": 4}

>  <energy>  (5) 
-9.03

>  <cluster_rmsd>  (5) 
1.79

>  <cluster>  (5) 
1

$$$$

     RDKit          3D

 55 58  0  0  0  0  0  0  0  0999 V2000
  141.4170   69.8750  228.4770 N   0  0  0  0  0  0  0  0  0  0  0  0
  140.7490   71.2750  227.7090 S   0  0  0  0  0  0  0  0  0  0  0  0
  139.6240   71.8300  228.5460 O   0  0  0  0  0  0  0  0  0  0  0  0
  141.8230   72.3010  227.5540 O   0  0  0  0  0  0  0  0  0  0  0  0
  140.1750   70.7770  226.1220 C   0  0  0  0  0  0  0  0  0  0  0  0
  139.3200   69.7050  225.9680 C   0  0  0  0  0  0  0  0  0  0  0  0
  138.9300   69.3940  224.6870 C   0  0  0  0  0  0  0  0  0  0  0  0
  139.3670   70.1130  223.5840 C   0  0  0  0  0  0  0  0  0  0  0  0
  140.2170   71.1810  223.7250 C   0  0  0  0  0  0  0  0  0  0  0  0
  140.7210   71.9840  222.6090 C   0  0  0  0  0  0  0  0  0  0  0  0
  140.2480   73.1430  222.2500 C   0  0  0  0  0  0  0  0  0  0  0  0
  140.8330   74.2610  221.5870 C   0  0  0  0  0  0  0  0  0  0  0  0
  140.4910   75.5300  222.0930 C   0  0  0  0  0  0  0  0  0  0  0  0
  140.9030   76.7040  221.5590 C   0  0  0  0  0  0  0  0  0  0  0  0
  140.5260   77.8930  222.1100 C   0  0  0  0  0  0  0  0  0  0  0  0
  140.9860   79.0510  221.5060 C   0  0  0  0  0  0  0  0  0  0  0  0
  140.5150   80.5870  222.1970 Cl  0  0  0  0  0  0  0  0  0  0  0  0
  141.7970   79.0470  220.3910 C   0  0  0  0  0  0  0  0  0  0  0  0
  142.1710   77.8390  219.8460 C   0  0  0  0  0  0  0  0  0  0  0  0
  141.7080   76.6850  220.4520 C   0  0  0  0  0  0  0  0  0  0  0  0
  142.0490   75.4630  219.9500 C   0  0  0  0  0  0  0  0  0  0  0  0
  142.7950   75.4580  218.9220 O   0  0  0  0  0  0  0  0  0  0  0  0
  141.6220   74.2700  220.5030 N   0  0  0  0  0  0  0  0  0  0  0  0
  142.0560   73.1100  219.7890 C   0  0  0  0  0  0  0  0  0  0  0  0
  143.4660   72.6980  219.9700 C   0  0  0  0  0  0  0  0  0  0  0  0
  144.2140   72.3020  218.7680 C   0  0  0  0  0  0  0  0  0  0  0  0
  145.2330   73.3940  218.4220 C   0  0  0  0  0  0  0  0  0  0  0  0
  146.3020   73.2770  219.3970 N   0  0  0  0  0  0  0  0  0  0  0  0
  145.7400   73.4900  220.6940 C   0  0  0  0  0  0  0  0  0  0  0  0
  144.2740   73.7250  220.7450 C   0  0  0  0  0  0  0  0  0  0  0  0
  140.6060   71.4900  225.0260 C   0  0  0  0  0  0  0  0  0  0  0  0
  142.2120   70.1900  229.0740 H   0  0  0  0  0  0  0  0  0  0  0  0
  141.8530   69.3210  227.6880 H   0  0  0  0  0  0  0  0  0  0  0  0
  138.9659   69.1245  226.8327 H   0  0  0  0  0  0  0  0  0  0  0  0
  138.2476   68.5454  224.5311 H   0  0  0  0  0  0  0  0  0  0  0  0
  139.0264   69.8220  222.5794 H   0  0  0  0  0  0  0  0  0  0  0  0
  141.5631   71.5773  222.0299 H   0  0  0  0  0  0  0  0  0  0  0  0
  139.1889   73.2876  222.5094 H   0  0  0  0  0  0  0  0  0  0  0  0
  139.8452   75.5701  222.9826 H   0  0  0  0  0  0  0  0  0  0  0  0
  139.8811   77.9308  223.0003 H   0  0  0  0  0  0  0  0  0  0  0  0
  142.1393   79.9923  219.9446 H   0  0  0  0  0  0  0  0  0  0  0  0
  142.8173   77.7932  218.9571 H   0  0  0  0  0  0  0  0  0  0  0  0
  141.4214   72.2690  220.1052 H   0  0  0  0  0  0  0  0  0  0  0  0
  141.9717   73.3806  218.7262 H   0  0  0  0  0  0  0  0  0  0  0  0
  143.3470   71.7717  220.5513 H   0  0  0  0  0  0  0  0  0  0  0  0
  144.7406   71.3552  218.9584 H   0  0  0  0  0  0  0  0  0  0  0  0
  143.5169   72.1692  217.9275 H   0  0  0  0  0  0  0  0  0  0  0  0
  145.6256   73.2405  217.4060 H   0  0  0  0  0  0  0  0  0  0  0  0
  144.7736   74.3931  218.4502 H   0  0  0  0  0  0  0  0  0  0  0  0
  147.0440   73.9740  219.2270 H   0  0  0  0  0  0  0  0  0  0  0  0
  145.9585   72.6012  221.3041 H   0  0  0  0  0  0  0  0  0  0  0  0
  146.1992   74.4186  221.0640 H   0  0  0  0  0  0  0  0  0  0  0  0
  143.9538   73.6975  221.7970 H   0  0  0  0  0  0  0  0  0  0  0  0
  144.0875   74.7025  220.2763 H   0  0  0  0  0  0  0  0  0  0  0  0
  141.2864   72.3397  225.1846 H   0  0  0  0  0  0  0  0  0  0  0  0
  1  2  1  0
  2  3  2  0
  2  4  2  0
  2  5  1  0
  5  6  2  0
  6  7  1  0
  7  8  2  0
  8  9  1  0
  9 10  1  0
 10 11  2  0
 11 12  1  0
 12 13  2  0
 13 14  1  0
 14 15  2  0
 15 16  1  0
 16 17  1  0
 16 18  2  0
 18 19  1  0
 19 20  2  0
 20 21  1  0
 21 22  2  0
 21 23  1  0
 23 24  1  0
 24 25  1  0
 25 26  1  0
 26 27  1  0
 27 28  1  0
 28 29  1  0
 29 30  1  0
  9 31  2  0
 31  5  1  0
 23 12  1  0
 30 25  1  0
 20 14  1  0
  1 32  1  0
  1 33  1  0
  6 34  1  0
  7 35  1  0
  8 36  1  0
 10 37  1  0
 11 38  1  0
 13 39  1  0
 15 40  1  0
 18 41  1  0
 19 42  1  0
 24 43  1  0
 24 44  1  0
 25 45  1  0
 26 46  1  0
 26 47  1  0
 27 48  1  0
 27 49  1  0
 28 50  1  0
 29 51  1  0
 29 52  1  0
 30 53  1  0
 30 54  1  0
 31 55  1  0
M  END
>  <smiles>  (6) 
NS(=O)(=O)c1cccc(/C=C/c2cc3cc(Cl)ccc3c(=O)n2CC2CCNCC2)c1

>  <score_type>  (6) 
oracle

>  <origin>  (6) 
autodockgpu

>  <m_score__min__energy>  (6) 
-9.2899999999999991

>  <m_primary>  (6) 
energy

>  <rmsd>  (6) 
5.365386651399156

>  <m_score__min__rmsd>  (6) 
5.365386651399156

>  <meeko>  (6) 
{"free_energy": -9.23, "intermolecular_energy": -11.32, "internal_energy": -1.17, "cluster_size": 6, "cluster_id": 1, "rank_in_cluster": 3}

>  <energy>  (6) 
-8.73

>  <cluster_rmsd>  (6) 
1.82

>  <cluster>  (6) 
1

$$$$

     RDKit          3D

 55 58  0  0  0  0  0  0  0  0999 V2000
  148.1960   74.8720  217.1850 N   0  0  0  0  0  0  0  0  0  0  0  0
  147.9320   74.5180  215.5120 S   0  0  0  0  0  0  0  0  0  0  0  0
  149.0220   75.1420  214.6780 O   0  0  0  0  0  0  0  0  0  0  0  0
  147.9330   73.0360  215.3260 O   0  0  0  0  0  0  0  0  0  0  0  0
  146.3530   75.1650  215.0830 C   0  0  0  0  0  0  0  0  0  0  0  0
  146.0830   75.6220  213.8100 C   0  0  0  0  0  0  0  0  0  0  0  0
  144.8190   76.1120  213.5750 C   0  0  0  0  0  0  0  0  0  0  0  0
  143.8450   76.1540  214.5620 C   0  0  0  0  0  0  0  0  0  0  0  0
  144.1030   75.7030  215.8310 C   0  0  0  0  0  0  0  0  0  0  0  0
  143.1270   75.7180  216.9240 C   0  0  0  0  0  0  0  0  0  0  0  0
  143.3780   76.0960  218.1440 C   0  0  0  0  0  0  0  0  0  0  0  0
  142.5520   76.2560  219.2950 C   0  0  0  0  0  0  0  0  0  0  0  0
  142.3050   77.5810  219.7010 C   0  0  0  0  0  0  0  0  0  0  0  0
  141.5930   77.9260  220.8000 C   0  0  0  0  0  0  0  0  0  0  0  0
  141.4000   79.2360  221.1260 C   0  0  0  0  0  0  0  0  0  0  0  0
  140.6620   79.5080  222.2650 C   0  0  0  0  0  0  0  0  0  0  0  0
  140.4030   81.1810  222.7010 Cl  0  0  0  0  0  0  0  0  0  0  0  0
  140.1250   78.5240  223.0670 C   0  0  0  0  0  0  0  0  0  0  0  0
  140.3270   77.2050  222.7250 C   0  0  0  0  0  0  0  0  0  0  0  0
  141.0650   76.9370  221.5870 C   0  0  0  0  0  0  0  0  0  0  0  0
  141.2950   75.6480  221.2060 C   0  0  0  0  0  0  0  0  0  0  0  0
  140.8010   74.7400  221.9440 O   0  0  0  0  0  0  0  0  0  0  0  0
  142.0240   75.3070  220.0810 N   0  0  0  0  0  0  0  0  0  0  0  0
  142.1840   73.8990  219.8960 C   0  0  0  0  0  0  0  0  0  0  0  0
  143.5370   73.3410  220.1180 C   0  0  0  0  0  0  0  0  0  0  0  0
  144.1230   72.5390  219.0330 C   0  0  0  0  0  0  0  0  0  0  0  0
  145.2450   73.3400  218.3630 C   0  0  0  0  0  0  0  0  0  0  0  0
  146.3660   73.3190  219.2840 N   0  0  0  0  0  0  0  0  0  0  0  0
  145.9480   73.9420  220.5010 C   0  0  0  0  0  0  0  0  0  0  0  0
  144.5350   74.4000  220.5520 C   0  0  0  0  0  0  0  0  0  0  0  0
  145.3840   75.2080  216.0600 C   0  0  0  0  0  0  0  0  0  0  0  0
  149.1250   74.4800  217.4500 H   0  0  0  0  0  0  0  0  0  0  0  0
  147.4800   74.2860  217.6980 H   0  0  0  0  0  0  0  0  0  0  0  0
  146.8450   75.5959  213.0171 H   0  0  0  0  0  0  0  0  0  0  0  0
  144.5721   76.4834  212.5695 H   0  0  0  0  0  0  0  0  0  0  0  0
  142.8493   76.5557  214.3227 H   0  0  0  0  0  0  0  0  0  0  0  0
  142.1039   75.3843  216.6960 H   0  0  0  0  0  0  0  0  0  0  0  0
  144.4357   76.3401  218.3220 H   0  0  0  0  0  0  0  0  0  0  0  0
  142.7187   78.3917  219.0832 H   0  0  0  0  0  0  0  0  0  0  0  0
  141.8149   80.0455  220.5075 H   0  0  0  0  0  0  0  0  0  0  0  0
  139.5455   78.7873  223.9641 H   0  0  0  0  0  0  0  0  0  0  0  0
  139.9140   76.3904  223.3381 H   0  0  0  0  0  0  0  0  0  0  0  0
  141.4983   73.3930  220.5915 H   0  0  0  0  0  0  0  0  0  0  0  0
  141.9751   73.7256  218.8300 H   0  0  0  0  0  0  0  0  0  0  0  0
  143.3456   72.6257  220.9315 H   0  0  0  0  0  0  0  0  0  0  0  0
  144.5334   71.6057  219.4459 H   0  0  0  0  0  0  0  0  0  0  0  0
  143.3473   72.2983  218.2912 H   0  0  0  0  0  0  0  0  0  0  0  0
  145.5280   72.8736  217.4078 H   0  0  0  0  0  0  0  0  0  0  0  0
  144.9259   74.3698  218.1449 H   0  0  0  0  0  0  0  0  0  0  0  0
  147.1780   73.8290  218.9000 H   0  0  0  0  0  0  0  0  0  0  0  0
  146.0960   73.2186  221.3164 H   0  0  0  0  0  0  0  0  0  0  0  0
  146.5565   74.8541  220.5889 H   0  0  0  0  0  0  0  0  0  0  0  0
  144.3020   74.6946  221.5859 H   0  0  0  0  0  0  0  0  0  0  0  0
  144.4421   75.2392  219.8470 H   0  0  0  0  0  0  0  0  0  0  0  0
  145.6325   74.8353  217.0646 H   0  0  0  0  0  0  0  0  0  0  0  0
  1  2  1  0
  2  3  2  0
  2  4  2  0
  2  5  1  0
  5  6  2  0
  6  7  1  0
  7  8  2  0
  8  9  1  0
  9 10  1  0
 10 11  2  0
 11 12  1  0
 12 13  2  0
 13 14  1  0
 14 15  2  0
 15 16  1  0
 16 17  1  0
 16 18  2  0
 18 19  1  0
 19 20  2  0
 20 21  1  0
 21 22  2  0
 21 23  1  0
 23 24  1  0
 24 25  1  0
 25 26  1  0
 26 27  1  0
 27 28  1  0
 28 29  1  0
 29 30  1  0
  9 31  2  0
 31  5  1  0
 23 12  1  0
 30 25  1  0
 20 14  1  0
  1 32  1  0
  1 33  1  0
  6 34  1  0
  7 35  1  0
  8 36  1  0
 10 37  1  0
 11 38  1  0
 13 39  1  0
 15 40  1  0
 18 41  1  0
 19 42  1  0
 24 43  1  0
 24 44  1  0
 25 45  1  0
 26 46  1  0
 26 47  1  0
 27 48  1  0
 27 49  1  0
 28 50  1  0
 29 51  1  0
 29 52  1  0
 30 53  1  0
 30 54  1  0
 31 55  1  0
M  END
>  <smiles>  (7) 
NS(=O)(=O)c1cccc(/C=C/c2cc3cc(Cl)ccc3c(=O)n2CC2CCNCC2)c1

>  <score_type>  (7) 
oracle

>  <origin>  (7) 
autodockgpu

>  <m_score__min__energy>  (7) 
-9.2899999999999991

>  <m_primary>  (7) 
energy

>  <rmsd>  (7) 
5.294931172782732

>  <m_score__min__rmsd>  (7) 
5.294931172782732

>  <meeko>  (7) 
{"free_energy": -7.83, "intermolecular_energy": -9.92, "internal_energy": -2.68, "cluster_size": 4, "cluster_id": 6, "rank_in_cluster": 2}

>  <energy>  (7) 
-8.76

>  <cluster_rmsd>  (7) 
0.0

>  <cluster>  (7) 
2

$$$$

     RDKit          3D

 55 58  0  0  0  0  0  0  0  0999 V2000
  141.8010   82.2550  219.5940 N   0  0  0  0  0  0  0  0  0  0  0  0
  140.6270   82.1280  220.8600 S   0  0  0  0  0  0  0  0  0  0  0  0
  140.4470   83.4680  221.5280 O   0  0  0  0  0  0  0  0  0  0  0  0
  139.3300   81.6730  220.2720 O   0  0  0  0  0  0  0  0  0  0  0  0
  141.2130   80.9220  221.9980 C   0  0  0  0  0  0  0  0  0  0  0  0
  142.1900   81.2210  222.9260 C   0  0  0  0  0  0  0  0  0  0  0  0
  142.5830   80.2090  223.7700 C   0  0  0  0  0  0  0  0  0  0  0  0
  142.0340   78.9360  223.7080 C   0  0  0  0  0  0  0  0  0  0  0  0
  141.0620   78.6280  222.7900 C   0  0  0  0  0  0  0  0  0  0  0  0
  140.4390   77.3080  222.6640 C   0  0  0  0  0  0  0  0  0  0  0  0
  140.1590   76.7190  221.5370 C   0  0  0  0  0  0  0  0  0  0  0  0
  140.9750   76.2100  220.4850 C   0  0  0  0  0  0  0  0  0  0  0  0
  141.9830   75.3040  220.8660 C   0  0  0  0  0  0  0  0  0  0  0  0
  142.8880   74.7620  220.0170 C   0  0  0  0  0  0  0  0  0  0  0  0
  143.8350   73.8900  220.4670 C   0  0  0  0  0  0  0  0  0  0  0  0
  144.7260   73.3800  219.5390 C   0  0  0  0  0  0  0  0  0  0  0  0
  145.9490   72.2610  220.0950 Cl  0  0  0  0  0  0  0  0  0  0  0  0
  144.6910   73.7110  218.2010 C   0  0  0  0  0  0  0  0  0  0  0  0
  143.7280   74.5920  217.7600 C   0  0  0  0  0  0  0  0  0  0  0  0
  142.8400   75.1000  218.6910 C   0  0  0  0  0  0  0  0  0  0  0  0
  141.8690   75.9760  218.3050 C   0  0  0  0  0  0  0  0  0  0  0  0
  141.8350   76.2830  217.0740 O   0  0  0  0  0  0  0  0  0  0  0  0
  140.9500   76.5250  219.1820 N   0  0  0  0  0  0  0  0  0  0  0  0
  140.0520   77.4560  218.5750 C   0  0  0  0  0  0  0  0  0  0  0  0
  140.4980   78.8650  218.4940 C   0  0  0  0  0  0  0  0  0  0  0  0
  141.7410   79.2210  219.1950 C   0  0  0  0  0  0  0  0  0  0  0  0
  142.8500   79.4670  218.1660 C   0  0  0  0  0  0  0  0  0  0  0  0
  142.5630   80.7520  217.5570 N   0  0  0  0  0  0  0  0  0  0  0  0
  141.2850   80.6640  216.9230 C   0  0  0  0  0  0  0  0  0  0  0  0
  140.5710   79.3680  217.0620 C   0  0  0  0  0  0  0  0  0  0  0  0
  140.6700   79.6580  221.9400 C   0  0  0  0  0  0  0  0  0  0  0  0
  141.2960   82.1800  218.6850 H   0  0  0  0  0  0  0  0  0  0  0  0
  142.3770   81.3720  219.6760 H   0  0  0  0  0  0  0  0  0  0  0  0
  142.6349   82.2251  222.9877 H   0  0  0  0  0  0  0  0  0  0  0  0
  143.3599   80.4158  224.5208 H   0  0  0  0  0  0  0  0  0  0  0  0
  142.3838   78.1613  224.4062 H   0  0  0  0  0  0  0  0  0  0  0  0
  140.1887   76.7737  223.5924 H   0  0  0  0  0  0  0  0  0  0  0  0
  139.0808   76.5886  221.3625 H   0  0  0  0  0  0  0  0  0  0  0  0
  142.0393   75.0166  221.9263 H   0  0  0  0  0  0  0  0  0  0  0  0
  143.8886   73.6029  221.5275 H   0  0  0  0  0  0  0  0  0  0  0  0
  145.4189   73.2794  217.4983 H   0  0  0  0  0  0  0  0  0  0  0  0
  143.6672   74.8823  216.7007 H   0  0  0  0  0  0  0  0  0  0  0  0
  139.8586   77.1097  217.5490 H   0  0  0  0  0  0  0  0  0  0  0  0
  139.1705   77.4729  219.2328 H   0  0  0  0  0  0  0  0  0  0  0  0
  139.6983   79.3769  219.0494 H   0  0  0  0  0  0  0  0  0  0  0  0
  141.5803   80.1338  219.7874 H   0  0  0  0  0  0  0  0  0  0  0  0
  142.0350   78.3991  219.8644 H   0  0  0  0  0  0  0  0  0  0  0  0
  143.8314   79.4915  218.6623 H   0  0  0  0  0  0  0  0  0  0  0  0
  142.8813   78.6659  217.4129 H   0  0  0  0  0  0  0  0  0  0  0  0
  143.2760   81.0030  216.8540 H   0  0  0  0  0  0  0  0  0  0  0  0
  140.6433   81.4482  217.3512 H   0  0  0  0  0  0  0  0  0  0  0  0
  141.4821   80.7774  215.8468 H   0  0  0  0  0  0  0  0  0  0  0  0
  139.5454   79.4936  216.6847 H   0  0  0  0  0  0  0  0  0  0  0  0
  141.1397   78.6227  216.4866 H   0  0  0  0  0  0  0  0  0  0  0  0
  139.8926   79.4534  221.1892 H   0  0  0  0  0  0  0  0  0  0  0  0
  1  2  1  0
  2  3  2  0
  2  4  2  0
  2  5  1  0
  5  6  2  0
  6  7  1  0
  7  8  2  0
  8  9  1  0
  9 10  1  0
 10 11  2  0
 11 12  1  0
 12 13  2  0
 13 14  1  0
 14 15  2  0
 15 16  1  0
 16 17  1  0
 16 18  2  0
 18 19  1  0
 19 20  2  0
 20 21  1  0
 21 22  2  0
 21 23  1  0
 23 24  1  0
 24 25  1  0
 25 26  1  0
 26 27  1  0
 27 28  1  0
 28 29  1  0
 29 30  1  0
  9 31  2  0
 31  5  1  0
 23 12  1  0
 30 25  1  0
 20 14  1  0
  1 32  1  0
  1 33  1  0
  6 34  1  0
  7 35  1  0
  8 36  1  0
 10 37  1  0
 11 38  1  0
 13 39  1  0
 15 40  1  0
 18 41  1  0
 19 42  1  0
 24 43  1  0
 24 44  1  0
 25 45  1  0
 26 46  1  0
 26 47  1  0
 27 48  1  0
 27 49  1  0
 28 50  1  0
 29 51  1  0
 29 52  1  0
 30 53  1  0
 30 54  1  0
 31 55  1  0
M  END
>  <smiles>  (8) 
NS(=O)(=O)c1cccc(/C=C/c2cc3cc(Cl)ccc3c(=O)n2CC2CCNCC2)c1

>  <score_type>  (8) 
oracle

>  <origin>  (8) 
autodockgpu

>  <m_score__min__energy>  (8) 
-9.2899999999999991

>  <m_primary>  (8) 
energy

>  <rmsd>  (8) 
6.668657998687881

>  <m_score__min__rmsd>  (8) 
6.668657998687881

>  <meeko>  (8) 
{"free_energy": -6.35, "intermolecular_energy": -8.44, "internal_energy": -3.39, "cluster_size": 1, "cluster_id": 18, "rank_in_cluster": 1}

>  <energy>  (8) 
-8.74

>  <cluster_rmsd>  (8) 
0.0

>  <cluster>  (8) 
3

$$$$

     RDKit          3D

 55 58  0  0  0  0  0  0  0  0999 V2000
  141.0740   77.4630  223.0230 N   0  0  0  0  0  0  0  0  0  0  0  0
  141.0440   79.1220  223.5160 S   0  0  0  0  0  0  0  0  0  0  0  0
  139.7150   79.4440  224.1510 O   0  0  0  0  0  0  0  0  0  0  0  0
  142.1470   79.3550  224.4960 O   0  0  0  0  0  0  0  0  0  0  0  0
  141.3150   80.1000  222.0790 C   0  0  0  0  0  0  0  0  0  0  0  0
  141.1990   81.4740  222.1090 C   0  0  0  0  0  0  0  0  0  0  0  0
  141.4280   82.1480  220.9330 C   0  0  0  0  0  0  0  0  0  0  0  0
  141.7630   81.4940  219.7560 C   0  0  0  0  0  0  0  0  0  0  0  0
  141.8810   80.1280  219.7150 C   0  0  0  0  0  0  0  0  0  0  0  0
  142.2280   79.3690  218.5100 C   0  0  0  0  0  0  0  0  0  0  0  0
  141.7190   78.2160  218.1820 C   0  0  0  0  0  0  0  0  0  0  0  0
  141.7600   76.9320  218.7990 C   0  0  0  0  0  0  0  0  0  0  0  0
  143.0340   76.4680  219.1810 C   0  0  0  0  0  0  0  0  0  0  0  0
  143.2760   75.2530  219.7270 C   0  0  0  0  0  0  0  0  0  0  0  0
  144.5410   74.8800  220.0690 C   0  0  0  0  0  0  0  0  0  0  0  0
  144.7080   73.6210  220.6210 C   0  0  0  0  0  0  0  0  0  0  0  0
  146.3240   73.1210  221.0670 Cl  0  0  0  0  0  0  0  0  0  0  0  0
  143.6620   72.7480  220.8350 C   0  0  0  0  0  0  0  0  0  0  0  0
  142.3890   73.1400  220.4860 C   0  0  0  0  0  0  0  0  0  0  0  0
  142.2270   74.3970  219.9340 C   0  0  0  0  0  0  0  0  0  0  0  0
  140.9860   74.8320  219.5710 C   0  0  0  0  0  0  0  0  0  0  0  0
  140.0220   74.0290  219.7670 O   0  0  0  0  0  0  0  0  0  0  0  0
  140.7510   76.0750  219.0130 N   0  0  0  0  0  0  0  0  0  0  0  0
  139.3850   76.3060  218.6620 C   0  0  0  0  0  0  0  0  0  0  0  0
  138.4990   76.8360  219.7220 C   0  0  0  0  0  0  0  0  0  0  0  0
  138.0600   75.8980  220.7670 C   0  0  0  0  0  0  0  0  0  0  0  0
  138.7830   76.2270  222.0780 C   0  0  0  0  0  0  0  0  0  0  0  0
  138.1650   77.4350  222.5910 N   0  0  0  0  0  0  0  0  0  0  0  0
  138.3560   78.4720  221.6260 C   0  0  0  0  0  0  0  0  0  0  0  0
  139.0630   78.0850  220.3780 C   0  0  0  0  0  0  0  0  0  0  0  0
  141.6480   79.4530  220.9100 C   0  0  0  0  0  0  0  0  0  0  0  0
  140.2080   77.0090  223.3850 H   0  0  0  0  0  0  0  0  0  0  0  0
  141.8720   77.0370  223.5700 H   0  0  0  0  0  0  0  0  0  0  0  0
  140.9347   82.0074  223.0340 H   0  0  0  0  0  0  0  0  0  0  0  0
  141.3426   83.2447  220.9248 H   0  0  0  0  0  0  0  0  0  0  0  0
  141.9367   82.0801  218.8415 H   0  0  0  0  0  0  0  0  0  0  0  0
  142.9750   79.8065  217.8313 H   0  0  0  0  0  0  0  0  0  0  0  0
  141.1444   78.2374  217.2443 H   0  0  0  0  0  0  0  0  0  0  0  0
  143.8914   77.1392  219.0249 H   0  0  0  0  0  0  0  0  0  0  0  0
  145.3968   75.5531  219.9126 H   0  0  0  0  0  0  0  0  0  0  0  0
  143.8414   71.7566  221.2765 H   0  0  0  0  0  0  0  0  0  0  0  0
  141.5277   72.4736  220.6416 H   0  0  0  0  0  0  0  0  0  0  0  0
  139.3734   77.0251  217.8297 H   0  0  0  0  0  0  0  0  0  0  0  0
  138.9799   75.3119  218.4220 H   0  0  0  0  0  0  0  0  0  0  0  0
  137.5913   77.0707  219.1467 H   0  0  0  0  0  0  0  0  0  0  0  0
  136.9737   75.9920  220.9126 H   0  0  0  0  0  0  0  0  0  0  0  0
  138.2988   74.8683  220.4624 H   0  0  0  0  0  0  0  0  0  0  0  0
  138.6628   75.4028  222.7966 H   0  0  0  0  0  0  0  0  0  0  0  0
  139.8618   76.3675  221.9156 H   0  0  0  0  0  0  0  0  0  0  0  0
  138.5890   77.7220  223.4890 H   0  0  0  0  0  0  0  0  0  0  0  0
  137.3641   78.8554  221.3446 H   0  0  0  0  0  0  0  0  0  0  0  0
  139.0060   79.2127  222.1148 H   0  0  0  0  0  0  0  0  0  0  0  0
  138.9876   78.9176  219.6631 H   0  0  0  0  0  0  0  0  0  0  0  0
  140.1047   77.8628  220.6529 H   0  0  0  0  0  0  0  0  0  0  0  0
  141.7335   78.3564  220.9209 H   0  0  0  0  0  0  0  0  0  0  0  0
  1  2  1  0
  2  3  2  0
  2  4  2  0
  2  5  1  0
  5  6  2  0
  6  7  1  0
  7  8  2  0
  8  9  1  0
  9 10  1  0
 10 11  2  0
 11 12  1  0
 12 13  2  0
 13 14  1  0
 14 15  2  0
 15 16  1  0
 16 17  1  0
 16 18  2  0
 18 19  1  0
 19 20  2  0
 20 21  1  0
 21 22  2  0
 21 23  1  0
 23 24  1  0
 24 25  1  0
 25 26  1  0
 26 27  1  0
 27 28  1  0
 28 29  1  0
 29 30  1  0
  9 31  2  0
 31  5  1  0
 23 12  1  0
 30 25  1  0
 20 14  1  0
  1 32  1  0
  1 33  1  0
  6 34  1  0
  7 35  1  0
  8 36  1  0
 10 37  1  0
 11 38  1  0
 13 39  1  0
 15 40  1  0
 18 41  1  0
 19 42  1  0
 24 43  1  0
 24 44  1  0
 25 45  1  0
 26 46  1  0
 26 47  1  0
 27 48  1  0
 27 49  1  0
 28 50  1  0
 29 51  1  0
 29 52  1  0
 30 53  1  0
 30 54  1  0
 31 55  1  0
M  END
>  <smiles>  (9) 
NS(=O)(=O)c1cccc(/C=C/c2cc3cc(Cl)ccc3c(=O)n2CC2CCNCC2)c1

>  <score_type>  (9) 
oracle

>  <origin>  (9) 
autodockgpu

>  <m_score__min__energy>  (9) 
-9.2899999999999991

>  <m_primary>  (9) 
energy

>  <rmsd>  (9) 
7.073126896188363

>  <m_score__min__rmsd>  (9) 
7.073126896188363

>  <meeko>  (9) 
{"free_energy": -6.36, "intermolecular_energy": -8.45, "internal_energy": -3.6, "cluster_size": 2, "cluster_id": 15, "rank_in_cluster": 2}

>  <energy>  (9) 
-8.43

>  <cluster_rmsd>  (9) 
0.0

>  <cluster>  (9) 
4

$$$$

     RDKit          3D

 55 58  0  0  0  0  0  0  0  0999 V2000
  147.4590   74.1440  217.0420 N   0  0  0  0  0  0  0  0  0  0  0  0
  147.6520   74.7000  215.4140 S   0  0  0  0  0  0  0  0  0  0  0  0
  148.9100   75.5240  215.3000 O   0  0  0  0  0  0  0  0  0  0  0  0
  147.7350   73.5160  214.5060 O   0  0  0  0  0  0  0  0  0  0  0  0
  146.2280   75.6520  215.0140 C   0  0  0  0  0  0  0  0  0  0  0  0
  146.1340   76.3430  213.8240 C   0  0  0  0  0  0  0  0  0  0  0  0
  144.9820   77.0610  213.6050 C   0  0  0  0  0  0  0  0  0  0  0  0
  143.9470   77.1010  214.5290 C   0  0  0  0  0  0  0  0  0  0  0  0
  144.0300   76.4190  215.7150 C   0  0  0  0  0  0  0  0  0  0  0  0
  142.9810   76.4170  216.7380 C   0  0  0  0  0  0  0  0  0  0  0  0
  143.1320   75.9960  217.9620 C   0  0  0  0  0  0  0  0  0  0  0  0
  142.4180   76.2580  219.1670 C   0  0  0  0  0  0  0  0  0  0  0  0
  142.3120   77.6100  219.5430 C   0  0  0  0  0  0  0  0  0  0  0  0
  141.7220   78.0460  220.6810 C   0  0  0  0  0  0  0  0  0  0  0  0
  141.6610   79.3760  220.9730 C   0  0  0  0  0  0  0  0  0  0  0  0
  141.0430   79.7420  222.1570 C   0  0  0  0  0  0  0  0  0  0  0  0
  140.9550   81.4440  222.5510 Cl  0  0  0  0  0  0  0  0  0  0  0  0
  140.4950   78.8300  223.0340 C   0  0  0  0  0  0  0  0  0  0  0  0
  140.5630   77.4900  222.7250 C   0  0  0  0  0  0  0  0  0  0  0  0
  141.1820   77.1280  221.5430 C   0  0  0  0  0  0  0  0  0  0  0  0
  141.2750   75.8130  221.1920 C   0  0  0  0  0  0  0  0  0  0  0  0
  140.7720   74.9720  221.9990 O   0  0  0  0  0  0  0  0  0  0  0  0
  141.8810   75.3800  220.0270 N   0  0  0  0  0  0  0  0  0  0  0  0
  141.9120   73.9580  219.8810 C   0  0  0  0  0  0  0  0  0  0  0  0
  143.2380   73.3040  219.9500 C   0  0  0  0  0  0  0  0  0  0  0  0
  143.7200   72.6250  218.7380 C   0  0  0  0  0  0  0  0  0  0  0  0
  144.8540   73.4460  218.1150 C   0  0  0  0  0  0  0  0  0  0  0  0
  146.0160   73.2420  218.9600 N   0  0  0  0  0  0  0  0  0  0  0  0
  145.6970   73.7180  220.2700 C   0  0  0  0  0  0  0  0  0  0  0  0
  144.3190   74.2400  220.4610 C   0  0  0  0  0  0  0  0  0  0  0  0
  145.2000   75.6940  215.9280 C   0  0  0  0  0  0  0  0  0  0  0  0
  147.0060   73.2060  217.0050 H   0  0  0  0  0  0  0  0  0  0  0  0
  146.7380   74.7950  217.4610 H   0  0  0  0  0  0  0  0  0  0  0  0
  146.9458   76.3206  213.0820 H   0  0  0  0  0  0  0  0  0  0  0  0
  144.8770   77.6230  212.6652 H   0  0  0  0  0  0  0  0  0  0  0  0
  143.0451   77.6899  214.3057 H   0  0  0  0  0  0  0  0  0  0  0  0
  141.9906   76.8000  216.4510 H   0  0  0  0  0  0  0  0  0  0  0  0
  143.9761   75.3024  218.0901 H   0  0  0  0  0  0  0  0  0  0  0  0
  142.7379   78.3647  218.8655 H   0  0  0  0  0  0  0  0  0  0  0  0
  142.0864   80.1298  220.2941 H   0  0  0  0  0  0  0  0  0  0  0  0
  140.0124   79.1668  223.9633 H   0  0  0  0  0  0  0  0  0  0  0  0
  140.1379   76.7308  223.3979 H   0  0  0  0  0  0  0  0  0  0  0  0
  141.2884   73.5288  220.6791 H   0  0  0  0  0  0  0  0  0  0  0  0
  141.5527   73.7680  218.8588 H   0  0  0  0  0  0  0  0  0  0  0  0
  143.0436   72.4975  220.6724 H   0  0  0  0  0  0  0  0  0  0  0  0
  144.0926   71.6240  219.0011 H   0  0  0  0  0  0  0  0  0  0  0  0
  142.8952   72.5288  218.0166 H   0  0  0  0  0  0  0  0  0  0  0  0
  145.0603   73.0962  217.0927 H   0  0  0  0  0  0  0  0  0  0  0  0
  144.5880   74.5114  218.0513 H   0  0  0  0  0  0  0  0  0  0  0  0
  146.8370   73.7550  218.6020 H   0  0  0  0  0  0  0  0  0  0  0  0
  145.8409   72.8851  220.9740 H   0  0  0  0  0  0  0  0  0  0  0  0
  146.3632   74.5763  220.4416 H   0  0  0  0  0  0  0  0  0  0  0  0
  144.1558   74.4056  221.5361 H   0  0  0  0  0  0  0  0  0  0  0  0
  144.2426   75.1697  219.8781 H   0  0  0  0  0  0  0  0  0  0  0  0
  145.3069   75.1309  216.8669 H   0  0  0  0  0  0  0  0  0  0  0  0
  1  2  1  0
  2  3  2  0
  2  4  2  0
  2  5  1  0
  5  6  2  0
  6  7  1  0
  7  8  2  0
  8  9  1  0
  9 10  1  0
 10 11  2  0
 11 12  1  0
 12 13  2  0
 13 14  1  0
 14 15  2  0
 15 16  1  0
 16 17  1  0
 16 18  2  0
 18 19  1  0
 19 20  2  0
 20 21  1  0
 21 22  2  0
 21 23  1  0
 23 24  1  0
 24 25  1  0
 25 26  1  0
 26 27  1  0
 27 28  1  0
 28 29  1  0
 29 30  1  0
  9 31  2  0
 31  5  1  0
 23 12  1  0
 30 25  1  0
 20 14  1  0
  1 32  1  0
  1 33  1  0
  6 34  1  0
  7 35  1  0
  8 36  1  0
 10 37  1  0
 11 38  1  0
 13 39  1  0
 15 40  1  0
 18 41  1  0
 19 42  1  0
 24 43  1  0
 24 44  1  0
 25 45  1  0
 26 46  1  0
 26 47  1  0
 27 48  1  0
 27 49  1  0
 28 50  1  0
 29 51  1  0
 29 52  1  0
 30 53  1  0
 30 54  1  0
 31 55  1  0
M  END
>  <smiles>  (10) 
NS(=O)(=O)c1cccc(/C=C/c2cc3cc(Cl)ccc3c(=O)n2CC2CCNCC2)c1

>  <score_type>  (10) 
oracle

>  <origin>  (10) 
autodockgpu

>  <m_score__min__energy>  (10) 
-9.2899999999999991

>  <m_primary>  (10) 
energy

>  <rmsd>  (10) 
5.198394356355056

>  <m_score__min__rmsd>  (10) 
5.198394356355056

>  <meeko>  (10) 
{"free_energy": -7.52, "intermolecular_energy": -9.61, "internal_energy": -3.07, "cluster_size": 4, "cluster_id": 6, "rank_in_cluster": 3}

>  <energy>  (10) 
-7.87

>  <cluster_rmsd>  (10) 
1.97

>  <cluster>  (10) 
4

$$$$

     RDKit          3D

 55 58  0  0  0  0  0  0  0  0999 V2000
  144.9470   71.4550  219.7160 N   0  0  0  0  0  0  0  0  0  0  0  0
  145.3600   73.1310  219.5820 S   0  0  0  0  0  0  0  0  0  0  0  0
  146.2230   73.5410  220.7480 O   0  0  0  0  0  0  0  0  0  0  0  0
  146.0980   73.3460  218.3010 O   0  0  0  0  0  0  0  0  0  0  0  0
  143.8540   74.0400  219.5550 C   0  0  0  0  0  0  0  0  0  0  0  0
  143.7030   75.1630  218.7670 C   0  0  0  0  0  0  0  0  0  0  0  0
  142.4880   75.8060  218.8180 C   0  0  0  0  0  0  0  0  0  0  0  0
  141.4470   75.3600  219.6200 C   0  0  0  0  0  0  0  0  0  0  0  0
  141.5860   74.2450  220.4070 C   0  0  0  0  0  0  0  0  0  0  0  0
  140.5330   73.7190  221.2790 C   0  0  0  0  0  0  0  0  0  0  0  0
  140.7380   73.0150  222.3560 C   0  0  0  0  0  0  0  0  0  0  0  0
  140.1790   71.7930  222.8310 C   0  0  0  0  0  0  0  0  0  0  0  0
  140.4640   71.4610  224.1690 C   0  0  0  0  0  0  0  0  0  0  0  0
  140.0690   70.3180  224.7770 C   0  0  0  0  0  0  0  0  0  0  0  0
  140.3870   70.0710  226.0790 C   0  0  0  0  0  0  0  0  0  0  0  0
  139.9490   68.8780  226.6290 C   0  0  0  0  0  0  0  0  0  0  0  0
  140.3460   68.5410  228.2980 Cl  0  0  0  0  0  0  0  0  0  0  0  0
  139.2140   67.9490  225.9220 C   0  0  0  0  0  0  0  0  0  0  0  0
  138.8990   68.2120  224.6080 C   0  0  0  0  0  0  0  0  0  0  0  0
  139.3410   69.4040  224.0620 C   0  0  0  0  0  0  0  0  0  0  0  0
  139.0550   69.7110  222.7640 C   0  0  0  0  0  0  0  0  0  0  0  0
  138.3800   68.8560  222.1120 O   0  0  0  0  0  0  0  0  0  0  0  0
  139.4650   70.8830  222.1540 N   0  0  0  0  0  0  0  0  0  0  0  0
  139.1000   70.9790  220.7760 C   0  0  0  0  0  0  0  0  0  0  0  0
  140.0010   70.3340  219.7950 C   0  0  0  0  0  0  0  0  0  0  0  0
  140.1560   70.9880  218.4870 C   0  0  0  0  0  0  0  0  0  0  0  0
  141.5470   71.6260  218.4030 C   0  0  0  0  0  0  0  0  0  0  0  0
  142.4850   70.5350  218.2180 N   0  0  0  0  0  0  0  0  0  0  0  0
  142.3850   69.6700  219.3520 C   0  0  0  0  0  0  0  0  0  0  0  0
  141.3750   70.0440  220.3750 C   0  0  0  0  0  0  0  0  0  0  0  0
  142.8180   73.6000  220.3490 C   0  0  0  0  0  0  0  0  0  0  0  0
  143.9150   71.3720  219.5910 H   0  0  0  0  0  0  0  0  0  0  0  0
  145.1330   71.2150  220.7290 H   0  0  0  0  0  0  0  0  0  0  0  0
  144.5189   75.5281  218.1259 H   0  0  0  0  0  0  0  0  0  0  0  0
  142.3364   76.7046  218.2019 H   0  0  0  0  0  0  0  0  0  0  0  0
  140.4943   75.9098  219.6247 H   0  0  0  0  0  0  0  0  0  0  0  0
  139.4901   73.9348  221.0037 H   0  0  0  0  0  0  0  0  0  0  0  0
  141.4902   73.4489  223.0312 H   0  0  0  0  0  0  0  0  0  0  0  0
  141.0483   72.1804  224.7616 H   0  0  0  0  0  0  0  0  0  0  0  0
  140.9697   70.7923  226.6708 H   0  0  0  0  0  0  0  0  0  0  0  0
  138.8854   67.0143  226.3999 H   0  0  0  0  0  0  0  0  0  0  0  0
  138.3142   67.4969  224.0108 H   0  0  0  0  0  0  0  0  0  0  0  0
  138.1057   70.5220  220.6636 H   0  0  0  0  0  0  0  0  0  0  0  0
  139.1463   72.0530  220.5428 H   0  0  0  0  0  0  0  0  0  0  0  0
  139.4583   69.4005  219.5850 H   0  0  0  0  0  0  0  0  0  0  0  0
  140.0451   70.2412  217.6870 H   0  0  0  0  0  0  0  0  0  0  0  0
  139.3860   71.7646  218.3691 H   0  0  0  0  0  0  0  0  0  0  0  0
  141.5969   72.3198  217.5509 H   0  0  0  0  0  0  0  0  0  0  0  0
  141.7780   72.2021  219.3111 H   0  0  0  0  0  0  0  0  0  0  0  0
  143.4550   70.8810  218.1370 H   0  0  0  0  0  0  0  0  0  0  0  0
  142.1346   68.6636  218.9854 H   0  0  0  0  0  0  0  0  0  0  0  0
  143.3581   69.7375  219.8605 H   0  0  0  0  0  0  0  0  0  0  0  0
  141.2821   69.2146  221.0916 H   0  0  0  0  0  0  0  0  0  0  0  0
  141.7264   70.9710  220.8517 H   0  0  0  0  0  0  0  0  0  0  0  0
  142.9709   72.7005  220.9634 H   0  0  0  0  0  0  0  0  0  0  0  0
  1  2  1  0
  2  3  2  0
  2  4  2  0
  2  5  1  0
  5  6  2  0
  6  7  1  0
  7  8  2  0
  8  9  1  0
  9 10  1  0
 10 11  2  0
 11 12  1  0
 12 13  2  0
 13 14  1  0
 14 15  2  0
 15 16  1  0
 16 17  1  0
 16 18  2  0
 18 19  1  0
 19 20  2  0
 20 21  1  0
 21 22  2  0
 21 23  1  0
 23 24  1  0
 24 25  1  0
 25 26  1  0
 26 27  1  0
 27 28  1  0
 28 29  1  0
 29 30  1  0
  9 31  2  0
 31  5  1  0
 23 12  1  0
 30 25  1  0
 20 14  1  0
  1 32  1  0
  1 33  1  0
  6 34  1  0
  7 35  1  0
  8 36  1  0
 10 37  1  0
 11 38  1  0
 13 39  1  0
 15 40  1  0
 18 41  1  0
 19 42  1  0
 24 43  1  0
 24 44  1  0
 25 45  1  0
 26 46  1  0
 26 47  1  0
 27 48  1  0
 27 49  1  0
 28 50  1  0
 29 51  1  0
 29 52  1  0
 30 53  1  0
 30 54  1  0
 31 55  1  0
M  END
>  <smiles>  (11) 
NS(=O)(=O)c1cccc(/C=C/c2cc3cc(Cl)ccc3c(=O)n2CC2CCNCC2)c1

>  <score_type>  (11) 
oracle

>  <origin>  (11) 
autodockgpu

>  <m_score__min__energy>  (11) 
-9.2899999999999991

>  <m_primary>  (11) 
energy

>  <rmsd>  (11) 
10.383198740407167

>  <m_score__min__rmsd>  (11) 
10.383198740407167

>  <meeko>  (11) 
{"free_energy": -6.89, "intermolecular_energy": -8.98, "internal_energy": -3.17, "cluster_size": 6, "cluster_id": 8, "rank_in_cluster": 4}

>  <energy>  (11) 
-7.83

>  <cluster_rmsd>  (11) 
1.72

>  <cluster>  (11) 
4

$$$$

     RDKit          3D

 55 58  0  0  0  0  0  0  0  0999 V2000
  144.7030   71.6380  220.4230 N   0  0  0  0  0  0  0  0  0  0  0  0
  145.3300   73.2370  220.2110 S   0  0  0  0  0  0  0  0  0  0  0  0
  146.3030   73.5570  221.3190 O   0  0  0  0  0  0  0  0  0  0  0  0
  146.0210   73.3130  218.8890 O   0  0  0  0  0  0  0  0  0  0  0  0
  143.9620   74.3420  220.2270 C   0  0  0  0  0  0  0  0  0  0  0  0
  144.0360   75.5900  219.6450 C   0  0  0  0  0  0  0  0  0  0  0  0
  142.9130   76.3810  219.7120 C   0  0  0  0  0  0  0  0  0  0  0  0
  141.7460   75.9600  220.3340 C   0  0  0  0  0  0  0  0  0  0  0  0
  141.6610   74.7210  220.9150 C   0  0  0  0  0  0  0  0  0  0  0  0
  140.4650   74.2100  221.5910 C   0  0  0  0  0  0  0  0  0  0  0  0
  139.9170   73.0510  221.3640 C   0  0  0  0  0  0  0  0  0  0  0  0
  139.7230   71.8990  222.1800 C   0  0  0  0  0  0  0  0  0  0  0  0
  140.1360   72.0130  223.5210 C   0  0  0  0  0  0  0  0  0  0  0  0
  140.0840   71.0090  224.4280 C   0  0  0  0  0  0  0  0  0  0  0  0
  140.5050   71.2020  225.7100 C   0  0  0  0  0  0  0  0  0  0  0  0
  140.4210   70.1260  226.5780 C   0  0  0  0  0  0  0  0  0  0  0  0
  140.9570   70.3510  228.2280 Cl  0  0  0  0  0  0  0  0  0  0  0  0
  139.9350   68.8910  226.2020 C   0  0  0  0  0  0  0  0  0  0  0  0
  139.5120   68.7120  224.9040 C   0  0  0  0  0  0  0  0  0  0  0  0
  139.5990   69.7890  224.0400 C   0  0  0  0  0  0  0  0  0  0  0  0
  139.1930   69.6620  222.7440 C   0  0  0  0  0  0  0  0  0  0  0  0
  138.7460   68.5260  222.3960 O   0  0  0  0  0  0  0  0  0  0  0  0
  139.2520   70.6950  221.8260 N   0  0  0  0  0  0  0  0  0  0  0  0
  138.8230   70.3300  220.5120 C   0  0  0  0  0  0  0  0  0  0  0  0
  139.8790   70.0500  219.5140 C   0  0  0  0  0  0  0  0  0  0  0  0
  140.2230   71.1270  218.5740 C   0  0  0  0  0  0  0  0  0  0  0  0
  141.5970   71.6980  218.9420 C   0  0  0  0  0  0  0  0  0  0  0  0
  142.5750   70.7130  218.5170 N   0  0  0  0  0  0  0  0  0  0  0  0
  142.3160   69.5010  219.2290 C   0  0  0  0  0  0  0  0  0  0  0  0
  141.1500   69.5170  220.1510 C   0  0  0  0  0  0  0  0  0  0  0  0
  142.8020   73.9270  220.8420 C   0  0  0  0  0  0  0  0  0  0  0  0
  144.4780   71.5170  221.4340 H   0  0  0  0  0  0  0  0  0  0  0  0
  145.5260   71.0010  220.2340 H   0  0  0  0  0  0  0  0  0  0  0  0
  144.9539   75.9379  219.1485 H   0  0  0  0  0  0  0  0  0  0  0  0
  142.9407   77.3820  219.2568 H   0  0  0  0  0  0  0  0  0  0  0  0
  140.8750   76.6313  220.3613 H   0  0  0  0  0  0  0  0  0  0  0  0
  139.9946   74.8549  222.3478 H   0  0  0  0  0  0  0  0  0  0  0  0
  139.5272   72.9391  220.3415 H   0  0  0  0  0  0  0  0  0  0  0  0
  140.5281   72.9849  223.8551 H   0  0  0  0  0  0  0  0  0  0  0  0
  140.8964   72.1748  226.0424 H   0  0  0  0  0  0  0  0  0  0  0  0
  139.8863   68.0642  226.9259 H   0  0  0  0  0  0  0  0  0  0  0  0
  139.1172   67.7430  224.5646 H   0  0  0  0  0  0  0  0  0  0  0  0
  138.2051   69.4246  220.6042 H   0  0  0  0  0  0  0  0  0  0  0  0
  138.2945   71.2150  220.1280 H   0  0  0  0  0  0  0  0  0  0  0  0
  139.3951   69.2774  218.8984 H   0  0  0  0  0  0  0  0  0  0  0  0
  140.2536   70.7258  217.5502 H   0  0  0  0  0  0  0  0  0  0  0  0
  139.4653   71.9224  218.6303 H   0  0  0  0  0  0  0  0  0  0  0  0
  141.7653   72.6516  218.4201 H   0  0  0  0  0  0  0  0  0  0  0  0
  141.6717   71.8954  220.0216 H   0  0  0  0  0  0  0  0  0  0  0  0
  143.5380   71.0280  218.7180 H   0  0  0  0  0  0  0  0  0  0  0  0
  142.1466   68.7061  218.4877 H   0  0  0  0  0  0  0  0  0  0  0  0
  143.1957   69.3429  219.8702 H   0  0  0  0  0  0  0  0  0  0  0  0
  140.9628   68.4884  220.4929 H   0  0  0  0  0  0  0  0  0  0  0  0
  141.4036   70.1937  220.9803 H   0  0  0  0  0  0  0  0  0  0  0  0
  142.7759   72.9250  221.2951 H   0  0  0  0  0  0  0  0  0  0  0  0
  1  2  1  0
  2  3  2  0
  2  4  2  0
  2  5  1  0
  5  6  2  0
  6  7  1  0
  7  8  2  0
  8  9  1  0
  9 10  1  0
 10 11  2  0
 11 12  1  0
 12 13  2  0
 13 14  1  0
 14 15  2  0
 15 16  1  0
 16 17  1  0
 16 18  2  0
 18 19  1  0
 19 20  2  0
 20 21  1  0
 21 22  2  0
 21 23  1  0
 23 24  1  0
 24 25  1  0
 25 26  1  0
 26 27  1  0
 27 28  1  0
 28 29  1  0
 29 30  1  0
  9 31  2  0
 31  5  1  0
 23 12  1  0
 30 25  1  0
 20 14  1  0
  1 32  1  0
  1 33  1  0
  6 34  1  0
  7 35  1  0
  8 36  1  0
 10 37  1  0
 11 38  1  0
 13 39  1  0
 15 40  1  0
 18 41  1  0
 19 42  1  0
 24 43  1  0
 24 44  1  0
 25 45  1  0
 26 46  1  0
 26 47  1  0
 27 48  1  0
 27 49  1  0
 28 50  1  0
 29 51  1  0
 29 52  1  0
 30 53  1  0
 30 54  1  0
 31 55  1  0
M  END
>  <smiles>  (12) 
NS(=O)(=O)c1cccc(/C=C/c2cc3cc(Cl)ccc3c(=O)n2CC2CCNCC2)c1

>  <score_type>  (12) 
oracle

>  <origin>  (12) 
autodockgpu

>  <m_score__min__energy>  (12) 
-9.2899999999999991

>  <m_primary>  (12) 
energy

>  <rmsd>  (12) 
10.021355933911114

>  <m_score__min__rmsd>  (12) 
10.021355933911114

>  <meeko>  (12) 
{"free_energy": -7.71, "intermolecular_energy": -9.8, "internal_energy": -2.69, "cluster_size": 6, "cluster_id": 8, "rank_in_cluster": 1}

>  <energy>  (12) 
-7.79

>  <cluster_rmsd>  (12) 
1.69

>  <cluster>  (12) 
4

$$$$

     RDKit          3D

 55 58  0  0  0  0  0  0  0  0999 V2000
  142.9050   79.8620  217.5460 N   0  0  0  0  0  0  0  0  0  0  0  0
  141.6350   81.0270  217.6980 S   0  0  0  0  0  0  0  0  0  0  0  0
  141.9110   82.2060  216.8000 O   0  0  0  0  0  0  0  0  0  0  0  0
  140.3420   80.3850  217.3130 O   0  0  0  0  0  0  0  0  0  0  0  0
  141.5720   81.5150  219.3870 C   0  0  0  0  0  0  0  0  0  0  0  0
  141.1020   82.7560  219.7620 C   0  0  0  0  0  0  0  0  0  0  0  0
  141.0950   83.0440  221.1070 C   0  0  0  0  0  0  0  0  0  0  0  0
  141.5380   82.1390  222.0610 C   0  0  0  0  0  0  0  0  0  0  0  0
  142.0060   80.9010  221.6990 C   0  0  0  0  0  0  0  0  0  0  0  0
  142.4910   79.8960  222.6490 C   0  0  0  0  0  0  0  0  0  0  0  0
  141.7500   78.9930  223.2230 C   0  0  0  0  0  0  0  0  0  0  0  0
  140.3730   78.6500  223.0940 C   0  0  0  0  0  0  0  0  0  0  0  0
  139.4490   79.6200  223.5270 C   0  0  0  0  0  0  0  0  0  0  0  0
  138.1060   79.4500  223.5350 C   0  0  0  0  0  0  0  0  0  0  0  0
  137.2780   80.4420  223.9710 C   0  0  0  0  0  0  0  0  0  0  0  0
  135.9160   80.1920  223.9500 C   0  0  0  0  0  0  0  0  0  0  0  0
  134.8360   81.4500  224.5070 Cl  0  0  0  0  0  0  0  0  0  0  0  0
  135.3760   79.0020  223.5100 C   0  0  0  0  0  0  0  0  0  0  0  0
  136.2240   78.0100  223.0710 C   0  0  0  0  0  0  0  0  0  0  0  0
  137.5840   78.2630  223.0950 C   0  0  0  0  0  0  0  0  0  0  0  0
  138.4650   77.3130  222.6710 C   0  0  0  0  0  0  0  0  0  0  0  0
  137.9700   76.2160  222.2660 O   0  0  0  0  0  0  0  0  0  0  0  0
  139.8360   77.4970  222.6680 N   0  0  0  0  0  0  0  0  0  0  0  0
  140.5750   76.3550  222.2300 C   0  0  0  0  0  0  0  0  0  0  0  0
  140.9150   76.2860  220.7910 C   0  0  0  0  0  0  0  0  0  0  0  0
  139.8640   76.6510  219.8300 C   0  0  0  0  0  0  0  0  0  0  0  0
  140.2020   78.0080  219.2030 C   0  0  0  0  0  0  0  0  0  0  0  0
  141.2840   77.7660  218.2660 N   0  0  0  0  0  0  0  0  0  0  0  0
  142.3960   77.2490  219.0020 C   0  0  0  0  0  0  0  0  0  0  0  0
  142.1840   77.0520  220.4590 C   0  0  0  0  0  0  0  0  0  0  0  0
  142.0090   80.6180  220.3360 C   0  0  0  0  0  0  0  0  0  0  0  0
  142.9100   79.2830  218.4130 H   0  0  0  0  0  0  0  0  0  0  0  0
  143.7950   80.4320  217.5770 H   0  0  0  0  0  0  0  0  0  0  0  0
  140.7479   83.4843  219.0175 H   0  0  0  0  0  0  0  0  0  0  0  0
  140.7254   84.0258  221.4378 H   0  0  0  0  0  0  0  0  0  0  0  0
  141.5136   82.4185  223.1246 H   0  0  0  0  0  0  0  0  0  0  0  0
  143.5629   79.9056  222.8957 H   0  0  0  0  0  0  0  0  0  0  0  0
  142.2936   78.3726  223.9508 H   0  0  0  0  0  0  0  0  0  0  0  0
  139.8456   80.5822  223.8833 H   0  0  0  0  0  0  0  0  0  0  0  0
  137.6767   81.4039  224.3258 H   0  0  0  0  0  0  0  0  0  0  0  0
  134.2869   78.8479  223.5097 H   0  0  0  0  0  0  0  0  0  0  0  0
  135.8325   77.0466  222.7125 H   0  0  0  0  0  0  0  0  0  0  0  0
  141.5184   76.3335  222.7953 H   0  0  0  0  0  0  0  0  0  0  0  0
  139.9084   75.4982  222.4074 H   0  0  0  0  0  0  0  0  0  0  0  0
  141.0627   75.2044  220.6558 H   0  0  0  0  0  0  0  0  0  0  0  0
  139.8049   75.8862  219.0416 H   0  0  0  0  0  0  0  0  0  0  0  0
  138.8959   76.7148  220.3484 H   0  0  0  0  0  0  0  0  0  0  0  0
  139.3254   78.4130  218.6762 H   0  0  0  0  0  0  0  0  0  0  0  0
  140.4936   78.7410  219.9696 H   0  0  0  0  0  0  0  0  0  0  0  0
  141.5670   78.6350  217.7850 H   0  0  0  0  0  0  0  0  0  0  0  0
  142.6624   76.2745  218.5669 H   0  0  0  0  0  0  0  0  0  0  0  0
  143.1837   78.0124  218.9199 H   0  0  0  0  0  0  0  0  0  0  0  0
  143.0422   76.4950  220.8630 H   0  0  0  0  0  0  0  0  0  0  0  0
  142.0845   78.0511  220.9084 H   0  0  0  0  0  0  0  0  0  0  0  0
  142.3761   79.6360  220.0029 H   0  0  0  0  0  0  0  0  0  0  0  0
  1  2  1  0
  2  3  2  0
  2  4  2  0
  2  5  1  0
  5  6  2  0
  6  7  1  0
  7  8  2  0
  8  9  1  0
  9 10  1  0
 10 11  2  0
 11 12  1  0
 12 13  2  0
 13 14  1  0
 14 15  2  0
 15 16  1  0
 16 17  1  0
 16 18  2  0
 18 19  1  0
 19 20  2  0
 20 21  1  0
 21 22  2  0
 21 23  1  0
 23 24  1  0
 24 25  1  0
 25 26  1  0
 26 27  1  0
 27 28  1  0
 28 29  1  0
 29 30  1  0
  9 31  2  0
 31  5  1  0
 23 12  1  0
 30 25  1  0
 20 14  1  0
  1 32  1  0
  1 33  1  0
  6 34  1  0
  7 35  1  0
  8 36  1  0
 10 37  1  0
 11 38  1  0
 13 39  1  0
 15 40  1  0
 18 41  1  0
 19 42  1  0
 24 43  1  0
 24 44  1  0
 25 45  1  0
 26 46  1  0
 26 47  1  0
 27 48  1  0
 27 49  1  0
 28 50  1  0
 29 51  1  0
 29 52  1  0
 30 53  1  0
 30 54  1  0
 31 55  1  0
M  END
>  <smiles>  (13) 
NS(=O)(=O)c1cccc(/C=C/c2cc3cc(Cl)ccc3c(=O)n2CC2CCNCC2)c1

>  <score_type>  (13) 
oracle

>  <origin>  (13) 
autodockgpu

>  <m_score__min__energy>  (13) 
-9.2899999999999991

>  <m_primary>  (13) 
energy

>  <rmsd>  (13) 
3.953094216424409

>  <m_score__min__rmsd>  (13) 
3.953094216424409

>  <meeko>  (13) 
{"free_energy": -5.97, "intermolecular_energy": -8.06, "internal_energy": -4.23, "cluster_size": 5, "cluster_id": 17, "rank_in_cluster": 4}

>  <energy>  (13) 
-7.03

>  <cluster_rmsd>  (13) 
1.86

>  <cluster>  (13) 
4

$$$$

     RDKit          3D

 55 58  0  0  0  0  0  0  0  0999 V2000
  146.3450   73.4200  218.8920 N   0  0  0  0  0  0  0  0  0  0  0  0
  145.3770   72.8030  220.1870 S   0  0  0  0  0  0  0  0  0  0  0  0
  145.1210   71.3310  219.9780 O   0  0  0  0  0  0  0  0  0  0  0  0
  146.1000   73.0170  221.4760 O   0  0  0  0  0  0  0  0  0  0  0  0
  143.8720   73.7150  220.1950 C   0  0  0  0  0  0  0  0  0  0  0  0
  143.7820   74.9620  219.6140 C   0  0  0  0  0  0  0  0  0  0  0  0
  142.5630   75.5960  219.6760 C   0  0  0  0  0  0  0  0  0  0  0  0
  141.4600   75.0210  220.2910 C   0  0  0  0  0  0  0  0  0  0  0  0
  141.5380   73.7810  220.8720 C   0  0  0  0  0  0  0  0  0  0  0  0
  140.4180   73.1140  221.5400 C   0  0  0  0  0  0  0  0  0  0  0  0
  140.4530   72.6250  222.7470 C   0  0  0  0  0  0  0  0  0  0  0  0
  140.0380   71.3760  223.2940 C   0  0  0  0  0  0  0  0  0  0  0  0
  140.4900   71.0900  224.5960 C   0  0  0  0  0  0  0  0  0  0  0  0
  140.2470   69.9330  225.2560 C   0  0  0  0  0  0  0  0  0  0  0  0
  140.7220   69.7340  226.5180 C   0  0  0  0  0  0  0  0  0  0  0  0
  140.4330   68.5240  227.1250 C   0  0  0  0  0  0  0  0  0  0  0  0
  141.0330   68.2470  228.7450 Cl  0  0  0  0  0  0  0  0  0  0  0  0
  139.6950   67.5320  226.5140 C   0  0  0  0  0  0  0  0  0  0  0  0
  139.2200   67.7470  225.2400 C   0  0  0  0  0  0  0  0  0  0  0  0
  139.5130   68.9570  224.6360 C   0  0  0  0  0  0  0  0  0  0  0  0
  139.0660   69.2190  223.3740 C   0  0  0  0  0  0  0  0  0  0  0  0
  138.3870   68.3060  222.8100 O   0  0  0  0  0  0  0  0  0  0  0  0
  139.3220   70.4050  222.7100 N   0  0  0  0  0  0  0  0  0  0  0  0
  138.8030   70.4490  221.3790 C   0  0  0  0  0  0  0  0  0  0  0  0
  137.4960   71.1180  221.1890 C   0  0  0  0  0  0  0  0  0  0  0  0
  136.8530   71.6940  222.3790 C   0  0  0  0  0  0  0  0  0  0  0  0
  136.9380   73.2230  222.3090 C   0  0  0  0  0  0  0  0  0  0  0  0
  135.9710   73.6400  221.3110 N   0  0  0  0  0  0  0  0  0  0  0  0
  136.3420   73.0480  220.0640 C   0  0  0  0  0  0  0  0  0  0  0  0
  137.5350   72.1630  220.0870 C   0  0  0  0  0  0  0  0  0  0  0  0
  142.7760   73.1470  220.8040 C   0  0  0  0  0  0  0  0  0  0  0  0
  147.0070   74.1180  219.2960 H   0  0  0  0  0  0  0  0  0  0  0  0
  145.6710   73.9760  218.2960 H   0  0  0  0  0  0  0  0  0  0  0  0
  144.6476   75.4297  219.1221 H   0  0  0  0  0  0  0  0  0  0  0  0
  142.4589   76.5928  219.2226 H   0  0  0  0  0  0  0  0  0  0  0  0
  140.5066   75.5692  220.3130 H   0  0  0  0  0  0  0  0  0  0  0  0
  139.4760   73.0188  220.9801 H   0  0  0  0  0  0  0  0  0  0  0  0
  140.8881   73.3103  223.4894 H   0  0  0  0  0  0  0  0  0  0  0  0
  141.0817   71.8598  225.1131 H   0  0  0  0  0  0  0  0  0  0  0  0
  141.3123   70.5053  227.0343 H   0  0  0  0  0  0  0  0  0  0  0  0
  139.4896   66.5856  227.0356 H   0  0  0  0  0  0  0  0  0  0  0  0
  138.6265   66.9814  224.7188 H   0  0  0  0  0  0  0  0  0  0  0  0
  139.5390   70.9748  220.7530 H   0  0  0  0  0  0  0  0  0  0  0  0
  138.6283   69.3979  221.1056 H   0  0  0  0  0  0  0  0  0  0  0  0
  136.8587   70.2687  220.9017 H   0  0  0  0  0  0  0  0  0  0  0  0
  135.7977   71.3855  222.4123 H   0  0  0  0  0  0  0  0  0  0  0  0
  137.3653   71.3369  223.2846 H   0  0  0  0  0  0  0  0  0  0  0  0
  136.6906   73.6632  223.2862 H   0  0  0  0  0  0  0  0  0  0  0  0
  137.9529   73.5551  222.0451 H   0  0  0  0  0  0  0  0  0  0  0  0
  135.9540   74.6680  221.2100 H   0  0  0  0  0  0  0  0  0  0  0  0
  135.4887   72.4517  219.7085 H   0  0  0  0  0  0  0  0  0  0  0  0
  136.6118   73.8886  219.4079 H   0  0  0  0  0  0  0  0  0  0  0  0
  137.6025   71.6451  219.1189 H   0  0  0  0  0  0  0  0  0  0  0  0
  138.4081   72.8035  220.2807 H   0  0  0  0  0  0  0  0  0  0  0  0
  142.8826   72.1499  221.2562 H   0  0  0  0  0  0  0  0  0  0  0  0
  1  2  1  0
  2  3  2  0
  2  4  2  0
  2  5  1  0
  5  6  2  0
  6  7  1  0
  7  8  2  0
  8  9  1  0
  9 10  1  0
 10 11  2  0
 11 12  1  0
 12 13  2  0
 13 14  1  0
 14 15  2  0
 15 16  1  0
 16 17  1  0
 16 18  2  0
 18 19  1  0
 19 20  2  0
 20 21  1  0
 21 22  2  0
 21 23  1  0
 23 24  1  0
 24 25  1  0
 25 26  1  0
 26 27  1  0
 27 28  1  0
 28 29  1  0
 29 30  1  0
  9 31  2  0
 31  5  1  0
 23 12  1  0
 30 25  1  0
 20 14  1  0
  1 32  1  0
  1 33  1  0
  6 34  1  0
  7 35  1  0
  8 36  1  0
 10 37  1  0
 11 38  1  0
 13 39  1  0
 15 40  1  0
 18 41  1  0
 19 42  1  0
 24 43  1  0
 24 44  1  0
 25 45  1  0
 26 46  1  0
 26 47  1  0
 27 48  1  0
 27 49  1  0
 28 50  1  0
 29 51  1  0
 29 52  1  0
 30 53  1  0
 30 54  1  0
 31 55  1  0
M  END
>  <smiles>  (14) 
NS(=O)(=O)c1cccc(/C=C/c2cc3cc(Cl)ccc3c(=O)n2CC2CCNCC2)c1

>  <score_type>  (14) 
oracle

>  <origin>  (14) 
autodockgpu

>  <m_score__min__energy>  (14) 
-9.2899999999999991

>  <m_primary>  (14) 
energy

>  <rmsd>  (14) 
11.11656668537703

>  <m_score__min__rmsd>  (14) 
11.11656668537703

>  <meeko>  (14) 
{"free_energy": -8.43, "intermolecular_energy": -10.52, "internal_energy": -1.53, "cluster_size": 5, "cluster_id": 4, "rank_in_cluster": 1}

>  <energy>  (14) 
-8.09

>  <cluster_rmsd>  (14) 
0.0

>  <cluster>  (14) 
5

$$$$

     RDKit          3D

 55 58  0  0  0  0  0  0  0  0999 V2000
  146.2080   73.3820  218.5700 N   0  0  0  0  0  0  0  0  0  0  0  0
  145.3320   72.8610  219.9690 S   0  0  0  0  0  0  0  0  0  0  0  0
  144.8950   71.4280  219.7960 O   0  0  0  0  0  0  0  0  0  0  0  0
  146.2170   72.9820  221.1670 O   0  0  0  0  0  0  0  0  0  0  0  0
  143.9470   73.9310  220.1480 C   0  0  0  0  0  0  0  0  0  0  0  0
  143.9190   75.1790  219.5600 C   0  0  0  0  0  0  0  0  0  0  0  0
  142.7920   75.9410  219.7620 C   0  0  0  0  0  0  0  0  0  0  0  0
  141.7200   75.4930  220.5200 C   0  0  0  0  0  0  0  0  0  0  0  0
  141.7380   74.2550  221.1090 C   0  0  0  0  0  0  0  0  0  0  0  0
  140.6460   73.7160  221.9250 C   0  0  0  0  0  0  0  0  0  0  0  0
  139.9630   72.6440  221.6440 C   0  0  0  0  0  0  0  0  0  0  0  0
  139.6720   71.4630  222.3880 C   0  0  0  0  0  0  0  0  0  0  0  0
  140.0780   71.4640  223.7360 C   0  0  0  0  0  0  0  0  0  0  0  0
  139.9380   70.4150  224.5800 C   0  0  0  0  0  0  0  0  0  0  0  0
  140.3580   70.4970  225.8740 C   0  0  0  0  0  0  0  0  0  0  0  0
  140.1830   69.3810  226.6740 C   0  0  0  0  0  0  0  0  0  0  0  0
  140.7160   69.4640  228.3380 Cl  0  0  0  0  0  0  0  0  0  0  0  0
  139.6080   68.2120  226.2210 C   0  0  0  0  0  0  0  0  0  0  0  0
  139.1870   68.1440  224.9120 C   0  0  0  0  0  0  0  0  0  0  0  0
  139.3650   69.2610  224.1150 C   0  0  0  0  0  0  0  0  0  0  0  0
  138.9650   69.2440  222.8110 C   0  0  0  0  0  0  0  0  0  0  0  0
  138.4360   68.1680  222.3920 O   0  0  0  0  0  0  0  0  0  0  0  0
  139.1140   70.3220  221.9580 N   0  0  0  0  0  0  0  0  0  0  0  0
  138.6720   70.0720  220.6220 C   0  0  0  0  0  0  0  0  0  0  0  0
  139.7180   69.8300  219.6030 C   0  0  0  0  0  0  0  0  0  0  0  0
  139.8580   70.8250  218.5300 C   0  0  0  0  0  0  0  0  0  0  0  0
  141.1440   71.6300  218.7520 C   0  0  0  0  0  0  0  0  0  0  0  0
  142.2410   70.7530  218.3860 N   0  0  0  0  0  0  0  0  0  0  0  0
  142.1970   69.6100  219.2430 C   0  0  0  0  0  0  0  0  0  0  0  0
  141.0800   69.5670  220.2220 C   0  0  0  0  0  0  0  0  0  0  0  0
  142.8810   73.4890  220.9000 C   0  0  0  0  0  0  0  0  0  0  0  0
  147.0110   73.9610  218.8970 H   0  0  0  0  0  0  0  0  0  0  0  0
  145.5520   74.0520  218.0800 H   0  0  0  0  0  0  0  0  0  0  0  0
  144.7611   75.5482  218.9562 H   0  0  0  0  0  0  0  0  0  0  0  0
  142.7388   76.9408  219.3065 H   0  0  0  0  0  0  0  0  0  0  0  0
  140.8412   76.1416  220.6506 H   0  0  0  0  0  0  0  0  0  0  0  0
  140.3837   74.2588  222.8451 H   0  0  0  0  0  0  0  0  0  0  0  0
  139.5246   72.6506  220.6352 H   0  0  0  0  0  0  0  0  0  0  0  0
  140.5410   72.3805  224.1306 H   0  0  0  0  0  0  0  0  0  0  0  0
  140.8185   71.4151  226.2677 H   0  0  0  0  0  0  0  0  0  0  0  0
  139.4880   67.3497  226.8934 H   0  0  0  0  0  0  0  0  0  0  0  0
  138.7235   67.2301  224.5121 H   0  0  0  0  0  0  0  0  0  0  0  0
  138.0222   69.1848  220.6479 H   0  0  0  0  0  0  0  0  0  0  0  0
  138.1751   71.0013  220.3066 H   0  0  0  0  0  0  0  0  0  0  0  0
  139.3319   68.9269  219.1076 H   0  0  0  0  0  0  0  0  0  0  0  0
  139.9080   70.3128  217.5578 H   0  0  0  0  0  0  0  0  0  0  0  0
  138.9918   71.5030  218.5400 H   0  0  0  0  0  0  0  0  0  0  0  0
  141.1458   72.5280  218.1167 H   0  0  0  0  0  0  0  0  0  0  0  0
  141.2310   71.9652  219.7961 H   0  0  0  0  0  0  0  0  0  0  0  0
  143.1530   71.2260  218.4940 H   0  0  0  0  0  0  0  0  0  0  0  0
  142.1202   68.7161  218.6066 H   0  0  0  0  0  0  0  0  0  0  0  0
  143.1156   69.6587  219.8462 H   0  0  0  0  0  0  0  0  0  0  0  0
  141.0638   68.5705  220.6875 H   0  0  0  0  0  0  0  0  0  0  0  0
  141.2617   70.3679  220.9538 H   0  0  0  0  0  0  0  0  0  0  0  0
  142.9354   72.4887  221.3544 H   0  0  0  0  0  0  0  0  0  0  0  0
  1  2  1  0
  2  3  2  0
  2  4  2  0
  2  5  1  0
  5  6  2  0
  6  7  1  0
  7  8  2  0
  8  9  1  0
  9 10  1  0
 10 11  2  0
 11 12  1  0
 12 13  2  0
 13 14  1  0
 14 15  2  0
 15 16  1  0
 16 17  1  0
 16 18  2  0
 18 19  1  0
 19 20  2  0
 20 21  1  0
 21 22  2  0
 21 23  1  0
 23 24  1  0
 24 25  1  0
 25 26  1  0
 26 27  1  0
 27 28  1  0
 28 29  1  0
 29 30  1  0
  9 31  2  0
 31  5  1  0
 23 12  1  0
 30 25  1  0
 20 14  1  0
  1 32  1  0
  1 33  1  0
  6 34  1  0
  7 35  1  0
  8 36  1  0
 10 37  1  0
 11 38  1  0
 13 39  1  0
 15 40  1  0
 18 41  1  0
 19 42  1  0
 24 43  1  0
 24 44  1  0
 25 45  1  0
 26 46  1  0
 26 47  1  0
 27 48  1  0
 27 49  1  0
 28 50  1  0
 29 51  1  0
 29 52  1  0
 30 53  1  0
 30 54  1  0
 31 55  1  0
M  END
>  <smiles>  (15) 
NS(=O)(=O)c1cccc(/C=C/c2cc3cc(Cl)ccc3c(=O)n2CC2CCNCC2)c1

>  <score_type>  (15) 
oracle

>  <origin>  (15) 
autodockgpu

>  <m_score__min__energy>  (15) 
-9.2899999999999991

>  <m_primary>  (15) 
energy

>  <rmsd>  (15) 
10.479586656094321

>  <m_score__min__rmsd>  (15) 
10.479586656094321

>  <meeko>  (15) 
{"free_energy": -7.79, "intermolecular_energy": -9.88, "internal_energy": -2.73, "cluster_size": 5, "cluster_id": 4, "rank_in_cluster": 4}

>  <energy>  (15) 
-7.98

>  <cluster_rmsd>  (15) 
0.0

>  <cluster>  (15) 
6

$$$$

     RDKit          3D

 55 58  0  0  0  0  0  0  0  0999 V2000
  142.9420   79.3930  222.2540 N   0  0  0  0  0  0  0  0  0  0  0  0
  142.0900   79.9520  223.6520 S   0  0  0  0  0  0  0  0  0  0  0  0
  141.7700   78.7890  224.5570 O   0  0  0  0  0  0  0  0  0  0  0  0
  142.9460   80.9400  224.3760 O   0  0  0  0  0  0  0  0  0  0  0  0
  140.6230   80.7430  223.0900 C   0  0  0  0  0  0  0  0  0  0  0  0
  140.6690   81.8320  222.2440 C   0  0  0  0  0  0  0  0  0  0  0  0
  139.4680   82.3810  221.8620 C   0  0  0  0  0  0  0  0  0  0  0  0
  138.2510   81.8780  222.2990 C   0  0  0  0  0  0  0  0  0  0  0  0
  138.1930   80.7960  223.1400 C   0  0  0  0  0  0  0  0  0  0  0  0
  136.9470   80.2120  223.6440 C   0  0  0  0  0  0  0  0  0  0  0  0
  136.1760   79.4050  222.9730 C   0  0  0  0  0  0  0  0  0  0  0  0
  135.8770   78.0190  223.1090 C   0  0  0  0  0  0  0  0  0  0  0  0
  135.0580   77.6660  224.1990 C   0  0  0  0  0  0  0  0  0  0  0  0
  134.7150   76.3960  224.5220 C   0  0  0  0  0  0  0  0  0  0  0  0
  133.9170   76.1390  225.5960 C   0  0  0  0  0  0  0  0  0  0  0  0
  133.6130   74.8150  225.8620 C   0  0  0  0  0  0  0  0  0  0  0  0
  132.5900   74.4610  227.2360 Cl  0  0  0  0  0  0  0  0  0  0  0  0
  134.0760   73.7660  225.0950 C   0  0  0  0  0  0  0  0  0  0  0  0
  134.8810   74.0420  224.0120 C   0  0  0  0  0  0  0  0  0  0  0  0
  135.1840   75.3660  223.7510 C   0  0  0  0  0  0  0  0  0  0  0  0
  135.9770   75.6910  222.6900 C   0  0  0  0  0  0  0  0  0  0  0  0
  136.4050   74.7270  221.9830 O   0  0  0  0  0  0  0  0  0  0  0  0
  136.3210   76.9920  222.3700 N   0  0  0  0  0  0  0  0  0  0  0  0
  137.2010   77.1020  221.2490 C   0  0  0  0  0  0  0  0  0  0  0  0
  138.5500   77.6550  221.5060 C   0  0  0  0  0  0  0  0  0  0  0  0
  139.2900   77.1220  222.6600 C   0  0  0  0  0  0  0  0  0  0  0  0
  140.4350   76.2330  222.1600 C   0  0  0  0  0  0  0  0  0  0  0  0
  141.4500   77.1310  221.6400 N   0  0  0  0  0  0  0  0  0  0  0  0
  140.8720   77.8760  220.5660 C   0  0  0  0  0  0  0  0  0  0  0  0
  139.4400   77.6050  220.2760 C   0  0  0  0  0  0  0  0  0  0  0  0
  139.4140   80.2450  223.5210 C   0  0  0  0  0  0  0  0  0  0  0  0
  143.0530   78.3600  222.3420 H   0  0  0  0  0  0  0  0  0  0  0  0
  143.9140   79.7960  222.3540 H   0  0  0  0  0  0  0  0  0  0  0  0
  141.6259   82.2434  221.8903 H   0  0  0  0  0  0  0  0  0  0  0  0
  139.4720   83.2491  221.1865 H   0  0  0  0  0  0  0  0  0  0  0  0
  137.3174   82.3547  221.9656 H   0  0  0  0  0  0  0  0  0  0  0  0
  136.6396   80.4753  224.6668 H   0  0  0  0  0  0  0  0  0  0  0  0
  135.6521   79.8894  222.1358 H   0  0  0  0  0  0  0  0  0  0  0  0
  134.6700   78.4778  224.8318 H   0  0  0  0  0  0  0  0  0  0  0  0
  133.5293   76.9521  226.2273 H   0  0  0  0  0  0  0  0  0  0  0  0
  133.8074   72.7287  225.3436 H   0  0  0  0  0  0  0  0  0  0  0  0
  135.2707   73.2347  223.3746 H   0  0  0  0  0  0  0  0  0  0  0  0
  137.3301   76.0939  220.8282 H   0  0  0  0  0  0  0  0  0  0  0  0
  136.7183   77.8265  220.5766 H   0  0  0  0  0  0  0  0  0  0  0  0
  138.3097   78.6943  221.7746 H   0  0  0  0  0  0  0  0  0  0  0  0
  139.7015   77.9547  223.2492 H   0  0  0  0  0  0  0  0  0  0  0  0
  138.6116   76.5294  223.2914 H   0  0  0  0  0  0  0  0  0  0  0  0
  140.8432   75.6356  222.9885 H   0  0  0  0  0  0  0  0  0  0  0  0
  140.0883   75.5309  221.3875 H   0  0  0  0  0  0  0  0  0  0  0  0
  142.2700   76.6090  221.2910 H   0  0  0  0  0  0  0  0  0  0  0  0
  140.9690   78.9446  220.8084 H   0  0  0  0  0  0  0  0  0  0  0  0
  141.4192   77.5649  219.6639 H   0  0  0  0  0  0  0  0  0  0  0  0
  139.0824   78.3571  219.5573 H   0  0  0  0  0  0  0  0  0  0  0  0
  139.3800   76.5821  219.8760 H   0  0  0  0  0  0  0  0  0  0  0  0
  139.4124   79.3754  224.1946 H   0  0  0  0  0  0  0  0  0  0  0  0
  1  2  1  0
  2  3  2  0
  2  4  2  0
  2  5  1  0
  5  6  2  0
  6  7  1  0
  7  8  2  0
  8  9  1  0
  9 10  1  0
 10 11  2  0
 11 12  1  0
 12 13  2  0
 13 14  1  0
 14 15  2  0
 15 16  1  0
 16 17  1  0
 16 18  2  0
 18 19  1  0
 19 20  2  0
 20 21  1  0
 21 22  2  0
 21 23  1  0
 23 24  1  0
 24 25  1  0
 25 26  1  0
 26 27  1  0
 27 28  1  0
 28 29  1  0
 29 30  1  0
  9 31  2  0
 31  5  1  0
 23 12  1  0
 30 25  1  0
 20 14  1  0
  1 32  1  0
  1 33  1  0
  6 34  1  0
  7 35  1  0
  8 36  1  0
 10 37  1  0
 11 38  1  0
 13 39  1  0
 15 40  1  0
 18 41  1  0
 19 42  1  0
 24 43  1  0
 24 44  1  0
 25 45  1  0
 26 46  1  0
 26 47  1  0
 27 48  1  0
 27 49  1  0
 28 50  1  0
 29 51  1  0
 29 52  1  0
 30 53  1  0
 30 54  1  0
 31 55  1  0
M  END
>  <smiles>  (16) 
NS(=O)(=O)c1cccc(/C=C/c2cc3cc(Cl)ccc3c(=O)n2CC2CCNCC2)c1

>  <score_type>  (16) 
oracle

>  <origin>  (16) 
autodockgpu

>  <m_score__min__energy>  (16) 
-9.2899999999999991

>  <m_primary>  (16) 
energy

>  <rmsd>  (16) 
7.611463728680654

>  <m_score__min__rmsd>  (16) 
7.611463728680654

>  <meeko>  (16) 
{"free_energy": -7.16, "intermolecular_energy": -9.25, "internal_energy": -2.98, "cluster_size": 3, "cluster_id": 9, "rank_in_cluster": 1}

>  <energy>  (16) 
-7.83

>  <cluster_rmsd>  (16) 
0.48

>  <cluster>  (16) 
6

$$$$

     RDKit          3D

 55 58  0  0  0  0  0  0  0  0999 V2000
  145.9380   73.2790  218.7690 N   0  0  0  0  0  0  0  0  0  0  0  0
  145.3500   73.6460  220.3550 S   0  0  0  0  0  0  0  0  0  0  0  0
  146.3370   73.1700  221.3910 O   0  0  0  0  0  0  0  0  0  0  0  0
  145.1610   75.1230  220.4710 O   0  0  0  0  0  0  0  0  0  0  0  0
  143.7980   72.8360  220.5360 C   0  0  0  0  0  0  0  0  0  0  0  0
  143.6430   71.4990  220.2390 C   0  0  0  0  0  0  0  0  0  0  0  0
  142.3900   70.9590  220.4110 C   0  0  0  0  0  0  0  0  0  0  0  0
  141.3150   71.7110  220.8630 C   0  0  0  0  0  0  0  0  0  0  0  0
  141.4580   73.0420  221.1630 C   0  0  0  0  0  0  0  0  0  0  0  0
  140.3700   73.8980  221.6420 C   0  0  0  0  0  0  0  0  0  0  0  0
  139.8930   74.9270  221.0030 C   0  0  0  0  0  0  0  0  0  0  0  0
  140.4240   76.2190  220.7200 C   0  0  0  0  0  0  0  0  0  0  0  0
  140.7760   77.0020  221.8360 C   0  0  0  0  0  0  0  0  0  0  0  0
  141.2420   78.2710  221.7660 C   0  0  0  0  0  0  0  0  0  0  0  0
  141.5610   78.9630  222.8970 C   0  0  0  0  0  0  0  0  0  0  0  0
  142.0290   80.2570  222.7440 C   0  0  0  0  0  0  0  0  0  0  0  0
  142.4430   81.1620  224.1810 Cl  0  0  0  0  0  0  0  0  0  0  0  0
  142.1840   80.8600  221.5130 C   0  0  0  0  0  0  0  0  0  0  0  0
  141.8600   80.1490  220.3790 C   0  0  0  0  0  0  0  0  0  0  0  0
  141.3910   78.8570  220.5370 C   0  0  0  0  0  0  0  0  0  0  0  0
  141.0550   78.1120  219.4460 C   0  0  0  0  0  0  0  0  0  0  0  0
  141.1970   78.6660  218.3120 O   0  0  0  0  0  0  0  0  0  0  0  0
  140.5800   76.8150  219.5290 N   0  0  0  0  0  0  0  0  0  0  0  0
  140.2430   76.2370  218.2660 C   0  0  0  0  0  0  0  0  0  0  0  0
  141.3440   75.6140  217.4970 C   0  0  0  0  0  0  0  0  0  0  0  0
  142.4920   76.4650  217.1520 C   0  0  0  0  0  0  0  0  0  0  0  0
  143.6980   76.0580  218.0060 C   0  0  0  0  0  0  0  0  0  0  0  0
  144.1790   74.8030  217.4590 N   0  0  0  0  0  0  0  0  0  0  0  0
  143.1260   73.8420  217.5670 C   0  0  0  0  0  0  0  0  0  0  0  0
  141.8460   74.3330  218.1410 C   0  0  0  0  0  0  0  0  0  0  0  0
  142.7300   73.5800  220.9860 C   0  0  0  0  0  0  0  0  0  0  0  0
  146.2030   74.1790  218.3140 H   0  0  0  0  0  0  0  0  0  0  0  0
  145.0900   72.9300  218.2440 H   0  0  0  0  0  0  0  0  0  0  0  0
  144.4856   70.8899  219.8797 H   0  0  0  0  0  0  0  0  0  0  0  0
  142.2346   69.8943  220.1824 H   0  0  0  0  0  0  0  0  0  0  0  0
  140.3320   71.2320  220.9828 H   0  0  0  0  0  0  0  0  0  0  0  0
  139.9218   73.6525  222.6161 H   0  0  0  0  0  0  0  0  0  0  0  0
  138.8809   74.7680  220.6027 H   0  0  0  0  0  0  0  0  0  0  0  0
  140.6647   76.5515  222.8333 H   0  0  0  0  0  0  0  0  0  0  0  0
  141.4506   78.5101  223.8934 H   0  0  0  0  0  0  0  0  0  0  0  0
  142.5600   81.8911  221.4385 H   0  0  0  0  0  0  0  0  0  0  0  0
  141.9706   80.5942  219.3792 H   0  0  0  0  0  0  0  0  0  0  0  0
  139.4847   75.4611  218.4478 H   0  0  0  0  0  0  0  0  0  0  0  0
  139.9038   77.0807  217.6470 H   0  0  0  0  0  0  0  0  0  0  0  0
  140.8469   75.4025  216.5388 H   0  0  0  0  0  0  0  0  0  0  0  0
  142.7363   76.3386  216.0869 H   0  0  0  0  0  0  0  0  0  0  0  0
  142.2416   77.5185  217.3457 H   0  0  0  0  0  0  0  0  0  0  0  0
  144.4836   76.8256  217.9461 H   0  0  0  0  0  0  0  0  0  0  0  0
  143.4206   75.9525  219.0652 H   0  0  0  0  0  0  0  0  0  0  0  0
  145.0070   74.4620  217.9730 H   0  0  0  0  0  0  0  0  0  0  0  0
  142.9161   73.4592  216.5573 H   0  0  0  0  0  0  0  0  0  0  0  0
  143.4925   73.0817  218.2724 H   0  0  0  0  0  0  0  0  0  0  0  0
  141.0822   73.5531  218.0059 H   0  0  0  0  0  0  0  0  0  0  0  0
  142.0321   74.5561  219.2020 H   0  0  0  0  0  0  0  0  0  0  0  0
  142.8885   74.6441  221.2152 H   0  0  0  0  0  0  0  0  0  0  0  0
  1  2  1  0
  2  3  2  0
  2  4  2  0
  2  5  1  0
  5  6  2  0
  6  7  1  0
  7  8  2  0
  8  9  1  0
  9 10  1  0
 10 11  2  0
 11 12  1  0
 12 13  2  0
 13 14  1  0
 14 15  2  0
 15 16  1  0
 16 17  1  0
 16 18  2  0
 18 19  1  0
 19 20  2  0
 20 21  1  0
 21 22  2  0
 21 23  1  0
 23 24  1  0
 24 25  1  0
 25 26  1  0
 26 27  1  0
 27 28  1  0
 28 29  1  0
 29 30  1  0
  9 31  2  0
 31  5  1  0
 23 12  1  0
 30 25  1  0
 20 14  1  0
  1 32  1  0
  1 33  1  0
  6 34  1  0
  7 35  1  0
  8 36  1  0
 10 37  1  0
 11 38  1  0
 13 39  1  0
 15 40  1  0
 18 41  1  0
 19 42  1  0
 24 43  1  0
 24 44  1  0
 25 45  1  0
 26 46  1  0
 26 47  1  0
 27 48  1  0
 27 49  1  0
 28 50  1  0
 29 51  1  0
 29 52  1  0
 30 53  1  0
 30 54  1  0
 31 55  1  0
M  END
>  <smiles>  (17) 
NS(=O)(=O)c1cccc(/C=C/c2cc3cc(Cl)ccc3c(=O)n2CC2CCNCC2)c1

>  <score_type>  (17) 
oracle

>  <origin>  (17) 
autodockgpu

>  <m_score__min__energy>  (17) 
-9.2899999999999991

>  <m_primary>  (17) 
energy

>  <rmsd>  (17) 
3.919859594650721

>  <m_score__min__rmsd>  (17) 
3.919859594650721

>  <meeko>  (17) 
{"free_energy": -7.35, "intermolecular_energy": -9.43, "internal_energy": -4.1, "cluster_size": 2, "cluster_id": 7, "rank_in_cluster": 2}

>  <energy>  (17) 
-7.52

>  <cluster_rmsd>  (17) 
0.64

>  <cluster>  (17) 
6

$$$$

     RDKit          3D

 55 58  0  0  0  0  0  0  0  0999 V2000
  143.3000   80.0360  217.8620 N   0  0  0  0  0  0  0  0  0  0  0  0
  142.1110   81.2910  217.9500 S   0  0  0  0  0  0  0  0  0  0  0  0
  142.6100   82.5200  217.2320 O   0  0  0  0  0  0  0  0  0  0  0  0
  140.8500   80.8060  217.3140 O   0  0  0  0  0  0  0  0  0  0  0  0
  141.8240   81.6210  219.6540 C   0  0  0  0  0  0  0  0  0  0  0  0
  141.2540   82.8050  220.0720 C   0  0  0  0  0  0  0  0  0  0  0  0
  141.0730   82.9700  221.4260 C   0  0  0  0  0  0  0  0  0  0  0  0
  141.4420   82.0000  222.3460 C   0  0  0  0  0  0  0  0  0  0  0  0
  142.0100   80.8190  221.9410 C   0  0  0  0  0  0  0  0  0  0  0  0
  142.4270   79.7510  222.8540 C   0  0  0  0  0  0  0  0  0  0  0  0
  141.6650   78.7750  223.2590 C   0  0  0  0  0  0  0  0  0  0  0  0
  140.2960   78.4580  223.0230 C   0  0  0  0  0  0  0  0  0  0  0  0
  139.3530   79.3840  223.5080 C   0  0  0  0  0  0  0  0  0  0  0  0
  138.0110   79.2260  223.4280 C   0  0  0  0  0  0  0  0  0  0  0  0
  137.1640   80.1720  223.9230 C   0  0  0  0  0  0  0  0  0  0  0  0
  135.8040   79.9360  223.8060 C   0  0  0  0  0  0  0  0  0  0  0  0
  134.7000   81.1370  224.4350 Cl  0  0  0  0  0  0  0  0  0  0  0  0
  135.2850   78.8030  223.2160 C   0  0  0  0  0  0  0  0  0  0  0  0
  136.1530   77.8560  222.7180 C   0  0  0  0  0  0  0  0  0  0  0  0
  137.5100   78.0950  222.8390 C   0  0  0  0  0  0  0  0  0  0  0  0
  138.4100   77.1880  222.3630 C   0  0  0  0  0  0  0  0  0  0  0  0
  137.9340   76.1440  221.8200 O   0  0  0  0  0  0  0  0  0  0  0  0
  139.7800   77.3610  222.4510 N   0  0  0  0  0  0  0  0  0  0  0  0
  140.5380   76.2650  221.9340 C   0  0  0  0  0  0  0  0  0  0  0  0
  140.9250   76.3300  220.5060 C   0  0  0  0  0  0  0  0  0  0  0  0
  139.9290   76.8530  219.5590 C   0  0  0  0  0  0  0  0  0  0  0  0
  140.3590   78.2480  219.0920 C   0  0  0  0  0  0  0  0  0  0  0  0
  141.4590   78.0460  218.1670 N   0  0  0  0  0  0  0  0  0  0  0  0
  142.5160   77.3940  218.8750 C   0  0  0  0  0  0  0  0  0  0  0  0
  142.2430   77.0560  220.2960 C   0  0  0  0  0  0  0  0  0  0  0  0
  142.1890   80.6600  220.5690 C   0  0  0  0  0  0  0  0  0  0  0  0
  144.1840   80.4600  217.5070 H   0  0  0  0  0  0  0  0  0  0  0  0
  142.9580   79.3970  217.0920 H   0  0  0  0  0  0  0  0  0  0  0  0
  140.9569   83.5838  219.3542 H   0  0  0  0  0  0  0  0  0  0  0  0
  140.6200   83.9034  221.7913 H   0  0  0  0  0  0  0  0  0  0  0  0
  141.2764   82.1808  223.4183 H   0  0  0  0  0  0  0  0  0  0  0  0
  143.4621   79.7754  223.2255 H   0  0  0  0  0  0  0  0  0  0  0  0
  142.1795   78.0540  223.9113 H   0  0  0  0  0  0  0  0  0  0  0  0
  139.7331   80.2994  223.9850 H   0  0  0  0  0  0  0  0  0  0  0  0
  137.5458   81.0881  224.3974 H   0  0  0  0  0  0  0  0  0  0  0  0
  134.1970   78.6577  223.1442 H   0  0  0  0  0  0  0  0  0  0  0  0
  135.7787   76.9390  222.2394 H   0  0  0  0  0  0  0  0  0  0  0  0
  141.4626   76.1926  222.5255 H   0  0  0  0  0  0  0  0  0  0  0  0
  139.8699   75.3944  222.0098 H   0  0  0  0  0  0  0  0  0  0  0  0
  141.0212   75.2622  220.2598 H   0  0  0  0  0  0  0  0  0  0  0  0
  139.8581   76.1805  218.6914 H   0  0  0  0  0  0  0  0  0  0  0  0
  138.9479   76.9154  220.0526 H   0  0  0  0  0  0  0  0  0  0  0  0
  139.5239   78.7546  218.5861 H   0  0  0  0  0  0  0  0  0  0  0  0
  140.6609   78.8788  219.9411 H   0  0  0  0  0  0  0  0  0  0  0  0
  141.8030   78.9440  217.7910 H   0  0  0  0  0  0  0  0  0  0  0  0
  142.7469   76.4578  218.3457 H   0  0  0  0  0  0  0  0  0  0  0  0
  143.3446   78.1172  218.8984 H   0  0  0  0  0  0  0  0  0  0  0  0
  143.0565   76.4130  220.6630 H   0  0  0  0  0  0  0  0  0  0  0  0
  142.1795   78.0059  220.8471 H   0  0  0  0  0  0  0  0  0  0  0  0
  142.6411   79.7271  220.2013 H   0  0  0  0  0  0  0  0  0  0  0  0
  1  2  1  0
  2  3  2  0
  2  4  2  0
  2  5  1  0
  5  6  2  0
  6  7  1  0
  7  8  2  0
  8  9  1  0
  9 10  1  0
 10 11  2  0
 11 12  1  0
 12 13  2  0
 13 14  1  0
 14 15  2  0
 15 16  1  0
 16 17  1  0
 16 18  2  0
 18 19  1  0
 19 20  2  0
 20 21  1  0
 21 22  2  0
 21 23  1  0
 23 24  1  0
 24 25  1  0
 25 26  1  0
 26 27  1  0
 27 28  1  0
 28 29  1  0
 29 30  1  0
  9 31  2  0
 31  5  1  0
 23 12  1  0
 30 25  1  0
 20 14  1  0
  1 32  1  0
  1 33  1  0
  6 34  1  0
  7 35  1  0
  8 36  1  0
 10 37  1  0
 11 38  1  0
 13 39  1  0
 15 40  1  0
 18 41  1  0
 19 42  1  0
 24 43  1  0
 24 44  1  0
 25 45  1  0
 26 46  1  0
 26 47  1  0
 27 48  1  0
 27 49  1  0
 28 50  1  0
 29 51  1  0
 29 52  1  0
 30 53  1  0
 30 54  1  0
 31 55  1  0
M  END
>  <smiles>  (18) 
NS(=O)(=O)c1cccc(/C=C/c2cc3cc(Cl)ccc3c(=O)n2CC2CCNCC2)c1

>  <score_type>  (18) 
oracle

>  <origin>  (18) 
autodockgpu

>  <m_score__min__energy>  (18) 
-9.2899999999999991

>  <m_primary>  (18) 
energy

>  <rmsd>  (18) 
3.970885445521904

>  <m_score__min__rmsd>  (18) 
3.970885445521904

>  <meeko>  (18) 
{"free_energy": -6.46, "intermolecular_energy": -8.55, "internal_energy": -4.18, "cluster_size": 5, "cluster_id": 17, "rank_in_cluster": 1}

>  <energy>  (18) 
-7.42

>  <cluster_rmsd>  (18) 
0.9

>  <cluster>  (18) 
6

$$$$

     RDKit          3D

 55 58  0  0  0  0  0  0  0  0999 V2000
  142.7950   79.3090  222.1960 N   0  0  0  0  0  0  0  0  0  0  0  0
  141.9960   79.9600  223.5860 S   0  0  0  0  0  0  0  0  0  0  0  0
  141.6710   78.8520  224.5560 O   0  0  0  0  0  0  0  0  0  0  0  0
  142.8970   80.9580  224.2370 O   0  0  0  0  0  0  0  0  0  0  0  0
  140.5360   80.7620  223.0220 C   0  0  0  0  0  0  0  0  0  0  0  0
  140.5890   81.8240  222.1440 C   0  0  0  0  0  0  0  0  0  0  0  0
  139.3920   82.3850  221.7650 C   0  0  0  0  0  0  0  0  0  0  0  0
  138.1730   81.9170  222.2340 C   0  0  0  0  0  0  0  0  0  0  0  0
  138.1080   80.8620  223.1070 C   0  0  0  0  0  0  0  0  0  0  0  0
  136.8590   80.3160  223.6450 C   0  0  0  0  0  0  0  0  0  0  0  0
  136.0690   79.4960  223.0140 C   0  0  0  0  0  0  0  0  0  0  0  0
  135.8280   78.0970  223.1400 C   0  0  0  0  0  0  0  0  0  0  0  0
  135.0130   77.7040  224.2190 C   0  0  0  0  0  0  0  0  0  0  0  0
  134.7220   76.4190  224.5320 C   0  0  0  0  0  0  0  0  0  0  0  0
  133.9230   76.1220  225.5960 C   0  0  0  0  0  0  0  0  0  0  0  0
  133.6730   74.7850  225.8530 C   0  0  0  0  0  0  0  0  0  0  0  0
  132.6510   74.3810  227.2130 Cl  0  0  0  0  0  0  0  0  0  0  0  0
  134.1900   73.7610  225.0860 C   0  0  0  0  0  0  0  0  0  0  0  0
  134.9940   74.0770  224.0140 C   0  0  0  0  0  0  0  0  0  0  0  0
  135.2430   75.4140  223.7620 C   0  0  0  0  0  0  0  0  0  0  0  0
  136.0340   75.7780  222.7120 C   0  0  0  0  0  0  0  0  0  0  0  0
  136.5110   74.8370  222.0050 O   0  0  0  0  0  0  0  0  0  0  0  0
  136.3250   77.0940  222.4020 N   0  0  0  0  0  0  0  0  0  0  0  0
  137.2130   77.2470  221.2920 C   0  0  0  0  0  0  0  0  0  0  0  0
  138.5370   76.5950  221.3960 C   0  0  0  0  0  0  0  0  0  0  0  0
  139.3530   76.5250  220.1750 C   0  0  0  0  0  0  0  0  0  0  0  0
  140.5250   77.5060  220.2920 C   0  0  0  0  0  0  0  0  0  0  0  0
  141.4650   76.9090  221.2210 N   0  0  0  0  0  0  0  0  0  0  0  0
  140.8020   76.7490  222.4780 C   0  0  0  0  0  0  0  0  0  0  0  0
  139.3770   77.1670  222.5260 C   0  0  0  0  0  0  0  0  0  0  0  0
  139.3240   80.2990  223.4850 C   0  0  0  0  0  0  0  0  0  0  0  0
  142.8090   78.2710  222.2950 H   0  0  0  0  0  0  0  0  0  0  0  0
  143.8010   79.6200  222.2960 H   0  0  0  0  0  0  0  0  0  0  0  0
  141.5476   82.2060  221.7631 H   0  0  0  0  0  0  0  0  0  0  0  0
  139.4013   83.2342  221.0658 H   0  0  0  0  0  0  0  0  0  0  0  0
  137.2432   82.4005  221.8998 H   0  0  0  0  0  0  0  0  0  0  0  0
  136.5665   80.6226  224.6601 H   0  0  0  0  0  0  0  0  0  0  0  0
  135.4689   79.9782  222.2283 H   0  0  0  0  0  0  0  0  0  0  0  0
  134.5832   78.4951  224.8510 H   0  0  0  0  0  0  0  0  0  0  0  0
  133.4934   76.9146  226.2262 H   0  0  0  0  0  0  0  0  0  0  0  0
  133.9639   72.7117  225.3266 H   0  0  0  0  0  0  0  0  0  0  0  0
  135.4251   73.2903  223.3774 H   0  0  0  0  0  0  0  0  0  0  0  0
  136.7093   76.8355  220.4049 H   0  0  0  0  0  0  0  0  0  0  0  0
  137.4283   78.3247  221.2450 H   0  0  0  0  0  0  0  0  0  0  0  0
  138.2493   75.5548  221.6085 H   0  0  0  0  0  0  0  0  0  0  0  0
  139.7403   75.5031  220.0500 H   0  0  0  0  0  0  0  0  0  0  0  0
  138.7360   76.7902  219.3038 H   0  0  0  0  0  0  0  0  0  0  0  0
  140.9997   77.6509  219.3104 H   0  0  0  0  0  0  0  0  0  0  0  0
  140.1872   78.4920  220.6437 H   0  0  0  0  0  0  0  0  0  0  0  0
  142.2990   77.5050  221.3490 H   0  0  0  0  0  0  0  0  0  0  0  0
  140.8486   75.6839  222.7488 H   0  0  0  0  0  0  0  0  0  0  0  0
  141.3284   77.4171  223.1755 H   0  0  0  0  0  0  0  0  0  0  0  0
  138.9483   76.8320  223.4820 H   0  0  0  0  0  0  0  0  0  0  0  0
  139.3581   78.2617  222.4199 H   0  0  0  0  0  0  0  0  0  0  0  0
  139.3166   79.4487  224.1828 H   0  0  0  0  0  0  0  0  0  0  0  0
  1  2  1  0
  2  3  2  0
  2  4  2  0
  2  5  1  0
  5  6  2  0
  6  7  1  0
  7  8  2  0
  8  9  1  0
  9 10  1  0
 10 11  2  0
 11 12  1  0
 12 13  2  0
 13 14  1  0
 14 15  2  0
 15 16  1  0
 16 17  1  0
 16 18  2  0
 18 19  1  0
 19 20  2  0
 20 21  1  0
 21 22  2  0
 21 23  1  0
 23 24  1  0
 24 25  1  0
 25 26  1  0
 26 27  1  0
 27 28  1  0
 28 29  1  0
 29 30  1  0
  9 31  2  0
 31  5  1  0
 23 12  1  0
 30 25  1  0
 20 14  1  0
  1 32  1  0
  1 33  1  0
  6 34  1  0
  7 35  1  0
  8 36  1  0
 10 37  1  0
 11 38  1  0
 13 39  1  0
 15 40  1  0
 18 41  1  0
 19 42  1  0
 24 43  1  0
 24 44  1  0
 25 45  1  0
 26 46  1  0
 26 47  1  0
 27 48  1  0
 27 49  1  0
 28 50  1  0
 29 51  1  0
 29 52  1  0
 30 53  1  0
 30 54  1  0
 31 55  1  0
M  END
>  <smiles>  (19) 
NS(=O)(=O)c1cccc(/C=C/c2cc3cc(Cl)ccc3c(=O)n2CC2CCNCC2)c1

>  <score_type>  (19) 
oracle

>  <origin>  (19) 
autodockgpu

>  <m_score__min__energy>  (19) 
-9.2899999999999991

>  <m_primary>  (19) 
energy

>  <rmsd>  (19) 
7.258543768471365

>  <m_score__min__rmsd>  (19) 
7.258543768471365

>  <meeko>  (19) 
{"free_energy": -7.09, "intermolecular_energy": -9.18, "internal_energy": -3.24, "cluster_size": 3, "cluster_id": 9, "rank_in_cluster": 2}

>  <energy>  (19) 
-7.78

>  <cluster_rmsd>  (19) 
0.0

>  <cluster>  (19) 
7

$$$$

     RDKit          3D

 55 58  0  0  0  0  0  0  0  0999 V2000
  146.6330   73.4180  219.1200 N   0  0  0  0  0  0  0  0  0  0  0  0
  145.7520   73.6210  220.5960 S   0  0  0  0  0  0  0  0  0  0  0  0
  146.5220   73.0110  221.7400 O   0  0  0  0  0  0  0  0  0  0  0  0
  145.5490   75.0810  220.8410 O   0  0  0  0  0  0  0  0  0  0  0  0
  144.1920   72.8350  220.3870 C   0  0  0  0  0  0  0  0  0  0  0  0
  144.0320   71.7670  219.5290 C   0  0  0  0  0  0  0  0  0  0  0  0
  142.7730   71.2230  219.4330 C   0  0  0  0  0  0  0  0  0  0  0  0
  141.6970   71.7120  220.1590 C   0  0  0  0  0  0  0  0  0  0  0  0
  141.8450   72.7730  221.0160 C   0  0  0  0  0  0  0  0  0  0  0  0
  140.7560   73.3450  221.8120 C   0  0  0  0  0  0  0  0  0  0  0  0
  140.1450   74.4640  221.5480 C   0  0  0  0  0  0  0  0  0  0  0  0
  140.6160   75.7510  221.1540 C   0  0  0  0  0  0  0  0  0  0  0  0
  140.9720   76.6260  222.1970 C   0  0  0  0  0  0  0  0  0  0  0  0
  141.3840   77.9040  222.0200 C   0  0  0  0  0  0  0  0  0  0  0  0
  141.7110   78.6880  223.0860 C   0  0  0  0  0  0  0  0  0  0  0  0
  142.1220   79.9840  222.8230 C   0  0  0  0  0  0  0  0  0  0  0  0
  142.5450   81.0080  224.1760 Cl  0  0  0  0  0  0  0  0  0  0  0  0
  142.2140   80.5000  221.5480 C   0  0  0  0  0  0  0  0  0  0  0  0
  141.8830   79.6960  220.4800 C   0  0  0  0  0  0  0  0  0  0  0  0
  141.4710   78.4030  220.7480 C   0  0  0  0  0  0  0  0  0  0  0  0
  141.1310   77.5660  219.7250 C   0  0  0  0  0  0  0  0  0  0  0  0
  141.2150   78.0410  218.5500 O   0  0  0  0  0  0  0  0  0  0  0  0
  140.7100   76.2630  219.9180 N   0  0  0  0  0  0  0  0  0  0  0  0
  140.3570   75.5810  218.7130 C   0  0  0  0  0  0  0  0  0  0  0  0
  141.4680   75.1270  217.8480 C   0  0  0  0  0  0  0  0  0  0  0  0
  141.7480   75.9150  216.6380 C   0  0  0  0  0  0  0  0  0  0  0  0
  143.0520   76.6960  216.8340 C   0  0  0  0  0  0  0  0  0  0  0  0
  144.1280   75.7290  216.7220 N   0  0  0  0  0  0  0  0  0  0  0  0
  143.9530   74.7550  217.7540 C   0  0  0  0  0  0  0  0  0  0  0  0
  142.7600   74.9250  218.6220 C   0  0  0  0  0  0  0  0  0  0  0  0
  143.1230   73.3180  221.1070 C   0  0  0  0  0  0  0  0  0  0  0  0
  147.4320   74.0870  219.1330 H   0  0  0  0  0  0  0  0  0  0  0  0
  145.9770   73.7690  218.3680 H   0  0  0  0  0  0  0  0  0  0  0  0
  144.8754   71.3677  218.9466 H   0  0  0  0  0  0  0  0  0  0  0  0
  142.6134   70.3702  218.7568 H   0  0  0  0  0  0  0  0  0  0  0  0
  140.7092   71.2415  220.0458 H   0  0  0  0  0  0  0  0  0  0  0  0
  140.4294   72.7859  222.7012 H   0  0  0  0  0  0  0  0  0  0  0  0
  139.0512   74.4051  221.6486 H   0  0  0  0  0  0  0  0  0  0  0  0
  140.9115   76.2457  223.2274 H   0  0  0  0  0  0  0  0  0  0  0  0
  141.6507   78.3059  224.1157 H   0  0  0  0  0  0  0  0  0  0  0  0
  142.5461   81.5361  221.3864 H   0  0  0  0  0  0  0  0  0  0  0  0
  141.9443   80.0699  219.4473 H   0  0  0  0  0  0  0  0  0  0  0  0
  139.7709   74.6934  218.9936 H   0  0  0  0  0  0  0  0  0  0  0  0
  139.8132   76.3251  218.1125 H   0  0  0  0  0  0  0  0  0  0  0  0
  141.0762   74.1669  217.4809 H   0  0  0  0  0  0  0  0  0  0  0  0
  141.8497   75.2403  215.7752 H   0  0  0  0  0  0  0  0  0  0  0  0
  140.9212   76.6172  216.4555 H   0  0  0  0  0  0  0  0  0  0  0  0
  143.1529   77.4693  216.0582 H   0  0  0  0  0  0  0  0  0  0  0  0
  143.0709   77.2031  217.8099 H   0  0  0  0  0  0  0  0  0  0  0  0
  145.0510   76.1790  216.8300 H   0  0  0  0  0  0  0  0  0  0  0  0
  143.8810   73.7676  217.2746 H   0  0  0  0  0  0  0  0  0  0  0  0
  144.8204   74.8735  218.4201 H   0  0  0  0  0  0  0  0  0  0  0  0
  142.6539   74.0261  219.2471 H   0  0  0  0  0  0  0  0  0  0  0  0
  142.9231   75.8338  219.2199 H   0  0  0  0  0  0  0  0  0  0  0  0
  143.2852   74.1706  221.7828 H   0  0  0  0  0  0  0  0  0  0  0  0
  1  2  1  0
  2  3  2  0
  2  4  2  0
  2  5  1  0
  5  6  2  0
  6  7  1  0
  7  8  2  0
  8  9  1  0
  9 10  1  0
 10 11  2  0
 11 12  1  0
 12 13  2  0
 13 14  1  0
 14 15  2  0
 15 16  1  0
 16 17  1  0
 16 18  2  0
 18 19  1  0
 19 20  2  0
 20 21  1  0
 21 22  2  0
 21 23  1  0
 23 24  1  0
 24 25  1  0
 25 26  1  0
 26 27  1  0
 27 28  1  0
 28 29  1  0
 29 30  1  0
  9 31  2  0
 31  5  1  0
 23 12  1  0
 30 25  1  0
 20 14  1  0
  1 32  1  0
  1 33  1  0
  6 34  1  0
  7 35  1  0
  8 36  1  0
 10 37  1  0
 11 38  1  0
 13 39  1  0
 15 40  1  0
 18 41  1  0
 19 42  1  0
 24 43  1  0
 24 44  1  0
 25 45  1  0
 26 46  1  0
 26 47  1  0
 27 48  1  0
 27 49  1  0
 28 50  1  0
 29 51  1  0
 29 52  1  0
 30 53  1  0
 30 54  1  0
 31 55  1  0
M  END
>  <smiles>  (20) 
NS(=O)(=O)c1cccc(/C=C/c2cc3cc(Cl)ccc3c(=O)n2CC2CCNCC2)c1

>  <score_type>  (20) 
oracle

>  <origin>  (20) 
autodockgpu

>  <m_score__min__energy>  (20) 
-9.2899999999999991

>  <m_primary>  (20) 
energy

>  <rmsd>  (20) 
3.981074889767805

>  <m_score__min__rmsd>  (20) 
3.981074889767805

>  <meeko>  (20) 
{"free_energy": -7.78, "intermolecular_energy": -9.87, "internal_energy": -2.28, "cluster_size": 2, "cluster_id": 7, "rank_in_cluster": 1}

>  <energy>  (20) 
-7.35

>  <cluster_rmsd>  (20) 
0.75

>  <cluster>  (20) 
7

$$$$

     RDKit          3D

 55 58  0  0  0  0  0  0  0  0999 V2000
  133.5710   80.0710  229.3080 N   0  0  0  0  0  0  0  0  0  0  0  0
  132.2310   79.3770  228.4620 S   0  0  0  0  0  0  0  0  0  0  0  0
  131.3210   78.6690  229.4350 O   0  0  0  0  0  0  0  0  0  0  0  0
  131.4830   80.4650  227.7640 O   0  0  0  0  0  0  0  0  0  0  0  0
  132.8860   78.2560  227.2740 C   0  0  0  0  0  0  0  0  0  0  0  0
  133.1510   76.9410  227.5920 C   0  0  0  0  0  0  0  0  0  0  0  0
  133.6640   76.1450  226.5950 C   0  0  0  0  0  0  0  0  0  0  0  0
  133.9130   76.6260  225.3180 C   0  0  0  0  0  0  0  0  0  0  0  0
  133.6540   77.9330  224.9900 C   0  0  0  0  0  0  0  0  0  0  0  0
  133.8940   78.5110  223.6650 C   0  0  0  0  0  0  0  0  0  0  0  0
  134.6510   79.5430  223.4270 C   0  0  0  0  0  0  0  0  0  0  0  0
  136.0510   79.6810  223.1950 C   0  0  0  0  0  0  0  0  0  0  0  0
  136.7530   78.4920  222.9220 C   0  0  0  0  0  0  0  0  0  0  0  0
  138.0910   78.4170  222.7330 C   0  0  0  0  0  0  0  0  0  0  0  0
  138.6960   77.2240  222.4720 C   0  0  0  0  0  0  0  0  0  0  0  0
  140.0690   77.2290  222.2920 C   0  0  0  0  0  0  0  0  0  0  0  0
  140.8650   75.7080  221.9570 Cl  0  0  0  0  0  0  0  0  0  0  0  0
  140.8330   78.3750  222.3640 C   0  0  0  0  0  0  0  0  0  0  0  0
  140.2080   79.5740  222.6260 C   0  0  0  0  0  0  0  0  0  0  0  0
  138.8370   79.5630  222.8070 C   0  0  0  0  0  0  0  0  0  0  0  0
  138.1720   80.7250  223.0700 C   0  0  0  0  0  0  0  0  0  0  0  0
  138.8740   81.7810  223.1360 O   0  0  0  0  0  0  0  0  0  0  0  0
  136.8030   80.7880  223.2620 N   0  0  0  0  0  0  0  0  0  0  0  0
  136.3200   82.0970  223.5740 C   0  0  0  0  0  0  0  0  0  0  0  0
  136.2490   82.4630  225.0070 C   0  0  0  0  0  0  0  0  0  0  0  0
  134.9130   82.5480  225.6160 C   0  0  0  0  0  0  0  0  0  0  0  0
  134.7090   81.3540  226.5560 C   0  0  0  0  0  0  0  0  0  0  0  0
  135.5090   81.6240  227.7360 N   0  0  0  0  0  0  0  0  0  0  0  0
  136.8750   81.7280  227.3280 C   0  0  0  0  0  0  0  0  0  0  0  0
  137.1380   81.5870  225.8730 C   0  0  0  0  0  0  0  0  0  0  0  0
  133.1340   78.7310  226.0050 C   0  0  0  0  0  0  0  0  0  0  0  0
  134.3480   80.1970  228.6240 H   0  0  0  0  0  0  0  0  0  0  0  0
  133.8910   79.3110  229.9700 H   0  0  0  0  0  0  0  0  0  0  0  0
  132.9602   76.5453  228.6005 H   0  0  0  0  0  0  0  0  0  0  0  0
  133.8845   75.0906  226.8178 H   0  0  0  0  0  0  0  0  0  0  0  0
  134.3249   75.9484  224.5556 H   0  0  0  0  0  0  0  0  0  0  0  0
  133.3966   78.0368  222.8061 H   0  0  0  0  0  0  0  0  0  0  0  0
  134.1026   80.4962  223.3995 H   0  0  0  0  0  0  0  0  0  0  0  0
  136.1739   77.5590  222.8578 H   0  0  0  0  0  0  0  0  0  0  0  0
  138.1154   76.2920  222.4068 H   0  0  0  0  0  0  0  0  0  0  0  0
  141.9220   78.3322  222.2148 H   0  0  0  0  0  0  0  0  0  0  0  0
  140.7812   80.5107  222.6893 H   0  0  0  0  0  0  0  0  0  0  0  0
  136.9825   82.8221  223.0787 H   0  0  0  0  0  0  0  0  0  0  0  0
  135.2772   82.1078  223.2242 H   0  0  0  0  0  0  0  0  0  0  0  0
  136.6208   83.4980  224.9849 H   0  0  0  0  0  0  0  0  0  0  0  0
  134.8282   83.4843  226.1871 H   0  0  0  0  0  0  0  0  0  0  0  0
  134.1463   82.5319  224.8274 H   0  0  0  0  0  0  0  0  0  0  0  0
  133.6474   81.2608  226.8286 H   0  0  0  0  0  0  0  0  0  0  0  0
  135.0097   80.4110  226.0760 H   0  0  0  0  0  0  0  0  0  0  0  0
  135.4180   80.8670  228.4330 H   0  0  0  0  0  0  0  0  0  0  0  0
  137.2445   82.7155  227.6416 H   0  0  0  0  0  0  0  0  0  0  0  0
  137.3893   80.8798  227.8034 H   0  0  0  0  0  0  0  0  0  0  0  0
  138.1866   81.8584  225.6812 H   0  0  0  0  0  0  0  0  0  0  0  0
  136.9207   80.5424  225.6055 H   0  0  0  0  0  0  0  0  0  0  0  0
  132.9117   79.7855  225.7845 H   0  0  0  0  0  0  0  0  0  0  0  0
  1  2  1  0
  2  3  2  0
  2  4  2  0
  2  5  1  0
  5  6  2  0
  6  7  1  0
  7  8  2  0
  8  9  1  0
  9 10  1  0
 10 11  2  0
 11 12  1  0
 12 13  2  0
 13 14  1  0
 14 15  2  0
 15 16  1  0
 16 17  1  0
 16 18  2  0
 18 19  1  0
 19 20  2  0
 20 21  1  0
 21 22  2  0
 21 23  1  0
 23 24  1  0
 24 25  1  0
 25 26  1  0
 26 27  1  0
 27 28  1  0
 28 29  1  0
 29 30  1  0
  9 31  2  0
 31  5  1  0
 23 12  1  0
 30 25  1  0
 20 14  1  0
  1 32  1  0
  1 33  1  0
  6 34  1  0
  7 35  1  0
  8 36  1  0
 10 37  1  0
 11 38  1  0
 13 39  1  0
 15 40  1  0
 18 41  1  0
 19 42  1  0
 24 43  1  0
 24 44  1  0
 25 45  1  0
 26 46  1  0
 26 47  1  0
 27 48  1  0
 27 49  1  0
 28 50  1  0
 29 51  1  0
 29 52  1  0
 30 53  1  0
 30 54  1  0
 31 55  1  0
M  END
>  <smiles>  (21) 
NS(=O)(=O)c1cccc(/C=C/c2cc3cc(Cl)ccc3c(=O)n2CC2CCNCC2)c1

>  <score_type>  (21) 
oracle

>  <origin>  (21) 
autodockgpu

>  <m_score__min__energy>  (21) 
-9.2899999999999991

>  <m_primary>  (21) 
energy

>  <rmsd>  (21) 
7.834525228611589

>  <m_score__min__rmsd>  (21) 
7.834525228611589

>  <meeko>  (21) 
{"free_energy": -6.8, "intermolecular_energy": -8.88, "internal_energy": -3.18, "cluster_size": 1, "cluster_id": 12, "rank_in_cluster": 1}

>  <energy>  (21) 
-7.71

>  <cluster_rmsd>  (21) 
0.0

>  <cluster>  (21) 
8

$$$$

     RDKit          3D

 55 58  0  0  0  0  0  0  0  0999 V2000
  141.3980   82.7080  222.1650 N   0  0  0  0  0  0  0  0  0  0  0  0
  140.7080   83.2820  220.6860 S   0  0  0  0  0  0  0  0  0  0  0  0
  139.2130   83.0840  220.7070 O   0  0  0  0  0  0  0  0  0  0  0  0
  141.0270   84.7340  220.5350 O   0  0  0  0  0  0  0  0  0  0  0  0
  141.4510   82.3750  219.3750 C   0  0  0  0  0  0  0  0  0  0  0  0
  141.9110   83.0010  218.2350 C   0  0  0  0  0  0  0  0  0  0  0  0
  142.4740   82.2040  217.2660 C   0  0  0  0  0  0  0  0  0  0  0  0
  142.5840   80.8280  217.4100 C   0  0  0  0  0  0  0  0  0  0  0  0
  142.1310   80.1960  218.5390 C   0  0  0  0  0  0  0  0  0  0  0  0
  142.2120   78.7490  218.7590 C   0  0  0  0  0  0  0  0  0  0  0  0
  141.5810   78.1010  219.6960 C   0  0  0  0  0  0  0  0  0  0  0  0
  141.6940   76.7690  220.1920 C   0  0  0  0  0  0  0  0  0  0  0  0
  142.7520   76.0010  219.6700 C   0  0  0  0  0  0  0  0  0  0  0  0
  142.9830   74.7030  219.9770 C   0  0  0  0  0  0  0  0  0  0  0  0
  144.0320   74.0290  219.4260 C   0  0  0  0  0  0  0  0  0  0  0  0
  144.2000   72.7030  219.7890 C   0  0  0  0  0  0  0  0  0  0  0  0
  145.5390   71.8200  219.0930 Cl  0  0  0  0  0  0  0  0  0  0  0  0
  143.3640   72.0520  220.6710 C   0  0  0  0  0  0  0  0  0  0  0  0
  142.3090   72.7460  221.2210 C   0  0  0  0  0  0  0  0  0  0  0  0
  142.1440   74.0700  220.8550 C   0  0  0  0  0  0  0  0  0  0  0  0
  141.1140   74.8000  221.3710 C   0  0  0  0  0  0  0  0  0  0  0  0
  140.3430   74.2020  222.1830 O   0  0  0  0  0  0  0  0  0  0  0  0
  140.8880   76.1260  221.0490 N   0  0  0  0  0  0  0  0  0  0  0  0
  139.7250   76.6840  221.6650 C   0  0  0  0  0  0  0  0  0  0  0  0
  139.9440   77.7270  222.6930 C   0  0  0  0  0  0  0  0  0  0  0  0
  141.3270   77.9610  223.1340 C   0  0  0  0  0  0  0  0  0  0  0  0
  141.8180   79.2990  222.5710 C   0  0  0  0  0  0  0  0  0  0  0  0
  141.1600   80.3330  223.3470 N   0  0  0  0  0  0  0  0  0  0  0  0
  139.7490   80.1880  223.1690 C   0  0  0  0  0  0  0  0  0  0  0  0
  139.3090   79.0540  222.3150 C   0  0  0  0  0  0  0  0  0  0  0  0
  141.5630   81.0100  219.5150 C   0  0  0  0  0  0  0  0  0  0  0  0
  141.9640   81.8600  221.9430 H   0  0  0  0  0  0  0  0  0  0  0  0
  140.5720   82.3620  222.7290 H   0  0  0  0  0  0  0  0  0  0  0  0
  141.8309   84.0905  218.1066 H   0  0  0  0  0  0  0  0  0  0  0  0
  142.8501   82.6733  216.3450 H   0  0  0  0  0  0  0  0  0  0  0  0
  143.0422   80.2348  216.6050 H   0  0  0  0  0  0  0  0  0  0  0  0
  142.8541   78.1667  218.0817 H   0  0  0  0  0  0  0  0  0  0  0  0
  140.8097   78.6983  220.2044 H   0  0  0  0  0  0  0  0  0  0  0  0
  143.4389   76.4897  218.9634 H   0  0  0  0  0  0  0  0  0  0  0  0
  144.7186   74.5194  218.7202 H   0  0  0  0  0  0  0  0  0  0  0  0
  143.5364   70.9971  220.9309 H   0  0  0  0  0  0  0  0  0  0  0  0
  141.6194   72.2628  221.9289 H   0  0  0  0  0  0  0  0  0  0  0  0
  139.1080   77.1267  220.8692 H   0  0  0  0  0  0  0  0  0  0  0  0
  139.2568   75.8465  222.2029 H   0  0  0  0  0  0  0  0  0  0  0  0
  139.4375   77.2829  223.5626 H   0  0  0  0  0  0  0  0  0  0  0  0
  141.3625   77.9895  224.2331 H   0  0  0  0  0  0  0  0  0  0  0  0
  141.9727   77.1484  222.7696 H   0  0  0  0  0  0  0  0  0  0  0  0
  142.9099   79.3794  222.6776 H   0  0  0  0  0  0  0  0  0  0  0  0
  141.5838   79.3924  221.5003 H   0  0  0  0  0  0  0  0  0  0  0  0
  141.4480   81.2760  223.0390 H   0  0  0  0  0  0  0  0  0  0  0  0
  139.2972   80.0547  224.1630 H   0  0  0  0  0  0  0  0  0  0  0  0
  139.4235   81.0972  222.6422 H   0  0  0  0  0  0  0  0  0  0  0  0
  138.2171   78.9549  222.4037 H   0  0  0  0  0  0  0  0  0  0  0  0
  139.6259   79.2823  221.2867 H   0  0  0  0  0  0  0  0  0  0  0  0
  141.1877   80.5427  220.4374 H   0  0  0  0  0  0  0  0  0  0  0  0
  1  2  1  0
  2  3  2  0
  2  4  2  0
  2  5  1  0
  5  6  2  0
  6  7  1  0
  7  8  2  0
  8  9  1  0
  9 10  1  0
 10 11  2  0
 11 12  1  0
 12 13  2  0
 13 14  1  0
 14 15  2  0
 15 16  1  0
 16 17  1  0
 16 18  2  0
 18 19  1  0
 19 20  2  0
 20 21  1  0
 21 22  2  0
 21 23  1  0
 23 24  1  0
 24 25  1  0
 25 26  1  0
 26 27  1  0
 27 28  1  0
 28 29  1  0
 29 30  1  0
  9 31  2  0
 31  5  1  0
 23 12  1  0
 30 25  1  0
 20 14  1  0
  1 32  1  0
  1 33  1  0
  6 34  1  0
  7 35  1  0
  8 36  1  0
 10 37  1  0
 11 38  1  0
 13 39  1  0
 15 40  1  0
 18 41  1  0
 19 42  1  0
 24 43  1  0
 24 44  1  0
 25 45  1  0
 26 46  1  0
 26 47  1  0
 27 48  1  0
 27 49  1  0
 28 50  1  0
 29 51  1  0
 29 52  1  0
 30 53  1  0
 30 54  1  0
 31 55  1  0
M  END
>  <smiles>  (22) 
NS(=O)(=O)c1cccc(/C=C/c2cc3cc(Cl)ccc3c(=O)n2CC2CCNCC2)c1

>  <score_type>  (22) 
oracle

>  <origin>  (22) 
autodockgpu

>  <m_score__min__energy>  (22) 
-9.2899999999999991

>  <m_primary>  (22) 
energy

>  <rmsd>  (22) 
7.341679118442235

>  <m_score__min__rmsd>  (22) 
7.341679118442235

>  <meeko>  (22) 
{"free_energy": -6.76, "intermolecular_energy": -8.85, "internal_energy": -3.49, "cluster_size": 3, "cluster_id": 13, "rank_in_cluster": 1}

>  <energy>  (22) 
-7.62

>  <cluster_rmsd>  (22) 
0.84

>  <cluster>  (22) 
8

$$$$

     RDKit          3D

 55 58  0  0  0  0  0  0  0  0999 V2000
  143.3240   80.1390  222.3040 N   0  0  0  0  0  0  0  0  0  0  0  0
  142.1190   80.4220  223.5130 S   0  0  0  0  0  0  0  0  0  0  0  0
  141.7380   79.1200  224.1710 O   0  0  0  0  0  0  0  0  0  0  0  0
  142.6680   81.3670  224.5320 O   0  0  0  0  0  0  0  0  0  0  0  0
  140.7360   81.1580  222.7110 C   0  0  0  0  0  0  0  0  0  0  0  0
  140.8960   82.0510  221.6720 C   0  0  0  0  0  0  0  0  0  0  0  0
  139.7530   82.5740  221.1130 C   0  0  0  0  0  0  0  0  0  0  0  0
  138.4860   82.2310  221.5610 C   0  0  0  0  0  0  0  0  0  0  0  0
  138.3150   81.3440  222.5930 C   0  0  0  0  0  0  0  0  0  0  0  0
  137.0100   80.9370  223.1210 C   0  0  0  0  0  0  0  0  0  0  0  0
  136.2050   80.0890  222.5480 C   0  0  0  0  0  0  0  0  0  0  0  0
  135.9990   78.6890  222.7180 C   0  0  0  0  0  0  0  0  0  0  0  0
  135.1990   78.3090  223.8130 C   0  0  0  0  0  0  0  0  0  0  0  0
  134.9400   77.0280  224.1660 C   0  0  0  0  0  0  0  0  0  0  0  0
  134.1540   76.7430  225.2420 C   0  0  0  0  0  0  0  0  0  0  0  0
  133.9370   75.4090  225.5400 C   0  0  0  0  0  0  0  0  0  0  0  0
  132.9320   75.0220  226.9180 Cl  0  0  0  0  0  0  0  0  0  0  0  0
  134.4750   74.3760  224.8020 C   0  0  0  0  0  0  0  0  0  0  0  0
  135.2660   74.6780  223.7160 C   0  0  0  0  0  0  0  0  0  0  0  0
  135.4810   76.0120  223.4230 C   0  0  0  0  0  0  0  0  0  0  0  0
  136.2570   76.3640  222.3580 C   0  0  0  0  0  0  0  0  0  0  0  0
  136.7540   75.4140  221.6770 O   0  0  0  0  0  0  0  0  0  0  0  0
  136.5150   77.6770  222.0070 N   0  0  0  0  0  0  0  0  0  0  0  0
  137.3930   77.8180  220.8880 C   0  0  0  0  0  0  0  0  0  0  0  0
  138.7510   77.2450  221.0230 C   0  0  0  0  0  0  0  0  0  0  0  0
  139.7890   77.7430  220.1080 C   0  0  0  0  0  0  0  0  0  0  0  0
  140.7660   78.6300  220.8870 C   0  0  0  0  0  0  0  0  0  0  0  0
  141.5850   77.7340  221.6820 N   0  0  0  0  0  0  0  0  0  0  0  0
  140.7210   77.0190  222.5690 C   0  0  0  0  0  0  0  0  0  0  0  0
  139.2690   77.3120  222.4490 C   0  0  0  0  0  0  0  0  0  0  0  0
  139.4770   80.8200  223.1530 C   0  0  0  0  0  0  0  0  0  0  0  0
  142.9270   79.4690  221.6110 H   0  0  0  0  0  0  0  0  0  0  0  0
  144.0890   79.6110  222.8080 H   0  0  0  0  0  0  0  0  0  0  0  0
  141.8944   82.3328  221.3062 H   0  0  0  0  0  0  0  0  0  0  0  0
  139.8471   83.2888  220.2822 H   0  0  0  0  0  0  0  0  0  0  0  0
  137.6032   82.6780  221.0804 H   0  0  0  0  0  0  0  0  0  0  0  0
  136.6859   81.3815  224.0736 H   0  0  0  0  0  0  0  0  0  0  0  0
  135.5571   80.5418  221.7830 H   0  0  0  0  0  0  0  0  0  0  0  0
  134.7538   79.1083  224.4237 H   0  0  0  0  0  0  0  0  0  0  0  0
  133.7086   77.5434  225.8511 H   0  0  0  0  0  0  0  0  0  0  0  0
  134.2759   73.3294  225.0758 H   0  0  0  0  0  0  0  0  0  0  0  0
  135.7128   73.8829  223.1010 H   0  0  0  0  0  0  0  0  0  0  0  0
  136.9123   77.3327  220.0258 H   0  0  0  0  0  0  0  0  0  0  0  0
  137.5494   78.9017  220.7824 H   0  0  0  0  0  0  0  0  0  0  0  0
  138.5758   76.2029  220.7176 H   0  0  0  0  0  0  0  0  0  0  0  0
  140.3328   76.8925  219.6712 H   0  0  0  0  0  0  0  0  0  0  0  0
  139.3211   78.3282  219.3027 H   0  0  0  0  0  0  0  0  0  0  0  0
  141.3953   79.2052  220.1919 H   0  0  0  0  0  0  0  0  0  0  0  0
  140.2313   79.3518  221.5219 H   0  0  0  0  0  0  0  0  0  0  0  0
  142.2860   78.2540  222.2330 H   0  0  0  0  0  0  0  0  0  0  0  0
  140.8630   75.9444  222.3820 H   0  0  0  0  0  0  0  0  0  0  0  0
  141.0041   77.3440  223.5810 H   0  0  0  0  0  0  0  0  0  0  0  0
  138.7152   76.5797  223.0549 H   0  0  0  0  0  0  0  0  0  0  0  0
  139.1182   78.3439  222.7988 H   0  0  0  0  0  0  0  0  0  0  0  0
  139.3850   80.1054  223.9842 H   0  0  0  0  0  0  0  0  0  0  0  0
  1  2  1  0
  2  3  2  0
  2  4  2  0
  2  5  1  0
  5  6  2  0
  6  7  1  0
  7  8  2  0
  8  9  1  0
  9 10  1  0
 10 11  2  0
 11 12  1  0
 12 13  2  0
 13 14  1  0
 14 15  2  0
 15 16  1  0
 16 17  1  0
 16 18  2  0
 18 19  1  0
 19 20  2  0
 20 21  1  0
 21 22  2  0
 21 23  1  0
 23 24  1  0
 24 25  1  0
 25 26  1  0
 26 27  1  0
 27 28  1  0
 28 29  1  0
 29 30  1  0
  9 31  2  0
 31  5  1  0
 23 12  1  0
 30 25  1  0
 20 14  1  0
  1 32  1  0
  1 33  1  0
  6 34  1  0
  7 35  1  0
  8 36  1  0
 10 37  1  0
 11 38  1  0
 13 39  1  0
 15 40  1  0
 18 41  1  0
 19 42  1  0
 24 43  1  0
 24 44  1  0
 25 45  1  0
 26 46  1  0
 26 47  1  0
 27 48  1  0
 27 49  1  0
 28 50  1  0
 29 51  1  0
 29 52  1  0
 30 53  1  0
 30 54  1  0
 31 55  1  0
M  END
>  <smiles>  (23) 
NS(=O)(=O)c1cccc(/C=C/c2cc3cc(Cl)ccc3c(=O)n2CC2CCNCC2)c1

>  <score_type>  (23) 
oracle

>  <origin>  (23) 
autodockgpu

>  <m_score__min__energy>  (23) 
-9.2899999999999991

>  <m_primary>  (23) 
energy

>  <rmsd>  (23) 
6.850447676416372

>  <m_score__min__rmsd>  (23) 
6.850447676416372

>  <meeko>  (23) 
{"free_energy": -6.34, "intermolecular_energy": -8.42, "internal_energy": -4.03, "cluster_size": 3, "cluster_id": 9, "rank_in_cluster": 3}

>  <energy>  (23) 
-7.35

>  <cluster_rmsd>  (23) 
0.34

>  <cluster>  (23) 
8

$$$$

     RDKit          3D

 55 58  0  0  0  0  0  0  0  0999 V2000
  144.3240   69.5990  217.6730 N   0  0  0  0  0  0  0  0  0  0  0  0
  145.1850   69.8130  219.1590 S   0  0  0  0  0  0  0  0  0  0  0  0
  144.8360   68.7030  220.1180 O   0  0  0  0  0  0  0  0  0  0  0  0
  146.6520   69.7970  218.8740 O   0  0  0  0  0  0  0  0  0  0  0  0
  144.7270   71.3830  219.8080 C   0  0  0  0  0  0  0  0  0  0  0  0
  145.6680   72.3530  220.0810 C   0  0  0  0  0  0  0  0  0  0  0  0
  145.2090   73.5460  220.5890 C   0  0  0  0  0  0  0  0  0  0  0  0
  143.8620   73.7830  220.8230 C   0  0  0  0  0  0  0  0  0  0  0  0
  142.9180   72.8250  220.5540 C   0  0  0  0  0  0  0  0  0  0  0  0
  141.4800   73.0030  220.7770 C   0  0  0  0  0  0  0  0  0  0  0  0
  140.8810   72.8730  221.9260 C   0  0  0  0  0  0  0  0  0  0  0  0
  140.2950   71.7560  222.5880 C   0  0  0  0  0  0  0  0  0  0  0  0
  140.7090   71.5360  223.9150 C   0  0  0  0  0  0  0  0  0  0  0  0
  140.3070   70.4950  224.6820 C   0  0  0  0  0  0  0  0  0  0  0  0
  140.7550   70.3530  225.9610 C   0  0  0  0  0  0  0  0  0  0  0  0
  140.2990   69.2620  226.6810 C   0  0  0  0  0  0  0  0  0  0  0  0
  140.8630   69.0600  228.3240 Cl  0  0  0  0  0  0  0  0  0  0  0  0
  139.4230   68.3310  226.1630 C   0  0  0  0  0  0  0  0  0  0  0  0
  138.9770   68.4880  224.8690 C   0  0  0  0  0  0  0  0  0  0  0  0
  139.4360   69.5790  224.1540 C   0  0  0  0  0  0  0  0  0  0  0  0
  139.0240   69.7790  222.8690 C   0  0  0  0  0  0  0  0  0  0  0  0
  138.2180   68.9230  222.3900 O   0  0  0  0  0  0  0  0  0  0  0  0
  139.4430   70.8460  222.0950 N   0  0  0  0  0  0  0  0  0  0  0  0
  138.9280   70.8350  220.7620 C   0  0  0  0  0  0  0  0  0  0  0  0
  139.5230   69.8610  219.8190 C   0  0  0  0  0  0  0  0  0  0  0  0
  139.5660   70.2360  218.3980 C   0  0  0  0  0  0  0  0  0  0  0  0
  141.0130   70.5540  218.0030 C   0  0  0  0  0  0  0  0  0  0  0  0
  141.7010   69.2800  217.9160 N   0  0  0  0  0  0  0  0  0  0  0  0
  141.6450   68.6610  219.2040 C   0  0  0  0  0  0  0  0  0  0  0  0
  140.9030   69.4020  220.2570 C   0  0  0  0  0  0  0  0  0  0  0  0
  143.3900   71.6210  220.0400 C   0  0  0  0  0  0  0  0  0  0  0  0
  143.5920   70.3390  217.6210 H   0  0  0  0  0  0  0  0  0  0  0  0
  143.8020   68.6870  217.7960 H   0  0  0  0  0  0  0  0  0  0  0  0
  146.7392   72.1803  219.9004 H   0  0  0  0  0  0  0  0  0  0  0  0
  145.9352   74.3399  220.8178 H   0  0  0  0  0  0  0  0  0  0  0  0
  143.5462   74.7546  221.2307 H   0  0  0  0  0  0  0  0  0  0  0  0
  140.8598   73.2664  219.9076 H   0  0  0  0  0  0  0  0  0  0  0  0
  140.8144   73.8102  222.4980 H   0  0  0  0  0  0  0  0  0  0  0  0
  141.4076   72.2599  224.3599 H   0  0  0  0  0  0  0  0  0  0  0  0
  141.4529   71.0782  226.4049 H   0  0  0  0  0  0  0  0  0  0  0  0
  139.0867   67.4788  226.7719 H   0  0  0  0  0  0  0  0  0  0  0  0
  138.2777   67.7681  224.4187 H   0  0  0  0  0  0  0  0  0  0  0  0
  137.8508   70.6209  220.8243 H   0  0  0  0  0  0  0  0  0  0  0  0
  139.1817   71.8228  220.3499 H   0  0  0  0  0  0  0  0  0  0  0  0
  138.7984   69.0353  219.8747 H   0  0  0  0  0  0  0  0  0  0  0  0
  139.1927   69.4017  217.7860 H   0  0  0  0  0  0  0  0  0  0  0  0
  138.9346   71.1211  218.2305 H   0  0  0  0  0  0  0  0  0  0  0  0
  141.0382   71.0676  217.0306 H   0  0  0  0  0  0  0  0  0  0  0  0
  141.4915   71.2172  218.7386 H   0  0  0  0  0  0  0  0  0  0  0  0
  142.6880   69.4030  217.6390 H   0  0  0  0  0  0  0  0  0  0  0  0
  141.1649   67.6787  219.0835 H   0  0  0  0  0  0  0  0  0  0  0  0
  142.6867   68.6164  219.5544 H   0  0  0  0  0  0  0  0  0  0  0  0
  140.7895   68.7439  221.1311 H   0  0  0  0  0  0  0  0  0  0  0  0
  141.4859   70.3060  220.4872 H   0  0  0  0  0  0  0  0  0  0  0  0
  142.6654   70.8262  219.8093 H   0  0  0  0  0  0  0  0  0  0  0  0
  1  2  1  0
  2  3  2  0
  2  4  2  0
  2  5  1  0
  5  6  2  0
  6  7  1  0
  7  8  2  0
  8  9  1  0
  9 10  1  0
 10 11  2  0
 11 12  1  0
 12 13  2  0
 13 14  1  0
 14 15  2  0
 15 16  1  0
 16 17  1  0
 16 18  2  0
 18 19  1  0
 19 20  2  0
 20 21  1  0
 21 22  2  0
 21 23  1  0
 23 24  1  0
 24 25  1  0
 25 26  1  0
 26 27  1  0
 27 28  1  0
 28 29  1  0
 29 30  1  0
  9 31  2  0
 31  5  1  0
 23 12  1  0
 30 25  1  0
 20 14  1  0
  1 32  1  0
  1 33  1  0
  6 34  1  0
  7 35  1  0
  8 36  1  0
 10 37  1  0
 11 38  1  0
 13 39  1  0
 15 40  1  0
 18 41  1  0
 19 42  1  0
 24 43  1  0
 24 44  1  0
 25 45  1  0
 26 46  1  0
 26 47  1  0
 27 48  1  0
 27 49  1  0
 28 50  1  0
 29 51  1  0
 29 52  1  0
 30 53  1  0
 30 54  1  0
 31 55  1  0
M  END
>  <smiles>  (24) 
NS(=O)(=O)c1cccc(/C=C/c2cc3cc(Cl)ccc3c(=O)n2CC2CCNCC2)c1

>  <score_type>  (24) 
oracle

>  <origin>  (24) 
autodockgpu

>  <m_score__min__energy>  (24) 
-9.2899999999999991

>  <m_primary>  (24) 
energy

>  <rmsd>  (24) 
10.421165345205143

>  <m_score__min__rmsd>  (24) 
10.421165345205143

>  <meeko>  (24) 
{"free_energy": -6.73, "intermolecular_energy": -8.82, "internal_energy": -3.86, "cluster_size": 6, "cluster_id": 8, "rank_in_cluster": 5}

>  <energy>  (24) 
-6.89

>  <cluster_rmsd>  (24) 
0.78

>  <cluster>  (24) 
8

$$$$

     RDKit          3D

 55 58  0  0  0  0  0  0  0  0999 V2000
  146.3180   73.3890  219.0190 N   0  0  0  0  0  0  0  0  0  0  0  0
  145.2250   73.1470  220.3380 S   0  0  0  0  0  0  0  0  0  0  0  0
  144.7900   71.7040  220.3850 O   0  0  0  0  0  0  0  0  0  0  0  0
  145.9160   73.5120  221.6120 O   0  0  0  0  0  0  0  0  0  0  0  0
  143.8520   74.2170  220.0840 C   0  0  0  0  0  0  0  0  0  0  0  0
  143.9940   75.4340  219.4510 C   0  0  0  0  0  0  0  0  0  0  0  0
  142.8610   76.2000  219.3020 C   0  0  0  0  0  0  0  0  0  0  0  0
  141.6200   75.7840  219.7630 C   0  0  0  0  0  0  0  0  0  0  0  0
  141.4680   74.5760  220.3940 C   0  0  0  0  0  0  0  0  0  0  0  0
  140.1910   74.0730  220.9090 C   0  0  0  0  0  0  0  0  0  0  0  0
  139.5000   74.6260  221.8640 C   0  0  0  0  0  0  0  0  0  0  0  0
  139.2870   75.9850  222.2380 C   0  0  0  0  0  0  0  0  0  0  0  0
  140.4440   76.7460  222.4920 C   0  0  0  0  0  0  0  0  0  0  0  0
  140.4390   78.0330  222.9120 C   0  0  0  0  0  0  0  0  0  0  0  0
  141.6050   78.7010  223.1360 C   0  0  0  0  0  0  0  0  0  0  0  0
  141.5170   80.0140  223.5660 C   0  0  0  0  0  0  0  0  0  0  0  0
  143.0020   80.8900  223.8600 Cl  0  0  0  0  0  0  0  0  0  0  0  0
  140.3160   80.6600  223.7710 C   0  0  0  0  0  0  0  0  0  0  0  0
  139.1450   79.9730  223.5400 C   0  0  0  0  0  0  0  0  0  0  0  0
  139.2380   78.6610  223.1110 C   0  0  0  0  0  0  0  0  0  0  0  0
  138.1070   77.9380  222.8690 C   0  0  0  0  0  0  0  0  0  0  0  0
  137.0010   78.5300  223.0580 O   0  0  0  0  0  0  0  0  0  0  0  0
  138.1260   76.6230  222.4400 N   0  0  0  0  0  0  0  0  0  0  0  0
  136.8280   76.0400  222.2960 C   0  0  0  0  0  0  0  0  0  0  0  0
  136.2010   75.4860  223.5160 C   0  0  0  0  0  0  0  0  0  0  0  0
  135.1160   76.2650  224.1310 C   0  0  0  0  0  0  0  0  0  0  0  0
  133.7800   75.5570  223.8800 C   0  0  0  0  0  0  0  0  0  0  0  0
  133.7560   74.4070  224.7650 N   0  0  0  0  0  0  0  0  0  0  0  0
  134.8570   73.5630  224.4200 C   0  0  0  0  0  0  0  0  0  0  0  0
  135.7410   74.0500  223.3300 C   0  0  0  0  0  0  0  0  0  0  0  0
  142.6190   73.8070  220.5390 C   0  0  0  0  0  0  0  0  0  0  0  0
  147.0290   74.0900  219.3200 H   0  0  0  0  0  0  0  0  0  0  0  0
  145.7370   73.8700  218.2770 H   0  0  0  0  0  0  0  0  0  0  0  0
  144.9713   75.7775  219.0811 H   0  0  0  0  0  0  0  0  0  0  0  0
  142.9416   77.1756  218.8003 H   0  0  0  0  0  0  0  0  0  0  0  0
  140.7440   76.4337  219.6200 H   0  0  0  0  0  0  0  0  0  0  0  0
  139.7852   73.1577  220.4534 H   0  0  0  0  0  0  0  0  0  0  0  0
  138.9785   73.9030  222.5084 H   0  0  0  0  0  0  0  0  0  0  0  0
  141.4195   76.2613  222.3386 H   0  0  0  0  0  0  0  0  0  0  0  0
  142.5797   78.2154  222.9810 H   0  0  0  0  0  0  0  0  0  0  0  0
  140.2937   81.7053  224.1129 H   0  0  0  0  0  0  0  0  0  0  0  0
  138.1666   80.4523  223.6918 H   0  0  0  0  0  0  0  0  0  0  0  0
  136.1570   76.8175  221.9019 H   0  0  0  0  0  0  0  0  0  0  0  0
  136.9756   75.1748  221.6329 H   0  0  0  0  0  0  0  0  0  0  0  0
  137.0350   75.5413  224.2311 H   0  0  0  0  0  0  0  0  0  0  0  0
  135.2907   76.3472  225.2139 H   0  0  0  0  0  0  0  0  0  0  0  0
  135.0886   77.2719  223.6890 H   0  0  0  0  0  0  0  0  0  0  0  0
  132.9422   76.2319  224.1096 H   0  0  0  0  0  0  0  0  0  0  0  0
  133.6798   75.2537  222.8274 H   0  0  0  0  0  0  0  0  0  0  0  0
  132.8750   73.8760  224.6680 H   0  0  0  0  0  0  0  0  0  0  0  0
  135.4752   73.4331  225.3205 H   0  0  0  0  0  0  0  0  0  0  0  0
  134.4075   72.6334  224.0409 H   0  0  0  0  0  0  0  0  0  0  0  0
  136.6295   73.4029  223.2875 H   0  0  0  0  0  0  0  0  0  0  0  0
  135.1546   74.0169  222.3999 H   0  0  0  0  0  0  0  0  0  0  0  0
  142.5402   72.8301  221.0384 H   0  0  0  0  0  0  0  0  0  0  0  0
  1  2  1  0
  2  3  2  0
  2  4  2  0
  2  5  1  0
  5  6  2  0
  6  7  1  0
  7  8  2  0
  8  9  1  0
  9 10  1  0
 10 11  2  0
 11 12  1  0
 12 13  2  0
 13 14  1  0
 14 15  2  0
 15 16  1  0
 16 17  1  0
 16 18  2  0
 18 19  1  0
 19 20  2  0
 20 21  1  0
 21 22  2  0
 21 23  1  0
 23 24  1  0
 24 25  1  0
 25 26  1  0
 26 27  1  0
 27 28  1  0
 28 29  1  0
 29 30  1  0
  9 31  2  0
 31  5  1  0
 23 12  1  0
 30 25  1  0
 20 14  1  0
  1 32  1  0
  1 33  1  0
  6 34  1  0
  7 35  1  0
  8 36  1  0
 10 37  1  0
 11 38  1  0
 13 39  1  0
 15 40  1  0
 18 41  1  0
 19 42  1  0
 24 43  1  0
 24 44  1  0
 25 45  1  0
 26 46  1  0
 26 47  1  0
 27 48  1  0
 27 49  1  0
 28 50  1  0
 29 51  1  0
 29 52  1  0
 30 53  1  0
 30 54  1  0
 31 55  1  0
M  END
>  <smiles>  (25) 
NS(=O)(=O)c1cccc(/C=C/c2cc3cc(Cl)ccc3c(=O)n2CC2CCNCC2)c1

>  <score_type>  (25) 
oracle

>  <origin>  (25) 
autodockgpu

>  <m_score__min__energy>  (25) 
-9.2899999999999991

>  <m_primary>  (25) 
energy

>  <rmsd>  (25) 
6.237076801285441

>  <m_score__min__rmsd>  (25) 
6.237076801285441

>  <meeko>  (25) 
{"free_energy": -8.76, "intermolecular_energy": -10.84, "internal_energy": -1.39, "cluster_size": 1, "cluster_id": 2, "rank_in_cluster": 1}

>  <energy>  (25) 
-6.73

>  <cluster_rmsd>  (25) 
1.81

>  <cluster>  (25) 
8

$$$$

     RDKit          3D

 55 58  0  0  0  0  0  0  0  0999 V2000
  141.9380   78.8390  223.4550 N   0  0  0  0  0  0  0  0  0  0  0  0
  141.7580   80.5610  223.4720 S   0  0  0  0  0  0  0  0  0  0  0  0
  140.4890   80.9360  224.1960 O   0  0  0  0  0  0  0  0  0  0  0  0
  142.9360   81.1630  224.1650 O   0  0  0  0  0  0  0  0  0  0  0  0
  141.7180   81.1000  221.7980 C   0  0  0  0  0  0  0  0  0  0  0  0
  141.4260   82.4060  221.4670 C   0  0  0  0  0  0  0  0  0  0  0  0
  141.4180   82.7280  220.1300 C   0  0  0  0  0  0  0  0  0  0  0  0
  141.6890   81.7930  219.1420 C   0  0  0  0  0  0  0  0  0  0  0  0
  141.9810   80.4910  219.4590 C   0  0  0  0  0  0  0  0  0  0  0  0
  142.2740   79.4500  218.4700 C   0  0  0  0  0  0  0  0  0  0  0  0
  141.5970   78.3470  218.3240 C   0  0  0  0  0  0  0  0  0  0  0  0
  141.6470   77.0880  218.9900 C   0  0  0  0  0  0  0  0  0  0  0  0
  142.9280   76.5320  219.1670 C   0  0  0  0  0  0  0  0  0  0  0  0
  143.1690   75.3220  219.7240 C   0  0  0  0  0  0  0  0  0  0  0  0
  144.4420   74.8540  219.8590 C   0  0  0  0  0  0  0  0  0  0  0  0
  144.6060   73.6070  220.4370 C   0  0  0  0  0  0  0  0  0  0  0  0
  146.2310   72.9870  220.6190 Cl  0  0  0  0  0  0  0  0  0  0  0  0
  143.5500   72.8350  220.8760 C   0  0  0  0  0  0  0  0  0  0  0  0
  142.2700   73.3210  220.7350 C   0  0  0  0  0  0  0  0  0  0  0  0
  142.1100   74.5670  220.1550 C   0  0  0  0  0  0  0  0  0  0  0  0
  140.8620   75.0930  219.9920 C   0  0  0  0  0  0  0  0  0  0  0  0
  139.8890   74.3840  220.3950 O   0  0  0  0  0  0  0  0  0  0  0  0
  140.6290   76.3300  219.4200 N   0  0  0  0  0  0  0  0  0  0  0  0
  139.2440   76.6640  219.3020 C   0  0  0  0  0  0  0  0  0  0  0  0
  138.6280   77.3870  220.4370 C   0  0  0  0  0  0  0  0  0  0  0  0
  138.5100   76.6670  221.7130 C   0  0  0  0  0  0  0  0  0  0  0  0
  139.5220   77.2400  222.7120 C   0  0  0  0  0  0  0  0  0  0  0  0
  138.9960   78.5250  223.1330 N   0  0  0  0  0  0  0  0  0  0  0  0
  138.8880   79.3580  221.9760 C   0  0  0  0  0  0  0  0  0  0  0  0
  139.2770   78.7390  220.6830 C   0  0  0  0  0  0  0  0  0  0  0  0
  141.9880   80.1740  220.8140 C   0  0  0  0  0  0  0  0  0  0  0  0
  142.8280   78.6190  222.9590 H   0  0  0  0  0  0  0  0  0  0  0  0
  141.1630   78.4970  222.8210 H   0  0  0  0  0  0  0  0  0  0  0  0
  141.2087   83.1585  222.2394 H   0  0  0  0  0  0  0  0  0  0  0  0
  141.1889   83.7624  219.8341 H   0  0  0  0  0  0  0  0  0  0  0  0
  141.6694   82.1010  218.0862 H   0  0  0  0  0  0  0  0  0  0  0  0
  143.1310   79.6126  217.7999 H   0  0  0  0  0  0  0  0  0  0  0  0
  140.8370   78.3970  217.5304 H   0  0  0  0  0  0  0  0  0  0  0  0
  143.7931   77.1216  218.8293 H   0  0  0  0  0  0  0  0  0  0  0  0
  145.3062   75.4449  219.5214 H   0  0  0  0  0  0  0  0  0  0  0  0
  143.7279   71.8491  221.3304 H   0  0  0  0  0  0  0  0  0  0  0  0
  141.4012   72.7370  221.0729 H   0  0  0  0  0  0  0  0  0  0  0  0
  139.1294   77.2927  218.4067 H   0  0  0  0  0  0  0  0  0  0  0  0
  138.7198   75.6979  219.2605 H   0  0  0  0  0  0  0  0  0  0  0  0
  137.5943   77.5072  220.0806 H   0  0  0  0  0  0  0  0  0  0  0  0
  137.4916   76.7882  222.1108 H   0  0  0  0  0  0  0  0  0  0  0  0
  138.7136   75.5978  221.5537 H   0  0  0  0  0  0  0  0  0  0  0  0
  139.6249   76.5686  223.5773 H   0  0  0  0  0  0  0  0  0  0  0  0
  140.5176   77.3455  222.2564 H   0  0  0  0  0  0  0  0  0  0  0  0
  139.6160   78.9780  223.8240 H   0  0  0  0  0  0  0  0  0  0  0  0
  137.8398   79.6807  221.8916 H   0  0  0  0  0  0  0  0  0  0  0  0
  139.6031   80.1783  222.1363 H   0  0  0  0  0  0  0  0  0  0  0  0
  138.9836   79.4189  219.8696 H   0  0  0  0  0  0  0  0  0  0  0  0
  140.3640   78.5738  220.7181 H   0  0  0  0  0  0  0  0  0  0  0  0
  142.2188   79.1406  221.1121 H   0  0  0  0  0  0  0  0  0  0  0  0
  1  2  1  0
  2  3  2  0
  2  4  2  0
  2  5  1  0
  5  6  2  0
  6  7  1  0
  7  8  2  0
  8  9  1  0
  9 10  1  0
 10 11  2  0
 11 12  1  0
 12 13  2  0
 13 14  1  0
 14 15  2  0
 15 16  1  0
 16 17  1  0
 16 18  2  0
 18 19  1  0
 19 20  2  0
 20 21  1  0
 21 22  2  0
 21 23  1  0
 23 24  1  0
 24 25  1  0
 25 26  1  0
 26 27  1  0
 27 28  1  0
 28 29  1  0
 29 30  1  0
  9 31  2  0
 31  5  1  0
 23 12  1  0
 30 25  1  0
 20 14  1  0
  1 32  1  0
  1 33  1  0
  6 34  1  0
  7 35  1  0
  8 36  1  0
 10 37  1  0
 11 38  1  0
 13 39  1  0
 15 40  1  0
 18 41  1  0
 19 42  1  0
 24 43  1  0
 24 44  1  0
 25 45  1  0
 26 46  1  0
 26 47  1  0
 27 48  1  0
 27 49  1  0
 28 50  1  0
 29 51  1  0
 29 52  1  0
 30 53  1  0
 30 54  1  0
 31 55  1  0
M  END
>  <smiles>  (26) 
NS(=O)(=O)c1cccc(/C=C/c2cc3cc(Cl)ccc3c(=O)n2CC2CCNCC2)c1

>  <score_type>  (26) 
oracle

>  <origin>  (26) 
autodockgpu

>  <m_score__min__energy>  (26) 
-9.2899999999999991

>  <m_primary>  (26) 
energy

>  <rmsd>  (26) 
7.054012645123312

>  <m_score__min__rmsd>  (26) 
7.054012645123312

>  <meeko>  (26) 
{"free_energy": -6.57, "intermolecular_energy": -8.66, "internal_energy": -3.85, "cluster_size": 2, "cluster_id": 15, "rank_in_cluster": 1}

>  <energy>  (26) 
-6.3

>  <cluster_rmsd>  (26) 
1.92

>  <cluster>  (26) 
8

$$$$

     RDKit          3D

 55 58  0  0  0  0  0  0  0  0999 V2000
  146.7330   69.4060  219.2980 N   0  0  0  0  0  0  0  0  0  0  0  0
  145.0410   69.7440  219.1660 S   0  0  0  0  0  0  0  0  0  0  0  0
  144.5870   69.5420  217.7410 O   0  0  0  0  0  0  0  0  0  0  0  0
  144.2920   68.8240  220.0730 O   0  0  0  0  0  0  0  0  0  0  0  0
  144.7980   71.4080  219.6810 C   0  0  0  0  0  0  0  0  0  0  0  0
  145.8420   72.3080  219.7320 C   0  0  0  0  0  0  0  0  0  0  0  0
  145.5500   73.5850  220.1500 C   0  0  0  0  0  0  0  0  0  0  0  0
  144.2680   73.9710  220.5120 C   0  0  0  0  0  0  0  0  0  0  0  0
  143.2220   73.0850  220.4650 C   0  0  0  0  0  0  0  0  0  0  0  0
  141.8430   73.4200  220.8330 C   0  0  0  0  0  0  0  0  0  0  0  0
  140.8390   72.5920  220.7990 C   0  0  0  0  0  0  0  0  0  0  0  0
  140.2270   71.7760  221.7930 C   0  0  0  0  0  0  0  0  0  0  0  0
  140.7020   71.9400  223.1080 C   0  0  0  0  0  0  0  0  0  0  0  0
  140.2830   71.2150  224.1720 C   0  0  0  0  0  0  0  0  0  0  0  0
  140.7940   71.4370  225.4160 C   0  0  0  0  0  0  0  0  0  0  0  0
  140.3160   70.6530  226.4520 C   0  0  0  0  0  0  0  0  0  0  0  0
  140.9600   70.9200  228.0560 Cl  0  0  0  0  0  0  0  0  0  0  0  0
  139.3580   69.6760  226.2770 C   0  0  0  0  0  0  0  0  0  0  0  0
  138.8490   69.4640  225.0150 C   0  0  0  0  0  0  0  0  0  0  0  0
  139.3310   70.2490  223.9830 C   0  0  0  0  0  0  0  0  0  0  0  0
  138.8590   70.0770  222.7150 C   0  0  0  0  0  0  0  0  0  0  0  0
  137.9770   69.1780  222.5520 O   0  0  0  0  0  0  0  0  0  0  0  0
  139.2950   70.8240  221.6350 N   0  0  0  0  0  0  0  0  0  0  0  0
  138.7050   70.4460  220.3900 C   0  0  0  0  0  0  0  0  0  0  0  0
  139.4020   69.4020  219.6050 C   0  0  0  0  0  0  0  0  0  0  0  0
  139.9600   69.7950  218.3030 C   0  0  0  0  0  0  0  0  0  0  0  0
  141.4890   69.8530  218.4050 C   0  0  0  0  0  0  0  0  0  0  0  0
  141.9480   68.4770  218.4360 N   0  0  0  0  0  0  0  0  0  0  0  0
  141.3800   67.8500  219.5890 C   0  0  0  0  0  0  0  0  0  0  0  0
  140.4730   68.6890  220.4130 C   0  0  0  0  0  0  0  0  0  0  0  0
  143.5260   71.7950  220.0390 C   0  0  0  0  0  0  0  0  0  0  0  0
  147.2010   70.2670  219.6550 H   0  0  0  0  0  0  0  0  0  0  0  0
  147.0610   69.2950  218.2980 H   0  0  0  0  0  0  0  0  0  0  0  0
  146.8646   72.0166  219.4503 H   0  0  0  0  0  0  0  0  0  0  0  0
  146.3614   74.3262  220.1990 H   0  0  0  0  0  0  0  0  0  0  0  0
  144.0871   75.0046  220.8422 H   0  0  0  0  0  0  0  0  0  0  0  0
  141.6412   74.4497  221.1631 H   0  0  0  0  0  0  0  0  0  0  0  0
  140.3712   72.5056  219.8072 H   0  0  0  0  0  0  0  0  0  0  0  0
  141.4668   72.7109  223.2833 H   0  0  0  0  0  0  0  0  0  0  0  0
  141.5572   72.2098  225.5901 H   0  0  0  0  0  0  0  0  0  0  0  0
  139.0069   69.0770  227.1302 H   0  0  0  0  0  0  0  0  0  0  0  0
  138.0837   68.6950  224.8335 H   0  0  0  0  0  0  0  0  0  0  0  0
  137.6897   70.0795  220.6017 H   0  0  0  0  0  0  0  0  0  0  0  0
  138.7509   71.3507  219.7660 H   0  0  0  0  0  0  0  0  0  0  0  0
  138.5716   68.7212  219.3664 H   0  0  0  0  0  0  0  0  0  0  0  0
  139.6701   69.0568  217.5408 H   0  0  0  0  0  0  0  0  0  0  0  0
  139.5714   70.7839  218.0183 H   0  0  0  0  0  0  0  0  0  0  0  0
  141.9093   70.3751  217.5328 H   0  0  0  0  0  0  0  0  0  0  0  0
  141.8091   70.4013  219.3033 H   0  0  0  0  0  0  0  0  0  0  0  0
  142.9780   68.4250  218.4920 H   0  0  0  0  0  0  0  0  0  0  0  0
  140.8087   66.9743  219.2473 H   0  0  0  0  0  0  0  0  0  0  0  0
  142.2317   67.6091  220.2421 H   0  0  0  0  0  0  0  0  0  0  0  0
  139.9779   68.0427  221.1527 H   0  0  0  0  0  0  0  0  0  0  0  0
  141.0923   69.4664  220.8843 H   0  0  0  0  0  0  0  0  0  0  0  0
  142.7155   71.0532  219.9861 H   0  0  0  0  0  0  0  0  0  0  0  0
  1  2  1  0
  2  3  2  0
  2  4  2  0
  2  5  1  0
  5  6  2  0
  6  7  1  0
  7  8  2  0
  8  9  1  0
  9 10  1  0
 10 11  2  0
 11 12  1  0
 12 13  2  0
 13 14  1  0
 14 15  2  0
 15 16  1  0
 16 17  1  0
 16 18  2  0
 18 19  1  0
 19 20  2  0
 20 21  1  0
 21 22  2  0
 21 23  1  0
 23 24  1  0
 24 25  1  0
 25 26  1  0
 26 27  1  0
 27 28  1  0
 28 29  1  0
 29 30  1  0
  9 31  2  0
 31  5  1  0
 23 12  1  0
 30 25  1  0
 20 14  1  0
  1 32  1  0
  1 33  1  0
  6 34  1  0
  7 35  1  0
  8 36  1  0
 10 37  1  0
 11 38  1  0
 13 39  1  0
 15 40  1  0
 18 41  1  0
 19 42  1  0
 24 43  1  0
 24 44  1  0
 25 45  1  0
 26 46  1  0
 26 47  1  0
 27 48  1  0
 27 49  1  0
 28 50  1  0
 29 51  1  0
 29 52  1  0
 30 53  1  0
 30 54  1  0
 31 55  1  0
M  END
>  <smiles>  (27) 
NS(=O)(=O)c1cccc(/C=C/c2cc3cc(Cl)ccc3c(=O)n2CC2CCNCC2)c1

>  <score_type>  (27) 
oracle

>  <origin>  (27) 
autodockgpu

>  <m_score__min__energy>  (27) 
-9.2899999999999991

>  <m_primary>  (27) 
energy

>  <rmsd>  (27) 
10.085667341107214

>  <m_score__min__rmsd>  (27) 
10.085667341107214

>  <meeko>  (27) 
{"free_energy": -6.55, "intermolecular_energy": -8.64, "internal_energy": -3.44, "cluster_size": 1, "cluster_id": 16, "rank_in_cluster": 1}

>  <energy>  (27) 
-7.16

>  <cluster_rmsd>  (27) 
0.0

>  <cluster>  (27) 
9

$$$$

     RDKit          3D

 55 58  0  0  0  0  0  0  0  0999 V2000
  143.2900   82.0310  216.8600 N   0  0  0  0  0  0  0  0  0  0  0  0
  142.2740   80.8420  217.6010 S   0  0  0  0  0  0  0  0  0  0  0  0
  141.0440   80.6210  216.7570 O   0  0  0  0  0  0  0  0  0  0  0  0
  143.0380   79.5650  217.7310 O   0  0  0  0  0  0  0  0  0  0  0  0
  141.8490   81.4410  219.2000 C   0  0  0  0  0  0  0  0  0  0  0  0
  141.2100   82.6520  219.3710 C   0  0  0  0  0  0  0  0  0  0  0  0
  140.9230   83.0330  220.6600 C   0  0  0  0  0  0  0  0  0  0  0  0
  141.2530   82.2480  221.7560 C   0  0  0  0  0  0  0  0  0  0  0  0
  141.8880   81.0420  221.5980 C   0  0  0  0  0  0  0  0  0  0  0  0
  142.2690   80.1620  222.7060 C   0  0  0  0  0  0  0  0  0  0  0  0
  141.4940   79.2670  223.2490 C   0  0  0  0  0  0  0  0  0  0  0  0
  140.1050   78.9810  223.1100 C   0  0  0  0  0  0  0  0  0  0  0  0
  139.2190   79.9880  223.5390 C   0  0  0  0  0  0  0  0  0  0  0  0
  137.8700   79.8750  223.5380 C   0  0  0  0  0  0  0  0  0  0  0  0
  137.0820   80.8990  223.9720 C   0  0  0  0  0  0  0  0  0  0  0  0
  135.7110   80.7060  223.9420 C   0  0  0  0  0  0  0  0  0  0  0  0
  134.6810   82.0070  224.4940 Cl  0  0  0  0  0  0  0  0  0  0  0  0
  135.1240   79.5400  223.4970 C   0  0  0  0  0  0  0  0  0  0  0  0
  135.9330   78.5140  223.0610 C   0  0  0  0  0  0  0  0  0  0  0  0
  137.3020   78.7110  223.0940 C   0  0  0  0  0  0  0  0  0  0  0  0
  138.1460   77.7250  222.6740 C   0  0  0  0  0  0  0  0  0  0  0  0
  137.6080   76.6500  222.2640 O   0  0  0  0  0  0  0  0  0  0  0  0
  139.5230   77.8520  222.6800 N   0  0  0  0  0  0  0  0  0  0  0  0
  140.2170   76.6810  222.2440 C   0  0  0  0  0  0  0  0  0  0  0  0
  140.4350   76.5310  220.7880 C   0  0  0  0  0  0  0  0  0  0  0  0
  139.3940   77.0550  219.8920 C   0  0  0  0  0  0  0  0  0  0  0  0
  139.9110   78.3240  219.2040 C   0  0  0  0  0  0  0  0  0  0  0  0
  140.8640   77.8840  218.2020 N   0  0  0  0  0  0  0  0  0  0  0  0
  141.9230   77.1970  218.8740 C   0  0  0  0  0  0  0  0  0  0  0  0
  141.7880   77.0630  220.3470 C   0  0  0  0  0  0  0  0  0  0  0  0
  142.1740   80.6640  220.2890 C   0  0  0  0  0  0  0  0  0  0  0  0
  143.8920   81.5430  216.1630 H   0  0  0  0  0  0  0  0  0  0  0  0
  143.9420   82.3430  217.6330 H   0  0  0  0  0  0  0  0  0  0  0  0
  140.9418   83.2853  218.5125 H   0  0  0  0  0  0  0  0  0  0  0  0
  140.4141   83.9935  220.8289 H   0  0  0  0  0  0  0  0  0  0  0  0
  141.0014   82.5984  222.7679 H   0  0  0  0  0  0  0  0  0  0  0  0
  143.2870   80.2651  223.1099 H   0  0  0  0  0  0  0  0  0  0  0  0
  142.0140   78.6010  223.9533 H   0  0  0  0  0  0  0  0  0  0  0  0
  139.6532   80.9320  223.9000 H   0  0  0  0  0  0  0  0  0  0  0  0
  137.5183   81.8424  224.3322 H   0  0  0  0  0  0  0  0  0  0  0  0
  134.0294   79.4314  223.4904 H   0  0  0  0  0  0  0  0  0  0  0  0
  135.5043   77.5682  222.6982 H   0  0  0  0  0  0  0  0  0  0  0  0
  141.2044   76.6808  222.7289 H   0  0  0  0  0  0  0  0  0  0  0  0
  139.5628   75.8416  222.5224 H   0  0  0  0  0  0  0  0  0  0  0  0
  140.3875   75.4379  220.6742 H   0  0  0  0  0  0  0  0  0  0  0  0
  139.1484   76.2987  219.1319 H   0  0  0  0  0  0  0  0  0  0  0  0
  138.4914   77.2925  220.4742 H   0  0  0  0  0  0  0  0  0  0  0  0
  139.0798   78.8647  218.7278 H   0  0  0  0  0  0  0  0  0  0  0  0
  140.3782   79.0089  219.9269 H   0  0  0  0  0  0  0  0  0  0  0  0
  141.2550   78.6830  217.6780 H   0  0  0  0  0  0  0  0  0  0  0  0
  141.9883   76.1843  218.4496 H   0  0  0  0  0  0  0  0  0  0  0  0
  142.8202   77.8134  218.7159 H   0  0  0  0  0  0  0  0  0  0  0  0
  142.5665   76.3739  220.7063 H   0  0  0  0  0  0  0  0  0  0  0  0
  141.8926   78.0715  220.7735 H   0  0  0  0  0  0  0  0  0  0  0  0
  142.6814   79.7032  220.1175 H   0  0  0  0  0  0  0  0  0  0  0  0
  1  2  1  0
  2  3  2  0
  2  4  2  0
  2  5  1  0
  5  6  2  0
  6  7  1  0
  7  8  2  0
  8  9  1  0
  9 10  1  0
 10 11  2  0
 11 12  1  0
 12 13  2  0
 13 14  1  0
 14 15  2  0
 15 16  1  0
 16 17  1  0
 16 18  2  0
 18 19  1  0
 19 20  2  0
 20 21  1  0
 21 22  2  0
 21 23  1  0
 23 24  1  0
 24 25  1  0
 25 26  1  0
 26 27  1  0
 27 28  1  0
 28 29  1  0
 29 30  1  0
  9 31  2  0
 31  5  1  0
 23 12  1  0
 30 25  1  0
 20 14  1  0
  1 32  1  0
  1 33  1  0
  6 34  1  0
  7 35  1  0
  8 36  1  0
 10 37  1  0
 11 38  1  0
 13 39  1  0
 15 40  1  0
 18 41  1  0
 19 42  1  0
 24 43  1  0
 24 44  1  0
 25 45  1  0
 26 46  1  0
 26 47  1  0
 27 48  1  0
 27 49  1  0
 28 50  1  0
 29 51  1  0
 29 52  1  0
 30 53  1  0
 30 54  1  0
 31 55  1  0
M  END
>  <smiles>  (28) 
NS(=O)(=O)c1cccc(/C=C/c2cc3cc(Cl)ccc3c(=O)n2CC2CCNCC2)c1

>  <score_type>  (28) 
oracle

>  <origin>  (28) 
autodockgpu

>  <m_score__min__energy>  (28) 
-9.2899999999999991

>  <m_primary>  (28) 
energy

>  <rmsd>  (28) 
3.9653484065173554

>  <m_score__min__rmsd>  (28) 
3.9653484065173554

>  <meeko>  (28) 
{"free_energy": -5.95, "intermolecular_energy": -8.04, "internal_energy": -3.76, "cluster_size": 5, "cluster_id": 17, "rank_in_cluster": 5}

>  <energy>  (28) 
-7.09

>  <cluster_rmsd>  (28) 
0.37

>  <cluster>  (28) 
9

$$$$

     RDKit          3D

 55 58  0  0  0  0  0  0  0  0999 V2000
  144.4830   69.7030  217.5560 N   0  0  0  0  0  0  0  0  0  0  0  0
  145.2130   69.8510  219.1190 S   0  0  0  0  0  0  0  0  0  0  0  0
  144.7920   68.6960  219.9930 O   0  0  0  0  0  0  0  0  0  0  0  0
  146.6980   69.8550  218.9610 O   0  0  0  0  0  0  0  0  0  0  0  0
  144.6870   71.3870  219.7980 C   0  0  0  0  0  0  0  0  0  0  0  0
  145.5860   72.2790  220.3430 C   0  0  0  0  0  0  0  0  0  0  0  0
  145.0770   73.4510  220.8510 C   0  0  0  0  0  0  0  0  0  0  0  0
  143.7200   73.7420  220.8250 C   0  0  0  0  0  0  0  0  0  0  0  0
  142.8170   72.8620  220.2850 C   0  0  0  0  0  0  0  0  0  0  0  0
  141.3730   73.0990  220.2250 C   0  0  0  0  0  0  0  0  0  0  0  0
  140.4590   72.1840  220.3790 C   0  0  0  0  0  0  0  0  0  0  0  0
  140.0180   71.4410  221.5120 C   0  0  0  0  0  0  0  0  0  0  0  0
  140.4910   71.8810  222.7630 C   0  0  0  0  0  0  0  0  0  0  0  0
  140.2270   71.2680  223.9410 C   0  0  0  0  0  0  0  0  0  0  0  0
  140.7250   71.7590  225.1120 C   0  0  0  0  0  0  0  0  0  0  0  0
  140.4120   71.0760  226.2750 C   0  0  0  0  0  0  0  0  0  0  0  0
  141.0410   71.6870  227.7880 Cl  0  0  0  0  0  0  0  0  0  0  0  0
  139.6300   69.9400  226.2940 C   0  0  0  0  0  0  0  0  0  0  0  0
  139.1330   69.4570  225.1040 C   0  0  0  0  0  0  0  0  0  0  0  0
  139.4490   70.1420  223.9440 C   0  0  0  0  0  0  0  0  0  0  0  0
  138.9810   69.7030  222.7400 C   0  0  0  0  0  0  0  0  0  0  0  0
  138.2610   68.6580  222.7560 O   0  0  0  0  0  0  0  0  0  0  0  0
  139.2580   70.3370  221.5430 N   0  0  0  0  0  0  0  0  0  0  0  0
  138.7100   69.6810  220.3970 C   0  0  0  0  0  0  0  0  0  0  0  0
  139.6230   68.8160  219.6170 C   0  0  0  0  0  0  0  0  0  0  0  0
  140.0440   69.2990  218.2930 C   0  0  0  0  0  0  0  0  0  0  0  0
  141.5140   69.7280  218.3550 C   0  0  0  0  0  0  0  0  0  0  0  0
  142.2930   68.5040  218.4020 N   0  0  0  0  0  0  0  0  0  0  0  0
  141.9170   67.7880  219.5810 C   0  0  0  0  0  0  0  0  0  0  0  0
  140.8500   68.4040  220.4110 C   0  0  0  0  0  0  0  0  0  0  0  0
  143.3420   71.6780  219.7730 C   0  0  0  0  0  0  0  0  0  0  0  0
  143.5510   70.1680  217.5960 H   0  0  0  0  0  0  0  0  0  0  0  0
  144.2850   68.6690  217.4520 H   0  0  0  0  0  0  0  0  0  0  0  0
  146.6641   72.0624  220.3703 H   0  0  0  0  0  0  0  0  0  0  0  0
  145.7688   74.1830  221.2931 H   0  0  0  0  0  0  0  0  0  0  0  0
  143.3629   74.6941  221.2444 H   0  0  0  0  0  0  0  0  0  0  0  0
  141.0346   74.1283  220.0354 H   0  0  0  0  0  0  0  0  0  0  0  0
  139.9217   71.9360  219.4518 H   0  0  0  0  0  0  0  0  0  0  0  0
  141.1179   72.7846  222.7848 H   0  0  0  0  0  0  0  0  0  0  0  0
  141.3514   72.6630  225.1317 H   0  0  0  0  0  0  0  0  0  0  0  0
  139.4074   69.4291  227.2424 H   0  0  0  0  0  0  0  0  0  0  0  0
  138.5044   68.5547  225.0765 H   0  0  0  0  0  0  0  0  0  0  0  0
  137.8735   69.0552  220.7414 H   0  0  0  0  0  0  0  0  0  0  0  0
  138.4297   70.4931  219.7100 H   0  0  0  0  0  0  0  0  0  0  0  0
  138.9776   67.9486  219.4145 H   0  0  0  0  0  0  0  0  0  0  0  0
  139.9272   68.4931  217.5535 H   0  0  0  0  0  0  0  0  0  0  0  0
  139.4216   70.1568  217.9983 H   0  0  0  0  0  0  0  0  0  0  0  0
  141.7780   70.3137  217.4621 H   0  0  0  0  0  0  0  0  0  0  0  0
  141.7095   70.3608  219.2333 H   0  0  0  0  0  0  0  0  0  0  0  0
  143.3060   68.7040  218.4330 H   0  0  0  0  0  0  0  0  0  0  0  0
  141.5682   66.7917  219.2715 H   0  0  0  0  0  0  0  0  0  0  0  0
  142.8145   67.7767  220.2169 H   0  0  0  0  0  0  0  0  0  0  0  0
  140.5409   67.6764  221.1759 H   0  0  0  0  0  0  0  0  0  0  0  0
  141.2719   69.3198  220.8505 H   0  0  0  0  0  0  0  0  0  0  0  0
  142.6525   70.9444  219.3298 H   0  0  0  0  0  0  0  0  0  0  0  0
  1  2  1  0
  2  3  2  0
  2  4  2  0
  2  5  1  0
  5  6  2  0
  6  7  1  0
  7  8  2  0
  8  9  1  0
  9 10  1  0
 10 11  2  0
 11 12  1  0
 12 13  2  0
 13 14  1  0
 14 15  2  0
 15 16  1  0
 16 17  1  0
 16 18  2  0
 18 19  1  0
 19 20  2  0
 20 21  1  0
 21 22  2  0
 21 23  1  0
 23 24  1  0
 24 25  1  0
 25 26  1  0
 26 27  1  0
 27 28  1  0
 28 29  1  0
 29 30  1  0
  9 31  2  0
 31  5  1  0
 23 12  1  0
 30 25  1  0
 20 14  1  0
  1 32  1  0
  1 33  1  0
  6 34  1  0
  7 35  1  0
  8 36  1  0
 10 37  1  0
 11 38  1  0
 13 39  1  0
 15 40  1  0
 18 41  1  0
 19 42  1  0
 24 43  1  0
 24 44  1  0
 25 45  1  0
 26 46  1  0
 26 47  1  0
 27 48  1  0
 27 49  1  0
 28 50  1  0
 29 51  1  0
 29 52  1  0
 30 53  1  0
 30 54  1  0
 31 55  1  0
M  END
>  <smiles>  (29) 
NS(=O)(=O)c1cccc(/C=C/c2cc3cc(Cl)ccc3c(=O)n2CC2CCNCC2)c1

>  <score_type>  (29) 
oracle

>  <origin>  (29) 
autodockgpu

>  <m_score__min__energy>  (29) 
-9.2899999999999991

>  <m_primary>  (29) 
energy

>  <rmsd>  (29) 
10.192491306450426

>  <m_score__min__rmsd>  (29) 
10.192491306450426

>  <meeko>  (29) 
{"free_energy": -6.3, "intermolecular_energy": -8.39, "internal_energy": -4.39, "cluster_size": 6, "cluster_id": 8, "rank_in_cluster": 6}

>  <energy>  (29) 
-6.34

>  <cluster_rmsd>  (29) 
0.74

>  <cluster>  (29) 
9

$$$$

     RDKit          3D

 55 58  0  0  0  0  0  0  0  0999 V2000
  140.2670   74.5180  219.6640 N   0  0  0  0  0  0  0  0  0  0  0  0
  141.0740   74.9490  221.1330 S   0  0  0  0  0  0  0  0  0  0  0  0
  140.2860   74.4500  222.3170 O   0  0  0  0  0  0  0  0  0  0  0  0
  142.4370   74.3370  221.1330 O   0  0  0  0  0  0  0  0  0  0  0  0
  141.2160   76.7030  221.1560 C   0  0  0  0  0  0  0  0  0  0  0  0
  141.7400   77.3980  220.0860 C   0  0  0  0  0  0  0  0  0  0  0  0
  141.8110   78.7670  220.2020 C   0  0  0  0  0  0  0  0  0  0  0  0
  141.3800   79.4370  221.3380 C   0  0  0  0  0  0  0  0  0  0  0  0
  140.8570   78.7560  222.4070 C   0  0  0  0  0  0  0  0  0  0  0  0
  140.3840   79.3950  223.6380 C   0  0  0  0  0  0  0  0  0  0  0  0
  139.6020   80.4350  223.6870 C   0  0  0  0  0  0  0  0  0  0  0  0
  138.2300   80.5950  224.0400 C   0  0  0  0  0  0  0  0  0  0  0  0
  137.9770   81.0590  225.3450 C   0  0  0  0  0  0  0  0  0  0  0  0
  136.7420   81.2180  225.8760 C   0  0  0  0  0  0  0  0  0  0  0  0
  136.5820   81.6730  227.1510 C   0  0  0  0  0  0  0  0  0  0  0  0
  135.2870   81.8070  227.6230 C   0  0  0  0  0  0  0  0  0  0  0  0
  135.0590   82.3890  229.2570 Cl  0  0  0  0  0  0  0  0  0  0  0  0
  134.1740   81.5050  226.8670 C   0  0  0  0  0  0  0  0  0  0  0  0
  134.3510   81.0470  225.5800 C   0  0  0  0  0  0  0  0  0  0  0  0
  135.6460   80.9130  225.1130 C   0  0  0  0  0  0  0  0  0  0  0  0
  135.8750   80.4630  223.8450 C   0  0  0  0  0  0  0  0  0  0  0  0
  134.8520   80.1840  223.1470 O   0  0  0  0  0  0  0  0  0  0  0  0
  137.1420   80.3050  223.3130 N   0  0  0  0  0  0  0  0  0  0  0  0
  137.1530   79.7740  221.9860 C   0  0  0  0  0  0  0  0  0  0  0  0
  136.8420   78.3340  221.8360 C   0  0  0  0  0  0  0  0  0  0  0  0
  136.8750   77.7750  220.4760 C   0  0  0  0  0  0  0  0  0  0  0  0
  138.1120   76.8820  220.3260 C   0  0  0  0  0  0  0  0  0  0  0  0
  137.8260   75.6640  221.0600 N   0  0  0  0  0  0  0  0  0  0  0  0
  137.6090   76.0140  222.4290 C   0  0  0  0  0  0  0  0  0  0  0  0
  137.6800   77.4620  222.7550 C   0  0  0  0  0  0  0  0  0  0  0  0
  140.7880   77.3710  222.2810 C   0  0  0  0  0  0  0  0  0  0  0  0
  140.8050   74.9320  218.8730 H   0  0  0  0  0  0  0  0  0  0  0  0
  139.3520   75.0470  219.6970 H   0  0  0  0  0  0  0  0  0  0  0  0
  142.0861   76.8802  219.1793 H   0  0  0  0  0  0  0  0  0  0  0  0
  142.2235   79.3503  219.3656 H   0  0  0  0  0  0  0  0  0  0  0  0
  141.4593   80.5333  221.3818 H   0  0  0  0  0  0  0  0  0  0  0  0
  140.7149   78.9630  224.5939 H   0  0  0  0  0  0  0  0  0  0  0  0
  140.0971   81.3743  223.3997 H   0  0  0  0  0  0  0  0  0  0  0  0
  138.8422   81.3095  225.9764 H   0  0  0  0  0  0  0  0  0  0  0  0
  137.4483   81.9241  227.7807 H   0  0  0  0  0  0  0  0  0  0  0  0
  133.1635   81.6276  227.2840 H   0  0  0  0  0  0  0  0  0  0  0  0
  133.4896   80.7957  224.9437 H   0  0  0  0  0  0  0  0  0  0  0  0
  136.4133   80.3364  221.3973 H   0  0  0  0  0  0  0  0  0  0  0  0
  138.1935   79.8788  221.6448 H   0  0  0  0  0  0  0  0  0  0  0  0
  135.7826   78.3093  222.1310 H   0  0  0  0  0  0  0  0  0  0  0  0
  135.9675   77.1783  220.3017 H   0  0  0  0  0  0  0  0  0  0  0  0
  136.9195   78.5931  219.7420 H   0  0  0  0  0  0  0  0  0  0  0  0
  138.2909   76.6542  219.2648 H   0  0  0  0  0  0  0  0  0  0  0  0
  139.0136   77.3795  220.7127 H   0  0  0  0  0  0  0  0  0  0  0  0
  138.6100   74.9950  220.9990 H   0  0  0  0  0  0  0  0  0  0  0  0
  136.6088   75.6547  222.7128 H   0  0  0  0  0  0  0  0  0  0  0  0
  138.4334   75.5458  222.9868 H   0  0  0  0  0  0  0  0  0  0  0  0
  137.3263   77.6039  223.7869 H   0  0  0  0  0  0  0  0  0  0  0  0
  138.7278   77.7708  222.6257 H   0  0  0  0  0  0  0  0  0  0  0  0
  140.3741   76.7860  223.1155 H   0  0  0  0  0  0  0  0  0  0  0  0
  1  2  1  0
  2  3  2  0
  2  4  2  0
  2  5  1  0
  5  6  2  0
  6  7  1  0
  7  8  2  0
  8  9  1  0
  9 10  1  0
 10 11  2  0
 11 12  1  0
 12 13  2  0
 13 14  1  0
 14 15  2  0
 15 16  1  0
 16 17  1  0
 16 18  2  0
 18 19  1  0
 19 20  2  0
 20 21  1  0
 21 22  2  0
 21 23  1  0
 23 24  1  0
 24 25  1  0
 25 26  1  0
 26 27  1  0
 27 28  1  0
 28 29  1  0
 29 30  1  0
  9 31  2  0
 31  5  1  0
 23 12  1  0
 30 25  1  0
 20 14  1  0
  1 32  1  0
  1 33  1  0
  6 34  1  0
  7 35  1  0
  8 36  1  0
 10 37  1  0
 11 38  1  0
 13 39  1  0
 15 40  1  0
 18 41  1  0
 19 42  1  0
 24 43  1  0
 24 44  1  0
 25 45  1  0
 26 46  1  0
 26 47  1  0
 27 48  1  0
 27 49  1  0
 28 50  1  0
 29 51  1  0
 29 52  1  0
 30 53  1  0
 30 54  1  0
 31 55  1  0
M  END
>  <smiles>  (30) 
NS(=O)(=O)c1cccc(/C=C/c2cc3cc(Cl)ccc3c(=O)n2CC2CCNCC2)c1

>  <score_type>  (30) 
oracle

>  <origin>  (30) 
autodockgpu

>  <m_score__min__energy>  (30) 
-9.2899999999999991

>  <m_primary>  (30) 
energy

>  <rmsd>  (30) 
6.031229270823191

>  <m_score__min__rmsd>  (30) 
6.031229270823191

>  <meeko>  (30) 
{"free_energy": -6.26, "intermolecular_energy": -8.35, "internal_energy": -4.09, "cluster_size": 2, "cluster_id": 14, "rank_in_cluster": 2}

>  <energy>  (30) 
-7.07

>  <cluster_rmsd>  (30) 
0.0

>  <cluster>  (30) 
10

$$$$

     RDKit          3D

 55 58  0  0  0  0  0  0  0  0999 V2000
  145.9700   73.3740  218.6180 N   0  0  0  0  0  0  0  0  0  0  0  0
  145.1080   72.9060  220.0440 S   0  0  0  0  0  0  0  0  0  0  0  0
  144.6380   71.4790  219.9140 O   0  0  0  0  0  0  0  0  0  0  0  0
  146.0150   73.0380  221.2230 O   0  0  0  0  0  0  0  0  0  0  0  0
  143.7480   74.0090  220.2190 C   0  0  0  0  0  0  0  0  0  0  0  0
  143.7950   75.2950  219.7230 C   0  0  0  0  0  0  0  0  0  0  0  0
  142.6830   76.0810  219.9120 C   0  0  0  0  0  0  0  0  0  0  0  0
  141.5530   75.6190  220.5710 C   0  0  0  0  0  0  0  0  0  0  0  0
  141.4950   74.3420  221.0680 C   0  0  0  0  0  0  0  0  0  0  0  0
  140.3390   73.7860  221.7760 C   0  0  0  0  0  0  0  0  0  0  0  0
  139.7860   72.6370  221.5160 C   0  0  0  0  0  0  0  0  0  0  0  0
  139.5570   71.4740  222.3080 C   0  0  0  0  0  0  0  0  0  0  0  0
  139.9770   71.5460  223.6500 C   0  0  0  0  0  0  0  0  0  0  0  0
  139.8950   70.5260  224.5350 C   0  0  0  0  0  0  0  0  0  0  0  0
  140.3250   70.6770  225.8200 C   0  0  0  0  0  0  0  0  0  0  0  0
  140.2100   69.5870  226.6650 C   0  0  0  0  0  0  0  0  0  0  0  0
  140.7550   69.7590  228.3170 Cl  0  0  0  0  0  0  0  0  0  0  0  0
  139.6850   68.3760  226.2640 C   0  0  0  0  0  0  0  0  0  0  0  0
  139.2540   68.2370  224.9640 C   0  0  0  0  0  0  0  0  0  0  0  0
  139.3720   69.3290  224.1230 C   0  0  0  0  0  0  0  0  0  0  0  0
  138.9590   69.2430  222.8250 C   0  0  0  0  0  0  0  0  0  0  0  0
  138.4760   68.1290  222.4540 O   0  0  0  0  0  0  0  0  0  0  0  0
  139.0480   70.2930  221.9290 N   0  0  0  0  0  0  0  0  0  0  0  0
  138.6050   69.9700  220.6090 C   0  0  0  0  0  0  0  0  0  0  0  0
  139.6500   69.7450  219.5860 C   0  0  0  0  0  0  0  0  0  0  0  0
  139.7700   70.7420  218.5120 C   0  0  0  0  0  0  0  0  0  0  0  0
  141.0440   71.5670  218.7280 C   0  0  0  0  0  0  0  0  0  0  0  0
  142.1530   70.7080  218.3570 N   0  0  0  0  0  0  0  0  0  0  0  0
  142.1310   69.5650  219.2160 C   0  0  0  0  0  0  0  0  0  0  0  0
  141.0190   69.5040  220.1990 C   0  0  0  0  0  0  0  0  0  0  0  0
  142.6250   73.5530  220.8720 C   0  0  0  0  0  0  0  0  0  0  0  0
  146.8590   73.8280  218.9200 H   0  0  0  0  0  0  0  0  0  0  0  0
  145.3840   74.1440  218.1930 H   0  0  0  0  0  0  0  0  0  0  0  0
  144.6840   75.6755  219.1987 H   0  0  0  0  0  0  0  0  0  0  0  0
  142.6895   77.1116  219.5275 H   0  0  0  0  0  0  0  0  0  0  0  0
  140.6890   76.2881  220.6970 H   0  0  0  0  0  0  0  0  0  0  0  0
  139.9053   74.3858  222.5897 H   0  0  0  0  0  0  0  0  0  0  0  0
  139.4240   72.5451  220.4814 H   0  0  0  0  0  0  0  0  0  0  0  0
  140.4012   72.4974  224.0033 H   0  0  0  0  0  0  0  0  0  0  0  0
  140.7475   71.6297  226.1720 H   0  0  0  0  0  0  0  0  0  0  0  0
  139.6120   67.5361  226.9706 H   0  0  0  0  0  0  0  0  0  0  0  0
  138.8293   67.2878  224.6054 H   0  0  0  0  0  0  0  0  0  0  0  0
  138.0033   69.0516  220.6763 H   0  0  0  0  0  0  0  0  0  0  0  0
  138.0564   70.8597  220.2661 H   0  0  0  0  0  0  0  0  0  0  0  0
  139.2757   68.8359  219.0926 H   0  0  0  0  0  0  0  0  0  0  0  0
  139.8238   70.2303  217.5397 H   0  0  0  0  0  0  0  0  0  0  0  0
  138.8935   71.4064  218.5258 H   0  0  0  0  0  0  0  0  0  0  0  0
  141.0286   72.4649  218.0928 H   0  0  0  0  0  0  0  0  0  0  0  0
  141.1305   71.9033  219.7718 H   0  0  0  0  0  0  0  0  0  0  0  0
  143.0570   71.1960  218.4620 H   0  0  0  0  0  0  0  0  0  0  0  0
  142.0669   68.6692  218.5809 H   0  0  0  0  0  0  0  0  0  0  0  0
  143.0507   69.6302  219.8160 H   0  0  0  0  0  0  0  0  0  0  0  0
  141.0208   68.5073  220.6644 H   0  0  0  0  0  0  0  0  0  0  0  0
  141.1907   70.3080  220.9299 H   0  0  0  0  0  0  0  0  0  0  0  0
  142.6205   72.5218  221.2550 H   0  0  0  0  0  0  0  0  0  0  0  0
  1  2  1  0
  2  3  2  0
  2  4  2  0
  2  5  1  0
  5  6  2  0
  6  7  1  0
  7  8  2  0
  8  9  1  0
  9 10  1  0
 10 11  2  0
 11 12  1  0
 12 13  2  0
 13 14  1  0
 14 15  2  0
 15 16  1  0
 16 17  1  0
 16 18  2  0
 18 19  1  0
 19 20  2  0
 20 21  1  0
 21 22  2  0
 21 23  1  0
 23 24  1  0
 24 25  1  0
 25 26  1  0
 26 27  1  0
 27 28  1  0
 28 29  1  0
 29 30  1  0
  9 31  2  0
 31  5  1  0
 23 12  1  0
 30 25  1  0
 20 14  1  0
  1 32  1  0
  1 33  1  0
  6 34  1  0
  7 35  1  0
  8 36  1  0
 10 37  1  0
 11 38  1  0
 13 39  1  0
 15 40  1  0
 18 41  1  0
 19 42  1  0
 24 43  1  0
 24 44  1  0
 25 45  1  0
 26 46  1  0
 26 47  1  0
 27 48  1  0
 27 49  1  0
 28 50  1  0
 29 51  1  0
 29 52  1  0
 30 53  1  0
 30 54  1  0
 31 55  1  0
M  END
>  <smiles>  (31) 
NS(=O)(=O)c1cccc(/C=C/c2cc3cc(Cl)ccc3c(=O)n2CC2CCNCC2)c1

>  <score_type>  (31) 
oracle

>  <origin>  (31) 
autodockgpu

>  <m_score__min__energy>  (31) 
-9.2899999999999991

>  <m_primary>  (31) 
energy

>  <rmsd>  (31) 
10.437809096363962

>  <m_score__min__rmsd>  (31) 
10.437809096363962

>  <meeko>  (31) 
{"free_energy": -7.83, "intermolecular_energy": -9.91, "internal_energy": -2.73, "cluster_size": 5, "cluster_id": 4, "rank_in_cluster": 3}

>  <energy>  (31) 
-7.03

>  <cluster_rmsd>  (31) 
0.0

>  <cluster>  (31) 
11

$$$$

     RDKit          3D

 55 58  0  0  0  0  0  0  0  0999 V2000
  143.1990   80.7480  217.5510 N   0  0  0  0  0  0  0  0  0  0  0  0
  141.7780   81.6950  217.8340 S   0  0  0  0  0  0  0  0  0  0  0  0
  141.9040   83.0270  217.1380 O   0  0  0  0  0  0  0  0  0  0  0  0
  140.5910   80.9560  217.3090 O   0  0  0  0  0  0  0  0  0  0  0  0
  141.6240   81.8990  219.5750 C   0  0  0  0  0  0  0  0  0  0  0  0
  141.0810   83.0430  220.1220 C   0  0  0  0  0  0  0  0  0  0  0  0
  141.0060   83.1080  221.4930 C   0  0  0  0  0  0  0  0  0  0  0  0
  141.4530   82.0780  222.3090 C   0  0  0  0  0  0  0  0  0  0  0  0
  141.9950   80.9370  221.7760 C   0  0  0  0  0  0  0  0  0  0  0  0
  142.4890   79.8110  222.5740 C   0  0  0  0  0  0  0  0  0  0  0  0
  141.7410   78.8910  223.1110 C   0  0  0  0  0  0  0  0  0  0  0  0
  140.3710   78.5390  222.9390 C   0  0  0  0  0  0  0  0  0  0  0  0
  139.4290   79.4300  223.4860 C   0  0  0  0  0  0  0  0  0  0  0  0
  138.0890   79.2360  223.4710 C   0  0  0  0  0  0  0  0  0  0  0  0
  137.2420   80.1490  224.0250 C   0  0  0  0  0  0  0  0  0  0  0  0
  135.8860   79.8780  223.9720 C   0  0  0  0  0  0  0  0  0  0  0  0
  134.7820   81.0370  224.6760 Cl  0  0  0  0  0  0  0  0  0  0  0  0
  135.3680   78.7400  223.3890 C   0  0  0  0  0  0  0  0  0  0  0  0
  136.2350   77.8260  222.8330 C   0  0  0  0  0  0  0  0  0  0  0  0
  137.5900   78.1010  222.8890 C   0  0  0  0  0  0  0  0  0  0  0  0
  138.4900   77.2270  222.3530 C   0  0  0  0  0  0  0  0  0  0  0  0
  138.0150   76.1790  221.8170 O   0  0  0  0  0  0  0  0  0  0  0  0
  139.8570   77.4370  222.3750 N   0  0  0  0  0  0  0  0  0  0  0  0
  140.6180   76.3720  221.8010 C   0  0  0  0  0  0  0  0  0  0  0  0
  140.9810   76.4990  220.3720 C   0  0  0  0  0  0  0  0  0  0  0  0
  139.9630   77.0430  219.4620 C   0  0  0  0  0  0  0  0  0  0  0  0
  140.3650   78.4620  219.0440 C   0  0  0  0  0  0  0  0  0  0  0  0
  141.4540   78.3150  218.0960 N   0  0  0  0  0  0  0  0  0  0  0  0
  142.5310   77.6510  218.7620 C   0  0  0  0  0  0  0  0  0  0  0  0
  142.2850   77.2530  220.1720 C   0  0  0  0  0  0  0  0  0  0  0  0
  142.0660   80.8790  220.3870 C   0  0  0  0  0  0  0  0  0  0  0  0
  143.6940   81.1570  216.7300 H   0  0  0  0  0  0  0  0  0  0  0  0
  142.8330   79.8090  217.2270 H   0  0  0  0  0  0  0  0  0  0  0  0
  140.7233   83.8679  219.4882 H   0  0  0  0  0  0  0  0  0  0  0  0
  140.5770   84.0071  221.9594 H   0  0  0  0  0  0  0  0  0  0  0  0
  141.3711   82.1788  223.4013 H   0  0  0  0  0  0  0  0  0  0  0  0
  143.5753   79.7379  222.7311 H   0  0  0  0  0  0  0  0  0  0  0  0
  142.2706   78.2614  223.8412 H   0  0  0  0  0  0  0  0  0  0  0  0
  139.8077   80.3482  223.9588 H   0  0  0  0  0  0  0  0  0  0  0  0
  137.6222   81.0671  224.4967 H   0  0  0  0  0  0  0  0  0  0  0  0
  134.2821   78.5659  223.3687 H   0  0  0  0  0  0  0  0  0  0  0  0
  135.8621   76.9060  222.3591 H   0  0  0  0  0  0  0  0  0  0  0  0
  141.5528   76.2859  222.3743 H   0  0  0  0  0  0  0  0  0  0  0  0
  139.9600   75.4919  221.8511 H   0  0  0  0  0  0  0  0  0  0  0  0
  141.0888   75.4436  220.0814 H   0  0  0  0  0  0  0  0  0  0  0  0
  139.8884   76.4041  218.5697 H   0  0  0  0  0  0  0  0  0  0  0  0
  138.9889   77.0707  219.9724 H   0  0  0  0  0  0  0  0  0  0  0  0
  139.5147   78.9748  218.5706 H   0  0  0  0  0  0  0  0  0  0  0  0
  140.6704   79.0631  219.9132 H   0  0  0  0  0  0  0  0  0  0  0  0
  141.7790   79.2320  217.7510 H   0  0  0  0  0  0  0  0  0  0  0  0
  142.7669   76.7400  218.1925 H   0  0  0  0  0  0  0  0  0  0  0  0
  143.3493   78.3850  218.8020 H   0  0  0  0  0  0  0  0  0  0  0  0
  143.1135   76.6086  220.5011 H   0  0  0  0  0  0  0  0  0  0  0  0
  142.2161   78.1791  220.7615 H   0  0  0  0  0  0  0  0  0  0  0  0
  142.4933   79.9802  219.9184 H   0  0  0  0  0  0  0  0  0  0  0  0
  1  2  1  0
  2  3  2  0
  2  4  2  0
  2  5  1  0
  5  6  2  0
  6  7  1  0
  7  8  2  0
  8  9  1  0
  9 10  1  0
 10 11  2  0
 11 12  1  0
 12 13  2  0
 13 14  1  0
 14 15  2  0
 15 16  1  0
 16 17  1  0
 16 18  2  0
 18 19  1  0
 19 20  2  0
 20 21  1  0
 21 22  2  0
 21 23  1  0
 23 24  1  0
 24 25  1  0
 25 26  1  0
 26 27  1  0
 27 28  1  0
 28 29  1  0
 29 30  1  0
  9 31  2  0
 31  5  1  0
 23 12  1  0
 30 25  1  0
 20 14  1  0
  1 32  1  0
  1 33  1  0
  6 34  1  0
  7 35  1  0
  8 36  1  0
 10 37  1  0
 11 38  1  0
 13 39  1  0
 15 40  1  0
 18 41  1  0
 19 42  1  0
 24 43  1  0
 24 44  1  0
 25 45  1  0
 26 46  1  0
 26 47  1  0
 27 48  1  0
 27 49  1  0
 28 50  1  0
 29 51  1  0
 29 52  1  0
 30 53  1  0
 30 54  1  0
 31 55  1  0
M  END
>  <smiles>  (32) 
NS(=O)(=O)c1cccc(/C=C/c2cc3cc(Cl)ccc3c(=O)n2CC2CCNCC2)c1

>  <score_type>  (32) 
oracle

>  <origin>  (32) 
autodockgpu

>  <m_score__min__energy>  (32) 
-9.2899999999999991

>  <m_primary>  (32) 
energy

>  <rmsd>  (32) 
3.971939221525004

>  <m_score__min__rmsd>  (32) 
3.971939221525004

>  <meeko>  (32) 
{"free_energy": -6.09, "intermolecular_energy": -8.18, "internal_energy": -4.32, "cluster_size": 5, "cluster_id": 17, "rank_in_cluster": 3}

>  <energy>  (32) 
-6.8

>  <cluster_rmsd>  (32) 
0.0

>  <cluster>  (32) 
12

$$$$

     RDKit          3D

 55 58  0  0  0  0  0  0  0  0999 V2000
  138.7450   80.2210  222.3570 N   0  0  0  0  0  0  0  0  0  0  0  0
  140.3450   79.7650  222.8340 S   0  0  0  0  0  0  0  0  0  0  0  0
  141.2110   80.9930  222.9630 O   0  0  0  0  0  0  0  0  0  0  0  0
  140.2740   79.0520  224.1450 O   0  0  0  0  0  0  0  0  0  0  0  0
  140.9670   78.6740  221.6020 C   0  0  0  0  0  0  0  0  0  0  0  0
  141.4170   79.1420  220.3850 C   0  0  0  0  0  0  0  0  0  0  0  0
  141.8820   78.2090  219.4880 C   0  0  0  0  0  0  0  0  0  0  0  0
  141.9040   76.8520  219.7750 C   0  0  0  0  0  0  0  0  0  0  0  0
  141.4590   76.3750  220.9810 C   0  0  0  0  0  0  0  0  0  0  0  0
  141.4500   74.9580  221.3530 C   0  0  0  0  0  0  0  0  0  0  0  0
  140.5120   74.1100  221.0410 C   0  0  0  0  0  0  0  0  0  0  0  0
  139.6640   73.2760  221.8260 C   0  0  0  0  0  0  0  0  0  0  0  0
  140.3080   72.4420  222.7590 C   0  0  0  0  0  0  0  0  0  0  0  0
  139.6750   71.5440  223.5500 C   0  0  0  0  0  0  0  0  0  0  0  0
  140.3730   70.7710  224.4290 C   0  0  0  0  0  0  0  0  0  0  0  0
  139.6540   69.8740  225.2020 C   0  0  0  0  0  0  0  0  0  0  0  0
  140.5300   68.8730  226.3370 Cl  0  0  0  0  0  0  0  0  0  0  0  0
  138.2840   69.7380  225.1190 C   0  0  0  0  0  0  0  0  0  0  0  0
  137.5920   70.5270  224.2270 C   0  0  0  0  0  0  0  0  0  0  0  0
  138.3140   71.4200  223.4560 C   0  0  0  0  0  0  0  0  0  0  0  0
  137.6750   72.2220  222.5580 C   0  0  0  0  0  0  0  0  0  0  0  0
  136.4140   72.0980  222.4790 O   0  0  0  0  0  0  0  0  0  0  0  0
  138.3330   73.1360  221.7540 N   0  0  0  0  0  0  0  0  0  0  0  0
  137.4760   73.8380  220.8500 C   0  0  0  0  0  0  0  0  0  0  0  0
  137.0860   75.2150  221.2260 C   0  0  0  0  0  0  0  0  0  0  0  0
  136.9960   75.5240  222.6610 C   0  0  0  0  0  0  0  0  0  0  0  0
  138.1740   76.4190  223.0610 C   0  0  0  0  0  0  0  0  0  0  0  0
  137.8810   77.7380  222.5320 N   0  0  0  0  0  0  0  0  0  0  0  0
  137.7780   77.6300  221.1100 C   0  0  0  0  0  0  0  0  0  0  0  0
  137.9430   76.2660  220.5420 C   0  0  0  0  0  0  0  0  0  0  0  0
  140.9910   77.3260  221.8840 C   0  0  0  0  0  0  0  0  0  0  0  0
  138.0840   79.8620  223.0790 H   0  0  0  0  0  0  0  0  0  0  0  0
  138.5540   79.6530  221.4860 H   0  0  0  0  0  0  0  0  0  0  0  0
  141.4045   80.2149  220.1425 H   0  0  0  0  0  0  0  0  0  0  0  0
  142.2492   78.5506  218.5090 H   0  0  0  0  0  0  0  0  0  0  0  0
  142.2850   76.1464  219.0220 H   0  0  0  0  0  0  0  0  0  0  0  0
  142.3003   74.5816  221.9406 H   0  0  0  0  0  0  0  0  0  0  0  0
  140.3405   74.0198  219.9582 H   0  0  0  0  0  0  0  0  0  0  0  0
  141.4009   72.5256  222.8519 H   0  0  0  0  0  0  0  0  0  0  0  0
  141.4658   70.8561  224.5212 H   0  0  0  0  0  0  0  0  0  0  0  0
  137.7537   69.0127  225.7536 H   0  0  0  0  0  0  0  0  0  0  0  0
  136.4990   70.4494  224.1308 H   0  0  0  0  0  0  0  0  0  0  0  0
  137.9908   73.8923  219.8794 H   0  0  0  0  0  0  0  0  0  0  0  0
  136.5362   73.2663  220.8454 H   0  0  0  0  0  0  0  0  0  0  0  0
  136.0497   75.2535  220.8592 H   0  0  0  0  0  0  0  0  0  0  0  0
  136.0505   76.0477  222.8655 H   0  0  0  0  0  0  0  0  0  0  0  0
  137.0286   74.5904  223.2418 H   0  0  0  0  0  0  0  0  0  0  0  0
  138.2666   76.4598  224.1563 H   0  0  0  0  0  0  0  0  0  0  0  0
  139.1238   76.0310  222.6644 H   0  0  0  0  0  0  0  0  0  0  0  0
  138.6250   78.4130  222.7700 H   0  0  0  0  0  0  0  0  0  0  0  0
  136.7837   77.9978  220.8166 H   0  0  0  0  0  0  0  0  0  0  0  0
  138.6153   78.2196  220.7084 H   0  0  0  0  0  0  0  0  0  0  0  0
  137.6705   76.2975  219.4768 H   0  0  0  0  0  0  0  0  0  0  0  0
  138.9930   75.9769  220.6968 H   0  0  0  0  0  0  0  0  0  0  0  0
  140.6249   76.9863  222.8641 H   0  0  0  0  0  0  0  0  0  0  0  0
  1  2  1  0
  2  3  2  0
  2  4  2  0
  2  5  1  0
  5  6  2  0
  6  7  1  0
  7  8  2  0
  8  9  1  0
  9 10  1  0
 10 11  2  0
 11 12  1  0
 12 13  2  0
 13 14  1  0
 14 15  2  0
 15 16  1  0
 16 17  1  0
 16 18  2  0
 18 19  1  0
 19 20  2  0
 20 21  1  0
 21 22  2  0
 21 23  1  0
 23 24  1  0
 24 25  1  0
 25 26  1  0
 26 27  1  0
 27 28  1  0
 28 29  1  0
 29 30  1  0
  9 31  2  0
 31  5  1  0
 23 12  1  0
 30 25  1  0
 20 14  1  0
  1 32  1  0
  1 33  1  0
  6 34  1  0
  7 35  1  0
  8 36  1  0
 10 37  1  0
 11 38  1  0
 13 39  1  0
 15 40  1  0
 18 41  1  0
 19 42  1  0
 24 43  1  0
 24 44  1  0
 25 45  1  0
 26 46  1  0
 26 47  1  0
 27 48  1  0
 27 49  1  0
 28 50  1  0
 29 51  1  0
 29 52  1  0
 30 53  1  0
 30 54  1  0
 31 55  1  0
M  END
>  <smiles>  (33) 
NS(=O)(=O)c1cccc(/C=C/c2cc3cc(Cl)ccc3c(=O)n2CC2CCNCC2)c1

>  <score_type>  (33) 
oracle

>  <origin>  (33) 
autodockgpu

>  <m_score__min__energy>  (33) 
-9.2899999999999991

>  <m_primary>  (33) 
energy

>  <rmsd>  (33) 
9.39366272178886

>  <m_score__min__rmsd>  (33) 
9.39366272178886

>  <meeko>  (33) 
{"free_energy": -5.6, "intermolecular_energy": -7.69, "internal_energy": -4.35, "cluster_size": 1, "cluster_id": 21, "rank_in_cluster": 1}

>  <energy>  (33) 
-6.76

>  <cluster_rmsd>  (33) 
0.0

>  <cluster>  (33) 
13

$$$$

     RDKit          3D

 55 58  0  0  0  0  0  0  0  0999 V2000
  141.4440   82.6030  222.3140 N   0  0  0  0  0  0  0  0  0  0  0  0
  140.6380   83.2500  220.9260 S   0  0  0  0  0  0  0  0  0  0  0  0
  139.1450   83.1150  221.0910 O   0  0  0  0  0  0  0  0  0  0  0  0
  141.0050   84.6910  220.7820 O   0  0  0  0  0  0  0  0  0  0  0  0
  141.2080   82.3530  219.5240 C   0  0  0  0  0  0  0  0  0  0  0  0
  141.5600   82.9910  218.3530 C   0  0  0  0  0  0  0  0  0  0  0  0
  141.9910   82.2010  217.3140 C   0  0  0  0  0  0  0  0  0  0  0  0
  142.0740   80.8200  217.4180 C   0  0  0  0  0  0  0  0  0  0  0  0
  141.7270   80.1750  218.5780 C   0  0  0  0  0  0  0  0  0  0  0  0
  141.7870   78.7220  218.7600 C   0  0  0  0  0  0  0  0  0  0  0  0
  142.1580   78.1220  219.8550 C   0  0  0  0  0  0  0  0  0  0  0  0
  142.0720   76.7670  220.2890 C   0  0  0  0  0  0  0  0  0  0  0  0
  143.1150   75.9170  219.8770 C   0  0  0  0  0  0  0  0  0  0  0  0
  143.1750   74.5910  220.1440 C   0  0  0  0  0  0  0  0  0  0  0  0
  144.2220   73.8350  219.7070 C   0  0  0  0  0  0  0  0  0  0  0  0
  144.2100   72.4860  220.0190 C   0  0  0  0  0  0  0  0  0  0  0  0
  145.5440   71.4980  219.4680 Cl  0  0  0  0  0  0  0  0  0  0  0  0
  143.1990   71.8890  220.7420 C   0  0  0  0  0  0  0  0  0  0  0  0
  142.1470   72.6650  221.1780 C   0  0  0  0  0  0  0  0  0  0  0  0
  142.1630   74.0120  220.8630 C   0  0  0  0  0  0  0  0  0  0  0  0
  141.1450   74.8230  221.2710 C   0  0  0  0  0  0  0  0  0  0  0  0
  140.2120   74.2750  221.9370 O   0  0  0  0  0  0  0  0  0  0  0  0
  141.0940   76.1760  220.9920 N   0  0  0  0  0  0  0  0  0  0  0  0
  139.9150   76.8260  221.4710 C   0  0  0  0  0  0  0  0  0  0  0  0
  140.0760   77.7590  222.6090 C   0  0  0  0  0  0  0  0  0  0  0  0
  141.4380   77.9700  223.1220 C   0  0  0  0  0  0  0  0  0  0  0  0
  141.9200   79.3680  222.7190 C   0  0  0  0  0  0  0  0  0  0  0  0
  141.2140   80.3040  223.5730 N   0  0  0  0  0  0  0  0  0  0  0  0
  139.8130   80.1540  223.3290 C   0  0  0  0  0  0  0  0  0  0  0  0
  139.4270   79.1070  222.3480 C   0  0  0  0  0  0  0  0  0  0  0  0
  141.2930   80.9820  219.6250 C   0  0  0  0  0  0  0  0  0  0  0  0
  141.8910   81.7050  222.0310 H   0  0  0  0  0  0  0  0  0  0  0  0
  140.6630   82.3390  222.9760 H   0  0  0  0  0  0  0  0  0  0  0  0
  141.4985   84.0849  218.2548 H   0  0  0  0  0  0  0  0  0  0  0  0
  142.2802   82.6804  216.3671 H   0  0  0  0  0  0  0  0  0  0  0  0
  142.4238   80.2326  216.5562 H   0  0  0  0  0  0  0  0  0  0  0  0
  141.4968   78.0904  217.9074 H   0  0  0  0  0  0  0  0  0  0  0  0
  142.6301   78.7922  220.5884 H   0  0  0  0  0  0  0  0  0  0  0  0
  143.9385   76.3605  219.2980 H   0  0  0  0  0  0  0  0  0  0  0  0
  145.0451   74.2798  219.1285 H   0  0  0  0  0  0  0  0  0  0  0  0
  143.2316   70.8127  220.9667 H   0  0  0  0  0  0  0  0  0  0  0  0
  141.3210   72.2274  221.7579 H   0  0  0  0  0  0  0  0  0  0  0  0
  139.4867   77.3957  220.6331 H   0  0  0  0  0  0  0  0  0  0  0  0
  139.2783   76.0153  221.8548 H   0  0  0  0  0  0  0  0  0  0  0  0
  139.5491   77.2175  223.4084 H   0  0  0  0  0  0  0  0  0  0  0  0
  141.4350   77.8843  224.2186 H   0  0  0  0  0  0  0  0  0  0  0  0
  142.1128   77.2113  222.6989 H   0  0  0  0  0  0  0  0  0  0  0  0
  143.0056   79.4558  222.8734 H   0  0  0  0  0  0  0  0  0  0  0  0
  141.7210   79.5684  221.6559 H   0  0  0  0  0  0  0  0  0  0  0  0
  141.4920   81.2780  223.3750 H   0  0  0  0  0  0  0  0  0  0  0  0
  139.3295   79.9113  224.2868 H   0  0  0  0  0  0  0  0  0  0  0  0
  139.4873   81.1069  222.8864 H   0  0  0  0  0  0  0  0  0  0  0  0
  138.3350   78.9803  222.3865 H   0  0  0  0  0  0  0  0  0  0  0  0
  139.7748   79.4463  221.3611 H   0  0  0  0  0  0  0  0  0  0  0  0
  141.0056   80.5049  220.5736 H   0  0  0  0  0  0  0  0  0  0  0  0
  1  2  1  0
  2  3  2  0
  2  4  2  0
  2  5  1  0
  5  6  2  0
  6  7  1  0
  7  8  2  0
  8  9  1  0
  9 10  1  0
 10 11  2  0
 11 12  1  0
 12 13  2  0
 13 14  1  0
 14 15  2  0
 15 16  1  0
 16 17  1  0
 16 18  2  0
 18 19  1  0
 19 20  2  0
 20 21  1  0
 21 22  2  0
 21 23  1  0
 23 24  1  0
 24 25  1  0
 25 26  1  0
 26 27  1  0
 27 28  1  0
 28 29  1  0
 29 30  1  0
  9 31  2  0
 31  5  1  0
 23 12  1  0
 30 25  1  0
 20 14  1  0
  1 32  1  0
  1 33  1  0
  6 34  1  0
  7 35  1  0
  8 36  1  0
 10 37  1  0
 11 38  1  0
 13 39  1  0
 15 40  1  0
 18 41  1  0
 19 42  1  0
 24 43  1  0
 24 44  1  0
 25 45  1  0
 26 46  1  0
 26 47  1  0
 27 48  1  0
 27 49  1  0
 28 50  1  0
 29 51  1  0
 29 52  1  0
 30 53  1  0
 30 54  1  0
 31 55  1  0
M  END
>  <smiles>  (34) 
NS(=O)(=O)c1cccc(/C=C/c2cc3cc(Cl)ccc3c(=O)n2CC2CCNCC2)c1

>  <score_type>  (34) 
oracle

>  <origin>  (34) 
autodockgpu

>  <m_score__min__energy>  (34) 
-9.2899999999999991

>  <m_primary>  (34) 
energy

>  <rmsd>  (34) 
7.405741670158726

>  <m_score__min__rmsd>  (34) 
7.405741670158726

>  <meeko>  (34) 
{"free_energy": -6.66, "intermolecular_energy": -8.75, "internal_energy": -3.53, "cluster_size": 3, "cluster_id": 13, "rank_in_cluster": 2}

>  <energy>  (34) 
-6.66

>  <cluster_rmsd>  (34) 
0.32

>  <cluster>  (34) 
13

$$$$

     RDKit          3D

 55 58  0  0  0  0  0  0  0  0999 V2000
  145.9320   72.7620  221.5580 N   0  0  0  0  0  0  0  0  0  0  0  0
  144.9550   72.5830  220.1420 S   0  0  0  0  0  0  0  0  0  0  0  0
  145.8210   72.6500  218.9090 O   0  0  0  0  0  0  0  0  0  0  0  0
  144.2540   71.2660  220.2010 O   0  0  0  0  0  0  0  0  0  0  0  0
  143.7700   73.8840  220.1570 C   0  0  0  0  0  0  0  0  0  0  0  0
  144.0840   75.1510  219.7130 C   0  0  0  0  0  0  0  0  0  0  0  0
  143.0900   76.0990  219.7680 C   0  0  0  0  0  0  0  0  0  0  0  0
  141.8190   75.8130  220.2450 C   0  0  0  0  0  0  0  0  0  0  0  0
  141.4950   74.5560  220.6880 C   0  0  0  0  0  0  0  0  0  0  0  0
  140.1770   74.1810  221.2070 C   0  0  0  0  0  0  0  0  0  0  0  0
  139.6360   73.0020  221.0910 C   0  0  0  0  0  0  0  0  0  0  0  0
  139.5370   71.8950  221.9830 C   0  0  0  0  0  0  0  0  0  0  0  0
  139.9820   72.1180  223.3000 C   0  0  0  0  0  0  0  0  0  0  0  0
  140.0180   71.1720  224.2680 C   0  0  0  0  0  0  0  0  0  0  0  0
  140.4650   71.4700  225.5210 C   0  0  0  0  0  0  0  0  0  0  0  0
  140.4730   70.4490  226.4560 C   0  0  0  0  0  0  0  0  0  0  0  0
  141.0430   70.8090  228.0690 Cl  0  0  0  0  0  0  0  0  0  0  0  0
  140.0520   69.1660  226.1730 C   0  0  0  0  0  0  0  0  0  0  0  0
  139.6010   68.8800  224.9040 C   0  0  0  0  0  0  0  0  0  0  0  0
  139.5970   69.9030  223.9730 C   0  0  0  0  0  0  0  0  0  0  0  0
  139.1610   69.6710  222.7010 C   0  0  0  0  0  0  0  0  0  0  0  0
  138.7730   68.4900  222.4390 O   0  0  0  0  0  0  0  0  0  0  0  0
  139.1290   70.6450  221.7200 N   0  0  0  0  0  0  0  0  0  0  0  0
  138.6840   70.1730  220.4460 C   0  0  0  0  0  0  0  0  0  0  0  0
  139.7270   69.8230  219.4570 C   0  0  0  0  0  0  0  0  0  0  0  0
  139.9430   70.7590  218.3430 C   0  0  0  0  0  0  0  0  0  0  0  0
  141.2720   71.4940  218.5500 C   0  0  0  0  0  0  0  0  0  0  0  0
  142.3190   70.5370  218.2420 N   0  0  0  0  0  0  0  0  0  0  0  0
  142.1930   69.4390  219.1490 C   0  0  0  0  0  0  0  0  0  0  0  0
  141.0620   69.5080  220.1100 C   0  0  0  0  0  0  0  0  0  0  0  0
  142.5070   73.6030  220.6290 C   0  0  0  0  0  0  0  0  0  0  0  0
  146.8110   72.2210  221.4080 H   0  0  0  0  0  0  0  0  0  0  0  0
  145.4030   72.2450  222.3140 H   0  0  0  0  0  0  0  0  0  0  0  0
  145.0868   75.3929  219.3311 H   0  0  0  0  0  0  0  0  0  0  0  0
  143.3100   77.1197  219.4218 H   0  0  0  0  0  0  0  0  0  0  0  0
  141.0585   76.6075  220.2683 H   0  0  0  0  0  0  0  0  0  0  0  0
  139.6003   74.9546  221.7351 H   0  0  0  0  0  0  0  0  0  0  0  0
  139.1631   72.8263  220.1135 H   0  0  0  0  0  0  0  0  0  0  0  0
  140.3240   73.1305  223.5605 H   0  0  0  0  0  0  0  0  0  0  0  0
  140.8064   72.4833  225.7793 H   0  0  0  0  0  0  0  0  0  0  0  0
  140.0762   68.3853  226.9476 H   0  0  0  0  0  0  0  0  0  0  0  0
  139.2549   67.8701  224.6389 H   0  0  0  0  0  0  0  0  0  0  0  0
  138.0761   69.2728  220.6196 H   0  0  0  0  0  0  0  0  0  0  0  0
  138.1419   71.0205  220.0012 H   0  0  0  0  0  0  0  0  0  0  0  0
  139.2936   68.9232  218.9959 H   0  0  0  0  0  0  0  0  0  0  0  0
  139.9751   70.2014  217.3954 H   0  0  0  0  0  0  0  0  0  0  0  0
  139.1199   71.4880  218.3091 H   0  0  0  0  0  0  0  0  0  0  0  0
  141.3373   72.3603  217.8753 H   0  0  0  0  0  0  0  0  0  0  0  0
  141.3646   71.8705  219.5794 H   0  0  0  0  0  0  0  0  0  0  0  0
  143.2560   70.9590  218.3450 H   0  0  0  0  0  0  0  0  0  0  0  0
  142.0708   68.5231  218.5522 H   0  0  0  0  0  0  0  0  0  0  0  0
  143.1041   69.4602  219.7649 H   0  0  0  0  0  0  0  0  0  0  0  0
  140.9791   68.5368  220.6198 H   0  0  0  0  0  0  0  0  0  0  0  0
  141.2814   70.3296  220.8078 H   0  0  0  0  0  0  0  0  0  0  0  0
  142.2891   72.5815  220.9741 H   0  0  0  0  0  0  0  0  0  0  0  0
  1  2  1  0
  2  3  2  0
  2  4  2  0
  2  5  1  0
  5  6  2  0
  6  7  1  0
  7  8  2  0
  8  9  1  0
  9 10  1  0
 10 11  2  0
 11 12  1  0
 12 13  2  0
 13 14  1  0
 14 15  2  0
 15 16  1  0
 16 17  1  0
 16 18  2  0
 18 19  1  0
 19 20  2  0
 20 21  1  0
 21 22  2  0
 21 23  1  0
 23 24  1  0
 24 25  1  0
 25 26  1  0
 26 27  1  0
 27 28  1  0
 28 29  1  0
 29 30  1  0
  9 31  2  0
 31  5  1  0
 23 12  1  0
 30 25  1  0
 20 14  1  0
  1 32  1  0
  1 33  1  0
  6 34  1  0
  7 35  1  0
  8 36  1  0
 10 37  1  0
 11 38  1  0
 13 39  1  0
 15 40  1  0
 18 41  1  0
 19 42  1  0
 24 43  1  0
 24 44  1  0
 25 45  1  0
 26 46  1  0
 26 47  1  0
 27 48  1  0
 27 49  1  0
 28 50  1  0
 29 51  1  0
 29 52  1  0
 30 53  1  0
 30 54  1  0
 31 55  1  0
M  END
>  <smiles>  (35) 
NS(=O)(=O)c1cccc(/C=C/c2cc3cc(Cl)ccc3c(=O)n2CC2CCNCC2)c1

>  <score_type>  (35) 
oracle

>  <origin>  (35) 
autodockgpu

>  <m_score__min__energy>  (35) 
-9.2899999999999991

>  <m_primary>  (35) 
energy

>  <rmsd>  (35) 
9.981368141086767

>  <m_score__min__rmsd>  (35) 
9.981368141086767

>  <meeko>  (35) 
{"free_energy": -7.62, "intermolecular_energy": -9.71, "internal_energy": -2.87, "cluster_size": 6, "cluster_id": 8, "rank_in_cluster": 2}

>  <energy>  (35) 
-6.56

>  <cluster_rmsd>  (35) 
1.09

>  <cluster>  (35) 
13

$$$$

     RDKit          3D

 55 58  0  0  0  0  0  0  0  0999 V2000
  142.5510   80.5350  216.7790 N   0  0  0  0  0  0  0  0  0  0  0  0
  141.8330   79.7220  218.1280 S   0  0  0  0  0  0  0  0  0  0  0  0
  140.5030   79.1370  217.7250 O   0  0  0  0  0  0  0  0  0  0  0  0
  142.7510   78.6340  218.5810 O   0  0  0  0  0  0  0  0  0  0  0  0
  141.6440   80.9080  219.4130 C   0  0  0  0  0  0  0  0  0  0  0  0
  141.1900   82.1850  219.1550 C   0  0  0  0  0  0  0  0  0  0  0  0
  141.0790   83.0390  220.2270 C   0  0  0  0  0  0  0  0  0  0  0  0
  141.4040   82.6530  221.5190 C   0  0  0  0  0  0  0  0  0  0  0  0
  141.8560   81.3860  221.7870 C   0  0  0  0  0  0  0  0  0  0  0  0
  142.2210   80.9090  223.1240 C   0  0  0  0  0  0  0  0  0  0  0  0
  141.5690   80.0050  223.7970 C   0  0  0  0  0  0  0  0  0  0  0  0
  140.6450   78.9920  223.4090 C   0  0  0  0  0  0  0  0  0  0  0  0
  141.2040   77.8120  222.8830 C   0  0  0  0  0  0  0  0  0  0  0  0
  140.4850   76.7670  222.4110 C   0  0  0  0  0  0  0  0  0  0  0  0
  141.1040   75.6580  221.9160 C   0  0  0  0  0  0  0  0  0  0  0  0
  140.3000   74.6320  221.4500 C   0  0  0  0  0  0  0  0  0  0  0  0
  141.0740   73.2000  220.8110 Cl  0  0  0  0  0  0  0  0  0  0  0  0
  138.9220   74.6880  221.4680 C   0  0  0  0  0  0  0  0  0  0  0  0
  138.3100   75.8140  221.9710 C   0  0  0  0  0  0  0  0  0  0  0  0
  139.1170   76.8370  222.4350 C   0  0  0  0  0  0  0  0  0  0  0  0
  138.5590   77.9730  222.9430 C   0  0  0  0  0  0  0  0  0  0  0  0
  137.2910   78.0270  222.9600 O   0  0  0  0  0  0  0  0  0  0  0  0
  139.3050   79.0350  223.4230 N   0  0  0  0  0  0  0  0  0  0  0  0
  138.5190   80.1450  223.8620 C   0  0  0  0  0  0  0  0  0  0  0  0
  138.4720   81.3290  222.9750 C   0  0  0  0  0  0  0  0  0  0  0  0
  138.5090   81.0880  221.5250 C   0  0  0  0  0  0  0  0  0  0  0  0
  137.1240   81.3680  220.9310 C   0  0  0  0  0  0  0  0  0  0  0  0
  136.9730   82.8110  220.9110 N   0  0  0  0  0  0  0  0  0  0  0  0
  137.0580   83.2810  222.2590 C   0  0  0  0  0  0  0  0  0  0  0  0
  137.3080   82.2500  223.2990 C   0  0  0  0  0  0  0  0  0  0  0  0
  141.9650   80.5280  220.6970 C   0  0  0  0  0  0  0  0  0  0  0  0
  142.7750   79.8160  216.0580 H   0  0  0  0  0  0  0  0  0  0  0  0
  143.4830   80.8790  217.1410 H   0  0  0  0  0  0  0  0  0  0  0  0
  140.9282   82.5061  218.1360 H   0  0  0  0  0  0  0  0  0  0  0  0
  140.7199   84.0642  220.0539 H   0  0  0  0  0  0  0  0  0  0  0  0
  141.2975   83.3748  222.3422 H   0  0  0  0  0  0  0  0  0  0  0  0
  143.1132   81.3479  223.5944 H   0  0  0  0  0  0  0  0  0  0  0  0
  141.7713   80.0277  224.8780 H   0  0  0  0  0  0  0  0  0  0  0  0
  142.3008   77.7338  222.8536 H   0  0  0  0  0  0  0  0  0  0  0  0
  142.2010   75.5812  221.8879 H   0  0  0  0  0  0  0  0  0  0  0  0
  138.3226   73.8479  221.0872 H   0  0  0  0  0  0  0  0  0  0  0  0
  137.2136   75.8975  222.0029 H   0  0  0  0  0  0  0  0  0  0  0  0
  137.4868   79.7887  223.9945 H   0  0  0  0  0  0  0  0  0  0  0  0
  139.0104   80.4966  224.7812 H   0  0  0  0  0  0  0  0  0  0  0  0
  139.4316   81.8128  223.2099 H   0  0  0  0  0  0  0  0  0  0  0  0
  139.2501   81.7548  221.0602 H   0  0  0  0  0  0  0  0  0  0  0  0
  138.7890   80.0419  221.3317 H   0  0  0  0  0  0  0  0  0  0  0  0
  137.0589   80.9641  219.9099 H   0  0  0  0  0  0  0  0  0  0  0  0
  136.3305   80.8914  221.5254 H   0  0  0  0  0  0  0  0  0  0  0  0
  136.0640   83.0900  220.5100 H   0  0  0  0  0  0  0  0  0  0  0  0
  137.8778   84.0128  222.3081 H   0  0  0  0  0  0  0  0  0  0  0  0
  136.0657   83.6962  222.4889 H   0  0  0  0  0  0  0  0  0  0  0  0
  137.5223   82.7600  224.2498 H   0  0  0  0  0  0  0  0  0  0  0  0
  136.4061   81.6227  223.3547 H   0  0  0  0  0  0  0  0  0  0  0  0
  142.3230   79.5021  220.8684 H   0  0  0  0  0  0  0  0  0  0  0  0
  1  2  1  0
  2  3  2  0
  2  4  2  0
  2  5  1  0
  5  6  2  0
  6  7  1  0
  7  8  2  0
  8  9  1  0
  9 10  1  0
 10 11  2  0
 11 12  1  0
 12 13  2  0
 13 14  1  0
 14 15  2  0
 15 16  1  0
 16 17  1  0
 16 18  2  0
 18 19  1  0
 19 20  2  0
 20 21  1  0
 21 22  2  0
 21 23  1  0
 23 24  1  0
 24 25  1  0
 25 26  1  0
 26 27  1  0
 27 28  1  0
 28 29  1  0
 29 30  1  0
  9 31  2  0
 31  5  1  0
 23 12  1  0
 30 25  1  0
 20 14  1  0
  1 32  1  0
  1 33  1  0
  6 34  1  0
  7 35  1  0
  8 36  1  0
 10 37  1  0
 11 38  1  0
 13 39  1  0
 15 40  1  0
 18 41  1  0
 19 42  1  0
 24 43  1  0
 24 44  1  0
 25 45  1  0
 26 46  1  0
 26 47  1  0
 27 48  1  0
 27 49  1  0
 28 50  1  0
 29 51  1  0
 29 52  1  0
 30 53  1  0
 30 54  1  0
 31 55  1  0
M  END
>  <smiles>  (36) 
NS(=O)(=O)c1cccc(/C=C/c2cc3cc(Cl)ccc3c(=O)n2CC2CCNCC2)c1

>  <score_type>  (36) 
oracle

>  <origin>  (36) 
autodockgpu

>  <m_score__min__energy>  (36) 
-9.2899999999999991

>  <m_primary>  (36) 
energy

>  <rmsd>  (36) 
5.979639832152106

>  <m_score__min__rmsd>  (36) 
5.979639832152106

>  <meeko>  (36) 
{"free_energy": -7.07, "intermolecular_energy": -9.16, "internal_energy": -2.54, "cluster_size": 1, "cluster_id": 10, "rank_in_cluster": 1}

>  <energy>  (36) 
-6.66

>  <cluster_rmsd>  (36) 
0.0

>  <cluster>  (36) 
14

$$$$

     RDKit          3D

 55 58  0  0  0  0  0  0  0  0999 V2000
  144.5940   71.6270  220.3500 N   0  0  0  0  0  0  0  0  0  0  0  0
  145.2800   73.2090  220.1950 S   0  0  0  0  0  0  0  0  0  0  0  0
  146.2140   73.4780  221.3470 O   0  0  0  0  0  0  0  0  0  0  0  0
  146.0280   73.2870  218.9040 O   0  0  0  0  0  0  0  0  0  0  0  0
  143.9470   74.3570  220.1740 C   0  0  0  0  0  0  0  0  0  0  0  0
  144.0500   75.5700  219.5260 C   0  0  0  0  0  0  0  0  0  0  0  0
  142.9530   76.3990  219.5700 C   0  0  0  0  0  0  0  0  0  0  0  0
  141.7860   76.0490  220.2330 C   0  0  0  0  0  0  0  0  0  0  0  0
  141.6720   74.8450  220.8800 C   0  0  0  0  0  0  0  0  0  0  0  0
  140.4740   74.4090  221.6010 C   0  0  0  0  0  0  0  0  0  0  0  0
  139.8440   73.2880  221.3950 C   0  0  0  0  0  0  0  0  0  0  0  0
  139.6760   72.1160  222.1870 C   0  0  0  0  0  0  0  0  0  0  0  0
  140.0960   72.2080  223.5270 C   0  0  0  0  0  0  0  0  0  0  0  0
  140.0670   71.1840  224.4130 C   0  0  0  0  0  0  0  0  0  0  0  0
  140.4940   71.3570  225.6960 C   0  0  0  0  0  0  0  0  0  0  0  0
  140.4350   70.2620  226.5410 C   0  0  0  0  0  0  0  0  0  0  0  0
  140.9780   70.4600  228.1920 Cl  0  0  0  0  0  0  0  0  0  0  0  0
  139.9680   69.0270  226.1420 C   0  0  0  0  0  0  0  0  0  0  0  0
  139.5390   68.8680  224.8430 C   0  0  0  0  0  0  0  0  0  0  0  0
  139.6010   69.9640  224.0020 C   0  0  0  0  0  0  0  0  0  0  0  0
  139.1880   69.8580  222.7060 C   0  0  0  0  0  0  0  0  0  0  0  0
  138.7580   68.7220  222.3370 O   0  0  0  0  0  0  0  0  0  0  0  0
  139.2230   70.9110  221.8100 N   0  0  0  0  0  0  0  0  0  0  0  0
  138.7900   70.5680  220.4920 C   0  0  0  0  0  0  0  0  0  0  0  0
  139.8440   70.2900  219.4900 C   0  0  0  0  0  0  0  0  0  0  0  0
  140.1170   71.3330  218.4900 C   0  0  0  0  0  0  0  0  0  0  0  0
  141.4650   71.9930  218.8030 C   0  0  0  0  0  0  0  0  0  0  0  0
  142.4850   71.0390  218.4120 N   0  0  0  0  0  0  0  0  0  0  0  0
  142.3020   69.8530  219.1900 C   0  0  0  0  0  0  0  0  0  0  0  0
  141.1520   69.8580  220.1310 C   0  0  0  0  0  0  0  0  0  0  0  0
  142.7860   74.0120  220.8300 C   0  0  0  0  0  0  0  0  0  0  0  0
  143.5770   71.7000  220.1340 H   0  0  0  0  0  0  0  0  0  0  0  0
  144.6540   71.4120  221.3840 H   0  0  0  0  0  0  0  0  0  0  0  0
  144.9692   75.8619  218.9970 H   0  0  0  0  0  0  0  0  0  0  0  0
  143.0031   77.3733  219.0618 H   0  0  0  0  0  0  0  0  0  0  0  0
  140.9375   76.7490  220.2400 H   0  0  0  0  0  0  0  0  0  0  0  0
  140.0757   75.0801  222.3762 H   0  0  0  0  0  0  0  0  0  0  0  0
  139.3431   73.2360  220.4171 H   0  0  0  0  0  0  0  0  0  0  0  0
  140.4741   73.1790  223.8793 H   0  0  0  0  0  0  0  0  0  0  0  0
  140.8709   72.3292  226.0464 H   0  0  0  0  0  0  0  0  0  0  0  0
  139.9388   68.1844  226.8485 H   0  0  0  0  0  0  0  0  0  0  0  0
  139.1590   67.8996  224.4857 H   0  0  0  0  0  0  0  0  0  0  0  0
  138.1627   69.6680  220.5724 H   0  0  0  0  0  0  0  0  0  0  0  0
  138.2704   71.4632  220.1197 H   0  0  0  0  0  0  0  0  0  0  0  0
  139.3917   69.4621  218.9244 H   0  0  0  0  0  0  0  0  0  0  0  0
  140.1528   70.8811  217.4878 H   0  0  0  0  0  0  0  0  0  0  0  0
  139.3197   72.0903  218.5196 H   0  0  0  0  0  0  0  0  0  0  0  0
  141.5752   72.9251  218.2294 H   0  0  0  0  0  0  0  0  0  0  0  0
  141.5462   72.2511  219.8692 H   0  0  0  0  0  0  0  0  0  0  0  0
  143.4340   71.4130  218.5780 H   0  0  0  0  0  0  0  0  0  0  0  0
  142.1626   69.0128  218.4938 H   0  0  0  0  0  0  0  0  0  0  0  0
  143.1993   69.7730  219.8213 H   0  0  0  0  0  0  0  0  0  0  0  0
  141.0246   68.8408  220.5300 H   0  0  0  0  0  0  0  0  0  0  0  0
  141.3827   70.5903  220.9187 H   0  0  0  0  0  0  0  0  0  0  0  0
  142.7371   73.0365  221.3360 H   0  0  0  0  0  0  0  0  0  0  0  0
  1  2  1  0
  2  3  2  0
  2  4  2  0
  2  5  1  0
  5  6  2  0
  6  7  1  0
  7  8  2  0
  8  9  1  0
  9 10  1  0
 10 11  2  0
 11 12  1  0
 12 13  2  0
 13 14  1  0
 14 15  2  0
 15 16  1  0
 16 17  1  0
 16 18  2  0
 18 19  1  0
 19 20  2  0
 20 21  1  0
 21 22  2  0
 21 23  1  0
 23 24  1  0
 24 25  1  0
 25 26  1  0
 26 27  1  0
 27 28  1  0
 28 29  1  0
 29 30  1  0
  9 31  2  0
 31  5  1  0
 23 12  1  0
 30 25  1  0
 20 14  1  0
  1 32  1  0
  1 33  1  0
  6 34  1  0
  7 35  1  0
  8 36  1  0
 10 37  1  0
 11 38  1  0
 13 39  1  0
 15 40  1  0
 18 41  1  0
 19 42  1  0
 24 43  1  0
 24 44  1  0
 25 45  1  0
 26 46  1  0
 26 47  1  0
 27 48  1  0
 27 49  1  0
 28 50  1  0
 29 51  1  0
 29 52  1  0
 30 53  1  0
 30 54  1  0
 31 55  1  0
M  END
>  <smiles>  (37) 
NS(=O)(=O)c1cccc(/C=C/c2cc3cc(Cl)ccc3c(=O)n2CC2CCNCC2)c1

>  <score_type>  (37) 
oracle

>  <origin>  (37) 
autodockgpu

>  <m_score__min__energy>  (37) 
-9.2899999999999991

>  <m_primary>  (37) 
energy

>  <rmsd>  (37) 
9.853385844127583

>  <m_score__min__rmsd>  (37) 
9.853385844127583

>  <meeko>  (37) 
{"free_energy": -7.35, "intermolecular_energy": -9.44, "internal_energy": -3.34, "cluster_size": 6, "cluster_id": 8, "rank_in_cluster": 3}

>  <energy>  (37) 
-6.26

>  <cluster_rmsd>  (37) 
0.9

>  <cluster>  (37) 
14

$$$$

     RDKit          3D

 55 58  0  0  0  0  0  0  0  0999 V2000
  133.9490   72.1750  227.0800 N   0  0  0  0  0  0  0  0  0  0  0  0
  133.8820   70.8200  226.0060 S   0  0  0  0  0  0  0  0  0  0  0  0
  133.9230   69.5370  226.7980 O   0  0  0  0  0  0  0  0  0  0  0  0
  132.6160   70.8910  225.2160 O   0  0  0  0  0  0  0  0  0  0  0  0
  135.2620   70.9430  224.9220 C   0  0  0  0  0  0  0  0  0  0  0  0
  136.2840   70.0170  224.9470 C   0  0  0  0  0  0  0  0  0  0  0  0
  137.3190   70.2020  224.0610 C   0  0  0  0  0  0  0  0  0  0  0  0
  137.3530   71.2680  223.1730 C   0  0  0  0  0  0  0  0  0  0  0  0
  136.3420   72.1940  223.1390 C   0  0  0  0  0  0  0  0  0  0  0  0
  136.3110   73.3440  222.2320 C   0  0  0  0  0  0  0  0  0  0  0  0
  137.2920   74.1830  222.0560 C   0  0  0  0  0  0  0  0  0  0  0  0
  137.4430   75.5680  222.3540 C   0  0  0  0  0  0  0  0  0  0  0  0
  138.7630   76.0550  222.3850 C   0  0  0  0  0  0  0  0  0  0  0  0
  139.1050   77.3250  222.7050 C   0  0  0  0  0  0  0  0  0  0  0  0
  140.4110   77.7180  222.7130 C   0  0  0  0  0  0  0  0  0  0  0  0
  140.6800   79.0330  223.0520 C   0  0  0  0  0  0  0  0  0  0  0  0
  142.3480   79.5580  223.0680 Cl  0  0  0  0  0  0  0  0  0  0  0  0
  139.6960   79.9440  223.3760 C   0  0  0  0  0  0  0  0  0  0  0  0
  138.3820   79.5330  223.3630 C   0  0  0  0  0  0  0  0  0  0  0  0
  138.1170   78.2180  223.0250 C   0  0  0  0  0  0  0  0  0  0  0  0
  136.8320   77.7630  222.9980 C   0  0  0  0  0  0  0  0  0  0  0  0
  135.9250   78.6000  223.2960 O   0  0  0  0  0  0  0  0  0  0  0  0
  136.4950   76.4620  222.6700 N   0  0  0  0  0  0  0  0  0  0  0  0
  135.0950   76.1860  222.7530 C   0  0  0  0  0  0  0  0  0  0  0  0
  134.4810   76.2270  224.0990 C   0  0  0  0  0  0  0  0  0  0  0  0
  133.1250   75.6750  224.2410 C   0  0  0  0  0  0  0  0  0  0  0  0
  133.1970   74.3460  225.0000 C   0  0  0  0  0  0  0  0  0  0  0  0
  133.4440   74.6840  226.3900 N   0  0  0  0  0  0  0  0  0  0  0  0
  134.6900   75.3820  226.4580 C   0  0  0  0  0  0  0  0  0  0  0  0
  135.3800   75.6230  225.1640 C   0  0  0  0  0  0  0  0  0  0  0  0
  135.2980   71.9990  224.0390 C   0  0  0  0  0  0  0  0  0  0  0  0
  133.0070   72.6230  227.0850 H   0  0  0  0  0  0  0  0  0  0  0  0
  134.5910   72.8640  226.6000 H   0  0  0  0  0  0  0  0  0  0  0  0
  136.2715   69.1673  225.6455 H   0  0  0  0  0  0  0  0  0  0  0  0
  138.1489   69.4800  224.0558 H   0  0  0  0  0  0  0  0  0  0  0  0
  138.2050   71.3719  222.4850 H   0  0  0  0  0  0  0  0  0  0  0  0
  135.3892   73.5119  221.6557 H   0  0  0  0  0  0  0  0  0  0  0  0
  138.1783   73.7335  221.5844 H   0  0  0  0  0  0  0  0  0  0  0  0
  139.5729   75.3551  222.1316 H   0  0  0  0  0  0  0  0  0  0  0  0
  141.2198   77.0168  222.4597 H   0  0  0  0  0  0  0  0  0  0  0  0
  139.9564   80.9797  223.6399 H   0  0  0  0  0  0  0  0  0  0  0  0
  137.5679   80.2289  223.6137 H   0  0  0  0  0  0  0  0  0  0  0  0
  134.5733   76.9254  222.1276 H   0  0  0  0  0  0  0  0  0  0  0  0
  134.9894   75.1422  222.4224 H   0  0  0  0  0  0  0  0  0  0  0  0
  134.3662   77.3105  224.2503 H   0  0  0  0  0  0  0  0  0  0  0  0
  132.4962   76.3838  224.7998 H   0  0  0  0  0  0  0  0  0  0  0  0
  132.6887   75.5078  223.2452 H   0  0  0  0  0  0  0  0  0  0  0  0
  132.2468   73.8003  224.9037 H   0  0  0  0  0  0  0  0  0  0  0  0
  133.9906   73.6987  224.5987 H   0  0  0  0  0  0  0  0  0  0  0  0
  133.4940   73.8380  226.9800 H   0  0  0  0  0  0  0  0  0  0  0  0
  134.5014   76.3601  226.9247 H   0  0  0  0  0  0  0  0  0  0  0  0
  135.3624   74.7275  227.0321 H   0  0  0  0  0  0  0  0  0  0  0  0
  136.2203   76.3105  225.3407 H   0  0  0  0  0  0  0  0  0  0  0  0
  135.7125   74.6440  224.7884 H   0  0  0  0  0  0  0  0  0  0  0  0
  134.4665   72.7191  224.0450 H   0  0  0  0  0  0  0  0  0  0  0  0
  1  2  1  0
  2  3  2  0
  2  4  2  0
  2  5  1  0
  5  6  2  0
  6  7  1  0
  7  8  2  0
  8  9  1  0
  9 10  1  0
 10 11  2  0
 11 12  1  0
 12 13  2  0
 13 14  1  0
 14 15  2  0
 15 16  1  0
 16 17  1  0
 16 18  2  0
 18 19  1  0
 19 20  2  0
 20 21  1  0
 21 22  2  0
 21 23  1  0
 23 24  1  0
 24 25  1  0
 25 26  1  0
 26 27  1  0
 27 28  1  0
 28 29  1  0
 29 30  1  0
  9 31  2  0
 31  5  1  0
 23 12  1  0
 30 25  1  0
 20 14  1  0
  1 32  1  0
  1 33  1  0
  6 34  1  0
  7 35  1  0
  8 36  1  0
 10 37  1  0
 11 38  1  0
 13 39  1  0
 15 40  1  0
 18 41  1  0
 19 42  1  0
 24 43  1  0
 24 44  1  0
 25 45  1  0
 26 46  1  0
 26 47  1  0
 27 48  1  0
 27 49  1  0
 28 50  1  0
 29 51  1  0
 29 52  1  0
 30 53  1  0
 30 54  1  0
 31 55  1  0
M  END
>  <smiles>  (38) 
NS(=O)(=O)c1cccc(/C=C/c2cc3cc(Cl)ccc3c(=O)n2CC2CCNCC2)c1

>  <score_type>  (38) 
oracle

>  <origin>  (38) 
autodockgpu

>  <m_score__min__energy>  (38) 
-9.2899999999999991

>  <m_primary>  (38) 
energy

>  <rmsd>  (38) 
7.292037799066834

>  <m_score__min__rmsd>  (38) 
7.292037799066834

>  <meeko>  (38) 
{"free_energy": -5.99, "intermolecular_energy": -8.08, "internal_energy": -3.61, "cluster_size": 1, "cluster_id": 19, "rank_in_cluster": 1}

>  <energy>  (38) 
-6.57

>  <cluster_rmsd>  (38) 
0.0

>  <cluster>  (38) 
15

$$$$

     RDKit          3D

 55 58  0  0  0  0  0  0  0  0999 V2000
  142.9380   74.9970  220.6420 N   0  0  0  0  0  0  0  0  0  0  0  0
  141.3070   75.5650  220.7500 S   0  0  0  0  0  0  0  0  0  0  0  0
  140.5240   75.1070  219.5450 O   0  0  0  0  0  0  0  0  0  0  0  0
  140.6870   75.0220  221.9960 O   0  0  0  0  0  0  0  0  0  0  0  0
  141.3690   77.3210  220.8390 C   0  0  0  0  0  0  0  0  0  0  0  0
  141.7860   78.0830  219.7670 C   0  0  0  0  0  0  0  0  0  0  0  0
  141.8020   79.4480  219.9370 C   0  0  0  0  0  0  0  0  0  0  0  0
  141.4190   80.0510  221.1260 C   0  0  0  0  0  0  0  0  0  0  0  0
  141.0020   79.3030  222.1980 C   0  0  0  0  0  0  0  0  0  0  0  0
  140.5860   79.8690  223.4830 C   0  0  0  0  0  0  0  0  0  0  0  0
  139.7020   80.8140  223.6320 C   0  0  0  0  0  0  0  0  0  0  0  0
  138.3300   80.8010  224.0170 C   0  0  0  0  0  0  0  0  0  0  0  0
  138.0480   81.2510  225.3200 C   0  0  0  0  0  0  0  0  0  0  0  0
  136.8150   81.2570  225.8800 C   0  0  0  0  0  0  0  0  0  0  0  0
  136.6250   81.7110  227.1510 C   0  0  0  0  0  0  0  0  0  0  0  0
  135.3350   81.6830  227.6530 C   0  0  0  0  0  0  0  0  0  0  0  0
  135.0700   82.2600  229.2830 Cl  0  0  0  0  0  0  0  0  0  0  0  0
  134.2550   81.2250  226.9290 C   0  0  0  0  0  0  0  0  0  0  0  0
  134.4610   80.7710  225.6450 C   0  0  0  0  0  0  0  0  0  0  0  0
  135.7510   80.7990  225.1480 C   0  0  0  0  0  0  0  0  0  0  0  0
  136.0080   80.3600  223.8820 C   0  0  0  0  0  0  0  0  0  0  0  0
  135.0150   79.9370  223.2140 O   0  0  0  0  0  0  0  0  0  0  0  0
  137.2720   80.3580  223.3220 N   0  0  0  0  0  0  0  0  0  0  0  0
  137.3230   79.8100  222.0030 C   0  0  0  0  0  0  0  0  0  0  0  0
  137.0410   78.3630  221.8650 C   0  0  0  0  0  0  0  0  0  0  0  0
  136.9810   77.8130  220.5030 C   0  0  0  0  0  0  0  0  0  0  0  0
  138.2260   76.9560  220.2490 C   0  0  0  0  0  0  0  0  0  0  0  0
  138.0320   75.7250  220.9930 N   0  0  0  0  0  0  0  0  0  0  0  0
  137.9140   76.0620  222.3780 C   0  0  0  0  0  0  0  0  0  0  0  0
  137.9720   77.5090  222.7090 C   0  0  0  0  0  0  0  0  0  0  0  0
  140.9880   77.9230  222.0170 C   0  0  0  0  0  0  0  0  0  0  0  0
  143.2790   74.8260  221.6120 H   0  0  0  0  0  0  0  0  0  0  0  0
  143.4860   75.8290  220.2870 H   0  0  0  0  0  0  0  0  0  0  0  0
  142.0923   77.6192  218.8178 H   0  0  0  0  0  0  0  0  0  0  0  0
  142.1299   80.0833  219.1010 H   0  0  0  0  0  0  0  0  0  0  0  0
  141.4501   81.1473  221.2109 H   0  0  0  0  0  0  0  0  0  0  0  0
  141.0560   79.4652  224.3919 H   0  0  0  0  0  0  0  0  0  0  0  0
  140.0912   81.8205  223.4186 H   0  0  0  0  0  0  0  0  0  0  0  0
  138.8872   81.6237  225.9257 H   0  0  0  0  0  0  0  0  0  0  0  0
  137.4646   82.0854  227.7550 H   0  0  0  0  0  0  0  0  0  0  0  0
  133.2468   81.2222  227.3688 H   0  0  0  0  0  0  0  0  0  0  0  0
  133.6256   80.3979  225.0343 H   0  0  0  0  0  0  0  0  0  0  0  0
  136.5874   80.3514  221.3900 H   0  0  0  0  0  0  0  0  0  0  0  0
  138.3692   79.9288  221.6845 H   0  0  0  0  0  0  0  0  0  0  0  0
  136.0088   78.3074  222.2411 H   0  0  0  0  0  0  0  0  0  0  0  0
  136.0792   77.1921  220.3966 H   0  0  0  0  0  0  0  0  0  0  0  0
  136.9444   78.6359  219.7740 H   0  0  0  0  0  0  0  0  0  0  0  0
  138.3271   76.7401  219.1751 H   0  0  0  0  0  0  0  0  0  0  0  0
  139.1412   77.4760  220.5682 H   0  0  0  0  0  0  0  0  0  0  0  0
  138.8270   75.0790  220.8660 H   0  0  0  0  0  0  0  0  0  0  0  0
  136.9490   75.6743  222.7365 H   0  0  0  0  0  0  0  0  0  0  0  0
  138.7921   75.6135  222.8656 H   0  0  0  0  0  0  0  0  0  0  0  0
  137.6969   77.6353  223.7665 H   0  0  0  0  0  0  0  0  0  0  0  0
  138.9979   77.8470  222.5008 H   0  0  0  0  0  0  0  0  0  0  0  0
  140.6584   77.2860  222.8510 H   0  0  0  0  0  0  0  0  0  0  0  0
  1  2  1  0
  2  3  2  0
  2  4  2  0
  2  5  1  0
  5  6  2  0
  6  7  1  0
  7  8  2  0
  8  9  1  0
  9 10  1  0
 10 11  2  0
 11 12  1  0
 12 13  2  0
 13 14  1  0
 14 15  2  0
 15 16  1  0
 16 17  1  0
 16 18  2  0
 18 19  1  0
 19 20  2  0
 20 21  1  0
 21 22  2  0
 21 23  1  0
 23 24  1  0
 24 25  1  0
 25 26  1  0
 26 27  1  0
 27 28  1  0
 28 29  1  0
 29 30  1  0
  9 31  2  0
 31  5  1  0
 23 12  1  0
 30 25  1  0
 20 14  1  0
  1 32  1  0
  1 33  1  0
  6 34  1  0
  7 35  1  0
  8 36  1  0
 10 37  1  0
 11 38  1  0
 13 39  1  0
 15 40  1  0
 18 41  1  0
 19 42  1  0
 24 43  1  0
 24 44  1  0
 25 45  1  0
 26 46  1  0
 26 47  1  0
 27 48  1  0
 27 49  1  0
 28 50  1  0
 29 51  1  0
 29 52  1  0
 30 53  1  0
 30 54  1  0
 31 55  1  0
M  END
>  <smiles>  (39) 
NS(=O)(=O)c1cccc(/C=C/c2cc3cc(Cl)ccc3c(=O)n2CC2CCNCC2)c1

>  <score_type>  (39) 
oracle

>  <origin>  (39) 
autodockgpu

>  <m_score__min__energy>  (39) 
-9.2899999999999991

>  <m_primary>  (39) 
energy

>  <rmsd>  (39) 
5.999201069849694

>  <m_score__min__rmsd>  (39) 
5.999201069849694

>  <meeko>  (39) 
{"free_energy": -6.66, "intermolecular_energy": -8.75, "internal_energy": -3.52, "cluster_size": 2, "cluster_id": 14, "rank_in_cluster": 1}

>  <energy>  (39) 
-6.36

>  <cluster_rmsd>  (39) 
1.0

>  <cluster>  (39) 
15

$$$$

     RDKit          3D

 55 58  0  0  0  0  0  0  0  0999 V2000
  135.8280   74.0750  223.8160 N   0  0  0  0  0  0  0  0  0  0  0  0
  136.1150   75.2450  222.5740 S   0  0  0  0  0  0  0  0  0  0  0  0
  135.4270   74.8210  221.3010 O   0  0  0  0  0  0  0  0  0  0  0  0
  135.5850   76.5680  223.0230 O   0  0  0  0  0  0  0  0  0  0  0  0
  137.8570   75.3540  222.3500 C   0  0  0  0  0  0  0  0  0  0  0  0
  138.5490   76.5140  222.6280 C   0  0  0  0  0  0  0  0  0  0  0  0
  139.9080   76.4990  222.4180 C   0  0  0  0  0  0  0  0  0  0  0  0
  140.5720   75.3750  221.9460 C   0  0  0  0  0  0  0  0  0  0  0  0
  139.8940   74.2170  221.6670 C   0  0  0  0  0  0  0  0  0  0  0  0
  140.5270   72.9940  221.1650 C   0  0  0  0  0  0  0  0  0  0  0  0
  140.1170   71.7840  221.4150 C   0  0  0  0  0  0  0  0  0  0  0  0
  139.7700   71.1130  222.6240 C   0  0  0  0  0  0  0  0  0  0  0  0
  140.4150   71.5660  223.7910 C   0  0  0  0  0  0  0  0  0  0  0  0
  140.2560   71.0160  225.0180 C   0  0  0  0  0  0  0  0  0  0  0  0
  140.9200   71.5140  226.0990 C   0  0  0  0  0  0  0  0  0  0  0  0
  140.7070   70.8960  227.3200 C   0  0  0  0  0  0  0  0  0  0  0  0
  141.5490   71.5190  228.7200 Cl  0  0  0  0  0  0  0  0  0  0  0  0
  139.8620   69.8180  227.4800 C   0  0  0  0  0  0  0  0  0  0  0  0
  139.1970   69.3260  226.3790 C   0  0  0  0  0  0  0  0  0  0  0  0
  139.4150   69.9450  225.1610 C   0  0  0  0  0  0  0  0  0  0  0  0
  138.7800   69.4950  224.0410 C   0  0  0  0  0  0  0  0  0  0  0  0
  138.0030   68.5020  224.1860 O   0  0  0  0  0  0  0  0  0  0  0  0
  138.9510   70.0650  222.7920 N   0  0  0  0  0  0  0  0  0  0  0  0
  138.2300   69.4060  221.7490 C   0  0  0  0  0  0  0  0  0  0  0  0
  136.9050   69.9620  221.3920 C   0  0  0  0  0  0  0  0  0  0  0  0
  135.8610   69.9380  222.4270 C   0  0  0  0  0  0  0  0  0  0  0  0
  135.6240   71.3630  222.9400 C   0  0  0  0  0  0  0  0  0  0  0  0
  134.8870   72.0530  221.8980 N   0  0  0  0  0  0  0  0  0  0  0  0
  135.6940   72.0600  220.7180 C   0  0  0  0  0  0  0  0  0  0  0  0
  137.0030   71.3640  220.8140 C   0  0  0  0  0  0  0  0  0  0  0  0
  138.5190   74.2400  221.8830 C   0  0  0  0  0  0  0  0  0  0  0  0
  136.6260   73.4050  223.8110 H   0  0  0  0  0  0  0  0  0  0  0  0
  134.9900   73.5260  223.4770 H   0  0  0  0  0  0  0  0  0  0  0  0
  138.0361   77.4125  223.0016 H   0  0  0  0  0  0  0  0  0  0  0  0
  140.4886   77.4086  222.6313 H   0  0  0  0  0  0  0  0  0  0  0  0
  141.6606   75.4144  221.7933 H   0  0  0  0  0  0  0  0  0  0  0  0
  141.4167   73.1073  220.5282 H   0  0  0  0  0  0  0  0  0  0  0  0
  140.0191   71.1561  220.5171 H   0  0  0  0  0  0  0  0  0  0  0  0
  141.0948   72.4259  223.6994 H   0  0  0  0  0  0  0  0  0  0  0  0
  141.5993   72.3741  226.0053 H   0  0  0  0  0  0  0  0  0  0  0  0
  139.7216   69.3591  228.4698 H   0  0  0  0  0  0  0  0  0  0  0  0
  138.5141   68.4680  226.4652 H   0  0  0  0  0  0  0  0  0  0  0  0
  138.8557   69.4332  220.8447 H   0  0  0  0  0  0  0  0  0  0  0  0
  138.0213   68.3987  222.1387 H   0  0  0  0  0  0  0  0  0  0  0  0
  136.5681   69.2449  220.6290 H   0  0  0  0  0  0  0  0  0  0  0  0
  134.9284   69.5415  221.9992 H   0  0  0  0  0  0  0  0  0  0  0  0
  136.1821   69.2950  223.2597 H   0  0  0  0  0  0  0  0  0  0  0  0
  135.0375   71.3404  223.8703 H   0  0  0  0  0  0  0  0  0  0  0  0
  136.5739   71.8715  223.1619 H   0  0  0  0  0  0  0  0  0  0  0  0
  134.6720   73.0260  222.1700 H   0  0  0  0  0  0  0  0  0  0  0  0
  135.1169   71.5799  219.9140 H   0  0  0  0  0  0  0  0  0  0  0  0
  135.9357   73.1171  220.5332 H   0  0  0  0  0  0  0  0  0  0  0  0
  137.4350   71.2948  219.8047 H   0  0  0  0  0  0  0  0  0  0  0  0
  137.6319   71.9521  221.4985 H   0  0  0  0  0  0  0  0  0  0  0  0
  137.9370   73.3308  221.6720 H   0  0  0  0  0  0  0  0  0  0  0  0
  1  2  1  0
  2  3  2  0
  2  4  2  0
  2  5  1  0
  5  6  2  0
  6  7  1  0
  7  8  2  0
  8  9  1  0
  9 10  1  0
 10 11  2  0
 11 12  1  0
 12 13  2  0
 13 14  1  0
 14 15  2  0
 15 16  1  0
 16 17  1  0
 16 18  2  0
 18 19  1  0
 19 20  2  0
 20 21  1  0
 21 22  2  0
 21 23  1  0
 23 24  1  0
 24 25  1  0
 25 26  1  0
 26 27  1  0
 27 28  1  0
 28 29  1  0
 29 30  1  0
  9 31  2  0
 31  5  1  0
 23 12  1  0
 30 25  1  0
 20 14  1  0
  1 32  1  0
  1 33  1  0
  6 34  1  0
  7 35  1  0
  8 36  1  0
 10 37  1  0
 11 38  1  0
 13 39  1  0
 15 40  1  0
 18 41  1  0
 19 42  1  0
 24 43  1  0
 24 44  1  0
 25 45  1  0
 26 46  1  0
 26 47  1  0
 27 48  1  0
 27 49  1  0
 28 50  1  0
 29 51  1  0
 29 52  1  0
 30 53  1  0
 30 54  1  0
 31 55  1  0
M  END
>  <smiles>  (40) 
NS(=O)(=O)c1cccc(/C=C/c2cc3cc(Cl)ccc3c(=O)n2CC2CCNCC2)c1

>  <score_type>  (40) 
oracle

>  <origin>  (40) 
autodockgpu

>  <m_score__min__energy>  (40) 
-9.2899999999999991

>  <m_primary>  (40) 
energy

>  <rmsd>  (40) 
11.028587814848711

>  <m_score__min__rmsd>  (40) 
11.028587814848711

>  <meeko>  (40) 
{"free_energy": -5.96, "intermolecular_energy": -8.04, "internal_energy": -4.04, "cluster_size": 1, "cluster_id": 20, "rank_in_cluster": 1}

>  <energy>  (40) 
-6.55

>  <cluster_rmsd>  (40) 
0.0

>  <cluster>  (40) 
16

$$$$

     RDKit          3D

 55 58  0  0  0  0  0  0  0  0999 V2000
  133.4700   71.5580  223.5420 N   0  0  0  0  0  0  0  0  0  0  0  0
  134.7210   72.1530  224.5800 S   0  0  0  0  0  0  0  0  0  0  0  0
  134.1130   72.8950  225.7430 O   0  0  0  0  0  0  0  0  0  0  0  0
  135.5250   70.9970  225.0780 O   0  0  0  0  0  0  0  0  0  0  0  0
  135.7430   73.2100  223.6140 C   0  0  0  0  0  0  0  0  0  0  0  0
  135.6850   74.5820  223.7410 C   0  0  0  0  0  0  0  0  0  0  0  0
  136.5220   75.3230  222.9400 C   0  0  0  0  0  0  0  0  0  0  0  0
  137.3950   74.7330  222.0360 C   0  0  0  0  0  0  0  0  0  0  0  0
  137.4610   73.3700  221.9010 C   0  0  0  0  0  0  0  0  0  0  0  0
  138.3540   72.6790  220.9680 C   0  0  0  0  0  0  0  0  0  0  0  0
  138.9750   71.5610  221.2180 C   0  0  0  0  0  0  0  0  0  0  0  0
  139.0900   70.7630  222.3930 C   0  0  0  0  0  0  0  0  0  0  0  0
  139.5850   71.4140  223.5380 C   0  0  0  0  0  0  0  0  0  0  0  0
  139.8160   70.8070  224.7260 C   0  0  0  0  0  0  0  0  0  0  0  0
  140.2980   71.5100  225.7900 C   0  0  0  0  0  0  0  0  0  0  0  0
  140.5100   70.8180  226.9700 C   0  0  0  0  0  0  0  0  0  0  0  0
  141.1290   71.7010  228.3470 Cl  0  0  0  0  0  0  0  0  0  0  0  0
  140.2540   69.4700  227.1090 C   0  0  0  0  0  0  0  0  0  0  0  0
  139.7660   68.7720  226.0260 C   0  0  0  0  0  0  0  0  0  0  0  0
  139.5570   69.4670  224.8490 C   0  0  0  0  0  0  0  0  0  0  0  0
  139.0760   68.8220  223.7480 C   0  0  0  0  0  0  0  0  0  0  0  0
  138.8400   67.5800  223.8730 O   0  0  0  0  0  0  0  0  0  0  0  0
  138.8440   69.4530  222.5390 N   0  0  0  0  0  0  0  0  0  0  0  0
  138.3860   68.5790  221.5050 C   0  0  0  0  0  0  0  0  0  0  0  0
  136.9240   68.4980  221.2920 C   0  0  0  0  0  0  0  0  0  0  0  0
  136.1140   67.9220  222.3750 C   0  0  0  0  0  0  0  0  0  0  0  0
  135.3200   69.0390  223.0620 C   0  0  0  0  0  0  0  0  0  0  0  0
  134.2490   69.3980  222.1520 N   0  0  0  0  0  0  0  0  0  0  0  0
  134.8410   69.8620  220.9360 C   0  0  0  0  0  0  0  0  0  0  0  0
  136.3260   69.8310  220.8760 C   0  0  0  0  0  0  0  0  0  0  0  0
  136.6100   72.6290  222.7170 C   0  0  0  0  0  0  0  0  0  0  0  0
  133.2990   70.5600  223.7900 H   0  0  0  0  0  0  0  0  0  0  0  0
  133.9070   71.5440  222.5790 H   0  0  0  0  0  0  0  0  0  0  0  0
  134.9983   75.0633  224.4529 H   0  0  0  0  0  0  0  0  0  0  0  0
  136.4990   76.4200  223.0182 H   0  0  0  0  0  0  0  0  0  0  0  0
  138.0448   75.3697  221.4176 H   0  0  0  0  0  0  0  0  0  0  0  0
  138.5125   73.1387  219.9813 H   0  0  0  0  0  0  0  0  0  0  0  0
  139.5169   71.1531  220.3519 H   0  0  0  0  0  0  0  0  0  0  0  0
  139.7991   72.4903  223.4627 H   0  0  0  0  0  0  0  0  0  0  0  0
  140.5105   72.5866  225.7137 H   0  0  0  0  0  0  0  0  0  0  0  0
  140.4361   68.9613  228.0672 H   0  0  0  0  0  0  0  0  0  0  0  0
  139.5495   67.6958  226.0955 H   0  0  0  0  0  0  0  0  0  0  0  0
  138.8407   68.9147  220.5613 H   0  0  0  0  0  0  0  0  0  0  0  0
  138.6833   67.5712  221.8305 H   0  0  0  0  0  0  0  0  0  0  0  0
  136.8654   67.7675  220.4717 H   0  0  0  0  0  0  0  0  0  0  0  0
  135.4180   67.1791  221.9582 H   0  0  0  0  0  0  0  0  0  0  0  0
  136.7725   67.4331  223.1080 H   0  0  0  0  0  0  0  0  0  0  0  0
  134.9051   68.6801  224.0154 H   0  0  0  0  0  0  0  0  0  0  0  0
  135.9607   69.9047  223.2858 H   0  0  0  0  0  0  0  0  0  0  0  0
  133.6520   70.1420  222.5470 H   0  0  0  0  0  0  0  0  0  0  0  0
  134.4588   69.2359  220.1163 H   0  0  0  0  0  0  0  0  0  0  0  0
  134.5652   70.9242  220.8606 H   0  0  0  0  0  0  0  0  0  0  0  0
  136.6368   70.0441  219.8426 H   0  0  0  0  0  0  0  0  0  0  0  0
  136.6933   70.5853  221.5875 H   0  0  0  0  0  0  0  0  0  0  0  0
  136.6317   71.5318  222.6413 H   0  0  0  0  0  0  0  0  0  0  0  0
  1  2  1  0
  2  3  2  0
  2  4  2  0
  2  5  1  0
  5  6  2  0
  6  7  1  0
  7  8  2  0
  8  9  1  0
  9 10  1  0
 10 11  2  0
 11 12  1  0
 12 13  2  0
 13 14  1  0
 14 15  2  0
 15 16  1  0
 16 17  1  0
 16 18  2  0
 18 19  1  0
 19 20  2  0
 20 21  1  0
 21 22  2  0
 21 23  1  0
 23 24  1  0
 24 25  1  0
 25 26  1  0
 26 27  1  0
 27 28  1  0
 28 29  1  0
 29 30  1  0
  9 31  2  0
 31  5  1  0
 23 12  1  0
 30 25  1  0
 20 14  1  0
  1 32  1  0
  1 33  1  0
  6 34  1  0
  7 35  1  0
  8 36  1  0
 10 37  1  0
 11 38  1  0
 13 39  1  0
 15 40  1  0
 18 41  1  0
 19 42  1  0
 24 43  1  0
 24 44  1  0
 25 45  1  0
 26 46  1  0
 26 47  1  0
 27 48  1  0
 27 49  1  0
 28 50  1  0
 29 51  1  0
 29 52  1  0
 30 53  1  0
 30 54  1  0
 31 55  1  0
M  END
>  <smiles>  (41) 
NS(=O)(=O)c1cccc(/C=C/c2cc3cc(Cl)ccc3c(=O)n2CC2CCNCC2)c1

>  <score_type>  (41) 
oracle

>  <origin>  (41) 
autodockgpu

>  <m_score__min__energy>  (41) 
-9.2899999999999991

>  <m_primary>  (41) 
energy

>  <rmsd>  (41) 
11.564104302875341

>  <m_score__min__rmsd>  (41) 
11.564104302875341

>  <meeko>  (41) 
{"free_energy": -5.41, "intermolecular_energy": -7.5, "internal_energy": -4.31, "cluster_size": 1, "cluster_id": 22, "rank_in_cluster": 1}

>  <energy>  (41) 
-6.46

>  <cluster_rmsd>  (41) 
0.0

>  <cluster>  (41) 
17

$$$$

     RDKit          3D

 55 58  0  0  0  0  0  0  0  0999 V2000
  139.7520   68.3260  227.7320 N   0  0  0  0  0  0  0  0  0  0  0  0
  140.3460   68.1560  226.1150 S   0  0  0  0  0  0  0  0  0  0  0  0
  141.8360   68.3890  226.0900 O   0  0  0  0  0  0  0  0  0  0  0  0
  140.0380   66.7780  225.6290 O   0  0  0  0  0  0  0  0  0  0  0  0
  139.5010   69.3360  225.1210 C   0  0  0  0  0  0  0  0  0  0  0  0
  138.1260   69.3260  225.0020 C   0  0  0  0  0  0  0  0  0  0  0  0
  137.5600   70.2880  224.1990 C   0  0  0  0  0  0  0  0  0  0  0  0
  138.3200   71.2360  223.5280 C   0  0  0  0  0  0  0  0  0  0  0  0
  139.6870   71.2540  223.6390 C   0  0  0  0  0  0  0  0  0  0  0  0
  140.5540   72.2210  222.9600 C   0  0  0  0  0  0  0  0  0  0  0  0
  140.1680   73.0440  222.0280 C   0  0  0  0  0  0  0  0  0  0  0  0
  140.7850   74.1800  221.4280 C   0  0  0  0  0  0  0  0  0  0  0  0
  140.4390   75.4320  221.9710 C   0  0  0  0  0  0  0  0  0  0  0  0
  140.8780   76.6220  221.4970 C   0  0  0  0  0  0  0  0  0  0  0  0
  140.4950   77.7930  222.0810 C   0  0  0  0  0  0  0  0  0  0  0  0
  140.9850   78.9680  221.5370 C   0  0  0  0  0  0  0  0  0  0  0  0
  140.5060   80.4810  222.2700 Cl  0  0  0  0  0  0  0  0  0  0  0  0
  141.8320   78.9980  220.4490 C   0  0  0  0  0  0  0  0  0  0  0  0
  142.2120   77.8080  219.8700 C   0  0  0  0  0  0  0  0  0  0  0  0
  141.7190   76.6360  220.4150 C   0  0  0  0  0  0  0  0  0  0  0  0
  142.0650   75.4310  219.8780 C   0  0  0  0  0  0  0  0  0  0  0  0
  142.8430   75.4570  218.8760 O   0  0  0  0  0  0  0  0  0  0  0  0
  141.6090   74.2220  220.3710 N   0  0  0  0  0  0  0  0  0  0  0  0
  142.0550   73.0860  219.6270 C   0  0  0  0  0  0  0  0  0  0  0  0
  143.4610   72.6650  219.8220 C   0  0  0  0  0  0  0  0  0  0  0  0
  144.2300   72.3020  218.6230 C   0  0  0  0  0  0  0  0  0  0  0  0
  145.2570   73.4010  218.3290 C   0  0  0  0  0  0  0  0  0  0  0  0
  146.3070   73.2510  219.3190 N   0  0  0  0  0  0  0  0  0  0  0  0
  145.7220   73.4280  220.6120 C   0  0  0  0  0  0  0  0  0  0  0  0
  144.2560   73.6660  220.6420 C   0  0  0  0  0  0  0  0  0  0  0  0
  140.2520   70.2780  224.4550 C   0  0  0  0  0  0  0  0  0  0  0  0
  139.5370   67.3710  228.0930 H   0  0  0  0  0  0  0  0  0  0  0  0
  138.8170   68.8090  227.6230 H   0  0  0  0  0  0  0  0  0  0  0  0
  137.5098   68.5810  225.5266 H   0  0  0  0  0  0  0  0  0  0  0  0
  136.4662   70.3070  224.0843 H   0  0  0  0  0  0  0  0  0  0  0  0
  137.8182   71.9846  222.8973 H   0  0  0  0  0  0  0  0  0  0  0  0
  141.6116   72.2540  223.2608 H   0  0  0  0  0  0  0  0  0  0  0  0
  139.1699   72.8183  221.6245 H   0  0  0  0  0  0  0  0  0  0  0  0
  139.7654   75.4444  222.8405 H   0  0  0  0  0  0  0  0  0  0  0  0
  139.8223   77.8037  222.9512 H   0  0  0  0  0  0  0  0  0  0  0  0
  142.1976   79.9560  220.0507 H   0  0  0  0  0  0  0  0  0  0  0  0
  142.8865   77.7898  219.0013 H   0  0  0  0  0  0  0  0  0  0  0  0
  141.4129   72.2362  219.9020 H   0  0  0  0  0  0  0  0  0  0  0  0
  141.9920   73.3923  218.5724 H   0  0  0  0  0  0  0  0  0  0  0  0
  143.3297   71.7223  220.3735 H   0  0  0  0  0  0  0  0  0  0  0  0
  144.7509   71.3486  218.7951 H   0  0  0  0  0  0  0  0  0  0  0  0
  143.5486   72.1952  217.7661 H   0  0  0  0  0  0  0  0  0  0  0  0
  145.6678   73.2776  217.3161 H   0  0  0  0  0  0  0  0  0  0  0  0
  144.7995   74.4001  218.3790 H   0  0  0  0  0  0  0  0  0  0  0  0
  147.0540   73.9520  219.1840 H   0  0  0  0  0  0  0  0  0  0  0  0
  145.9268   72.5211  221.1999 H   0  0  0  0  0  0  0  0  0  0  0  0
  146.1770   74.3435  221.0180 H   0  0  0  0  0  0  0  0  0  0  0  0
  143.9156   73.6085  221.6864 H   0  0  0  0  0  0  0  0  0  0  0  0
  144.0809   74.6575  220.1991 H   0  0  0  0  0  0  0  0  0  0  0  0
  141.3455   70.2587  224.5727 H   0  0  0  0  0  0  0  0  0  0  0  0
  1  2  1  0
  2  3  2  0
  2  4  2  0
  2  5  1  0
  5  6  2  0
  6  7  1  0
  7  8  2  0
  8  9  1  0
  9 10  1  0
 10 11  2  0
 11 12  1  0
 12 13  2  0
 13 14  1  0
 14 15  2  0
 15 16  1  0
 16 17  1  0
 16 18  2  0
 18 19  1  0
 19 20  2  0
 20 21  1  0
 21 22  2  0
 21 23  1  0
 23 24  1  0
 24 25  1  0
 25 26  1  0
 26 27  1  0
 27 28  1  0
 28 29  1  0
 29 30  1  0
  9 31  2  0
 31  5  1  0
 23 12  1  0
 30 25  1  0
 20 14  1  0
  1 32  1  0
  1 33  1  0
  6 34  1  0
  7 35  1  0
  8 36  1  0
 10 37  1  0
 11 38  1  0
 13 39  1  0
 15 40  1  0
 18 41  1  0
 19 42  1  0
 24 43  1  0
 24 44  1  0
 25 45  1  0
 26 46  1  0
 26 47  1  0
 27 48  1  0
 27 49  1  0
 28 50  1  0
 29 51  1  0
 29 52  1  0
 30 53  1  0
 30 54  1  0
 31 55  1  0
M  END
>  <smiles>  (42) 
NS(=O)(=O)c1cccc(/C=C/c2cc3cc(Cl)ccc3c(=O)n2CC2CCNCC2)c1

>  <score_type>  (42) 
oracle

>  <origin>  (42) 
autodockgpu

>  <m_score__min__energy>  (42) 
-9.2899999999999991

>  <m_primary>  (42) 
energy

>  <rmsd>  (42) 
5.455981480639736

>  <m_score__min__rmsd>  (42) 
5.455981480639736

>  <meeko>  (42) 
{"free_energy": -8.73, "intermolecular_energy": -10.82, "internal_energy": -1.1, "cluster_size": 6, "cluster_id": 1, "rank_in_cluster": 6}

>  <energy>  (42) 
-6.45

>  <cluster_rmsd>  (42) 
0.57

>  <cluster>  (42) 
17

$$$$

     RDKit          3D

 55 58  0  0  0  0  0  0  0  0999 V2000
  142.9560   79.9220  217.4990 N   0  0  0  0  0  0  0  0  0  0  0  0
  141.5660   80.9140  217.7780 S   0  0  0  0  0  0  0  0  0  0  0  0
  141.6130   82.1260  216.8810 O   0  0  0  0  0  0  0  0  0  0  0  0
  140.3360   80.1160  217.4920 O   0  0  0  0  0  0  0  0  0  0  0  0
  141.5870   81.3780  219.4750 C   0  0  0  0  0  0  0  0  0  0  0  0
  141.1740   82.6280  219.8870 C   0  0  0  0  0  0  0  0  0  0  0  0
  141.2300   82.8950  221.2340 C   0  0  0  0  0  0  0  0  0  0  0  0
  141.6800   81.9610  222.1570 C   0  0  0  0  0  0  0  0  0  0  0  0
  142.0930   80.7150  221.7590 C   0  0  0  0  0  0  0  0  0  0  0  0
  142.5830   79.6800  222.6730 C   0  0  0  0  0  0  0  0  0  0  0  0
  141.8730   78.6850  223.1240 C   0  0  0  0  0  0  0  0  0  0  0  0
  140.5390   78.2570  222.8650 C   0  0  0  0  0  0  0  0  0  0  0  0
  139.5170   79.1400  223.2610 C   0  0  0  0  0  0  0  0  0  0  0  0
  138.1930   78.8810  223.1500 C   0  0  0  0  0  0  0  0  0  0  0  0
  137.2650   79.7920  223.5580 C   0  0  0  0  0  0  0  0  0  0  0  0
  135.9300   79.4530  223.4130 C   0  0  0  0  0  0  0  0  0  0  0  0
  134.7230   80.6070  223.9310 Cl  0  0  0  0  0  0  0  0  0  0  0  0
  135.5120   78.2520  222.8790 C   0  0  0  0  0  0  0  0  0  0  0  0
  136.4610   77.3420  222.4700 C   0  0  0  0  0  0  0  0  0  0  0  0
  137.7930   77.6840  222.6180 C   0  0  0  0  0  0  0  0  0  0  0  0
  138.7710   76.8170  222.2280 C   0  0  0  0  0  0  0  0  0  0  0  0
  138.3880   75.7110  221.7370 O   0  0  0  0  0  0  0  0  0  0  0  0
  140.1210   77.0930  222.3470 N   0  0  0  0  0  0  0  0  0  0  0  0
  140.9720   76.0260  221.9240 C   0  0  0  0  0  0  0  0  0  0  0  0
  141.3370   75.9860  220.4900 C   0  0  0  0  0  0  0  0  0  0  0  0
  140.2440   76.0820  219.5110 C   0  0  0  0  0  0  0  0  0  0  0  0
  140.2870   77.4590  218.8400 C   0  0  0  0  0  0  0  0  0  0  0  0
  141.4070   77.4280  217.9180 N   0  0  0  0  0  0  0  0  0  0  0  0
  142.5950   77.1900  218.6760 C   0  0  0  0  0  0  0  0  0  0  0  0
  142.4140   76.9990  220.1390 C   0  0  0  0  0  0  0  0  0  0  0  0
  142.0320   80.4530  220.3930 C   0  0  0  0  0  0  0  0  0  0  0  0
  143.8020   80.5050  217.6740 H   0  0  0  0  0  0  0  0  0  0  0  0
  142.9460   79.7360  216.4580 H   0  0  0  0  0  0  0  0  0  0  0  0
  140.8151   83.3791  219.1680 H   0  0  0  0  0  0  0  0  0  0  0  0
  140.9070   83.8833  221.5932 H   0  0  0  0  0  0  0  0  0  0  0  0
  141.7058   82.2243  223.2247 H   0  0  0  0  0  0  0  0  0  0  0  0
  143.6299   79.7482  223.0036 H   0  0  0  0  0  0  0  0  0  0  0  0
  142.4084   78.0512  223.8462 H   0  0  0  0  0  0  0  0  0  0  0  0
  139.8149   80.1079  223.6906 H   0  0  0  0  0  0  0  0  0  0  0  0
  137.5650   80.7598  223.9862 H   0  0  0  0  0  0  0  0  0  0  0  0
  134.4400   78.0252  222.7816 H   0  0  0  0  0  0  0  0  0  0  0  0
  136.1689   76.3731  222.0389 H   0  0  0  0  0  0  0  0  0  0  0  0
  141.9051   76.0966  222.5021 H   0  0  0  0  0  0  0  0  0  0  0  0
  140.3883   75.1096  222.0960 H   0  0  0  0  0  0  0  0  0  0  0  0
  141.7176   74.9586  220.3925 H   0  0  0  0  0  0  0  0  0  0  0  0
  140.3629   75.2977  218.7490 H   0  0  0  0  0  0  0  0  0  0  0  0
  139.2785   75.9499  220.0213 H   0  0  0  0  0  0  0  0  0  0  0  0
  139.3501   77.6465  218.2950 H   0  0  0  0  0  0  0  0  0  0  0  0
  140.4027   78.2622  219.5826 H   0  0  0  0  0  0  0  0  0  0  0  0
  141.5010   78.3220  217.4090 H   0  0  0  0  0  0  0  0  0  0  0  0
  143.0721   76.2832  218.2759 H   0  0  0  0  0  0  0  0  0  0  0  0
  143.1984   78.1038  218.5713 H   0  0  0  0  0  0  0  0  0  0  0  0
  143.3677   76.6550  220.5657 H   0  0  0  0  0  0  0  0  0  0  0  0
  142.0955   77.9665  220.5544 H   0  0  0  0  0  0  0  0  0  0  0  0
  142.3530   79.4649  220.0316 H   0  0  0  0  0  0  0  0  0  0  0  0
  1  2  1  0
  2  3  2  0
  2  4  2  0
  2  5  1  0
  5  6  2  0
  6  7  1  0
  7  8  2  0
  8  9  1  0
  9 10  1  0
 10 11  2  0
 11 12  1  0
 12 13  2  0
 13 14  1  0
 14 15  2  0
 15 16  1  0
 16 17  1  0
 16 18  2  0
 18 19  1  0
 19 20  2  0
 20 21  1  0
 21 22  2  0
 21 23  1  0
 23 24  1  0
 24 25  1  0
 25 26  1  0
 26 27  1  0
 27 28  1  0
 28 29  1  0
 29 30  1  0
  9 31  2  0
 31  5  1  0
 23 12  1  0
 30 25  1  0
 20 14  1  0
  1 32  1  0
  1 33  1  0
  6 34  1  0
  7 35  1  0
  8 36  1  0
 10 37  1  0
 11 38  1  0
 13 39  1  0
 15 40  1  0
 18 41  1  0
 19 42  1  0
 24 43  1  0
 24 44  1  0
 25 45  1  0
 26 46  1  0
 26 47  1  0
 27 48  1  0
 27 49  1  0
 28 50  1  0
 29 51  1  0
 29 52  1  0
 30 53  1  0
 30 54  1  0
 31 55  1  0
M  END
>  <smiles>  (43) 
NS(=O)(=O)c1cccc(/C=C/c2cc3cc(Cl)ccc3c(=O)n2CC2CCNCC2)c1

>  <score_type>  (43) 
oracle

>  <origin>  (43) 
autodockgpu

>  <m_score__min__energy>  (43) 
-9.2899999999999991

>  <m_primary>  (43) 
energy

>  <rmsd>  (43) 
3.933237441137138

>  <m_score__min__rmsd>  (43) 
3.933237441137138

>  <meeko>  (43) 
{"free_energy": -6.45, "intermolecular_energy": -8.53, "internal_energy": -3.77, "cluster_size": 5, "cluster_id": 17, "rank_in_cluster": 2}

>  <energy>  (43) 
-6.09

>  <cluster_rmsd>  (43) 
0.37

>  <cluster>  (43) 
17

$$$$

     RDKit          3D

 55 58  0  0  0  0  0  0  0  0999 V2000
  141.4410   70.1450  228.3400 N   0  0  0  0  0  0  0  0  0  0  0  0
  140.8560   71.5530  227.5220 S   0  0  0  0  0  0  0  0  0  0  0  0
  139.7790   72.2140  228.3450 O   0  0  0  0  0  0  0  0  0  0  0  0
  141.9930   72.5000  227.3160 O   0  0  0  0  0  0  0  0  0  0  0  0
  140.2340   71.0300  225.9610 C   0  0  0  0  0  0  0  0  0  0  0  0
  139.3780   69.9550  225.8500 C   0  0  0  0  0  0  0  0  0  0  0  0
  138.9490   69.6230  224.5860 C   0  0  0  0  0  0  0  0  0  0  0  0
  139.3490   70.3270  223.4590 C   0  0  0  0  0  0  0  0  0  0  0  0
  140.2000   71.3980  223.5580 C   0  0  0  0  0  0  0  0  0  0  0  0
  140.6670   72.1860  222.4150 C   0  0  0  0  0  0  0  0  0  0  0  0
  140.1220   73.2930  221.9980 C   0  0  0  0  0  0  0  0  0  0  0  0
  140.6700   74.5260  221.5400 C   0  0  0  0  0  0  0  0  0  0  0  0
  140.2810   75.6780  222.2500 C   0  0  0  0  0  0  0  0  0  0  0  0
  140.6530   76.9400  221.9290 C   0  0  0  0  0  0  0  0  0  0  0  0
  140.2320   78.0040  222.6690 C   0  0  0  0  0  0  0  0  0  0  0  0
  140.6530   79.2630  222.2750 C   0  0  0  0  0  0  0  0  0  0  0  0
  140.1240   80.6420  223.2110 Cl  0  0  0  0  0  0  0  0  0  0  0  0
  141.4690   79.4760  221.1840 C   0  0  0  0  0  0  0  0  0  0  0  0
  141.8870   78.3920  220.4460 C   0  0  0  0  0  0  0  0  0  0  0  0
  141.4630   77.1360  220.8420 C   0  0  0  0  0  0  0  0  0  0  0  0
  141.8500   76.0300  220.1440 C   0  0  0  0  0  0  0  0  0  0  0  0
  142.6000   76.2250  219.1380 O   0  0  0  0  0  0  0  0  0  0  0  0
  141.4630   74.7460  220.4820 N   0  0  0  0  0  0  0  0  0  0  0  0
  141.9410   73.7400  219.5860 C   0  0  0  0  0  0  0  0  0  0  0  0
  143.2880   73.1880  219.8540 C   0  0  0  0  0  0  0  0  0  0  0  0
  143.9730   72.5100  218.7430 C   0  0  0  0  0  0  0  0  0  0  0  0
  145.1210   73.3940  218.2430 C   0  0  0  0  0  0  0  0  0  0  0  0
  146.1710   73.3010  219.2400 N   0  0  0  0  0  0  0  0  0  0  0  0
  145.6480   73.7910  220.4770 C   0  0  0  0  0  0  0  0  0  0  0  0
  144.2240   74.2160  220.4650 C   0  0  0  0  0  0  0  0  0  0  0  0
  140.6290   71.7270  224.8410 C   0  0  0  0  0  0  0  0  0  0  0  0
  142.1890   70.4490  228.9990 H   0  0  0  0  0  0  0  0  0  0  0  0
  141.9300   69.5840  227.5890 H   0  0  0  0  0  0  0  0  0  0  0  0
  139.0522   69.3873  226.7341 H   0  0  0  0  0  0  0  0  0  0  0  0
  138.2652   68.7700  224.4643 H   0  0  0  0  0  0  0  0  0  0  0  0
  138.9774   70.0210  222.4699 H   0  0  0  0  0  0  0  0  0  0  0  0
  141.5453   71.8144  221.8668 H   0  0  0  0  0  0  0  0  0  0  0  0
  139.0222   73.2719  221.9997 H   0  0  0  0  0  0  0  0  0  0  0  0
  139.6297   75.5436  223.1262 H   0  0  0  0  0  0  0  0  0  0  0  0
  139.5823   77.8679  223.5462 H   0  0  0  0  0  0  0  0  0  0  0  0
  141.7804   80.4944  220.9084 H   0  0  0  0  0  0  0  0  0  0  0  0
  142.5379   78.5203  219.5686 H   0  0  0  0  0  0  0  0  0  0  0  0
  141.2275   72.9033  219.6150 H   0  0  0  0  0  0  0  0  0  0  0  0
  142.0263   74.2422  218.6111 H   0  0  0  0  0  0  0  0  0  0  0  0
  143.0553   72.3917  220.5763 H   0  0  0  0  0  0  0  0  0  0  0  0
  144.3751   71.5473  219.0916 H   0  0  0  0  0  0  0  0  0  0  0  0
  143.2607   72.3316  217.9240 H   0  0  0  0  0  0  0  0  0  0  0  0
  145.4857   73.0308  217.2708 H   0  0  0  0  0  0  0  0  0  0  0  0
  144.7928   74.4347  218.1041 H   0  0  0  0  0  0  0  0  0  0  0  0
  146.9950   73.8630  218.9710 H   0  0  0  0  0  0  0  0  0  0  0  0
  145.7535   72.9922  221.2259 H   0  0  0  0  0  0  0  0  0  0  0  0
  146.2247   74.7006  220.7007 H   0  0  0  0  0  0  0  0  0  0  0  0
  143.9076   74.4014  221.5021 H   0  0  0  0  0  0  0  0  0  0  0  0
  144.1623   75.1197  219.8409 H   0  0  0  0  0  0  0  0  0  0  0  0
  141.3125   72.5799  224.9653 H   0  0  0  0  0  0  0  0  0  0  0  0
  1  2  1  0
  2  3  2  0
  2  4  2  0
  2  5  1  0
  5  6  2  0
  6  7  1  0
  7  8  2  0
  8  9  1  0
  9 10  1  0
 10 11  2  0
 11 12  1  0
 12 13  2  0
 13 14  1  0
 14 15  2  0
 15 16  1  0
 16 17  1  0
 16 18  2  0
 18 19  1  0
 19 20  2  0
 20 21  1  0
 21 22  2  0
 21 23  1  0
 23 24  1  0
 24 25  1  0
 25 26  1  0
 26 27  1  0
 27 28  1  0
 28 29  1  0
 29 30  1  0
  9 31  2  0
 31  5  1  0
 23 12  1  0
 30 25  1  0
 20 14  1  0
  1 32  1  0
  1 33  1  0
  6 34  1  0
  7 35  1  0
  8 36  1  0
 10 37  1  0
 11 38  1  0
 13 39  1  0
 15 40  1  0
 18 41  1  0
 19 42  1  0
 24 43  1  0
 24 44  1  0
 25 45  1  0
 26 46  1  0
 26 47  1  0
 27 48  1  0
 27 49  1  0
 28 50  1  0
 29 51  1  0
 29 52  1  0
 30 53  1  0
 30 54  1  0
 31 55  1  0
M  END
>  <smiles>  (44) 
NS(=O)(=O)c1cccc(/C=C/c2cc3cc(Cl)ccc3c(=O)n2CC2CCNCC2)c1

>  <score_type>  (44) 
oracle

>  <origin>  (44) 
autodockgpu

>  <m_score__min__energy>  (44) 
-9.2899999999999991

>  <m_primary>  (44) 
energy

>  <rmsd>  (44) 
5.1258058389745464

>  <m_score__min__rmsd>  (44) 
5.1258058389745464

>  <meeko>  (44) 
{"free_energy": -9.29, "intermolecular_energy": -11.38, "internal_energy": -1.22, "cluster_size": 6, "cluster_id": 1, "rank_in_cluster": 1}

>  <energy>  (44) 
-5.97

>  <cluster_rmsd>  (44) 
0.44

>  <cluster>  (44) 
17

$$$$

     RDKit          3D

 55 58  0  0  0  0  0  0  0  0999 V2000
  141.4610   69.9190  228.3640 N   0  0  0  0  0  0  0  0  0  0  0  0
  140.7800   71.3010  227.5770 S   0  0  0  0  0  0  0  0  0  0  0  0
  139.6750   71.8810  228.4230 O   0  0  0  0  0  0  0  0  0  0  0  0
  141.8540   72.3200  227.3740 O   0  0  0  0  0  0  0  0  0  0  0  0
  140.1720   70.7670  226.0150 C   0  0  0  0  0  0  0  0  0  0  0  0
  139.3900   69.6370  225.8940 C   0  0  0  0  0  0  0  0  0  0  0  0
  138.9660   69.3000  224.6290 C   0  0  0  0  0  0  0  0  0  0  0  0
  139.2990   70.0520  223.5120 C   0  0  0  0  0  0  0  0  0  0  0  0
  140.0760   71.1770  223.6200 C   0  0  0  0  0  0  0  0  0  0  0  0
  140.4700   72.0170  222.4860 C   0  0  0  0  0  0  0  0  0  0  0  0
  140.0800   73.2450  222.2960 C   0  0  0  0  0  0  0  0  0  0  0  0
  140.6860   74.3600  221.6470 C   0  0  0  0  0  0  0  0  0  0  0  0
  140.4350   75.6210  222.2190 C   0  0  0  0  0  0  0  0  0  0  0  0
  140.8770   76.7960  221.7110 C   0  0  0  0  0  0  0  0  0  0  0  0
  140.5900   77.9780  222.3280 C   0  0  0  0  0  0  0  0  0  0  0  0
  141.0760   79.1360  221.7460 C   0  0  0  0  0  0  0  0  0  0  0  0
  140.7190   80.6630  222.5200 Cl  0  0  0  0  0  0  0  0  0  0  0  0
  141.8270   79.1400  220.5890 C   0  0  0  0  0  0  0  0  0  0  0  0
  142.1100   77.9390  219.9780 C   0  0  0  0  0  0  0  0  0  0  0  0
  141.6210   76.7840  220.5620 C   0  0  0  0  0  0  0  0  0  0  0  0
  141.8740   75.5690  219.9950 C   0  0  0  0  0  0  0  0  0  0  0  0
  142.5640   75.5710  218.9290 O   0  0  0  0  0  0  0  0  0  0  0  0
  141.4170   74.3760  220.5230 N   0  0  0  0  0  0  0  0  0  0  0  0
  141.7540   73.2270  219.7420 C   0  0  0  0  0  0  0  0  0  0  0  0
  143.1450   72.7300  219.8440 C   0  0  0  0  0  0  0  0  0  0  0  0
  143.8240   72.3640  218.5920 C   0  0  0  0  0  0  0  0  0  0  0  0
  144.8890   73.4180  218.2680 C   0  0  0  0  0  0  0  0  0  0  0  0
  145.9850   73.1870  219.1900 N   0  0  0  0  0  0  0  0  0  0  0  0
  145.4850   73.3550  220.5190 C   0  0  0  0  0  0  0  0  0  0  0  0
  144.0370   73.6660  220.6410 C   0  0  0  0  0  0  0  0  0  0  0  0
  140.5000   71.5110  224.9040 C   0  0  0  0  0  0  0  0  0  0  0  0
  142.2070   70.2570  229.0100 H   0  0  0  0  0  0  0  0  0  0  0  0
  141.9630   69.3940  227.5950 H   0  0  0  0  0  0  0  0  0  0  0  0
  139.1172   69.0315  226.7709 H   0  0  0  0  0  0  0  0  0  0  0  0
  138.3417   68.4037  224.4992 H   0  0  0  0  0  0  0  0  0  0  0  0
  138.9335   69.7406  222.5223 H   0  0  0  0  0  0  0  0  0  0  0  0
  141.1465   71.5771  221.7384 H   0  0  0  0  0  0  0  0  0  0  0  0
  139.0888   73.4647  222.7193 H   0  0  0  0  0  0  0  0  0  0  0  0
  139.8385   75.6546  223.1426 H   0  0  0  0  0  0  0  0  0  0  0  0
  139.9951   78.0098  223.2527 H   0  0  0  0  0  0  0  0  0  0  0  0
  142.1931   80.0854  220.1623 H   0  0  0  0  0  0  0  0  0  0  0  0
  142.7062   77.8991  219.0545 H   0  0  0  0  0  0  0  0  0  0  0  0
  141.0859   72.4090  220.0495 H   0  0  0  0  0  0  0  0  0  0  0  0
  141.6414   73.5490  218.6962 H   0  0  0  0  0  0  0  0  0  0  0  0
  142.9970   71.7800  220.3785 H   0  0  0  0  0  0  0  0  0  0  0  0
  144.3031   71.3806  218.7074 H   0  0  0  0  0  0  0  0  0  0  0  0
  143.0900   72.3174  217.7740 H   0  0  0  0  0  0  0  0  0  0  0  0
  145.2343   73.3038  217.2299 H   0  0  0  0  0  0  0  0  0  0  0  0
  144.4875   74.4368  218.3719 H   0  0  0  0  0  0  0  0  0  0  0  0
  146.7580   73.8520  219.0300 H   0  0  0  0  0  0  0  0  0  0  0  0
  145.6754   72.4219  221.0696 H   0  0  0  0  0  0  0  0  0  0  0  0
  146.0097   74.2338  220.9219 H   0  0  0  0  0  0  0  0  0  0  0  0
  143.7545   73.5963  221.7018 H   0  0  0  0  0  0  0  0  0  0  0  0
  143.8888   74.6772  220.2343 H   0  0  0  0  0  0  0  0  0  0  0  0
  141.1236   72.4075  225.0360 H   0  0  0  0  0  0  0  0  0  0  0  0
  1  2  1  0
  2  3  2  0
  2  4  2  0
  2  5  1  0
  5  6  2  0
  6  7  1  0
  7  8  2  0
  8  9  1  0
  9 10  1  0
 10 11  2  0
 11 12  1  0
 12 13  2  0
 13 14  1  0
 14 15  2  0
 15 16  1  0
 16 17  1  0
 16 18  2  0
 18 19  1  0
 19 20  2  0
 20 21  1  0
 21 22  2  0
 21 23  1  0
 23 24  1  0
 24 25  1  0
 25 26  1  0
 26 27  1  0
 27 28  1  0
 28 29  1  0
 29 30  1  0
  9 31  2  0
 31  5  1  0
 23 12  1  0
 30 25  1  0
 20 14  1  0
  1 32  1  0
  1 33  1  0
  6 34  1  0
  7 35  1  0
  8 36  1  0
 10 37  1  0
 11 38  1  0
 13 39  1  0
 15 40  1  0
 18 41  1  0
 19 42  1  0
 24 43  1  0
 24 44  1  0
 25 45  1  0
 26 46  1  0
 26 47  1  0
 27 48  1  0
 27 49  1  0
 28 50  1  0
 29 51  1  0
 29 52  1  0
 30 53  1  0
 30 54  1  0
 31 55  1  0
M  END
>  <smiles>  (45) 
NS(=O)(=O)c1cccc(/C=C/c2cc3cc(Cl)ccc3c(=O)n2CC2CCNCC2)c1

>  <score_type>  (45) 
oracle

>  <origin>  (45) 
autodockgpu

>  <m_score__min__energy>  (45) 
-9.2899999999999991

>  <m_primary>  (45) 
energy

>  <rmsd>  (45) 
5.216761460677981

>  <m_score__min__rmsd>  (45) 
5.216761460677981

>  <meeko>  (45) 
{"free_energy": -9.03, "intermolecular_energy": -11.12, "internal_energy": -1.2, "cluster_size": 6, "cluster_id": 1, "rank_in_cluster": 4}

>  <energy>  (45) 
-5.95

>  <cluster_rmsd>  (45) 
0.94

>  <cluster>  (45) 
17

$$$$

     RDKit          3D

 55 58  0  0  0  0  0  0  0  0999 V2000
  146.3090   71.5680  220.0690 N   0  0  0  0  0  0  0  0  0  0  0  0
  145.9240   73.2110  219.6810 S   0  0  0  0  0  0  0  0  0  0  0  0
  146.8570   74.1420  220.4150 O   0  0  0  0  0  0  0  0  0  0  0  0
  146.0660   73.4050  218.2070 O   0  0  0  0  0  0  0  0  0  0  0  0
  144.2520   73.4820  220.1550 C   0  0  0  0  0  0  0  0  0  0  0  0
  143.4300   72.4390  220.5280 C   0  0  0  0  0  0  0  0  0  0  0  0
  142.1380   72.7540  220.8780 C   0  0  0  0  0  0  0  0  0  0  0  0
  141.6620   74.0570  220.8630 C   0  0  0  0  0  0  0  0  0  0  0  0
  142.4710   75.1020  220.4940 C   0  0  0  0  0  0  0  0  0  0  0  0
  142.0390   76.5010  220.4520 C   0  0  0  0  0  0  0  0  0  0  0  0
  140.8070   76.8980  220.3090 C   0  0  0  0  0  0  0  0  0  0  0  0
  139.6770   76.8680  221.1770 C   0  0  0  0  0  0  0  0  0  0  0  0
  139.0040   75.6350  221.2750 C   0  0  0  0  0  0  0  0  0  0  0  0
  137.8810   75.4300  222.0030 C   0  0  0  0  0  0  0  0  0  0  0  0
  137.2890   74.2030  222.0450 C   0  0  0  0  0  0  0  0  0  0  0  0
  136.1420   74.0730  222.8100 C   0  0  0  0  0  0  0  0  0  0  0  0
  135.3660   72.5070  222.8780 Cl  0  0  0  0  0  0  0  0  0  0  0  0
  135.5870   75.1180  223.5180 C   0  0  0  0  0  0  0  0  0  0  0  0
  136.1970   76.3520  223.4670 C   0  0  0  0  0  0  0  0  0  0  0  0
  137.3410   76.4780  222.7010 C   0  0  0  0  0  0  0  0  0  0  0  0
  137.9820   77.6790  222.6170 C   0  0  0  0  0  0  0  0  0  0  0  0
  137.4720   78.6420  223.2680 O   0  0  0  0  0  0  0  0  0  0  0  0
  139.1290   77.8770  221.8700 N   0  0  0  0  0  0  0  0  0  0  0  0
  139.6060   79.2240  221.8820 C   0  0  0  0  0  0  0  0  0  0  0  0
  140.4900   79.6140  223.0040 C   0  0  0  0  0  0  0  0  0  0  0  0
  141.6640   78.7680  223.2640 C   0  0  0  0  0  0  0  0  0  0  0  0
  142.9310   79.5140  222.8300 C   0  0  0  0  0  0  0  0  0  0  0  0
  143.1660   80.5340  223.8340 N   0  0  0  0  0  0  0  0  0  0  0  0
  142.0350   81.4090  223.8480 C   0  0  0  0  0  0  0  0  0  0  0  0
  140.9290   81.0650  222.9170 C   0  0  0  0  0  0  0  0  0  0  0  0
  143.7770   74.7740  220.1420 C   0  0  0  0  0  0  0  0  0  0  0  0
  145.4120   71.0410  220.1400 H   0  0  0  0  0  0  0  0  0  0  0  0
  146.6970   71.6100  221.0520 H   0  0  0  0  0  0  0  0  0  0  0  0
  143.7922   71.4005  220.5447 H   0  0  0  0  0  0  0  0  0  0  0  0
  141.4579   71.9442  221.1806 H   0  0  0  0  0  0  0  0  0  0  0  0
  140.6193   74.2556  221.1516 H   0  0  0  0  0  0  0  0  0  0  0  0
  142.8143   77.2753  220.5486 H   0  0  0  0  0  0  0  0  0  0  0  0
  140.5974   77.3439  219.3255 H   0  0  0  0  0  0  0  0  0  0  0  0
  139.4192   74.7795  220.7220 H   0  0  0  0  0  0  0  0  0  0  0  0
  137.7065   73.3485  221.4922 H   0  0  0  0  0  0  0  0  0  0  0  0
  134.6737   74.9689  224.1127 H   0  0  0  0  0  0  0  0  0  0  0  0
  135.7866   77.2106  224.0187 H   0  0  0  0  0  0  0  0  0  0  0  0
  140.1638   79.3869  220.9480 H   0  0  0  0  0  0  0  0  0  0  0  0
  138.7055   79.8449  221.9986 H   0  0  0  0  0  0  0  0  0  0  0  0
  139.8265   79.4561  223.8671 H   0  0  0  0  0  0  0  0  0  0  0  0
  141.7218   78.5395  224.3385 H   0  0  0  0  0  0  0  0  0  0  0  0
  141.5756   77.8299  222.6965 H   0  0  0  0  0  0  0  0  0  0  0  0
  143.7841   78.8212  222.7838 H   0  0  0  0  0  0  0  0  0  0  0  0
  142.8119   79.9567  221.8301 H   0  0  0  0  0  0  0  0  0  0  0  0
  144.0170   81.0800  223.6240 H   0  0  0  0  0  0  0  0  0  0  0  0
  141.6257   81.4124  224.8690 H   0  0  0  0  0  0  0  0  0  0  0  0
  142.4130   82.3848  223.5090 H   0  0  0  0  0  0  0  0  0  0  0  0
  140.0652   81.7043  223.1519 H   0  0  0  0  0  0  0  0  0  0  0  0
  141.3046   81.2276  221.8960 H   0  0  0  0  0  0  0  0  0  0  0  0
  144.4593   75.5823  219.8403 H   0  0  0  0  0  0  0  0  0  0  0  0
  1  2  1  0
  2  3  2  0
  2  4  2  0
  2  5  1  0
  5  6  2  0
  6  7  1  0
  7  8  2  0
  8  9  1  0
  9 10  1  0
 10 11  2  0
 11 12  1  0
 12 13  2  0
 13 14  1  0
 14 15  2  0
 15 16  1  0
 16 17  1  0
 16 18  2  0
 18 19  1  0
 19 20  2  0
 20 21  1  0
 21 22  2  0
 21 23  1  0
 23 24  1  0
 24 25  1  0
 25 26  1  0
 26 27  1  0
 27 28  1  0
 28 29  1  0
 29 30  1  0
  9 31  2  0
 31  5  1  0
 23 12  1  0
 30 25  1  0
 20 14  1  0
  1 32  1  0
  1 33  1  0
  6 34  1  0
  7 35  1  0
  8 36  1  0
 10 37  1  0
 11 38  1  0
 13 39  1  0
 15 40  1  0
 18 41  1  0
 19 42  1  0
 24 43  1  0
 24 44  1  0
 25 45  1  0
 26 46  1  0
 26 47  1  0
 27 48  1  0
 27 49  1  0
 28 50  1  0
 29 51  1  0
 29 52  1  0
 30 53  1  0
 30 54  1  0
 31 55  1  0
M  END
>  <smiles>  (46) 
NS(=O)(=O)c1cccc(/C=C/c2cc3cc(Cl)ccc3c(=O)n2CC2CCNCC2)c1

>  <score_type>  (46) 
oracle

>  <origin>  (46) 
autodockgpu

>  <m_score__min__energy>  (46) 
-9.2899999999999991

>  <m_primary>  (46) 
energy

>  <rmsd>  (46) 
6.717058407302

>  <m_score__min__rmsd>  (46) 
6.717058407302

>  <meeko>  (46) 
{"free_energy": -8.09, "intermolecular_energy": -10.18, "internal_energy": -1.47, "cluster_size": 1, "cluster_id": 5, "rank_in_cluster": 1}

>  <energy>  (46) 
-6.35

>  <cluster_rmsd>  (46) 
0.0

>  <cluster>  (46) 
18

$$$$

     RDKit          3D

 55 58  0  0  0  0  0  0  0  0999 V2000
  146.0960   72.6480  221.2800 N   0  0  0  0  0  0  0  0  0  0  0  0
  145.2250   72.7350  219.7870 S   0  0  0  0  0  0  0  0  0  0  0  0
  146.1340   73.2350  218.6920 O   0  0  0  0  0  0  0  0  0  0  0  0
  144.7170   71.3720  219.4440 O   0  0  0  0  0  0  0  0  0  0  0  0
  143.8680   73.8260  220.0360 C   0  0  0  0  0  0  0  0  0  0  0  0
  143.8390   75.0820  219.4670 C   0  0  0  0  0  0  0  0  0  0  0  0
  142.7350   75.8610  219.7230 C   0  0  0  0  0  0  0  0  0  0  0  0
  141.6850   75.4200  220.5170 C   0  0  0  0  0  0  0  0  0  0  0  0
  141.7040   74.1730  221.0870 C   0  0  0  0  0  0  0  0  0  0  0  0
  140.6350   73.6420  221.9370 C   0  0  0  0  0  0  0  0  0  0  0  0
  139.9420   72.5690  221.6820 C   0  0  0  0  0  0  0  0  0  0  0  0
  139.6410   71.4080  222.4520 C   0  0  0  0  0  0  0  0  0  0  0  0
  140.1320   71.3960  223.7720 C   0  0  0  0  0  0  0  0  0  0  0  0
  139.9960   70.3600  224.6320 C   0  0  0  0  0  0  0  0  0  0  0  0
  140.5020   70.4270  225.8960 C   0  0  0  0  0  0  0  0  0  0  0  0
  140.3240   69.3260  226.7150 C   0  0  0  0  0  0  0  0  0  0  0  0
  140.9660   69.3910  228.3400 Cl  0  0  0  0  0  0  0  0  0  0  0  0
  139.6650   68.1840  226.3090 C   0  0  0  0  0  0  0  0  0  0  0  0
  139.1580   68.1300  225.0290 C   0  0  0  0  0  0  0  0  0  0  0  0
  139.3390   69.2330  224.2140 C   0  0  0  0  0  0  0  0  0  0  0  0
  138.8560   69.2290  222.9380 C   0  0  0  0  0  0  0  0  0  0  0  0
  138.2500   68.1780  222.5620 O   0  0  0  0  0  0  0  0  0  0  0  0
  139.0020   70.2940  222.0680 N   0  0  0  0  0  0  0  0  0  0  0  0
  138.4640   70.0590  220.7650 C   0  0  0  0  0  0  0  0  0  0  0  0
  139.4320   69.7920  219.6770 C   0  0  0  0  0  0  0  0  0  0  0  0
  139.5590   70.8080  218.6220 C   0  0  0  0  0  0  0  0  0  0  0  0
  140.8970   71.5390  218.7830 C   0  0  0  0  0  0  0  0  0  0  0  0
  141.9210   70.6180  218.3280 N   0  0  0  0  0  0  0  0  0  0  0  0
  141.8690   69.4560  219.1580 C   0  0  0  0  0  0  0  0  0  0  0  0
  140.8130   69.4430  220.2040 C   0  0  0  0  0  0  0  0  0  0  0  0
  142.8250   73.3910  220.8220 C   0  0  0  0  0  0  0  0  0  0  0  0
  146.7890   71.8740  221.1980 H   0  0  0  0  0  0  0  0  0  0  0  0
  145.3810   72.3200  221.9870 H   0  0  0  0  0  0  0  0  0  0  0  0
  144.6634   75.4450  218.8356 H   0  0  0  0  0  0  0  0  0  0  0  0
  142.6821   76.8680  219.2836 H   0  0  0  0  0  0  0  0  0  0  0  0
  140.8238   76.0817  220.6917 H   0  0  0  0  0  0  0  0  0  0  0  0
  140.3999   74.1913  222.8606 H   0  0  0  0  0  0  0  0  0  0  0  0
  139.5025   72.5564  220.6737 H   0  0  0  0  0  0  0  0  0  0  0  0
  140.6629   72.2909  224.1287 H   0  0  0  0  0  0  0  0  0  0  0  0
  141.0320   71.3229  226.2516 H   0  0  0  0  0  0  0  0  0  0  0  0
  139.5465   67.3321  226.9947 H   0  0  0  0  0  0  0  0  0  0  0  0
  138.6261   67.2380  224.6666 H   0  0  0  0  0  0  0  0  0  0  0  0
  137.7942   69.1892  220.8343 H   0  0  0  0  0  0  0  0  0  0  0  0
  137.9715   71.0018  220.4846 H   0  0  0  0  0  0  0  0  0  0  0  0
  138.9696   68.9240  219.1843 H   0  0  0  0  0  0  0  0  0  0  0  0
  139.5223   70.3211  217.6363 H   0  0  0  0  0  0  0  0  0  0  0  0
  138.7323   71.5292  218.7027 H   0  0  0  0  0  0  0  0  0  0  0  0
  140.9077   72.4531  218.1712 H   0  0  0  0  0  0  0  0  0  0  0  0
  141.0652   71.8398  219.8276 H   0  0  0  0  0  0  0  0  0  0  0  0
  142.8620   71.0400  218.3910 H   0  0  0  0  0  0  0  0  0  0  0  0
  141.7063   68.5850  218.5061 H   0  0  0  0  0  0  0  0  0  0  0  0
  142.8239   69.4413  219.7038 H   0  0  0  0  0  0  0  0  0  0  0  0
  140.7728   68.4362  220.6453 H   0  0  0  0  0  0  0  0  0  0  0  0
  141.0808   70.2127  220.9428 H   0  0  0  0  0  0  0  0  0  0  0  0
  142.8795   72.3831  221.2592 H   0  0  0  0  0  0  0  0  0  0  0  0
  1  2  1  0
  2  3  2  0
  2  4  2  0
  2  5  1  0
  5  6  2  0
  6  7  1  0
  7  8  2  0
  8  9  1  0
  9 10  1  0
 10 11  2  0
 11 12  1  0
 12 13  2  0
 13 14  1  0
 14 15  2  0
 15 16  1  0
 16 17  1  0
 16 18  2  0
 18 19  1  0
 19 20  2  0
 20 21  1  0
 21 22  2  0
 21 23  1  0
 23 24  1  0
 24 25  1  0
 25 26  1  0
 26 27  1  0
 27 28  1  0
 28 29  1  0
 29 30  1  0
  9 31  2  0
 31  5  1  0
 23 12  1  0
 30 25  1  0
 20 14  1  0
  1 32  1  0
  1 33  1  0
  6 34  1  0
  7 35  1  0
  8 36  1  0
 10 37  1  0
 11 38  1  0
 13 39  1  0
 15 40  1  0
 18 41  1  0
 19 42  1  0
 24 43  1  0
 24 44  1  0
 25 45  1  0
 26 46  1  0
 26 47  1  0
 27 48  1  0
 27 49  1  0
 28 50  1  0
 29 51  1  0
 29 52  1  0
 30 53  1  0
 30 54  1  0
 31 55  1  0
M  END
>  <smiles>  (47) 
NS(=O)(=O)c1cccc(/C=C/c2cc3cc(Cl)ccc3c(=O)n2CC2CCNCC2)c1

>  <score_type>  (47) 
oracle

>  <origin>  (47) 
autodockgpu

>  <m_score__min__energy>  (47) 
-9.2899999999999991

>  <m_primary>  (47) 
energy

>  <rmsd>  (47) 
10.54616918822215

>  <m_score__min__rmsd>  (47) 
10.54616918822215

>  <meeko>  (47) 
{"free_energy": -7.87, "intermolecular_energy": -9.95, "internal_energy": -2.67, "cluster_size": 5, "cluster_id": 4, "rank_in_cluster": 2}

>  <energy>  (47) 
-5.99

>  <cluster_rmsd>  (47) 
0.0

>  <cluster>  (47) 
19

$$$$

     RDKit          3D

 55 58  0  0  0  0  0  0  0  0999 V2000
  145.5730   73.2180  218.3140 N   0  0  0  0  0  0  0  0  0  0  0  0
  145.2540   73.4450  220.0000 S   0  0  0  0  0  0  0  0  0  0  0  0
  144.9090   72.1230  220.6390 O   0  0  0  0  0  0  0  0  0  0  0  0
  146.4700   74.0220  220.6480 O   0  0  0  0  0  0  0  0  0  0  0  0
  143.9190   74.5830  220.1310 C   0  0  0  0  0  0  0  0  0  0  0  0
  144.0300   75.8810  219.6780 C   0  0  0  0  0  0  0  0  0  0  0  0
  142.9310   76.6940  219.8280 C   0  0  0  0  0  0  0  0  0  0  0  0
  141.7520   76.2470  220.4080 C   0  0  0  0  0  0  0  0  0  0  0  0
  141.6310   74.9580  220.8620 C   0  0  0  0  0  0  0  0  0  0  0  0
  140.4200   74.4170  221.4860 C   0  0  0  0  0  0  0  0  0  0  0  0
  139.8850   73.2650  221.2030 C   0  0  0  0  0  0  0  0  0  0  0  0
  139.7210   72.0650  221.9550 C   0  0  0  0  0  0  0  0  0  0  0  0
  139.9560   72.1660  223.3390 C   0  0  0  0  0  0  0  0  0  0  0  0
  139.9050   71.1250  224.2030 C   0  0  0  0  0  0  0  0  0  0  0  0
  140.1460   71.3060  225.5330 C   0  0  0  0  0  0  0  0  0  0  0  0
  140.0770   70.1920  226.3520 C   0  0  0  0  0  0  0  0  0  0  0  0
  140.3840   70.4020  228.0610 Cl  0  0  0  0  0  0  0  0  0  0  0  0
  139.7760   68.9300  225.8840 C   0  0  0  0  0  0  0  0  0  0  0  0
  139.5330   68.7620  224.5380 C   0  0  0  0  0  0  0  0  0  0  0  0
  139.6050   69.8770  223.7230 C   0  0  0  0  0  0  0  0  0  0  0  0
  139.3730   69.7640  222.3840 C   0  0  0  0  0  0  0  0  0  0  0  0
  139.0970   68.6020  221.9510 O   0  0  0  0  0  0  0  0  0  0  0  0
  139.4290   70.8350  221.5110 N   0  0  0  0  0  0  0  0  0  0  0  0
  139.2020   70.4830  220.1440 C   0  0  0  0  0  0  0  0  0  0  0  0
  140.3960   70.3230  219.2840 C   0  0  0  0  0  0  0  0  0  0  0  0
  140.6110   71.3280  218.2330 C   0  0  0  0  0  0  0  0  0  0  0  0
  141.7890   72.2270  218.6260 C   0  0  0  0  0  0  0  0  0  0  0  0
  142.9890   71.4370  218.4250 N   0  0  0  0  0  0  0  0  0  0  0  0
  142.9100   70.2920  219.2780 C   0  0  0  0  0  0  0  0  0  0  0  0
  141.6730   70.1630  220.0910 C   0  0  0  0  0  0  0  0  0  0  0  0
  142.7480   74.1420  220.7050 C   0  0  0  0  0  0  0  0  0  0  0  0
  145.6240   74.1600  217.8710 H   0  0  0  0  0  0  0  0  0  0  0  0
  144.6930   72.7700  217.9340 H   0  0  0  0  0  0  0  0  0  0  0  0
  144.9578   76.2501  219.2165 H   0  0  0  0  0  0  0  0  0  0  0  0
  142.9884   77.7346  219.4761 H   0  0  0  0  0  0  0  0  0  0  0  0
  140.9010   76.9372  220.5052 H   0  0  0  0  0  0  0  0  0  0  0  0
  139.9255   75.0320  222.2523 H   0  0  0  0  0  0  0  0  0  0  0  0
  139.4793   73.2054  220.1823 H   0  0  0  0  0  0  0  0  0  0  0  0
  140.1976   73.1587  223.7466 H   0  0  0  0  0  0  0  0  0  0  0  0
  140.3861   72.2995  225.9396 H   0  0  0  0  0  0  0  0  0  0  0  0
  139.7307   68.0733  226.5725 H   0  0  0  0  0  0  0  0  0  0  0  0
  139.2894   67.7721  224.1248 H   0  0  0  0  0  0  0  0  0  0  0  0
  138.6552   69.5286  220.1335 H   0  0  0  0  0  0  0  0  0  0  0  0
  138.6544   71.3359  219.7166 H   0  0  0  0  0  0  0  0  0  0  0  0
  140.1523   69.3946  218.7467 H   0  0  0  0  0  0  0  0  0  0  0  0
  140.8353   70.8230  217.2819 H   0  0  0  0  0  0  0  0  0  0  0  0
  139.7038   71.9390  218.1159 H   0  0  0  0  0  0  0  0  0  0  0  0
  141.8125   73.1239  217.9896 H   0  0  0  0  0  0  0  0  0  0  0  0
  141.7031   72.5652  219.6692 H   0  0  0  0  0  0  0  0  0  0  0  0
  143.8380   71.9770  218.6570 H   0  0  0  0  0  0  0  0  0  0  0  0
  142.9904   69.3959  218.6451 H   0  0  0  0  0  0  0  0  0  0  0  0
  143.7282   70.4090  220.0039 H   0  0  0  0  0  0  0  0  0  0  0  0
  141.6664   69.1674  220.5588 H   0  0  0  0  0  0  0  0  0  0  0  0
  141.6890   70.9740  220.8340 H   0  0  0  0  0  0  0  0  0  0  0  0
  142.6925   73.1005  221.0545 H   0  0  0  0  0  0  0  0  0  0  0  0
  1  2  1  0
  2  3  2  0
  2  4  2  0
  2  5  1  0
  5  6  2  0
  6  7  1  0
  7  8  2  0
  8  9  1  0
  9 10  1  0
 10 11  2  0
 11 12  1  0
 12 13  2  0
 13 14  1  0
 14 15  2  0
 15 16  1  0
 16 17  1  0
 16 18  2  0
 18 19  1  0
 19 20  2  0
 20 21  1  0
 21 22  2  0
 21 23  1  0
 23 24  1  0
 24 25  1  0
 25 26  1  0
 26 27  1  0
 27 28  1  0
 28 29  1  0
 29 30  1  0
  9 31  2  0
 31  5  1  0
 23 12  1  0
 30 25  1  0
 20 14  1  0
  1 32  1  0
  1 33  1  0
  6 34  1  0
  7 35  1  0
  8 36  1  0
 10 37  1  0
 11 38  1  0
 13 39  1  0
 15 40  1  0
 18 41  1  0
 19 42  1  0
 24 43  1  0
 24 44  1  0
 25 45  1  0
 26 46  1  0
 26 47  1  0
 27 48  1  0
 27 49  1  0
 28 50  1  0
 29 51  1  0
 29 52  1  0
 30 53  1  0
 30 54  1  0
 31 55  1  0
M  END
>  <smiles>  (48) 
NS(=O)(=O)c1cccc(/C=C/c2cc3cc(Cl)ccc3c(=O)n2CC2CCNCC2)c1

>  <score_type>  (48) 
oracle

>  <origin>  (48) 
autodockgpu

>  <m_score__min__energy>  (48) 
-9.2899999999999991

>  <m_primary>  (48) 
energy

>  <rmsd>  (48) 
9.83539517052115

>  <m_score__min__rmsd>  (48) 
9.83539517052115

>  <meeko>  (48) 
{"free_energy": -7.03, "intermolecular_energy": -9.12, "internal_energy": -3.84, "cluster_size": 5, "cluster_id": 4, "rank_in_cluster": 5}

>  <energy>  (48) 
-5.96

>  <cluster_rmsd>  (48) 
0.0

>  <cluster>  (48) 
20

$$$$

     RDKit          3D

 55 58  0  0  0  0  0  0  0  0999 V2000
  146.0330   73.3920  218.5290 N   0  0  0  0  0  0  0  0  0  0  0  0
  145.3800   72.9040  220.0560 S   0  0  0  0  0  0  0  0  0  0  0  0
  145.1910   71.4080  220.0780 O   0  0  0  0  0  0  0  0  0  0  0  0
  146.3230   73.3150  221.1390 O   0  0  0  0  0  0  0  0  0  0  0  0
  143.8460   73.7430  220.2600 C   0  0  0  0  0  0  0  0  0  0  0  0
  142.7620   73.1290  220.8530 C   0  0  0  0  0  0  0  0  0  0  0  0
  141.6080   73.8670  220.9650 C   0  0  0  0  0  0  0  0  0  0  0  0
  141.5160   75.1740  220.5060 C   0  0  0  0  0  0  0  0  0  0  0  0
  142.5880   75.7940  219.9160 C   0  0  0  0  0  0  0  0  0  0  0  0
  142.5650   77.1680  219.4070 C   0  0  0  0  0  0  0  0  0  0  0  0
  142.0270   78.1820  220.0200 C   0  0  0  0  0  0  0  0  0  0  0  0
  141.7620   79.5240  219.6180 C   0  0  0  0  0  0  0  0  0  0  0  0
  142.5460   80.0190  218.5590 C   0  0  0  0  0  0  0  0  0  0  0  0
  142.4770   81.2830  218.0790 C   0  0  0  0  0  0  0  0  0  0  0  0
  143.2730   81.6850  217.0480 C   0  0  0  0  0  0  0  0  0  0  0  0
  143.1460   82.9940  216.6150 C   0  0  0  0  0  0  0  0  0  0  0  0
  144.1580   83.5300  215.2940 Cl  0  0  0  0  0  0  0  0  0  0  0  0
  142.2600   83.8890  217.1760 C   0  0  0  0  0  0  0  0  0  0  0  0
  141.4610   83.4690  218.2170 C   0  0  0  0  0  0  0  0  0  0  0  0
  141.5930   82.1610  218.6470 C   0  0  0  0  0  0  0  0  0  0  0  0
  140.8250   81.6970  219.6740 C   0  0  0  0  0  0  0  0  0  0  0  0
  140.0090   82.5200  220.1920 O   0  0  0  0  0  0  0  0  0  0  0  0
  140.9040   80.4030  220.1560 N   0  0  0  0  0  0  0  0  0  0  0  0
  140.0450   80.1430  221.2680 C   0  0  0  0  0  0  0  0  0  0  0  0
  140.6380   80.2690  222.6190 C   0  0  0  0  0  0  0  0  0  0  0  0
  141.5100   79.1770  223.0780 C   0  0  0  0  0  0  0  0  0  0  0  0
  142.9650   79.6590  223.0790 C   0  0  0  0  0  0  0  0  0  0  0  0
  143.1010   80.5460  224.2190 N   0  0  0  0  0  0  0  0  0  0  0  0
  142.1990   81.6390  224.0360 C   0  0  0  0  0  0  0  0  0  0  0  0
  141.3520   81.5950  222.8160 C   0  0  0  0  0  0  0  0  0  0  0  0
  143.7530   75.0390  219.8080 C   0  0  0  0  0  0  0  0  0  0  0  0
  146.9090   73.9260  218.7150 H   0  0  0  0  0  0  0  0  0  0  0  0
  145.3400   74.0980  218.1560 H   0  0  0  0  0  0  0  0  0  0  0  0
  142.8189   72.0937  221.2202 H   0  0  0  0  0  0  0  0  0  0  0  0
  140.7266   73.4060  221.4347 H   0  0  0  0  0  0  0  0  0  0  0  0
  140.5683   75.7212  220.6172 H   0  0  0  0  0  0  0  0  0  0  0  0
  143.0387   77.3566  218.4323 H   0  0  0  0  0  0  0  0  0  0  0  0
  141.7153   77.9601  221.0513 H   0  0  0  0  0  0  0  0  0  0  0  0
  143.2644   79.3313  218.0889 H   0  0  0  0  0  0  0  0  0  0  0  0
  143.9893   80.9953  216.5777 H   0  0  0  0  0  0  0  0  0  0  0  0
  142.1921   84.9202  216.7992 H   0  0  0  0  0  0  0  0  0  0  0  0
  140.7410   84.1522  218.6911 H   0  0  0  0  0  0  0  0  0  0  0  0
  139.2024   80.8476  221.2084 H   0  0  0  0  0  0  0  0  0  0  0  0
  139.7696   79.0821  221.1745 H   0  0  0  0  0  0  0  0  0  0  0  0
  139.7426   80.2075  223.2550 H   0  0  0  0  0  0  0  0  0  0  0  0
  141.2207   78.8788  224.0965 H   0  0  0  0  0  0  0  0  0  0  0  0
  141.4074   78.3143  222.4033 H   0  0  0  0  0  0  0  0  0  0  0  0
  143.6493   78.8035  223.1786 H   0  0  0  0  0  0  0  0  0  0  0  0
  143.2153   80.1745  222.1401 H   0  0  0  0  0  0  0  0  0  0  0  0
  144.0640   80.9080  224.3020 H   0  0  0  0  0  0  0  0  0  0  0  0
  141.5294   81.6709  224.9081 H   0  0  0  0  0  0  0  0  0  0  0  0
  142.8353   82.5287  223.9200 H   0  0  0  0  0  0  0  0  0  0  0  0
  140.5952   82.3900  222.8892 H   0  0  0  0  0  0  0  0  0  0  0  0
  142.0210   81.7324  221.9537 H   0  0  0  0  0  0  0  0  0  0  0  0
  144.6368   75.4985  219.3413 H   0  0  0  0  0  0  0  0  0  0  0  0
  1  2  1  0
  2  3  2  0
  2  4  2  0
  2  5  1  0
  5  6  2  0
  6  7  1  0
  7  8  2  0
  8  9  1  0
  9 10  1  0
 10 11  2  0
 11 12  1  0
 12 13  2  0
 13 14  1  0
 14 15  2  0
 15 16  1  0
 16 17  1  0
 16 18  2  0
 18 19  1  0
 19 20  2  0
 20 21  1  0
 21 22  2  0
 21 23  1  0
 23 24  1  0
 24 25  1  0
 25 26  1  0
 26 27  1  0
 27 28  1  0
 28 29  1  0
 29 30  1  0
  9 31  2  0
 31  5  1  0
 23 12  1  0
 30 25  1  0
 20 14  1  0
  1 32  1  0
  1 33  1  0
  6 34  1  0
  7 35  1  0
  8 36  1  0
 10 37  1  0
 11 38  1  0
 13 39  1  0
 15 40  1  0
 18 41  1  0
 19 42  1  0
 24 43  1  0
 24 44  1  0
 25 45  1  0
 26 46  1  0
 26 47  1  0
 27 48  1  0
 27 49  1  0
 28 50  1  0
 29 51  1  0
 29 52  1  0
 30 53  1  0
 30 54  1  0
 31 55  1  0
M  END
>  <smiles>  (49) 
NS(=O)(=O)c1cccc(/C=C/c2cc3cc(Cl)ccc3c(=O)n2CC2CCNCC2)c1

>  <score_type>  (49) 
oracle

>  <origin>  (49) 
autodockgpu

>  <m_score__min__energy>  (49) 
-9.2899999999999991

>  <m_primary>  (49) 
energy

>  <rmsd>  (49) 
5.095794271441668

>  <m_score__min__rmsd>  (49) 
5.095794271441668

>  <meeko>  (49) 
{"free_energy": -8.74, "intermolecular_energy": -10.82, "internal_energy": -1.45, "cluster_size": 1, "cluster_id": 3, "rank_in_cluster": 1}

>  <energy>  (49) 
-5.6

>  <cluster_rmsd>  (49) 
0.0

>  <cluster>  (49) 
21

$$$$

     RDKit          3D

 55 58  0  0  0  0  0  0  0  0999 V2000
  139.5430   81.7080  221.9680 N   0  0  0  0  0  0  0  0  0  0  0  0
  141.0740   82.4070  221.5650 S   0  0  0  0  0  0  0  0  0  0  0  0
  140.9560   83.9090  221.5210 O   0  0  0  0  0  0  0  0  0  0  0  0
  142.0760   82.0050  222.5980 O   0  0  0  0  0  0  0  0  0  0  0  0
  141.5500   81.7600  220.0000 C   0  0  0  0  0  0  0  0  0  0  0  0
  141.7190   82.5780  218.9020 C   0  0  0  0  0  0  0  0  0  0  0  0
  142.0890   81.9760  217.7230 C   0  0  0  0  0  0  0  0  0  0  0  0
  142.2880   80.6070  217.6200 C   0  0  0  0  0  0  0  0  0  0  0  0
  142.1230   79.7840  218.7050 C   0  0  0  0  0  0  0  0  0  0  0  0
  142.3140   78.3310  218.6710 C   0  0  0  0  0  0  0  0  0  0  0  0
  141.4560   77.4550  219.1100 C   0  0  0  0  0  0  0  0  0  0  0  0
  141.6080   76.1940  219.7550 C   0  0  0  0  0  0  0  0  0  0  0  0
  142.7120   75.4200  219.3480 C   0  0  0  0  0  0  0  0  0  0  0  0
  142.9860   74.1750  219.8050 C   0  0  0  0  0  0  0  0  0  0  0  0
  144.0770   73.4910  219.3600 C   0  0  0  0  0  0  0  0  0  0  0  0
  144.2900   72.2230  219.8730 C   0  0  0  0  0  0  0  0  0  0  0  0
  145.6830   71.3270  219.3140 Cl  0  0  0  0  0  0  0  0  0  0  0  0
  143.4560   71.6380  220.8030 C   0  0  0  0  0  0  0  0  0  0  0  0
  142.3580   72.3420  221.2450 C   0  0  0  0  0  0  0  0  0  0  0  0
  142.1490   73.6080  220.7280 C   0  0  0  0  0  0  0  0  0  0  0  0
  141.0760   74.3450  221.1340 C   0  0  0  0  0  0  0  0  0  0  0  0
  140.3060   73.8080  221.9900 O   0  0  0  0  0  0  0  0  0  0  0  0
  140.8050   75.6160  220.6590 N   0  0  0  0  0  0  0  0  0  0  0  0
  139.6030   76.1870  221.1800 C   0  0  0  0  0  0  0  0  0  0  0  0
  139.7320   77.0460  222.3790 C   0  0  0  0  0  0  0  0  0  0  0  0
  141.0800   77.5120  222.7350 C   0  0  0  0  0  0  0  0  0  0  0  0
  141.1970   79.0080  222.4220 C   0  0  0  0  0  0  0  0  0  0  0  0
  140.4450   79.6990  223.4520 N   0  0  0  0  0  0  0  0  0  0  0  0
  139.0860   79.2630  223.3730 C   0  0  0  0  0  0  0  0  0  0  0  0
  138.7860   78.2340  222.3440 C   0  0  0  0  0  0  0  0  0  0  0  0
  141.7490   80.4010  219.8950 C   0  0  0  0  0  0  0  0  0  0  0  0
  139.4770   81.6670  223.0070 H   0  0  0  0  0  0  0  0  0  0  0  0
  139.6160   80.7030  221.6450 H   0  0  0  0  0  0  0  0  0  0  0  0
  141.5643   83.6651  218.9672 H   0  0  0  0  0  0  0  0  0  0  0  0
  142.2324   82.6018  216.8298 H   0  0  0  0  0  0  0  0  0  0  0  0
  142.5829   80.1744  216.6526 H   0  0  0  0  0  0  0  0  0  0  0  0
  143.2533   77.9517  218.2422 H   0  0  0  0  0  0  0  0  0  0  0  0
  140.4072   77.7463  218.9514 H   0  0  0  0  0  0  0  0  0  0  0  0
  143.3989   75.8567  218.6081 H   0  0  0  0  0  0  0  0  0  0  0  0
  144.7630   73.9299  218.6206 H   0  0  0  0  0  0  0  0  0  0  0  0
  143.6641   70.6275  221.1846 H   0  0  0  0  0  0  0  0  0  0  0  0
  141.6687   71.9111  221.9860 H   0  0  0  0  0  0  0  0  0  0  0  0
  139.1519   76.7958  220.3825 H   0  0  0  0  0  0  0  0  0  0  0  0
  138.9973   75.3290  221.5070 H   0  0  0  0  0  0  0  0  0  0  0  0
  139.4518   76.3440  223.1782 H   0  0  0  0  0  0  0  0  0  0  0  0
  141.2547   77.3462  223.8083 H   0  0  0  0  0  0  0  0  0  0  0  0
  141.8287   76.9539  222.1537 H   0  0  0  0  0  0  0  0  0  0  0  0
  142.2513   79.3208  222.4454 H   0  0  0  0  0  0  0  0  0  0  0  0
  140.8073   79.2386  221.4195 H   0  0  0  0  0  0  0  0  0  0  0  0
  140.4840   80.7230  223.3220 H   0  0  0  0  0  0  0  0  0  0  0  0
  138.8092   78.8480  224.3534 H   0  0  0  0  0  0  0  0  0  0  0  0
  138.5085   80.1515  223.0780 H   0  0  0  0  0  0  0  0  0  0  0  0
  137.7615   77.8678  222.5065 H   0  0  0  0  0  0  0  0  0  0  0  0
  138.9073   78.7145  221.3619 H   0  0  0  0  0  0  0  0  0  0  0  0
  141.6062   79.7771  220.7896 H   0  0  0  0  0  0  0  0  0  0  0  0
  1  2  1  0
  2  3  2  0
  2  4  2  0
  2  5  1  0
  5  6  2  0
  6  7  1  0
  7  8  2  0
  8  9  1  0
  9 10  1  0
 10 11  2  0
 11 12  1  0
 12 13  2  0
 13 14  1  0
 14 15  2  0
 15 16  1  0
 16 17  1  0
 16 18  2  0
 18 19  1  0
 19 20  2  0
 20 21  1  0
 21 22  2  0
 21 23  1  0
 23 24  1  0
 24 25  1  0
 25 26  1  0
 26 27  1  0
 27 28  1  0
 28 29  1  0
 29 30  1  0
  9 31  2  0
 31  5  1  0
 23 12  1  0
 30 25  1  0
 20 14  1  0
  1 32  1  0
  1 33  1  0
  6 34  1  0
  7 35  1  0
  8 36  1  0
 10 37  1  0
 11 38  1  0
 13 39  1  0
 15 40  1  0
 18 41  1  0
 19 42  1  0
 24 43  1  0
 24 44  1  0
 25 45  1  0
 26 46  1  0
 26 47  1  0
 27 48  1  0
 27 49  1  0
 28 50  1  0
 29 51  1  0
 29 52  1  0
 30 53  1  0
 30 54  1  0
 31 55  1  0
M  END
>  <smiles>  (50) 
NS(=O)(=O)c1cccc(/C=C/c2cc3cc(Cl)ccc3c(=O)n2CC2CCNCC2)c1

>  <score_type>  (50) 
oracle

>  <origin>  (50) 
autodockgpu

>  <m_score__min__energy>  (50) 
-9.2899999999999991

>  <m_primary>  (50) 
energy

>  <rmsd>  (50) 
7.597762005573231

>  <m_score__min__rmsd>  (50) 
7.597762005573231

>  <meeko>  (50) 
{"free_energy": -6.56, "intermolecular_energy": -8.64, "internal_energy": -3.93, "cluster_size": 3, "cluster_id": 13, "rank_in_cluster": 3}

>  <energy>  (50) 
-5.41

>  <cluster_rmsd>  (50) 
0.0

>  <cluster>  (50) 
22

$$$$
