
     RDKit          3D

 57 60  0  0  0  0  0  0  0  0999 V2000
  133.7340   69.2640  226.4580 O   0  0  0  0  0  0  0  0  0  0  0  0
  134.2400   70.3760  226.1000 C   0  0  0  0  0  0  0  0  0  0  0  0
  135.4380   70.4310  225.3350 N   0  0  0  0  0  0  0  0  0  0  0  0
  136.1330   69.2410  224.9310 C   0  0  0  0  0  0  0  0  0  0  0  0
  136.8220   69.4900  223.6430 C   0  0  0  0  0  0  0  0  0  0  0  0
  136.8240   68.5610  222.8030 O   0  0  0  0  0  0  0  0  0  0  0  0
  137.4360   70.7550  223.4290 N   0  0  0  0  0  0  0  0  0  0  0  0
  136.7290   71.8150  222.6920 C   0  0  0  0  0  0  0  0  0  0  0  0
  137.6120   72.1510  221.4990 C   0  0  0  0  0  0  0  0  0  0  0  0
  138.8880   72.7480  222.0380 C   0  0  0  0  0  0  0  0  0  0  0  0
  139.6220   71.6660  222.7990 C   0  0  0  0  0  0  0  0  0  0  0  0
  138.7590   71.0940  223.9010 C   0  0  2  0  0  0  0  0  0  0  0  0
  139.4660   69.9560  224.5730 C   0  0  0  0  0  0  0  0  0  0  0  0
  139.9640   70.4640  225.8970 C   0  0  0  0  0  0  0  0  0  0  0  0
  139.6580   69.8380  227.0850 C   0  0  0  0  0  0  0  0  0  0  0  0
  140.1310   70.3270  228.3040 C   0  0  0  0  0  0  0  0  0  0  0  0
  140.9210   71.4570  228.3310 C   0  0  0  0  0  0  0  0  0  0  0  0
  141.2420   72.1030  227.1570 C   0  0  0  0  0  0  0  0  0  0  0  0
  140.7570   71.5920  225.9730 C   0  0  0  0  0  0  0  0  0  0  0  0
  133.5980   71.6380  226.4690 C   0  0  0  0  0  0  0  0  0  0  0  0
  132.4210   71.6590  227.1840 C   0  0  0  0  0  0  0  0  0  0  0  0
  131.7840   72.8300  227.5520 C   0  0  0  0  0  0  0  0  0  0  0  0
  132.3630   74.0230  227.1770 C   0  0  0  0  0  0  0  0  0  0  0  0
  131.8250   75.2560  227.4820 C   0  0  0  0  0  0  0  0  0  0  0  0
  132.4390   76.4320  227.0880 C   0  0  0  0  0  0  0  0  0  0  0  0
  131.8740   77.7760  227.4070 C   0  0  0  0  0  0  0  0  0  0  0  0
  132.9280   78.6440  227.6350 F   0  0  0  0  0  0  0  0  0  0  0  0
  131.0220   77.7160  228.4910 F   0  0  0  0  0  0  0  0  0  0  0  0
  131.2090   78.2590  226.2890 F   0  0  0  0  0  0  0  0  0  0  0  0
  133.6240   76.4000  226.3670 C   0  0  0  0  0  0  0  0  0  0  0  0
  134.1640   75.1590  226.0600 C   0  0  0  0  0  0  0  0  0  0  0  0
  133.5380   73.9930  226.4630 C   0  0  0  0  0  0  0  0  0  0  0  0
  134.1300   72.8400  226.1220 N   0  0  0  0  0  0  0  0  0  0  0  0
  135.8190   71.3860  225.0610 H   0  0  0  0  0  0  0  0  0  0  0  0
  136.8738   68.9699  225.6976 H   0  0  0  0  0  0  0  0  0  0  0  0
  135.4142   68.4170  224.8112 H   0  0  0  0  0  0  0  0  0  0  0  0
  135.7467   71.4552  222.3521 H   0  0  0  0  0  0  0  0  0  0  0  0
  136.5502   72.6972  223.3243 H   0  0  0  0  0  0  0  0  0  0  0  0
  137.8358   71.2381  220.9276 H   0  0  0  0  0  0  0  0  0  0  0  0
  137.1049   72.8589  220.8269 H   0  0  0  0  0  0  0  0  0  0  0  0
  139.5117   73.1094  221.2071 H   0  0  0  0  0  0  0  0  0  0  0  0
  138.6640   73.5976  222.6999 H   0  0  0  0  0  0  0  0  0  0  0  0
  139.8962   70.8600  222.1025 H   0  0  0  0  0  0  0  0  0  0  0  0
  140.5214   72.1073  223.2532 H   0  0  0  0  0  0  0  0  0  0  0  0
  138.5993   71.8689  224.6652 H   0  0  0  0  0  0  0  0  0  0  0  0
  138.7700   69.1184  224.7280 H   0  0  0  0  0  0  0  0  0  0  0  0
  140.3002   69.5937  223.9542 H   0  0  0  0  0  0  0  0  0  0  0  0
  139.0290   68.9356  227.0731 H   0  0  0  0  0  0  0  0  0  0  0  0
  139.8740   69.8119  229.2413 H   0  0  0  0  0  0  0  0  0  0  0  0
  141.2953   71.8430  229.2906 H   0  0  0  0  0  0  0  0  0  0  0  0
  141.8708   73.0055  227.1649 H   0  0  0  0  0  0  0  0  0  0  0  0
  141.0154   72.1105  225.0379 H   0  0  0  0  0  0  0  0  0  0  0  0
  131.9669   70.7005  227.4757 H   0  0  0  0  0  0  0  0  0  0  0  0
  130.8455   72.8098  228.1255 H   0  0  0  0  0  0  0  0  0  0  0  0
  130.8855   75.3057  228.0520 H   0  0  0  0  0  0  0  0  0  0  0  0
  134.1198   77.3289  226.0488 H   0  0  0  0  0  0  0  0  0  0  0  0
  135.1022   75.1017  225.4886 H   0  0  0  0  0  0  0  0  0  0  0  0
  1  2  2  0
  2  3  1  0
  3  4  1  0
  4  5  1  0
  5  6  2  0
  5  7  1  0
  7  8  1  0
  8  9  1  0
  9 10  1  0
 10 11  1  0
 11 12  1  0
 12 13  1  0
 13 14  1  0
 14 15  2  0
 15 16  1  0
 16 17  2  0
 17 18  1  0
 18 19  2  0
  2 20  1  0
 20 21  2  0
 21 22  1  0
 22 23  2  0
 23 24  1  0
 24 25  2  0
 25 26  1  0
 26 27  1  0
 26 28  1  0
 26 29  1  0
 25 30  1  0
 30 31  2  0
 31 32  1  0
 32 33  2  0
 12  7  1  0
 19 14  1  0
 33 20  1  0
 32 23  1  0
  3 34  1  0
  4 35  1  0
  4 36  1  0
  8 37  1  0
  8 38  1  0
  9 39  1  0
  9 40  1  0
 10 41  1  0
 10 42  1  0
 11 43  1  0
 11 44  1  0
 12 45  1  1
 13 46  1  0
 13 47  1  0
 15 48  1  0
 16 49  1  0
 17 50  1  0
 18 51  1  0
 19 52  1  0
 21 53  1  0
 22 54  1  0
 24 55  1  0
 30 56  1  0
 31 57  1  0
M  END
>  <smiles>  (1) 
O=C(NCC(=O)N1CCCCC1Cc1ccccc1)c1ccc2cc(C(F)(F)F)ccc2n1

>  <score_type>  (1) 
oracle

>  <origin>  (1) 
autodockgpu

>  <m_score__min__energy>  (1) 
-8.6199999999999992

>  <m_primary>  (1) 
energy

>  <rmsd>  (1) 
7.865809413546936

>  <m_score__min__rmsd>  (1) 
7.865809413546936

>  <meeko>  (1) 
{"free_energy": -8.35, "intermolecular_energy": -10.44, "internal_energy": -2.06, "cluster_size": 13, "cluster_id": 3, "rank_in_cluster": 2}

>  <energy>  (1) 
-8.62

>  <cluster_rmsd>  (1) 
0.0

>  <cluster>  (1) 
1

$$$$

     RDKit          3D

 57 60  0  0  0  0  0  0  0  0999 V2000
  139.8720   73.0440  220.3200 O   0  0  0  0  0  0  0  0  0  0  0  0
  139.7170   73.2770  221.5620 C   0  0  0  0  0  0  0  0  0  0  0  0
  139.5900   74.6050  222.0560 N   0  0  0  0  0  0  0  0  0  0  0  0
  139.6330   75.7430  221.1810 C   0  0  0  0  0  0  0  0  0  0  0  0
  140.7710   76.6130  221.5660 C   0  0  0  0  0  0  0  0  0  0  0  0
  140.8020   77.0270  222.7480 O   0  0  0  0  0  0  0  0  0  0  0  0
  141.7540   76.9260  220.5880 N   0  0  0  0  0  0  0  0  0  0  0  0
  141.8450   78.2820  220.0240 C   0  0  0  0  0  0  0  0  0  0  0  0
  141.6460   78.1210  218.5240 C   0  0  0  0  0  0  0  0  0  0  0  0
  142.8190   77.3340  217.9960 C   0  0  0  0  0  0  0  0  0  0  0  0
  142.7360   75.9370  218.5720 C   0  0  0  0  0  0  0  0  0  0  0  0
  142.7150   75.9700  220.0840 C   0  0  2  0  0  0  0  0  0  0  0  0
  142.5290   74.5870  220.6290 C   0  0  0  0  0  0  0  0  0  0  0  0
  143.8410   73.8710  220.4770 C   0  0  0  0  0  0  0  0  0  0  0  0
  145.0390   74.4530  220.8270 C   0  0  0  0  0  0  0  0  0  0  0  0
  146.2470   73.7690  220.6770 C   0  0  0  0  0  0  0  0  0  0  0  0
  146.2520   72.4860  220.1710 C   0  0  0  0  0  0  0  0  0  0  0  0
  145.0670   71.8810  219.8130 C   0  0  0  0  0  0  0  0  0  0  0  0
  143.8950   72.5850  219.9740 C   0  0  0  0  0  0  0  0  0  0  0  0
  139.6630   72.1750  222.5230 C   0  0  0  0  0  0  0  0  0  0  0  0
  138.9890   71.0080  222.2380 C   0  0  0  0  0  0  0  0  0  0  0  0
  138.9160   69.9450  223.1190 C   0  0  0  0  0  0  0  0  0  0  0  0
  139.5500   70.0730  224.3350 C   0  0  0  0  0  0  0  0  0  0  0  0
  139.5490   69.0840  225.2980 C   0  0  0  0  0  0  0  0  0  0  0  0
  140.1990   69.2510  226.5090 C   0  0  0  0  0  0  0  0  0  0  0  0
  140.2110   68.1960  227.5630 C   0  0  0  0  0  0  0  0  0  0  0  0
  139.2800   67.2320  227.2200 F   0  0  0  0  0  0  0  0  0  0  0  0
  139.9540   68.7310  228.8090 F   0  0  0  0  0  0  0  0  0  0  0  0
  141.4460   67.5640  227.5490 F   0  0  0  0  0  0  0  0  0  0  0  0
  140.8750   70.4310  226.7880 C   0  0  0  0  0  0  0  0  0  0  0  0
  140.8750   71.4240  225.8180 C   0  0  0  0  0  0  0  0  0  0  0  0
  140.2210   71.2410  224.6140 C   0  0  0  0  0  0  0  0  0  0  0  0
  140.2730   72.2530  223.7370 N   0  0  0  0  0  0  0  0  0  0  0  0
  139.4620   74.7440  223.1030 H   0  0  0  0  0  0  0  0  0  0  0  0
  139.7642   75.4038  220.1429 H   0  0  0  0  0  0  0  0  0  0  0  0
  138.6925   76.3076  221.2633 H   0  0  0  0  0  0  0  0  0  0  0  0
  141.0606   78.9265  220.4475 H   0  0  0  0  0  0  0  0  0  0  0  0
  142.8116   78.7531  220.2560 H   0  0  0  0  0  0  0  0  0  0  0  0
  140.7095   77.5794  218.3248 H   0  0  0  0  0  0  0  0  0  0  0  0
  141.5841   79.1032  218.0325 H   0  0  0  0  0  0  0  0  0  0  0  0
  142.7755   77.2891  216.8978 H   0  0  0  0  0  0  0  0  0  0  0  0
  143.7654   77.8136  218.2864 H   0  0  0  0  0  0  0  0  0  0  0  0
  141.8162   75.4538  218.2107 H   0  0  0  0  0  0  0  0  0  0  0  0
  143.6230   75.3729  218.2479 H   0  0  0  0  0  0  0  0  0  0  0  0
  143.6904   76.3275  220.4458 H   0  0  0  0  0  0  0  0  0  0  0  0
  142.2464   74.6350  221.6910 H   0  0  0  0  0  0  0  0  0  0  0  0
  141.7299   74.0580  220.0889 H   0  0  0  0  0  0  0  0  0  0  0  0
  145.0444   75.4756  221.2322 H   0  0  0  0  0  0  0  0  0  0  0  0
  147.1930   74.2526  220.9619 H   0  0  0  0  0  0  0  0  0  0  0  0
  147.2027   71.9454  220.0532 H   0  0  0  0  0  0  0  0  0  0  0  0
  145.0576   70.8584  219.4077 H   0  0  0  0  0  0  0  0  0  0  0  0
  142.9514   72.0980  219.6870 H   0  0  0  0  0  0  0  0  0  0  0  0
  138.4854   70.9176  221.2642 H   0  0  0  0  0  0  0  0  0  0  0  0
  138.3694   69.0270  222.8573 H   0  0  0  0  0  0  0  0  0  0  0  0
  139.0192   68.1409  225.0985 H   0  0  0  0  0  0  0  0  0  0  0  0
  141.3941   70.5745  227.7471 H   0  0  0  0  0  0  0  0  0  0  0  0
  141.4028   72.3698  226.0101 H   0  0  0  0  0  0  0  0  0  0  0  0
  1  2  2  0
  2  3  1  0
  3  4  1  0
  4  5  1  0
  5  6  2  0
  5  7  1  0
  7  8  1  0
  8  9  1  0
  9 10  1  0
 10 11  1  0
 11 12  1  0
 12 13  1  0
 13 14  1  0
 14 15  2  0
 15 16  1  0
 16 17  2  0
 17 18  1  0
 18 19  2  0
  2 20  1  0
 20 21  2  0
 21 22  1  0
 22 23  2  0
 23 24  1  0
 24 25  2  0
 25 26  1  0
 26 27  1  0
 26 28  1  0
 26 29  1  0
 25 30  1  0
 30 31  2  0
 31 32  1  0
 32 33  2  0
 12  7  1  0
 19 14  1  0
 33 20  1  0
 32 23  1  0
  3 34  1  0
  4 35  1  0
  4 36  1  0
  8 37  1  0
  8 38  1  0
  9 39  1  0
  9 40  1  0
 10 41  1  0
 10 42  1  0
 11 43  1  0
 11 44  1  0
 12 45  1  1
 13 46  1  0
 13 47  1  0
 15 48  1  0
 16 49  1  0
 17 50  1  0
 18 51  1  0
 19 52  1  0
 21 53  1  0
 22 54  1  0
 24 55  1  0
 30 56  1  0
 31 57  1  0
M  END
>  <smiles>  (2) 
O=C(NCC(=O)N1CCCCC1Cc1ccccc1)c1ccc2cc(C(F)(F)F)ccc2n1

>  <score_type>  (2) 
oracle

>  <origin>  (2) 
autodockgpu

>  <m_score__min__energy>  (2) 
-8.6199999999999992

>  <m_primary>  (2) 
energy

>  <rmsd>  (2) 
2.72566232085093

>  <m_score__min__rmsd>  (2) 
2.72566232085093

>  <meeko>  (2) 
{"free_energy": -8.41, "intermolecular_energy": -10.5, "internal_energy": -2.16, "cluster_size": 13, "cluster_id": 2, "rank_in_cluster": 8}

>  <energy>  (2) 
-8.59

>  <cluster_rmsd>  (2) 
0.59

>  <cluster>  (2) 
1

$$$$

     RDKit          3D

 57 60  0  0  0  0  0  0  0  0999 V2000
  139.6410   72.3840  220.4390 O   0  0  0  0  0  0  0  0  0  0  0  0
  139.6490   72.8030  221.6420 C   0  0  0  0  0  0  0  0  0  0  0  0
  139.5480   74.1890  221.9430 N   0  0  0  0  0  0  0  0  0  0  0  0
  139.4340   75.1810  220.9110 C   0  0  0  0  0  0  0  0  0  0  0  0
  139.4600   76.5300  221.5240 C   0  0  0  0  0  0  0  0  0  0  0  0
  139.7890   76.6060  222.7310 O   0  0  0  0  0  0  0  0  0  0  0  0
  139.1170   77.6530  220.7220 N   0  0  0  0  0  0  0  0  0  0  0  0
  137.7440   77.8240  220.2210 C   0  0  0  0  0  0  0  0  0  0  0  0
  137.8580   77.8640  218.7040 C   0  0  0  0  0  0  0  0  0  0  0  0
  138.6290   79.1090  218.3430 C   0  0  0  0  0  0  0  0  0  0  0  0
  140.0420   78.9440  218.8560 C   0  0  0  0  0  0  0  0  0  0  0  0
  140.0560   78.6860  220.3460 C   0  0  2  0  0  0  0  0  0  0  0  0
  141.4550   78.4240  220.8130 C   0  0  0  0  0  0  0  0  0  0  0  0
  141.7540   79.4200  221.8990 C   0  0  0  0  0  0  0  0  0  0  0  0
  142.2450   79.0400  223.1280 C   0  0  0  0  0  0  0  0  0  0  0  0
  142.5150   79.9820  224.1220 C   0  0  0  0  0  0  0  0  0  0  0  0
  142.2910   81.3210  223.8790 C   0  0  0  0  0  0  0  0  0  0  0  0
  141.8000   81.7280  222.6570 C   0  0  0  0  0  0  0  0  0  0  0  0
  141.5450   80.7710  221.7010 C   0  0  0  0  0  0  0  0  0  0  0  0
  139.7620   71.8610  222.7550 C   0  0  0  0  0  0  0  0  0  0  0  0
  139.3310   70.5580  222.6370 C   0  0  0  0  0  0  0  0  0  0  0  0
  139.4210   69.6380  223.6660 C   0  0  0  0  0  0  0  0  0  0  0  0
  139.9680   70.0580  224.8580 C   0  0  0  0  0  0  0  0  0  0  0  0
  140.1130   69.2360  225.9580 C   0  0  0  0  0  0  0  0  0  0  0  0
  140.6690   69.6970  227.1380 C   0  0  0  0  0  0  0  0  0  0  0  0
  140.8330   68.8260  228.3380 C   0  0  0  0  0  0  0  0  0  0  0  0
  139.6430   68.8330  229.0440 F   0  0  0  0  0  0  0  0  0  0  0  0
  141.8910   69.2460  229.1200 F   0  0  0  0  0  0  0  0  0  0  0  0
  141.0260   67.5170  227.9180 F   0  0  0  0  0  0  0  0  0  0  0  0
  141.1000   71.0110  227.2480 C   0  0  0  0  0  0  0  0  0  0  0  0
  140.9540   71.8360  226.1420 C   0  0  0  0  0  0  0  0  0  0  0  0
  140.3970   71.3600  224.9690 C   0  0  0  0  0  0  0  0  0  0  0  0
  140.2950   72.2270  223.9520 N   0  0  0  0  0  0  0  0  0  0  0  0
  139.5590   74.4860  222.9650 H   0  0  0  0  0  0  0  0  0  0  0  0
  140.2752   75.0798  220.2094 H   0  0  0  0  0  0  0  0  0  0  0  0
  138.4877   75.0410  220.3679 H   0  0  0  0  0  0  0  0  0  0  0  0
  137.1135   76.9793  220.5356 H   0  0  0  0  0  0  0  0  0  0  0  0
  137.2799   78.7396  220.6163 H   0  0  0  0  0  0  0  0  0  0  0  0
  138.3925   76.9728  218.3434 H   0  0  0  0  0  0  0  0  0  0  0  0
  136.8610   77.8759  218.2395 H   0  0  0  0  0  0  0  0  0  0  0  0
  138.6404   79.2383  217.2507 H   0  0  0  0  0  0  0  0  0  0  0  0
  138.1585   79.9957  218.7928 H   0  0  0  0  0  0  0  0  0  0  0  0
  140.5141   78.0948  218.3403 H   0  0  0  0  0  0  0  0  0  0  0  0
  140.5953   79.8739  218.6582 H   0  0  0  0  0  0  0  0  0  0  0  0
  139.7095   79.5910  220.8665 H   0  0  0  0  0  0  0  0  0  0  0  0
  141.5353   77.4004  221.2076 H   0  0  0  0  0  0  0  0  0  0  0  0
  142.1695   78.5247  219.9828 H   0  0  0  0  0  0  0  0  0  0  0  0
  142.4278   77.9743  223.3302 H   0  0  0  0  0  0  0  0  0  0  0  0
  142.9058   79.6570  225.0975 H   0  0  0  0  0  0  0  0  0  0  0  0
  142.5043   82.0647  224.6609 H   0  0  0  0  0  0  0  0  0  0  0  0
  141.6162   82.7927  222.4506 H   0  0  0  0  0  0  0  0  0  0  0  0
  141.1537   81.0998  220.7269 H   0  0  0  0  0  0  0  0  0  0  0  0
  138.8951   70.2342  221.6803 H   0  0  0  0  0  0  0  0  0  0  0  0
  139.0672   68.6046  223.5364 H   0  0  0  0  0  0  0  0  0  0  0  0
  139.7786   68.1900  225.8946 H   0  0  0  0  0  0  0  0  0  0  0  0
  141.5432   71.3868  228.1820 H   0  0  0  0  0  0  0  0  0  0  0  0
  141.2859   72.8832  226.1989 H   0  0  0  0  0  0  0  0  0  0  0  0
  1  2  2  0
  2  3  1  0
  3  4  1  0
  4  5  1  0
  5  6  2  0
  5  7  1  0
  7  8  1  0
  8  9  1  0
  9 10  1  0
 10 11  1  0
 11 12  1  0
 12 13  1  0
 13 14  1  0
 14 15  2  0
 15 16  1  0
 16 17  2  0
 17 18  1  0
 18 19  2  0
  2 20  1  0
 20 21  2  0
 21 22  1  0
 22 23  2  0
 23 24  1  0
 24 25  2  0
 25 26  1  0
 26 27  1  0
 26 28  1  0
 26 29  1  0
 25 30  1  0
 30 31  2  0
 31 32  1  0
 32 33  2  0
 12  7  1  0
 19 14  1  0
 33 20  1  0
 32 23  1  0
  3 34  1  0
  4 35  1  0
  4 36  1  0
  8 37  1  0
  8 38  1  0
  9 39  1  0
  9 40  1  0
 10 41  1  0
 10 42  1  0
 11 43  1  0
 11 44  1  0
 12 45  1  1
 13 46  1  0
 13 47  1  0
 15 48  1  0
 16 49  1  0
 17 50  1  0
 18 51  1  0
 19 52  1  0
 21 53  1  0
 22 54  1  0
 24 55  1  0
 30 56  1  0
 31 57  1  0
M  END
>  <smiles>  (3) 
O=C(NCC(=O)N1CCCCC1Cc1ccccc1)c1ccc2cc(C(F)(F)F)ccc2n1

>  <score_type>  (3) 
oracle

>  <origin>  (3) 
autodockgpu

>  <m_score__min__energy>  (3) 
-8.6199999999999992

>  <m_primary>  (3) 
energy

>  <rmsd>  (3) 
2.3550332896197426

>  <m_score__min__rmsd>  (3) 
2.3550332896197426

>  <meeko>  (3) 
{"free_energy": -7.77, "intermolecular_energy": -9.86, "internal_energy": -2.34, "cluster_size": 16, "cluster_id": 1, "rank_in_cluster": 15}

>  <energy>  (3) 
-8.48

>  <cluster_rmsd>  (3) 
0.54

>  <cluster>  (3) 
1

$$$$

     RDKit          3D

 57 60  0  0  0  0  0  0  0  0999 V2000
  141.5980   74.9800  221.1910 O   0  0  0  0  0  0  0  0  0  0  0  0
  140.5310   75.1390  221.8670 C   0  0  0  0  0  0  0  0  0  0  0  0
  139.6930   74.0370  222.1960 N   0  0  0  0  0  0  0  0  0  0  0  0
  140.0070   72.6980  221.7830 C   0  0  0  0  0  0  0  0  0  0  0  0
  138.9740   71.7720  222.3050 C   0  0  0  0  0  0  0  0  0  0  0  0
  137.8740   72.2680  222.6400 O   0  0  0  0  0  0  0  0  0  0  0  0
  139.2810   70.3860  222.3950 N   0  0  0  0  0  0  0  0  0  0  0  0
  139.6560   69.6220  221.1940 C   0  0  0  0  0  0  0  0  0  0  0  0
  138.6290   68.5050  221.0750 C   0  0  0  0  0  0  0  0  0  0  0  0
  138.8130   67.5960  222.2650 C   0  0  0  0  0  0  0  0  0  0  0  0
  138.4320   68.3730  223.5050 C   0  0  0  0  0  0  0  0  0  0  0  0
  139.2520   69.6370  223.6310 C   0  0  2  0  0  0  0  0  0  0  0  0
  138.7870   70.4400  224.8070 C   0  0  0  0  0  0  0  0  0  0  0  0
  139.5820   69.9830  225.9990 C   0  0  0  0  0  0  0  0  0  0  0  0
  139.6220   68.6630  226.3890 C   0  0  0  0  0  0  0  0  0  0  0  0
  140.3680   68.2600  227.4990 C   0  0  0  0  0  0  0  0  0  0  0  0
  141.0800   69.1920  228.2240 C   0  0  0  0  0  0  0  0  0  0  0  0
  141.0560   70.5190  227.8540 C   0  0  0  0  0  0  0  0  0  0  0  0
  140.3100   70.8800  226.7540 C   0  0  0  0  0  0  0  0  0  0  0  0
  140.1350   76.4700  222.3280 C   0  0  0  0  0  0  0  0  0  0  0  0
  141.0740   77.4300  222.6320 C   0  0  0  0  0  0  0  0  0  0  0  0
  140.7410   78.6990  223.0690 C   0  0  0  0  0  0  0  0  0  0  0  0
  139.4030   79.0010  223.2050 C   0  0  0  0  0  0  0  0  0  0  0  0
  138.9430   80.2300  223.6320 C   0  0  0  0  0  0  0  0  0  0  0  0
  137.5900   80.4950  223.7550 C   0  0  0  0  0  0  0  0  0  0  0  0
  137.0710   81.8160  224.2150 C   0  0  0  0  0  0  0  0  0  0  0  0
  135.6980   81.7150  224.3570 F   0  0  0  0  0  0  0  0  0  0  0  0
  137.4200   82.8230  223.3390 F   0  0  0  0  0  0  0  0  0  0  0  0
  137.5730   82.0760  225.4830 F   0  0  0  0  0  0  0  0  0  0  0  0
  136.6520   79.5200  223.4470 C   0  0  0  0  0  0  0  0  0  0  0  0
  137.1160   78.2850  223.0170 C   0  0  0  0  0  0  0  0  0  0  0  0
  138.4710   78.0370  222.9000 C   0  0  0  0  0  0  0  0  0  0  0  0
  138.8290   76.8160  222.4780 N   0  0  0  0  0  0  0  0  0  0  0  0
  138.8120   74.2250  222.7640 H   0  0  0  0  0  0  0  0  0  0  0  0
  140.0257   72.6467  220.6844 H   0  0  0  0  0  0  0  0  0  0  0  0
  140.9932   72.4114  222.1770 H   0  0  0  0  0  0  0  0  0  0  0  0
  139.6244   70.2677  220.3040 H   0  0  0  0  0  0  0  0  0  0  0  0
  140.6789   69.2247  221.2702 H   0  0  0  0  0  0  0  0  0  0  0  0
  137.6129   68.9264  221.0770 H   0  0  0  0  0  0  0  0  0  0  0  0
  138.7663   67.9489  220.1359 H   0  0  0  0  0  0  0  0  0  0  0  0
  138.1660   66.7121  222.1640 H   0  0  0  0  0  0  0  0  0  0  0  0
  139.8572   67.2565  222.3307 H   0  0  0  0  0  0  0  0  0  0  0  0
  137.3666   68.6406  223.4476 H   0  0  0  0  0  0  0  0  0  0  0  0
  138.6264   67.7423  224.3850 H   0  0  0  0  0  0  0  0  0  0  0  0
  140.2996   69.3625  223.8239 H   0  0  0  0  0  0  0  0  0  0  0  0
  138.9618   71.5107  224.6253 H   0  0  0  0  0  0  0  0  0  0  0  0
  137.7098   70.2960  224.9772 H   0  0  0  0  0  0  0  0  0  0  0  0
  139.0567   67.9129  225.8165 H   0  0  0  0  0  0  0  0  0  0  0  0
  140.3874   67.2006  227.7943 H   0  0  0  0  0  0  0  0  0  0  0  0
  141.6677   68.8758  229.0985 H   0  0  0  0  0  0  0  0  0  0  0  0
  141.6195   71.2725  228.4239 H   0  0  0  0  0  0  0  0  0  0  0  0
  140.2935   71.9403  226.4615 H   0  0  0  0  0  0  0  0  0  0  0  0
  142.1386   77.1757  222.5222 H   0  0  0  0  0  0  0  0  0  0  0  0
  141.5179   79.4426  223.3003 H   0  0  0  0  0  0  0  0  0  0  0  0
  139.6690   81.0181  223.8806 H   0  0  0  0  0  0  0  0  0  0  0  0
  135.5744   79.7198  223.5408 H   0  0  0  0  0  0  0  0  0  0  0  0
  136.3958   77.4924  222.7658 H   0  0  0  0  0  0  0  0  0  0  0  0
  1  2  2  0
  2  3  1  0
  3  4  1  0
  4  5  1  0
  5  6  2  0
  5  7  1  0
  7  8  1  0
  8  9  1  0
  9 10  1  0
 10 11  1  0
 11 12  1  0
 12 13  1  0
 13 14  1  0
 14 15  2  0
 15 16  1  0
 16 17  2  0
 17 18  1  0
 18 19  2  0
  2 20  1  0
 20 21  2  0
 21 22  1  0
 22 23  2  0
 23 24  1  0
 24 25  2  0
 25 26  1  0
 26 27  1  0
 26 28  1  0
 26 29  1  0
 25 30  1  0
 30 31  2  0
 31 32  1  0
 32 33  2  0
 12  7  1  0
 19 14  1  0
 33 20  1  0
 32 23  1  0
  3 34  1  0
  4 35  1  0
  4 36  1  0
  8 37  1  0
  8 38  1  0
  9 39  1  0
  9 40  1  0
 10 41  1  0
 10 42  1  0
 11 43  1  0
 11 44  1  0
 12 45  1  1
 13 46  1  0
 13 47  1  0
 15 48  1  0
 16 49  1  0
 17 50  1  0
 18 51  1  0
 19 52  1  0
 21 53  1  0
 22 54  1  0
 24 55  1  0
 30 56  1  0
 31 57  1  0
M  END
>  <smiles>  (4) 
O=C(NCC(=O)N1CCCCC1Cc1ccccc1)c1ccc2cc(C(F)(F)F)ccc2n1

>  <score_type>  (4) 
oracle

>  <origin>  (4) 
autodockgpu

>  <m_score__min__energy>  (4) 
-8.6199999999999992

>  <m_primary>  (4) 
energy

>  <rmsd>  (4) 
8.217311865947307

>  <m_score__min__rmsd>  (4) 
8.217311865947307

>  <meeko>  (4) 
{"free_energy": -7.72, "intermolecular_energy": -9.8, "internal_energy": -2.15, "cluster_size": 4, "cluster_id": 5, "rank_in_cluster": 2}

>  <energy>  (4) 
-8.46

>  <cluster_rmsd>  (4) 
0.91

>  <cluster>  (4) 
1

$$$$

     RDKit          3D

 57 60  0  0  0  0  0  0  0  0999 V2000
  139.4450   72.1890  220.4880 O   0  0  0  0  0  0  0  0  0  0  0  0
  139.4910   72.6230  221.6840 C   0  0  0  0  0  0  0  0  0  0  0  0
  139.4160   74.0140  221.9690 N   0  0  0  0  0  0  0  0  0  0  0  0
  139.2870   74.9940  220.9280 C   0  0  0  0  0  0  0  0  0  0  0  0
  139.0630   76.3270  221.5360 C   0  0  0  0  0  0  0  0  0  0  0  0
  138.7280   76.3590  222.7430 O   0  0  0  0  0  0  0  0  0  0  0  0
  139.2400   77.4860  220.7300 N   0  0  0  0  0  0  0  0  0  0  0  0
  138.2820   77.8070  219.6610 C   0  0  0  0  0  0  0  0  0  0  0  0
  139.0940   77.8430  218.3740 C   0  0  0  0  0  0  0  0  0  0  0  0
  140.0570   78.9990  218.4810 C   0  0  0  0  0  0  0  0  0  0  0  0
  141.0450   78.6790  219.5800 C   0  0  0  0  0  0  0  0  0  0  0  0
  140.3380   78.4130  220.8900 C   0  0  2  0  0  0  0  0  0  0  0  0
  141.3260   77.9980  221.9360 C   0  0  0  0  0  0  0  0  0  0  0  0
  141.6760   79.2270  222.7280 C   0  0  0  0  0  0  0  0  0  0  0  0
  142.9710   79.5210  223.0930 C   0  0  0  0  0  0  0  0  0  0  0  0
  143.2730   80.6690  223.8280 C   0  0  0  0  0  0  0  0  0  0  0  0
  142.2630   81.5310  224.2020 C   0  0  0  0  0  0  0  0  0  0  0  0
  140.9590   81.2600  223.8500 C   0  0  0  0  0  0  0  0  0  0  0  0
  140.6980   80.1190  223.1240 C   0  0  0  0  0  0  0  0  0  0  0  0
  139.6230   71.6930  222.8060 C   0  0  0  0  0  0  0  0  0  0  0  0
  139.1810   70.3930  222.7140 C   0  0  0  0  0  0  0  0  0  0  0  0
  139.2880   69.4840  223.7510 C   0  0  0  0  0  0  0  0  0  0  0  0
  139.8650   69.9150  224.9260 C   0  0  0  0  0  0  0  0  0  0  0  0
  140.0280   69.1060  226.0320 C   0  0  0  0  0  0  0  0  0  0  0  0
  140.6140   69.5770  227.1940 C   0  0  0  0  0  0  0  0  0  0  0  0
  140.8000   68.7190  228.4010 C   0  0  0  0  0  0  0  0  0  0  0  0
  141.1160   67.4400  227.9770 F   0  0  0  0  0  0  0  0  0  0  0  0
  139.6740   68.7270  229.1990 F   0  0  0  0  0  0  0  0  0  0  0  0
  141.9030   69.1760  229.1080 F   0  0  0  0  0  0  0  0  0  0  0  0
  141.0560   70.8900  227.2780 C   0  0  0  0  0  0  0  0  0  0  0  0
  140.8910   71.7020  226.1650 C   0  0  0  0  0  0  0  0  0  0  0  0
  140.3040   71.2160  225.0110 C   0  0  0  0  0  0  0  0  0  0  0  0
  140.1850   72.0710  223.9860 N   0  0  0  0  0  0  0  0  0  0  0  0
  139.4600   74.3240  222.9870 H   0  0  0  0  0  0  0  0  0  0  0  0
  140.2076   75.0145  220.3263 H   0  0  0  0  0  0  0  0  0  0  0  0
  138.4352   74.7356  220.2818 H   0  0  0  0  0  0  0  0  0  0  0  0
  137.5022   77.0336  219.6005 H   0  0  0  0  0  0  0  0  0  0  0  0
  137.7742   78.7650  219.8464 H   0  0  0  0  0  0  0  0  0  0  0  0
  139.6491   76.9011  218.2531 H   0  0  0  0  0  0  0  0  0  0  0  0
  138.4348   77.9658  217.5020 H   0  0  0  0  0  0  0  0  0  0  0  0
  140.5887   79.1323  217.5273 H   0  0  0  0  0  0  0  0  0  0  0  0
  139.5161   79.9290  218.7102 H   0  0  0  0  0  0  0  0  0  0  0  0
  141.6215   77.7864  219.2956 H   0  0  0  0  0  0  0  0  0  0  0  0
  141.7109   79.5444  219.7128 H   0  0  0  0  0  0  0  0  0  0  0  0
  139.8750   79.3473  221.2404 H   0  0  0  0  0  0  0  0  0  0  0  0
  140.8804   77.2387  222.5955 H   0  0  0  0  0  0  0  0  0  0  0  0
  142.2240   77.5616  221.4743 H   0  0  0  0  0  0  0  0  0  0  0  0
  143.7825   78.8387  222.8000 H   0  0  0  0  0  0  0  0  0  0  0  0
  144.3144   80.8857  224.1083 H   0  0  0  0  0  0  0  0  0  0  0  0
  142.4991   82.4355  224.7818 H   0  0  0  0  0  0  0  0  0  0  0  0
  140.1447   81.9394  224.1421 H   0  0  0  0  0  0  0  0  0  0  0  0
  139.6555   79.9066  222.8446 H   0  0  0  0  0  0  0  0  0  0  0  0
  138.7210   70.0612  221.7715 H   0  0  0  0  0  0  0  0  0  0  0  0
  138.9247   68.4515  223.6415 H   0  0  0  0  0  0  0  0  0  0  0  0
  139.6840   68.0620  225.9891 H   0  0  0  0  0  0  0  0  0  0  0  0
  141.5221   71.2745  228.1972 H   0  0  0  0  0  0  0  0  0  0  0  0
  141.2320   72.7472  226.2011 H   0  0  0  0  0  0  0  0  0  0  0  0
  1  2  2  0
  2  3  1  0
  3  4  1  0
  4  5  1  0
  5  6  2  0
  5  7  1  0
  7  8  1  0
  8  9  1  0
  9 10  1  0
 10 11  1  0
 11 12  1  0
 12 13  1  0
 13 14  1  0
 14 15  2  0
 15 16  1  0
 16 17  2  0
 17 18  1  0
 18 19  2  0
  2 20  1  0
 20 21  2  0
 21 22  1  0
 22 23  2  0
 23 24  1  0
 24 25  2  0
 25 26  1  0
 26 27  1  0
 26 28  1  0
 26 29  1  0
 25 30  1  0
 30 31  2  0
 31 32  1  0
 32 33  2  0
 12  7  1  0
 19 14  1  0
 33 20  1  0
 32 23  1  0
  3 34  1  0
  4 35  1  0
  4 36  1  0
  8 37  1  0
  8 38  1  0
  9 39  1  0
  9 40  1  0
 10 41  1  0
 10 42  1  0
 11 43  1  0
 11 44  1  0
 12 45  1  1
 13 46  1  0
 13 47  1  0
 15 48  1  0
 16 49  1  0
 17 50  1  0
 18 51  1  0
 19 52  1  0
 21 53  1  0
 22 54  1  0
 24 55  1  0
 30 56  1  0
 31 57  1  0
M  END
>  <smiles>  (5) 
O=C(NCC(=O)N1CCCCC1Cc1ccccc1)c1ccc2cc(C(F)(F)F)ccc2n1

>  <score_type>  (5) 
oracle

>  <origin>  (5) 
autodockgpu

>  <m_score__min__energy>  (5) 
-8.6199999999999992

>  <m_primary>  (5) 
energy

>  <rmsd>  (5) 
2.2437858348031567

>  <m_score__min__rmsd>  (5) 
2.2437858348031567

>  <meeko>  (5) 
{"free_energy": -8.03, "intermolecular_energy": -10.12, "internal_energy": -2.28, "cluster_size": 16, "cluster_id": 1, "rank_in_cluster": 10}

>  <energy>  (5) 
-8.46

>  <cluster_rmsd>  (5) 
0.25

>  <cluster>  (5) 
1

$$$$

     RDKit          3D

 57 60  0  0  0  0  0  0  0  0999 V2000
  134.0610   71.2510  225.1030 O   0  0  0  0  0  0  0  0  0  0  0  0
  134.8310   72.2550  224.9640 C   0  0  0  0  0  0  0  0  0  0  0  0
  136.0960   72.1340  224.3230 N   0  0  0  0  0  0  0  0  0  0  0  0
  136.5650   70.8790  223.8060 C   0  0  0  0  0  0  0  0  0  0  0  0
  137.8940   71.0750  223.1800 C   0  0  0  0  0  0  0  0  0  0  0  0
  138.2550   72.2530  222.9550 O   0  0  0  0  0  0  0  0  0  0  0  0
  138.6810   69.9310  222.8720 N   0  0  0  0  0  0  0  0  0  0  0  0
  139.1270   69.6770  221.4930 C   0  0  0  0  0  0  0  0  0  0  0  0
  138.5560   68.3180  221.1160 C   0  0  0  0  0  0  0  0  0  0  0  0
  139.2160   67.2910  222.0000 C   0  0  0  0  0  0  0  0  0  0  0  0
  138.7650   67.5440  223.4220 C   0  0  0  0  0  0  0  0  0  0  0  0
  139.0940   68.9550  223.8560 C   0  0  2  0  0  0  0  0  0  0  0  0
  138.5470   69.2150  225.2260 C   0  0  0  0  0  0  0  0  0  0  0  0
  139.5430   70.0860  225.9420 C   0  0  0  0  0  0  0  0  0  0  0  0
  140.2820   71.0450  225.2870 C   0  0  0  0  0  0  0  0  0  0  0  0
  141.2020   71.8420  225.9720 C   0  0  0  0  0  0  0  0  0  0  0  0
  141.3790   71.6750  227.3290 C   0  0  0  0  0  0  0  0  0  0  0  0
  140.6510   70.7220  228.0080 C   0  0  0  0  0  0  0  0  0  0  0  0
  139.7540   69.9540  227.3000 C   0  0  0  0  0  0  0  0  0  0  0  0
  134.4320   73.5720  225.4620 C   0  0  0  0  0  0  0  0  0  0  0  0
  135.0230   74.7240  224.9910 C   0  0  0  0  0  0  0  0  0  0  0  0
  134.6730   75.9860  225.4360 C   0  0  0  0  0  0  0  0  0  0  0  0
  133.6880   76.0800  226.3950 C   0  0  0  0  0  0  0  0  0  0  0  0
  133.2520   77.2800  226.9180 C   0  0  0  0  0  0  0  0  0  0  0  0
  132.2590   77.3320  227.8810 C   0  0  0  0  0  0  0  0  0  0  0  0
  131.7730   78.6180  228.4600 C   0  0  0  0  0  0  0  0  0  0  0  0
  131.2020   79.3620  227.4420 F   0  0  0  0  0  0  0  0  0  0  0  0
  132.7970   79.3060  229.0810 F   0  0  0  0  0  0  0  0  0  0  0  0
  130.7530   78.3460  229.3600 F   0  0  0  0  0  0  0  0  0  0  0  0
  131.6710   76.1660  228.3490 C   0  0  0  0  0  0  0  0  0  0  0  0
  132.1110   74.9600  227.8220 C   0  0  0  0  0  0  0  0  0  0  0  0
  133.1040   74.9250  226.8600 C   0  0  0  0  0  0  0  0  0  0  0  0
  133.4660   73.7170  226.4070 N   0  0  0  0  0  0  0  0  0  0  0  0
  136.7010   73.0050  224.2320 H   0  0  0  0  0  0  0  0  0  0  0  0
  136.6488   70.1514  224.6267 H   0  0  0  0  0  0  0  0  0  0  0  0
  135.8555   70.5006  223.0554 H   0  0  0  0  0  0  0  0  0  0  0  0
  138.7427   70.4549  220.8168 H   0  0  0  0  0  0  0  0  0  0  0  0
  140.2240   69.6913  221.4133 H   0  0  0  0  0  0  0  0  0  0  0  0
  137.4679   68.3094  221.2773 H   0  0  0  0  0  0  0  0  0  0  0  0
  138.7463   68.0974  220.0553 H   0  0  0  0  0  0  0  0  0  0  0  0
  138.9161   66.2800  221.6869 H   0  0  0  0  0  0  0  0  0  0  0  0
  140.3108   67.3675  221.9255 H   0  0  0  0  0  0  0  0  0  0  0  0
  137.6773   67.3931  223.4859 H   0  0  0  0  0  0  0  0  0  0  0  0
  139.2928   66.8430  224.0853 H   0  0  0  0  0  0  0  0  0  0  0  0
  140.1868   69.0613  223.9224 H   0  0  0  0  0  0  0  0  0  0  0  0
  137.5780   69.7306  225.1538 H   0  0  0  0  0  0  0  0  0  0  0  0
  138.3891   68.2721  225.7700 H   0  0  0  0  0  0  0  0  0  0  0  0
  140.1455   71.1862  224.2047 H   0  0  0  0  0  0  0  0  0  0  0  0
  141.7843   72.6016  225.4297 H   0  0  0  0  0  0  0  0  0  0  0  0
  142.1020   72.3030  227.8702 H   0  0  0  0  0  0  0  0  0  0  0  0
  140.7835   70.5782  229.0905 H   0  0  0  0  0  0  0  0  0  0  0  0
  139.1745   69.1947  227.8455 H   0  0  0  0  0  0  0  0  0  0  0  0
  135.8088   74.6361  224.2263 H   0  0  0  0  0  0  0  0  0  0  0  0
  135.1650   76.8854  225.0373 H   0  0  0  0  0  0  0  0  0  0  0  0
  133.7040   78.2173  226.5614 H   0  0  0  0  0  0  0  0  0  0  0  0
  130.8809   76.1964  229.1137 H   0  0  0  0  0  0  0  0  0  0  0  0
  131.6637   74.0188  228.1743 H   0  0  0  0  0  0  0  0  0  0  0  0
  1  2  2  0
  2  3  1  0
  3  4  1  0
  4  5  1  0
  5  6  2  0
  5  7  1  0
  7  8  1  0
  8  9  1  0
  9 10  1  0
 10 11  1  0
 11 12  1  0
 12 13  1  0
 13 14  1  0
 14 15  2  0
 15 16  1  0
 16 17  2  0
 17 18  1  0
 18 19  2  0
  2 20  1  0
 20 21  2  0
 21 22  1  0
 22 23  2  0
 23 24  1  0
 24 25  2  0
 25 26  1  0
 26 27  1  0
 26 28  1  0
 26 29  1  0
 25 30  1  0
 30 31  2  0
 31 32  1  0
 32 33  2  0
 12  7  1  0
 19 14  1  0
 33 20  1  0
 32 23  1  0
  3 34  1  0
  4 35  1  0
  4 36  1  0
  8 37  1  0
  8 38  1  0
  9 39  1  0
  9 40  1  0
 10 41  1  0
 10 42  1  0
 11 43  1  0
 11 44  1  0
 12 45  1  1
 13 46  1  0
 13 47  1  0
 15 48  1  0
 16 49  1  0
 17 50  1  0
 18 51  1  0
 19 52  1  0
 21 53  1  0
 22 54  1  0
 24 55  1  0
 30 56  1  0
 31 57  1  0
M  END
>  <smiles>  (6) 
O=C(NCC(=O)N1CCCCC1Cc1ccccc1)c1ccc2cc(C(F)(F)F)ccc2n1

>  <score_type>  (6) 
oracle

>  <origin>  (6) 
autodockgpu

>  <m_score__min__energy>  (6) 
-8.6199999999999992

>  <m_primary>  (6) 
energy

>  <rmsd>  (6) 
8.339980027498624

>  <m_score__min__rmsd>  (6) 
8.339980027498624

>  <meeko>  (6) 
{"free_energy": -7.77, "intermolecular_energy": -9.85, "internal_energy": -2.01, "cluster_size": 13, "cluster_id": 3, "rank_in_cluster": 12}

>  <energy>  (6) 
-8.44

>  <cluster_rmsd>  (6) 
0.23

>  <cluster>  (6) 
1

$$$$

     RDKit          3D

 57 60  0  0  0  0  0  0  0  0999 V2000
  139.8040   73.3790  220.2740 O   0  0  0  0  0  0  0  0  0  0  0  0
  139.6480   73.5330  221.5290 C   0  0  0  0  0  0  0  0  0  0  0  0
  139.5100   74.8260  222.1040 N   0  0  0  0  0  0  0  0  0  0  0  0
  139.5410   76.0180  221.3030 C   0  0  0  0  0  0  0  0  0  0  0  0
  140.8330   76.7140  221.5130 C   0  0  0  0  0  0  0  0  0  0  0  0
  141.0630   77.1650  222.6590 O   0  0  0  0  0  0  0  0  0  0  0  0
  141.7340   76.8300  220.4190 N   0  0  0  0  0  0  0  0  0  0  0  0
  141.7410   78.0390  219.5800 C   0  0  0  0  0  0  0  0  0  0  0  0
  141.4400   77.5650  218.1660 C   0  0  0  0  0  0  0  0  0  0  0  0
  142.5960   76.7030  217.7250 C   0  0  0  0  0  0  0  0  0  0  0  0
  142.5980   75.4570  218.5830 C   0  0  0  0  0  0  0  0  0  0  0  0
  142.6850   75.8060  220.0510 C   0  0  2  0  0  0  0  0  0  0  0  0
  142.5820   74.5650  220.8850 C   0  0  0  0  0  0  0  0  0  0  0  0
  143.7890   73.7230  220.5770 C   0  0  0  0  0  0  0  0  0  0  0  0
  145.0710   74.1620  220.8240 C   0  0  0  0  0  0  0  0  0  0  0  0
  146.1780   73.3630  220.5300 C   0  0  0  0  0  0  0  0  0  0  0  0
  145.9960   72.1100  219.9830 C   0  0  0  0  0  0  0  0  0  0  0  0
  144.7240   71.6480  219.7270 C   0  0  0  0  0  0  0  0  0  0  0  0
  143.6560   72.4630  220.0290 C   0  0  0  0  0  0  0  0  0  0  0  0
  139.6050   72.3720  222.4190 C   0  0  0  0  0  0  0  0  0  0  0  0
  138.9560   71.2140  222.0540 C   0  0  0  0  0  0  0  0  0  0  0  0
  138.8940   70.0970  222.8670 C   0  0  0  0  0  0  0  0  0  0  0  0
  139.5140   70.1600  224.0960 C   0  0  0  0  0  0  0  0  0  0  0  0
  139.5220   69.1140  224.9960 C   0  0  0  0  0  0  0  0  0  0  0  0
  140.1570   69.2170  226.2210 C   0  0  0  0  0  0  0  0  0  0  0  0
  140.1780   68.0980  227.2080 C   0  0  0  0  0  0  0  0  0  0  0  0
  139.8300   68.6090  228.4470 F   0  0  0  0  0  0  0  0  0  0  0  0
  141.4130   67.4830  227.2410 F   0  0  0  0  0  0  0  0  0  0  0  0
  139.1870   67.1870  226.8720 F   0  0  0  0  0  0  0  0  0  0  0  0
  140.8080   70.3880  226.5800 C   0  0  0  0  0  0  0  0  0  0  0  0
  140.7990   71.4400  225.6740 C   0  0  0  0  0  0  0  0  0  0  0  0
  140.1600   71.3200  224.4530 C   0  0  0  0  0  0  0  0  0  0  0  0
  140.2020   72.3850  223.6420 N   0  0  0  0  0  0  0  0  0  0  0  0
  139.3820   74.8980  223.1580 H   0  0  0  0  0  0  0  0  0  0  0  0
  139.4358   75.7504  220.2412 H   0  0  0  0  0  0  0  0  0  0  0  0
  138.7130   76.6806  221.5950 H   0  0  0  0  0  0  0  0  0  0  0  0
  140.9690   78.7452  219.9196 H   0  0  0  0  0  0  0  0  0  0  0  0
  142.7065   78.5633  219.6340 H   0  0  0  0  0  0  0  0  0  0  0  0
  140.5088   76.9796  218.1557 H   0  0  0  0  0  0  0  0  0  0  0  0
  141.3126   78.4215  217.4876 H   0  0  0  0  0  0  0  0  0  0  0  0
  142.4754   76.4283  216.6667 H   0  0  0  0  0  0  0  0  0  0  0  0
  143.5453   77.2474  217.8362 H   0  0  0  0  0  0  0  0  0  0  0  0
  141.6700   74.8949  218.4019 H   0  0  0  0  0  0  0  0  0  0  0  0
  143.4762   74.8508  218.3158 H   0  0  0  0  0  0  0  0  0  0  0  0
  143.6723   76.2470  220.2526 H   0  0  0  0  0  0  0  0  0  0  0  0
  142.5683   74.8283  221.9529 H   0  0  0  0  0  0  0  0  0  0  0  0
  141.6551   74.0175  220.6589 H   0  0  0  0  0  0  0  0  0  0  0  0
  145.2256   75.1597  221.2606 H   0  0  0  0  0  0  0  0  0  0  0  0
  147.1937   73.7325  220.7344 H   0  0  0  0  0  0  0  0  0  0  0  0
  146.8670   71.4795  219.7511 H   0  0  0  0  0  0  0  0  0  0  0  0
  144.5649   70.6506  219.2912 H   0  0  0  0  0  0  0  0  0  0  0  0
  142.6421   72.0899  219.8224 H   0  0  0  0  0  0  0  0  0  0  0  0
  138.4643   71.1755  221.0708 H   0  0  0  0  0  0  0  0  0  0  0  0
  138.3668   69.1876  222.5431 H   0  0  0  0  0  0  0  0  0  0  0  0
  139.0113   68.1758  224.7333 H   0  0  0  0  0  0  0  0  0  0  0  0
  141.3153   70.4802  227.5517 H   0  0  0  0  0  0  0  0  0  0  0  0
  141.3068   72.3815  225.9305 H   0  0  0  0  0  0  0  0  0  0  0  0
  1  2  2  0
  2  3  1  0
  3  4  1  0
  4  5  1  0
  5  6  2  0
  5  7  1  0
  7  8  1  0
  8  9  1  0
  9 10  1  0
 10 11  1  0
 11 12  1  0
 12 13  1  0
 13 14  1  0
 14 15  2  0
 15 16  1  0
 16 17  2  0
 17 18  1  0
 18 19  2  0
  2 20  1  0
 20 21  2  0
 21 22  1  0
 22 23  2  0
 23 24  1  0
 24 25  2  0
 25 26  1  0
 26 27  1  0
 26 28  1  0
 26 29  1  0
 25 30  1  0
 30 31  2  0
 31 32  1  0
 32 33  2  0
 12  7  1  0
 19 14  1  0
 33 20  1  0
 32 23  1  0
  3 34  1  0
  4 35  1  0
  4 36  1  0
  8 37  1  0
  8 38  1  0
  9 39  1  0
  9 40  1  0
 10 41  1  0
 10 42  1  0
 11 43  1  0
 11 44  1  0
 12 45  1  6
 13 46  1  0
 13 47  1  0
 15 48  1  0
 16 49  1  0
 17 50  1  0
 18 51  1  0
 19 52  1  0
 21 53  1  0
 22 54  1  0
 24 55  1  0
 30 56  1  0
 31 57  1  0
M  END
>  <smiles>  (7) 
O=C(NCC(=O)N1CCCCC1Cc1ccccc1)c1ccc2cc(C(F)(F)F)ccc2n1

>  <score_type>  (7) 
oracle

>  <origin>  (7) 
autodockgpu

>  <m_score__min__energy>  (7) 
-8.6199999999999992

>  <m_primary>  (7) 
energy

>  <rmsd>  (7) 
2.76479483286735

>  <m_score__min__rmsd>  (7) 
2.76479483286735

>  <meeko>  (7) 
{"free_energy": -8.02, "intermolecular_energy": -10.11, "internal_energy": -2.26, "cluster_size": 1, "cluster_id": 4, "rank_in_cluster": 1}

>  <energy>  (7) 
-8.4

>  <cluster_rmsd>  (7) 
0.22

>  <cluster>  (7) 
1

$$$$

     RDKit          3D

 57 60  0  0  0  0  0  0  0  0999 V2000
  139.3240   72.1860  220.4680 O   0  0  0  0  0  0  0  0  0  0  0  0
  139.4390   72.6290  221.6560 C   0  0  0  0  0  0  0  0  0  0  0  0
  139.4610   74.0260  221.9260 N   0  0  0  0  0  0  0  0  0  0  0  0
  139.3550   75.0000  220.8760 C   0  0  0  0  0  0  0  0  0  0  0  0
  140.1920   76.1760  221.2160 C   0  0  0  0  0  0  0  0  0  0  0  0
  140.5270   76.3150  222.4150 O   0  0  0  0  0  0  0  0  0  0  0  0
  140.5660   77.0730  220.1770 N   0  0  0  0  0  0  0  0  0  0  0  0
  141.2960   76.5870  218.9960 C   0  0  0  0  0  0  0  0  0  0  0  0
  142.6010   77.3680  218.9640 C   0  0  0  0  0  0  0  0  0  0  0  0
  142.2550   78.8150  218.7180 C   0  0  0  0  0  0  0  0  0  0  0  0
  141.5020   79.3240  219.9270 C   0  0  0  0  0  0  0  0  0  0  0  0
  140.2710   78.4880  220.1950 C   0  0  2  0  0  0  0  0  0  0  0  0
  139.6000   78.9450  221.4550 C   0  0  0  0  0  0  0  0  0  0  0  0
  140.6500   79.6100  222.3000 C   0  0  0  0  0  0  0  0  0  0  0  0
  141.5740   78.8880  223.0240 C   0  0  0  0  0  0  0  0  0  0  0  0
  142.5410   79.5270  223.8020 C   0  0  0  0  0  0  0  0  0  0  0  0
  142.5810   80.9050  223.8550 C   0  0  0  0  0  0  0  0  0  0  0  0
  141.6690   81.6490  223.1410 C   0  0  0  0  0  0  0  0  0  0  0  0
  140.7290   80.9860  222.3840 C   0  0  0  0  0  0  0  0  0  0  0  0
  139.5530   71.7060  222.7850 C   0  0  0  0  0  0  0  0  0  0  0  0
  138.9560   70.4650  222.7570 C   0  0  0  0  0  0  0  0  0  0  0  0
  139.0410   69.5640  223.8030 C   0  0  0  0  0  0  0  0  0  0  0  0
  139.7570   69.9400  224.9190 C   0  0  0  0  0  0  0  0  0  0  0  0
  139.9150   69.1320  226.0270 C   0  0  0  0  0  0  0  0  0  0  0  0
  140.6420   69.5460  227.1280 C   0  0  0  0  0  0  0  0  0  0  0  0
  140.8250   68.6890  228.3350 C   0  0  0  0  0  0  0  0  0  0  0  0
  141.8440   69.2300  229.1000 F   0  0  0  0  0  0  0  0  0  0  0  0
  141.0920   67.3810  227.9850 F   0  0  0  0  0  0  0  0  0  0  0  0
  139.6780   68.7610  229.1130 F   0  0  0  0  0  0  0  0  0  0  0  0
  141.2390   70.7990  227.1470 C   0  0  0  0  0  0  0  0  0  0  0  0
  141.0800   71.6100  226.0330 C   0  0  0  0  0  0  0  0  0  0  0  0
  140.3500   71.1810  224.9390 C   0  0  0  0  0  0  0  0  0  0  0  0
  140.2480   72.0300  223.9080 N   0  0  0  0  0  0  0  0  0  0  0  0
  139.5590   74.3430  222.9370 H   0  0  0  0  0  0  0  0  0  0  0  0
  139.7044   74.5608  219.9300 H   0  0  0  0  0  0  0  0  0  0  0  0
  138.3060   75.3122  220.7658 H   0  0  0  0  0  0  0  0  0  0  0  0
  141.4969   75.5093  219.0867 H   0  0  0  0  0  0  0  0  0  0  0  0
  140.7150   76.7321  218.0733 H   0  0  0  0  0  0  0  0  0  0  0  0
  143.1245   77.2649  219.9260 H   0  0  0  0  0  0  0  0  0  0  0  0
  143.2623   76.9868  218.1719 H   0  0  0  0  0  0  0  0  0  0  0  0
  143.1753   79.4007  218.5768 H   0  0  0  0  0  0  0  0  0  0  0  0
  141.6382   78.9133  217.8126 H   0  0  0  0  0  0  0  0  0  0  0  0
  142.1628   79.2819  220.8054 H   0  0  0  0  0  0  0  0  0  0  0  0
  141.1848   80.3587  219.7302 H   0  0  0  0  0  0  0  0  0  0  0  0
  139.5529   78.6404  219.3758 H   0  0  0  0  0  0  0  0  0  0  0  0
  138.7985   79.6600  221.2175 H   0  0  0  0  0  0  0  0  0  0  0  0
  139.1493   78.0951  221.9884 H   0  0  0  0  0  0  0  0  0  0  0  0
  141.5491   77.7889  222.9882 H   0  0  0  0  0  0  0  0  0  0  0  0
  143.2702   78.9326  224.3721 H   0  0  0  0  0  0  0  0  0  0  0  0
  143.3422   81.4096  224.4682 H   0  0  0  0  0  0  0  0  0  0  0  0
  141.6907   82.7483  223.1744 H   0  0  0  0  0  0  0  0  0  0  0  0
  140.0020   81.5847  221.8157 H   0  0  0  0  0  0  0  0  0  0  0  0
  138.3854   70.1773  221.8617 H   0  0  0  0  0  0  0  0  0  0  0  0
  138.5532   68.5797  223.7460 H   0  0  0  0  0  0  0  0  0  0  0  0
  139.4513   68.1345  226.0343 H   0  0  0  0  0  0  0  0  0  0  0  0
  141.8196   71.1380  228.0176 H   0  0  0  0  0  0  0  0  0  0  0  0
  141.5410   72.6086  226.0193 H   0  0  0  0  0  0  0  0  0  0  0  0
  1  2  2  0
  2  3  1  0
  3  4  1  0
  4  5  1  0
  5  6  2  0
  5  7  1  0
  7  8  1  0
  8  9  1  0
  9 10  1  0
 10 11  1  0
 11 12  1  0
 12 13  1  0
 13 14  1  0
 14 15  2  0
 15 16  1  0
 16 17  2  0
 17 18  1  0
 18 19  2  0
  2 20  1  0
 20 21  2  0
 21 22  1  0
 22 23  2  0
 23 24  1  0
 24 25  2  0
 25 26  1  0
 26 27  1  0
 26 28  1  0
 26 29  1  0
 25 30  1  0
 30 31  2  0
 31 32  1  0
 32 33  2  0
 12  7  1  0
 19 14  1  0
 33 20  1  0
 32 23  1  0
  3 34  1  0
  4 35  1  0
  4 36  1  0
  8 37  1  0
  8 38  1  0
  9 39  1  0
  9 40  1  0
 10 41  1  0
 10 42  1  0
 11 43  1  0
 11 44  1  0
 12 45  1  6
 13 46  1  0
 13 47  1  0
 15 48  1  0
 16 49  1  0
 17 50  1  0
 18 51  1  0
 19 52  1  0
 21 53  1  0
 22 54  1  0
 24 55  1  0
 30 56  1  0
 31 57  1  0
M  END
>  <smiles>  (8) 
O=C(NCC(=O)N1CCCCC1Cc1ccccc1)c1ccc2cc(C(F)(F)F)ccc2n1

>  <score_type>  (8) 
oracle

>  <origin>  (8) 
autodockgpu

>  <m_score__min__energy>  (8) 
-8.6199999999999992

>  <m_primary>  (8) 
energy

>  <rmsd>  (8) 
2.234469382277732

>  <m_score__min__rmsd>  (8) 
2.234469382277732

>  <meeko>  (8) 
{"free_energy": -8.4, "intermolecular_energy": -10.49, "internal_energy": -2.18, "cluster_size": 16, "cluster_id": 1, "rank_in_cluster": 7}

>  <energy>  (8) 
-8.38

>  <cluster_rmsd>  (8) 
0.94

>  <cluster>  (8) 
1

$$$$

     RDKit          3D

 57 60  0  0  0  0  0  0  0  0999 V2000
  140.4600   73.0960  220.6680 O   0  0  0  0  0  0  0  0  0  0  0  0
  139.7280   73.2660  221.6950 C   0  0  0  0  0  0  0  0  0  0  0  0
  138.9830   74.4630  221.8840 N   0  0  0  0  0  0  0  0  0  0  0  0
  139.0220   75.5350  220.9290 C   0  0  0  0  0  0  0  0  0  0  0  0
  140.2810   76.2970  221.1010 C   0  0  0  0  0  0  0  0  0  0  0  0
  140.8740   76.1870  222.2000 O   0  0  0  0  0  0  0  0  0  0  0  0
  140.7470   77.1020  220.0250 N   0  0  0  0  0  0  0  0  0  0  0  0
  141.5460   76.5110  218.9400 C   0  0  0  0  0  0  0  0  0  0  0  0
  142.8680   77.2660  218.9400 C   0  0  0  0  0  0  0  0  0  0  0  0
  142.5710   78.6940  218.5570 C   0  0  0  0  0  0  0  0  0  0  0  0
  141.7470   79.3100  219.6660 C   0  0  0  0  0  0  0  0  0  0  0  0
  140.4830   78.5180  219.9100 C   0  0  2  0  0  0  0  0  0  0  0  0
  139.7350   79.0850  221.0790 C   0  0  0  0  0  0  0  0  0  0  0  0
  140.7500   79.7230  221.9870 C   0  0  0  0  0  0  0  0  0  0  0  0
  140.8820   81.0890  222.0930 C   0  0  0  0  0  0  0  0  0  0  0  0
  141.8320   81.6600  222.9430 C   0  0  0  0  0  0  0  0  0  0  0  0
  142.6580   80.8500  223.6940 C   0  0  0  0  0  0  0  0  0  0  0  0
  142.5450   79.4800  223.6060 C   0  0  0  0  0  0  0  0  0  0  0  0
  141.5980   78.9520  222.7570 C   0  0  0  0  0  0  0  0  0  0  0  0
  139.6310   72.2240  222.7190 C   0  0  0  0  0  0  0  0  0  0  0  0
  138.7860   71.1470  222.5660 C   0  0  0  0  0  0  0  0  0  0  0  0
  138.6660   70.1430  223.5090 C   0  0  0  0  0  0  0  0  0  0  0  0
  139.4330   70.2380  224.6500 C   0  0  0  0  0  0  0  0  0  0  0  0
  139.4040   69.3010  225.6630 C   0  0  0  0  0  0  0  0  0  0  0  0
  140.1900   69.4320  226.7940 C   0  0  0  0  0  0  0  0  0  0  0  0
  140.1740   68.4320  227.9010 C   0  0  0  0  0  0  0  0  0  0  0  0
  139.2980   67.4180  227.5540 F   0  0  0  0  0  0  0  0  0  0  0  0
  139.8230   69.0190  229.1000 F   0  0  0  0  0  0  0  0  0  0  0  0
  141.4280   67.8460  227.9930 F   0  0  0  0  0  0  0  0  0  0  0  0
  141.0380   70.5220  226.9390 C   0  0  0  0  0  0  0  0  0  0  0  0
  141.0670   71.4620  225.9190 C   0  0  0  0  0  0  0  0  0  0  0  0
  140.2740   71.3160  224.7950 C   0  0  0  0  0  0  0  0  0  0  0  0
  140.3670   72.2720  223.8620 N   0  0  0  0  0  0  0  0  0  0  0  0
  138.3860   74.5540  222.7600 H   0  0  0  0  0  0  0  0  0  0  0  0
  138.9786   75.1218  219.9105 H   0  0  0  0  0  0  0  0  0  0  0  0
  138.1622   76.2023  221.0881 H   0  0  0  0  0  0  0  0  0  0  0  0
  141.7161   75.4407  219.1287 H   0  0  0  0  0  0  0  0  0  0  0  0
  141.0338   76.5914  217.9699 H   0  0  0  0  0  0  0  0  0  0  0  0
  143.3207   77.2317  219.9419 H   0  0  0  0  0  0  0  0  0  0  0  0
  143.5748   76.8121  218.2298 H   0  0  0  0  0  0  0  0  0  0  0  0
  143.5112   79.2519  218.4357 H   0  0  0  0  0  0  0  0  0  0  0  0
  142.0207   78.7293  217.6052 H   0  0  0  0  0  0  0  0  0  0  0  0
  142.3439   79.3273  220.5898 H   0  0  0  0  0  0  0  0  0  0  0  0
  141.4670   80.3309  219.3670 H   0  0  0  0  0  0  0  0  0  0  0  0
  139.8284   78.6159  219.0314 H   0  0  0  0  0  0  0  0  0  0  0  0
  139.0111   79.8381  220.7343 H   0  0  0  0  0  0  0  0  0  0  0  0
  139.1785   78.2966  221.6070 H   0  0  0  0  0  0  0  0  0  0  0  0
  140.2276   81.7427  221.4976 H   0  0  0  0  0  0  0  0  0  0  0  0
  141.9213   82.7541  223.0133 H   0  0  0  0  0  0  0  0  0  0  0  0
  143.4071   81.2981  224.3633 H   0  0  0  0  0  0  0  0  0  0  0  0
  143.1965   78.8226  224.2005 H   0  0  0  0  0  0  0  0  0  0  0  0
  141.5126   77.8575  222.6886 H   0  0  0  0  0  0  0  0  0  0  0  0
  138.1785   71.0827  221.6512 H   0  0  0  0  0  0  0  0  0  0  0  0
  137.9810   69.2964  223.3537 H   0  0  0  0  0  0  0  0  0  0  0  0
  138.7400   68.4291  225.5688 H   0  0  0  0  0  0  0  0  0  0  0  0
  141.6668   70.6365  227.8342 H   0  0  0  0  0  0  0  0  0  0  0  0
  141.7299   72.3356  226.0053 H   0  0  0  0  0  0  0  0  0  0  0  0
  1  2  2  0
  2  3  1  0
  3  4  1  0
  4  5  1  0
  5  6  2  0
  5  7  1  0
  7  8  1  0
  8  9  1  0
  9 10  1  0
 10 11  1  0
 11 12  1  0
 12 13  1  0
 13 14  1  0
 14 15  2  0
 15 16  1  0
 16 17  2  0
 17 18  1  0
 18 19  2  0
  2 20  1  0
 20 21  2  0
 21 22  1  0
 22 23  2  0
 23 24  1  0
 24 25  2  0
 25 26  1  0
 26 27  1  0
 26 28  1  0
 26 29  1  0
 25 30  1  0
 30 31  2  0
 31 32  1  0
 32 33  2  0
 12  7  1  0
 19 14  1  0
 33 20  1  0
 32 23  1  0
  3 34  1  0
  4 35  1  0
  4 36  1  0
  8 37  1  0
  8 38  1  0
  9 39  1  0
  9 40  1  0
 10 41  1  0
 10 42  1  0
 11 43  1  0
 11 44  1  0
 12 45  1  6
 13 46  1  0
 13 47  1  0
 15 48  1  0
 16 49  1  0
 17 50  1  0
 18 51  1  0
 19 52  1  0
 21 53  1  0
 22 54  1  0
 24 55  1  0
 30 56  1  0
 31 57  1  0
M  END
>  <smiles>  (9) 
O=C(NCC(=O)N1CCCCC1Cc1ccccc1)c1ccc2cc(C(F)(F)F)ccc2n1

>  <score_type>  (9) 
oracle

>  <origin>  (9) 
autodockgpu

>  <m_score__min__energy>  (9) 
-8.6199999999999992

>  <m_primary>  (9) 
energy

>  <rmsd>  (9) 
2.4071328737612383

>  <m_score__min__rmsd>  (9) 
2.4071328737612383

>  <meeko>  (9) 
{"free_energy": -8.59, "intermolecular_energy": -10.68, "internal_energy": -1.7, "cluster_size": 16, "cluster_id": 1, "rank_in_cluster": 2}

>  <energy>  (9) 
-8.09

>  <cluster_rmsd>  (9) 
1.18

>  <cluster>  (9) 
1

$$$$

     RDKit          3D

 57 60  0  0  0  0  0  0  0  0999 V2000
  134.6810   68.6380  225.3070 O   0  0  0  0  0  0  0  0  0  0  0  0
  135.1480   69.8190  225.2190 C   0  0  0  0  0  0  0  0  0  0  0  0
  136.3960   70.0760  224.5860 N   0  0  0  0  0  0  0  0  0  0  0  0
  137.1880   69.0210  224.0180 C   0  0  0  0  0  0  0  0  0  0  0  0
  137.9330   69.5450  222.8490 C   0  0  0  0  0  0  0  0  0  0  0  0
  138.1710   68.7450  221.9150 O   0  0  0  0  0  0  0  0  0  0  0  0
  138.3340   70.9090  222.8480 N   0  0  0  0  0  0  0  0  0  0  0  0
  137.5630   71.9160  222.1010 C   0  0  0  0  0  0  0  0  0  0  0  0
  138.5360   72.5250  221.1020 C   0  0  0  0  0  0  0  0  0  0  0  0
  139.5910   73.2590  221.8910 C   0  0  0  0  0  0  0  0  0  0  0  0
  140.3880   72.2320  222.6650 C   0  0  0  0  0  0  0  0  0  0  0  0
  139.4920   71.4050  223.5580 C   0  0  2  0  0  0  0  0  0  0  0  0
  140.2860   70.3300  224.2360 C   0  0  0  0  0  0  0  0  0  0  0  0
  140.4230   70.7240  225.6800 C   0  0  0  0  0  0  0  0  0  0  0  0
  139.8490   69.9940  226.6970 C   0  0  0  0  0  0  0  0  0  0  0  0
  139.9890   70.3780  228.0320 C   0  0  0  0  0  0  0  0  0  0  0  0
  140.7140   71.5080  228.3490 C   0  0  0  0  0  0  0  0  0  0  0  0
  141.2980   72.2560  227.3510 C   0  0  0  0  0  0  0  0  0  0  0  0
  141.1390   71.8470  226.0450 C   0  0  0  0  0  0  0  0  0  0  0  0
  134.4080   70.9540  225.7710 C   0  0  0  0  0  0  0  0  0  0  0  0
  133.3650   70.7680  226.6510 C   0  0  0  0  0  0  0  0  0  0  0  0
  132.6410   71.8130  227.1950 C   0  0  0  0  0  0  0  0  0  0  0  0
  132.9900   73.0950  226.8300 C   0  0  0  0  0  0  0  0  0  0  0  0
  132.3460   74.2200  227.3030 C   0  0  0  0  0  0  0  0  0  0  0  0
  132.7270   75.4920  226.9120 C   0  0  0  0  0  0  0  0  0  0  0  0
  132.0440   76.7210  227.4100 C   0  0  0  0  0  0  0  0  0  0  0  0
  131.2030   76.3570  228.4480 F   0  0  0  0  0  0  0  0  0  0  0  0
  131.3560   77.3570  226.3970 F   0  0  0  0  0  0  0  0  0  0  0  0
  132.9950   77.5680  227.9610 F   0  0  0  0  0  0  0  0  0  0  0  0
  133.7790   75.6690  226.0240 C   0  0  0  0  0  0  0  0  0  0  0  0
  134.4260   74.5370  225.5490 C   0  0  0  0  0  0  0  0  0  0  0  0
  134.0320   73.2730  225.9510 C   0  0  0  0  0  0  0  0  0  0  0  0
  134.7140   72.2380  225.4420 N   0  0  0  0  0  0  0  0  0  0  0  0
  136.7410   71.0820  224.5400 H   0  0  0  0  0  0  0  0  0  0  0  0
  137.8989   68.6489  224.7705 H   0  0  0  0  0  0  0  0  0  0  0  0
  136.5320   68.1977  223.6989 H   0  0  0  0  0  0  0  0  0  0  0  0
  136.7211   71.4416  221.5755 H   0  0  0  0  0  0  0  0  0  0  0  0
  137.1384   72.6792  222.7698 H   0  0  0  0  0  0  0  0  0  0  0  0
  139.0015   71.7316  220.4988 H   0  0  0  0  0  0  0  0  0  0  0  0
  138.0134   73.2113  220.4194 H   0  0  0  0  0  0  0  0  0  0  0  0
  140.2540   73.8096  221.2074 H   0  0  0  0  0  0  0  0  0  0  0  0
  139.1245   73.9805  222.5779 H   0  0  0  0  0  0  0  0  0  0  0  0
  140.9005   71.5661  221.9551 H   0  0  0  0  0  0  0  0  0  0  0  0
  141.1173   72.7605  223.2965 H   0  0  0  0  0  0  0  0  0  0  0  0
  139.0867   72.0512  224.3506 H   0  0  0  0  0  0  0  0  0  0  0  0
  139.7613   69.3665  224.1562 H   0  0  0  0  0  0  0  0  0  0  0  0
  141.2741   70.2182  223.7658 H   0  0  0  0  0  0  0  0  0  0  0  0
  139.2694   69.0915  226.4529 H   0  0  0  0  0  0  0  0  0  0  0  0
  139.5223   69.7808  228.8292 H   0  0  0  0  0  0  0  0  0  0  0  0
  140.8258   71.8120  229.4002 H   0  0  0  0  0  0  0  0  0  0  0  0
  141.8781   73.1593  227.5910 H   0  0  0  0  0  0  0  0  0  0  0  0
  141.6073   72.4469  225.2508 H   0  0  0  0  0  0  0  0  0  0  0  0
  133.0953   69.7399  226.9344 H   0  0  0  0  0  0  0  0  0  0  0  0
  131.8139   71.6270  227.8959 H   0  0  0  0  0  0  0  0  0  0  0  0
  131.5096   74.1032  228.0078 H   0  0  0  0  0  0  0  0  0  0  0  0
  134.0902   76.6752  225.7067 H   0  0  0  0  0  0  0  0  0  0  0  0
  135.2630   74.6460  224.8437 H   0  0  0  0  0  0  0  0  0  0  0  0
  1  2  2  0
  2  3  1  0
  3  4  1  0
  4  5  1  0
  5  6  2  0
  5  7  1  0
  7  8  1  0
  8  9  1  0
  9 10  1  0
 10 11  1  0
 11 12  1  0
 12 13  1  0
 13 14  1  0
 14 15  2  0
 15 16  1  0
 16 17  2  0
 17 18  1  0
 18 19  2  0
  2 20  1  0
 20 21  2  0
 21 22  1  0
 22 23  2  0
 23 24  1  0
 24 25  2  0
 25 26  1  0
 26 27  1  0
 26 28  1  0
 26 29  1  0
 25 30  1  0
 30 31  2  0
 31 32  1  0
 32 33  2  0
 12  7  1  0
 19 14  1  0
 33 20  1  0
 32 23  1  0
  3 34  1  0
  4 35  1  0
  4 36  1  0
  8 37  1  0
  8 38  1  0
  9 39  1  0
  9 40  1  0
 10 41  1  0
 10 42  1  0
 11 43  1  0
 11 44  1  0
 12 45  1  1
 13 46  1  0
 13 47  1  0
 15 48  1  0
 16 49  1  0
 17 50  1  0
 18 51  1  0
 19 52  1  0
 21 53  1  0
 22 54  1  0
 24 55  1  0
 30 56  1  0
 31 57  1  0
M  END
>  <smiles>  (10) 
O=C(NCC(=O)N1CCCCC1Cc1ccccc1)c1ccc2cc(C(F)(F)F)ccc2n1

>  <score_type>  (10) 
oracle

>  <origin>  (10) 
autodockgpu

>  <m_score__min__energy>  (10) 
-8.6199999999999992

>  <m_primary>  (10) 
energy

>  <rmsd>  (10) 
7.060239866553153

>  <m_score__min__rmsd>  (10) 
7.060239866553153

>  <meeko>  (10) 
{"free_energy": -7.91, "intermolecular_energy": -9.99, "internal_energy": -2.16, "cluster_size": 13, "cluster_id": 3, "rank_in_cluster": 11}

>  <energy>  (10) 
-8.03

>  <cluster_rmsd>  (10) 
0.98

>  <cluster>  (10) 
1

$$$$

     RDKit          3D

 57 60  0  0  0  0  0  0  0  0999 V2000
  139.5600   72.3680  220.4560 O   0  0  0  0  0  0  0  0  0  0  0  0
  139.5760   72.7970  221.6540 C   0  0  0  0  0  0  0  0  0  0  0  0
  139.4950   74.1870  221.9440 N   0  0  0  0  0  0  0  0  0  0  0  0
  139.3930   75.1720  220.9030 C   0  0  0  0  0  0  0  0  0  0  0  0
  139.5240   76.5240  221.4960 C   0  0  0  0  0  0  0  0  0  0  0  0
  139.9360   76.5970  222.6770 O   0  0  0  0  0  0  0  0  0  0  0  0
  139.1800   77.6550  220.7040 N   0  0  0  0  0  0  0  0  0  0  0  0
  137.8300   77.7870  220.1340 C   0  0  0  0  0  0  0  0  0  0  0  0
  138.0220   77.8710  218.6270 C   0  0  0  0  0  0  0  0  0  0  0  0
  138.7630   79.1520  218.3380 C   0  0  0  0  0  0  0  0  0  0  0  0
  140.1530   79.0260  218.9220 C   0  0  0  0  0  0  0  0  0  0  0  0
  140.0970   78.7310  220.4030 C   0  0  2  0  0  0  0  0  0  0  0  0
  141.4790   78.5080  220.9380 C   0  0  0  0  0  0  0  0  0  0  0  0
  141.7260   79.5630  221.9810 C   0  0  0  0  0  0  0  0  0  0  0  0
  142.3820   79.2890  223.1600 C   0  0  0  0  0  0  0  0  0  0  0  0
  142.6000   80.2840  224.1150 C   0  0  0  0  0  0  0  0  0  0  0  0
  142.1560   81.5690  223.8820 C   0  0  0  0  0  0  0  0  0  0  0  0
  141.4970   81.8690  222.7100 C   0  0  0  0  0  0  0  0  0  0  0  0
  141.2990   80.8630  221.7910 C   0  0  0  0  0  0  0  0  0  0  0  0
  139.6780   71.8630  222.7760 C   0  0  0  0  0  0  0  0  0  0  0  0
  139.2050   70.5730  222.6780 C   0  0  0  0  0  0  0  0  0  0  0  0
  139.2830   69.6610  223.7150 C   0  0  0  0  0  0  0  0  0  0  0  0
  139.8630   70.0760  224.8940 C   0  0  0  0  0  0  0  0  0  0  0  0
  139.9990   69.2610  226.0000 C   0  0  0  0  0  0  0  0  0  0  0  0
  140.5880   69.7150  227.1660 C   0  0  0  0  0  0  0  0  0  0  0  0
  140.7450   68.8520  228.3730 C   0  0  0  0  0  0  0  0  0  0  0  0
  141.0480   67.5690  227.9490 F   0  0  0  0  0  0  0  0  0  0  0  0
  139.6090   68.8740  229.1560 F   0  0  0  0  0  0  0  0  0  0  0  0
  141.8450   69.2900  229.0960 F   0  0  0  0  0  0  0  0  0  0  0  0
  141.0610   71.0170  227.2550 C   0  0  0  0  0  0  0  0  0  0  0  0
  140.9230   71.8350  226.1430 C   0  0  0  0  0  0  0  0  0  0  0  0
  140.3320   71.3650  224.9840 C   0  0  0  0  0  0  0  0  0  0  0  0
  140.2410   72.2250  223.9600 N   0  0  0  0  0  0  0  0  0  0  0  0
  139.5120   74.4930  222.9630 H   0  0  0  0  0  0  0  0  0  0  0  0
  140.1952   75.0138  220.1671 H   0  0  0  0  0  0  0  0  0  0  0  0
  138.4175   75.0810  220.4028 H   0  0  0  0  0  0  0  0  0  0  0  0
  137.2173   76.9111  220.3937 H   0  0  0  0  0  0  0  0  0  0  0  0
  137.3104   78.6739  220.5257 H   0  0  0  0  0  0  0  0  0  0  0  0
  138.6081   77.0097  218.2740 H   0  0  0  0  0  0  0  0  0  0  0  0
  137.0510   77.8587  218.1103 H   0  0  0  0  0  0  0  0  0  0  0  0
  138.8269   79.3100  217.2513 H   0  0  0  0  0  0  0  0  0  0  0  0
  138.2361   80.0087  218.7833 H   0  0  0  0  0  0  0  0  0  0  0  0
  140.6837   78.2081  218.4127 H   0  0  0  0  0  0  0  0  0  0  0  0
  140.6808   79.9800  218.7758 H   0  0  0  0  0  0  0  0  0  0  0  0
  139.6884   79.6090  220.9248 H   0  0  0  0  0  0  0  0  0  0  0  0
  141.5519   77.5074  221.3890 H   0  0  0  0  0  0  0  0  0  0  0  0
  142.2253   78.5721  220.1325 H   0  0  0  0  0  0  0  0  0  0  0  0
  142.7410   78.2673  223.3532 H   0  0  0  0  0  0  0  0  0  0  0  0
  143.1248   80.0436  225.0514 H   0  0  0  0  0  0  0  0  0  0  0  0
  142.3282   82.3546  224.6324 H   0  0  0  0  0  0  0  0  0  0  0  0
  141.1370   82.8895  222.5128 H   0  0  0  0  0  0  0  0  0  0  0  0
  140.7731   81.1073  220.8563 H   0  0  0  0  0  0  0  0  0  0  0  0
  138.7441   70.2535  221.7317 H   0  0  0  0  0  0  0  0  0  0  0  0
  138.8948   68.6380  223.6022 H   0  0  0  0  0  0  0  0  0  0  0  0
  139.6300   68.2258  225.9527 H   0  0  0  0  0  0  0  0  0  0  0  0
  141.5304   71.3884  228.1779 H   0  0  0  0  0  0  0  0  0  0  0  0
  141.2886   72.8717  226.1835 H   0  0  0  0  0  0  0  0  0  0  0  0
  1  2  2  0
  2  3  1  0
  3  4  1  0
  4  5  1  0
  5  6  2  0
  5  7  1  0
  7  8  1  0
  8  9  1  0
  9 10  1  0
 10 11  1  0
 11 12  1  0
 12 13  1  0
 13 14  1  0
 14 15  2  0
 15 16  1  0
 16 17  2  0
 17 18  1  0
 18 19  2  0
  2 20  1  0
 20 21  2  0
 21 22  1  0
 22 23  2  0
 23 24  1  0
 24 25  2  0
 25 26  1  0
 26 27  1  0
 26 28  1  0
 26 29  1  0
 25 30  1  0
 30 31  2  0
 31 32  1  0
 32 33  2  0
 12  7  1  0
 19 14  1  0
 33 20  1  0
 32 23  1  0
  3 34  1  0
  4 35  1  0
  4 36  1  0
  8 37  1  0
  8 38  1  0
  9 39  1  0
  9 40  1  0
 10 41  1  0
 10 42  1  0
 11 43  1  0
 11 44  1  0
 12 45  1  1
 13 46  1  0
 13 47  1  0
 15 48  1  0
 16 49  1  0
 17 50  1  0
 18 51  1  0
 19 52  1  0
 21 53  1  0
 22 54  1  0
 24 55  1  0
 30 56  1  0
 31 57  1  0
M  END
>  <smiles>  (11) 
O=C(NCC(=O)N1CCCCC1Cc1ccccc1)c1ccc2cc(C(F)(F)F)ccc2n1

>  <score_type>  (11) 
oracle

>  <origin>  (11) 
autodockgpu

>  <m_score__min__energy>  (11) 
-8.6199999999999992

>  <m_primary>  (11) 
energy

>  <rmsd>  (11) 
2.3296462742284976

>  <m_score__min__rmsd>  (11) 
2.3296462742284976

>  <meeko>  (11) 
{"free_energy": -7.84, "intermolecular_energy": -9.92, "internal_energy": -2.29, "cluster_size": 16, "cluster_id": 1, "rank_in_cluster": 13}

>  <energy>  (11) 
-8.03

>  <cluster_rmsd>  (11) 
1.02

>  <cluster>  (11) 
1

$$$$

     RDKit          3D

 57 60  0  0  0  0  0  0  0  0999 V2000
  140.4610   73.3710  220.3570 O   0  0  0  0  0  0  0  0  0  0  0  0
  140.1030   73.5350  221.5680 C   0  0  0  0  0  0  0  0  0  0  0  0
  139.8400   74.8310  222.0920 N   0  0  0  0  0  0  0  0  0  0  0  0
  139.9670   76.0130  221.2860 C   0  0  0  0  0  0  0  0  0  0  0  0
  139.9020   77.2090  222.1590 C   0  0  0  0  0  0  0  0  0  0  0  0
  138.8120   77.4450  222.7300 O   0  0  0  0  0  0  0  0  0  0  0  0
  141.0650   78.0140  222.3040 N   0  0  0  0  0  0  0  0  0  0  0  0
  141.6400   78.2690  223.6340 C   0  0  0  0  0  0  0  0  0  0  0  0
  141.6210   79.7800  223.8120 C   0  0  0  0  0  0  0  0  0  0  0  0
  142.5670   80.3650  222.7920 C   0  0  0  0  0  0  0  0  0  0  0  0
  141.9860   80.1060  221.4190 C   0  0  0  0  0  0  0  0  0  0  0  0
  141.7570   78.6290  221.1930 C   0  0  2  0  0  0  0  0  0  0  0  0
  141.0870   78.4060  219.8720 C   0  0  0  0  0  0  0  0  0  0  0  0
  141.9900   77.5170  219.0620 C   0  0  0  0  0  0  0  0  0  0  0  0
  142.1670   77.6920  217.7070 C   0  0  0  0  0  0  0  0  0  0  0  0
  143.0110   76.8540  216.9740 C   0  0  0  0  0  0  0  0  0  0  0  0
  143.6830   75.8300  217.6090 C   0  0  0  0  0  0  0  0  0  0  0  0
  143.5230   75.6350  218.9630 C   0  0  0  0  0  0  0  0  0  0  0  0
  142.6830   76.4800  219.6540 C   0  0  0  0  0  0  0  0  0  0  0  0
  139.9490   72.3850  222.4600 C   0  0  0  0  0  0  0  0  0  0  0  0
  139.2030   71.2880  222.0900 C   0  0  0  0  0  0  0  0  0  0  0  0
  139.0340   70.1820  222.9030 C   0  0  0  0  0  0  0  0  0  0  0  0
  139.6450   70.1940  224.1390 C   0  0  0  0  0  0  0  0  0  0  0  0
  139.5520   69.1530  225.0400 C   0  0  0  0  0  0  0  0  0  0  0  0
  140.1820   69.2020  226.2710 C   0  0  0  0  0  0  0  0  0  0  0  0
  140.0940   68.0880  227.2600 C   0  0  0  0  0  0  0  0  0  0  0  0
  139.1560   67.1780  226.8040 F   0  0  0  0  0  0  0  0  0  0  0  0
  139.7760   68.5600  228.5180 F   0  0  0  0  0  0  0  0  0  0  0  0
  141.3070   67.4150  227.2840 F   0  0  0  0  0  0  0  0  0  0  0  0
  140.9310   70.3120  226.6350 C   0  0  0  0  0  0  0  0  0  0  0  0
  141.0230   71.3580  225.7270 C   0  0  0  0  0  0  0  0  0  0  0  0
  140.3880   71.2920  224.5010 C   0  0  0  0  0  0  0  0  0  0  0  0
  140.5320   72.3480  223.6880 N   0  0  0  0  0  0  0  0  0  0  0  0
  139.5420   74.9130  223.1110 H   0  0  0  0  0  0  0  0  0  0  0  0
  140.9315   75.9957  220.7573 H   0  0  0  0  0  0  0  0  0  0  0  0
  139.1495   76.0479  220.5508 H   0  0  0  0  0  0  0  0  0  0  0  0
  141.0332   77.7840  224.4129 H   0  0  0  0  0  0  0  0  0  0  0  0
  142.6595   77.8645  223.7183 H   0  0  0  0  0  0  0  0  0  0  0  0
  140.6041   80.1656  223.6467 H   0  0  0  0  0  0  0  0  0  0  0  0
  141.9292   80.0555  224.8314 H   0  0  0  0  0  0  0  0  0  0  0  0
  142.6710   81.4477  222.9560 H   0  0  0  0  0  0  0  0  0  0  0  0
  143.5614   79.9032  222.8814 H   0  0  0  0  0  0  0  0  0  0  0  0
  141.0262   80.6359  221.3296 H   0  0  0  0  0  0  0  0  0  0  0  0
  142.6999   80.4677  220.6644 H   0  0  0  0  0  0  0  0  0  0  0  0
  142.7320   78.1216  221.1479 H   0  0  0  0  0  0  0  0  0  0  0  0
  140.1123   77.9184  220.0209 H   0  0  0  0  0  0  0  0  0  0  0  0
  140.9126   79.3614  219.3555 H   0  0  0  0  0  0  0  0  0  0  0  0
  141.6344   78.5059  217.1932 H   0  0  0  0  0  0  0  0  0  0  0  0
  143.1395   77.0103  215.8928 H   0  0  0  0  0  0  0  0  0  0  0  0
  144.3472   75.1686  217.0333 H   0  0  0  0  0  0  0  0  0  0  0  0
  144.0541   74.8227  219.4809 H   0  0  0  0  0  0  0  0  0  0  0  0
  142.5576   76.3201  220.7351 H   0  0  0  0  0  0  0  0  0  0  0  0
  138.7192   71.2917  221.1021 H   0  0  0  0  0  0  0  0  0  0  0  0
  138.4323   69.3217  222.5746 H   0  0  0  0  0  0  0  0  0  0  0  0
  138.9630   68.2631  224.7733 H   0  0  0  0  0  0  0  0  0  0  0  0
  141.4354   70.3614  227.6113 H   0  0  0  0  0  0  0  0  0  0  0  0
  141.6093   72.2517  225.9867 H   0  0  0  0  0  0  0  0  0  0  0  0
  1  2  2  0
  2  3  1  0
  3  4  1  0
  4  5  1  0
  5  6  2  0
  5  7  1  0
  7  8  1  0
  8  9  1  0
  9 10  1  0
 10 11  1  0
 11 12  1  0
 12 13  1  0
 13 14  1  0
 14 15  2  0
 15 16  1  0
 16 17  2  0
 17 18  1  0
 18 19  2  0
  2 20  1  0
 20 21  2  0
 21 22  1  0
 22 23  2  0
 23 24  1  0
 24 25  2  0
 25 26  1  0
 26 27  1  0
 26 28  1  0
 26 29  1  0
 25 30  1  0
 30 31  2  0
 31 32  1  0
 32 33  2  0
 12  7  1  0
 19 14  1  0
 33 20  1  0
 32 23  1  0
  3 34  1  0
  4 35  1  0
  4 36  1  0
  8 37  1  0
  8 38  1  0
  9 39  1  0
  9 40  1  0
 10 41  1  0
 10 42  1  0
 11 43  1  0
 11 44  1  0
 12 45  1  6
 13 46  1  0
 13 47  1  0
 15 48  1  0
 16 49  1  0
 17 50  1  0
 18 51  1  0
 19 52  1  0
 21 53  1  0
 22 54  1  0
 24 55  1  0
 30 56  1  0
 31 57  1  0
M  END
>  <smiles>  (12) 
O=C(NCC(=O)N1CCCCC1Cc1ccccc1)c1ccc2cc(C(F)(F)F)ccc2n1

>  <score_type>  (12) 
oracle

>  <origin>  (12) 
autodockgpu

>  <m_score__min__energy>  (12) 
-8.6199999999999992

>  <m_primary>  (12) 
energy

>  <rmsd>  (12) 
3.6833341253902554

>  <m_score__min__rmsd>  (12) 
3.6833341253902554

>  <meeko>  (12) 
{"free_energy": -8.44, "intermolecular_energy": -10.53, "internal_energy": -1.78, "cluster_size": 13, "cluster_id": 2, "rank_in_cluster": 5}

>  <energy>  (12) 
-7.88

>  <cluster_rmsd>  (12) 
1.38

>  <cluster>  (12) 
1

$$$$

     RDKit          3D

 57 60  0  0  0  0  0  0  0  0999 V2000
  132.8320   69.5370  226.4460 O   0  0  0  0  0  0  0  0  0  0  0  0
  133.5360   70.5840  226.2790 C   0  0  0  0  0  0  0  0  0  0  0  0
  134.8410   70.5170  225.7170 N   0  0  0  0  0  0  0  0  0  0  0  0
  135.4270   69.2690  225.3130 C   0  0  0  0  0  0  0  0  0  0  0  0
  136.1350   69.4560  224.0240 C   0  0  0  0  0  0  0  0  0  0  0  0
  135.8350   68.6810  223.0870 O   0  0  0  0  0  0  0  0  0  0  0  0
  137.1040   70.4920  223.9190 N   0  0  0  0  0  0  0  0  0  0  0  0
  136.7460   71.7960  223.3390 C   0  0  0  0  0  0  0  0  0  0  0  0
  137.6720   71.9880  222.1480 C   0  0  0  0  0  0  0  0  0  0  0  0
  139.0780   72.1020  222.6840 C   0  0  0  0  0  0  0  0  0  0  0  0
  139.4540   70.7660  223.2840 C   0  0  0  0  0  0  0  0  0  0  0  0
  138.4740   70.3550  224.3590 C   0  0  2  0  0  0  0  0  0  0  0  0
  138.8070   68.9850  224.8660 C   0  0  0  0  0  0  0  0  0  0  0  0
  139.6370   69.1610  226.1080 C   0  0  0  0  0  0  0  0  0  0  0  0
  139.9820   70.4050  226.5880 C   0  0  0  0  0  0  0  0  0  0  0  0
  140.7530   70.5460  227.7430 C   0  0  0  0  0  0  0  0  0  0  0  0
  141.1820   69.4260  228.4240 C   0  0  0  0  0  0  0  0  0  0  0  0
  140.8500   68.1700  227.9640 C   0  0  0  0  0  0  0  0  0  0  0  0
  140.0880   68.0690  226.8220 C   0  0  0  0  0  0  0  0  0  0  0  0
  133.0170   71.8970  226.6630 C   0  0  0  0  0  0  0  0  0  0  0  0
  131.8040   72.0280  227.3010 C   0  0  0  0  0  0  0  0  0  0  0  0
  131.2790   73.2510  227.6800 C   0  0  0  0  0  0  0  0  0  0  0  0
  132.0160   74.3810  227.3990 C   0  0  0  0  0  0  0  0  0  0  0  0
  131.6010   75.6560  227.7260 C   0  0  0  0  0  0  0  0  0  0  0  0
  132.3710   76.7670  227.4270 C   0  0  0  0  0  0  0  0  0  0  0  0
  131.9420   78.1540  227.7710 C   0  0  0  0  0  0  0  0  0  0  0  0
  131.8960   78.8940  226.6020 F   0  0  0  0  0  0  0  0  0  0  0  0
  132.7880   78.7230  228.7020 F   0  0  0  0  0  0  0  0  0  0  0  0
  130.6420   78.1130  228.2540 F   0  0  0  0  0  0  0  0  0  0  0  0
  133.5920   76.6250  226.7830 C   0  0  0  0  0  0  0  0  0  0  0  0
  134.0070   75.3420  226.4550 C   0  0  0  0  0  0  0  0  0  0  0  0
  133.2260   74.2420  226.7620 C   0  0  0  0  0  0  0  0  0  0  0  0
  133.7060   73.0420  226.4080 N   0  0  0  0  0  0  0  0  0  0  0  0
  135.3880   71.4220  225.5980 H   0  0  0  0  0  0  0  0  0  0  0  0
  136.1411   68.9330  226.0793 H   0  0  0  0  0  0  0  0  0  0  0  0
  134.6377   68.5121  225.1940 H   0  0  0  0  0  0  0  0  0  0  0  0
  135.6959   71.7942  223.0114 H   0  0  0  0  0  0  0  0  0  0  0  0
  136.8553   72.6089  224.0720 H   0  0  0  0  0  0  0  0  0  0  0  0
  137.5968   71.1249  221.4702 H   0  0  0  0  0  0  0  0  0  0  0  0
  137.3969   72.8911  221.5835 H   0  0  0  0  0  0  0  0  0  0  0  0
  139.7705   72.3535  221.8672 H   0  0  0  0  0  0  0  0  0  0  0  0
  139.1360   72.8946  223.4445 H   0  0  0  0  0  0  0  0  0  0  0  0
  139.4567   70.0042  222.4905 H   0  0  0  0  0  0  0  0  0  0  0  0
  140.4519   70.8562  223.7380 H   0  0  0  0  0  0  0  0  0  0  0  0
  138.5712   71.0440  225.2109 H   0  0  0  0  0  0  0  0  0  0  0  0
  137.8838   68.4364  225.1041 H   0  0  0  0  0  0  0  0  0  0  0  0
  139.3571   68.4102  224.1065 H   0  0  0  0  0  0  0  0  0  0  0  0
  139.6438   71.3037  226.0514 H   0  0  0  0  0  0  0  0  0  0  0  0
  141.0180   71.5487  228.1095 H   0  0  0  0  0  0  0  0  0  0  0  0
  141.7894   69.5353  229.3346 H   0  0  0  0  0  0  0  0  0  0  0  0
  141.1863   67.2686  228.4973 H   0  0  0  0  0  0  0  0  0  0  0  0
  139.8244   67.0646  226.4591 H   0  0  0  0  0  0  0  0  0  0  0  0
  131.2254   71.1184  227.5196 H   0  0  0  0  0  0  0  0  0  0  0  0
  130.3060   73.3189  228.1885 H   0  0  0  0  0  0  0  0  0  0  0  0
  130.6360   75.7926  228.2360 H   0  0  0  0  0  0  0  0  0  0  0  0
  134.2110   77.5013  226.5403 H   0  0  0  0  0  0  0  0  0  0  0  0
  134.9703   75.1976  225.9438 H   0  0  0  0  0  0  0  0  0  0  0  0
  1  2  2  0
  2  3  1  0
  3  4  1  0
  4  5  1  0
  5  6  2  0
  5  7  1  0
  7  8  1  0
  8  9  1  0
  9 10  1  0
 10 11  1  0
 11 12  1  0
 12 13  1  0
 13 14  1  0
 14 15  2  0
 15 16  1  0
 16 17  2  0
 17 18  1  0
 18 19  2  0
  2 20  1  0
 20 21  2  0
 21 22  1  0
 22 23  2  0
 23 24  1  0
 24 25  2  0
 25 26  1  0
 26 27  1  0
 26 28  1  0
 26 29  1  0
 25 30  1  0
 30 31  2  0
 31 32  1  0
 32 33  2  0
 12  7  1  0
 19 14  1  0
 33 20  1  0
 32 23  1  0
  3 34  1  0
  4 35  1  0
  4 36  1  0
  8 37  1  0
  8 38  1  0
  9 39  1  0
  9 40  1  0
 10 41  1  0
 10 42  1  0
 11 43  1  0
 11 44  1  0
 12 45  1  1
 13 46  1  0
 13 47  1  0
 15 48  1  0
 16 49  1  0
 17 50  1  0
 18 51  1  0
 19 52  1  0
 21 53  1  0
 22 54  1  0
 24 55  1  0
 30 56  1  0
 31 57  1  0
M  END
>  <smiles>  (13) 
O=C(NCC(=O)N1CCCCC1Cc1ccccc1)c1ccc2cc(C(F)(F)F)ccc2n1

>  <score_type>  (13) 
oracle

>  <origin>  (13) 
autodockgpu

>  <m_score__min__energy>  (13) 
-8.6199999999999992

>  <m_primary>  (13) 
energy

>  <rmsd>  (13) 
8.420736924511168

>  <m_score__min__rmsd>  (13) 
8.420736924511168

>  <meeko>  (13) 
{"free_energy": -8.26, "intermolecular_energy": -10.34, "internal_energy": -1.93, "cluster_size": 13, "cluster_id": 3, "rank_in_cluster": 4}

>  <energy>  (13) 
-7.84

>  <cluster_rmsd>  (13) 
0.99

>  <cluster>  (13) 
1

$$$$

     RDKit          3D

 57 60  0  0  0  0  0  0  0  0999 V2000
  140.6650   73.3620  220.4210 O   0  0  0  0  0  0  0  0  0  0  0  0
  140.2280   73.5250  221.6050 C   0  0  0  0  0  0  0  0  0  0  0  0
  139.9120   74.8190  222.1060 N   0  0  0  0  0  0  0  0  0  0  0  0
  140.0720   76.0000  221.3040 C   0  0  0  0  0  0  0  0  0  0  0  0
  139.9870   77.1960  222.1750 C   0  0  0  0  0  0  0  0  0  0  0  0
  138.8910   77.4200  222.7390 O   0  0  0  0  0  0  0  0  0  0  0  0
  141.1390   78.0170  222.3250 N   0  0  0  0  0  0  0  0  0  0  0  0
  141.7170   78.2620  223.6550 C   0  0  0  0  0  0  0  0  0  0  0  0
  141.6770   79.7710  223.8530 C   0  0  0  0  0  0  0  0  0  0  0  0
  142.6090   80.3820  222.8360 C   0  0  0  0  0  0  0  0  0  0  0  0
  142.0250   80.1330  221.4630 C   0  0  0  0  0  0  0  0  0  0  0  0
  141.8170   78.6550  221.2190 C   0  0  2  0  0  0  0  0  0  0  0  0
  141.1430   78.4400  219.8980 C   0  0  0  0  0  0  0  0  0  0  0  0
  142.0430   77.5560  219.0800 C   0  0  0  0  0  0  0  0  0  0  0  0
  142.7470   76.5110  219.6370 C   0  0  0  0  0  0  0  0  0  0  0  0
  143.5770   75.7020  218.8590 C   0  0  0  0  0  0  0  0  0  0  0  0
  143.7030   75.9450  217.5080 C   0  0  0  0  0  0  0  0  0  0  0  0
  143.0100   76.9840  216.9260 C   0  0  0  0  0  0  0  0  0  0  0  0
  142.2000   77.7610  217.7240 C   0  0  0  0  0  0  0  0  0  0  0  0
  140.0350   72.3760  222.4910 C   0  0  0  0  0  0  0  0  0  0  0  0
  139.2170   71.3270  222.1340 C   0  0  0  0  0  0  0  0  0  0  0  0
  139.0100   70.2240  222.9420 C   0  0  0  0  0  0  0  0  0  0  0  0
  139.6580   70.1870  224.1580 C   0  0  0  0  0  0  0  0  0  0  0  0
  139.5330   69.1430  225.0520 C   0  0  0  0  0  0  0  0  0  0  0  0
  140.2010   69.1430  226.2640 C   0  0  0  0  0  0  0  0  0  0  0  0
  140.0800   68.0250  227.2440 C   0  0  0  0  0  0  0  0  0  0  0  0
  139.5540   68.5360  228.4190 F   0  0  0  0  0  0  0  0  0  0  0  0
  141.2980   67.4120  227.4570 F   0  0  0  0  0  0  0  0  0  0  0  0
  139.1500   67.1120  226.7690 F   0  0  0  0  0  0  0  0  0  0  0  0
  141.0230   70.2050  226.6140 C   0  0  0  0  0  0  0  0  0  0  0  0
  141.1480   71.2540  225.7140 C   0  0  0  0  0  0  0  0  0  0  0  0
  140.4730   71.2380  224.5070 C   0  0  0  0  0  0  0  0  0  0  0  0
  140.6520   72.2930  223.7000 N   0  0  0  0  0  0  0  0  0  0  0  0
  139.5490   74.8990  223.1030 H   0  0  0  0  0  0  0  0  0  0  0  0
  141.0526   75.9765  220.8061 H   0  0  0  0  0  0  0  0  0  0  0  0
  139.2788   76.0401  220.5430 H   0  0  0  0  0  0  0  0  0  0  0  0
  141.1213   77.7580  224.4303 H   0  0  0  0  0  0  0  0  0  0  0  0
  142.7425   77.8710  223.7291 H   0  0  0  0  0  0  0  0  0  0  0  0
  140.6539   80.1440  223.6978 H   0  0  0  0  0  0  0  0  0  0  0  0
  141.9862   80.0380  224.8743 H   0  0  0  0  0  0  0  0  0  0  0  0
  142.6988   81.4639  223.0136 H   0  0  0  0  0  0  0  0  0  0  0  0
  143.6100   79.9327  222.9143 H   0  0  0  0  0  0  0  0  0  0  0  0
  141.0569   80.6495  221.3854 H   0  0  0  0  0  0  0  0  0  0  0  0
  142.7292   80.5155  220.7095 H   0  0  0  0  0  0  0  0  0  0  0  0
  142.7986   78.1618  221.1627 H   0  0  0  0  0  0  0  0  0  0  0  0
  140.1686   77.9517  220.0468 H   0  0  0  0  0  0  0  0  0  0  0  0
  140.9676   79.3986  219.3878 H   0  0  0  0  0  0  0  0  0  0  0  0
  142.6534   76.3104  220.7145 H   0  0  0  0  0  0  0  0  0  0  0  0
  144.1296   74.8719  219.3233 H   0  0  0  0  0  0  0  0  0  0  0  0
  144.3574   75.3088  216.8940 H   0  0  0  0  0  0  0  0  0  0  0  0
  143.1016   77.1881  215.8490 H   0  0  0  0  0  0  0  0  0  0  0  0
  141.6485   78.5895  217.2556 H   0  0  0  0  0  0  0  0  0  0  0  0
  138.7048   71.3685  221.1614 H   0  0  0  0  0  0  0  0  0  0  0  0
  138.3500   69.4032  222.6248 H   0  0  0  0  0  0  0  0  0  0  0  0
  138.8870   68.2906  224.7950 H   0  0  0  0  0  0  0  0  0  0  0  0
  141.5587   70.2150  227.5747 H   0  0  0  0  0  0  0  0  0  0  0  0
  141.7925   72.1096  225.9640 H   0  0  0  0  0  0  0  0  0  0  0  0
  1  2  2  0
  2  3  1  0
  3  4  1  0
  4  5  1  0
  5  6  2  0
  5  7  1  0
  7  8  1  0
  8  9  1  0
  9 10  1  0
 10 11  1  0
 11 12  1  0
 12 13  1  0
 13 14  1  0
 14 15  2  0
 15 16  1  0
 16 17  2  0
 17 18  1  0
 18 19  2  0
  2 20  1  0
 20 21  2  0
 21 22  1  0
 22 23  2  0
 23 24  1  0
 24 25  2  0
 25 26  1  0
 26 27  1  0
 26 28  1  0
 26 29  1  0
 25 30  1  0
 30 31  2  0
 31 32  1  0
 32 33  2  0
 12  7  1  0
 19 14  1  0
 33 20  1  0
 32 23  1  0
  3 34  1  0
  4 35  1  0
  4 36  1  0
  8 37  1  0
  8 38  1  0
  9 39  1  0
  9 40  1  0
 10 41  1  0
 10 42  1  0
 11 43  1  0
 11 44  1  0
 12 45  1  6
 13 46  1  0
 13 47  1  0
 15 48  1  0
 16 49  1  0
 17 50  1  0
 18 51  1  0
 19 52  1  0
 21 53  1  0
 22 54  1  0
 24 55  1  0
 30 56  1  0
 31 57  1  0
M  END
>  <smiles>  (14) 
O=C(NCC(=O)N1CCCCC1Cc1ccccc1)c1ccc2cc(C(F)(F)F)ccc2n1

>  <score_type>  (14) 
oracle

>  <origin>  (14) 
autodockgpu

>  <m_score__min__energy>  (14) 
-8.6199999999999992

>  <m_primary>  (14) 
energy

>  <rmsd>  (14) 
3.7149348405929143

>  <m_score__min__rmsd>  (14) 
3.7149348405929143

>  <meeko>  (14) 
{"free_energy": -8.47, "intermolecular_energy": -10.56, "internal_energy": -1.76, "cluster_size": 13, "cluster_id": 2, "rank_in_cluster": 3}

>  <energy>  (14) 
-7.79

>  <cluster_rmsd>  (14) 
0.53

>  <cluster>  (14) 
1

$$$$

     RDKit          3D

 57 60  0  0  0  0  0  0  0  0999 V2000
  139.4100   71.9850  220.4960 O   0  0  0  0  0  0  0  0  0  0  0  0
  139.2450   72.4010  221.6880 C   0  0  0  0  0  0  0  0  0  0  0  0
  138.8570   73.7420  221.9570 N   0  0  0  0  0  0  0  0  0  0  0  0
  138.6350   74.6910  220.9010 C   0  0  0  0  0  0  0  0  0  0  0  0
  139.0030   76.0460  221.3770 C   0  0  0  0  0  0  0  0  0  0  0  0
  138.5980   76.3850  222.5130 O   0  0  0  0  0  0  0  0  0  0  0  0
  139.7860   76.8790  220.5310 N   0  0  0  0  0  0  0  0  0  0  0  0
  139.5580   76.8950  219.0770 C   0  0  0  0  0  0  0  0  0  0  0  0
  140.8790   76.4790  218.4460 C   0  0  0  0  0  0  0  0  0  0  0  0
  141.8860   77.5580  218.7580 C   0  0  0  0  0  0  0  0  0  0  0  0
  142.1260   77.5500  220.2510 C   0  0  0  0  0  0  0  0  0  0  0  0
  140.8340   77.7490  221.0120 C   0  0  2  0  0  0  0  0  0  0  0  0
  141.0790   77.6350  222.4860 C   0  0  0  0  0  0  0  0  0  0  0  0
  141.4870   78.9980  222.9740 C   0  0  0  0  0  0  0  0  0  0  0  0
  142.8070   79.3840  223.0520 C   0  0  0  0  0  0  0  0  0  0  0  0
  143.1630   80.6550  223.5080 C   0  0  0  0  0  0  0  0  0  0  0  0
  142.1830   81.5470  223.8900 C   0  0  0  0  0  0  0  0  0  0  0  0
  140.8560   81.1850  223.8220 C   0  0  0  0  0  0  0  0  0  0  0  0
  140.5410   79.9240  223.3680 C   0  0  0  0  0  0  0  0  0  0  0  0
  139.4510   71.5010  222.8240 C   0  0  0  0  0  0  0  0  0  0  0  0
  139.0270   70.1910  222.7850 C   0  0  0  0  0  0  0  0  0  0  0  0
  139.2030   69.3110  223.8370 C   0  0  0  0  0  0  0  0  0  0  0  0
  139.8330   69.7790  224.9690 C   0  0  0  0  0  0  0  0  0  0  0  0
  140.0670   69.0000  226.0840 C   0  0  0  0  0  0  0  0  0  0  0  0
  140.7040   69.5080  227.2020 C   0  0  0  0  0  0  0  0  0  0  0  0
  140.9670   68.6830  228.4180 C   0  0  0  0  0  0  0  0  0  0  0  0
  141.4340   67.4460  228.0070 F   0  0  0  0  0  0  0  0  0  0  0  0
  139.8340   68.5660  229.1980 F   0  0  0  0  0  0  0  0  0  0  0  0
  141.9990   69.2660  229.1390 F   0  0  0  0  0  0  0  0  0  0  0  0
  141.1270   70.8290  227.2320 C   0  0  0  0  0  0  0  0  0  0  0  0
  140.8910   71.6120  226.1110 C   0  0  0  0  0  0  0  0  0  0  0  0
  140.2540   71.0880  225.0010 C   0  0  0  0  0  0  0  0  0  0  0  0
  140.0670   71.9160  223.9630 N   0  0  0  0  0  0  0  0  0  0  0  0
  138.7320   74.0390  222.9710 H   0  0  0  0  0  0  0  0  0  0  0  0
  139.2547   74.4256  220.0318 H   0  0  0  0  0  0  0  0  0  0  0  0
  137.5745   74.6775  220.6093 H   0  0  0  0  0  0  0  0  0  0  0  0
  138.7633   76.1843  218.8060 H   0  0  0  0  0  0  0  0  0  0  0  0
  139.2374   77.8877  218.7282 H   0  0  0  0  0  0  0  0  0  0  0  0
  141.2123   75.5197  218.8688 H   0  0  0  0  0  0  0  0  0  0  0  0
  140.7681   76.3530  217.3589 H   0  0  0  0  0  0  0  0  0  0  0  0
  142.8277   77.3557  218.2267 H   0  0  0  0  0  0  0  0  0  0  0  0
  141.5091   78.5397  218.4351 H   0  0  0  0  0  0  0  0  0  0  0  0
  142.5671   76.5843  220.5387 H   0  0  0  0  0  0  0  0  0  0  0  0
  142.8082   78.3764  220.4993 H   0  0  0  0  0  0  0  0  0  0  0  0
  140.4661   78.7689  220.8262 H   0  0  0  0  0  0  0  0  0  0  0  0
  140.1605   77.3107  222.9971 H   0  0  0  0  0  0  0  0  0  0  0  0
  141.8637   76.8932  222.6959 H   0  0  0  0  0  0  0  0  0  0  0  0
  143.5948   78.6784  222.7497 H   0  0  0  0  0  0  0  0  0  0  0  0
  144.2229   80.9441  223.5624 H   0  0  0  0  0  0  0  0  0  0  0  0
  142.4616   82.5486  224.2494 H   0  0  0  0  0  0  0  0  0  0  0  0
  140.0653   81.8877  224.1237 H   0  0  0  0  0  0  0  0  0  0  0  0
  139.4798   79.6389  223.3163 H   0  0  0  0  0  0  0  0  0  0  0  0
  138.5255   69.8284  221.8756 H   0  0  0  0  0  0  0  0  0  0  0  0
  138.8513   68.2708  223.7720 H   0  0  0  0  0  0  0  0  0  0  0  0
  139.7391   67.9500  226.0837 H   0  0  0  0  0  0  0  0  0  0  0  0
  141.6335   71.2426  228.1165 H   0  0  0  0  0  0  0  0  0  0  0  0
  141.2148   72.6632  226.1052 H   0  0  0  0  0  0  0  0  0  0  0  0
  1  2  2  0
  2  3  1  0
  3  4  1  0
  4  5  1  0
  5  6  2  0
  5  7  1  0
  7  8  1  0
  8  9  1  0
  9 10  1  0
 10 11  1  0
 11 12  1  0
 12 13  1  0
 13 14  1  0
 14 15  2  0
 15 16  1  0
 16 17  2  0
 17 18  1  0
 18 19  2  0
  2 20  1  0
 20 21  2  0
 21 22  1  0
 22 23  2  0
 23 24  1  0
 24 25  2  0
 25 26  1  0
 26 27  1  0
 26 28  1  0
 26 29  1  0
 25 30  1  0
 30 31  2  0
 31 32  1  0
 32 33  2  0
 12  7  1  0
 19 14  1  0
 33 20  1  0
 32 23  1  0
  3 34  1  0
  4 35  1  0
  4 36  1  0
  8 37  1  0
  8 38  1  0
  9 39  1  0
  9 40  1  0
 10 41  1  0
 10 42  1  0
 11 43  1  0
 11 44  1  0
 12 45  1  1
 13 46  1  0
 13 47  1  0
 15 48  1  0
 16 49  1  0
 17 50  1  0
 18 51  1  0
 19 52  1  0
 21 53  1  0
 22 54  1  0
 24 55  1  0
 30 56  1  0
 31 57  1  0
M  END
>  <smiles>  (15) 
O=C(NCC(=O)N1CCCCC1Cc1ccccc1)c1ccc2cc(C(F)(F)F)ccc2n1

>  <score_type>  (15) 
oracle

>  <origin>  (15) 
autodockgpu

>  <m_score__min__energy>  (15) 
-8.6199999999999992

>  <m_primary>  (15) 
energy

>  <rmsd>  (15) 
1.960762216437056

>  <m_score__min__rmsd>  (15) 
1.960762216437056

>  <meeko>  (15) 
{"free_energy": -8.46, "intermolecular_energy": -10.55, "internal_energy": -1.93, "cluster_size": 16, "cluster_id": 1, "rank_in_cluster": 4}

>  <energy>  (15) 
-7.77

>  <cluster_rmsd>  (15) 
1.01

>  <cluster>  (15) 
1

$$$$

     RDKit          3D

 57 60  0  0  0  0  0  0  0  0999 V2000
  139.5150   73.3120  220.2360 O   0  0  0  0  0  0  0  0  0  0  0  0
  139.5200   73.4690  221.4990 C   0  0  0  0  0  0  0  0  0  0  0  0
  139.5460   74.7650  222.0840 N   0  0  0  0  0  0  0  0  0  0  0  0
  139.5710   75.9560  221.2820 C   0  0  0  0  0  0  0  0  0  0  0  0
  140.8180   76.7070  221.5610 C   0  0  0  0  0  0  0  0  0  0  0  0
  141.0860   76.9490  222.7600 O   0  0  0  0  0  0  0  0  0  0  0  0
  141.6340   77.1090  220.4670 N   0  0  0  0  0  0  0  0  0  0  0  0
  141.7990   78.5340  220.1400 C   0  0  0  0  0  0  0  0  0  0  0  0
  141.3030   78.6910  218.7100 C   0  0  0  0  0  0  0  0  0  0  0  0
  142.2390   77.9110  217.8200 C   0  0  0  0  0  0  0  0  0  0  0  0
  142.0780   76.4440  218.1510 C   0  0  0  0  0  0  0  0  0  0  0  0
  142.3450   76.1820  219.6160 C   0  0  2  0  0  0  0  0  0  0  0  0
  142.0790   74.7440  219.9410 C   0  0  0  0  0  0  0  0  0  0  0  0
  143.4000   74.1180  220.2930 C   0  0  0  0  0  0  0  0  0  0  0  0
  143.5470   72.7580  220.4540 C   0  0  0  0  0  0  0  0  0  0  0  0
  144.7840   72.1980  220.7810 C   0  0  0  0  0  0  0  0  0  0  0  0
  145.8840   73.0120  220.9490 C   0  0  0  0  0  0  0  0  0  0  0  0
  145.7640   74.3760  220.7940 C   0  0  0  0  0  0  0  0  0  0  0  0
  144.5290   74.8930  220.4710 C   0  0  0  0  0  0  0  0  0  0  0  0
  139.4970   72.3090  222.3920 C   0  0  0  0  0  0  0  0  0  0  0  0
  138.8210   71.1580  222.0520 C   0  0  0  0  0  0  0  0  0  0  0  0
  138.7760   70.0420  222.8670 C   0  0  0  0  0  0  0  0  0  0  0  0
  139.4420   70.0980  224.0720 C   0  0  0  0  0  0  0  0  0  0  0  0
  139.4720   69.0520  224.9720 C   0  0  0  0  0  0  0  0  0  0  0  0
  140.1530   69.1480  226.1720 C   0  0  0  0  0  0  0  0  0  0  0  0
  140.1980   68.0300  227.1590 C   0  0  0  0  0  0  0  0  0  0  0  0
  139.2400   67.0980  226.7990 F   0  0  0  0  0  0  0  0  0  0  0  0
  140.0030   68.4900  228.4460 F   0  0  0  0  0  0  0  0  0  0  0  0
  141.4230   67.3870  227.0510 F   0  0  0  0  0  0  0  0  0  0  0  0
  140.8310   70.3130  226.5060 C   0  0  0  0  0  0  0  0  0  0  0  0
  140.8000   71.3640  225.6010 C   0  0  0  0  0  0  0  0  0  0  0  0
  140.1140   71.2510  224.4040 C   0  0  0  0  0  0  0  0  0  0  0  0
  140.1380   72.3160  223.5910 N   0  0  0  0  0  0  0  0  0  0  0  0
  139.5490   74.8400  223.1450 H   0  0  0  0  0  0  0  0  0  0  0  0
  139.5368   75.6829  220.2170 H   0  0  0  0  0  0  0  0  0  0  0  0
  138.7005   76.5829  221.5252 H   0  0  0  0  0  0  0  0  0  0  0  0
  141.2015   79.1555  220.8232 H   0  0  0  0  0  0  0  0  0  0  0  0
  142.8462   78.8545  220.2429 H   0  0  0  0  0  0  0  0  0  0  0  0
  140.2810   78.2940  218.6207 H   0  0  0  0  0  0  0  0  0  0  0  0
  141.2843   79.7518  218.4195 H   0  0  0  0  0  0  0  0  0  0  0  0
  141.9843   78.0864  216.7644 H   0  0  0  0  0  0  0  0  0  0  0  0
  143.2790   78.2296  217.9839 H   0  0  0  0  0  0  0  0  0  0  0  0
  141.0503   76.1329  217.9123 H   0  0  0  0  0  0  0  0  0  0  0  0
  142.8045   75.8708  217.5564 H   0  0  0  0  0  0  0  0  0  0  0  0
  143.4101   76.3648  219.8214 H   0  0  0  0  0  0  0  0  0  0  0  0
  141.3881   74.6716  220.7939 H   0  0  0  0  0  0  0  0  0  0  0  0
  141.6172   74.2286  219.0860 H   0  0  0  0  0  0  0  0  0  0  0  0
  142.6745   72.1011  220.3227 H   0  0  0  0  0  0  0  0  0  0  0  0
  144.8804   71.1092  220.9043 H   0  0  0  0  0  0  0  0  0  0  0  0
  146.8586   72.5721  221.2071 H   0  0  0  0  0  0  0  0  0  0  0  0
  146.6340   75.0363  220.9252 H   0  0  0  0  0  0  0  0  0  0  0  0
  144.4370   75.9822  220.3481 H   0  0  0  0  0  0  0  0  0  0  0  0
  138.2927   71.1252  221.0877 H   0  0  0  0  0  0  0  0  0  0  0  0
  138.2264   69.1388  222.5633 H   0  0  0  0  0  0  0  0  0  0  0  0
  138.9415   68.1195  224.7290 H   0  0  0  0  0  0  0  0  0  0  0  0
  141.3753   70.3997  227.4579 H   0  0  0  0  0  0  0  0  0  0  0  0
  141.3276   72.2997  225.8378 H   0  0  0  0  0  0  0  0  0  0  0  0
  1  2  2  0
  2  3  1  0
  3  4  1  0
  4  5  1  0
  5  6  2  0
  5  7  1  0
  7  8  1  0
  8  9  1  0
  9 10  1  0
 10 11  1  0
 11 12  1  0
 12 13  1  0
 13 14  1  0
 14 15  2  0
 15 16  1  0
 16 17  2  0
 17 18  1  0
 18 19  2  0
  2 20  1  0
 20 21  2  0
 21 22  1  0
 22 23  2  0
 23 24  1  0
 24 25  2  0
 25 26  1  0
 26 27  1  0
 26 28  1  0
 26 29  1  0
 25 30  1  0
 30 31  2  0
 31 32  1  0
 32 33  2  0
 12  7  1  0
 19 14  1  0
 33 20  1  0
 32 23  1  0
  3 34  1  0
  4 35  1  0
  4 36  1  0
  8 37  1  0
  8 38  1  0
  9 39  1  0
  9 40  1  0
 10 41  1  0
 10 42  1  0
 11 43  1  0
 11 44  1  0
 12 45  1  6
 13 46  1  0
 13 47  1  0
 15 48  1  0
 16 49  1  0
 17 50  1  0
 18 51  1  0
 19 52  1  0
 21 53  1  0
 22 54  1  0
 24 55  1  0
 30 56  1  0
 31 57  1  0
M  END
>  <smiles>  (16) 
O=C(NCC(=O)N1CCCCC1Cc1ccccc1)c1ccc2cc(C(F)(F)F)ccc2n1

>  <score_type>  (16) 
oracle

>  <origin>  (16) 
autodockgpu

>  <m_score__min__energy>  (16) 
-8.6199999999999992

>  <m_primary>  (16) 
energy

>  <rmsd>  (16) 
2.7769614167103707

>  <m_score__min__rmsd>  (16) 
2.7769614167103707

>  <meeko>  (16) 
{"free_energy": -8.05, "intermolecular_energy": -10.14, "internal_energy": -2.27, "cluster_size": 13, "cluster_id": 2, "rank_in_cluster": 13}

>  <energy>  (16) 
-7.57

>  <cluster_rmsd>  (16) 
1.38

>  <cluster>  (16) 
1

$$$$

     RDKit          3D

 57 60  0  0  0  0  0  0  0  0999 V2000
  140.6980   73.0900  220.7420 O   0  0  0  0  0  0  0  0  0  0  0  0
  140.0740   73.9720  221.4150 C   0  0  0  0  0  0  0  0  0  0  0  0
  138.9360   73.6370  222.2000 N   0  0  0  0  0  0  0  0  0  0  0  0
  138.4360   72.2920  222.2700 C   0  0  0  0  0  0  0  0  0  0  0  0
  139.4140   71.4440  222.9930 C   0  0  0  0  0  0  0  0  0  0  0  0
  140.2050   72.0200  223.7760 O   0  0  0  0  0  0  0  0  0  0  0  0
  139.4020   70.0410  222.7650 N   0  0  0  0  0  0  0  0  0  0  0  0
  139.9300   69.4810  221.5100 C   0  0  0  0  0  0  0  0  0  0  0  0
  138.7730   68.7240  220.8750 C   0  0  0  0  0  0  0  0  0  0  0  0
  138.4420   67.5650  221.7820 C   0  0  0  0  0  0  0  0  0  0  0  0
  137.9000   68.1300  223.0760 C   0  0  0  0  0  0  0  0  0  0  0  0
  138.8890   69.0790  223.7140 C   0  0  2  0  0  0  0  0  0  0  0  0
  138.2910   69.7040  224.9370 C   0  0  0  0  0  0  0  0  0  0  0  0
  139.2990   69.5650  226.0440 C   0  0  0  0  0  0  0  0  0  0  0  0
  139.9780   70.6480  226.5560 C   0  0  0  0  0  0  0  0  0  0  0  0
  140.9110   70.4960  227.5850 C   0  0  0  0  0  0  0  0  0  0  0  0
  141.1640   69.2440  228.1040 C   0  0  0  0  0  0  0  0  0  0  0  0
  140.4980   68.1440  227.6080 C   0  0  0  0  0  0  0  0  0  0  0  0
  139.5850   68.3310  226.5940 C   0  0  0  0  0  0  0  0  0  0  0  0
  140.5160   75.3670  221.4010 C   0  0  0  0  0  0  0  0  0  0  0  0
  141.5000   75.7970  220.5380 C   0  0  0  0  0  0  0  0  0  0  0  0
  141.9440   77.1060  220.4930 C   0  0  0  0  0  0  0  0  0  0  0  0
  141.3670   78.0110  221.3580 C   0  0  0  0  0  0  0  0  0  0  0  0
  141.7230   79.3430  221.4100 C   0  0  0  0  0  0  0  0  0  0  0  0
  141.1190   80.2210  222.2930 C   0  0  0  0  0  0  0  0  0  0  0  0
  141.4880   81.6640  222.3660 C   0  0  0  0  0  0  0  0  0  0  0  0
  142.2060   81.9840  221.2270 F   0  0  0  0  0  0  0  0  0  0  0  0
  142.2050   81.9400  223.5130 F   0  0  0  0  0  0  0  0  0  0  0  0
  140.3290   82.4250  222.3200 F   0  0  0  0  0  0  0  0  0  0  0  0
  140.1290   79.7770  223.1590 C   0  0  0  0  0  0  0  0  0  0  0  0
  139.7720   78.4380  223.1060 C   0  0  0  0  0  0  0  0  0  0  0  0
  140.3850   77.5740  222.2160 C   0  0  0  0  0  0  0  0  0  0  0  0
  139.9780   76.2980  222.2340 N   0  0  0  0  0  0  0  0  0  0  0  0
  138.4520   74.4120  222.7440 H   0  0  0  0  0  0  0  0  0  0  0  0
  137.4755   72.2842  222.8061 H   0  0  0  0  0  0  0  0  0  0  0  0
  138.2883   71.8998  221.2530 H   0  0  0  0  0  0  0  0  0  0  0  0
  140.2714   70.2875  220.8444 H   0  0  0  0  0  0  0  0  0  0  0  0
  140.7931   68.8236  221.6914 H   0  0  0  0  0  0  0  0  0  0  0  0
  137.8998   69.3856  220.7760 H   0  0  0  0  0  0  0  0  0  0  0  0
  139.0463   68.3666  219.8712 H   0  0  0  0  0  0  0  0  0  0  0  0
  137.6848   66.9233  221.3078 H   0  0  0  0  0  0  0  0  0  0  0  0
  139.3397   66.9590  221.9738 H   0  0  0  0  0  0  0  0  0  0  0  0
  136.9657   68.6719  222.8676 H   0  0  0  0  0  0  0  0  0  0  0  0
  137.7180   67.2970  223.7710 H   0  0  0  0  0  0  0  0  0  0  0  0
  139.7682   68.5062  224.0440 H   0  0  0  0  0  0  0  0  0  0  0  0
  138.0787   70.7673  224.7517 H   0  0  0  0  0  0  0  0  0  0  0  0
  137.3451   69.2109  225.2054 H   0  0  0  0  0  0  0  0  0  0  0  0
  139.7825   71.6505  226.1477 H   0  0  0  0  0  0  0  0  0  0  0  0
  141.4428   71.3739  227.9804 H   0  0  0  0  0  0  0  0  0  0  0  0
  141.8979   69.1230  228.9144 H   0  0  0  0  0  0  0  0  0  0  0  0
  140.6913   67.1396  228.0128 H   0  0  0  0  0  0  0  0  0  0  0  0
  139.0554   67.4505  226.2013 H   0  0  0  0  0  0  0  0  0  0  0  0
  141.9535   75.0654  219.8531 H   0  0  0  0  0  0  0  0  0  0  0  0
  142.7317   77.4148  219.7900 H   0  0  0  0  0  0  0  0  0  0  0  0
  142.5058   79.7161  220.7333 H   0  0  0  0  0  0  0  0  0  0  0  0
  139.6428   80.4659  223.8653 H   0  0  0  0  0  0  0  0  0  0  0  0
  138.9909   78.0577  223.7807 H   0  0  0  0  0  0  0  0  0  0  0  0
  1  2  2  0
  2  3  1  0
  3  4  1  0
  4  5  1  0
  5  6  2  0
  5  7  1  0
  7  8  1  0
  8  9  1  0
  9 10  1  0
 10 11  1  0
 11 12  1  0
 12 13  1  0
 13 14  1  0
 14 15  2  0
 15 16  1  0
 16 17  2  0
 17 18  1  0
 18 19  2  0
  2 20  1  0
 20 21  2  0
 21 22  1  0
 22 23  2  0
 23 24  1  0
 24 25  2  0
 25 26  1  0
 26 27  1  0
 26 28  1  0
 26 29  1  0
 25 30  1  0
 30 31  2  0
 31 32  1  0
 32 33  2  0
 12  7  1  0
 19 14  1  0
 33 20  1  0
 32 23  1  0
  3 34  1  0
  4 35  1  0
  4 36  1  0
  8 37  1  0
  8 38  1  0
  9 39  1  0
  9 40  1  0
 10 41  1  0
 10 42  1  0
 11 43  1  0
 11 44  1  0
 12 45  1  1
 13 46  1  0
 13 47  1  0
 15 48  1  0
 16 49  1  0
 17 50  1  0
 18 51  1  0
 19 52  1  0
 21 53  1  0
 22 54  1  0
 24 55  1  0
 30 56  1  0
 31 57  1  0
M  END
>  <smiles>  (17) 
O=C(NCC(=O)N1CCCCC1Cc1ccccc1)c1ccc2cc(C(F)(F)F)ccc2n1

>  <score_type>  (17) 
oracle

>  <origin>  (17) 
autodockgpu

>  <m_score__min__energy>  (17) 
-8.6199999999999992

>  <m_primary>  (17) 
energy

>  <rmsd>  (17) 
8.067655457302722

>  <m_score__min__rmsd>  (17) 
8.067655457302722

>  <meeko>  (17) 
{"free_energy": -7.98, "intermolecular_energy": -10.07, "internal_energy": -2.0, "cluster_size": 4, "cluster_id": 5, "rank_in_cluster": 1}

>  <energy>  (17) 
-8.51

>  <cluster_rmsd>  (17) 
0.0

>  <cluster>  (17) 
2

$$$$

     RDKit          3D

 57 60  0  0  0  0  0  0  0  0999 V2000
  133.9600   69.7570  226.4310 O   0  0  0  0  0  0  0  0  0  0  0  0
  134.1850   70.9240  225.9760 C   0  0  0  0  0  0  0  0  0  0  0  0
  135.1560   71.1480  224.9610 N   0  0  0  0  0  0  0  0  0  0  0  0
  135.9290   70.0730  224.4040 C   0  0  0  0  0  0  0  0  0  0  0  0
  137.1920   70.6160  223.8500 C   0  0  0  0  0  0  0  0  0  0  0  0
  137.3840   71.8490  223.9590 O   0  0  0  0  0  0  0  0  0  0  0  0
  138.1090   69.7210  223.2330 N   0  0  0  0  0  0  0  0  0  0  0  0
  138.2600   69.6940  221.7700 C   0  0  0  0  0  0  0  0  0  0  0  0
  137.9200   68.2730  221.3440 C   0  0  0  0  0  0  0  0  0  0  0  0
  138.9750   67.3640  221.9240 C   0  0  0  0  0  0  0  0  0  0  0  0
  138.8290   67.3870  223.4300 C   0  0  0  0  0  0  0  0  0  0  0  0
  138.9420   68.7950  223.9680 C   0  0  2  0  0  0  0  0  0  0  0  0
  138.6920   68.8060  225.4450 C   0  0  0  0  0  0  0  0  0  0  0  0
  139.5820   69.8630  226.0380 C   0  0  0  0  0  0  0  0  0  0  0  0
  140.2710   70.7630  225.2560 C   0  0  0  0  0  0  0  0  0  0  0  0
  141.0920   71.7380  225.8270 C   0  0  0  0  0  0  0  0  0  0  0  0
  141.2230   71.8080  227.1980 C   0  0  0  0  0  0  0  0  0  0  0  0
  140.5440   70.9190  228.0030 C   0  0  0  0  0  0  0  0  0  0  0  0
  139.7430   69.9720  227.4050 C   0  0  0  0  0  0  0  0  0  0  0  0
  133.4430   72.0770  226.4870 C   0  0  0  0  0  0  0  0  0  0  0  0
  132.2380   71.9220  227.1370 C   0  0  0  0  0  0  0  0  0  0  0  0
  131.5080   72.9850  227.6350 C   0  0  0  0  0  0  0  0  0  0  0  0
  132.0200   74.2530  227.4660 C   0  0  0  0  0  0  0  0  0  0  0  0
  131.3870   75.3930  227.9170 C   0  0  0  0  0  0  0  0  0  0  0  0
  131.9350   76.6490  227.7270 C   0  0  0  0  0  0  0  0  0  0  0  0
  131.2680   77.8940  228.2060 C   0  0  0  0  0  0  0  0  0  0  0  0
  130.4480   77.5630  229.2710 F   0  0  0  0  0  0  0  0  0  0  0  0
  130.5610   78.5060  227.1910 F   0  0  0  0  0  0  0  0  0  0  0  0
  132.2330   78.7520  228.7140 F   0  0  0  0  0  0  0  0  0  0  0  0
  133.1490   76.7960  227.0710 C   0  0  0  0  0  0  0  0  0  0  0  0
  133.7850   75.6480  226.6180 C   0  0  0  0  0  0  0  0  0  0  0  0
  133.2230   74.4000  226.8160 C   0  0  0  0  0  0  0  0  0  0  0  0
  133.9060   73.3480  226.3450 N   0  0  0  0  0  0  0  0  0  0  0  0
  135.3050   72.1430  224.6150 H   0  0  0  0  0  0  0  0  0  0  0  0
  136.1580   69.3388  225.1904 H   0  0  0  0  0  0  0  0  0  0  0  0
  135.3558   69.5820  223.6038 H   0  0  0  0  0  0  0  0  0  0  0  0
  137.5696   70.4102  221.3004 H   0  0  0  0  0  0  0  0  0  0  0  0
  139.2779   69.9761  221.4629 H   0  0  0  0  0  0  0  0  0  0  0  0
  136.9286   67.9920  221.7289 H   0  0  0  0  0  0  0  0  0  0  0  0
  137.8968   68.1912  220.2473 H   0  0  0  0  0  0  0  0  0  0  0  0
  138.8328   66.3394  221.5499 H   0  0  0  0  0  0  0  0  0  0  0  0
  139.9789   67.7044  221.6303 H   0  0  0  0  0  0  0  0  0  0  0  0
  137.8451   66.9769  223.7015 H   0  0  0  0  0  0  0  0  0  0  0  0
  139.6357   66.7807  223.8678 H   0  0  0  0  0  0  0  0  0  0  0  0
  139.9710   69.1523  223.8147 H   0  0  0  0  0  0  0  0  0  0  0  0
  137.6373   69.0444  225.6471 H   0  0  0  0  0  0  0  0  0  0  0  0
  138.9079   67.8213  225.8852 H   0  0  0  0  0  0  0  0  0  0  0  0
  140.1730   70.7131  224.1615 H   0  0  0  0  0  0  0  0  0  0  0  0
  141.6329   72.4484  225.1846 H   0  0  0  0  0  0  0  0  0  0  0  0
  141.8702   72.5743  227.6496 H   0  0  0  0  0  0  0  0  0  0  0  0
  140.6397   70.9649  229.0979 H   0  0  0  0  0  0  0  0  0  0  0  0
  139.2024   69.2645  228.0509 H   0  0  0  0  0  0  0  0  0  0  0  0
  131.8384   70.9052  227.2656 H   0  0  0  0  0  0  0  0  0  0  0  0
  130.5492   72.8238  228.1496 H   0  0  0  0  0  0  0  0  0  0  0  0
  130.4237   75.3010  228.4401 H   0  0  0  0  0  0  0  0  0  0  0  0
  133.5932   77.7902  226.9149 H   0  0  0  0  0  0  0  0  0  0  0  0
  134.7488   75.7322  226.0946 H   0  0  0  0  0  0  0  0  0  0  0  0
  1  2  2  0
  2  3  1  0
  3  4  1  0
  4  5  1  0
  5  6  2  0
  5  7  1  0
  7  8  1  0
  8  9  1  0
  9 10  1  0
 10 11  1  0
 11 12  1  0
 12 13  1  0
 13 14  1  0
 14 15  2  0
 15 16  1  0
 16 17  2  0
 17 18  1  0
 18 19  2  0
  2 20  1  0
 20 21  2  0
 21 22  1  0
 22 23  2  0
 23 24  1  0
 24 25  2  0
 25 26  1  0
 26 27  1  0
 26 28  1  0
 26 29  1  0
 25 30  1  0
 30 31  2  0
 31 32  1  0
 32 33  2  0
 12  7  1  0
 19 14  1  0
 33 20  1  0
 32 23  1  0
  3 34  1  0
  4 35  1  0
  4 36  1  0
  8 37  1  0
  8 38  1  0
  9 39  1  0
  9 40  1  0
 10 41  1  0
 10 42  1  0
 11 43  1  0
 11 44  1  0
 12 45  1  1
 13 46  1  0
 13 47  1  0
 15 48  1  0
 16 49  1  0
 17 50  1  0
 18 51  1  0
 19 52  1  0
 21 53  1  0
 22 54  1  0
 24 55  1  0
 30 56  1  0
 31 57  1  0
M  END
>  <smiles>  (18) 
O=C(NCC(=O)N1CCCCC1Cc1ccccc1)c1ccc2cc(C(F)(F)F)ccc2n1

>  <score_type>  (18) 
oracle

>  <origin>  (18) 
autodockgpu

>  <m_score__min__energy>  (18) 
-8.6199999999999992

>  <m_primary>  (18) 
energy

>  <rmsd>  (18) 
8.535218757837887

>  <m_score__min__rmsd>  (18) 
8.535218757837887

>  <meeko>  (18) 
{"free_energy": -8.08, "intermolecular_energy": -10.16, "internal_energy": -2.43, "cluster_size": 13, "cluster_id": 3, "rank_in_cluster": 8}

>  <energy>  (18) 
-8.49

>  <cluster_rmsd>  (18) 
0.14

>  <cluster>  (18) 
2

$$$$

     RDKit          3D

 57 60  0  0  0  0  0  0  0  0999 V2000
  140.6830   73.4610  220.5650 O   0  0  0  0  0  0  0  0  0  0  0  0
  140.1450   73.6300  221.7060 C   0  0  0  0  0  0  0  0  0  0  0  0
  139.7600   74.9230  222.1580 N   0  0  0  0  0  0  0  0  0  0  0  0
  139.9600   76.0960  221.3540 C   0  0  0  0  0  0  0  0  0  0  0  0
  139.9070   77.2970  222.2200 C   0  0  0  0  0  0  0  0  0  0  0  0
  138.8150   77.5560  222.7770 O   0  0  0  0  0  0  0  0  0  0  0  0
  141.0830   78.0830  222.3730 N   0  0  0  0  0  0  0  0  0  0  0  0
  141.6610   78.3140  223.7060 C   0  0  0  0  0  0  0  0  0  0  0  0
  141.6660   79.8240  223.9000 C   0  0  0  0  0  0  0  0  0  0  0  0
  142.6210   80.4040  222.8870 C   0  0  0  0  0  0  0  0  0  0  0  0
  142.0360   80.1700  221.5120 C   0  0  0  0  0  0  0  0  0  0  0  0
  141.7840   78.6990  221.2690 C   0  0  2  0  0  0  0  0  0  0  0  0
  141.1110   78.5000  219.9450 C   0  0  0  0  0  0  0  0  0  0  0  0
  142.0090   77.6230  219.1180 C   0  0  0  0  0  0  0  0  0  0  0  0
  142.2010   77.8340  217.7710 C   0  0  0  0  0  0  0  0  0  0  0  0
  143.0410   77.0060  217.0220 C   0  0  0  0  0  0  0  0  0  0  0  0
  143.6940   75.9570  217.6330 C   0  0  0  0  0  0  0  0  0  0  0  0
  143.5190   75.7250  218.9790 C   0  0  0  0  0  0  0  0  0  0  0  0
  142.6840   76.5610  219.6870 C   0  0  0  0  0  0  0  0  0  0  0  0
  139.9040   72.4900  222.5910 C   0  0  0  0  0  0  0  0  0  0  0  0
  138.8730   71.6070  222.3570 C   0  0  0  0  0  0  0  0  0  0  0  0
  138.6140   70.5180  223.1680 C   0  0  0  0  0  0  0  0  0  0  0  0
  139.4320   70.3200  224.2590 C   0  0  0  0  0  0  0  0  0  0  0  0
  139.2770   69.2710  225.1430 C   0  0  0  0  0  0  0  0  0  0  0  0
  140.1210   69.1060  226.2270 C   0  0  0  0  0  0  0  0  0  0  0  0
  139.9700   67.9810  227.1950 C   0  0  0  0  0  0  0  0  0  0  0  0
  141.2130   67.3990  227.3770 F   0  0  0  0  0  0  0  0  0  0  0  0
  139.0380   67.0630  226.7540 F   0  0  0  0  0  0  0  0  0  0  0  0
  139.6000   68.4980  228.4280 F   0  0  0  0  0  0  0  0  0  0  0  0
  141.1560   70.0020  226.4550 C   0  0  0  0  0  0  0  0  0  0  0  0
  141.3120   71.0550  225.5660 C   0  0  0  0  0  0  0  0  0  0  0  0
  140.4590   71.2050  224.4870 C   0  0  0  0  0  0  0  0  0  0  0  0
  140.6840   72.2510  223.6800 N   0  0  0  0  0  0  0  0  0  0  0  0
  139.3130   75.0090  223.1200 H   0  0  0  0  0  0  0  0  0  0  0  0
  140.9420   76.0410  220.8614 H   0  0  0  0  0  0  0  0  0  0  0  0
  139.1719   76.1577  220.5891 H   0  0  0  0  0  0  0  0  0  0  0  0
  141.0459   77.8305  224.4792 H   0  0  0  0  0  0  0  0  0  0  0  0
  142.6737   77.8921  223.7868 H   0  0  0  0  0  0  0  0  0  0  0  0
  140.6555   80.2275  223.7386 H   0  0  0  0  0  0  0  0  0  0  0  0
  141.9781   80.0839  224.9223 H   0  0  0  0  0  0  0  0  0  0  0  0
  142.7430   81.4830  223.0629 H   0  0  0  0  0  0  0  0  0  0  0  0
  143.6075   79.9248  222.9711 H   0  0  0  0  0  0  0  0  0  0  0  0
  141.0845   80.7157  221.4291 H   0  0  0  0  0  0  0  0  0  0  0  0
  142.7553   80.5292  220.7613 H   0  0  0  0  0  0  0  0  0  0  0  0
  142.7511   78.1774  221.2175 H   0  0  0  0  0  0  0  0  0  0  0  0
  140.1352   78.0126  220.0876 H   0  0  0  0  0  0  0  0  0  0  0  0
  140.9388   79.4647  219.4453 H   0  0  0  0  0  0  0  0  0  0  0  0
  141.6840   78.6692  217.2758 H   0  0  0  0  0  0  0  0  0  0  0  0
  143.1810   77.1909  215.9467 H   0  0  0  0  0  0  0  0  0  0  0  0
  144.3557   75.3044  217.0446 H   0  0  0  0  0  0  0  0  0  0  0  0
  144.0344   74.8909  219.4776 H   0  0  0  0  0  0  0  0  0  0  0  0
  142.5477   76.3728  220.7622 H   0  0  0  0  0  0  0  0  0  0  0  0
  138.2256   71.7764  221.4840 H   0  0  0  0  0  0  0  0  0  0  0  0
  137.7823   69.8321  222.9496 H   0  0  0  0  0  0  0  0  0  0  0  0
  138.4629   68.5490  224.9817 H   0  0  0  0  0  0  0  0  0  0  0  0
  141.8318   69.8807  227.3144 H   0  0  0  0  0  0  0  0  0  0  0  0
  142.1244   71.7803  225.7207 H   0  0  0  0  0  0  0  0  0  0  0  0
  1  2  2  0
  2  3  1  0
  3  4  1  0
  4  5  1  0
  5  6  2  0
  5  7  1  0
  7  8  1  0
  8  9  1  0
  9 10  1  0
 10 11  1  0
 11 12  1  0
 12 13  1  0
 13 14  1  0
 14 15  2  0
 15 16  1  0
 16 17  2  0
 17 18  1  0
 18 19  2  0
  2 20  1  0
 20 21  2  0
 21 22  1  0
 22 23  2  0
 23 24  1  0
 24 25  2  0
 25 26  1  0
 26 27  1  0
 26 28  1  0
 26 29  1  0
 25 30  1  0
 30 31  2  0
 31 32  1  0
 32 33  2  0
 12  7  1  0
 19 14  1  0
 33 20  1  0
 32 23  1  0
  3 34  1  0
  4 35  1  0
  4 36  1  0
  8 37  1  0
  8 38  1  0
  9 39  1  0
  9 40  1  0
 10 41  1  0
 10 42  1  0
 11 43  1  0
 11 44  1  0
 12 45  1  6
 13 46  1  0
 13 47  1  0
 15 48  1  0
 16 49  1  0
 17 50  1  0
 18 51  1  0
 19 52  1  0
 21 53  1  0
 22 54  1  0
 24 55  1  0
 30 56  1  0
 31 57  1  0
M  END
>  <smiles>  (19) 
O=C(NCC(=O)N1CCCCC1Cc1ccccc1)c1ccc2cc(C(F)(F)F)ccc2n1

>  <score_type>  (19) 
oracle

>  <origin>  (19) 
autodockgpu

>  <m_score__min__energy>  (19) 
-8.6199999999999992

>  <m_primary>  (19) 
energy

>  <rmsd>  (19) 
3.782624193915102

>  <m_score__min__rmsd>  (19) 
3.782624193915102

>  <meeko>  (19) 
{"free_energy": -8.51, "intermolecular_energy": -10.6, "internal_energy": -1.74, "cluster_size": 13, "cluster_id": 2, "rank_in_cluster": 1}

>  <energy>  (19) 
-8.47

>  <cluster_rmsd>  (19) 
0.2

>  <cluster>  (19) 
2

$$$$

     RDKit          3D

 57 60  0  0  0  0  0  0  0  0999 V2000
  132.8370   69.5850  226.4500 O   0  0  0  0  0  0  0  0  0  0  0  0
  133.5410   70.6350  226.3000 C   0  0  0  0  0  0  0  0  0  0  0  0
  134.8490   70.5760  225.7440 N   0  0  0  0  0  0  0  0  0  0  0  0
  135.4390   69.3330  225.3300 C   0  0  0  0  0  0  0  0  0  0  0  0
  136.1340   69.5300  224.0360 C   0  0  0  0  0  0  0  0  0  0  0  0
  136.1670   68.5560  223.2480 O   0  0  0  0  0  0  0  0  0  0  0  0
  136.7180   70.7970  223.7580 N   0  0  0  0  0  0  0  0  0  0  0  0
  135.9050   71.8910  223.2040 C   0  0  0  0  0  0  0  0  0  0  0  0
  136.5580   72.2640  221.8820 C   0  0  0  0  0  0  0  0  0  0  0  0
  137.9210   72.8290  222.1960 C   0  0  0  0  0  0  0  0  0  0  0  0
  138.7640   71.7110  222.7690 C   0  0  0  0  0  0  0  0  0  0  0  0
  138.1110   71.1050  223.9900 C   0  0  2  0  0  0  0  0  0  0  0  0
  138.9110   69.9350  224.4780 C   0  0  0  0  0  0  0  0  0  0  0  0
  139.6310   70.3790  225.7210 C   0  0  0  0  0  0  0  0  0  0  0  0
  139.5460   69.6820  226.9050 C   0  0  0  0  0  0  0  0  0  0  0  0
  140.2240   70.1120  228.0480 C   0  0  0  0  0  0  0  0  0  0  0  0
  140.9950   71.2540  228.0000 C   0  0  0  0  0  0  0  0  0  0  0  0
  141.0970   71.9690  226.8270 C   0  0  0  0  0  0  0  0  0  0  0  0
  140.4150   71.5160  225.7210 C   0  0  0  0  0  0  0  0  0  0  0  0
  133.0180   71.9440  226.6950 C   0  0  0  0  0  0  0  0  0  0  0  0
  131.8190   72.0630  227.3620 C   0  0  0  0  0  0  0  0  0  0  0  0
  131.2920   73.2800  227.7530 C   0  0  0  0  0  0  0  0  0  0  0  0
  132.0100   74.4180  227.4550 C   0  0  0  0  0  0  0  0  0  0  0  0
  131.5910   75.6890  227.7910 C   0  0  0  0  0  0  0  0  0  0  0  0
  132.3420   76.8070  227.4740 C   0  0  0  0  0  0  0  0  0  0  0  0
  131.9080   78.1900  227.8270 C   0  0  0  0  0  0  0  0  0  0  0  0
  132.8000   78.6990  228.7550 F   0  0  0  0  0  0  0  0  0  0  0  0
  130.6130   78.2010  228.3070 F   0  0  0  0  0  0  0  0  0  0  0  0
  132.0180   78.9950  226.7020 F   0  0  0  0  0  0  0  0  0  0  0  0
  133.5490   76.6760  226.8010 C   0  0  0  0  0  0  0  0  0  0  0  0
  133.9690   75.3980  226.4640 C   0  0  0  0  0  0  0  0  0  0  0  0
  133.2060   74.2910  226.7890 C   0  0  0  0  0  0  0  0  0  0  0  0
  133.6890   73.0950  226.4240 N   0  0  0  0  0  0  0  0  0  0  0  0
  135.3950   71.4830  225.6400 H   0  0  0  0  0  0  0  0  0  0  0  0
  136.1619   68.9983  226.0886 H   0  0  0  0  0  0  0  0  0  0  0  0
  134.6536   68.5715  225.2152 H   0  0  0  0  0  0  0  0  0  0  0  0
  134.8710   71.5541  223.0389 H   0  0  0  0  0  0  0  0  0  0  0  0
  135.8603   72.7497  223.8900 H   0  0  0  0  0  0  0  0  0  0  0  0
  136.6581   71.3714  221.2470 H   0  0  0  0  0  0  0  0  0  0  0  0
  135.9468   73.0016  221.3413 H   0  0  0  0  0  0  0  0  0  0  0  0
  138.3865   73.2157  221.2774 H   0  0  0  0  0  0  0  0  0  0  0  0
  137.8376   73.6557  222.9169 H   0  0  0  0  0  0  0  0  0  0  0  0
  138.8912   70.9298  222.0051 H   0  0  0  0  0  0  0  0  0  0  0  0
  139.7387   72.1262  223.0650 H   0  0  0  0  0  0  0  0  0  0  0  0
  138.1085   71.8506  224.7987 H   0  0  0  0  0  0  0  0  0  0  0  0
  138.2436   69.0918  224.7094 H   0  0  0  0  0  0  0  0  0  0  0  0
  139.6247   69.6013  223.7103 H   0  0  0  0  0  0  0  0  0  0  0  0
  138.9330   68.7698  226.9518 H   0  0  0  0  0  0  0  0  0  0  0  0
  140.1430   69.5407  228.9845 H   0  0  0  0  0  0  0  0  0  0  0  0
  141.5292   71.5945  228.8993 H   0  0  0  0  0  0  0  0  0  0  0  0
  141.7096   72.8812  226.7756 H   0  0  0  0  0  0  0  0  0  0  0  0
  140.4988   72.0904  224.7866 H   0  0  0  0  0  0  0  0  0  0  0  0
  131.2547   71.1478  227.5943 H   0  0  0  0  0  0  0  0  0  0  0  0
  130.3308   73.3380  228.2847 H   0  0  0  0  0  0  0  0  0  0  0  0
  130.6371   75.8165  228.3237 H   0  0  0  0  0  0  0  0  0  0  0  0
  134.1533   77.5582  226.5431 H   0  0  0  0  0  0  0  0  0  0  0  0
  134.9217   75.2628  225.9311 H   0  0  0  0  0  0  0  0  0  0  0  0
  1  2  2  0
  2  3  1  0
  3  4  1  0
  4  5  1  0
  5  6  2  0
  5  7  1  0
  7  8  1  0
  8  9  1  0
  9 10  1  0
 10 11  1  0
 11 12  1  0
 12 13  1  0
 13 14  1  0
 14 15  2  0
 15 16  1  0
 16 17  2  0
 17 18  1  0
 18 19  2  0
  2 20  1  0
 20 21  2  0
 21 22  1  0
 22 23  2  0
 23 24  1  0
 24 25  2  0
 25 26  1  0
 26 27  1  0
 26 28  1  0
 26 29  1  0
 25 30  1  0
 30 31  2  0
 31 32  1  0
 32 33  2  0
 12  7  1  0
 19 14  1  0
 33 20  1  0
 32 23  1  0
  3 34  1  0
  4 35  1  0
  4 36  1  0
  8 37  1  0
  8 38  1  0
  9 39  1  0
  9 40  1  0
 10 41  1  0
 10 42  1  0
 11 43  1  0
 11 44  1  0
 12 45  1  1
 13 46  1  0
 13 47  1  0
 15 48  1  0
 16 49  1  0
 17 50  1  0
 18 51  1  0
 19 52  1  0
 21 53  1  0
 22 54  1  0
 24 55  1  0
 30 56  1  0
 31 57  1  0
M  END
>  <smiles>  (20) 
O=C(NCC(=O)N1CCCCC1Cc1ccccc1)c1ccc2cc(C(F)(F)F)ccc2n1

>  <score_type>  (20) 
oracle

>  <origin>  (20) 
autodockgpu

>  <m_score__min__energy>  (20) 
-8.6199999999999992

>  <m_primary>  (20) 
energy

>  <rmsd>  (20) 
8.299971138868614

>  <m_score__min__rmsd>  (20) 
8.299971138868614

>  <meeko>  (20) 
{"free_energy": -8.1, "intermolecular_energy": -10.19, "internal_energy": -2.06, "cluster_size": 13, "cluster_id": 3, "rank_in_cluster": 7}

>  <energy>  (20) 
-8.47

>  <cluster_rmsd>  (20) 
0.23

>  <cluster>  (20) 
2

$$$$

     RDKit          3D

 57 60  0  0  0  0  0  0  0  0999 V2000
  139.9280   72.5420  220.2020 O   0  0  0  0  0  0  0  0  0  0  0  0
  140.3350   72.8840  221.3590 C   0  0  0  0  0  0  0  0  0  0  0  0
  140.9830   74.1320  221.5770 N   0  0  0  0  0  0  0  0  0  0  0  0
  141.2120   75.0620  220.5070 C   0  0  0  0  0  0  0  0  0  0  0  0
  139.9780   75.8490  220.2720 C   0  0  0  0  0  0  0  0  0  0  0  0
  139.6920   76.1280  219.0840 O   0  0  0  0  0  0  0  0  0  0  0  0
  139.1930   76.2410  221.3910 N   0  0  0  0  0  0  0  0  0  0  0  0
  138.3640   75.2580  222.1060 C   0  0  0  0  0  0  0  0  0  0  0  0
  136.9360   75.7750  222.0140 C   0  0  0  0  0  0  0  0  0  0  0  0
  136.8740   77.0670  222.7900 C   0  0  0  0  0  0  0  0  0  0  0  0
  137.7260   78.0850  222.0640 C   0  0  0  0  0  0  0  0  0  0  0  0
  139.1460   77.5930  221.9030 C   0  0  2  0  0  0  0  0  0  0  0  0
  139.9430   78.5690  221.0920 C   0  0  0  0  0  0  0  0  0  0  0  0
  140.8770   79.2720  222.0380 C   0  0  0  0  0  0  0  0  0  0  0  0
  141.3430   80.5450  221.7960 C   0  0  0  0  0  0  0  0  0  0  0  0
  142.2100   81.1790  222.6880 C   0  0  0  0  0  0  0  0  0  0  0  0
  142.6120   80.5290  223.8360 C   0  0  0  0  0  0  0  0  0  0  0  0
  142.1590   79.2550  224.1020 C   0  0  0  0  0  0  0  0  0  0  0  0
  141.3060   78.6600  223.1990 C   0  0  0  0  0  0  0  0  0  0  0  0
  140.1430   71.9970  222.5070 C   0  0  0  0  0  0  0  0  0  0  0  0
  139.3910   70.8470  222.4040 C   0  0  0  0  0  0  0  0  0  0  0  0
  139.1880   69.9830  223.4640 C   0  0  0  0  0  0  0  0  0  0  0  0
  139.7690   70.2990  224.6730 C   0  0  0  0  0  0  0  0  0  0  0  0
  139.6390   69.5190  225.8040 C   0  0  0  0  0  0  0  0  0  0  0  0
  140.2390   69.8710  227.0000 C   0  0  0  0  0  0  0  0  0  0  0  0
  140.1120   69.0420  228.2340 C   0  0  0  0  0  0  0  0  0  0  0  0
  139.1940   69.6520  229.0710 F   0  0  0  0  0  0  0  0  0  0  0  0
  141.3340   68.8770  228.8530 F   0  0  0  0  0  0  0  0  0  0  0  0
  139.5680   67.8130  227.8920 F   0  0  0  0  0  0  0  0  0  0  0  0
  140.9940   71.0320  227.0930 C   0  0  0  0  0  0  0  0  0  0  0  0
  141.1230   71.8160  225.9550 C   0  0  0  0  0  0  0  0  0  0  0  0
  140.5170   71.4490  224.7680 C   0  0  0  0  0  0  0  0  0  0  0  0
  140.6960   72.2650  223.7200 N   0  0  0  0  0  0  0  0  0  0  0  0
  141.3030   74.3690  222.5640 H   0  0  0  0  0  0  0  0  0  0  0  0
  142.0345   75.7400  220.7787 H   0  0  0  0  0  0  0  0  0  0  0  0
  141.4801   74.5135  219.5920 H   0  0  0  0  0  0  0  0  0  0  0  0
  138.4451   74.2698  221.6296 H   0  0  0  0  0  0  0  0  0  0  0  0
  138.6857   75.1411  223.1514 H   0  0  0  0  0  0  0  0  0  0  0  0
  136.6681   75.9546  220.9624 H   0  0  0  0  0  0  0  0  0  0  0  0
  136.2291   75.0398  222.4260 H   0  0  0  0  0  0  0  0  0  0  0  0
  135.8339   77.4208  222.8449 H   0  0  0  0  0  0  0  0  0  0  0  0
  137.2444   76.9174  223.8149 H   0  0  0  0  0  0  0  0  0  0  0  0
  137.2951   78.2695  221.0689 H   0  0  0  0  0  0  0  0  0  0  0  0
  137.7431   79.0115  222.6567 H   0  0  0  0  0  0  0  0  0  0  0  0
  139.6180   77.5400  222.8952 H   0  0  0  0  0  0  0  0  0  0  0  0
  140.5181   78.0370  220.3199 H   0  0  0  0  0  0  0  0  0  0  0  0
  139.2827   79.2892  220.5867 H   0  0  0  0  0  0  0  0  0  0  0  0
  141.0265   81.0718  220.8837 H   0  0  0  0  0  0  0  0  0  0  0  0
  142.5720   82.1957  222.4754 H   0  0  0  0  0  0  0  0  0  0  0  0
  143.2946   81.0278  224.5397 H   0  0  0  0  0  0  0  0  0  0  0  0
  142.4714   78.7256  225.0142 H   0  0  0  0  0  0  0  0  0  0  0  0
  140.9473   77.6427  223.4143 H   0  0  0  0  0  0  0  0  0  0  0  0
  138.9313   70.6054  221.4343 H   0  0  0  0  0  0  0  0  0  0  0  0
  138.5821   69.0725  223.3461 H   0  0  0  0  0  0  0  0  0  0  0  0
  139.0441   68.5952  225.7534 H   0  0  0  0  0  0  0  0  0  0  0  0
  141.4750   71.3216  228.0389 H   0  0  0  0  0  0  0  0  0  0  0  0
  141.7154   72.7418  225.9982 H   0  0  0  0  0  0  0  0  0  0  0  0
  1  2  2  0
  2  3  1  0
  3  4  1  0
  4  5  1  0
  5  6  2  0
  5  7  1  0
  7  8  1  0
  8  9  1  0
  9 10  1  0
 10 11  1  0
 11 12  1  0
 12 13  1  0
 13 14  1  0
 14 15  2  0
 15 16  1  0
 16 17  2  0
 17 18  1  0
 18 19  2  0
  2 20  1  0
 20 21  2  0
 21 22  1  0
 22 23  2  0
 23 24  1  0
 24 25  2  0
 25 26  1  0
 26 27  1  0
 26 28  1  0
 26 29  1  0
 25 30  1  0
 30 31  2  0
 31 32  1  0
 32 33  2  0
 12  7  1  0
 19 14  1  0
 33 20  1  0
 32 23  1  0
  3 34  1  0
  4 35  1  0
  4 36  1  0
  8 37  1  0
  8 38  1  0
  9 39  1  0
  9 40  1  0
 10 41  1  0
 10 42  1  0
 11 43  1  0
 11 44  1  0
 12 45  1  1
 13 46  1  0
 13 47  1  0
 15 48  1  0
 16 49  1  0
 17 50  1  0
 18 51  1  0
 19 52  1  0
 21 53  1  0
 22 54  1  0
 24 55  1  0
 30 56  1  0
 31 57  1  0
M  END
>  <smiles>  (21) 
O=C(NCC(=O)N1CCCCC1Cc1ccccc1)c1ccc2cc(C(F)(F)F)ccc2n1

>  <score_type>  (21) 
oracle

>  <origin>  (21) 
autodockgpu

>  <m_score__min__energy>  (21) 
-8.6199999999999992

>  <m_primary>  (21) 
energy

>  <rmsd>  (21) 
3.073721162158316

>  <m_score__min__rmsd>  (21) 
3.073721162158316

>  <meeko>  (21) 
{"free_energy": -7.57, "intermolecular_energy": -9.65, "internal_energy": -2.06, "cluster_size": 16, "cluster_id": 1, "rank_in_cluster": 16}

>  <energy>  (21) 
-8.44

>  <cluster_rmsd>  (21) 
0.23

>  <cluster>  (21) 
2

$$$$

     RDKit          3D

 57 60  0  0  0  0  0  0  0  0999 V2000
  133.8100   69.1730  226.4680 O   0  0  0  0  0  0  0  0  0  0  0  0
  134.2870   70.2690  226.0280 C   0  0  0  0  0  0  0  0  0  0  0  0
  135.4030   70.2890  225.1460 N   0  0  0  0  0  0  0  0  0  0  0  0
  136.0450   69.0800  224.7120 C   0  0  0  0  0  0  0  0  0  0  0  0
  136.9670   69.3920  223.5940 C   0  0  0  0  0  0  0  0  0  0  0  0
  137.2670   68.4550  222.8180 O   0  0  0  0  0  0  0  0  0  0  0  0
  137.4570   70.7200  223.4610 N   0  0  0  0  0  0  0  0  0  0  0  0
  136.6570   71.7480  222.7770 C   0  0  0  0  0  0  0  0  0  0  0  0
  137.5130   72.2360  221.6170 C   0  0  0  0  0  0  0  0  0  0  0  0
  138.7210   72.9210  222.2060 C   0  0  0  0  0  0  0  0  0  0  0  0
  139.5500   71.8720  222.9140 C   0  0  0  0  0  0  0  0  0  0  0  0
  138.7380   71.1560  223.9700 C   0  0  2  0  0  0  0  0  0  0  0  0
  139.5460   70.0550  224.5850 C   0  0  0  0  0  0  0  0  0  0  0  0
  140.0800   70.5730  225.8910 C   0  0  0  0  0  0  0  0  0  0  0  0
  140.9010   71.6770  225.9610 C   0  0  0  0  0  0  0  0  0  0  0  0
  141.3860   72.1410  227.1850 C   0  0  0  0  0  0  0  0  0  0  0  0
  141.0430   71.4910  228.3520 C   0  0  0  0  0  0  0  0  0  0  0  0
  140.2230   70.3840  228.3090 C   0  0  0  0  0  0  0  0  0  0  0  0
  139.7640   69.9540  227.0840 C   0  0  0  0  0  0  0  0  0  0  0  0
  133.6940   71.5480  226.4210 C   0  0  0  0  0  0  0  0  0  0  0  0
  132.5350   71.6010  227.1630 C   0  0  0  0  0  0  0  0  0  0  0  0
  131.9440   72.7890  227.5530 C   0  0  0  0  0  0  0  0  0  0  0  0
  132.5540   73.9660  227.1750 C   0  0  0  0  0  0  0  0  0  0  0  0
  132.0630   75.2130  227.5020 C   0  0  0  0  0  0  0  0  0  0  0  0
  132.7060   76.3720  227.1030 C   0  0  0  0  0  0  0  0  0  0  0  0
  132.1930   77.7300  227.4450 C   0  0  0  0  0  0  0  0  0  0  0  0
  133.2350   78.6310  227.3150 F   0  0  0  0  0  0  0  0  0  0  0  0
  131.6530   77.7560  228.7150 F   0  0  0  0  0  0  0  0  0  0  0  0
  131.2420   78.1000  226.5040 F   0  0  0  0  0  0  0  0  0  0  0  0
  133.8730   76.3080  226.3550 C   0  0  0  0  0  0  0  0  0  0  0  0
  134.3650   75.0520  226.0270 C   0  0  0  0  0  0  0  0  0  0  0  0
  133.7110   73.9040  226.4340 C   0  0  0  0  0  0  0  0  0  0  0  0
  134.2580   72.7350  226.0720 N   0  0  0  0  0  0  0  0  0  0  0  0
  135.7620   71.2320  224.8080 H   0  0  0  0  0  0  0  0  0  0  0  0
  136.6135   68.6451  225.5473 H   0  0  0  0  0  0  0  0  0  0  0  0
  135.2858   68.3590  224.3747 H   0  0  0  0  0  0  0  0  0  0  0  0
  135.7166   71.3161  222.4039 H   0  0  0  0  0  0  0  0  0  0  0  0
  136.3888   72.5706  223.4563 H   0  0  0  0  0  0  0  0  0  0  0  0
  137.8287   71.3834  220.9978 H   0  0  0  0  0  0  0  0  0  0  0  0
  136.9450   72.9296  220.9795 H   0  0  0  0  0  0  0  0  0  0  0  0
  139.3134   73.3881  221.4054 H   0  0  0  0  0  0  0  0  0  0  0  0
  138.4109   73.7056  222.9119 H   0  0  0  0  0  0  0  0  0  0  0  0
  139.9065   71.1380  222.1763 H   0  0  0  0  0  0  0  0  0  0  0  0
  140.3985   72.3709  223.4051 H   0  0  0  0  0  0  0  0  0  0  0  0
  138.4983   71.8654  224.7758 H   0  0  0  0  0  0  0  0  0  0  0  0
  138.9111   69.1740  224.7601 H   0  0  0  0  0  0  0  0  0  0  0  0
  140.3678   69.7541  223.9185 H   0  0  0  0  0  0  0  0  0  0  0  0
  141.1794   72.2025  225.0356 H   0  0  0  0  0  0  0  0  0  0  0  0
  142.0410   73.0241  227.2187 H   0  0  0  0  0  0  0  0  0  0  0  0
  141.4239   71.8561  229.3172 H   0  0  0  0  0  0  0  0  0  0  0  0
  139.9417   69.8561  229.2321 H   0  0  0  0  0  0  0  0  0  0  0  0
  139.1104   69.0697  227.0543 H   0  0  0  0  0  0  0  0  0  0  0  0
  132.0575   70.6553  227.4590 H   0  0  0  0  0  0  0  0  0  0  0  0
  131.0173   72.7945  228.1456 H   0  0  0  0  0  0  0  0  0  0  0  0
  131.1388   75.2880  228.0937 H   0  0  0  0  0  0  0  0  0  0  0  0
  134.3915   77.2229  226.0324 H   0  0  0  0  0  0  0  0  0  0  0  0
  135.2883   74.9690  225.4349 H   0  0  0  0  0  0  0  0  0  0  0  0
  1  2  2  0
  2  3  1  0
  3  4  1  0
  4  5  1  0
  5  6  2  0
  5  7  1  0
  7  8  1  0
  8  9  1  0
  9 10  1  0
 10 11  1  0
 11 12  1  0
 12 13  1  0
 13 14  1  0
 14 15  2  0
 15 16  1  0
 16 17  2  0
 17 18  1  0
 18 19  2  0
  2 20  1  0
 20 21  2  0
 21 22  1  0
 22 23  2  0
 23 24  1  0
 24 25  2  0
 25 26  1  0
 26 27  1  0
 26 28  1  0
 26 29  1  0
 25 30  1  0
 30 31  2  0
 31 32  1  0
 32 33  2  0
 12  7  1  0
 19 14  1  0
 33 20  1  0
 32 23  1  0
  3 34  1  0
  4 35  1  0
  4 36  1  0
  8 37  1  0
  8 38  1  0
  9 39  1  0
  9 40  1  0
 10 41  1  0
 10 42  1  0
 11 43  1  0
 11 44  1  0
 12 45  1  1
 13 46  1  0
 13 47  1  0
 15 48  1  0
 16 49  1  0
 17 50  1  0
 18 51  1  0
 19 52  1  0
 21 53  1  0
 22 54  1  0
 24 55  1  0
 30 56  1  0
 31 57  1  0
M  END
>  <smiles>  (22) 
O=C(NCC(=O)N1CCCCC1Cc1ccccc1)c1ccc2cc(C(F)(F)F)ccc2n1

>  <score_type>  (22) 
oracle

>  <origin>  (22) 
autodockgpu

>  <m_score__min__energy>  (22) 
-8.6199999999999992

>  <m_primary>  (22) 
energy

>  <rmsd>  (22) 
7.781574250294361

>  <m_score__min__rmsd>  (22) 
7.781574250294361

>  <meeko>  (22) 
{"free_energy": -8.2, "intermolecular_energy": -10.29, "internal_energy": -2.05, "cluster_size": 13, "cluster_id": 3, "rank_in_cluster": 6}

>  <energy>  (22) 
-8.43

>  <cluster_rmsd>  (22) 
1.96

>  <cluster>  (22) 
2

$$$$

     RDKit          3D

 57 60  0  0  0  0  0  0  0  0999 V2000
  138.4400   72.6670  220.6750 O   0  0  0  0  0  0  0  0  0  0  0  0
  139.4570   72.7080  221.4400 C   0  0  0  0  0  0  0  0  0  0  0  0
  140.5490   73.5800  221.1740 N   0  0  0  0  0  0  0  0  0  0  0  0
  140.5590   74.4510  220.0320 C   0  0  0  0  0  0  0  0  0  0  0  0
  141.5380   75.5410  220.2590 C   0  0  0  0  0  0  0  0  0  0  0  0
  142.5650   75.2630  220.9210 O   0  0  0  0  0  0  0  0  0  0  0  0
  141.2660   76.8290  219.7200 N   0  0  0  0  0  0  0  0  0  0  0  0
  141.2790   77.0500  218.2650 C   0  0  0  0  0  0  0  0  0  0  0  0
  142.3340   78.1180  218.0180 C   0  0  0  0  0  0  0  0  0  0  0  0
  141.8460   79.3910  218.6640 C   0  0  0  0  0  0  0  0  0  0  0  0
  141.8270   79.1730  220.1610 C   0  0  0  0  0  0  0  0  0  0  0  0
  140.9630   77.9880  220.5290 C   0  0  2  0  0  0  0  0  0  0  0  0
  141.0410   77.7290  222.0020 C   0  0  0  0  0  0  0  0  0  0  0  0
  141.4090   79.0290  222.6620 C   0  0  0  0  0  0  0  0  0  0  0  0
  142.6930   79.3030  223.0760 C   0  0  0  0  0  0  0  0  0  0  0  0
  143.0130   80.5180  223.6870 C   0  0  0  0  0  0  0  0  0  0  0  0
  142.0320   81.4670  223.8830 C   0  0  0  0  0  0  0  0  0  0  0  0
  140.7390   81.2170  223.4780 C   0  0  0  0  0  0  0  0  0  0  0  0
  140.4600   80.0090  222.8790 C   0  0  0  0  0  0  0  0  0  0  0  0
  139.5300   71.8530  222.6250 C   0  0  0  0  0  0  0  0  0  0  0  0
  138.8670   70.6460  222.6790 C   0  0  0  0  0  0  0  0  0  0  0  0
  138.9120   69.8100  223.7790 C   0  0  0  0  0  0  0  0  0  0  0  0
  139.6560   70.2160  224.8660 C   0  0  0  0  0  0  0  0  0  0  0  0
  139.7790   69.4720  226.0220 C   0  0  0  0  0  0  0  0  0  0  0  0
  140.5360   69.9150  227.0910 C   0  0  0  0  0  0  0  0  0  0  0  0
  140.6820   69.1270  228.3500 C   0  0  0  0  0  0  0  0  0  0  0  0
  139.5170   69.2650  229.0840 F   0  0  0  0  0  0  0  0  0  0  0  0
  141.7880   69.5320  229.0690 F   0  0  0  0  0  0  0  0  0  0  0  0
  140.7780   67.7810  228.0260 F   0  0  0  0  0  0  0  0  0  0  0  0
  141.2000   71.1320  227.0280 C   0  0  0  0  0  0  0  0  0  0  0  0
  141.0760   71.8790  225.8650 C   0  0  0  0  0  0  0  0  0  0  0  0
  140.3140   71.4220  224.8050 C   0  0  0  0  0  0  0  0  0  0  0  0
  140.2510   72.2090  223.7220 N   0  0  0  0  0  0  0  0  0  0  0  0
  141.3750   73.5750  221.8450 H   0  0  0  0  0  0  0  0  0  0  0  0
  140.8451   73.8801  219.1363 H   0  0  0  0  0  0  0  0  0  0  0  0
  139.5565   74.8792  219.8850 H   0  0  0  0  0  0  0  0  0  0  0  0
  141.5437   76.1210  217.7387 H   0  0  0  0  0  0  0  0  0  0  0  0
  140.2917   77.3623  217.8938 H   0  0  0  0  0  0  0  0  0  0  0  0
  143.2910   77.8119  218.4657 H   0  0  0  0  0  0  0  0  0  0  0  0
  142.4928   78.2655  216.9396 H   0  0  0  0  0  0  0  0  0  0  0  0
  142.5243   80.2205  218.4154 H   0  0  0  0  0  0  0  0  0  0  0  0
  140.8394   79.6447  218.3002 H   0  0  0  0  0  0  0  0  0  0  0  0
  142.8540   78.9907  220.5103 H   0  0  0  0  0  0  0  0  0  0  0  0
  141.4090   80.0712  220.6390 H   0  0  0  0  0  0  0  0  0  0  0  0
  139.9139   78.2285  220.3017 H   0  0  0  0  0  0  0  0  0  0  0  0
  140.0673   77.3789  222.3754 H   0  0  0  0  0  0  0  0  0  0  0  0
  141.7883   76.9528  222.2234 H   0  0  0  0  0  0  0  0  0  0  0  0
  143.4815   78.5515  222.9229 H   0  0  0  0  0  0  0  0  0  0  0  0
  144.0452   80.7171  224.0110 H   0  0  0  0  0  0  0  0  0  0  0  0
  142.2820   82.4246  224.3632 H   0  0  0  0  0  0  0  0  0  0  0  0
  139.9474   81.9656  223.6298 H   0  0  0  0  0  0  0  0  0  0  0  0
  139.4267   79.8140  222.5562 H   0  0  0  0  0  0  0  0  0  0  0  0
  138.2746   70.3334  221.8064 H   0  0  0  0  0  0  0  0  0  0  0  0
  138.3716   68.8519  223.7866 H   0  0  0  0  0  0  0  0  0  0  0  0
  139.2625   68.5035  226.0946 H   0  0  0  0  0  0  0  0  0  0  0  0
  141.8051   71.4929  227.8727 H   0  0  0  0  0  0  0  0  0  0  0  0
  141.5908   72.8478  225.7851 H   0  0  0  0  0  0  0  0  0  0  0  0
  1  2  2  0
  2  3  1  0
  3  4  1  0
  4  5  1  0
  5  6  2  0
  5  7  1  0
  7  8  1  0
  8  9  1  0
  9 10  1  0
 10 11  1  0
 11 12  1  0
 12 13  1  0
 13 14  1  0
 14 15  2  0
 15 16  1  0
 16 17  2  0
 17 18  1  0
 18 19  2  0
  2 20  1  0
 20 21  2  0
 21 22  1  0
 22 23  2  0
 23 24  1  0
 24 25  2  0
 25 26  1  0
 26 27  1  0
 26 28  1  0
 26 29  1  0
 25 30  1  0
 30 31  2  0
 31 32  1  0
 32 33  2  0
 12  7  1  0
 19 14  1  0
 33 20  1  0
 32 23  1  0
  3 34  1  0
  4 35  1  0
  4 36  1  0
  8 37  1  0
  8 38  1  0
  9 39  1  0
  9 40  1  0
 10 41  1  0
 10 42  1  0
 11 43  1  0
 11 44  1  0
 12 45  1  1
 13 46  1  0
 13 47  1  0
 15 48  1  0
 16 49  1  0
 17 50  1  0
 18 51  1  0
 19 52  1  0
 21 53  1  0
 22 54  1  0
 24 55  1  0
 30 56  1  0
 31 57  1  0
M  END
>  <smiles>  (23) 
O=C(NCC(=O)N1CCCCC1Cc1ccccc1)c1ccc2cc(C(F)(F)F)ccc2n1

>  <score_type>  (23) 
oracle

>  <origin>  (23) 
autodockgpu

>  <m_score__min__energy>  (23) 
-8.6199999999999992

>  <m_primary>  (23) 
energy

>  <rmsd>  (23) 
2.442478563446296

>  <m_score__min__rmsd>  (23) 
2.442478563446296

>  <meeko>  (23) 
{"free_energy": -8.03, "intermolecular_energy": -10.12, "internal_energy": -2.1, "cluster_size": 16, "cluster_id": 1, "rank_in_cluster": 11}

>  <energy>  (23) 
-8.41

>  <cluster_rmsd>  (23) 
1.95

>  <cluster>  (23) 
2

$$$$

     RDKit          3D

 57 60  0  0  0  0  0  0  0  0999 V2000
  133.9540   69.8050  226.4500 O   0  0  0  0  0  0  0  0  0  0  0  0
  134.1500   70.9670  225.9710 C   0  0  0  0  0  0  0  0  0  0  0  0
  135.0880   71.1880  224.9240 N   0  0  0  0  0  0  0  0  0  0  0  0
  135.8580   70.1140  224.3610 C   0  0  0  0  0  0  0  0  0  0  0  0
  137.0210   70.6770  223.6340 C   0  0  0  0  0  0  0  0  0  0  0  0
  137.0690   71.9220  223.5030 O   0  0  0  0  0  0  0  0  0  0  0  0
  138.0090   69.7870  223.1310 N   0  0  0  0  0  0  0  0  0  0  0  0
  138.2550   69.6800  221.6840 C   0  0  0  0  0  0  0  0  0  0  0  0
  137.9970   68.2240  221.3260 C   0  0  0  0  0  0  0  0  0  0  0  0
  139.0460   67.3960  222.0240 C   0  0  0  0  0  0  0  0  0  0  0  0
  138.8030   67.5000  223.5130 C   0  0  0  0  0  0  0  0  0  0  0  0
  138.8280   68.9410  223.9700 C   0  0  2  0  0  0  0  0  0  0  0  0
  138.4830   69.0280  225.4260 C   0  0  0  0  0  0  0  0  0  0  0  0
  139.4650   69.9760  226.0580 C   0  0  0  0  0  0  0  0  0  0  0  0
  140.0790   70.9790  225.3420 C   0  0  0  0  0  0  0  0  0  0  0  0
  140.9880   71.8490  225.9490 C   0  0  0  0  0  0  0  0  0  0  0  0
  141.2820   71.7100  227.2890 C   0  0  0  0  0  0  0  0  0  0  0  0
  140.6800   70.7140  228.0270 C   0  0  0  0  0  0  0  0  0  0  0  0
  139.7900   69.8750  227.3960 C   0  0  0  0  0  0  0  0  0  0  0  0
  133.4080   72.1180  226.4870 C   0  0  0  0  0  0  0  0  0  0  0  0
  132.2120   71.9600  227.1510 C   0  0  0  0  0  0  0  0  0  0  0  0
  131.4820   73.0210  227.6540 C   0  0  0  0  0  0  0  0  0  0  0  0
  131.9860   74.2910  227.4730 C   0  0  0  0  0  0  0  0  0  0  0  0
  131.3530   75.4300  227.9270 C   0  0  0  0  0  0  0  0  0  0  0  0
  131.8930   76.6880  227.7260 C   0  0  0  0  0  0  0  0  0  0  0  0
  131.2250   77.9320  228.2080 C   0  0  0  0  0  0  0  0  0  0  0  0
  130.4690   78.4470  227.1690 F   0  0  0  0  0  0  0  0  0  0  0  0
  132.1470   78.8490  228.6700 F   0  0  0  0  0  0  0  0  0  0  0  0
  130.3260   77.5970  229.2110 F   0  0  0  0  0  0  0  0  0  0  0  0
  133.0980   76.8380  227.0550 C   0  0  0  0  0  0  0  0  0  0  0  0
  133.7340   75.6920  226.5990 C   0  0  0  0  0  0  0  0  0  0  0  0
  133.1810   74.4420  226.8090 C   0  0  0  0  0  0  0  0  0  0  0  0
  133.8640   73.3910  226.3340 N   0  0  0  0  0  0  0  0  0  0  0  0
  135.2130   72.1790  224.5590 H   0  0  0  0  0  0  0  0  0  0  0  0
  136.2121   69.4536  225.1663 H   0  0  0  0  0  0  0  0  0  0  0  0
  135.2321   69.5355  223.6655 H   0  0  0  0  0  0  0  0  0  0  0  0
  137.5699   70.3380  221.1293 H   0  0  0  0  0  0  0  0  0  0  0  0
  139.2792   69.9854  221.4239 H   0  0  0  0  0  0  0  0  0  0  0  0
  136.9944   67.9251  221.6659 H   0  0  0  0  0  0  0  0  0  0  0  0
  138.0468   68.0768  220.2370 H   0  0  0  0  0  0  0  0  0  0  0  0
  138.9676   66.3463  221.7046 H   0  0  0  0  0  0  0  0  0  0  0  0
  140.0529   67.7610  221.7730 H   0  0  0  0  0  0  0  0  0  0  0  0
  137.8199   67.0659  223.7476 H   0  0  0  0  0  0  0  0  0  0  0  0
  139.6019   66.9540  224.0360 H   0  0  0  0  0  0  0  0  0  0  0  0
  139.8506   69.3307  223.8583 H   0  0  0  0  0  0  0  0  0  0  0  0
  137.4584   69.4090  225.5488 H   0  0  0  0  0  0  0  0  0  0  0  0
  138.5352   68.0369  225.9003 H   0  0  0  0  0  0  0  0  0  0  0  0
  139.8497   71.0974  224.2727 H   0  0  0  0  0  0  0  0  0  0  0  0
  141.4684   72.6435  225.3590 H   0  0  0  0  0  0  0  0  0  0  0  0
  141.9972   72.3942  227.7690 H   0  0  0  0  0  0  0  0  0  0  0  0
  140.9058   70.5922  229.0967 H   0  0  0  0  0  0  0  0  0  0  0  0
  139.3121   69.0816  227.9894 H   0  0  0  0  0  0  0  0  0  0  0  0
  131.8189   70.9418  227.2877 H   0  0  0  0  0  0  0  0  0  0  0  0
  130.5306   72.8570  228.1811 H   0  0  0  0  0  0  0  0  0  0  0  0
  130.3962   75.3356  228.4615 H   0  0  0  0  0  0  0  0  0  0  0  0
  133.5354   77.8337  226.8897 H   0  0  0  0  0  0  0  0  0  0  0  0
  134.6908   75.7791  226.0633 H   0  0  0  0  0  0  0  0  0  0  0  0
  1  2  2  0
  2  3  1  0
  3  4  1  0
  4  5  1  0
  5  6  2  0
  5  7  1  0
  7  8  1  0
  8  9  1  0
  9 10  1  0
 10 11  1  0
 11 12  1  0
 12 13  1  0
 13 14  1  0
 14 15  2  0
 15 16  1  0
 16 17  2  0
 17 18  1  0
 18 19  2  0
  2 20  1  0
 20 21  2  0
 21 22  1  0
 22 23  2  0
 23 24  1  0
 24 25  2  0
 25 26  1  0
 26 27  1  0
 26 28  1  0
 26 29  1  0
 25 30  1  0
 30 31  2  0
 31 32  1  0
 32 33  2  0
 12  7  1  0
 19 14  1  0
 33 20  1  0
 32 23  1  0
  3 34  1  0
  4 35  1  0
  4 36  1  0
  8 37  1  0
  8 38  1  0
  9 39  1  0
  9 40  1  0
 10 41  1  0
 10 42  1  0
 11 43  1  0
 11 44  1  0
 12 45  1  1
 13 46  1  0
 13 47  1  0
 15 48  1  0
 16 49  1  0
 17 50  1  0
 18 51  1  0
 19 52  1  0
 21 53  1  0
 22 54  1  0
 24 55  1  0
 30 56  1  0
 31 57  1  0
M  END
>  <smiles>  (24) 
O=C(NCC(=O)N1CCCCC1Cc1ccccc1)c1ccc2cc(C(F)(F)F)ccc2n1

>  <score_type>  (24) 
oracle

>  <origin>  (24) 
autodockgpu

>  <m_score__min__energy>  (24) 
-8.6199999999999992

>  <m_primary>  (24) 
energy

>  <rmsd>  (24) 
8.529199560968909

>  <m_score__min__rmsd>  (24) 
8.529199560968909

>  <meeko>  (24) 
{"free_energy": -7.96, "intermolecular_energy": -10.04, "internal_energy": -2.37, "cluster_size": 13, "cluster_id": 3, "rank_in_cluster": 9}

>  <energy>  (24) 
-8.41

>  <cluster_rmsd>  (24) 
1.95

>  <cluster>  (24) 
2

$$$$

     RDKit          3D

 57 60  0  0  0  0  0  0  0  0999 V2000
  136.6540   74.4260  221.4510 O   0  0  0  0  0  0  0  0  0  0  0  0
  137.8090   74.6030  221.9570 C   0  0  0  0  0  0  0  0  0  0  0  0
  138.6230   73.5040  222.3460 N   0  0  0  0  0  0  0  0  0  0  0  0
  138.1830   72.1450  222.1910 C   0  0  0  0  0  0  0  0  0  0  0  0
  139.3610   71.2460  222.2130 C   0  0  0  0  0  0  0  0  0  0  0  0
  140.4920   71.7810  222.2710 O   0  0  0  0  0  0  0  0  0  0  0  0
  139.1490   69.8400  222.1680 N   0  0  0  0  0  0  0  0  0  0  0  0
  139.4820   69.0700  220.9590 C   0  0  0  0  0  0  0  0  0  0  0  0
  138.1840   68.4100  220.5180 C   0  0  0  0  0  0  0  0  0  0  0  0
  137.7930   67.4230  221.5890 C   0  0  0  0  0  0  0  0  0  0  0  0
  137.4510   68.2050  222.8370 C   0  0  0  0  0  0  0  0  0  0  0  0
  138.6090   69.0760  223.2700 C   0  0  2  0  0  0  0  0  0  0  0  0
  138.2120   69.9170  224.4450 C   0  0  0  0  0  0  0  0  0  0  0  0
  139.2250   69.6710  225.5280 C   0  0  0  0  0  0  0  0  0  0  0  0
  140.0390   70.6710  226.0120 C   0  0  0  0  0  0  0  0  0  0  0  0
  140.9740   70.4200  227.0190 C   0  0  0  0  0  0  0  0  0  0  0  0
  141.0920   69.1510  227.5460 C   0  0  0  0  0  0  0  0  0  0  0  0
  140.2900   68.1320  227.0790 C   0  0  0  0  0  0  0  0  0  0  0  0
  139.3790   68.4160  226.0860 C   0  0  0  0  0  0  0  0  0  0  0  0
  138.3350   75.9550  222.1510 C   0  0  0  0  0  0  0  0  0  0  0  0
  137.5410   77.0650  221.9660 C   0  0  0  0  0  0  0  0  0  0  0  0
  138.0010   78.3580  222.1400 C   0  0  0  0  0  0  0  0  0  0  0  0
  139.3160   78.5280  222.5160 C   0  0  0  0  0  0  0  0  0  0  0  0
  139.8920   79.7650  222.7210 C   0  0  0  0  0  0  0  0  0  0  0  0
  141.2170   79.8940  223.0990 C   0  0  0  0  0  0  0  0  0  0  0  0
  141.8590   81.2210  223.3260 C   0  0  0  0  0  0  0  0  0  0  0  0
  141.4500   81.6930  224.5610 F   0  0  0  0  0  0  0  0  0  0  0  0
  141.5490   82.1060  222.3140 F   0  0  0  0  0  0  0  0  0  0  0  0
  143.2330   81.0430  223.4140 F   0  0  0  0  0  0  0  0  0  0  0  0
  142.0080   78.7690  223.2830 C   0  0  0  0  0  0  0  0  0  0  0  0
  141.4280   77.5250  223.0760 C   0  0  0  0  0  0  0  0  0  0  0  0
  140.1020   77.4150  222.6990 C   0  0  0  0  0  0  0  0  0  0  0  0
  139.6250   76.1750  222.5220 N   0  0  0  0  0  0  0  0  0  0  0  0
  139.5800   73.7080  222.7640 H   0  0  0  0  0  0  0  0  0  0  0  0
  137.5039   71.8818  223.0154 H   0  0  0  0  0  0  0  0  0  0  0  0
  137.6521   72.0353  221.2338 H   0  0  0  0  0  0  0  0  0  0  0  0
  139.8591   69.7383  220.1709 H   0  0  0  0  0  0  0  0  0  0  0  0
  140.2681   68.3262  221.1562 H   0  0  0  0  0  0  0  0  0  0  0  0
  137.3969   69.1695  220.4012 H   0  0  0  0  0  0  0  0  0  0  0  0
  138.3157   67.9020  219.5513 H   0  0  0  0  0  0  0  0  0  0  0  0
  136.9189   66.8416  221.2607 H   0  0  0  0  0  0  0  0  0  0  0  0
  138.6196   66.7250  221.7879 H   0  0  0  0  0  0  0  0  0  0  0  0
  136.5785   68.8431  222.6330 H   0  0  0  0  0  0  0  0  0  0  0  0
  137.2293   67.4925  223.6452 H   0  0  0  0  0  0  0  0  0  0  0  0
  139.4350   68.4301  223.6025 H   0  0  0  0  0  0  0  0  0  0  0  0
  138.2107   70.9806  224.1643 H   0  0  0  0  0  0  0  0  0  0  0  0
  137.2003   69.6559  224.7890 H   0  0  0  0  0  0  0  0  0  0  0  0
  139.9512   71.6863  225.5978 H   0  0  0  0  0  0  0  0  0  0  0  0
  141.6149   71.2329  227.3909 H   0  0  0  0  0  0  0  0  0  0  0  0
  141.8269   68.9519  228.3399 H   0  0  0  0  0  0  0  0  0  0  0  0
  140.3756   67.1153  227.4900 H   0  0  0  0  0  0  0  0  0  0  0  0
  138.7397   67.6003  225.7172 H   0  0  0  0  0  0  0  0  0  0  0  0
  136.4931   76.9166  221.6662 H   0  0  0  0  0  0  0  0  0  0  0  0
  137.3388   79.2223  221.9834 H   0  0  0  0  0  0  0  0  0  0  0  0
  139.2833   80.6704  222.5806 H   0  0  0  0  0  0  0  0  0  0  0  0
  143.0622   78.8601  223.5836 H   0  0  0  0  0  0  0  0  0  0  0  0
  142.0307   76.6152  223.2136 H   0  0  0  0  0  0  0  0  0  0  0  0
  1  2  2  0
  2  3  1  0
  3  4  1  0
  4  5  1  0
  5  6  2  0
  5  7  1  0
  7  8  1  0
  8  9  1  0
  9 10  1  0
 10 11  1  0
 11 12  1  0
 12 13  1  0
 13 14  1  0
 14 15  2  0
 15 16  1  0
 16 17  2  0
 17 18  1  0
 18 19  2  0
  2 20  1  0
 20 21  2  0
 21 22  1  0
 22 23  2  0
 23 24  1  0
 24 25  2  0
 25 26  1  0
 26 27  1  0
 26 28  1  0
 26 29  1  0
 25 30  1  0
 30 31  2  0
 31 32  1  0
 32 33  2  0
 12  7  1  0
 19 14  1  0
 33 20  1  0
 32 23  1  0
  3 34  1  0
  4 35  1  0
  4 36  1  0
  8 37  1  0
  8 38  1  0
  9 39  1  0
  9 40  1  0
 10 41  1  0
 10 42  1  0
 11 43  1  0
 11 44  1  0
 12 45  1  1
 13 46  1  0
 13 47  1  0
 15 48  1  0
 16 49  1  0
 17 50  1  0
 18 51  1  0
 19 52  1  0
 21 53  1  0
 22 54  1  0
 24 55  1  0
 30 56  1  0
 31 57  1  0
M  END
>  <smiles>  (25) 
O=C(NCC(=O)N1CCCCC1Cc1ccccc1)c1ccc2cc(C(F)(F)F)ccc2n1

>  <score_type>  (25) 
oracle

>  <origin>  (25) 
autodockgpu

>  <m_score__min__energy>  (25) 
-8.6199999999999992

>  <m_primary>  (25) 
energy

>  <rmsd>  (25) 
7.95705979206889

>  <m_score__min__rmsd>  (25) 
7.95705979206889

>  <meeko>  (25) 
{"free_energy": -7.15, "intermolecular_energy": -9.23, "internal_energy": -2.4, "cluster_size": 4, "cluster_id": 5, "rank_in_cluster": 4}

>  <energy>  (25) 
-8.39

>  <cluster_rmsd>  (25) 
1.86

>  <cluster>  (25) 
2

$$$$

     RDKit          3D

 57 60  0  0  0  0  0  0  0  0999 V2000
  139.8290   73.0620  220.3050 O   0  0  0  0  0  0  0  0  0  0  0  0
  139.7050   73.3000  221.5490 C   0  0  0  0  0  0  0  0  0  0  0  0
  139.6250   74.6320  222.0430 N   0  0  0  0  0  0  0  0  0  0  0  0
  139.6830   75.7680  221.1660 C   0  0  0  0  0  0  0  0  0  0  0  0
  140.7770   76.6670  221.6040 C   0  0  0  0  0  0  0  0  0  0  0  0
  140.8870   76.8830  222.8330 O   0  0  0  0  0  0  0  0  0  0  0  0
  141.6350   77.2300  220.6190 N   0  0  0  0  0  0  0  0  0  0  0  0
  141.8480   78.6840  220.5540 C   0  0  0  0  0  0  0  0  0  0  0  0
  141.3980   79.1080  219.1640 C   0  0  0  0  0  0  0  0  0  0  0  0
  142.3390   78.4690  218.1720 C   0  0  0  0  0  0  0  0  0  0  0  0
  142.1290   76.9720  218.2330 C   0  0  0  0  0  0  0  0  0  0  0  0
  142.3460   76.4470  219.6340 C   0  0  2  0  0  0  0  0  0  0  0  0
  142.0320   74.9830  219.6910 C   0  0  0  0  0  0  0  0  0  0  0  0
  143.2770   74.2810  220.1590 C   0  0  0  0  0  0  0  0  0  0  0  0
  143.3040   72.9280  220.4120 C   0  0  0  0  0  0  0  0  0  0  0  0
  144.4720   72.2960  220.8460 C   0  0  0  0  0  0  0  0  0  0  0  0
  145.6240   73.0320  221.0280 C   0  0  0  0  0  0  0  0  0  0  0  0
  145.6230   74.3880  220.7820 C   0  0  0  0  0  0  0  0  0  0  0  0
  144.4540   74.9770  220.3550 C   0  0  0  0  0  0  0  0  0  0  0  0
  139.6380   72.2010  222.5130 C   0  0  0  0  0  0  0  0  0  0  0  0
  138.9130   71.0600  222.2490 C   0  0  0  0  0  0  0  0  0  0  0  0
  138.8270   70.0010  223.1330 C   0  0  0  0  0  0  0  0  0  0  0  0
  139.5010   70.1050  224.3300 C   0  0  0  0  0  0  0  0  0  0  0  0
  139.4920   69.1170  225.2940 C   0  0  0  0  0  0  0  0  0  0  0  0
  140.1830   69.2600  226.4840 C   0  0  0  0  0  0  0  0  0  0  0  0
  140.1860   68.2060  227.5390 C   0  0  0  0  0  0  0  0  0  0  0  0
  139.7030   68.7640  228.7100 F   0  0  0  0  0  0  0  0  0  0  0  0
  141.4490   67.6750  227.7120 F   0  0  0  0  0  0  0  0  0  0  0  0
  139.2840   67.2130  227.1830 F   0  0  0  0  0  0  0  0  0  0  0  0
  140.9100   70.4140  226.7420 C   0  0  0  0  0  0  0  0  0  0  0  0
  140.9180   71.4060  225.7720 C   0  0  0  0  0  0  0  0  0  0  0  0
  140.2220   71.2470  224.5870 C   0  0  0  0  0  0  0  0  0  0  0  0
  140.2860   72.2570  223.7080 N   0  0  0  0  0  0  0  0  0  0  0  0
  139.5210   74.7760  223.0920 H   0  0  0  0  0  0  0  0  0  0  0  0
  139.8750   75.4291  220.1373 H   0  0  0  0  0  0  0  0  0  0  0  0
  138.7255   76.3086  221.1979 H   0  0  0  0  0  0  0  0  0  0  0  0
  141.2484   79.1936  221.3226 H   0  0  0  0  0  0  0  0  0  0  0  0
  142.9004   78.9472  220.7363 H   0  0  0  0  0  0  0  0  0  0  0  0
  140.3689   78.7654  218.9809 H   0  0  0  0  0  0  0  0  0  0  0  0
  141.4156   80.2036  219.0668 H   0  0  0  0  0  0  0  0  0  0  0  0
  142.1203   78.8365  217.1585 H   0  0  0  0  0  0  0  0  0  0  0  0
  143.3819   78.7208  218.4148 H   0  0  0  0  0  0  0  0  0  0  0  0
  141.1007   76.7407  217.9182 H   0  0  0  0  0  0  0  0  0  0  0  0
  142.8568   76.4902  217.5635 H   0  0  0  0  0  0  0  0  0  0  0  0
  143.4089   76.5577  219.8946 H   0  0  0  0  0  0  0  0  0  0  0  0
  141.2083   74.8011  220.3970 H   0  0  0  0  0  0  0  0  0  0  0  0
  141.7206   74.6109  218.7038 H   0  0  0  0  0  0  0  0  0  0  0  0
  142.3893   72.3337  220.2699 H   0  0  0  0  0  0  0  0  0  0  0  0
  144.4727   71.2136  221.0421 H   0  0  0  0  0  0  0  0  0  0  0  0
  146.5445   72.5362  221.3699 H   0  0  0  0  0  0  0  0  0  0  0  0
  146.5353   74.9861  220.9235 H   0  0  0  0  0  0  0  0  0  0  0  0
  144.4575   76.0595  220.1595 H   0  0  0  0  0  0  0  0  0  0  0  0
  138.3779   70.9883  221.2906 H   0  0  0  0  0  0  0  0  0  0  0  0
  138.2392   69.1039  222.8886 H   0  0  0  0  0  0  0  0  0  0  0  0
  138.9219   68.1941  225.1117 H   0  0  0  0  0  0  0  0  0  0  0  0
  141.4621   70.5380  227.6853 H   0  0  0  0  0  0  0  0  0  0  0  0
  141.4856   72.3317  225.9476 H   0  0  0  0  0  0  0  0  0  0  0  0
  1  2  2  0
  2  3  1  0
  3  4  1  0
  4  5  1  0
  5  6  2  0
  5  7  1  0
  7  8  1  0
  8  9  1  0
  9 10  1  0
 10 11  1  0
 11 12  1  0
 12 13  1  0
 13 14  1  0
 14 15  2  0
 15 16  1  0
 16 17  2  0
 17 18  1  0
 18 19  2  0
  2 20  1  0
 20 21  2  0
 21 22  1  0
 22 23  2  0
 23 24  1  0
 24 25  2  0
 25 26  1  0
 26 27  1  0
 26 28  1  0
 26 29  1  0
 25 30  1  0
 30 31  2  0
 31 32  1  0
 32 33  2  0
 12  7  1  0
 19 14  1  0
 33 20  1  0
 32 23  1  0
  3 34  1  0
  4 35  1  0
  4 36  1  0
  8 37  1  0
  8 38  1  0
  9 39  1  0
  9 40  1  0
 10 41  1  0
 10 42  1  0
 11 43  1  0
 11 44  1  0
 12 45  1  1
 13 46  1  0
 13 47  1  0
 15 48  1  0
 16 49  1  0
 17 50  1  0
 18 51  1  0
 19 52  1  0
 21 53  1  0
 22 54  1  0
 24 55  1  0
 30 56  1  0
 31 57  1  0
M  END
>  <smiles>  (26) 
O=C(NCC(=O)N1CCCCC1Cc1ccccc1)c1ccc2cc(C(F)(F)F)ccc2n1

>  <score_type>  (26) 
oracle

>  <origin>  (26) 
autodockgpu

>  <m_score__min__energy>  (26) 
-8.6199999999999992

>  <m_primary>  (26) 
energy

>  <rmsd>  (26) 
2.7667618609331512

>  <m_score__min__rmsd>  (26) 
2.7667618609331512

>  <meeko>  (26) 
{"free_energy": -8.31, "intermolecular_energy": -10.4, "internal_energy": -2.17, "cluster_size": 13, "cluster_id": 2, "rank_in_cluster": 10}

>  <energy>  (26) 
-8.31

>  <cluster_rmsd>  (26) 
1.71

>  <cluster>  (26) 
2

$$$$

     RDKit          3D

 57 60  0  0  0  0  0  0  0  0999 V2000
  139.7810   72.2310  220.3990 O   0  0  0  0  0  0  0  0  0  0  0  0
  139.6270   72.6560  221.5890 C   0  0  0  0  0  0  0  0  0  0  0  0
  139.3550   74.0270  221.8560 N   0  0  0  0  0  0  0  0  0  0  0  0
  139.2440   74.9950  220.8010 C   0  0  0  0  0  0  0  0  0  0  0  0
  139.9260   76.2450  221.2110 C   0  0  0  0  0  0  0  0  0  0  0  0
  140.0850   76.4370  222.4390 O   0  0  0  0  0  0  0  0  0  0  0  0
  140.3600   77.1500  220.2030 N   0  0  0  0  0  0  0  0  0  0  0  0
  141.0580   76.6580  219.0050 C   0  0  0  0  0  0  0  0  0  0  0  0
  142.4120   77.3530  218.9990 C   0  0  0  0  0  0  0  0  0  0  0  0
  142.1600   78.8270  218.8020 C   0  0  0  0  0  0  0  0  0  0  0  0
  141.4410   79.3430  220.0290 C   0  0  0  0  0  0  0  0  0  0  0  0
  140.1570   78.5800  220.2690 C   0  0  2  0  0  0  0  0  0  0  0  0
  139.5150   79.0370  221.5440 C   0  0  0  0  0  0  0  0  0  0  0  0
  140.5880   79.6880  222.3720 C   0  0  0  0  0  0  0  0  0  0  0  0
  140.7150   81.0560  222.4630 C   0  0  0  0  0  0  0  0  0  0  0  0
  141.7190   81.6400  223.2380 C   0  0  0  0  0  0  0  0  0  0  0  0
  142.6050   80.8410  223.9290 C   0  0  0  0  0  0  0  0  0  0  0  0
  142.5000   79.4690  223.8550 C   0  0  0  0  0  0  0  0  0  0  0  0
  141.4980   78.9280  223.0810 C   0  0  0  0  0  0  0  0  0  0  0  0
  139.7250   71.7380  222.7250 C   0  0  0  0  0  0  0  0  0  0  0  0
  139.2220   70.4580  222.6550 C   0  0  0  0  0  0  0  0  0  0  0  0
  139.2950   69.5610  223.7050 C   0  0  0  0  0  0  0  0  0  0  0  0
  139.9010   69.9820  224.8690 C   0  0  0  0  0  0  0  0  0  0  0  0
  140.0360   69.1820  225.9860 C   0  0  0  0  0  0  0  0  0  0  0  0
  140.6530   69.6420  227.1360 C   0  0  0  0  0  0  0  0  0  0  0  0
  140.8090   68.7950  228.3540 C   0  0  0  0  0  0  0  0  0  0  0  0
  141.8270   69.3290  229.1240 F   0  0  0  0  0  0  0  0  0  0  0  0
  141.0610   67.4800  228.0200 F   0  0  0  0  0  0  0  0  0  0  0  0
  139.6540   68.8920  229.1180 F   0  0  0  0  0  0  0  0  0  0  0  0
  141.1560   70.9340  227.1970 C   0  0  0  0  0  0  0  0  0  0  0  0
  141.0200   71.7370  226.0730 C   0  0  0  0  0  0  0  0  0  0  0  0
  140.4010   71.2620  224.9310 C   0  0  0  0  0  0  0  0  0  0  0  0
  140.3140   72.1060  223.8940 N   0  0  0  0  0  0  0  0  0  0  0  0
  139.2350   74.3300  222.8690 H   0  0  0  0  0  0  0  0  0  0  0  0
  139.7162   74.6007  219.8891 H   0  0  0  0  0  0  0  0  0  0  0  0
  138.1825   75.2025  220.6008 H   0  0  0  0  0  0  0  0  0  0  0  0
  141.1877   75.5670  219.0583 H   0  0  0  0  0  0  0  0  0  0  0  0
  140.4889   76.8723  218.0884 H   0  0  0  0  0  0  0  0  0  0  0  0
  142.9260   77.1839  219.9567 H   0  0  0  0  0  0  0  0  0  0  0  0
  143.0492   76.9564  218.1948 H   0  0  0  0  0  0  0  0  0  0  0  0
  143.1162   79.3566  218.6786 H   0  0  0  0  0  0  0  0  0  0  0  0
  141.5509   78.9950  217.9016 H   0  0  0  0  0  0  0  0  0  0  0  0
  142.0966   79.2275  220.9047 H   0  0  0  0  0  0  0  0  0  0  0  0
  141.1930   80.4026  219.8688 H   0  0  0  0  0  0  0  0  0  0  0  0
  139.4515   78.8061  219.4559 H   0  0  0  0  0  0  0  0  0  0  0  0
  138.7160   79.7608  221.3256 H   0  0  0  0  0  0  0  0  0  0  0  0
  139.0666   78.1888  222.0820 H   0  0  0  0  0  0  0  0  0  0  0  0
  140.0124   81.7009  221.9149 H   0  0  0  0  0  0  0  0  0  0  0  0
  141.8029   82.7352  223.2971 H   0  0  0  0  0  0  0  0  0  0  0  0
  143.3966   81.2993  224.5401 H   0  0  0  0  0  0  0  0  0  0  0  0
  143.2007   78.8208  224.4018 H   0  0  0  0  0  0  0  0  0  0  0  0
  141.4178   77.8324  223.0242 H   0  0  0  0  0  0  0  0  0  0  0  0
  138.7399   70.1341  221.7208 H   0  0  0  0  0  0  0  0  0  0  0  0
  138.8830   68.5451  223.6142 H   0  0  0  0  0  0  0  0  0  0  0  0
  139.6438   68.1546  225.9612 H   0  0  0  0  0  0  0  0  0  0  0  0
  141.6468   71.3097  228.1070 H   0  0  0  0  0  0  0  0  0  0  0  0
  141.4099   72.7654  226.0907 H   0  0  0  0  0  0  0  0  0  0  0  0
  1  2  2  0
  2  3  1  0
  3  4  1  0
  4  5  1  0
  5  6  2  0
  5  7  1  0
  7  8  1  0
  8  9  1  0
  9 10  1  0
 10 11  1  0
 11 12  1  0
 12 13  1  0
 13 14  1  0
 14 15  2  0
 15 16  1  0
 16 17  2  0
 17 18  1  0
 18 19  2  0
  2 20  1  0
 20 21  2  0
 21 22  1  0
 22 23  2  0
 23 24  1  0
 24 25  2  0
 25 26  1  0
 26 27  1  0
 26 28  1  0
 26 29  1  0
 25 30  1  0
 30 31  2  0
 31 32  1  0
 32 33  2  0
 12  7  1  0
 19 14  1  0
 33 20  1  0
 32 23  1  0
  3 34  1  0
  4 35  1  0
  4 36  1  0
  8 37  1  0
  8 38  1  0
  9 39  1  0
  9 40  1  0
 10 41  1  0
 10 42  1  0
 11 43  1  0
 11 44  1  0
 12 45  1  6
 13 46  1  0
 13 47  1  0
 15 48  1  0
 16 49  1  0
 17 50  1  0
 18 51  1  0
 19 52  1  0
 21 53  1  0
 22 54  1  0
 24 55  1  0
 30 56  1  0
 31 57  1  0
M  END
>  <smiles>  (27) 
O=C(NCC(=O)N1CCCCC1Cc1ccccc1)c1ccc2cc(C(F)(F)F)ccc2n1

>  <score_type>  (27) 
oracle

>  <origin>  (27) 
autodockgpu

>  <m_score__min__energy>  (27) 
-8.6199999999999992

>  <m_primary>  (27) 
energy

>  <rmsd>  (27) 
2.2514990989827735

>  <m_score__min__rmsd>  (27) 
2.2514990989827735

>  <meeko>  (27) 
{"free_energy": -8.46, "intermolecular_energy": -10.55, "internal_energy": -2.03, "cluster_size": 16, "cluster_id": 1, "rank_in_cluster": 5}

>  <energy>  (27) 
-8.15

>  <cluster_rmsd>  (27) 
1.72

>  <cluster>  (27) 
2

$$$$

     RDKit          3D

 57 60  0  0  0  0  0  0  0  0999 V2000
  139.7240   73.2290  220.2330 O   0  0  0  0  0  0  0  0  0  0  0  0
  139.6330   73.4170  221.4890 C   0  0  0  0  0  0  0  0  0  0  0  0
  139.5850   74.7280  222.0390 N   0  0  0  0  0  0  0  0  0  0  0  0
  139.6390   75.8990  221.2090 C   0  0  0  0  0  0  0  0  0  0  0  0
  140.8390   76.6940  221.5620 C   0  0  0  0  0  0  0  0  0  0  0  0
  141.1060   76.8210  222.7790 O   0  0  0  0  0  0  0  0  0  0  0  0
  141.6160   77.2610  220.5150 N   0  0  0  0  0  0  0  0  0  0  0  0
  141.7960   78.7180  220.4210 C   0  0  0  0  0  0  0  0  0  0  0  0
  141.2430   79.1180  219.0610 C   0  0  0  0  0  0  0  0  0  0  0  0
  142.1250   78.4860  218.0130 C   0  0  0  0  0  0  0  0  0  0  0  0
  141.9480   76.9860  218.1030 C   0  0  0  0  0  0  0  0  0  0  0  0
  142.2720   76.4800  219.4900 C   0  0  2  0  0  0  0  0  0  0  0  0
  141.9910   75.0110  219.5840 C   0  0  0  0  0  0  0  0  0  0  0  0
  143.2440   74.3520  220.0880 C   0  0  0  0  0  0  0  0  0  0  0  0
  144.4160   75.0510  220.2760 C   0  0  0  0  0  0  0  0  0  0  0  0
  145.5690   74.4190  220.7460 C   0  0  0  0  0  0  0  0  0  0  0  0
  145.5440   73.0690  221.0300 C   0  0  0  0  0  0  0  0  0  0  0  0
  144.3850   72.3470  220.8510 C   0  0  0  0  0  0  0  0  0  0  0  0
  143.2670   73.0040  220.3860 C   0  0  0  0  0  0  0  0  0  0  0  0
  139.5740   72.2800  222.4090 C   0  0  0  0  0  0  0  0  0  0  0  0
  138.7990   71.1760  222.1320 C   0  0  0  0  0  0  0  0  0  0  0  0
  138.7170   70.0820  222.9740 C   0  0  0  0  0  0  0  0  0  0  0  0
  139.4500   70.1130  224.1410 C   0  0  0  0  0  0  0  0  0  0  0  0
  139.4520   69.0850  225.0620 C   0  0  0  0  0  0  0  0  0  0  0  0
  140.2010   69.1540  226.2230 C   0  0  0  0  0  0  0  0  0  0  0  0
  140.2180   68.0550  227.2320 C   0  0  0  0  0  0  0  0  0  0  0  0
  139.8250   68.5810  228.4500 F   0  0  0  0  0  0  0  0  0  0  0  0
  141.4640   67.4660  227.3100 F   0  0  0  0  0  0  0  0  0  0  0  0
  139.2560   67.1170  226.8870 F   0  0  0  0  0  0  0  0  0  0  0  0
  140.9790   70.2720  226.4930 C   0  0  0  0  0  0  0  0  0  0  0  0
  140.9750   71.3040  225.5660 C   0  0  0  0  0  0  0  0  0  0  0  0
  140.2210   71.2190  224.4110 C   0  0  0  0  0  0  0  0  0  0  0  0
  140.2780   72.2630  223.5720 N   0  0  0  0  0  0  0  0  0  0  0  0
  139.5090   74.8300  223.0960 H   0  0  0  0  0  0  0  0  0  0  0  0
  139.6951   75.5983  220.1524 H   0  0  0  0  0  0  0  0  0  0  0  0
  138.7351   76.5055  221.3677 H   0  0  0  0  0  0  0  0  0  0  0  0
  141.2411   79.2250  221.2242 H   0  0  0  0  0  0  0  0  0  0  0  0
  142.8532   79.0027  220.5275 H   0  0  0  0  0  0  0  0  0  0  0  0
  140.2105   78.7542  218.9529 H   0  0  0  0  0  0  0  0  0  0  0  0
  141.2327   80.2125  218.9520 H   0  0  0  0  0  0  0  0  0  0  0  0
  141.8300   78.8383  217.0136 H   0  0  0  0  0  0  0  0  0  0  0  0
  143.1772   78.7595  218.1805 H   0  0  0  0  0  0  0  0  0  0  0  0
  140.9048   76.7327  217.8632 H   0  0  0  0  0  0  0  0  0  0  0  0
  142.6364   76.5104  217.3889 H   0  0  0  0  0  0  0  0  0  0  0  0
  143.3484   76.6126  219.6737 H   0  0  0  0  0  0  0  0  0  0  0  0
  141.1618   74.8296  220.2837 H   0  0  0  0  0  0  0  0  0  0  0  0
  141.7024   74.6044  218.6035 H   0  0  0  0  0  0  0  0  0  0  0  0
  144.4441   76.1275  220.0516 H   0  0  0  0  0  0  0  0  0  0  0  0
  146.4946   74.9958  220.8894 H   0  0  0  0  0  0  0  0  0  0  0  0
  146.4511   72.5687  221.3999 H   0  0  0  0  0  0  0  0  0  0  0  0
  144.3527   71.2704  221.0742 H   0  0  0  0  0  0  0  0  0  0  0  0
  142.3433   72.4237  220.2446 H   0  0  0  0  0  0  0  0  0  0  0  0
  138.2183   71.1637  221.1979 H   0  0  0  0  0  0  0  0  0  0  0  0
  138.0878   69.2159  222.7209 H   0  0  0  0  0  0  0  0  0  0  0  0
  138.8434   68.1894  224.8682 H   0  0  0  0  0  0  0  0  0  0  0  0
  141.5793   70.3372  227.4125 H   0  0  0  0  0  0  0  0  0  0  0  0
  141.5808   72.2030  225.7530 H   0  0  0  0  0  0  0  0  0  0  0  0
  1  2  2  0
  2  3  1  0
  3  4  1  0
  4  5  1  0
  5  6  2  0
  5  7  1  0
  7  8  1  0
  8  9  1  0
  9 10  1  0
 10 11  1  0
 11 12  1  0
 12 13  1  0
 13 14  1  0
 14 15  2  0
 15 16  1  0
 16 17  2  0
 17 18  1  0
 18 19  2  0
  2 20  1  0
 20 21  2  0
 21 22  1  0
 22 23  2  0
 23 24  1  0
 24 25  2  0
 25 26  1  0
 26 27  1  0
 26 28  1  0
 26 29  1  0
 25 30  1  0
 30 31  2  0
 31 32  1  0
 32 33  2  0
 12  7  1  0
 19 14  1  0
 33 20  1  0
 32 23  1  0
  3 34  1  0
  4 35  1  0
  4 36  1  0
  8 37  1  0
  8 38  1  0
  9 39  1  0
  9 40  1  0
 10 41  1  0
 10 42  1  0
 11 43  1  0
 11 44  1  0
 12 45  1  1
 13 46  1  0
 13 47  1  0
 15 48  1  0
 16 49  1  0
 17 50  1  0
 18 51  1  0
 19 52  1  0
 21 53  1  0
 22 54  1  0
 24 55  1  0
 30 56  1  0
 31 57  1  0
M  END
>  <smiles>  (28) 
O=C(NCC(=O)N1CCCCC1Cc1ccccc1)c1ccc2cc(C(F)(F)F)ccc2n1

>  <score_type>  (28) 
oracle

>  <origin>  (28) 
autodockgpu

>  <m_score__min__energy>  (28) 
-8.6199999999999992

>  <m_primary>  (28) 
energy

>  <rmsd>  (28) 
2.8076830414824494

>  <m_score__min__rmsd>  (28) 
2.8076830414824494

>  <meeko>  (28) 
{"free_energy": -8.13, "intermolecular_energy": -10.22, "internal_energy": -2.28, "cluster_size": 13, "cluster_id": 2, "rank_in_cluster": 12}

>  <energy>  (28) 
-8.13

>  <cluster_rmsd>  (28) 
1.69

>  <cluster>  (28) 
2

$$$$

     RDKit          3D

 57 60  0  0  0  0  0  0  0  0999 V2000
  139.7670   72.4650  220.5220 O   0  0  0  0  0  0  0  0  0  0  0  0
  139.6480   72.8430  221.7310 C   0  0  0  0  0  0  0  0  0  0  0  0
  139.4110   74.2070  222.0600 N   0  0  0  0  0  0  0  0  0  0  0  0
  139.2950   75.2190  221.0480 C   0  0  0  0  0  0  0  0  0  0  0  0
  140.3660   76.2260  221.2400 C   0  0  0  0  0  0  0  0  0  0  0  0
  140.9690   76.2210  222.3380 O   0  0  0  0  0  0  0  0  0  0  0  0
  140.6500   77.1330  220.1820 N   0  0  0  0  0  0  0  0  0  0  0  0
  141.3740   76.6810  218.9830 C   0  0  0  0  0  0  0  0  0  0  0  0
  142.6250   77.5440  218.9030 C   0  0  0  0  0  0  0  0  0  0  0  0
  142.1780   78.9630  218.6540 C   0  0  0  0  0  0  0  0  0  0  0  0
  141.4310   79.4360  219.8810 C   0  0  0  0  0  0  0  0  0  0  0  0
  140.2650   78.5260  220.1950 C   0  0  2  0  0  0  0  0  0  0  0  0
  139.6040   78.9530  221.4700 C   0  0  0  0  0  0  0  0  0  0  0  0
  140.6570   79.6180  222.3130 C   0  0  0  0  0  0  0  0  0  0  0  0
  141.5810   78.8970  223.0350 C   0  0  0  0  0  0  0  0  0  0  0  0
  142.5510   79.5360  223.8120 C   0  0  0  0  0  0  0  0  0  0  0  0
  142.5910   80.9130  223.8640 C   0  0  0  0  0  0  0  0  0  0  0  0
  141.6780   81.6580  223.1510 C   0  0  0  0  0  0  0  0  0  0  0  0
  140.7360   80.9950  222.3960 C   0  0  0  0  0  0  0  0  0  0  0  0
  139.7530   71.8780  222.8260 C   0  0  0  0  0  0  0  0  0  0  0  0
  139.3200   70.5790  222.6780 C   0  0  0  0  0  0  0  0  0  0  0  0
  139.4020   69.6370  223.6870 C   0  0  0  0  0  0  0  0  0  0  0  0
  139.9440   70.0310  224.8910 C   0  0  0  0  0  0  0  0  0  0  0  0
  140.0800   69.1860  225.9740 C   0  0  0  0  0  0  0  0  0  0  0  0
  140.6300   69.6200  227.1670 C   0  0  0  0  0  0  0  0  0  0  0  0
  140.7870   68.7230  228.3490 C   0  0  0  0  0  0  0  0  0  0  0  0
  139.5940   68.7220  229.0520 F   0  0  0  0  0  0  0  0  0  0  0  0
  141.8440   69.1210  229.1430 F   0  0  0  0  0  0  0  0  0  0  0  0
  140.9740   67.4230  227.9030 F   0  0  0  0  0  0  0  0  0  0  0  0
  141.0640   70.9310  227.3070 C   0  0  0  0  0  0  0  0  0  0  0  0
  140.9260   71.7790  226.2180 C   0  0  0  0  0  0  0  0  0  0  0  0
  140.3740   71.3290  225.0320 C   0  0  0  0  0  0  0  0  0  0  0  0
  140.2800   72.2180  224.0330 N   0  0  0  0  0  0  0  0  0  0  0  0
  139.3190   74.4700  223.0870 H   0  0  0  0  0  0  0  0  0  0  0  0
  139.3968   74.7587  220.0541 H   0  0  0  0  0  0  0  0  0  0  0  0
  138.3118   75.7064  221.1240 H   0  0  0  0  0  0  0  0  0  0  0  0
  141.6465   75.6195  219.0777 H   0  0  0  0  0  0  0  0  0  0  0  0
  140.7571   76.7780  218.0774 H   0  0  0  0  0  0  0  0  0  0  0  0
  143.1831   77.4860  219.8491 H   0  0  0  0  0  0  0  0  0  0  0  0
  143.2855   77.1970  218.0947 H   0  0  0  0  0  0  0  0  0  0  0  0
  143.0534   79.6055  218.4784 H   0  0  0  0  0  0  0  0  0  0  0  0
  141.5286   79.0106  217.7674 H   0  0  0  0  0  0  0  0  0  0  0  0
  142.1196   79.4461  220.7387 H   0  0  0  0  0  0  0  0  0  0  0  0
  141.0420   80.4460  219.6845 H   0  0  0  0  0  0  0  0  0  0  0  0
  139.5144   78.6229  219.3967 H   0  0  0  0  0  0  0  0  0  0  0  0
  138.7905   79.6613  221.2544 H   0  0  0  0  0  0  0  0  0  0  0  0
  139.1706   78.0888  221.9947 H   0  0  0  0  0  0  0  0  0  0  0  0
  141.5554   77.7979  222.9997 H   0  0  0  0  0  0  0  0  0  0  0  0
  143.2810   78.9415  224.3809 H   0  0  0  0  0  0  0  0  0  0  0  0
  143.3533   81.4175  224.4759 H   0  0  0  0  0  0  0  0  0  0  0  0
  141.7006   82.7573  223.1838 H   0  0  0  0  0  0  0  0  0  0  0  0
  140.0078   81.5935  221.8289 H   0  0  0  0  0  0  0  0  0  0  0  0
  138.8889   70.2768  221.7122 H   0  0  0  0  0  0  0  0  0  0  0  0
  139.0464   68.6074  223.5336 H   0  0  0  0  0  0  0  0  0  0  0  0
  139.7430   68.1426  225.8864 H   0  0  0  0  0  0  0  0  0  0  0  0
  141.5032   71.2860  228.2510 H   0  0  0  0  0  0  0  0  0  0  0  0
  141.2602   72.8239  226.2986 H   0  0  0  0  0  0  0  0  0  0  0  0
  1  2  2  0
  2  3  1  0
  3  4  1  0
  4  5  1  0
  5  6  2  0
  5  7  1  0
  7  8  1  0
  8  9  1  0
  9 10  1  0
 10 11  1  0
 11 12  1  0
 12 13  1  0
 13 14  1  0
 14 15  2  0
 15 16  1  0
 16 17  2  0
 17 18  1  0
 18 19  2  0
  2 20  1  0
 20 21  2  0
 21 22  1  0
 22 23  2  0
 23 24  1  0
 24 25  2  0
 25 26  1  0
 26 27  1  0
 26 28  1  0
 26 29  1  0
 25 30  1  0
 30 31  2  0
 31 32  1  0
 32 33  2  0
 12  7  1  0
 19 14  1  0
 33 20  1  0
 32 23  1  0
  3 34  1  0
  4 35  1  0
  4 36  1  0
  8 37  1  0
  8 38  1  0
  9 39  1  0
  9 40  1  0
 10 41  1  0
 10 42  1  0
 11 43  1  0
 11 44  1  0
 12 45  1  6
 13 46  1  0
 13 47  1  0
 15 48  1  0
 16 49  1  0
 17 50  1  0
 18 51  1  0
 19 52  1  0
 21 53  1  0
 22 54  1  0
 24 55  1  0
 30 56  1  0
 31 57  1  0
M  END
>  <smiles>  (29) 
O=C(NCC(=O)N1CCCCC1Cc1ccccc1)c1ccc2cc(C(F)(F)F)ccc2n1

>  <score_type>  (29) 
oracle

>  <origin>  (29) 
autodockgpu

>  <m_score__min__energy>  (29) 
-8.6199999999999992

>  <m_primary>  (29) 
energy

>  <rmsd>  (29) 
2.302040937878155

>  <m_score__min__rmsd>  (29) 
2.302040937878155

>  <meeko>  (29) 
{"free_energy": -8.62, "intermolecular_energy": -10.71, "internal_energy": -1.95, "cluster_size": 16, "cluster_id": 1, "rank_in_cluster": 1}

>  <energy>  (29) 
-8.05

>  <cluster_rmsd>  (29) 
1.81

>  <cluster>  (29) 
2

$$$$

     RDKit          3D

 57 60  0  0  0  0  0  0  0  0999 V2000
  141.0900   71.6050  221.8670 O   0  0  0  0  0  0  0  0  0  0  0  0
  139.9320   72.0030  221.5180 C   0  0  0  0  0  0  0  0  0  0  0  0
  139.0280   71.1430  220.8350 N   0  0  0  0  0  0  0  0  0  0  0  0
  139.3750   69.7890  220.5060 C   0  0  0  0  0  0  0  0  0  0  0  0
  138.9630   68.8960  221.6150 C   0  0  0  0  0  0  0  0  0  0  0  0
  139.4510   67.7420  221.6350 O   0  0  0  0  0  0  0  0  0  0  0  0
  138.0470   69.3880  222.5860 N   0  0  0  0  0  0  0  0  0  0  0  0
  136.6100   69.4770  222.2820 C   0  0  0  0  0  0  0  0  0  0  0  0
  136.2410   70.9440  222.4490 C   0  0  0  0  0  0  0  0  0  0  0  0
  136.4180   71.2890  223.9070 C   0  0  0  0  0  0  0  0  0  0  0  0
  137.8930   71.1980  224.2300 C   0  0  0  0  0  0  0  0  0  0  0  0
  138.4380   69.8260  223.9060 C   0  0  2  0  0  0  0  0  0  0  0  0
  139.9180   69.7900  224.1360 C   0  0  0  0  0  0  0  0  0  0  0  0
  140.1660   70.3360  225.5150 C   0  0  0  0  0  0  0  0  0  0  0  0
  140.8590   71.5070  225.7270 C   0  0  0  0  0  0  0  0  0  0  0  0
  141.0770   71.9950  227.0160 C   0  0  0  0  0  0  0  0  0  0  0  0
  140.5940   71.3000  228.1050 C   0  0  0  0  0  0  0  0  0  0  0  0
  139.8970   70.1270  227.9210 C   0  0  0  0  0  0  0  0  0  0  0  0
  139.7010   69.6750  226.6350 C   0  0  0  0  0  0  0  0  0  0  0  0
  139.4960   73.3690  221.8130 C   0  0  0  0  0  0  0  0  0  0  0  0
  138.1610   73.6850  221.9240 C   0  0  0  0  0  0  0  0  0  0  0  0
  137.7090   74.9620  222.2030 C   0  0  0  0  0  0  0  0  0  0  0  0
  138.6510   75.9540  222.3720 C   0  0  0  0  0  0  0  0  0  0  0  0
  138.3270   77.2660  222.6530 C   0  0  0  0  0  0  0  0  0  0  0  0
  139.3030   78.2340  222.8170 C   0  0  0  0  0  0  0  0  0  0  0  0
  138.9760   79.6570  223.1200 C   0  0  0  0  0  0  0  0  0  0  0  0
  140.0400   80.2070  223.8140 F   0  0  0  0  0  0  0  0  0  0  0  0
  137.7970   79.7590  223.8310 F   0  0  0  0  0  0  0  0  0  0  0  0
  138.8880   80.3600  221.9270 F   0  0  0  0  0  0  0  0  0  0  0  0
  140.6470   77.9050  222.7020 C   0  0  0  0  0  0  0  0  0  0  0  0
  140.9700   76.5860  222.4200 C   0  0  0  0  0  0  0  0  0  0  0  0
  139.9820   75.6310  222.2590 C   0  0  0  0  0  0  0  0  0  0  0  0
  140.3870   74.3820  221.9890 N   0  0  0  0  0  0  0  0  0  0  0  0
  138.0720   71.5260  220.5660 H   0  0  0  0  0  0  0  0  0  0  0  0
  138.8576   69.4909  219.5822 H   0  0  0  0  0  0  0  0  0  0  0  0
  140.4619   69.7128  220.3550 H   0  0  0  0  0  0  0  0  0  0  0  0
  136.4156   69.1481  221.2505 H   0  0  0  0  0  0  0  0  0  0  0  0
  136.0151   68.8318  222.9452 H   0  0  0  0  0  0  0  0  0  0  0  0
  136.9010   71.5707  221.8313 H   0  0  0  0  0  0  0  0  0  0  0  0
  135.2036   71.1229  222.1301 H   0  0  0  0  0  0  0  0  0  0  0  0
  136.0562   72.3105  224.0960 H   0  0  0  0  0  0  0  0  0  0  0  0
  135.8438   70.5944  224.5378 H   0  0  0  0  0  0  0  0  0  0  0  0
  138.4371   71.9494  223.6389 H   0  0  0  0  0  0  0  0  0  0  0  0
  138.0266   71.3815  225.3063 H   0  0  0  0  0  0  0  0  0  0  0  0
  137.9887   69.0945  224.5937 H   0  0  0  0  0  0  0  0  0  0  0  0
  140.2850   68.7552  224.0685 H   0  0  0  0  0  0  0  0  0  0  0  0
  140.4460   70.3874  223.3782 H   0  0  0  0  0  0  0  0  0  0  0  0
  141.2478   72.0680  224.8644 H   0  0  0  0  0  0  0  0  0  0  0  0
  141.6332   72.9325  227.1634 H   0  0  0  0  0  0  0  0  0  0  0  0
  140.7658   71.6833  229.1216 H   0  0  0  0  0  0  0  0  0  0  0  0
  139.5058   69.5640  228.7812 H   0  0  0  0  0  0  0  0  0  0  0  0
  139.1442   68.7372  226.4921 H   0  0  0  0  0  0  0  0  0  0  0  0
  137.4192   72.8849  221.7843 H   0  0  0  0  0  0  0  0  0  0  0  0
  136.6339   75.1787  222.2872 H   0  0  0  0  0  0  0  0  0  0  0  0
  137.2684   77.5491  222.7489 H   0  0  0  0  0  0  0  0  0  0  0  0
  141.4306   78.6662  222.8304 H   0  0  0  0  0  0  0  0  0  0  0  0
  142.0264   76.2951  222.3230 H   0  0  0  0  0  0  0  0  0  0  0  0
  1  2  2  0
  2  3  1  0
  3  4  1  0
  4  5  1  0
  5  6  2  0
  5  7  1  0
  7  8  1  0
  8  9  1  0
  9 10  1  0
 10 11  1  0
 11 12  1  0
 12 13  1  0
 13 14  1  0
 14 15  2  0
 15 16  1  0
 16 17  2  0
 17 18  1  0
 18 19  2  0
  2 20  1  0
 20 21  2  0
 21 22  1  0
 22 23  2  0
 23 24  1  0
 24 25  2  0
 25 26  1  0
 26 27  1  0
 26 28  1  0
 26 29  1  0
 25 30  1  0
 30 31  2  0
 31 32  1  0
 32 33  2  0
 12  7  1  0
 19 14  1  0
 33 20  1  0
 32 23  1  0
  3 34  1  0
  4 35  1  0
  4 36  1  0
  8 37  1  0
  8 38  1  0
  9 39  1  0
  9 40  1  0
 10 41  1  0
 10 42  1  0
 11 43  1  0
 11 44  1  0
 12 45  1  1
 13 46  1  0
 13 47  1  0
 15 48  1  0
 16 49  1  0
 17 50  1  0
 18 51  1  0
 19 52  1  0
 21 53  1  0
 22 54  1  0
 24 55  1  0
 30 56  1  0
 31 57  1  0
M  END
>  <smiles>  (30) 
O=C(NCC(=O)N1CCCCC1Cc1ccccc1)c1ccc2cc(C(F)(F)F)ccc2n1

>  <score_type>  (30) 
oracle

>  <origin>  (30) 
autodockgpu

>  <m_score__min__energy>  (30) 
-8.6199999999999992

>  <m_primary>  (30) 
energy

>  <rmsd>  (30) 
7.2115699403661795

>  <m_score__min__rmsd>  (30) 
7.2115699403661795

>  <meeko>  (30) 
{"free_energy": -7.02, "intermolecular_energy": -9.1, "internal_energy": -2.61, "cluster_size": 1, "cluster_id": 7, "rank_in_cluster": 1}

>  <energy>  (30) 
-8.42

>  <cluster_rmsd>  (30) 
0.0

>  <cluster>  (30) 
3

$$$$

     RDKit          3D

 57 60  0  0  0  0  0  0  0  0999 V2000
  139.2600   72.1570  220.4960 O   0  0  0  0  0  0  0  0  0  0  0  0
  139.4150   72.5930  221.6830 C   0  0  0  0  0  0  0  0  0  0  0  0
  139.4530   73.9880  221.9590 N   0  0  0  0  0  0  0  0  0  0  0  0
  139.3210   74.9690  220.9190 C   0  0  0  0  0  0  0  0  0  0  0  0
  140.1500   76.1510  221.2540 C   0  0  0  0  0  0  0  0  0  0  0  0
  140.4860   76.2960  222.4520 O   0  0  0  0  0  0  0  0  0  0  0  0
  140.5170   77.0470  220.2120 N   0  0  0  0  0  0  0  0  0  0  0  0
  141.2290   76.5590  219.0210 C   0  0  0  0  0  0  0  0  0  0  0  0
  142.5390   77.3330  218.9750 C   0  0  0  0  0  0  0  0  0  0  0  0
  142.1970   78.7820  218.7340 C   0  0  0  0  0  0  0  0  0  0  0  0
  141.4620   79.2930  219.9530 C   0  0  0  0  0  0  0  0  0  0  0  0
  140.2290   78.4640  220.2350 C   0  0  2  0  0  0  0  0  0  0  0  0
  139.5760   78.9220  221.5030 C   0  0  0  0  0  0  0  0  0  0  0  0
  140.6350   79.6000  222.3280 C   0  0  0  0  0  0  0  0  0  0  0  0
  141.5710   78.8890  223.0460 C   0  0  0  0  0  0  0  0  0  0  0  0
  142.5460   79.5380  223.8060 C   0  0  0  0  0  0  0  0  0  0  0  0
  142.5830   80.9160  223.8430 C   0  0  0  0  0  0  0  0  0  0  0  0
  141.6580   81.6510  223.1330 C   0  0  0  0  0  0  0  0  0  0  0  0
  140.7110   80.9770  222.3960 C   0  0  0  0  0  0  0  0  0  0  0  0
  139.5590   71.6630  222.8030 C   0  0  0  0  0  0  0  0  0  0  0  0
  139.1010   70.3670  222.7200 C   0  0  0  0  0  0  0  0  0  0  0  0
  139.2180   69.4580  223.7550 C   0  0  0  0  0  0  0  0  0  0  0  0
  139.8230   69.8830  224.9190 C   0  0  0  0  0  0  0  0  0  0  0  0
  139.9990   69.0720  226.0220 C   0  0  0  0  0  0  0  0  0  0  0  0
  140.6120   69.5370  227.1720 C   0  0  0  0  0  0  0  0  0  0  0  0
  140.8120   68.6780  228.3750 C   0  0  0  0  0  0  0  0  0  0  0  0
  141.1340   67.4020  227.9460 F   0  0  0  0  0  0  0  0  0  0  0  0
  139.6920   68.6770  229.1810 F   0  0  0  0  0  0  0  0  0  0  0  0
  141.9170   69.1410  229.0760 F   0  0  0  0  0  0  0  0  0  0  0  0
  141.0700   70.8450  227.2460 C   0  0  0  0  0  0  0  0  0  0  0  0
  140.8920   71.6590  226.1360 C   0  0  0  0  0  0  0  0  0  0  0  0
  140.2770   71.1790  224.9940 C   0  0  0  0  0  0  0  0  0  0  0  0
  140.1480   72.0350  223.9710 N   0  0  0  0  0  0  0  0  0  0  0  0
  139.5850   74.2990  222.9680 H   0  0  0  0  0  0  0  0  0  0  0  0
  139.6603   74.5406  219.9643 H   0  0  0  0  0  0  0  0  0  0  0  0
  138.2672   75.2711  220.8284 H   0  0  0  0  0  0  0  0  0  0  0  0
  141.4244   75.4799  219.1069 H   0  0  0  0  0  0  0  0  0  0  0  0
  140.6376   76.7092  218.1058 H   0  0  0  0  0  0  0  0  0  0  0  0
  143.0727   77.2264  219.9309 H   0  0  0  0  0  0  0  0  0  0  0  0
  143.1899   76.9489  218.1757 H   0  0  0  0  0  0  0  0  0  0  0  0
  143.1182   79.3635  218.5816 H   0  0  0  0  0  0  0  0  0  0  0  0
  141.5695   78.8843  217.8363 H   0  0  0  0  0  0  0  0  0  0  0  0
  142.1333   79.2452  220.8231 H   0  0  0  0  0  0  0  0  0  0  0  0
  141.1486   80.3299  219.7618 H   0  0  0  0  0  0  0  0  0  0  0  0
  139.5016   78.6223  219.4252 H   0  0  0  0  0  0  0  0  0  0  0  0
  138.7651   79.6295  221.2752 H   0  0  0  0  0  0  0  0  0  0  0  0
  139.1412   78.0712  222.0480 H   0  0  0  0  0  0  0  0  0  0  0  0
  141.5500   77.7895  223.0202 H   0  0  0  0  0  0  0  0  0  0  0  0
  143.2831   78.9514  224.3740 H   0  0  0  0  0  0  0  0  0  0  0  0
  143.3515   81.4292  224.4397 H   0  0  0  0  0  0  0  0  0  0  0  0
  141.6763   82.7506  223.1549 H   0  0  0  0  0  0  0  0  0  0  0  0
  139.9749   81.5672  221.8306 H   0  0  0  0  0  0  0  0  0  0  0  0
  138.6196   70.0398  221.7866 H   0  0  0  0  0  0  0  0  0  0  0  0
  138.8409   68.4297  223.6534 H   0  0  0  0  0  0  0  0  0  0  0  0
  139.6436   68.0316  225.9859 H   0  0  0  0  0  0  0  0  0  0  0  0
  141.5586   71.2245  228.1555 H   0  0  0  0  0  0  0  0  0  0  0  0
  141.2450   72.7004  226.1650 H   0  0  0  0  0  0  0  0  0  0  0  0
  1  2  2  0
  2  3  1  0
  3  4  1  0
  4  5  1  0
  5  6  2  0
  5  7  1  0
  7  8  1  0
  8  9  1  0
  9 10  1  0
 10 11  1  0
 11 12  1  0
 12 13  1  0
 13 14  1  0
 14 15  2  0
 15 16  1  0
 16 17  2  0
 17 18  1  0
 18 19  2  0
  2 20  1  0
 20 21  2  0
 21 22  1  0
 22 23  2  0
 23 24  1  0
 24 25  2  0
 25 26  1  0
 26 27  1  0
 26 28  1  0
 26 29  1  0
 25 30  1  0
 30 31  2  0
 31 32  1  0
 32 33  2  0
 12  7  1  0
 19 14  1  0
 33 20  1  0
 32 23  1  0
  3 34  1  0
  4 35  1  0
  4 36  1  0
  8 37  1  0
  8 38  1  0
  9 39  1  0
  9 40  1  0
 10 41  1  0
 10 42  1  0
 11 43  1  0
 11 44  1  0
 12 45  1  6
 13 46  1  0
 13 47  1  0
 15 48  1  0
 16 49  1  0
 17 50  1  0
 18 51  1  0
 19 52  1  0
 21 53  1  0
 22 54  1  0
 24 55  1  0
 30 56  1  0
 31 57  1  0
M  END
>  <smiles>  (31) 
O=C(NCC(=O)N1CCCCC1Cc1ccccc1)c1ccc2cc(C(F)(F)F)ccc2n1

>  <score_type>  (31) 
oracle

>  <origin>  (31) 
autodockgpu

>  <m_score__min__energy>  (31) 
-8.6199999999999992

>  <m_primary>  (31) 
energy

>  <rmsd>  (31) 
2.2037894178086126

>  <m_score__min__rmsd>  (31) 
2.2037894178086126

>  <meeko>  (31) 
{"free_energy": -8.44, "intermolecular_energy": -10.53, "internal_energy": -2.23, "cluster_size": 16, "cluster_id": 1, "rank_in_cluster": 6}

>  <energy>  (31) 
-8.35

>  <cluster_rmsd>  (31) 
0.26

>  <cluster>  (31) 
3

$$$$

     RDKit          3D

 57 60  0  0  0  0  0  0  0  0999 V2000
  136.4500   71.8620  221.5190 O   0  0  0  0  0  0  0  0  0  0  0  0
  137.3540   72.0950  222.3850 C   0  0  0  0  0  0  0  0  0  0  0  0
  137.1880   71.7220  223.7480 N   0  0  0  0  0  0  0  0  0  0  0  0
  135.9960   71.0690  224.2130 C   0  0  0  0  0  0  0  0  0  0  0  0
  136.1670   69.6010  224.0990 C   0  0  0  0  0  0  0  0  0  0  0  0
  135.3270   68.8790  224.6840 O   0  0  0  0  0  0  0  0  0  0  0  0
  137.2600   69.0960  223.3420 N   0  0  0  0  0  0  0  0  0  0  0  0
  137.1660   68.9770  221.8790 C   0  0  0  0  0  0  0  0  0  0  0  0
  137.3880   67.5040  221.5680 C   0  0  0  0  0  0  0  0  0  0  0  0
  138.8060   67.1700  221.9580 C   0  0  0  0  0  0  0  0  0  0  0  0
  138.9130   67.2910  223.4620 C   0  0  0  0  0  0  0  0  0  0  0  0
  138.5120   68.6730  223.9280 C   0  0  2  0  0  0  0  0  0  0  0  0
  138.5270   68.7380  225.4250 C   0  0  0  0  0  0  0  0  0  0  0  0
  139.5050   69.8120  225.8120 C   0  0  0  0  0  0  0  0  0  0  0  0
  139.8450   70.0550  227.1240 C   0  0  0  0  0  0  0  0  0  0  0  0
  140.7570   71.0580  227.4610 C   0  0  0  0  0  0  0  0  0  0  0  0
  141.3330   71.8250  226.4690 C   0  0  0  0  0  0  0  0  0  0  0  0
  141.0090   71.6010  225.1490 C   0  0  0  0  0  0  0  0  0  0  0  0
  140.1070   70.6040  224.8530 C   0  0  0  0  0  0  0  0  0  0  0  0
  138.6010   72.7560  221.9980 C   0  0  0  0  0  0  0  0  0  0  0  0
  138.6820   74.1280  221.8980 C   0  0  0  0  0  0  0  0  0  0  0  0
  139.8400   74.7900  221.5360 C   0  0  0  0  0  0  0  0  0  0  0  0
  140.9580   74.0300  221.2650 C   0  0  0  0  0  0  0  0  0  0  0  0
  142.1710   74.5720  220.8940 C   0  0  0  0  0  0  0  0  0  0  0  0
  143.2710   73.7740  220.6300 C   0  0  0  0  0  0  0  0  0  0  0  0
  144.5920   74.3390  220.2270 C   0  0  0  0  0  0  0  0  0  0  0  0
  144.4560   75.7110  220.1060 F   0  0  0  0  0  0  0  0  0  0  0  0
  145.0440   73.7670  219.0550 F   0  0  0  0  0  0  0  0  0  0  0  0
  145.5000   74.1290  221.2550 F   0  0  0  0  0  0  0  0  0  0  0  0
  143.1790   72.3930  220.7320 C   0  0  0  0  0  0  0  0  0  0  0  0
  141.9580   71.8500  221.1050 C   0  0  0  0  0  0  0  0  0  0  0  0
  140.8690   72.6620  221.3660 C   0  0  0  0  0  0  0  0  0  0  0  0
  139.7300   72.0510  221.7200 N   0  0  0  0  0  0  0  0  0  0  0  0
  137.9740   71.9400  224.4300 H   0  0  0  0  0  0  0  0  0  0  0  0
  135.8158   71.3377  225.2644 H   0  0  0  0  0  0  0  0  0  0  0  0
  135.1381   71.3891  223.6035 H   0  0  0  0  0  0  0  0  0  0  0  0
  136.1723   69.2963  221.5317 H   0  0  0  0  0  0  0  0  0  0  0  0
  137.9062   69.6139  221.3725 H   0  0  0  0  0  0  0  0  0  0  0  0
  136.6839   66.8873  222.1458 H   0  0  0  0  0  0  0  0  0  0  0  0
  137.2212   67.3030  220.4994 H   0  0  0  0  0  0  0  0  0  0  0  0
  139.0474   66.1428  221.6472 H   0  0  0  0  0  0  0  0  0  0  0  0
  139.5113   67.8561  221.4663 H   0  0  0  0  0  0  0  0  0  0  0  0
  138.2506   66.5480  223.9301 H   0  0  0  0  0  0  0  0  0  0  0  0
  139.9591   67.1146  223.7527 H   0  0  0  0  0  0  0  0  0  0  0  0
  139.2554   69.3998  223.5687 H   0  0  0  0  0  0  0  0  0  0  0  0
  137.5241   68.9876  225.8017 H   0  0  0  0  0  0  0  0  0  0  0  0
  138.8195   67.7690  225.8556 H   0  0  0  0  0  0  0  0  0  0  0  0
  139.3903   69.4484  227.9210 H   0  0  0  0  0  0  0  0  0  0  0  0
  141.0155   71.2361  228.5152 H   0  0  0  0  0  0  0  0  0  0  0  0
  142.0511   72.6155  226.7324 H   0  0  0  0  0  0  0  0  0  0  0  0
  141.4611   72.2055  224.3489 H   0  0  0  0  0  0  0  0  0  0  0  0
  139.8521   70.4286  223.7974 H   0  0  0  0  0  0  0  0  0  0  0  0
  137.7835   74.7239  222.1164 H   0  0  0  0  0  0  0  0  0  0  0  0
  139.8687   75.8874  221.4664 H   0  0  0  0  0  0  0  0  0  0  0  0
  142.2665   75.6643  220.8058 H   0  0  0  0  0  0  0  0  0  0  0  0
  144.0465   71.7495  220.5237 H   0  0  0  0  0  0  0  0  0  0  0  0
  141.8545   70.7585  221.1944 H   0  0  0  0  0  0  0  0  0  0  0  0
  1  2  2  0
  2  3  1  0
  3  4  1  0
  4  5  1  0
  5  6  2  0
  5  7  1  0
  7  8  1  0
  8  9  1  0
  9 10  1  0
 10 11  1  0
 11 12  1  0
 12 13  1  0
 13 14  1  0
 14 15  2  0
 15 16  1  0
 16 17  2  0
 17 18  1  0
 18 19  2  0
  2 20  1  0
 20 21  2  0
 21 22  1  0
 22 23  2  0
 23 24  1  0
 24 25  2  0
 25 26  1  0
 26 27  1  0
 26 28  1  0
 26 29  1  0
 25 30  1  0
 30 31  2  0
 31 32  1  0
 32 33  2  0
 12  7  1  0
 19 14  1  0
 33 20  1  0
 32 23  1  0
  3 34  1  0
  4 35  1  0
  4 36  1  0
  8 37  1  0
  8 38  1  0
  9 39  1  0
  9 40  1  0
 10 41  1  0
 10 42  1  0
 11 43  1  0
 11 44  1  0
 12 45  1  6
 13 46  1  0
 13 47  1  0
 15 48  1  0
 16 49  1  0
 17 50  1  0
 18 51  1  0
 19 52  1  0
 21 53  1  0
 22 54  1  0
 24 55  1  0
 30 56  1  0
 31 57  1  0
M  END
>  <smiles>  (32) 
O=C(NCC(=O)N1CCCCC1Cc1ccccc1)c1ccc2cc(C(F)(F)F)ccc2n1

>  <score_type>  (32) 
oracle

>  <origin>  (32) 
autodockgpu

>  <m_score__min__energy>  (32) 
-8.6199999999999992

>  <m_primary>  (32) 
energy

>  <rmsd>  (32) 
7.588904076542092

>  <m_score__min__rmsd>  (32) 
7.588904076542092

>  <meeko>  (32) 
{"free_energy": -6.84, "intermolecular_energy": -8.93, "internal_energy": -2.75, "cluster_size": 1, "cluster_id": 8, "rank_in_cluster": 1}

>  <energy>  (32) 
-8.33

>  <cluster_rmsd>  (32) 
0.18

>  <cluster>  (32) 
3

$$$$

     RDKit          3D

 57 60  0  0  0  0  0  0  0  0999 V2000
  143.5660   73.1130  219.5010 O   0  0  0  0  0  0  0  0  0  0  0  0
  142.7050   73.9730  219.8760 C   0  0  0  0  0  0  0  0  0  0  0  0
  141.7030   73.6480  220.8320 N   0  0  0  0  0  0  0  0  0  0  0  0
  141.6130   72.3400  221.4180 C   0  0  0  0  0  0  0  0  0  0  0  0
  140.3810   72.2560  222.2390 C   0  0  0  0  0  0  0  0  0  0  0  0
  139.9220   73.3280  222.6960 O   0  0  0  0  0  0  0  0  0  0  0  0
  139.7930   70.9810  222.4610 N   0  0  0  0  0  0  0  0  0  0  0  0
  139.1200   70.2650  221.3660 C   0  0  0  0  0  0  0  0  0  0  0  0
  137.6870   70.0490  221.8290 C   0  0  0  0  0  0  0  0  0  0  0  0
  137.7320   69.1190  223.0160 C   0  0  0  0  0  0  0  0  0  0  0  0
  138.4240   69.8460  224.1480 C   0  0  0  0  0  0  0  0  0  0  0  0
  139.8050   70.3050  223.7390 C   0  0  2  0  0  0  0  0  0  0  0  0
  140.4290   71.1100  224.8380 C   0  0  0  0  0  0  0  0  0  0  0  0
  140.4820   70.2300  226.0560 C   0  0  0  0  0  0  0  0  0  0  0  0
  140.0270   70.6520  227.2850 C   0  0  0  0  0  0  0  0  0  0  0  0
  140.0850   69.8190  228.4040 C   0  0  0  0  0  0  0  0  0  0  0  0
  140.6070   68.5470  228.2870 C   0  0  0  0  0  0  0  0  0  0  0  0
  141.0700   68.1010  227.0680 C   0  0  0  0  0  0  0  0  0  0  0  0
  140.9960   68.9500  225.9870 C   0  0  0  0  0  0  0  0  0  0  0  0
  142.7240   75.3300  219.3300 C   0  0  0  0  0  0  0  0  0  0  0  0
  143.2750   75.5970  218.0960 C   0  0  0  0  0  0  0  0  0  0  0  0
  143.3110   76.8650  217.5450 C   0  0  0  0  0  0  0  0  0  0  0  0
  142.7680   77.9000  218.2760 C   0  0  0  0  0  0  0  0  0  0  0  0
  142.7430   79.2070  217.8360 C   0  0  0  0  0  0  0  0  0  0  0  0
  142.1870   80.2180  218.6000 C   0  0  0  0  0  0  0  0  0  0  0  0
  142.1500   81.6380  218.1440 C   0  0  0  0  0  0  0  0  0  0  0  0
  141.1480   81.7620  217.1980 F   0  0  0  0  0  0  0  0  0  0  0  0
  143.3740   82.0350  217.6440 F   0  0  0  0  0  0  0  0  0  0  0  0
  141.7760   82.4420  219.2120 F   0  0  0  0  0  0  0  0  0  0  0  0
  141.6350   79.9390  219.8420 C   0  0  0  0  0  0  0  0  0  0  0  0
  141.6610   78.6240  220.2830 C   0  0  0  0  0  0  0  0  0  0  0  0
  142.2190   77.6250  219.5070 C   0  0  0  0  0  0  0  0  0  0  0  0
  142.2000   76.3840  220.0120 N   0  0  0  0  0  0  0  0  0  0  0  0
  141.0070   74.4030  221.1110 H   0  0  0  0  0  0  0  0  0  0  0  0
  141.5766   71.5820  220.6217 H   0  0  0  0  0  0  0  0  0  0  0  0
  142.4927   72.1587  222.0530 H   0  0  0  0  0  0  0  0  0  0  0  0
  139.1383   70.8680  220.4462 H   0  0  0  0  0  0  0  0  0  0  0  0
  139.6196   69.3116  221.1392 H   0  0  0  0  0  0  0  0  0  0  0  0
  137.2373   71.0095  222.1207 H   0  0  0  0  0  0  0  0  0  0  0  0
  137.0783   69.6178  221.0205 H   0  0  0  0  0  0  0  0  0  0  0  0
  136.7096   68.8461  223.3164 H   0  0  0  0  0  0  0  0  0  0  0  0
  138.2766   68.1978  222.7616 H   0  0  0  0  0  0  0  0  0  0  0  0
  137.8236   70.7230  224.4314 H   0  0  0  0  0  0  0  0  0  0  0  0
  138.5240   69.1539  224.9971 H   0  0  0  0  0  0  0  0  0  0  0  0
  140.4421   69.4212  223.5876 H   0  0  0  0  0  0  0  0  0  0  0  0
  141.4452   71.4174  224.5502 H   0  0  0  0  0  0  0  0  0  0  0  0
  139.8436   72.0196  225.0376 H   0  0  0  0  0  0  0  0  0  0  0  0
  139.6098   71.6647  227.3873 H   0  0  0  0  0  0  0  0  0  0  0  0
  139.7155   70.1759  229.3767 H   0  0  0  0  0  0  0  0  0  0  0  0
  140.6536   67.8887  229.1671 H   0  0  0  0  0  0  0  0  0  0  0  0
  141.4892   67.0896  226.9613 H   0  0  0  0  0  0  0  0  0  0  0  0
  141.3662   68.5895  225.0159 H   0  0  0  0  0  0  0  0  0  0  0  0
  143.7062   74.7633  217.5224 H   0  0  0  0  0  0  0  0  0  0  0  0
  143.7583   77.0419  216.5557 H   0  0  0  0  0  0  0  0  0  0  0  0
  143.1753   79.4515  216.8545 H   0  0  0  0  0  0  0  0  0  0  0  0
  141.1909   80.7352  220.4574 H   0  0  0  0  0  0  0  0  0  0  0  0
  141.2316   78.3725  221.2640 H   0  0  0  0  0  0  0  0  0  0  0  0
  1  2  2  0
  2  3  1  0
  3  4  1  0
  4  5  1  0
  5  6  2  0
  5  7  1  0
  7  8  1  0
  8  9  1  0
  9 10  1  0
 10 11  1  0
 11 12  1  0
 12 13  1  0
 13 14  1  0
 14 15  2  0
 15 16  1  0
 16 17  2  0
 17 18  1  0
 18 19  2  0
  2 20  1  0
 20 21  2  0
 21 22  1  0
 22 23  2  0
 23 24  1  0
 24 25  2  0
 25 26  1  0
 26 27  1  0
 26 28  1  0
 26 29  1  0
 25 30  1  0
 30 31  2  0
 31 32  1  0
 32 33  2  0
 12  7  1  0
 19 14  1  0
 33 20  1  0
 32 23  1  0
  3 34  1  0
  4 35  1  0
  4 36  1  0
  8 37  1  0
  8 38  1  0
  9 39  1  0
  9 40  1  0
 10 41  1  0
 10 42  1  0
 11 43  1  0
 11 44  1  0
 12 45  1  6
 13 46  1  0
 13 47  1  0
 15 48  1  0
 16 49  1  0
 17 50  1  0
 18 51  1  0
 19 52  1  0
 21 53  1  0
 22 54  1  0
 24 55  1  0
 30 56  1  0
 31 57  1  0
M  END
>  <smiles>  (33) 
O=C(NCC(=O)N1CCCCC1Cc1ccccc1)c1ccc2cc(C(F)(F)F)ccc2n1

>  <score_type>  (33) 
oracle

>  <origin>  (33) 
autodockgpu

>  <m_score__min__energy>  (33) 
-8.6199999999999992

>  <m_primary>  (33) 
energy

>  <rmsd>  (33) 
8.75223483727905

>  <m_score__min__rmsd>  (33) 
8.75223483727905

>  <meeko>  (33) 
{"free_energy": -7.47, "intermolecular_energy": -9.56, "internal_energy": -2.23, "cluster_size": 1, "cluster_id": 6, "rank_in_cluster": 1}

>  <energy>  (33) 
-8.26

>  <cluster_rmsd>  (33) 
0.94

>  <cluster>  (33) 
3

$$$$

     RDKit          3D

 57 60  0  0  0  0  0  0  0  0999 V2000
  133.7790   69.2690  226.4610 O   0  0  0  0  0  0  0  0  0  0  0  0
  134.2720   70.3880  226.1070 C   0  0  0  0  0  0  0  0  0  0  0  0
  135.4710   70.4600  225.3450 N   0  0  0  0  0  0  0  0  0  0  0  0
  136.1820   69.2800  224.9400 C   0  0  0  0  0  0  0  0  0  0  0  0
  136.8040   69.5150  223.6150 C   0  0  0  0  0  0  0  0  0  0  0  0
  136.7210   68.5930  222.7710 O   0  0  0  0  0  0  0  0  0  0  0  0
  137.4520   70.7570  223.3740 N   0  0  0  0  0  0  0  0  0  0  0  0
  136.7690   71.8260  222.6280 C   0  0  0  0  0  0  0  0  0  0  0  0
  137.6480   72.1160  221.4200 C   0  0  0  0  0  0  0  0  0  0  0  0
  138.9470   72.6840  221.9350 C   0  0  0  0  0  0  0  0  0  0  0  0
  139.6570   71.5930  222.7060 C   0  0  0  0  0  0  0  0  0  0  0  0
  138.7900   71.0640  223.8270 C   0  0  2  0  0  0  0  0  0  0  0  0
  139.4700   69.9170  224.5090 C   0  0  0  0  0  0  0  0  0  0  0  0
  139.9540   70.4180  225.8410 C   0  0  0  0  0  0  0  0  0  0  0  0
  140.7390   71.5430  225.9600 C   0  0  0  0  0  0  0  0  0  0  0  0
  141.1780   71.9910  227.2080 C   0  0  0  0  0  0  0  0  0  0  0  0
  140.8240   71.3010  228.3490 C   0  0  0  0  0  0  0  0  0  0  0  0
  140.0390   70.1730  228.2570 C   0  0  0  0  0  0  0  0  0  0  0  0
  139.6250   69.7600  227.0100 C   0  0  0  0  0  0  0  0  0  0  0  0
  133.6130   71.6410  226.4770 C   0  0  0  0  0  0  0  0  0  0  0  0
  132.4350   71.6460  227.1920 C   0  0  0  0  0  0  0  0  0  0  0  0
  131.7820   72.8070  227.5610 C   0  0  0  0  0  0  0  0  0  0  0  0
  132.3470   74.0080  227.1890 C   0  0  0  0  0  0  0  0  0  0  0  0
  131.7930   75.2340  227.4960 C   0  0  0  0  0  0  0  0  0  0  0  0
  132.3910   76.4190  227.1040 C   0  0  0  0  0  0  0  0  0  0  0  0
  131.8090   77.7540  227.4260 C   0  0  0  0  0  0  0  0  0  0  0  0
  130.6730   77.9270  226.6540 F   0  0  0  0  0  0  0  0  0  0  0  0
  132.7260   78.7640  227.2150 F   0  0  0  0  0  0  0  0  0  0  0  0
  131.3830   77.7500  228.7460 F   0  0  0  0  0  0  0  0  0  0  0  0
  133.5770   76.4030  226.3840 C   0  0  0  0  0  0  0  0  0  0  0  0
  134.1330   75.1700  226.0760 C   0  0  0  0  0  0  0  0  0  0  0  0
  133.5220   73.9950  226.4760 C   0  0  0  0  0  0  0  0  0  0  0  0
  134.1300   72.8510  226.1340 N   0  0  0  0  0  0  0  0  0  0  0  0
  135.8400   71.4210  225.0750 H   0  0  0  0  0  0  0  0  0  0  0  0
  136.9647   69.0508  225.6782 H   0  0  0  0  0  0  0  0  0  0  0  0
  135.4838   68.4325  224.8749 H   0  0  0  0  0  0  0  0  0  0  0  0
  135.7724   71.4909  222.3048 H   0  0  0  0  0  0  0  0  0  0  0  0
  136.6242   72.7231  223.2478 H   0  0  0  0  0  0  0  0  0  0  0  0
  137.8384   71.1875  220.8617 H   0  0  0  0  0  0  0  0  0  0  0  0
  137.1543   72.8273  220.7415 H   0  0  0  0  0  0  0  0  0  0  0  0
  139.5717   73.0130  221.0915 H   0  0  0  0  0  0  0  0  0  0  0  0
  138.7559   73.5508  222.5847 H   0  0  0  0  0  0  0  0  0  0  0  0
  139.8995   70.7681  222.0199 H   0  0  0  0  0  0  0  0  0  0  0  0
  140.5737   72.0151  223.1435 H   0  0  0  0  0  0  0  0  0  0  0  0
  138.6621   71.8548  224.5808 H   0  0  0  0  0  0  0  0  0  0  0  0
  138.7602   69.0890  224.6527 H   0  0  0  0  0  0  0  0  0  0  0  0
  140.3087   69.5432  223.9033 H   0  0  0  0  0  0  0  0  0  0  0  0
  141.0257   72.0993  225.0554 H   0  0  0  0  0  0  0  0  0  0  0  0
  141.8047   72.8921  227.2809 H   0  0  0  0  0  0  0  0  0  0  0  0
  141.1689   71.6519  229.3328 H   0  0  0  0  0  0  0  0  0  0  0  0
  139.7492   69.6145  229.1593 H   0  0  0  0  0  0  0  0  0  0  0  0
  138.9990   68.8581  226.9414 H   0  0  0  0  0  0  0  0  0  0  0  0
  131.9938   70.6812  227.4826 H   0  0  0  0  0  0  0  0  0  0  0  0
  130.8427   72.7736  228.1325 H   0  0  0  0  0  0  0  0  0  0  0  0
  130.8531   75.2704  228.0663 H   0  0  0  0  0  0  0  0  0  0  0  0
  134.0611   77.3386  226.0674 H   0  0  0  0  0  0  0  0  0  0  0  0
  135.0727   75.1259  225.5059 H   0  0  0  0  0  0  0  0  0  0  0  0
  1  2  2  0
  2  3  1  0
  3  4  1  0
  4  5  1  0
  5  6  2  0
  5  7  1  0
  7  8  1  0
  8  9  1  0
  9 10  1  0
 10 11  1  0
 11 12  1  0
 12 13  1  0
 13 14  1  0
 14 15  2  0
 15 16  1  0
 16 17  2  0
 17 18  1  0
 18 19  2  0
  2 20  1  0
 20 21  2  0
 21 22  1  0
 22 23  2  0
 23 24  1  0
 24 25  2  0
 25 26  1  0
 26 27  1  0
 26 28  1  0
 26 29  1  0
 25 30  1  0
 30 31  2  0
 31 32  1  0
 32 33  2  0
 12  7  1  0
 19 14  1  0
 33 20  1  0
 32 23  1  0
  3 34  1  0
  4 35  1  0
  4 36  1  0
  8 37  1  0
  8 38  1  0
  9 39  1  0
  9 40  1  0
 10 41  1  0
 10 42  1  0
 11 43  1  0
 11 44  1  0
 12 45  1  1
 13 46  1  0
 13 47  1  0
 15 48  1  0
 16 49  1  0
 17 50  1  0
 18 51  1  0
 19 52  1  0
 21 53  1  0
 22 54  1  0
 24 55  1  0
 30 56  1  0
 31 57  1  0
M  END
>  <smiles>  (34) 
O=C(NCC(=O)N1CCCCC1Cc1ccccc1)c1ccc2cc(C(F)(F)F)ccc2n1

>  <score_type>  (34) 
oracle

>  <origin>  (34) 
autodockgpu

>  <m_score__min__energy>  (34) 
-8.6199999999999992

>  <m_primary>  (34) 
energy

>  <rmsd>  (34) 
7.854874562131411

>  <m_score__min__rmsd>  (34) 
7.854874562131411

>  <meeko>  (34) 
{"free_energy": -8.33, "intermolecular_energy": -10.42, "internal_energy": -2.05, "cluster_size": 13, "cluster_id": 3, "rank_in_cluster": 3}

>  <energy>  (34) 
-8.25

>  <cluster_rmsd>  (34) 
0.44

>  <cluster>  (34) 
3

$$$$

     RDKit          3D

 57 60  0  0  0  0  0  0  0  0999 V2000
  139.8840   73.0910  220.2980 O   0  0  0  0  0  0  0  0  0  0  0  0
  139.6940   73.3260  221.5350 C   0  0  0  0  0  0  0  0  0  0  0  0
  139.5400   74.6540  222.0200 N   0  0  0  0  0  0  0  0  0  0  0  0
  139.5950   75.7910  221.1440 C   0  0  0  0  0  0  0  0  0  0  0  0
  140.7520   76.6390  221.5150 C   0  0  0  0  0  0  0  0  0  0  0  0
  140.7940   77.0720  222.6890 O   0  0  0  0  0  0  0  0  0  0  0  0
  141.7440   76.9120  220.5320 N   0  0  0  0  0  0  0  0  0  0  0  0
  141.8480   78.2470  219.9240 C   0  0  0  0  0  0  0  0  0  0  0  0
  141.6560   78.0390  218.4300 C   0  0  0  0  0  0  0  0  0  0  0  0
  142.8250   77.2250  217.9340 C   0  0  0  0  0  0  0  0  0  0  0  0
  142.7280   75.8490  218.5550 C   0  0  0  0  0  0  0  0  0  0  0  0
  142.6990   75.9330  220.0650 C   0  0  2  0  0  0  0  0  0  0  0  0
  142.4990   74.5700  220.6540 C   0  0  0  0  0  0  0  0  0  0  0  0
  143.7820   73.8100  220.4600 C   0  0  0  0  0  0  0  0  0  0  0  0
  143.8030   72.5200  219.9780 C   0  0  0  0  0  0  0  0  0  0  0  0
  145.0070   71.8330  219.8050 C   0  0  0  0  0  0  0  0  0  0  0  0
  146.2010   72.4480  220.1180 C   0  0  0  0  0  0  0  0  0  0  0  0
  146.2060   73.7380  220.6020 C   0  0  0  0  0  0  0  0  0  0  0  0
  145.0010   74.3850  220.7600 C   0  0  0  0  0  0  0  0  0  0  0  0
  139.6250   72.2270  222.4980 C   0  0  0  0  0  0  0  0  0  0  0  0
  138.8340   71.1230  222.2690 C   0  0  0  0  0  0  0  0  0  0  0  0
  138.7430   70.0640  223.1540 C   0  0  0  0  0  0  0  0  0  0  0  0
  139.4830   70.1300  224.3150 C   0  0  0  0  0  0  0  0  0  0  0  0
  139.4770   69.1390  225.2750 C   0  0  0  0  0  0  0  0  0  0  0  0
  140.2350   69.2440  226.4280 C   0  0  0  0  0  0  0  0  0  0  0  0
  140.2430   68.1850  227.4790 C   0  0  0  0  0  0  0  0  0  0  0  0
  139.2130   67.3000  227.2090 F   0  0  0  0  0  0  0  0  0  0  0  0
  140.1270   68.7310  228.7410 F   0  0  0  0  0  0  0  0  0  0  0  0
  141.4190   67.4550  227.3690 F   0  0  0  0  0  0  0  0  0  0  0  0
  141.0290   70.3600  226.6500 C   0  0  0  0  0  0  0  0  0  0  0  0
  141.0330   71.3560  225.6840 C   0  0  0  0  0  0  0  0  0  0  0  0
  140.2700   71.2360  224.5360 C   0  0  0  0  0  0  0  0  0  0  0  0
  140.3360   72.2450  223.6580 N   0  0  0  0  0  0  0  0  0  0  0  0
  139.3830   74.7950  223.0630 H   0  0  0  0  0  0  0  0  0  0  0  0
  139.7083   75.4490  220.1047 H   0  0  0  0  0  0  0  0  0  0  0  0
  138.6664   76.3732  221.2369 H   0  0  0  0  0  0  0  0  0  0  0  0
  141.0662   78.9108  220.3217 H   0  0  0  0  0  0  0  0  0  0  0  0
  142.8171   78.7179  220.1455 H   0  0  0  0  0  0  0  0  0  0  0  0
  140.7159   77.4993  218.2433 H   0  0  0  0  0  0  0  0  0  0  0  0
  141.6056   79.0052  217.9066 H   0  0  0  0  0  0  0  0  0  0  0  0
  142.7862   77.1442  216.8377 H   0  0  0  0  0  0  0  0  0  0  0  0
  143.7739   77.7062  218.2133 H   0  0  0  0  0  0  0  0  0  0  0  0
  141.8065   75.3611  218.2047 H   0  0  0  0  0  0  0  0  0  0  0  0
  143.6121   75.2674  218.2547 H   0  0  0  0  0  0  0  0  0  0  0  0
  143.6750   76.2954  220.4201 H   0  0  0  0  0  0  0  0  0  0  0  0
  142.2683   74.6528  221.7264 H   0  0  0  0  0  0  0  0  0  0  0  0
  141.6604   74.0523  220.1654 H   0  0  0  0  0  0  0  0  0  0  0  0
  142.8554   72.0221  219.7249 H   0  0  0  0  0  0  0  0  0  0  0  0
  145.0027   70.8027  219.4196 H   0  0  0  0  0  0  0  0  0  0  0  0
  147.1498   71.9084  219.9812 H   0  0  0  0  0  0  0  0  0  0  0  0
  147.1513   74.2396  220.8564 H   0  0  0  0  0  0  0  0  0  0  0  0
  145.0099   75.4151  221.1458 H   0  0  0  0  0  0  0  0  0  0  0  0
  138.2475   71.0816  221.3393 H   0  0  0  0  0  0  0  0  0  0  0  0
  138.1009   69.1973  222.9383 H   0  0  0  0  0  0  0  0  0  0  0  0
  138.8553   68.2448  225.1203 H   0  0  0  0  0  0  0  0  0  0  0  0
  141.6360   70.4522  227.5627 H   0  0  0  0  0  0  0  0  0  0  0  0
  141.6513   72.2535  225.8329 H   0  0  0  0  0  0  0  0  0  0  0  0
  1  2  2  0
  2  3  1  0
  3  4  1  0
  4  5  1  0
  5  6  2  0
  5  7  1  0
  7  8  1  0
  8  9  1  0
  9 10  1  0
 10 11  1  0
 11 12  1  0
 12 13  1  0
 13 14  1  0
 14 15  2  0
 15 16  1  0
 16 17  2  0
 17 18  1  0
 18 19  2  0
  2 20  1  0
 20 21  2  0
 21 22  1  0
 22 23  2  0
 23 24  1  0
 24 25  2  0
 25 26  1  0
 26 27  1  0
 26 28  1  0
 26 29  1  0
 25 30  1  0
 30 31  2  0
 31 32  1  0
 32 33  2  0
 12  7  1  0
 19 14  1  0
 33 20  1  0
 32 23  1  0
  3 34  1  0
  4 35  1  0
  4 36  1  0
  8 37  1  0
  8 38  1  0
  9 39  1  0
  9 40  1  0
 10 41  1  0
 10 42  1  0
 11 43  1  0
 11 44  1  0
 12 45  1  1
 13 46  1  0
 13 47  1  0
 15 48  1  0
 16 49  1  0
 17 50  1  0
 18 51  1  0
 19 52  1  0
 21 53  1  0
 22 54  1  0
 24 55  1  0
 30 56  1  0
 31 57  1  0
M  END
>  <smiles>  (35) 
O=C(NCC(=O)N1CCCCC1Cc1ccccc1)c1ccc2cc(C(F)(F)F)ccc2n1

>  <score_type>  (35) 
oracle

>  <origin>  (35) 
autodockgpu

>  <m_score__min__energy>  (35) 
-8.6199999999999992

>  <m_primary>  (35) 
energy

>  <rmsd>  (35) 
2.7432138058418487

>  <m_score__min__rmsd>  (35) 
2.7432138058418487

>  <meeko>  (35) 
{"free_energy": -8.43, "intermolecular_energy": -10.52, "internal_energy": -2.12, "cluster_size": 13, "cluster_id": 2, "rank_in_cluster": 6}

>  <energy>  (35) 
-8.2

>  <cluster_rmsd>  (35) 
0.36

>  <cluster>  (35) 
3

$$$$

     RDKit          3D

 57 60  0  0  0  0  0  0  0  0999 V2000
  138.7810   71.7670  220.6020 O   0  0  0  0  0  0  0  0  0  0  0  0
  139.0060   72.2490  221.7590 C   0  0  0  0  0  0  0  0  0  0  0  0
  139.0040   73.6530  221.9890 N   0  0  0  0  0  0  0  0  0  0  0  0
  138.7510   74.5920  220.9320 C   0  0  0  0  0  0  0  0  0  0  0  0
  139.0700   75.9590  221.4070 C   0  0  0  0  0  0  0  0  0  0  0  0
  138.6580   76.2830  222.5450 O   0  0  0  0  0  0  0  0  0  0  0  0
  139.8190   76.8210  220.5590 N   0  0  0  0  0  0  0  0  0  0  0  0
  139.5820   76.8330  219.1070 C   0  0  0  0  0  0  0  0  0  0  0  0
  140.9120   76.4640  218.4660 C   0  0  0  0  0  0  0  0  0  0  0  0
  141.8840   77.5750  218.7740 C   0  0  0  0  0  0  0  0  0  0  0  0
  142.1330   77.5720  220.2660 C   0  0  0  0  0  0  0  0  0  0  0  0
  140.8410   77.7250  221.0360 C   0  0  2  0  0  0  0  0  0  0  0  0
  141.0990   77.6150  222.5080 C   0  0  0  0  0  0  0  0  0  0  0  0
  141.4570   78.9910  222.9980 C   0  0  0  0  0  0  0  0  0  0  0  0
  140.5010   79.9070  223.3740 C   0  0  0  0  0  0  0  0  0  0  0  0
  140.8560   81.1790  223.8270 C   0  0  0  0  0  0  0  0  0  0  0  0
  142.1870   81.5350  223.9040 C   0  0  0  0  0  0  0  0  0  0  0  0
  143.1630   80.6360  223.5340 C   0  0  0  0  0  0  0  0  0  0  0  0
  142.7760   79.3910  223.0920 C   0  0  0  0  0  0  0  0  0  0  0  0
  139.2730   71.3640  222.8930 C   0  0  0  0  0  0  0  0  0  0  0  0
  138.9120   70.0350  222.8650 C   0  0  0  0  0  0  0  0  0  0  0  0
  139.1480   69.1670  223.9150 C   0  0  0  0  0  0  0  0  0  0  0  0
  139.7730   69.6690  225.0360 C   0  0  0  0  0  0  0  0  0  0  0  0
  140.0640   68.9050  226.1480 C   0  0  0  0  0  0  0  0  0  0  0  0
  140.6940   69.4460  227.2550 C   0  0  0  0  0  0  0  0  0  0  0  0
  141.0160   68.6390  228.4670 C   0  0  0  0  0  0  0  0  0  0  0  0
  141.4550   67.3930  228.0520 F   0  0  0  0  0  0  0  0  0  0  0  0
  139.9260   68.5410  229.3080 F   0  0  0  0  0  0  0  0  0  0  0  0
  142.0880   69.2270  229.1240 F   0  0  0  0  0  0  0  0  0  0  0  0
  141.0530   70.7870  227.2740 C   0  0  0  0  0  0  0  0  0  0  0  0
  140.7610   71.5540  226.1550 C   0  0  0  0  0  0  0  0  0  0  0  0
  140.1310   70.9960  225.0570 C   0  0  0  0  0  0  0  0  0  0  0  0
  139.8880   71.8110  224.0210 N   0  0  0  0  0  0  0  0  0  0  0  0
  139.1970   74.0030  222.9750 H   0  0  0  0  0  0  0  0  0  0  0  0
  139.3814   74.3477  220.0643 H   0  0  0  0  0  0  0  0  0  0  0  0
  137.6922   74.5409  220.6382 H   0  0  0  0  0  0  0  0  0  0  0  0
  138.8103   76.0964  218.8389 H   0  0  0  0  0  0  0  0  0  0  0  0
  139.2260   77.8154  218.7633 H   0  0  0  0  0  0  0  0  0  0  0  0
  141.2804   75.5154  218.8837 H   0  0  0  0  0  0  0  0  0  0  0  0
  140.7979   76.3376  217.3793 H   0  0  0  0  0  0  0  0  0  0  0  0
  142.8287   77.4052  218.2367 H   0  0  0  0  0  0  0  0  0  0  0  0
  141.4729   78.5442  218.4553 H   0  0  0  0  0  0  0  0  0  0  0  0
  142.6087   76.6212  220.5485 H   0  0  0  0  0  0  0  0  0  0  0  0
  142.7876   78.4212  220.5117 H   0  0  0  0  0  0  0  0  0  0  0  0
  140.4383   78.7327  220.8559 H   0  0  0  0  0  0  0  0  0  0  0  0
  140.1968   77.2538  223.0233 H   0  0  0  0  0  0  0  0  0  0  0  0
  141.9126   76.9031  222.7108 H   0  0  0  0  0  0  0  0  0  0  0  0
  139.4375   79.6318  223.3165 H   0  0  0  0  0  0  0  0  0  0  0  0
  140.0760   81.8963  224.1220 H   0  0  0  0  0  0  0  0  0  0  0  0
  142.4686   82.5367  224.2609 H   0  0  0  0  0  0  0  0  0  0  0  0
  144.2276   80.9069  223.5904 H   0  0  0  0  0  0  0  0  0  0  0  0
  143.5589   78.6764  222.7979 H   0  0  0  0  0  0  0  0  0  0  0  0
  138.4127   69.6461  221.9653 H   0  0  0  0  0  0  0  0  0  0  0  0
  138.8468   68.1106  223.8575 H   0  0  0  0  0  0  0  0  0  0  0  0
  139.7884   67.8401  226.1545 H   0  0  0  0  0  0  0  0  0  0  0  0
  141.5533   71.2278  228.1489 H   0  0  0  0  0  0  0  0  0  0  0  0
  141.0340   72.6195  226.1409 H   0  0  0  0  0  0  0  0  0  0  0  0
  1  2  2  0
  2  3  1  0
  3  4  1  0
  4  5  1  0
  5  6  2  0
  5  7  1  0
  7  8  1  0
  8  9  1  0
  9 10  1  0
 10 11  1  0
 11 12  1  0
 12 13  1  0
 13 14  1  0
 14 15  2  0
 15 16  1  0
 16 17  2  0
 17 18  1  0
 18 19  2  0
  2 20  1  0
 20 21  2  0
 21 22  1  0
 22 23  2  0
 23 24  1  0
 24 25  2  0
 25 26  1  0
 26 27  1  0
 26 28  1  0
 26 29  1  0
 25 30  1  0
 30 31  2  0
 31 32  1  0
 32 33  2  0
 12  7  1  0
 19 14  1  0
 33 20  1  0
 32 23  1  0
  3 34  1  0
  4 35  1  0
  4 36  1  0
  8 37  1  0
  8 38  1  0
  9 39  1  0
  9 40  1  0
 10 41  1  0
 10 42  1  0
 11 43  1  0
 11 44  1  0
 12 45  1  1
 13 46  1  0
 13 47  1  0
 15 48  1  0
 16 49  1  0
 17 50  1  0
 18 51  1  0
 19 52  1  0
 21 53  1  0
 22 54  1  0
 24 55  1  0
 30 56  1  0
 31 57  1  0
M  END
>  <smiles>  (36) 
O=C(NCC(=O)N1CCCCC1Cc1ccccc1)c1ccc2cc(C(F)(F)F)ccc2n1

>  <score_type>  (36) 
oracle

>  <origin>  (36) 
autodockgpu

>  <m_score__min__energy>  (36) 
-8.6199999999999992

>  <m_primary>  (36) 
energy

>  <rmsd>  (36) 
1.9262519591643996

>  <m_score__min__rmsd>  (36) 
1.9262519591643996

>  <meeko>  (36) 
{"free_energy": -8.38, "intermolecular_energy": -10.47, "internal_energy": -2.03, "cluster_size": 16, "cluster_id": 1, "rank_in_cluster": 8}

>  <energy>  (36) 
-8.1

>  <cluster_rmsd>  (36) 
0.78

>  <cluster>  (36) 
3

$$$$

     RDKit          3D

 57 60  0  0  0  0  0  0  0  0999 V2000
  140.2370   73.1530  220.3950 O   0  0  0  0  0  0  0  0  0  0  0  0
  139.9270   73.3440  221.6150 C   0  0  0  0  0  0  0  0  0  0  0  0
  139.6500   74.6470  222.1130 N   0  0  0  0  0  0  0  0  0  0  0  0
  139.7070   75.8070  221.2680 C   0  0  0  0  0  0  0  0  0  0  0  0
  138.9040   76.8940  221.8780 C   0  0  0  0  0  0  0  0  0  0  0  0
  138.4310   76.6890  223.0190 O   0  0  0  0  0  0  0  0  0  0  0  0
  138.7180   78.1000  221.1460 N   0  0  0  0  0  0  0  0  0  0  0  0
  138.4780   78.0650  219.6940 C   0  0  0  0  0  0  0  0  0  0  0  0
  139.6050   78.8730  219.0680 C   0  0  0  0  0  0  0  0  0  0  0  0
  139.4390   80.3020  219.5190 C   0  0  0  0  0  0  0  0  0  0  0  0
  139.6820   80.3480  221.0110 C   0  0  0  0  0  0  0  0  0  0  0  0
  138.7470   79.4140  221.7460 C   0  0  2  0  0  0  0  0  0  0  0  0
  139.0750   79.3990  223.2080 C   0  0  0  0  0  0  0  0  0  0  0  0
  140.5090   79.8280  223.3450 C   0  0  0  0  0  0  0  0  0  0  0  0
  140.8600   81.0700  223.8270 C   0  0  0  0  0  0  0  0  0  0  0  0
  142.1990   81.4480  223.9460 C   0  0  0  0  0  0  0  0  0  0  0  0
  143.1960   80.5700  223.5780 C   0  0  0  0  0  0  0  0  0  0  0  0
  142.8720   79.3220  223.0930 C   0  0  0  0  0  0  0  0  0  0  0  0
  141.5420   78.9830  222.9890 C   0  0  0  0  0  0  0  0  0  0  0  0
  139.8470   72.2170  222.5460 C   0  0  0  0  0  0  0  0  0  0  0  0
  139.2740   71.0210  222.1740 C   0  0  0  0  0  0  0  0  0  0  0  0
  139.1800   69.9340  223.0240 C   0  0  0  0  0  0  0  0  0  0  0  0
  139.6850   70.0690  224.2990 C   0  0  0  0  0  0  0  0  0  0  0  0
  139.6510   69.0590  225.2380 C   0  0  0  0  0  0  0  0  0  0  0  0
  140.1710   69.2330  226.5090 C   0  0  0  0  0  0  0  0  0  0  0  0
  140.1440   68.1550  227.5400 C   0  0  0  0  0  0  0  0  0  0  0  0
  139.6900   68.7030  228.7270 F   0  0  0  0  0  0  0  0  0  0  0  0
  141.3870   67.5750  227.6900 F   0  0  0  0  0  0  0  0  0  0  0  0
  139.2040   67.2040  227.1680 F   0  0  0  0  0  0  0  0  0  0  0  0
  140.7460   70.4420  226.8740 C   0  0  0  0  0  0  0  0  0  0  0  0
  140.7790   71.4570  225.9280 C   0  0  0  0  0  0  0  0  0  0  0  0
  140.2560   71.2660  224.6630 C   0  0  0  0  0  0  0  0  0  0  0  0
  140.3320   72.3000  223.8140 N   0  0  0  0  0  0  0  0  0  0  0  0
  139.3960   74.7510  223.1410 H   0  0  0  0  0  0  0  0  0  0  0  0
  140.7517   76.1353  221.1637 H   0  0  0  0  0  0  0  0  0  0  0  0
  139.3027   75.5613  220.2750 H   0  0  0  0  0  0  0  0  0  0  0  0
  138.5003   77.0283  219.3270 H   0  0  0  0  0  0  0  0  0  0  0  0
  137.4918   78.4787  219.4366 H   0  0  0  0  0  0  0  0  0  0  0  0
  140.5778   78.4836  219.4027 H   0  0  0  0  0  0  0  0  0  0  0  0
  139.5687   78.8051  217.9707 H   0  0  0  0  0  0  0  0  0  0  0  0
  140.1666   80.9445  219.0015 H   0  0  0  0  0  0  0  0  0  0  0  0
  138.4272   80.6638  219.2835 H   0  0  0  0  0  0  0  0  0  0  0  0
  140.7209   80.0494  221.2148 H   0  0  0  0  0  0  0  0  0  0  0  0
  139.4974   81.3738  221.3627 H   0  0  0  0  0  0  0  0  0  0  0  0
  137.7189   79.7938  221.6524 H   0  0  0  0  0  0  0  0  0  0  0  0
  138.4192   80.0972  223.7488 H   0  0  0  0  0  0  0  0  0  0  0  0
  138.9250   78.3952  223.6320 H   0  0  0  0  0  0  0  0  0  0  0  0
  140.0710   81.7768  224.1235 H   0  0  0  0  0  0  0  0  0  0  0  0
  142.4578   82.4447  224.3327 H   0  0  0  0  0  0  0  0  0  0  0  0
  144.2512   80.8662  223.6717 H   0  0  0  0  0  0  0  0  0  0  0  0
  143.6583   78.6125  222.7956 H   0  0  0  0  0  0  0  0  0  0  0  0
  141.2881   77.9853  222.6015 H   0  0  0  0  0  0  0  0  0  0  0  0
  138.8728   70.9260  221.1542 H   0  0  0  0  0  0  0  0  0  0  0  0
  138.7172   68.9925  222.6931 H   0  0  0  0  0  0  0  0  0  0  0  0
  139.1998   68.0921  224.9703 H   0  0  0  0  0  0  0  0  0  0  0  0
  141.1624   70.5912  227.8811 H   0  0  0  0  0  0  0  0  0  0  0  0
  141.2276   72.4269  226.1886 H   0  0  0  0  0  0  0  0  0  0  0  0
  1  2  2  0
  2  3  1  0
  3  4  1  0
  4  5  1  0
  5  6  2  0
  5  7  1  0
  7  8  1  0
  8  9  1  0
  9 10  1  0
 10 11  1  0
 11 12  1  0
 12 13  1  0
 13 14  1  0
 14 15  2  0
 15 16  1  0
 16 17  2  0
 17 18  1  0
 18 19  2  0
  2 20  1  0
 20 21  2  0
 21 22  1  0
 22 23  2  0
 23 24  1  0
 24 25  2  0
 25 26  1  0
 26 27  1  0
 26 28  1  0
 26 29  1  0
 25 30  1  0
 30 31  2  0
 31 32  1  0
 32 33  2  0
 12  7  1  0
 19 14  1  0
 33 20  1  0
 32 23  1  0
  3 34  1  0
  4 35  1  0
  4 36  1  0
  8 37  1  0
  8 38  1  0
  9 39  1  0
  9 40  1  0
 10 41  1  0
 10 42  1  0
 11 43  1  0
 11 44  1  0
 12 45  1  1
 13 46  1  0
 13 47  1  0
 15 48  1  0
 16 49  1  0
 17 50  1  0
 18 51  1  0
 19 52  1  0
 21 53  1  0
 22 54  1  0
 24 55  1  0
 30 56  1  0
 31 57  1  0
M  END
>  <smiles>  (37) 
O=C(NCC(=O)N1CCCCC1Cc1ccccc1)c1ccc2cc(C(F)(F)F)ccc2n1

>  <score_type>  (37) 
oracle

>  <origin>  (37) 
autodockgpu

>  <m_score__min__energy>  (37) 
-8.6199999999999992

>  <m_primary>  (37) 
energy

>  <rmsd>  (37) 
3.182998170055762

>  <m_score__min__rmsd>  (37) 
3.182998170055762

>  <meeko>  (37) 
{"free_energy": -8.09, "intermolecular_energy": -10.18, "internal_energy": -2.19, "cluster_size": 16, "cluster_id": 1, "rank_in_cluster": 9}

>  <energy>  (37) 
-8.08

>  <cluster_rmsd>  (37) 
1.36

>  <cluster>  (37) 
3

$$$$

     RDKit          3D

 57 60  0  0  0  0  0  0  0  0999 V2000
  133.9210   69.3440  226.5050 O   0  0  0  0  0  0  0  0  0  0  0  0
  134.3250   70.4660  226.0600 C   0  0  0  0  0  0  0  0  0  0  0  0
  135.4390   70.5550  225.1800 N   0  0  0  0  0  0  0  0  0  0  0  0
  136.1610   69.3880  224.7540 C   0  0  0  0  0  0  0  0  0  0  0  0
  136.8050   69.6620  223.4470 C   0  0  0  0  0  0  0  0  0  0  0  0
  136.6450   68.8140  222.5390 O   0  0  0  0  0  0  0  0  0  0  0  0
  137.5590   70.8580  223.2930 N   0  0  0  0  0  0  0  0  0  0  0  0
  137.0370   71.9740  222.4880 C   0  0  0  0  0  0  0  0  0  0  0  0
  138.0630   72.2070  221.3890 C   0  0  0  0  0  0  0  0  0  0  0  0
  139.3320   72.6830  222.0510 C   0  0  0  0  0  0  0  0  0  0  0  0
  139.8760   71.5420  222.8830 C   0  0  0  0  0  0  0  0  0  0  0  0
  138.8560   71.0710  223.8950 C   0  0  2  0  0  0  0  0  0  0  0  0
  139.3760   69.8770  224.6360 C   0  0  0  0  0  0  0  0  0  0  0  0
  139.9260   70.3730  225.9440 C   0  0  0  0  0  0  0  0  0  0  0  0
  139.7070   69.7090  227.1300 C   0  0  0  0  0  0  0  0  0  0  0  0
  140.2280   70.1870  228.3340 C   0  0  0  0  0  0  0  0  0  0  0  0
  140.9780   71.3450  228.3470 C   0  0  0  0  0  0  0  0  0  0  0  0
  141.2120   72.0270  227.1740 C   0  0  0  0  0  0  0  0  0  0  0  0
  140.6830   71.5270  226.0050 C   0  0  0  0  0  0  0  0  0  0  0  0
  133.6480   71.7050  226.4430 C   0  0  0  0  0  0  0  0  0  0  0  0
  132.4670   71.6860  227.1520 C   0  0  0  0  0  0  0  0  0  0  0  0
  131.7980   72.8340  227.5340 C   0  0  0  0  0  0  0  0  0  0  0  0
  132.3480   74.0470  227.1800 C   0  0  0  0  0  0  0  0  0  0  0  0
  131.7770   75.2620  227.5000 C   0  0  0  0  0  0  0  0  0  0  0  0
  132.3610   76.4590  227.1260 C   0  0  0  0  0  0  0  0  0  0  0  0
  131.7610   77.7820  227.4620 C   0  0  0  0  0  0  0  0  0  0  0  0
  132.7010   78.7630  227.1990 F   0  0  0  0  0  0  0  0  0  0  0  0
  131.3390   77.8220  228.7760 F   0  0  0  0  0  0  0  0  0  0  0  0
  130.6990   78.0230  226.6010 F   0  0  0  0  0  0  0  0  0  0  0  0
  133.5510   76.4680  226.4110 C   0  0  0  0  0  0  0  0  0  0  0  0
  134.1240   75.2460  226.0890 C   0  0  0  0  0  0  0  0  0  0  0  0
  133.5270   74.0590  226.4710 C   0  0  0  0  0  0  0  0  0  0  0  0
  134.1510   72.9270  226.1170 N   0  0  0  0  0  0  0  0  0  0  0  0
  135.7360   71.5170  224.8360 H   0  0  0  0  0  0  0  0  0  0  0  0
  136.9316   69.1401  225.4988 H   0  0  0  0  0  0  0  0  0  0  0  0
  135.4667   68.5408  224.6530 H   0  0  0  0  0  0  0  0  0  0  0  0
  136.0623   71.7091  222.0523 H   0  0  0  0  0  0  0  0  0  0  0  0
  136.8844   72.8767  223.0978 H   0  0  0  0  0  0  0  0  0  0  0  0
  138.2513   71.2695  220.8453 H   0  0  0  0  0  0  0  0  0  0  0  0
  137.6975   72.9529  220.6679 H   0  0  0  0  0  0  0  0  0  0  0  0
  140.0675   72.9720  221.2858 H   0  0  0  0  0  0  0  0  0  0  0  0
  139.1293   73.5585  222.6854 H   0  0  0  0  0  0  0  0  0  0  0  0
  140.1356   70.7048  222.2184 H   0  0  0  0  0  0  0  0  0  0  0  0
  140.7658   71.8972  223.4234 H   0  0  0  0  0  0  0  0  0  0  0  0
  138.6995   71.8666  224.6383 H   0  0  0  0  0  0  0  0  0  0  0  0
  138.5609   69.1608  224.8168 H   0  0  0  0  0  0  0  0  0  0  0  0
  140.1551   69.3637  224.0534 H   0  0  0  0  0  0  0  0  0  0  0  0
  139.1105   68.7848  227.1290 H   0  0  0  0  0  0  0  0  0  0  0  0
  140.0408   69.6413  229.2706 H   0  0  0  0  0  0  0  0  0  0  0  0
  141.3890   71.7234  229.2946 H   0  0  0  0  0  0  0  0  0  0  0  0
  141.8086   72.9512  227.1707 H   0  0  0  0  0  0  0  0  0  0  0  0
  140.8732   72.0754  225.0706 H   0  0  0  0  0  0  0  0  0  0  0  0
  132.0362   70.7120  227.4270 H   0  0  0  0  0  0  0  0  0  0  0  0
  130.8575   72.7809  228.1019 H   0  0  0  0  0  0  0  0  0  0  0  0
  130.8342   75.2790  228.0664 H   0  0  0  0  0  0  0  0  0  0  0  0
  134.0246   77.4139  226.1093 H   0  0  0  0  0  0  0  0  0  0  0  0
  135.0663   75.2214  225.5220 H   0  0  0  0  0  0  0  0  0  0  0  0
  1  2  2  0
  2  3  1  0
  3  4  1  0
  4  5  1  0
  5  6  2  0
  5  7  1  0
  7  8  1  0
  8  9  1  0
  9 10  1  0
 10 11  1  0
 11 12  1  0
 12 13  1  0
 13 14  1  0
 14 15  2  0
 15 16  1  0
 16 17  2  0
 17 18  1  0
 18 19  2  0
  2 20  1  0
 20 21  2  0
 21 22  1  0
 22 23  2  0
 23 24  1  0
 24 25  2  0
 25 26  1  0
 26 27  1  0
 26 28  1  0
 26 29  1  0
 25 30  1  0
 30 31  2  0
 31 32  1  0
 32 33  2  0
 12  7  1  0
 19 14  1  0
 33 20  1  0
 32 23  1  0
  3 34  1  0
  4 35  1  0
  4 36  1  0
  8 37  1  0
  8 38  1  0
  9 39  1  0
  9 40  1  0
 10 41  1  0
 10 42  1  0
 11 43  1  0
 11 44  1  0
 12 45  1  1
 13 46  1  0
 13 47  1  0
 15 48  1  0
 16 49  1  0
 17 50  1  0
 18 51  1  0
 19 52  1  0
 21 53  1  0
 22 54  1  0
 24 55  1  0
 30 56  1  0
 31 57  1  0
M  END
>  <smiles>  (38) 
O=C(NCC(=O)N1CCCCC1Cc1ccccc1)c1ccc2cc(C(F)(F)F)ccc2n1

>  <score_type>  (38) 
oracle

>  <origin>  (38) 
autodockgpu

>  <m_score__min__energy>  (38) 
-8.6199999999999992

>  <m_primary>  (38) 
energy

>  <rmsd>  (38) 
7.817677387946113

>  <m_score__min__rmsd>  (38) 
7.817677387946113

>  <meeko>  (38) 
{"free_energy": -8.42, "intermolecular_energy": -10.5, "internal_energy": -1.94, "cluster_size": 13, "cluster_id": 3, "rank_in_cluster": 1}

>  <energy>  (38) 
-7.96

>  <cluster_rmsd>  (38) 
1.36

>  <cluster>  (38) 
3

$$$$

     RDKit          3D

 57 60  0  0  0  0  0  0  0  0999 V2000
  138.6420   72.1890  220.5880 O   0  0  0  0  0  0  0  0  0  0  0  0
  139.3650   72.5070  221.5860 C   0  0  0  0  0  0  0  0  0  0  0  0
  140.0470   73.7550  221.6390 N   0  0  0  0  0  0  0  0  0  0  0  0
  139.9540   74.7120  220.5720 C   0  0  0  0  0  0  0  0  0  0  0  0
  140.8300   75.8680  220.8770 C   0  0  0  0  0  0  0  0  0  0  0  0
  141.4570   75.8440  221.9620 O   0  0  0  0  0  0  0  0  0  0  0  0
  140.9150   76.9300  219.9340 N   0  0  0  0  0  0  0  0  0  0  0  0
  141.5050   76.7070  218.6050 C   0  0  0  0  0  0  0  0  0  0  0  0
  142.6750   77.6740  218.5030 C   0  0  0  0  0  0  0  0  0  0  0  0
  142.1070   79.0710  218.5160 C   0  0  0  0  0  0  0  0  0  0  0  0
  141.4950   79.3100  219.8790 C   0  0  0  0  0  0  0  0  0  0  0  0
  140.4430   78.2710  220.1940 C   0  0  2  0  0  0  0  0  0  0  0  0
  139.9250   78.4660  221.5870 C   0  0  0  0  0  0  0  0  0  0  0  0
  140.8860   79.3820  222.2920 C   0  0  0  0  0  0  0  0  0  0  0  0
  142.0590   78.9250  222.8510 C   0  0  0  0  0  0  0  0  0  0  0  0
  142.9370   79.7950  223.5020 C   0  0  0  0  0  0  0  0  0  0  0  0
  142.6340   81.1370  223.5920 C   0  0  0  0  0  0  0  0  0  0  0  0
  141.4670   81.6200  223.0410 C   0  0  0  0  0  0  0  0  0  0  0  0
  140.6240   80.7340  222.4070 C   0  0  0  0  0  0  0  0  0  0  0  0
  139.5150   71.5900  222.7170 C   0  0  0  0  0  0  0  0  0  0  0  0
  139.0420   70.2980  222.6580 C   0  0  0  0  0  0  0  0  0  0  0  0
  139.1650   69.4020  223.7040 C   0  0  0  0  0  0  0  0  0  0  0  0
  139.7910   69.8360  224.8520 C   0  0  0  0  0  0  0  0  0  0  0  0
  139.9750   69.0380  225.9630 C   0  0  0  0  0  0  0  0  0  0  0  0
  140.6100   69.5110  227.0980 C   0  0  0  0  0  0  0  0  0  0  0  0
  140.8190   68.6660  228.3090 C   0  0  0  0  0  0  0  0  0  0  0  0
  141.1730   67.3950  227.8930 F   0  0  0  0  0  0  0  0  0  0  0  0
  139.6910   68.6450  229.1050 F   0  0  0  0  0  0  0  0  0  0  0  0
  141.9060   69.1590  229.0170 F   0  0  0  0  0  0  0  0  0  0  0  0
  141.0830   70.8150  227.1480 C   0  0  0  0  0  0  0  0  0  0  0  0
  140.8980   71.6160  226.0300 C   0  0  0  0  0  0  0  0  0  0  0  0
  140.2610   71.1270  224.9030 C   0  0  0  0  0  0  0  0  0  0  0  0
  140.1260   71.9710  223.8710 N   0  0  0  0  0  0  0  0  0  0  0  0
  140.6380   73.9710  222.4970 H   0  0  0  0  0  0  0  0  0  0  0  0
  140.2760   74.2449  219.6296 H   0  0  0  0  0  0  0  0  0  0  0  0
  138.9132   75.0533  220.4711 H   0  0  0  0  0  0  0  0  0  0  0  0
  141.8568   75.6690  218.5114 H   0  0  0  0  0  0  0  0  0  0  0  0
  140.7708   76.8740  217.8031 H   0  0  0  0  0  0  0  0  0  0  0  0
  143.3529   77.5357  219.3582 H   0  0  0  0  0  0  0  0  0  0  0  0
  143.2474   77.4957  217.5807 H   0  0  0  0  0  0  0  0  0  0  0  0
  142.9080   79.8021  218.3323 H   0  0  0  0  0  0  0  0  0  0  0  0
  141.3468   79.1835  217.7289 H   0  0  0  0  0  0  0  0  0  0  0  0
  142.2865   79.2622  220.6414 H   0  0  0  0  0  0  0  0  0  0  0  0
  141.0176   80.3010  219.8783 H   0  0  0  0  0  0  0  0  0  0  0  0
  139.5907   78.4102  219.5127 H   0  0  0  0  0  0  0  0  0  0  0  0
  138.9237   78.9204  221.5570 H   0  0  0  0  0  0  0  0  0  0  0  0
  139.8445   77.5033  222.1130 H   0  0  0  0  0  0  0  0  0  0  0  0
  142.3089   77.8559  222.7836 H   0  0  0  0  0  0  0  0  0  0  0  0
  143.8687   79.4099  223.9421 H   0  0  0  0  0  0  0  0  0  0  0  0
  143.3247   81.8230  224.1043 H   0  0  0  0  0  0  0  0  0  0  0  0
  141.2143   82.6886  223.1059 H   0  0  0  0  0  0  0  0  0  0  0  0
  139.6930   81.1233  221.9691 H   0  0  0  0  0  0  0  0  0  0  0  0
  138.5434   69.9634  221.7364 H   0  0  0  0  0  0  0  0  0  0  0  0
  138.7758   68.3764  223.6222 H   0  0  0  0  0  0  0  0  0  0  0  0
  139.6081   68.0011  225.9459 H   0  0  0  0  0  0  0  0  0  0  0  0
  141.5885   71.2012  228.0454 H   0  0  0  0  0  0  0  0  0  0  0  0
  141.2627   72.6537  226.0398 H   0  0  0  0  0  0  0  0  0  0  0  0
  1  2  2  0
  2  3  1  0
  3  4  1  0
  4  5  1  0
  5  6  2  0
  5  7  1  0
  7  8  1  0
  8  9  1  0
  9 10  1  0
 10 11  1  0
 11 12  1  0
 12 13  1  0
 13 14  1  0
 14 15  2  0
 15 16  1  0
 16 17  2  0
 17 18  1  0
 18 19  2  0
  2 20  1  0
 20 21  2  0
 21 22  1  0
 22 23  2  0
 23 24  1  0
 24 25  2  0
 25 26  1  0
 26 27  1  0
 26 28  1  0
 26 29  1  0
 25 30  1  0
 30 31  2  0
 31 32  1  0
 32 33  2  0
 12  7  1  0
 19 14  1  0
 33 20  1  0
 32 23  1  0
  3 34  1  0
  4 35  1  0
  4 36  1  0
  8 37  1  0
  8 38  1  0
  9 39  1  0
  9 40  1  0
 10 41  1  0
 10 42  1  0
 11 43  1  0
 11 44  1  0
 12 45  1  6
 13 46  1  0
 13 47  1  0
 15 48  1  0
 16 49  1  0
 17 50  1  0
 18 51  1  0
 19 52  1  0
 21 53  1  0
 22 54  1  0
 24 55  1  0
 30 56  1  0
 31 57  1  0
M  END
>  <smiles>  (39) 
O=C(NCC(=O)N1CCCCC1Cc1ccccc1)c1ccc2cc(C(F)(F)F)ccc2n1

>  <score_type>  (39) 
oracle

>  <origin>  (39) 
autodockgpu

>  <m_score__min__energy>  (39) 
-8.6199999999999992

>  <m_primary>  (39) 
energy

>  <rmsd>  (39) 
2.2486845653620446

>  <m_score__min__rmsd>  (39) 
2.2486845653620446

>  <meeko>  (39) 
{"free_energy": -7.79, "intermolecular_energy": -9.87, "internal_energy": -2.31, "cluster_size": 16, "cluster_id": 1, "rank_in_cluster": 14}

>  <energy>  (39) 
-7.95

>  <cluster_rmsd>  (39) 
1.1

>  <cluster>  (39) 
3

$$$$

     RDKit          3D

 57 60  0  0  0  0  0  0  0  0999 V2000
  140.7070   73.3450  220.4850 O   0  0  0  0  0  0  0  0  0  0  0  0
  140.2190   73.5250  221.6470 C   0  0  0  0  0  0  0  0  0  0  0  0
  139.8830   74.8250  222.1160 N   0  0  0  0  0  0  0  0  0  0  0  0
  140.0770   75.9950  221.3060 C   0  0  0  0  0  0  0  0  0  0  0  0
  139.9860   77.2020  222.1610 C   0  0  0  0  0  0  0  0  0  0  0  0
  138.8870   77.4300  222.7170 O   0  0  0  0  0  0  0  0  0  0  0  0
  141.1360   78.0270  222.3050 N   0  0  0  0  0  0  0  0  0  0  0  0
  141.7250   78.2660  223.6320 C   0  0  0  0  0  0  0  0  0  0  0  0
  141.6800   79.7730  223.8400 C   0  0  0  0  0  0  0  0  0  0  0  0
  142.5990   80.3960  222.8190 C   0  0  0  0  0  0  0  0  0  0  0  0
  142.0030   80.1530  221.4500 C   0  0  0  0  0  0  0  0  0  0  0  0
  141.7990   78.6770  221.1970 C   0  0  2  0  0  0  0  0  0  0  0  0
  141.1140   78.4670  219.8810 C   0  0  0  0  0  0  0  0  0  0  0  0
  142.0130   77.5960  219.0470 C   0  0  0  0  0  0  0  0  0  0  0  0
  142.1890   77.8050  217.6980 C   0  0  0  0  0  0  0  0  0  0  0  0
  143.0290   76.9840  216.9420 C   0  0  0  0  0  0  0  0  0  0  0  0
  143.6990   75.9430  217.5490 C   0  0  0  0  0  0  0  0  0  0  0  0
  143.5400   75.7130  218.8980 C   0  0  0  0  0  0  0  0  0  0  0  0
  142.7040   76.5420  219.6110 C   0  0  0  0  0  0  0  0  0  0  0  0
  139.9880   72.3880  222.5400 C   0  0  0  0  0  0  0  0  0  0  0  0
  139.0800   71.4020  222.2230 C   0  0  0  0  0  0  0  0  0  0  0  0
  138.8350   70.3130  223.0390 C   0  0  0  0  0  0  0  0  0  0  0  0
  139.5380   70.2230  224.2210 C   0  0  0  0  0  0  0  0  0  0  0  0
  139.3820   69.1870  225.1180 C   0  0  0  0  0  0  0  0  0  0  0  0
  140.1080   69.1330  226.2950 C   0  0  0  0  0  0  0  0  0  0  0  0
  139.9550   68.0220  227.2790 C   0  0  0  0  0  0  0  0  0  0  0  0
  139.0350   67.1200  226.7740 F   0  0  0  0  0  0  0  0  0  0  0  0
  139.5740   68.4990  228.5170 F   0  0  0  0  0  0  0  0  0  0  0  0
  141.1590   67.3360  227.3700 F   0  0  0  0  0  0  0  0  0  0  0  0
  141.0210   70.1310  226.6060 C   0  0  0  0  0  0  0  0  0  0  0  0
  141.1760   71.1730  225.7020 C   0  0  0  0  0  0  0  0  0  0  0  0
  140.4430   71.2110  224.5300 C   0  0  0  0  0  0  0  0  0  0  0  0
  140.6570   72.2540  223.7170 N   0  0  0  0  0  0  0  0  0  0  0  0
  139.4780   74.9190  223.0960 H   0  0  0  0  0  0  0  0  0  0  0  0
  141.0690   75.9539  220.8324 H   0  0  0  0  0  0  0  0  0  0  0  0
  139.3025   76.0362  220.5259 H   0  0  0  0  0  0  0  0  0  0  0  0
  141.1385   77.7543  224.4093 H   0  0  0  0  0  0  0  0  0  0  0  0
  142.7528   77.8791  223.6945 H   0  0  0  0  0  0  0  0  0  0  0  0
  140.6536   80.1420  223.6970 H   0  0  0  0  0  0  0  0  0  0  0  0
  141.9980   80.0343  224.8601 H   0  0  0  0  0  0  0  0  0  0  0  0
  142.6847   81.4771  223.0032 H   0  0  0  0  0  0  0  0  0  0  0  0
  143.6033   79.9520  222.8848 H   0  0  0  0  0  0  0  0  0  0  0  0
  141.0320   80.6657  221.3852 H   0  0  0  0  0  0  0  0  0  0  0  0
  142.6989   80.5433  220.6928 H   0  0  0  0  0  0  0  0  0  0  0  0
  142.7827   78.1897  221.1270 H   0  0  0  0  0  0  0  0  0  0  0  0
  140.1449   77.9701  220.0354 H   0  0  0  0  0  0  0  0  0  0  0  0
  140.9264   79.4282  219.3801 H   0  0  0  0  0  0  0  0  0  0  0  0
  141.6585   78.6337  217.2062 H   0  0  0  0  0  0  0  0  0  0  0  0
  143.1557   77.1676  215.8649 H   0  0  0  0  0  0  0  0  0  0  0  0
  144.3612   75.2955  216.9555 H   0  0  0  0  0  0  0  0  0  0  0  0
  144.0690   74.8858  219.3939 H   0  0  0  0  0  0  0  0  0  0  0  0
  142.5797   76.3548  220.6878 H   0  0  0  0  0  0  0  0  0  0  0  0
  138.5243   71.4847  221.2773 H   0  0  0  0  0  0  0  0  0  0  0  0
  138.1026   69.5433  222.7540 H   0  0  0  0  0  0  0  0  0  0  0  0
  138.6638   68.3849  224.8926 H   0  0  0  0  0  0  0  0  0  0  0  0
  141.6030   70.0974  227.5388 H   0  0  0  0  0  0  0  0  0  0  0  0
  141.8915   71.9793  225.9209 H   0  0  0  0  0  0  0  0  0  0  0  0
  1  2  2  0
  2  3  1  0
  3  4  1  0
  4  5  1  0
  5  6  2  0
  5  7  1  0
  7  8  1  0
  8  9  1  0
  9 10  1  0
 10 11  1  0
 11 12  1  0
 12 13  1  0
 13 14  1  0
 14 15  2  0
 15 16  1  0
 16 17  2  0
 17 18  1  0
 18 19  2  0
  2 20  1  0
 20 21  2  0
 21 22  1  0
 22 23  2  0
 23 24  1  0
 24 25  2  0
 25 26  1  0
 26 27  1  0
 26 28  1  0
 26 29  1  0
 25 30  1  0
 30 31  2  0
 31 32  1  0
 32 33  2  0
 12  7  1  0
 19 14  1  0
 33 20  1  0
 32 23  1  0
  3 34  1  0
  4 35  1  0
  4 36  1  0
  8 37  1  0
  8 38  1  0
  9 39  1  0
  9 40  1  0
 10 41  1  0
 10 42  1  0
 11 43  1  0
 11 44  1  0
 12 45  1  6
 13 46  1  0
 13 47  1  0
 15 48  1  0
 16 49  1  0
 17 50  1  0
 18 51  1  0
 19 52  1  0
 21 53  1  0
 22 54  1  0
 24 55  1  0
 30 56  1  0
 31 57  1  0
M  END
>  <smiles>  (40) 
O=C(NCC(=O)N1CCCCC1Cc1ccccc1)c1ccc2cc(C(F)(F)F)ccc2n1

>  <score_type>  (40) 
oracle

>  <origin>  (40) 
autodockgpu

>  <m_score__min__energy>  (40) 
-8.6199999999999992

>  <m_primary>  (40) 
energy

>  <rmsd>  (40) 
3.717342725450846

>  <m_score__min__rmsd>  (40) 
3.717342725450846

>  <meeko>  (40) 
{"free_energy": -8.49, "intermolecular_energy": -10.58, "internal_energy": -1.76, "cluster_size": 13, "cluster_id": 2, "rank_in_cluster": 2}

>  <energy>  (40) 
-7.91

>  <cluster_rmsd>  (40) 
0.99

>  <cluster>  (40) 
3

$$$$

     RDKit          3D

 57 60  0  0  0  0  0  0  0  0999 V2000
  139.9170   73.0770  220.3100 O   0  0  0  0  0  0  0  0  0  0  0  0
  139.7720   73.3140  221.5520 C   0  0  0  0  0  0  0  0  0  0  0  0
  139.6750   74.6440  222.0450 N   0  0  0  0  0  0  0  0  0  0  0  0
  139.7390   75.7810  221.1700 C   0  0  0  0  0  0  0  0  0  0  0  0
  140.9070   76.6160  221.5390 C   0  0  0  0  0  0  0  0  0  0  0  0
  141.1530   76.7530  222.7600 O   0  0  0  0  0  0  0  0  0  0  0  0
  141.6790   77.2090  220.5020 N   0  0  0  0  0  0  0  0  0  0  0  0
  141.8560   78.6690  220.4410 C   0  0  0  0  0  0  0  0  0  0  0  0
  141.2970   79.0990  219.0930 C   0  0  0  0  0  0  0  0  0  0  0  0
  142.1750   78.4920  218.0270 C   0  0  0  0  0  0  0  0  0  0  0  0
  142.0020   76.9910  218.0830 C   0  0  0  0  0  0  0  0  0  0  0  0
  142.3320   76.4540  219.4570 C   0  0  2  0  0  0  0  0  0  0  0  0
  142.0550   74.9820  219.5180 C   0  0  0  0  0  0  0  0  0  0  0  0
  143.2780   74.3240  220.0930 C   0  0  0  0  0  0  0  0  0  0  0  0
  143.3000   72.9910  220.4360 C   0  0  0  0  0  0  0  0  0  0  0  0
  144.4480   72.4000  220.9690 C   0  0  0  0  0  0  0  0  0  0  0  0
  145.5850   73.1560  221.1590 C   0  0  0  0  0  0  0  0  0  0  0  0
  145.5890   74.4920  220.8240 C   0  0  0  0  0  0  0  0  0  0  0  0
  144.4400   75.0420  220.3010 C   0  0  0  0  0  0  0  0  0  0  0  0
  139.6970   72.2140  222.5140 C   0  0  0  0  0  0  0  0  0  0  0  0
  138.9600   71.0810  222.2510 C   0  0  0  0  0  0  0  0  0  0  0  0
  138.8650   70.0210  223.1340 C   0  0  0  0  0  0  0  0  0  0  0  0
  139.5450   70.1160  224.3280 C   0  0  0  0  0  0  0  0  0  0  0  0
  139.5300   69.1270  225.2910 C   0  0  0  0  0  0  0  0  0  0  0  0
  140.2270   69.2600  226.4780 C   0  0  0  0  0  0  0  0  0  0  0  0
  140.2240   68.2040  227.5320 C   0  0  0  0  0  0  0  0  0  0  0  0
  139.2560   67.2700  227.2030 F   0  0  0  0  0  0  0  0  0  0  0  0
  140.0050   68.7450  228.7820 F   0  0  0  0  0  0  0  0  0  0  0  0
  141.4380   67.5330  227.4960 F   0  0  0  0  0  0  0  0  0  0  0  0
  140.9670   70.4060  226.7350 C   0  0  0  0  0  0  0  0  0  0  0  0
  140.9820   71.4000  225.7670 C   0  0  0  0  0  0  0  0  0  0  0  0
  140.2800   71.2500  224.5840 C   0  0  0  0  0  0  0  0  0  0  0  0
  140.3500   72.2600  223.7070 N   0  0  0  0  0  0  0  0  0  0  0  0
  139.5540   74.7870  223.0930 H   0  0  0  0  0  0  0  0  0  0  0  0
  139.8453   75.4391  220.1299 H   0  0  0  0  0  0  0  0  0  0  0  0
  138.8169   76.3730  221.2659 H   0  0  0  0  0  0  0  0  0  0  0  0
  141.3033   79.1562  221.2578 H   0  0  0  0  0  0  0  0  0  0  0  0
  142.9130   78.9533  220.5500 H   0  0  0  0  0  0  0  0  0  0  0  0
  140.2644   78.7366  218.9811 H   0  0  0  0  0  0  0  0  0  0  0  0
  141.2854   80.1957  219.0090 H   0  0  0  0  0  0  0  0  0  0  0  0
  141.8746   78.8664  217.0372 H   0  0  0  0  0  0  0  0  0  0  0  0
  143.2274   78.7634  218.1964 H   0  0  0  0  0  0  0  0  0  0  0  0
  140.9586   76.7407  217.8409 H   0  0  0  0  0  0  0  0  0  0  0  0
  142.6890   76.5336  217.3558 H   0  0  0  0  0  0  0  0  0  0  0  0
  143.4087   76.5853  219.6398 H   0  0  0  0  0  0  0  0  0  0  0  0
  141.1846   74.7885  220.1622 H   0  0  0  0  0  0  0  0  0  0  0  0
  141.8314   74.5845  218.5170 H   0  0  0  0  0  0  0  0  0  0  0  0
  142.3973   72.3802  220.2877 H   0  0  0  0  0  0  0  0  0  0  0  0
  144.4448   71.3331  221.2367 H   0  0  0  0  0  0  0  0  0  0  0  0
  146.4898   72.6919  221.5785 H   0  0  0  0  0  0  0  0  0  0  0  0
  146.4899   75.1059  220.9710 H   0  0  0  0  0  0  0  0  0  0  0  0
  144.4477   76.1093  220.0348 H   0  0  0  0  0  0  0  0  0  0  0  0
  138.4217   71.0160  221.2939 H   0  0  0  0  0  0  0  0  0  0  0  0
  138.2660   69.1311  222.8908 H   0  0  0  0  0  0  0  0  0  0  0  0
  138.9493   68.2105  225.1097 H   0  0  0  0  0  0  0  0  0  0  0  0
  141.5240   70.5224  227.6764 H   0  0  0  0  0  0  0  0  0  0  0  0
  141.5597   72.3195  225.9424 H   0  0  0  0  0  0  0  0  0  0  0  0
  1  2  2  0
  2  3  1  0
  3  4  1  0
  4  5  1  0
  5  6  2  0
  5  7  1  0
  7  8  1  0
  8  9  1  0
  9 10  1  0
 10 11  1  0
 11 12  1  0
 12 13  1  0
 13 14  1  0
 14 15  2  0
 15 16  1  0
 16 17  2  0
 17 18  1  0
 18 19  2  0
  2 20  1  0
 20 21  2  0
 21 22  1  0
 22 23  2  0
 23 24  1  0
 24 25  2  0
 25 26  1  0
 26 27  1  0
 26 28  1  0
 26 29  1  0
 25 30  1  0
 30 31  2  0
 31 32  1  0
 32 33  2  0
 12  7  1  0
 19 14  1  0
 33 20  1  0
 32 23  1  0
  3 34  1  0
  4 35  1  0
  4 36  1  0
  8 37  1  0
  8 38  1  0
  9 39  1  0
  9 40  1  0
 10 41  1  0
 10 42  1  0
 11 43  1  0
 11 44  1  0
 12 45  1  1
 13 46  1  0
 13 47  1  0
 15 48  1  0
 16 49  1  0
 17 50  1  0
 18 51  1  0
 19 52  1  0
 21 53  1  0
 22 54  1  0
 24 55  1  0
 30 56  1  0
 31 57  1  0
M  END
>  <smiles>  (41) 
O=C(NCC(=O)N1CCCCC1Cc1ccccc1)c1ccc2cc(C(F)(F)F)ccc2n1

>  <score_type>  (41) 
oracle

>  <origin>  (41) 
autodockgpu

>  <m_score__min__energy>  (41) 
-8.6199999999999992

>  <m_primary>  (41) 
energy

>  <rmsd>  (41) 
2.7576170980009778

>  <m_score__min__rmsd>  (41) 
2.7576170980009778

>  <meeko>  (41) 
{"free_energy": -8.15, "intermolecular_energy": -10.24, "internal_energy": -2.27, "cluster_size": 13, "cluster_id": 2, "rank_in_cluster": 11}

>  <energy>  (41) 
-7.77

>  <cluster_rmsd>  (41) 
1.73

>  <cluster>  (41) 
3

$$$$

     RDKit          3D

 57 60  0  0  0  0  0  0  0  0999 V2000
  139.5000   72.6130  220.2170 O   0  0  0  0  0  0  0  0  0  0  0  0
  140.2010   72.7870  221.2650 C   0  0  0  0  0  0  0  0  0  0  0  0
  141.1780   73.8180  221.3390 N   0  0  0  0  0  0  0  0  0  0  0  0
  141.4220   74.7090  220.2390 C   0  0  0  0  0  0  0  0  0  0  0  0
  140.2940   75.6640  220.1250 C   0  0  0  0  0  0  0  0  0  0  0  0
  139.9300   75.9880  218.9710 O   0  0  0  0  0  0  0  0  0  0  0  0
  139.6900   76.1560  221.3150 N   0  0  0  0  0  0  0  0  0  0  0  0
  138.4470   75.5580  221.8270 C   0  0  0  0  0  0  0  0  0  0  0  0
  137.4300   76.6880  221.8700 C   0  0  0  0  0  0  0  0  0  0  0  0
  137.9080   77.6850  222.8970 C   0  0  0  0  0  0  0  0  0  0  0  0
  139.1880   78.3050  222.3810 C   0  0  0  0  0  0  0  0  0  0  0  0
  140.2300   77.2470  222.0950 C   0  0  2  0  0  0  0  0  0  0  0  0
  141.4490   77.8730  221.4880 C   0  0  0  0  0  0  0  0  0  0  0  0
  141.7180   79.1440  222.2460 C   0  0  0  0  0  0  0  0  0  0  0  0
  142.2080   79.1400  223.5320 C   0  0  0  0  0  0  0  0  0  0  0  0
  142.4510   80.3330  224.2170 C   0  0  0  0  0  0  0  0  0  0  0  0
  142.1980   81.5420  223.6020 C   0  0  0  0  0  0  0  0  0  0  0  0
  141.7080   81.5720  222.3150 C   0  0  0  0  0  0  0  0  0  0  0  0
  141.4800   80.3770  221.6710 C   0  0  0  0  0  0  0  0  0  0  0  0
  140.0190   71.9240  222.4330 C   0  0  0  0  0  0  0  0  0  0  0  0
  139.2210   70.8030  222.3770 C   0  0  0  0  0  0  0  0  0  0  0  0
  139.0240   69.9620  223.4570 C   0  0  0  0  0  0  0  0  0  0  0  0
  139.6600   70.2750  224.6390 C   0  0  0  0  0  0  0  0  0  0  0  0
  139.5440   69.5170  225.7860 C   0  0  0  0  0  0  0  0  0  0  0  0
  140.1990   69.8640  226.9540 C   0  0  0  0  0  0  0  0  0  0  0  0
  140.0870   69.0590  228.2050 C   0  0  0  0  0  0  0  0  0  0  0  0
  139.6760   67.7830  227.8620 F   0  0  0  0  0  0  0  0  0  0  0  0
  139.2200   69.6490  229.1030 F   0  0  0  0  0  0  0  0  0  0  0  0
  141.3490   68.9220  228.7640 F   0  0  0  0  0  0  0  0  0  0  0  0
  141.0000   70.9970  227.0010 C   0  0  0  0  0  0  0  0  0  0  0  0
  141.1170   71.7580  225.8470 C   0  0  0  0  0  0  0  0  0  0  0  0
  140.4550   71.3960  224.6880 C   0  0  0  0  0  0  0  0  0  0  0  0
  140.6250   72.1900  223.6220 N   0  0  0  0  0  0  0  0  0  0  0  0
  141.7370   73.9210  222.2390 H   0  0  0  0  0  0  0  0  0  0  0  0
  142.3563   75.2625  220.4143 H   0  0  0  0  0  0  0  0  0  0  0  0
  141.5114   74.1303  219.3078 H   0  0  0  0  0  0  0  0  0  0  0  0
  138.1022   74.7578  221.1556 H   0  0  0  0  0  0  0  0  0  0  0  0
  138.5937   75.1076  222.8198 H   0  0  0  0  0  0  0  0  0  0  0  0
  137.3599   77.1688  220.8831 H   0  0  0  0  0  0  0  0  0  0  0  0
  136.4336   76.3045  222.1347 H   0  0  0  0  0  0  0  0  0  0  0  0
  137.1468   78.4655  223.0430 H   0  0  0  0  0  0  0  0  0  0  0  0
  138.0847   77.1871  223.8618 H   0  0  0  0  0  0  0  0  0  0  0  0
  138.9718   78.8559  221.4538 H   0  0  0  0  0  0  0  0  0  0  0  0
  139.5823   78.9837  223.1516 H   0  0  0  0  0  0  0  0  0  0  0  0
  140.5435   76.7906  223.0455 H   0  0  0  0  0  0  0  0  0  0  0  0
  142.3076   77.1913  221.5778 H   0  0  0  0  0  0  0  0  0  0  0  0
  141.2914   78.0806  220.4193 H   0  0  0  0  0  0  0  0  0  0  0  0
  142.4119   78.1803  224.0294 H   0  0  0  0  0  0  0  0  0  0  0  0
  142.8432   80.3086  225.2444 H   0  0  0  0  0  0  0  0  0  0  0  0
  142.3877   82.4826  224.1399 H   0  0  0  0  0  0  0  0  0  0  0  0
  141.5035   82.5293  221.8132 H   0  0  0  0  0  0  0  0  0  0  0  0
  141.0874   80.4056  220.6439 H   0  0  0  0  0  0  0  0  0  0  0  0
  138.7166   70.5654  221.4288 H   0  0  0  0  0  0  0  0  0  0  0  0
  138.3813   69.0730  223.3754 H   0  0  0  0  0  0  0  0  0  0  0  0
  138.9152   68.6145  225.7713 H   0  0  0  0  0  0  0  0  0  0  0  0
  141.5254   71.2823  227.9243 H   0  0  0  0  0  0  0  0  0  0  0  0
  141.7447   72.6613  225.8539 H   0  0  0  0  0  0  0  0  0  0  0  0
  1  2  2  0
  2  3  1  0
  3  4  1  0
  4  5  1  0
  5  6  2  0
  5  7  1  0
  7  8  1  0
  8  9  1  0
  9 10  1  0
 10 11  1  0
 11 12  1  0
 12 13  1  0
 13 14  1  0
 14 15  2  0
 15 16  1  0
 16 17  2  0
 17 18  1  0
 18 19  2  0
  2 20  1  0
 20 21  2  0
 21 22  1  0
 22 23  2  0
 23 24  1  0
 24 25  2  0
 25 26  1  0
 26 27  1  0
 26 28  1  0
 26 29  1  0
 25 30  1  0
 30 31  2  0
 31 32  1  0
 32 33  2  0
 12  7  1  0
 19 14  1  0
 33 20  1  0
 32 23  1  0
  3 34  1  0
  4 35  1  0
  4 36  1  0
  8 37  1  0
  8 38  1  0
  9 39  1  0
  9 40  1  0
 10 41  1  0
 10 42  1  0
 11 43  1  0
 11 44  1  0
 12 45  1  1
 13 46  1  0
 13 47  1  0
 15 48  1  0
 16 49  1  0
 17 50  1  0
 18 51  1  0
 19 52  1  0
 21 53  1  0
 22 54  1  0
 24 55  1  0
 30 56  1  0
 31 57  1  0
M  END
>  <smiles>  (42) 
O=C(NCC(=O)N1CCCCC1Cc1ccccc1)c1ccc2cc(C(F)(F)F)ccc2n1

>  <score_type>  (42) 
oracle

>  <origin>  (42) 
autodockgpu

>  <m_score__min__energy>  (42) 
-8.6199999999999992

>  <m_primary>  (42) 
energy

>  <rmsd>  (42) 
2.9723481487839

>  <m_score__min__rmsd>  (42) 
2.9723481487839

>  <meeko>  (42) 
{"free_energy": -7.88, "intermolecular_energy": -9.97, "internal_energy": -2.07, "cluster_size": 16, "cluster_id": 1, "rank_in_cluster": 12}

>  <energy>  (42) 
-7.43

>  <cluster_rmsd>  (42) 
1.49

>  <cluster>  (42) 
3

$$$$

     RDKit          3D

 57 60  0  0  0  0  0  0  0  0999 V2000
  142.4290   73.3980  219.7270 O   0  0  0  0  0  0  0  0  0  0  0  0
  141.7740   74.0020  220.6360 C   0  0  0  0  0  0  0  0  0  0  0  0
  141.0170   73.2850  221.6040 N   0  0  0  0  0  0  0  0  0  0  0  0
  140.9520   71.8500  221.6010 C   0  0  0  0  0  0  0  0  0  0  0  0
  139.7320   71.4150  222.3210 C   0  0  0  0  0  0  0  0  0  0  0  0
  138.9490   72.3090  222.7180 O   0  0  0  0  0  0  0  0  0  0  0  0
  139.5140   70.0230  222.5200 N   0  0  0  0  0  0  0  0  0  0  0  0
  139.4930   69.0970  221.3770 C   0  0  0  0  0  0  0  0  0  0  0  0
  138.1230   68.4370  221.4030 C   0  0  0  0  0  0  0  0  0  0  0  0
  138.0470   67.6060  222.6590 C   0  0  0  0  0  0  0  0  0  0  0  0
  138.0690   68.5490  223.8410 C   0  0  0  0  0  0  0  0  0  0  0  0
  139.3030   69.4240  223.8180 C   0  0  2  0  0  0  0  0  0  0  0  0
  139.2530   70.4180  224.9380 C   0  0  0  0  0  0  0  0  0  0  0  0
  139.9020   69.7750  226.1310 C   0  0  0  0  0  0  0  0  0  0  0  0
  140.2930   70.5010  227.2340 C   0  0  0  0  0  0  0  0  0  0  0  0
  140.8940   69.8830  228.3320 C   0  0  0  0  0  0  0  0  0  0  0  0
  141.1060   68.5200  228.3220 C   0  0  0  0  0  0  0  0  0  0  0  0
  140.7250   67.7710  227.2310 C   0  0  0  0  0  0  0  0  0  0  0  0
  140.1340   68.4140  226.1660 C   0  0  0  0  0  0  0  0  0  0  0  0
  141.7840   75.4630  220.7120 C   0  0  0  0  0  0  0  0  0  0  0  0
  142.2420   76.2310  219.6650 C   0  0  0  0  0  0  0  0  0  0  0  0
  142.2670   77.6130  219.6980 C   0  0  0  0  0  0  0  0  0  0  0  0
  141.8110   78.2380  220.8380 C   0  0  0  0  0  0  0  0  0  0  0  0
  141.7850   79.6090  220.9940 C   0  0  0  0  0  0  0  0  0  0  0  0
  141.3180   80.1980  222.1560 C   0  0  0  0  0  0  0  0  0  0  0  0
  141.2820   81.6770  222.3440 C   0  0  0  0  0  0  0  0  0  0  0  0
  141.8240   82.2700  221.2170 F   0  0  0  0  0  0  0  0  0  0  0  0
  141.9540   82.0520  223.4900 F   0  0  0  0  0  0  0  0  0  0  0  0
  139.9580   82.0890  222.3990 F   0  0  0  0  0  0  0  0  0  0  0  0
  140.8590   79.4150  223.2060 C   0  0  0  0  0  0  0  0  0  0  0  0
  140.8860   78.0370  223.0490 C   0  0  0  0  0  0  0  0  0  0  0  0
  141.3550   77.4640  221.8800 C   0  0  0  0  0  0  0  0  0  0  0  0
  141.3440   76.1260  221.8160 N   0  0  0  0  0  0  0  0  0  0  0  0
  140.4880   73.8380  222.3430 H   0  0  0  0  0  0  0  0  0  0  0  0
  140.9164   71.4857  220.5637 H   0  0  0  0  0  0  0  0  0  0  0  0
  141.8417   71.4391  222.1006 H   0  0  0  0  0  0  0  0  0  0  0  0
  139.6350   69.6476  220.4354 H   0  0  0  0  0  0  0  0  0  0  0  0
  140.3015   68.3540  221.4432 H   0  0  0  0  0  0  0  0  0  0  0  0
  137.3357   69.2051  221.4121 H   0  0  0  0  0  0  0  0  0  0  0  0
  137.9775   67.8086  220.5120 H   0  0  0  0  0  0  0  0  0  0  0  0
  137.1154   67.0211  222.6646 H   0  0  0  0  0  0  0  0  0  0  0  0
  138.8958   66.9081  222.7092 H   0  0  0  0  0  0  0  0  0  0  0  0
  137.1747   69.1885  223.8069 H   0  0  0  0  0  0  0  0  0  0  0  0
  138.0823   67.9511  224.7642 H   0  0  0  0  0  0  0  0  0  0  0  0
  140.1888   68.7945  223.9888 H   0  0  0  0  0  0  0  0  0  0  0  0
  139.7999   71.3302  224.6572 H   0  0  0  0  0  0  0  0  0  0  0  0
  138.2142   70.7009  225.1634 H   0  0  0  0  0  0  0  0  0  0  0  0
  140.1286   71.5885  227.2501 H   0  0  0  0  0  0  0  0  0  0  0  0
  141.1979   70.4817  229.2033 H   0  0  0  0  0  0  0  0  0  0  0  0
  141.5797   68.0311  229.1860 H   0  0  0  0  0  0  0  0  0  0  0  0
  140.8890   66.6835  227.2106 H   0  0  0  0  0  0  0  0  0  0  0  0
  139.8307   67.8115  225.2971 H   0  0  0  0  0  0  0  0  0  0  0  0
  142.6049   75.7214  218.7602 H   0  0  0  0  0  0  0  0  0  0  0  0
  142.6390   78.1947  218.8417 H   0  0  0  0  0  0  0  0  0  0  0  0
  142.1442   80.2492  220.1748 H   0  0  0  0  0  0  0  0  0  0  0  0
  140.4854   79.8729  224.1338 H   0  0  0  0  0  0  0  0  0  0  0  0
  140.5297   77.3910  223.8649 H   0  0  0  0  0  0  0  0  0  0  0  0
  1  2  2  0
  2  3  1  0
  3  4  1  0
  4  5  1  0
  5  6  2  0
  5  7  1  0
  7  8  1  0
  8  9  1  0
  9 10  1  0
 10 11  1  0
 11 12  1  0
 12 13  1  0
 13 14  1  0
 14 15  2  0
 15 16  1  0
 16 17  2  0
 17 18  1  0
 18 19  2  0
  2 20  1  0
 20 21  2  0
 21 22  1  0
 22 23  2  0
 23 24  1  0
 24 25  2  0
 25 26  1  0
 26 27  1  0
 26 28  1  0
 26 29  1  0
 25 30  1  0
 30 31  2  0
 31 32  1  0
 32 33  2  0
 12  7  1  0
 19 14  1  0
 33 20  1  0
 32 23  1  0
  3 34  1  0
  4 35  1  0
  4 36  1  0
  8 37  1  0
  8 38  1  0
  9 39  1  0
  9 40  1  0
 10 41  1  0
 10 42  1  0
 11 43  1  0
 11 44  1  0
 12 45  1  1
 13 46  1  0
 13 47  1  0
 15 48  1  0
 16 49  1  0
 17 50  1  0
 18 51  1  0
 19 52  1  0
 21 53  1  0
 22 54  1  0
 24 55  1  0
 30 56  1  0
 31 57  1  0
M  END
>  <smiles>  (43) 
O=C(NCC(=O)N1CCCCC1Cc1ccccc1)c1ccc2cc(C(F)(F)F)ccc2n1

>  <score_type>  (43) 
oracle

>  <origin>  (43) 
autodockgpu

>  <m_score__min__energy>  (43) 
-8.6199999999999992

>  <m_primary>  (43) 
energy

>  <rmsd>  (43) 
8.252570963285748

>  <m_score__min__rmsd>  (43) 
8.252570963285748

>  <meeko>  (43) 
{"free_energy": -7.52, "intermolecular_energy": -9.61, "internal_energy": -2.2, "cluster_size": 4, "cluster_id": 5, "rank_in_cluster": 3}

>  <energy>  (43) 
-8.02

>  <cluster_rmsd>  (43) 
0.0

>  <cluster>  (43) 
4

$$$$

     RDKit          3D

 57 60  0  0  0  0  0  0  0  0999 V2000
  139.6330   73.1030  220.2590 O   0  0  0  0  0  0  0  0  0  0  0  0
  139.5940   73.3230  221.5120 C   0  0  0  0  0  0  0  0  0  0  0  0
  139.5730   74.6480  222.0310 N   0  0  0  0  0  0  0  0  0  0  0  0
  139.5960   75.7970  221.1700 C   0  0  0  0  0  0  0  0  0  0  0  0
  140.7170   76.6820  221.5670 C   0  0  0  0  0  0  0  0  0  0  0  0
  140.7500   77.0690  222.7580 O   0  0  0  0  0  0  0  0  0  0  0  0
  141.6850   77.0410  220.5880 N   0  0  0  0  0  0  0  0  0  0  0  0
  141.8550   78.4450  220.1830 C   0  0  0  0  0  0  0  0  0  0  0  0
  141.5900   78.4790  218.6850 C   0  0  0  0  0  0  0  0  0  0  0  0
  142.6810   77.6810  218.0160 C   0  0  0  0  0  0  0  0  0  0  0  0
  142.5150   76.2350  218.4280 C   0  0  0  0  0  0  0  0  0  0  0  0
  142.5520   76.0880  219.9330 C   0  0  2  0  0  0  0  0  0  0  0  0
  142.2840   74.6660  220.3210 C   0  0  0  0  0  0  0  0  0  0  0  0
  143.6030   73.9450  220.3020 C   0  0  0  0  0  0  0  0  0  0  0  0
  144.8000   74.6020  220.4800 C   0  0  0  0  0  0  0  0  0  0  0  0
  146.0140   73.9120  220.4590 C   0  0  0  0  0  0  0  0  0  0  0  0
  146.0260   72.5480  220.2560 C   0  0  0  0  0  0  0  0  0  0  0  0
  144.8420   71.8670  220.0750 C   0  0  0  0  0  0  0  0  0  0  0  0
  143.6640   72.5800  220.1020 C   0  0  0  0  0  0  0  0  0  0  0  0
  139.5690   72.2100  222.4620 C   0  0  0  0  0  0  0  0  0  0  0  0
  138.8610   71.0590  222.1960 C   0  0  0  0  0  0  0  0  0  0  0  0
  138.8130   69.9850  223.0660 C   0  0  0  0  0  0  0  0  0  0  0  0
  139.5100   70.0860  224.2510 C   0  0  0  0  0  0  0  0  0  0  0  0
  139.5410   69.0850  225.2000 C   0  0  0  0  0  0  0  0  0  0  0  0
  140.2540   69.2250  226.3780 C   0  0  0  0  0  0  0  0  0  0  0  0
  140.3000   68.1560  227.4170 C   0  0  0  0  0  0  0  0  0  0  0  0
  139.2490   67.2850  227.1880 F   0  0  0  0  0  0  0  0  0  0  0  0
  140.2490   68.6910  228.6880 F   0  0  0  0  0  0  0  0  0  0  0  0
  141.4610   67.4150  227.2460 F   0  0  0  0  0  0  0  0  0  0  0  0
  140.9640   70.3890  226.6370 C   0  0  0  0  0  0  0  0  0  0  0  0
  140.9320   71.3950  225.6810 C   0  0  0  0  0  0  0  0  0  0  0  0
  140.2150   71.2380  224.5090 C   0  0  0  0  0  0  0  0  0  0  0  0
  140.2410   72.2610  223.6430 N   0  0  0  0  0  0  0  0  0  0  0  0
  139.5410   74.7760  223.0870 H   0  0  0  0  0  0  0  0  0  0  0  0
  139.7344   75.4730  220.1279 H   0  0  0  0  0  0  0  0  0  0  0  0
  138.6453   76.3433  221.2577 H   0  0  0  0  0  0  0  0  0  0  0  0
  141.1363   79.0866  220.7139 H   0  0  0  0  0  0  0  0  0  0  0  0
  142.8615   78.8172  220.4248 H   0  0  0  0  0  0  0  0  0  0  0  0
  140.6091   78.0318  218.4664 H   0  0  0  0  0  0  0  0  0  0  0  0
  141.5837   79.5149  218.3150 H   0  0  0  0  0  0  0  0  0  0  0  0
  142.5941   77.7711  216.9232 H   0  0  0  0  0  0  0  0  0  0  0  0
  143.6706   78.0552  218.3171 H   0  0  0  0  0  0  0  0  0  0  0  0
  141.5490   75.8641  218.0548 H   0  0  0  0  0  0  0  0  0  0  0  0
  143.3449   75.6532  218.0004 H   0  0  0  0  0  0  0  0  0  0  0  0
  143.5640   76.3307  220.2893 H   0  0  0  0  0  0  0  0  0  0  0  0
  141.8471   74.6263  221.3297 H   0  0  0  0  0  0  0  0  0  0  0  0
  141.5727   74.1982  219.6245 H   0  0  0  0  0  0  0  0  0  0  0  0
  144.8000   75.6901  220.6417 H   0  0  0  0  0  0  0  0  0  0  0  0
  146.9592   74.4557  220.6042 H   0  0  0  0  0  0  0  0  0  0  0  0
  146.9815   72.0033  220.2386 H   0  0  0  0  0  0  0  0  0  0  0  0
  144.8377   70.7790  219.9127 H   0  0  0  0  0  0  0  0  0  0  0  0
  142.7210   72.0327  219.9564 H   0  0  0  0  0  0  0  0  0  0  0  0
  138.3080   70.9908  221.2475 H   0  0  0  0  0  0  0  0  0  0  0  0
  138.2377   69.0801  222.8205 H   0  0  0  0  0  0  0  0  0  0  0  0
  138.9858   68.1534  225.0160 H   0  0  0  0  0  0  0  0  0  0  0  0
  141.5339   70.5105  227.5700 H   0  0  0  0  0  0  0  0  0  0  0  0
  141.4844   72.3296  225.8581 H   0  0  0  0  0  0  0  0  0  0  0  0
  1  2  2  0
  2  3  1  0
  3  4  1  0
  4  5  1  0
  5  6  2  0
  5  7  1  0
  7  8  1  0
  8  9  1  0
  9 10  1  0
 10 11  1  0
 11 12  1  0
 12 13  1  0
 13 14  1  0
 14 15  2  0
 15 16  1  0
 16 17  2  0
 17 18  1  0
 18 19  2  0
  2 20  1  0
 20 21  2  0
 21 22  1  0
 22 23  2  0
 23 24  1  0
 24 25  2  0
 25 26  1  0
 26 27  1  0
 26 28  1  0
 26 29  1  0
 25 30  1  0
 30 31  2  0
 31 32  1  0
 32 33  2  0
 12  7  1  0
 19 14  1  0
 33 20  1  0
 32 23  1  0
  3 34  1  0
  4 35  1  0
  4 36  1  0
  8 37  1  0
  8 38  1  0
  9 39  1  0
  9 40  1  0
 10 41  1  0
 10 42  1  0
 11 43  1  0
 11 44  1  0
 12 45  1  1
 13 46  1  0
 13 47  1  0
 15 48  1  0
 16 49  1  0
 17 50  1  0
 18 51  1  0
 19 52  1  0
 21 53  1  0
 22 54  1  0
 24 55  1  0
 30 56  1  0
 31 57  1  0
M  END
>  <smiles>  (44) 
O=C(NCC(=O)N1CCCCC1Cc1ccccc1)c1ccc2cc(C(F)(F)F)ccc2n1

>  <score_type>  (44) 
oracle

>  <origin>  (44) 
autodockgpu

>  <m_score__min__energy>  (44) 
-8.6199999999999992

>  <m_primary>  (44) 
energy

>  <rmsd>  (44) 
2.75228476784064

>  <m_score__min__rmsd>  (44) 
2.75228476784064

>  <meeko>  (44) 
{"free_energy": -8.39, "intermolecular_energy": -10.47, "internal_energy": -2.14, "cluster_size": 13, "cluster_id": 2, "rank_in_cluster": 9}

>  <energy>  (44) 
-7.98

>  <cluster_rmsd>  (44) 
0.0

>  <cluster>  (44) 
5

$$$$

     RDKit          3D

 57 60  0  0  0  0  0  0  0  0999 V2000
  140.7260   73.3470  220.4550 O   0  0  0  0  0  0  0  0  0  0  0  0
  140.2530   73.5060  221.6270 C   0  0  0  0  0  0  0  0  0  0  0  0
  139.9020   74.7960  222.1130 N   0  0  0  0  0  0  0  0  0  0  0  0
  140.0650   75.9770  221.3120 C   0  0  0  0  0  0  0  0  0  0  0  0
  139.9580   77.1740  222.1790 C   0  0  0  0  0  0  0  0  0  0  0  0
  138.8620   77.3720  222.7530 O   0  0  0  0  0  0  0  0  0  0  0  0
  141.0900   78.0240  222.3140 N   0  0  0  0  0  0  0  0  0  0  0  0
  141.6780   78.2840  223.6380 C   0  0  0  0  0  0  0  0  0  0  0  0
  141.6020   79.7910  223.8360 C   0  0  0  0  0  0  0  0  0  0  0  0
  142.5040   80.4270  222.8090 C   0  0  0  0  0  0  0  0  0  0  0  0
  141.9090   80.1630  221.4430 C   0  0  0  0  0  0  0  0  0  0  0  0
  141.7360   78.6810  221.2000 C   0  0  2  0  0  0  0  0  0  0  0  0
  141.0520   78.4480  219.8880 C   0  0  0  0  0  0  0  0  0  0  0  0
  141.9710   77.6000  219.0530 C   0  0  0  0  0  0  0  0  0  0  0  0
  142.6790   76.5450  219.5850 C   0  0  0  0  0  0  0  0  0  0  0  0
  143.5270   75.7700  218.7920 C   0  0  0  0  0  0  0  0  0  0  0  0
  143.6640   76.0560  217.4490 C   0  0  0  0  0  0  0  0  0  0  0  0
  142.9660   77.1050  216.8930 C   0  0  0  0  0  0  0  0  0  0  0  0
  142.1390   77.8490  217.7050 C   0  0  0  0  0  0  0  0  0  0  0  0
  140.0550   72.3570  222.5110 C   0  0  0  0  0  0  0  0  0  0  0  0
  139.2830   71.2840  222.1270 C   0  0  0  0  0  0  0  0  0  0  0  0
  139.0730   70.1800  222.9330 C   0  0  0  0  0  0  0  0  0  0  0  0
  139.6690   70.1680  224.1760 C   0  0  0  0  0  0  0  0  0  0  0  0
  139.5350   69.1260  225.0710 C   0  0  0  0  0  0  0  0  0  0  0  0
  140.1510   69.1520  226.3100 C   0  0  0  0  0  0  0  0  0  0  0  0
  140.0190   68.0370  227.2920 C   0  0  0  0  0  0  0  0  0  0  0  0
  139.1420   67.1020  226.7700 F   0  0  0  0  0  0  0  0  0  0  0  0
  139.5960   68.5000  228.5220 F   0  0  0  0  0  0  0  0  0  0  0  0
  141.2440   67.3950  227.4080 F   0  0  0  0  0  0  0  0  0  0  0  0
  140.9270   70.2390  226.6880 C   0  0  0  0  0  0  0  0  0  0  0  0
  141.0600   71.2850  225.7870 C   0  0  0  0  0  0  0  0  0  0  0  0
  140.4380   71.2430  224.5520 C   0  0  0  0  0  0  0  0  0  0  0  0
  140.6220   72.2980  223.7460 N   0  0  0  0  0  0  0  0  0  0  0  0
  139.5110   74.8740  223.1000 H   0  0  0  0  0  0  0  0  0  0  0  0
  141.0531   75.9601  220.8289 H   0  0  0  0  0  0  0  0  0  0  0  0
  139.2826   76.0098  220.5395 H   0  0  0  0  0  0  0  0  0  0  0  0
  141.1046   77.7653  224.4204 H   0  0  0  0  0  0  0  0  0  0  0  0
  142.7138   77.9190  223.7000 H   0  0  0  0  0  0  0  0  0  0  0  0
  140.5676   80.1372  223.6937 H   0  0  0  0  0  0  0  0  0  0  0  0
  141.9179   80.0654  224.8533 H   0  0  0  0  0  0  0  0  0  0  0  0
  142.5671   81.5108  222.9865 H   0  0  0  0  0  0  0  0  0  0  0  0
  143.5177   80.0050  222.8743 H   0  0  0  0  0  0  0  0  0  0  0  0
  140.9270   80.6544  221.3781 H   0  0  0  0  0  0  0  0  0  0  0  0
  142.5938   80.5636  220.6811 H   0  0  0  0  0  0  0  0  0  0  0  0
  142.7298   78.2146  221.1302 H   0  0  0  0  0  0  0  0  0  0  0  0
  140.0977   77.9248  220.0480 H   0  0  0  0  0  0  0  0  0  0  0  0
  140.8358   79.4021  219.3850 H   0  0  0  0  0  0  0  0  0  0  0  0
  142.5743   76.3089  220.6543 H   0  0  0  0  0  0  0  0  0  0  0  0
  144.0850   74.9329  219.2368 H   0  0  0  0  0  0  0  0  0  0  0  0
  144.3310   75.4459  216.8222 H   0  0  0  0  0  0  0  0  0  0  0  0
  143.0668   77.3434  215.8239 H   0  0  0  0  0  0  0  0  0  0  0  0
  141.5831   78.6855  217.2563 H   0  0  0  0  0  0  0  0  0  0  0  0
  138.8115   71.3056  221.1334 H   0  0  0  0  0  0  0  0  0  0  0  0
  138.4507   69.3389  222.5934 H   0  0  0  0  0  0  0  0  0  0  0  0
  138.9243   68.2544  224.7930 H   0  0  0  0  0  0  0  0  0  0  0  0
  141.4206   70.2698  227.6705 H   0  0  0  0  0  0  0  0  0  0  0  0
  141.6686   72.1603  226.0582 H   0  0  0  0  0  0  0  0  0  0  0  0
  1  2  2  0
  2  3  1  0
  3  4  1  0
  4  5  1  0
  5  6  2  0
  5  7  1  0
  7  8  1  0
  8  9  1  0
  9 10  1  0
 10 11  1  0
 11 12  1  0
 12 13  1  0
 13 14  1  0
 14 15  2  0
 15 16  1  0
 16 17  2  0
 17 18  1  0
 18 19  2  0
  2 20  1  0
 20 21  2  0
 21 22  1  0
 22 23  2  0
 23 24  1  0
 24 25  2  0
 25 26  1  0
 26 27  1  0
 26 28  1  0
 26 29  1  0
 25 30  1  0
 30 31  2  0
 31 32  1  0
 32 33  2  0
 12  7  1  0
 19 14  1  0
 33 20  1  0
 32 23  1  0
  3 34  1  0
  4 35  1  0
  4 36  1  0
  8 37  1  0
  8 38  1  0
  9 39  1  0
  9 40  1  0
 10 41  1  0
 10 42  1  0
 11 43  1  0
 11 44  1  0
 12 45  1  6
 13 46  1  0
 13 47  1  0
 15 48  1  0
 16 49  1  0
 17 50  1  0
 18 51  1  0
 19 52  1  0
 21 53  1  0
 22 54  1  0
 24 55  1  0
 30 56  1  0
 31 57  1  0
M  END
>  <smiles>  (45) 
O=C(NCC(=O)N1CCCCC1Cc1ccccc1)c1ccc2cc(C(F)(F)F)ccc2n1

>  <score_type>  (45) 
oracle

>  <origin>  (45) 
autodockgpu

>  <m_score__min__energy>  (45) 
-8.6199999999999992

>  <m_primary>  (45) 
energy

>  <rmsd>  (45) 
3.6981729327484785

>  <m_score__min__rmsd>  (45) 
3.6981729327484785

>  <meeko>  (45) 
{"free_energy": -8.47, "intermolecular_energy": -10.56, "internal_energy": -1.78, "cluster_size": 13, "cluster_id": 2, "rank_in_cluster": 4}

>  <energy>  (45) 
-7.72

>  <cluster_rmsd>  (45) 
1.96

>  <cluster>  (45) 
5

$$$$

     RDKit          3D

 57 60  0  0  0  0  0  0  0  0999 V2000
  134.6970   68.5000  225.2330 O   0  0  0  0  0  0  0  0  0  0  0  0
  134.9900   69.6750  224.8390 C   0  0  0  0  0  0  0  0  0  0  0  0
  135.9300   69.8920  223.7930 N   0  0  0  0  0  0  0  0  0  0  0  0
  136.5930   68.8010  223.1350 C   0  0  0  0  0  0  0  0  0  0  0  0
  137.9400   69.2410  222.6990 C   0  0  0  0  0  0  0  0  0  0  0  0
  138.7190   68.3610  222.2640 O   0  0  0  0  0  0  0  0  0  0  0  0
  138.2740   70.6200  222.7940 N   0  0  0  0  0  0  0  0  0  0  0  0
  137.5990   71.6140  221.9450 C   0  0  0  0  0  0  0  0  0  0  0  0
  138.7000   72.2890  221.1400 C   0  0  0  0  0  0  0  0  0  0  0  0
  139.5710   73.0430  222.1130 C   0  0  0  0  0  0  0  0  0  0  0  0
  140.2690   72.0290  222.9920 C   0  0  0  0  0  0  0  0  0  0  0  0
  139.2700   71.1430  223.7010 C   0  0  2  0  0  0  0  0  0  0  0  0
  139.9840   70.0830  224.4830 C   0  0  0  0  0  0  0  0  0  0  0  0
  140.2590   70.6490  225.8490 C   0  0  0  0  0  0  0  0  0  0  0  0
  139.7280   70.0960  226.9920 C   0  0  0  0  0  0  0  0  0  0  0  0
  139.9970   70.6390  228.2510 C   0  0  0  0  0  0  0  0  0  0  0  0
  140.8090   71.7480  228.3610 C   0  0  0  0  0  0  0  0  0  0  0  0
  141.3530   72.3200  227.2320 C   0  0  0  0  0  0  0  0  0  0  0  0
  141.0660   71.7590  226.0080 C   0  0  0  0  0  0  0  0  0  0  0  0
  134.3610   70.8430  225.4560 C   0  0  0  0  0  0  0  0  0  0  0  0
  133.3650   70.7070  226.3970 C   0  0  0  0  0  0  0  0  0  0  0  0
  132.7480   71.7850  227.0030 C   0  0  0  0  0  0  0  0  0  0  0  0
  133.1570   73.0490  226.6370 C   0  0  0  0  0  0  0  0  0  0  0  0
  132.6190   74.2040  227.1690 C   0  0  0  0  0  0  0  0  0  0  0  0
  133.0580   75.4560  226.7750 C   0  0  0  0  0  0  0  0  0  0  0  0
  132.4900   76.7160  227.3360 C   0  0  0  0  0  0  0  0  0  0  0  0
  133.5400   77.5150  227.7540 F   0  0  0  0  0  0  0  0  0  0  0  0
  131.6100   76.4530  228.3670 F   0  0  0  0  0  0  0  0  0  0  0  0
  131.8550   77.4130  226.3180 F   0  0  0  0  0  0  0  0  0  0  0  0
  134.0620   75.5830  225.8260 C   0  0  0  0  0  0  0  0  0  0  0  0
  134.6020   74.4220  225.2920 C   0  0  0  0  0  0  0  0  0  0  0  0
  134.1520   73.1780  225.6970 C   0  0  0  0  0  0  0  0  0  0  0  0
  134.7300   72.1110  225.1290 N   0  0  0  0  0  0  0  0  0  0  0  0
  136.1390   70.8940  223.5020 H   0  0  0  0  0  0  0  0  0  0  0  0
  136.6898   67.9553  223.8317 H   0  0  0  0  0  0  0  0  0  0  0  0
  136.0060   68.4855  222.2599 H   0  0  0  0  0  0  0  0  0  0  0  0
  136.8816   71.1199  221.2733 H   0  0  0  0  0  0  0  0  0  0  0  0
  137.0331   72.3413  222.5456 H   0  0  0  0  0  0  0  0  0  0  0  0
  139.2964   71.5319  220.6098 H   0  0  0  0  0  0  0  0  0  0  0  0
  138.2716   72.9720  220.3917 H   0  0  0  0  0  0  0  0  0  0  0  0
  140.3159   73.6383  221.5646 H   0  0  0  0  0  0  0  0  0  0  0  0
  138.9621   73.7259  222.7237 H   0  0  0  0  0  0  0  0  0  0  0  0
  140.9244   71.4036  222.3681 H   0  0  0  0  0  0  0  0  0  0  0  0
  140.8560   72.5690  223.7495 H   0  0  0  0  0  0  0  0  0  0  0  0
  138.7064   71.7510  224.4239 H   0  0  0  0  0  0  0  0  0  0  0  0
  139.3524   69.1862  224.5666 H   0  0  0  0  0  0  0  0  0  0  0  0
  140.9205   69.7932  223.9841 H   0  0  0  0  0  0  0  0  0  0  0  0
  139.0801   69.2106  226.9129 H   0  0  0  0  0  0  0  0  0  0  0  0
  139.5619   70.1828  229.1525 H   0  0  0  0  0  0  0  0  0  0  0  0
  141.0226   72.1764  229.3513 H   0  0  0  0  0  0  0  0  0  0  0  0
  142.0020   73.2050  227.3068 H   0  0  0  0  0  0  0  0  0  0  0  0
  141.5023   72.2189  225.1090 H   0  0  0  0  0  0  0  0  0  0  0  0
  133.0455   69.6931  226.6796 H   0  0  0  0  0  0  0  0  0  0  0  0
  131.9565   71.6388  227.7528 H   0  0  0  0  0  0  0  0  0  0  0  0
  131.8226   74.1272  227.9239 H   0  0  0  0  0  0  0  0  0  0  0  0
  134.4188   76.5734  225.5069 H   0  0  0  0  0  0  0  0  0  0  0  0
  135.3985   74.4915  224.5366 H   0  0  0  0  0  0  0  0  0  0  0  0
  1  2  2  0
  2  3  1  0
  3  4  1  0
  4  5  1  0
  5  6  2  0
  5  7  1  0
  7  8  1  0
  8  9  1  0
  9 10  1  0
 10 11  1  0
 11 12  1  0
 12 13  1  0
 13 14  1  0
 14 15  2  0
 15 16  1  0
 16 17  2  0
 17 18  1  0
 18 19  2  0
  2 20  1  0
 20 21  2  0
 21 22  1  0
 22 23  2  0
 23 24  1  0
 24 25  2  0
 25 26  1  0
 26 27  1  0
 26 28  1  0
 26 29  1  0
 25 30  1  0
 30 31  2  0
 31 32  1  0
 32 33  2  0
 12  7  1  0
 19 14  1  0
 33 20  1  0
 32 23  1  0
  3 34  1  0
  4 35  1  0
  4 36  1  0
  8 37  1  0
  8 38  1  0
  9 39  1  0
  9 40  1  0
 10 41  1  0
 10 42  1  0
 11 43  1  0
 11 44  1  0
 12 45  1  1
 13 46  1  0
 13 47  1  0
 15 48  1  0
 16 49  1  0
 17 50  1  0
 18 51  1  0
 19 52  1  0
 21 53  1  0
 22 54  1  0
 24 55  1  0
 30 56  1  0
 31 57  1  0
M  END
>  <smiles>  (46) 
O=C(NCC(=O)N1CCCCC1Cc1ccccc1)c1ccc2cc(C(F)(F)F)ccc2n1

>  <score_type>  (46) 
oracle

>  <origin>  (46) 
autodockgpu

>  <m_score__min__energy>  (46) 
-8.6199999999999992

>  <m_primary>  (46) 
energy

>  <rmsd>  (46) 
7.066982933954718

>  <m_score__min__rmsd>  (46) 
7.066982933954718

>  <meeko>  (46) 
{"free_energy": -7.95, "intermolecular_energy": -10.03, "internal_energy": -2.06, "cluster_size": 13, "cluster_id": 3, "rank_in_cluster": 10}

>  <energy>  (46) 
-7.52

>  <cluster_rmsd>  (46) 
1.09

>  <cluster>  (46) 
5

$$$$

     RDKit          3D

 57 60  0  0  0  0  0  0  0  0999 V2000
  140.4040   72.9350  220.6590 O   0  0  0  0  0  0  0  0  0  0  0  0
  139.6870   73.1580  221.6880 C   0  0  0  0  0  0  0  0  0  0  0  0
  138.9590   74.3710  221.8340 N   0  0  0  0  0  0  0  0  0  0  0  0
  138.9980   75.4010  220.8340 C   0  0  0  0  0  0  0  0  0  0  0  0
  140.1180   76.3260  221.1280 C   0  0  0  0  0  0  0  0  0  0  0  0
  140.6530   76.2400  222.2570 O   0  0  0  0  0  0  0  0  0  0  0  0
  140.5240   77.2500  220.1260 N   0  0  0  0  0  0  0  0  0  0  0  0
  141.2360   76.7870  218.9240 C   0  0  0  0  0  0  0  0  0  0  0  0
  142.5680   77.5230  218.9220 C   0  0  0  0  0  0  0  0  0  0  0  0
  142.2710   78.9900  218.7350 C   0  0  0  0  0  0  0  0  0  0  0  0
  141.5370   79.4750  219.9650 C   0  0  0  0  0  0  0  0  0  0  0  0
  140.2780   78.6730  220.2010 C   0  0  2  0  0  0  0  0  0  0  0  0
  139.6230   79.1010  221.4790 C   0  0  0  0  0  0  0  0  0  0  0  0
  140.6970   79.6930  222.3500 C   0  0  0  0  0  0  0  0  0  0  0  0
  141.5740   78.9100  223.0660 C   0  0  0  0  0  0  0  0  0  0  0  0
  142.5640   79.4810  223.8690 C   0  0  0  0  0  0  0  0  0  0  0  0
  142.6740   80.8530  223.9520 C   0  0  0  0  0  0  0  0  0  0  0  0
  141.8080   81.6590  223.2450 C   0  0  0  0  0  0  0  0  0  0  0  0
  140.8450   81.0620  222.4640 C   0  0  0  0  0  0  0  0  0  0  0  0
  139.5920   72.1630  222.7560 C   0  0  0  0  0  0  0  0  0  0  0  0
  138.7280   71.0940  222.6640 C   0  0  0  0  0  0  0  0  0  0  0  0
  138.6090   70.1330  223.6510 C   0  0  0  0  0  0  0  0  0  0  0  0
  139.3970   70.2640  224.7740 C   0  0  0  0  0  0  0  0  0  0  0  0
  139.3710   69.3710  225.8260 C   0  0  0  0  0  0  0  0  0  0  0  0
  140.1790   69.5380  226.9370 C   0  0  0  0  0  0  0  0  0  0  0  0
  140.1660   68.5860  228.0860 C   0  0  0  0  0  0  0  0  0  0  0  0
  139.3700   69.1230  229.0830 F   0  0  0  0  0  0  0  0  0  0  0  0
  141.4450   68.3300  228.5380 F   0  0  0  0  0  0  0  0  0  0  0  0
  139.5450   67.4110  227.6870 F   0  0  0  0  0  0  0  0  0  0  0  0
  141.0460   70.6180  227.0220 C   0  0  0  0  0  0  0  0  0  0  0  0
  141.0720   71.5140  225.9620 C   0  0  0  0  0  0  0  0  0  0  0  0
  140.2580   71.3330  224.8590 C   0  0  0  0  0  0  0  0  0  0  0  0
  140.3480   72.2470  223.8840 N   0  0  0  0  0  0  0  0  0  0  0  0
  138.3760   74.5070  222.7140 H   0  0  0  0  0  0  0  0  0  0  0  0
  139.1472   74.9463  219.8436 H   0  0  0  0  0  0  0  0  0  0  0  0
  138.0490   75.9572  220.8403 H   0  0  0  0  0  0  0  0  0  0  0  0
  141.3990   75.7001  218.9701 H   0  0  0  0  0  0  0  0  0  0  0  0
  140.6600   76.9896  218.0090 H   0  0  0  0  0  0  0  0  0  0  0  0
  143.0875   77.3633  219.8783 H   0  0  0  0  0  0  0  0  0  0  0  0
  143.2164   77.1515  218.1148 H   0  0  0  0  0  0  0  0  0  0  0  0
  143.2105   79.5494  218.6153 H   0  0  0  0  0  0  0  0  0  0  0  0
  141.6570   79.1455  217.8356 H   0  0  0  0  0  0  0  0  0  0  0  0
  142.1963   79.3737  220.8397 H   0  0  0  0  0  0  0  0  0  0  0  0
  141.2563   80.5274  219.8111 H   0  0  0  0  0  0  0  0  0  0  0  0
  139.5658   78.8841  219.3897 H   0  0  0  0  0  0  0  0  0  0  0  0
  138.8477   79.8534  221.2721 H   0  0  0  0  0  0  0  0  0  0  0  0
  139.1415   78.2467  221.9773 H   0  0  0  0  0  0  0  0  0  0  0  0
  141.4937   77.8147  223.0046 H   0  0  0  0  0  0  0  0  0  0  0  0
  143.2544   78.8375  224.4340 H   0  0  0  0  0  0  0  0  0  0  0  0
  143.4536   81.3046  224.5831 H   0  0  0  0  0  0  0  0  0  0  0  0
  141.8848   82.7547  223.3037 H   0  0  0  0  0  0  0  0  0  0  0  0
  140.1565   81.7090  221.9006 H   0  0  0  0  0  0  0  0  0  0  0  0
  138.1036   71.0006  221.7632 H   0  0  0  0  0  0  0  0  0  0  0  0
  137.9085   69.2917  223.5434 H   0  0  0  0  0  0  0  0  0  0  0  0
  138.6923   68.5065  225.7803 H   0  0  0  0  0  0  0  0  0  0  0  0
  141.6919   70.7596  227.9010 H   0  0  0  0  0  0  0  0  0  0  0  0
  141.7494   72.3798  226.0001 H   0  0  0  0  0  0  0  0  0  0  0  0
  1  2  2  0
  2  3  1  0
  3  4  1  0
  4  5  1  0
  5  6  2  0
  5  7  1  0
  7  8  1  0
  8  9  1  0
  9 10  1  0
 10 11  1  0
 11 12  1  0
 12 13  1  0
 13 14  1  0
 14 15  2  0
 15 16  1  0
 16 17  2  0
 17 18  1  0
 18 19  2  0
  2 20  1  0
 20 21  2  0
 21 22  1  0
 22 23  2  0
 23 24  1  0
 24 25  2  0
 25 26  1  0
 26 27  1  0
 26 28  1  0
 26 29  1  0
 25 30  1  0
 30 31  2  0
 31 32  1  0
 32 33  2  0
 12  7  1  0
 19 14  1  0
 33 20  1  0
 32 23  1  0
  3 34  1  0
  4 35  1  0
  4 36  1  0
  8 37  1  0
  8 38  1  0
  9 39  1  0
  9 40  1  0
 10 41  1  0
 10 42  1  0
 11 43  1  0
 11 44  1  0
 12 45  1  6
 13 46  1  0
 13 47  1  0
 15 48  1  0
 16 49  1  0
 17 50  1  0
 18 51  1  0
 19 52  1  0
 21 53  1  0
 22 54  1  0
 24 55  1  0
 30 56  1  0
 31 57  1  0
M  END
>  <smiles>  (47) 
O=C(NCC(=O)N1CCCCC1Cc1ccccc1)c1ccc2cc(C(F)(F)F)ccc2n1

>  <score_type>  (47) 
oracle

>  <origin>  (47) 
autodockgpu

>  <m_score__min__energy>  (47) 
-8.6199999999999992

>  <m_primary>  (47) 
energy

>  <rmsd>  (47) 
2.426203784784885

>  <m_score__min__rmsd>  (47) 
2.426203784784885

>  <meeko>  (47) 
{"free_energy": -8.48, "intermolecular_energy": -10.57, "internal_energy": -1.65, "cluster_size": 16, "cluster_id": 1, "rank_in_cluster": 3}

>  <energy>  (47) 
-7.15

>  <cluster_rmsd>  (47) 
1.4

>  <cluster>  (47) 
5

$$$$

     RDKit          3D

 57 60  0  0  0  0  0  0  0  0999 V2000
  133.6080   70.0510  226.6930 O   0  0  0  0  0  0  0  0  0  0  0  0
  133.8480   71.1710  226.1380 C   0  0  0  0  0  0  0  0  0  0  0  0
  134.7420   71.2740  225.0360 N   0  0  0  0  0  0  0  0  0  0  0  0
  135.4160   70.1250  224.4990 C   0  0  0  0  0  0  0  0  0  0  0  0
  136.0300   70.4830  223.1980 C   0  0  0  0  0  0  0  0  0  0  0  0
  135.5960   71.5060  222.6200 O   0  0  0  0  0  0  0  0  0  0  0  0
  137.0670   69.6580  222.6820 N   0  0  0  0  0  0  0  0  0  0  0  0
  136.8300   68.8020  221.5090 C   0  0  0  0  0  0  0  0  0  0  0  0
  137.1060   67.3790  221.9710 C   0  0  0  0  0  0  0  0  0  0  0  0
  138.5750   67.2910  222.3040 C   0  0  0  0  0  0  0  0  0  0  0  0
  138.8300   68.1700  223.5090 C   0  0  0  0  0  0  0  0  0  0  0  0
  138.3960   69.5950  223.2470 C   0  0  2  0  0  0  0  0  0  0  0  0
  138.5620   70.4220  224.4850 C   0  0  0  0  0  0  0  0  0  0  0  0
  139.4320   69.6380  225.4290 C   0  0  0  0  0  0  0  0  0  0  0  0
  140.8060   69.6610  225.3480 C   0  0  0  0  0  0  0  0  0  0  0  0
  141.5950   68.9250  226.2350 C   0  0  0  0  0  0  0  0  0  0  0  0
  140.9970   68.1580  227.2130 C   0  0  0  0  0  0  0  0  0  0  0  0
  139.6230   68.1180  227.3150 C   0  0  0  0  0  0  0  0  0  0  0  0
  138.8770   68.8570  226.4230 C   0  0  0  0  0  0  0  0  0  0  0  0
  133.2050   72.3940  226.6220 C   0  0  0  0  0  0  0  0  0  0  0  0
  131.9920   72.3540  227.2730 C   0  0  0  0  0  0  0  0  0  0  0  0
  131.3530   73.4860  227.7460 C   0  0  0  0  0  0  0  0  0  0  0  0
  131.9690   74.7030  227.5470 C   0  0  0  0  0  0  0  0  0  0  0  0
  131.4330   75.9020  227.9700 C   0  0  0  0  0  0  0  0  0  0  0  0
  132.0840   77.1030  227.7520 C   0  0  0  0  0  0  0  0  0  0  0  0
  131.5230   78.4110  228.2010 C   0  0  0  0  0  0  0  0  0  0  0  0
  130.5430   78.1590  229.1450 F   0  0  0  0  0  0  0  0  0  0  0  0
  131.0280   79.1350  227.1350 F   0  0  0  0  0  0  0  0  0  0  0  0
  132.5170   79.1230  228.8550 F   0  0  0  0  0  0  0  0  0  0  0  0
  133.3050   77.1330  227.0930 C   0  0  0  0  0  0  0  0  0  0  0  0
  133.8430   75.9260  226.6680 C   0  0  0  0  0  0  0  0  0  0  0  0
  133.1800   74.7340  226.8950 C   0  0  0  0  0  0  0  0  0  0  0  0
  133.7730   73.6180  226.4500 N   0  0  0  0  0  0  0  0  0  0  0  0
  134.9070   72.2350  224.6080 H   0  0  0  0  0  0  0  0  0  0  0  0
  136.1999   69.7983  225.1981 H   0  0  0  0  0  0  0  0  0  0  0  0
  134.6942   69.3077  224.3542 H   0  0  0  0  0  0  0  0  0  0  0  0
  135.7885   68.8988  221.1684 H   0  0  0  0  0  0  0  0  0  0  0  0
  137.4751   69.0855  220.6643 H   0  0  0  0  0  0  0  0  0  0  0  0
  136.5038   67.1494  222.8624 H   0  0  0  0  0  0  0  0  0  0  0  0
  136.8415   66.6566  221.1847 H   0  0  0  0  0  0  0  0  0  0  0  0
  138.8442   66.2501  222.5365 H   0  0  0  0  0  0  0  0  0  0  0  0
  139.1830   67.6242  221.4500 H   0  0  0  0  0  0  0  0  0  0  0  0
  138.2664   67.7751  224.3671 H   0  0  0  0  0  0  0  0  0  0  0  0
  139.9095   68.1675  223.7203 H   0  0  0  0  0  0  0  0  0  0  0  0
  139.0530   70.0314  222.4803 H   0  0  0  0  0  0  0  0  0  0  0  0
  139.0424   71.3799  224.2369 H   0  0  0  0  0  0  0  0  0  0  0  0
  137.5860   70.6404  224.9430 H   0  0  0  0  0  0  0  0  0  0  0  0
  141.2912   70.2698  224.5709 H   0  0  0  0  0  0  0  0  0  0  0  0
  142.6915   68.9570  226.1537 H   0  0  0  0  0  0  0  0  0  0  0  0
  141.6171   67.5777  227.9121 H   0  0  0  0  0  0  0  0  0  0  0  0
  139.1336   67.5103  228.0904 H   0  0  0  0  0  0  0  0  0  0  0  0
  137.7808   68.8229  226.5073 H   0  0  0  0  0  0  0  0  0  0  0  0
  131.5092   71.3772  227.4237 H   0  0  0  0  0  0  0  0  0  0  0  0
  130.3850   73.4173  228.2640 H   0  0  0  0  0  0  0  0  0  0  0  0
  130.4652   75.9029  228.4929 H   0  0  0  0  0  0  0  0  0  0  0  0
  133.8297   78.0829  226.9132 H   0  0  0  0  0  0  0  0  0  0  0  0
  134.8099   75.9177  226.1435 H   0  0  0  0  0  0  0  0  0  0  0  0
  1  2  2  0
  2  3  1  0
  3  4  1  0
  4  5  1  0
  5  6  2  0
  5  7  1  0
  7  8  1  0
  8  9  1  0
  9 10  1  0
 10 11  1  0
 11 12  1  0
 12 13  1  0
 13 14  1  0
 14 15  2  0
 15 16  1  0
 16 17  2  0
 17 18  1  0
 18 19  2  0
  2 20  1  0
 20 21  2  0
 21 22  1  0
 22 23  2  0
 23 24  1  0
 24 25  2  0
 25 26  1  0
 26 27  1  0
 26 28  1  0
 26 29  1  0
 25 30  1  0
 30 31  2  0
 31 32  1  0
 32 33  2  0
 12  7  1  0
 19 14  1  0
 33 20  1  0
 32 23  1  0
  3 34  1  0
  4 35  1  0
  4 36  1  0
  8 37  1  0
  8 38  1  0
  9 39  1  0
  9 40  1  0
 10 41  1  0
 10 42  1  0
 11 43  1  0
 11 44  1  0
 12 45  1  6
 13 46  1  0
 13 47  1  0
 15 48  1  0
 16 49  1  0
 17 50  1  0
 18 51  1  0
 19 52  1  0
 21 53  1  0
 22 54  1  0
 24 55  1  0
 30 56  1  0
 31 57  1  0
M  END
>  <smiles>  (48) 
O=C(NCC(=O)N1CCCCC1Cc1ccccc1)c1ccc2cc(C(F)(F)F)ccc2n1

>  <score_type>  (48) 
oracle

>  <origin>  (48) 
autodockgpu

>  <m_score__min__energy>  (48) 
-8.6199999999999992

>  <m_primary>  (48) 
energy

>  <rmsd>  (48) 
8.588660029889853

>  <m_score__min__rmsd>  (48) 
8.588660029889853

>  <meeko>  (48) 
{"free_energy": -7.43, "intermolecular_energy": -9.51, "internal_energy": -2.1, "cluster_size": 13, "cluster_id": 3, "rank_in_cluster": 13}

>  <energy>  (48) 
-7.47

>  <cluster_rmsd>  (48) 
0.0

>  <cluster>  (48) 
6

$$$$

     RDKit          3D

 57 60  0  0  0  0  0  0  0  0999 V2000
  139.9790   72.8320  220.3820 O   0  0  0  0  0  0  0  0  0  0  0  0
  139.8100   73.1380  221.6070 C   0  0  0  0  0  0  0  0  0  0  0  0
  139.6840   74.4940  222.0200 N   0  0  0  0  0  0  0  0  0  0  0  0
  139.7430   75.5790  221.0810 C   0  0  0  0  0  0  0  0  0  0  0  0
  140.7880   76.5390  221.5090 C   0  0  0  0  0  0  0  0  0  0  0  0
  140.7380   76.9540  222.6900 O   0  0  0  0  0  0  0  0  0  0  0  0
  141.7810   76.9330  220.5710 N   0  0  0  0  0  0  0  0  0  0  0  0
  141.9130   78.3420  220.1660 C   0  0  0  0  0  0  0  0  0  0  0  0
  141.7100   78.3610  218.6580 C   0  0  0  0  0  0  0  0  0  0  0  0
  142.8590   77.6050  218.0400 C   0  0  0  0  0  0  0  0  0  0  0  0
  142.7340   76.1540  218.4520 C   0  0  0  0  0  0  0  0  0  0  0  0
  142.7130   76.0140  219.9570 C   0  0  2  0  0  0  0  0  0  0  0  0
  142.4860   74.5840  220.3400 C   0  0  0  0  0  0  0  0  0  0  0  0
  143.8230   73.8980  220.3050 C   0  0  0  0  0  0  0  0  0  0  0  0
  144.9650   74.4930  220.7910 C   0  0  0  0  0  0  0  0  0  0  0  0
  146.1980   73.8380  220.7490 C   0  0  0  0  0  0  0  0  0  0  0  0
  146.2830   72.5690  220.2130 C   0  0  0  0  0  0  0  0  0  0  0  0
  145.1550   71.9510  219.7210 C   0  0  0  0  0  0  0  0  0  0  0  0
  143.9570   72.6280  219.7790 C   0  0  0  0  0  0  0  0  0  0  0  0
  139.7390   72.0950  222.6300 C   0  0  0  0  0  0  0  0  0  0  0  0
  139.0530   70.9210  222.4090 C   0  0  0  0  0  0  0  0  0  0  0  0
  138.9630   69.9120  223.3500 C   0  0  0  0  0  0  0  0  0  0  0  0
  139.5930   70.1040  224.5610 C   0  0  0  0  0  0  0  0  0  0  0  0
  139.5760   69.1730  225.5800 C   0  0  0  0  0  0  0  0  0  0  0  0
  140.2230   69.4030  226.7810 C   0  0  0  0  0  0  0  0  0  0  0  0
  140.2170   68.4110  227.8960 C   0  0  0  0  0  0  0  0  0  0  0  0
  139.7260   69.0360  229.0290 F   0  0  0  0  0  0  0  0  0  0  0  0
  141.4780   67.8900  228.1080 F   0  0  0  0  0  0  0  0  0  0  0  0
  139.3160   67.4000  227.5910 F   0  0  0  0  0  0  0  0  0  0  0  0
  140.9110   70.5890  226.9950 C   0  0  0  0  0  0  0  0  0  0  0  0
  140.9270   71.5240  225.9700 C   0  0  0  0  0  0  0  0  0  0  0  0
  140.2760   71.2780  224.7740 C   0  0  0  0  0  0  0  0  0  0  0  0
  140.3440   72.2360  223.8400 N   0  0  0  0  0  0  0  0  0  0  0  0
  139.5440   74.6950  223.0550 H   0  0  0  0  0  0  0  0  0  0  0  0
  139.9893   75.1883  220.0826 H   0  0  0  0  0  0  0  0  0  0  0  0
  138.7682   76.0873  221.0425 H   0  0  0  0  0  0  0  0  0  0  0  0
  141.1481   78.9567  220.6632 H   0  0  0  0  0  0  0  0  0  0  0  0
  142.8933   78.7540  220.4477 H   0  0  0  0  0  0  0  0  0  0  0  0
  140.7577   77.8745  218.4005 H   0  0  0  0  0  0  0  0  0  0  0  0
  141.6780   79.3946  218.2829 H   0  0  0  0  0  0  0  0  0  0  0  0
  142.8149   77.6878  216.9440 H   0  0  0  0  0  0  0  0  0  0  0  0
  143.8191   78.0196  218.3811 H   0  0  0  0  0  0  0  0  0  0  0  0
  141.8005   75.7430  218.0402 H   0  0  0  0  0  0  0  0  0  0  0  0
  143.6039   75.6047  218.0627 H   0  0  0  0  0  0  0  0  0  0  0  0
  143.6984   76.2993  220.3540 H   0  0  0  0  0  0  0  0  0  0  0  0
  142.0598   74.5279  221.3525 H   0  0  0  0  0  0  0  0  0  0  0  0
  141.7806   74.1011  219.6477 H   0  0  0  0  0  0  0  0  0  0  0  0
  144.9055   75.5038  221.2208 H   0  0  0  0  0  0  0  0  0  0  0  0
  147.0987   74.3322  221.1420 H   0  0  0  0  0  0  0  0  0  0  0  0
  147.2527   72.0508  220.1788 H   0  0  0  0  0  0  0  0  0  0  0  0
  145.2095   70.9398  219.2915 H   0  0  0  0  0  0  0  0  0  0  0  0
  143.0585   72.1304  219.3852 H   0  0  0  0  0  0  0  0  0  0  0  0
  138.5537   70.7798  221.4390 H   0  0  0  0  0  0  0  0  0  0  0  0
  138.4070   68.9866  223.1393 H   0  0  0  0  0  0  0  0  0  0  0  0
  139.0355   68.2262  225.4337 H   0  0  0  0  0  0  0  0  0  0  0  0
  141.4273   70.7817  227.9470 H   0  0  0  0  0  0  0  0  0  0  0  0
  141.4644   72.4735  226.1100 H   0  0  0  0  0  0  0  0  0  0  0  0
  1  2  2  0
  2  3  1  0
  3  4  1  0
  4  5  1  0
  5  6  2  0
  5  7  1  0
  7  8  1  0
  8  9  1  0
  9 10  1  0
 10 11  1  0
 11 12  1  0
 12 13  1  0
 13 14  1  0
 14 15  2  0
 15 16  1  0
 16 17  2  0
 17 18  1  0
 18 19  2  0
  2 20  1  0
 20 21  2  0
 21 22  1  0
 22 23  2  0
 23 24  1  0
 24 25  2  0
 25 26  1  0
 26 27  1  0
 26 28  1  0
 26 29  1  0
 25 30  1  0
 30 31  2  0
 31 32  1  0
 32 33  2  0
 12  7  1  0
 19 14  1  0
 33 20  1  0
 32 23  1  0
  3 34  1  0
  4 35  1  0
  4 36  1  0
  8 37  1  0
  8 38  1  0
  9 39  1  0
  9 40  1  0
 10 41  1  0
 10 42  1  0
 11 43  1  0
 11 44  1  0
 12 45  1  1
 13 46  1  0
 13 47  1  0
 15 48  1  0
 16 49  1  0
 17 50  1  0
 18 51  1  0
 19 52  1  0
 21 53  1  0
 22 54  1  0
 24 55  1  0
 30 56  1  0
 31 57  1  0
M  END
>  <smiles>  (49) 
O=C(NCC(=O)N1CCCCC1Cc1ccccc1)c1ccc2cc(C(F)(F)F)ccc2n1

>  <score_type>  (49) 
oracle

>  <origin>  (49) 
autodockgpu

>  <m_score__min__energy>  (49) 
-8.6199999999999992

>  <m_primary>  (49) 
energy

>  <rmsd>  (49) 
2.688009545934159

>  <m_score__min__rmsd>  (49) 
2.688009545934159

>  <meeko>  (49) 
{"free_energy": -8.41, "intermolecular_energy": -10.5, "internal_energy": -2.08, "cluster_size": 13, "cluster_id": 2, "rank_in_cluster": 7}

>  <energy>  (49) 
-7.02

>  <cluster_rmsd>  (49) 
0.0

>  <cluster>  (49) 
7

$$$$

     RDKit          3D

 57 60  0  0  0  0  0  0  0  0999 V2000
  133.9690   69.6570  227.0210 O   0  0  0  0  0  0  0  0  0  0  0  0
  134.1620   70.7270  226.3600 C   0  0  0  0  0  0  0  0  0  0  0  0
  135.0950   70.7760  225.2880 N   0  0  0  0  0  0  0  0  0  0  0  0
  135.8640   69.6260  224.9010 C   0  0  0  0  0  0  0  0  0  0  0  0
  136.4960   69.8810  223.5850 C   0  0  0  0  0  0  0  0  0  0  0  0
  136.3250   69.0210  222.6900 O   0  0  0  0  0  0  0  0  0  0  0  0
  137.2520   71.0730  223.4070 N   0  0  0  0  0  0  0  0  0  0  0  0
  136.6600   72.2430  222.7390 C   0  0  0  0  0  0  0  0  0  0  0  0
  137.5470   72.5260  221.5360 C   0  0  0  0  0  0  0  0  0  0  0  0
  138.8990   72.9420  222.0610 C   0  0  0  0  0  0  0  0  0  0  0  0
  139.5150   71.7450  222.7520 C   0  0  0  0  0  0  0  0  0  0  0  0
  138.6180   71.2290  223.8540 C   0  0  2  0  0  0  0  0  0  0  0  0
  139.1980   69.9850  224.4540 C   0  0  0  0  0  0  0  0  0  0  0  0
  139.8120   70.3730  225.7700 C   0  0  0  0  0  0  0  0  0  0  0  0
  140.5460   71.5270  225.9250 C   0  0  0  0  0  0  0  0  0  0  0  0
  141.1070   71.8680  227.1580 C   0  0  0  0  0  0  0  0  0  0  0  0
  140.9280   71.0410  228.2460 C   0  0  0  0  0  0  0  0  0  0  0  0
  140.1980   69.8800  228.1180 C   0  0  0  0  0  0  0  0  0  0  0  0
  139.6590   69.5750  226.8880 C   0  0  0  0  0  0  0  0  0  0  0  0
  133.4210   71.9460  226.6870 C   0  0  0  0  0  0  0  0  0  0  0  0
  132.1590   71.8910  227.2360 C   0  0  0  0  0  0  0  0  0  0  0  0
  131.4280   73.0190  227.5600 C   0  0  0  0  0  0  0  0  0  0  0  0
  132.0000   74.2490  227.3140 C   0  0  0  0  0  0  0  0  0  0  0  0
  131.3720   75.4460  227.5920 C   0  0  0  0  0  0  0  0  0  0  0  0
  131.9810   76.6610  227.3300 C   0  0  0  0  0  0  0  0  0  0  0  0
  131.3210   77.9660  227.6220 C   0  0  0  0  0  0  0  0  0  0  0  0
  130.7740   77.8990  228.8920 F   0  0  0  0  0  0  0  0  0  0  0  0
  130.3660   78.2680  226.6720 F   0  0  0  0  0  0  0  0  0  0  0  0
  132.2910   78.9570  227.6710 F   0  0  0  0  0  0  0  0  0  0  0  0
  133.2520   76.7060  226.7750 C   0  0  0  0  0  0  0  0  0  0  0  0
  133.8820   75.5010  226.4960 C   0  0  0  0  0  0  0  0  0  0  0  0
  133.2600   74.2960  226.7640 C   0  0  0  0  0  0  0  0  0  0  0  0
  133.9420   73.1820  226.4630 N   0  0  0  0  0  0  0  0  0  0  0  0
  135.2180   71.6960  224.7670 H   0  0  0  0  0  0  0  0  0  0  0  0
  136.6441   69.4354  225.6527 H   0  0  0  0  0  0  0  0  0  0  0  0
  135.2048   68.7483  224.8298 H   0  0  0  0  0  0  0  0  0  0  0  0
  135.6332   72.0196  222.4138 H   0  0  0  0  0  0  0  0  0  0  0  0
  136.6046   73.1097  223.4141 H   0  0  0  0  0  0  0  0  0  0  0  0
  137.6453   71.6201  220.9198 H   0  0  0  0  0  0  0  0  0  0  0  0
  137.1120   73.3194  220.9105 H   0  0  0  0  0  0  0  0  0  0  0  0
  139.5409   73.2645  221.2280 H   0  0  0  0  0  0  0  0  0  0  0  0
  138.7964   73.7812  222.7647 H   0  0  0  0  0  0  0  0  0  0  0  0
  139.6719   70.9455  222.0130 H   0  0  0  0  0  0  0  0  0  0  0  0
  140.4720   72.0542  223.1977 H   0  0  0  0  0  0  0  0  0  0  0  0
  138.5731   71.9802  224.6563 H   0  0  0  0  0  0  0  0  0  0  0  0
  138.4061   69.2382  224.6128 H   0  0  0  0  0  0  0  0  0  0  0  0
  139.9517   69.5430  223.7858 H   0  0  0  0  0  0  0  0  0  0  0  0
  140.6936   72.1930  225.0620 H   0  0  0  0  0  0  0  0  0  0  0  0
  141.6905   72.7948  227.2604 H   0  0  0  0  0  0  0  0  0  0  0  0
  141.3687   71.3085  229.2177 H   0  0  0  0  0  0  0  0  0  0  0  0
  140.0489   69.2116  228.9788 H   0  0  0  0  0  0  0  0  0  0  0  0
  139.0760   68.6474  226.7902 H   0  0  0  0  0  0  0  0  0  0  0  0
  131.7120   70.9039  227.4254 H   0  0  0  0  0  0  0  0  0  0  0  0
  130.4230   72.9377  227.9996 H   0  0  0  0  0  0  0  0  0  0  0  0
  130.3639   75.4342  228.0321 H   0  0  0  0  0  0  0  0  0  0  0  0
  133.7448   77.6663  226.5628 H   0  0  0  0  0  0  0  0  0  0  0  0
  134.8900   75.5050  226.0556 H   0  0  0  0  0  0  0  0  0  0  0  0
  1  2  2  0
  2  3  1  0
  3  4  1  0
  4  5  1  0
  5  6  2  0
  5  7  1  0
  7  8  1  0
  8  9  1  0
  9 10  1  0
 10 11  1  0
 11 12  1  0
 12 13  1  0
 13 14  1  0
 14 15  2  0
 15 16  1  0
 16 17  2  0
 17 18  1  0
 18 19  2  0
  2 20  1  0
 20 21  2  0
 21 22  1  0
 22 23  2  0
 23 24  1  0
 24 25  2  0
 25 26  1  0
 26 27  1  0
 26 28  1  0
 26 29  1  0
 25 30  1  0
 30 31  2  0
 31 32  1  0
 32 33  2  0
 12  7  1  0
 19 14  1  0
 33 20  1  0
 32 23  1  0
  3 34  1  0
  4 35  1  0
  4 36  1  0
  8 37  1  0
  8 38  1  0
  9 39  1  0
  9 40  1  0
 10 41  1  0
 10 42  1  0
 11 43  1  0
 11 44  1  0
 12 45  1  1
 13 46  1  0
 13 47  1  0
 15 48  1  0
 16 49  1  0
 17 50  1  0
 18 51  1  0
 19 52  1  0
 21 53  1  0
 22 54  1  0
 24 55  1  0
 30 56  1  0
 31 57  1  0
M  END
>  <smiles>  (50) 
O=C(NCC(=O)N1CCCCC1Cc1ccccc1)c1ccc2cc(C(F)(F)F)ccc2n1

>  <score_type>  (50) 
oracle

>  <origin>  (50) 
autodockgpu

>  <m_score__min__energy>  (50) 
-8.6199999999999992

>  <m_primary>  (50) 
energy

>  <rmsd>  (50) 
8.006738906520502

>  <m_score__min__rmsd>  (50) 
8.006738906520502

>  <meeko>  (50) 
{"free_energy": -8.25, "intermolecular_energy": -10.34, "internal_energy": -1.86, "cluster_size": 13, "cluster_id": 3, "rank_in_cluster": 5}

>  <energy>  (50) 
-6.84

>  <cluster_rmsd>  (50) 
0.0

>  <cluster>  (50) 
8

$$$$

     RDKit          3D

 57 60  0  0  0  0  0  0  0  0999 V2000
  138.2110   73.1460  220.3120 O   0  0  0  0  0  0  0  0  0  0  0  0
  138.2600   73.6770  221.4650 C   0  0  0  0  0  0  0  0  0  0  0  0
  137.5150   73.0200  222.4830 N   0  0  0  0  0  0  0  0  0  0  0  0
  136.7860   71.8320  222.1170 C   0  0  0  0  0  0  0  0  0  0  0  0
  137.4460   70.5950  222.5980 C   0  0  0  0  0  0  0  0  0  0  0  0
  136.7010   69.7310  223.1360 O   0  0  0  0  0  0  0  0  0  0  0  0
  138.8390   70.4510  222.4320 N   0  0  0  0  0  0  0  0  0  0  0  0
  139.3960   69.9990  221.1460 C   0  0  0  0  0  0  0  0  0  0  0  0
  140.3170   71.0520  220.5790 C   0  0  0  0  0  0  0  0  0  0  0  0
  141.2620   71.6090  221.5980 C   0  0  0  0  0  0  0  0  0  0  0  0
  140.6950   71.8380  222.9550 C   0  0  0  0  0  0  0  0  0  0  0  0
  139.8160   70.7250  223.4690 C   0  0  1  0  0  0  0  0  0  0  0  0
  139.2320   71.1200  224.7790 C   0  0  0  0  0  0  0  0  0  0  0  0
  139.7590   70.1990  225.8440 C   0  0  0  0  0  0  0  0  0  0  0  0
  140.4150   70.7040  226.9600 C   0  0  0  0  0  0  0  0  0  0  0  0
  140.9150   69.8930  227.9580 C   0  0  0  0  0  0  0  0  0  0  0  0
  140.7680   68.5240  227.8620 C   0  0  0  0  0  0  0  0  0  0  0  0
  140.1150   68.0070  226.7540 C   0  0  0  0  0  0  0  0  0  0  0  0
  139.6230   68.8320  225.7670 C   0  0  0  0  0  0  0  0  0  0  0  0
  139.0310   74.8840  221.7270 C   0  0  0  0  0  0  0  0  0  0  0  0
  140.3650   74.8850  221.3810 C   0  0  0  0  0  0  0  0  0  0  0  0
  141.1830   75.9720  221.5850 C   0  0  0  0  0  0  0  0  0  0  0  0
  140.6390   77.0880  222.1560 C   0  0  0  0  0  0  0  0  0  0  0  0
  141.4370   78.1910  222.3720 C   0  0  0  0  0  0  0  0  0  0  0  0
  140.8880   79.3150  222.9470 C   0  0  0  0  0  0  0  0  0  0  0  0
  141.7680   80.4950  223.1700 C   0  0  0  0  0  0  0  0  0  0  0  0
  141.2990   81.2860  224.2050 F   0  0  0  0  0  0  0  0  0  0  0  0
  141.7710   81.2470  221.9890 F   0  0  0  0  0  0  0  0  0  0  0  0
  143.0560   80.0700  223.3760 F   0  0  0  0  0  0  0  0  0  0  0  0
  139.5360   79.3330  223.3060 C   0  0  0  0  0  0  0  0  0  0  0  0
  138.7380   78.2080  223.0810 C   0  0  0  0  0  0  0  0  0  0  0  0
  139.2850   77.0810  222.5050 C   0  0  0  0  0  0  0  0  0  0  0  0
  138.5110   75.9900  222.2880 N   0  0  0  0  0  0  0  0  0  0  0  0
  137.5040   73.3960  223.4630 H   0  0  0  0  0  0  0  0  0  0  0  0
  135.7778   71.8874  222.5534 H   0  0  0  0  0  0  0  0  0  0  0  0
  136.7470   71.7867  221.0186 H   0  0  0  0  0  0  0  0  0  0  0  0
  139.9606   69.0678  221.3015 H   0  0  0  0  0  0  0  0  0  0  0  0
  138.5717   69.8242  220.4390 H   0  0  0  0  0  0  0  0  0  0  0  0
  140.9040   70.6030  219.7642 H   0  0  0  0  0  0  0  0  0  0  0  0
  139.6895   71.8820  220.2220 H   0  0  0  0  0  0  0  0  0  0  0  0
  142.1021   70.9060  221.6982 H   0  0  0  0  0  0  0  0  0  0  0  0
  141.5499   72.6028  221.2245 H   0  0  0  0  0  0  0  0  0  0  0  0
  141.5312   71.9662  223.6581 H   0  0  0  0  0  0  0  0  0  0  0  0
  140.0537   72.7282  222.8766 H   0  0  0  0  0  0  0  0  0  0  0  0
  140.3680   69.7947  223.6688 H   0  0  0  0  0  0  0  0  0  0  0  0
  139.5168   72.1564  225.0129 H   0  0  0  0  0  0  0  0  0  0  0  0
  138.1351   71.0499  224.7347 H   0  0  0  0  0  0  0  0  0  0  0  0
  140.5406   71.7930  227.0514 H   0  0  0  0  0  0  0  0  0  0  0  0
  141.4278   70.3349  228.8251 H   0  0  0  0  0  0  0  0  0  0  0  0
  141.1597   67.8592  228.6460 H   0  0  0  0  0  0  0  0  0  0  0  0
  139.9875   66.9184  226.6614 H   0  0  0  0  0  0  0  0  0  0  0  0
  139.1111   68.3892  224.8999 H   0  0  0  0  0  0  0  0  0  0  0  0
  140.7927   73.9807  220.9235 H   0  0  0  0  0  0  0  0  0  0  0  0
  142.2442   75.9437  221.2969 H   0  0  0  0  0  0  0  0  0  0  0  0
  142.4996   78.1734  222.0883 H   0  0  0  0  0  0  0  0  0  0  0  0
  139.1010   80.2328  223.7655 H   0  0  0  0  0  0  0  0  0  0  0  0
  137.6749   78.2216  223.3630 H   0  0  0  0  0  0  0  0  0  0  0  0
  1  2  2  0
  2  3  1  0
  3  4  1  0
  4  5  1  0
  5  6  2  0
  5  7  1  0
  7  8  1  0
  8  9  1  0
  9 10  1  0
 10 11  1  0
 11 12  1  0
 12 13  1  0
 13 14  1  0
 14 15  2  0
 15 16  1  0
 16 17  2  0
 17 18  1  0
 18 19  2  0
  2 20  1  0
 20 21  2  0
 21 22  1  0
 22 23  2  0
 23 24  1  0
 24 25  2  0
 25 26  1  0
 26 27  1  0
 26 28  1  0
 26 29  1  0
 25 30  1  0
 30 31  2  0
 31 32  1  0
 32 33  2  0
 12  7  1  0
 19 14  1  0
 33 20  1  0
 32 23  1  0
  3 34  1  0
  4 35  1  0
  4 36  1  0
  8 37  1  0
  8 38  1  0
  9 39  1  0
  9 40  1  0
 10 41  1  0
 10 42  1  0
 11 43  1  0
 11 44  1  0
 12 45  1  1
 13 46  1  0
 13 47  1  0
 15 48  1  0
 16 49  1  0
 17 50  1  0
 18 51  1  0
 19 52  1  0
 21 53  1  0
 22 54  1  0
 24 55  1  0
 30 56  1  0
 31 57  1  0
M  END
>  <smiles>  (51) 
O=C(NCC(=O)N1CCCCC1Cc1ccccc1)c1ccc2cc(C(F)(F)F)ccc2n1

>  <score_type>  (51) 
oracle

>  <origin>  (51) 
autodockgpu

>  <m_score__min__energy>  (51) 
-8.4199999999999999

>  <m_primary>  (51) 
energy

>  <rmsd>  (51) 
7.090499822746911

>  <m_score__min__rmsd>  (51) 
7.090499822746911

>  <meeko>  (51) 
{"free_energy": -7.83, "intermolecular_energy": -9.92, "internal_energy": -2.28, "cluster_size": 38, "cluster_id": 2, "rank_in_cluster": 23}

>  <energy>  (51) 
-8.42

>  <cluster_rmsd>  (51) 
0.0

>  <cluster>  (51) 
1

$$$$

     RDKit          3D

 57 60  0  0  0  0  0  0  0  0999 V2000
  138.8860   72.2400  220.5720 O   0  0  0  0  0  0  0  0  0  0  0  0
  138.9690   72.7070  221.7510 C   0  0  0  0  0  0  0  0  0  0  0  0
  138.7880   74.1120  221.8760 N   0  0  0  0  0  0  0  0  0  0  0  0
  138.5320   74.8630  220.6740 C   0  0  0  0  0  0  0  0  0  0  0  0
  139.6920   74.8620  219.7500 C   0  0  0  0  0  0  0  0  0  0  0  0
  139.4310   74.8270  218.5170 O   0  0  0  0  0  0  0  0  0  0  0  0
  140.9950   74.9000  220.2870 N   0  0  0  0  0  0  0  0  0  0  0  0
  141.8020   73.6720  220.3800 C   0  0  0  0  0  0  0  0  0  0  0  0
  143.0710   73.8200  219.5750 C   0  0  0  0  0  0  0  0  0  0  0  0
  143.7560   75.1310  219.8050 C   0  0  0  0  0  0  0  0  0  0  0  0
  142.8670   76.3190  219.9280 C   0  0  0  0  0  0  0  0  0  0  0  0
  141.6400   76.1030  220.7780 C   0  0  1  0  0  0  0  0  0  0  0  0
  140.7860   77.3220  220.7350 C   0  0  0  0  0  0  0  0  0  0  0  0
  141.3120   78.3190  221.7300 C   0  0  0  0  0  0  0  0  0  0  0  0
  141.8280   79.5390  221.3090 C   0  0  0  0  0  0  0  0  0  0  0  0
  142.3220   80.4790  222.1890 C   0  0  0  0  0  0  0  0  0  0  0  0
  142.3120   80.2180  223.5440 C   0  0  0  0  0  0  0  0  0  0  0  0
  141.8000   79.0050  223.9770 C   0  0  0  0  0  0  0  0  0  0  0  0
  141.3120   78.0770  223.0840 C   0  0  0  0  0  0  0  0  0  0  0  0
  139.2330   71.8550  222.9020 C   0  0  0  0  0  0  0  0  0  0  0  0
  138.6060   70.6290  222.9550 C   0  0  0  0  0  0  0  0  0  0  0  0
  138.7850   69.7490  223.9960 C   0  0  0  0  0  0  0  0  0  0  0  0
  139.6200   70.1170  225.0130 C   0  0  0  0  0  0  0  0  0  0  0  0
  139.8170   69.2530  226.0690 C   0  0  0  0  0  0  0  0  0  0  0  0
  140.6590   69.6250  227.0930 C   0  0  0  0  0  0  0  0  0  0  0  0
  140.8580   68.6770  228.2230 C   0  0  0  0  0  0  0  0  0  0  0  0
  139.6930   68.5080  228.9510 F   0  0  0  0  0  0  0  0  0  0  0  0
  141.8410   69.2190  229.0600 F   0  0  0  0  0  0  0  0  0  0  0  0
  141.3530   67.4920  227.7410 F   0  0  0  0  0  0  0  0  0  0  0  0
  141.3050   70.8660  227.0580 C   0  0  0  0  0  0  0  0  0  0  0  0
  141.0970   71.7320  225.9810 C   0  0  0  0  0  0  0  0  0  0  0  0
  140.2540   71.3620  224.9540 C   0  0  0  0  0  0  0  0  0  0  0  0
  140.0510   72.2020  223.9100 N   0  0  0  0  0  0  0  0  0  0  0  0
  138.8420   74.5740  222.8170 H   0  0  0  0  0  0  0  0  0  0  0  0
  137.6682   74.4193  220.1573 H   0  0  0  0  0  0  0  0  0  0  0  0
  138.3353   75.9054  220.9649 H   0  0  0  0  0  0  0  0  0  0  0  0
  142.0594   73.4852  221.4330 H   0  0  0  0  0  0  0  0  0  0  0  0
  141.2197   72.8286  219.9805 H   0  0  0  0  0  0  0  0  0  0  0  0
  143.7605   73.0097  219.8543 H   0  0  0  0  0  0  0  0  0  0  0  0
  142.7949   73.7734  218.5112 H   0  0  0  0  0  0  0  0  0  0  0  0
  144.3377   75.0482  220.7349 H   0  0  0  0  0  0  0  0  0  0  0  0
  144.3659   75.3086  218.9069 H   0  0  0  0  0  0  0  0  0  0  0  0
  143.4507   77.1393  220.3712 H   0  0  0  0  0  0  0  0  0  0  0  0
  142.5063   76.5434  218.9133 H   0  0  0  0  0  0  0  0  0  0  0  0
  141.8739   75.9514  221.8421 H   0  0  0  0  0  0  0  0  0  0  0  0
  140.8143   77.7575  219.7253 H   0  0  0  0  0  0  0  0  0  0  0  0
  139.7473   77.0589  220.9837 H   0  0  0  0  0  0  0  0  0  0  0  0
  141.8429   79.7635  220.2323 H   0  0  0  0  0  0  0  0  0  0  0  0
  142.7220   81.4321  221.8126 H   0  0  0  0  0  0  0  0  0  0  0  0
  142.7007   80.9544  224.2627 H   0  0  0  0  0  0  0  0  0  0  0  0
  141.7831   78.7794  225.0535 H   0  0  0  0  0  0  0  0  0  0  0  0
  140.9143   77.1233  223.4611 H   0  0  0  0  0  0  0  0  0  0  0  0
  137.9354   70.3430  222.1313 H   0  0  0  0  0  0  0  0  0  0  0  0
  138.2708   68.7767  224.0098 H   0  0  0  0  0  0  0  0  0  0  0  0
  139.3078   68.2783  226.0933 H   0  0  0  0  0  0  0  0  0  0  0  0
  141.9765   71.1598  227.8782 H   0  0  0  0  0  0  0  0  0  0  0  0
  141.6049   72.7073  225.9524 H   0  0  0  0  0  0  0  0  0  0  0  0
  1  2  2  0
  2  3  1  0
  3  4  1  0
  4  5  1  0
  5  6  2  0
  5  7  1  0
  7  8  1  0
  8  9  1  0
  9 10  1  0
 10 11  1  0
 11 12  1  0
 12 13  1  0
 13 14  1  0
 14 15  2  0
 15 16  1  0
 16 17  2  0
 17 18  1  0
 18 19  2  0
  2 20  1  0
 20 21  2  0
 21 22  1  0
 22 23  2  0
 23 24  1  0
 24 25  2  0
 25 26  1  0
 26 27  1  0
 26 28  1  0
 26 29  1  0
 25 30  1  0
 30 31  2  0
 31 32  1  0
 32 33  2  0
 12  7  1  0
 19 14  1  0
 33 20  1  0
 32 23  1  0
  3 34  1  0
  4 35  1  0
  4 36  1  0
  8 37  1  0
  8 38  1  0
  9 39  1  0
  9 40  1  0
 10 41  1  0
 10 42  1  0
 11 43  1  0
 11 44  1  0
 12 45  1  1
 13 46  1  0
 13 47  1  0
 15 48  1  0
 16 49  1  0
 17 50  1  0
 18 51  1  0
 19 52  1  0
 21 53  1  0
 22 54  1  0
 24 55  1  0
 30 56  1  0
 31 57  1  0
M  END
>  <smiles>  (52) 
O=C(NCC(=O)N1CCCCC1Cc1ccccc1)c1ccc2cc(C(F)(F)F)ccc2n1

>  <score_type>  (52) 
oracle

>  <origin>  (52) 
autodockgpu

>  <m_score__min__energy>  (52) 
-8.4199999999999999

>  <m_primary>  (52) 
energy

>  <rmsd>  (52) 
2.2863922202165647

>  <m_score__min__rmsd>  (52) 
2.2863922202165647

>  <meeko>  (52) 
{"free_energy": -8.18, "intermolecular_energy": -10.27, "internal_energy": -1.84, "cluster_size": 11, "cluster_id": 1, "rank_in_cluster": 4}

>  <energy>  (52) 
-8.27

>  <cluster_rmsd>  (52) 
1.4

>  <cluster>  (52) 
1

$$$$

     RDKit          3D

 57 60  0  0  0  0  0  0  0  0999 V2000
  137.6570   72.8640  220.7410 O   0  0  0  0  0  0  0  0  0  0  0  0
  137.6480   73.3780  221.9020 C   0  0  0  0  0  0  0  0  0  0  0  0
  137.1790   72.5370  222.9500 N   0  0  0  0  0  0  0  0  0  0  0  0
  136.7640   71.2030  222.6010 C   0  0  0  0  0  0  0  0  0  0  0  0
  137.7090   70.1710  223.0930 C   0  0  0  0  0  0  0  0  0  0  0  0
  137.2140   69.2290  223.7690 O   0  0  0  0  0  0  0  0  0  0  0  0
  139.0800   70.2940  222.7840 N   0  0  0  0  0  0  0  0  0  0  0  0
  139.5860   69.8970  221.4600 C   0  0  0  0  0  0  0  0  0  0  0  0
  140.2200   71.0800  220.7690 C   0  0  0  0  0  0  0  0  0  0  0  0
  141.1310   71.8600  221.6660 C   0  0  0  0  0  0  0  0  0  0  0  0
  140.6660   72.0400  223.0690 C   0  0  0  0  0  0  0  0  0  0  0  0
  140.0800   70.8030  223.7030 C   0  0  1  0  0  0  0  0  0  0  0  0
  139.5600   71.1390  225.0570 C   0  0  0  0  0  0  0  0  0  0  0  0
  140.0390   70.1010  226.0330 C   0  0  0  0  0  0  0  0  0  0  0  0
  140.5840   70.4730  227.2560 C   0  0  0  0  0  0  0  0  0  0  0  0
  141.0360   69.5520  228.1780 C   0  0  0  0  0  0  0  0  0  0  0  0
  140.9530   68.2050  227.8940 C   0  0  0  0  0  0  0  0  0  0  0  0
  140.4130   67.8200  226.6770 C   0  0  0  0  0  0  0  0  0  0  0  0
  139.9660   68.7530  225.7680 C   0  0  0  0  0  0  0  0  0  0  0  0
  138.0910   74.7430  222.1460 C   0  0  0  0  0  0  0  0  0  0  0  0
  137.1290   75.7050  222.3630 C   0  0  0  0  0  0  0  0  0  0  0  0
  137.4390   77.0230  222.6020 C   0  0  0  0  0  0  0  0  0  0  0  0
  138.7580   77.3800  222.6240 C   0  0  0  0  0  0  0  0  0  0  0  0
  139.0960   78.6950  222.8620 C   0  0  0  0  0  0  0  0  0  0  0  0
  140.4250   79.0530  222.8830 C   0  0  0  0  0  0  0  0  0  0  0  0
  140.7680   80.4790  223.1430 C   0  0  0  0  0  0  0  0  0  0  0  0
  141.9360   80.5920  223.8770 F   0  0  0  0  0  0  0  0  0  0  0  0
  139.7140   81.0380  223.8770 F   0  0  0  0  0  0  0  0  0  0  0  0
  140.8280   81.1570  221.9520 F   0  0  0  0  0  0  0  0  0  0  0  0
  141.4170   78.0910  222.6660 C   0  0  0  0  0  0  0  0  0  0  0  0
  141.0610   76.7610  222.4260 C   0  0  0  0  0  0  0  0  0  0  0  0
  139.7300   76.3990  222.4040 C   0  0  0  0  0  0  0  0  0  0  0  0
  139.3840   75.1100  222.1710 N   0  0  0  0  0  0  0  0  0  0  0  0
  137.1410   72.8880  223.9380 H   0  0  0  0  0  0  0  0  0  0  0  0
  135.7738   71.0143  223.0414 H   0  0  0  0  0  0  0  0  0  0  0  0
  136.7357   71.1365  221.5034 H   0  0  0  0  0  0  0  0  0  0  0  0
  140.3363   69.1017  221.5811 H   0  0  0  0  0  0  0  0  0  0  0  0
  138.7471   69.5315  220.8495 H   0  0  0  0  0  0  0  0  0  0  0  0
  140.8019   70.7143  219.9102 H   0  0  0  0  0  0  0  0  0  0  0  0
  139.4083   71.7536  220.4568 H   0  0  0  0  0  0  0  0  0  0  0  0
  142.1000   71.3402  221.6963 H   0  0  0  0  0  0  0  0  0  0  0  0
  141.1770   72.8714  221.2360 H   0  0  0  0  0  0  0  0  0  0  0  0
  141.5251   72.3618  223.6760 H   0  0  0  0  0  0  0  0  0  0  0  0
  139.8568   72.7844  223.0348 H   0  0  0  0  0  0  0  0  0  0  0  0
  140.8232   70.0090  223.8681 H   0  0  0  0  0  0  0  0  0  0  0  0
  139.9305   72.1295  225.3597 H   0  0  0  0  0  0  0  0  0  0  0  0
  138.4603   71.1563  225.0406 H   0  0  0  0  0  0  0  0  0  0  0  0
  140.6578   71.5435  227.4982 H   0  0  0  0  0  0  0  0  0  0  0  0
  141.4604   69.8902  229.1348 H   0  0  0  0  0  0  0  0  0  0  0  0
  141.3069   67.4543  228.6160 H   0  0  0  0  0  0  0  0  0  0  0  0
  140.3401   66.7499  226.4328 H   0  0  0  0  0  0  0  0  0  0  0  0
  139.5423   68.4137  224.8113 H   0  0  0  0  0  0  0  0  0  0  0  0
  136.0704   75.4067  222.3443 H   0  0  0  0  0  0  0  0  0  0  0  0
  136.6481   77.7687  222.7707 H   0  0  0  0  0  0  0  0  0  0  0  0
  138.3134   79.4489  223.0330 H   0  0  0  0  0  0  0  0  0  0  0  0
  142.4778   78.3814  222.6843 H   0  0  0  0  0  0  0  0  0  0  0  0
  141.8407   76.0042  222.2549 H   0  0  0  0  0  0  0  0  0  0  0  0
  1  2  2  0
  2  3  1  0
  3  4  1  0
  4  5  1  0
  5  6  2  0
  5  7  1  0
  7  8  1  0
  8  9  1  0
  9 10  1  0
 10 11  1  0
 11 12  1  0
 12 13  1  0
 13 14  1  0
 14 15  2  0
 15 16  1  0
 16 17  2  0
 17 18  1  0
 18 19  2  0
  2 20  1  0
 20 21  2  0
 21 22  1  0
 22 23  2  0
 23 24  1  0
 24 25  2  0
 25 26  1  0
 26 27  1  0
 26 28  1  0
 26 29  1  0
 25 30  1  0
 30 31  2  0
 31 32  1  0
 32 33  2  0
 12  7  1  0
 19 14  1  0
 33 20  1  0
 32 23  1  0
  3 34  1  0
  4 35  1  0
  4 36  1  0
  8 37  1  0
  8 38  1  0
  9 39  1  0
  9 40  1  0
 10 41  1  0
 10 42  1  0
 11 43  1  0
 11 44  1  0
 12 45  1  1
 13 46  1  0
 13 47  1  0
 15 48  1  0
 16 49  1  0
 17 50  1  0
 18 51  1  0
 19 52  1  0
 21 53  1  0
 22 54  1  0
 24 55  1  0
 30 56  1  0
 31 57  1  0
M  END
>  <smiles>  (53) 
O=C(NCC(=O)N1CCCCC1Cc1ccccc1)c1ccc2cc(C(F)(F)F)ccc2n1

>  <score_type>  (53) 
oracle

>  <origin>  (53) 
autodockgpu

>  <m_score__min__energy>  (53) 
-8.4199999999999999

>  <m_primary>  (53) 
energy

>  <rmsd>  (53) 
7.122229231228368

>  <m_score__min__rmsd>  (53) 
7.122229231228368

>  <meeko>  (53) 
{"free_energy": -7.89, "intermolecular_energy": -9.98, "internal_energy": -2.3, "cluster_size": 38, "cluster_id": 2, "rank_in_cluster": 15}

>  <energy>  (53) 
-8.24

>  <cluster_rmsd>  (53) 
0.71

>  <cluster>  (53) 
1

$$$$

     RDKit          3D

 57 60  0  0  0  0  0  0  0  0999 V2000
  139.1720   72.8240  220.5630 O   0  0  0  0  0  0  0  0  0  0  0  0
  140.0870   72.8190  221.4450 C   0  0  0  0  0  0  0  0  0  0  0  0
  141.2130   73.6450  221.1760 N   0  0  0  0  0  0  0  0  0  0  0  0
  141.2120   74.3980  219.9480 C   0  0  0  0  0  0  0  0  0  0  0  0
  141.1400   75.8600  220.1830 C   0  0  0  0  0  0  0  0  0  0  0  0
  142.1860   76.5230  219.9430 O   0  0  0  0  0  0  0  0  0  0  0  0
  139.9320   76.4200  220.6490 N   0  0  0  0  0  0  0  0  0  0  0  0
  138.7110   76.3510  219.8300 C   0  0  0  0  0  0  0  0  0  0  0  0
  137.6310   75.5990  220.5700 C   0  0  0  0  0  0  0  0  0  0  0  0
  137.4960   76.0260  221.9980 C   0  0  0  0  0  0  0  0  0  0  0  0
  138.7710   76.3010  222.7180 C   0  0  0  0  0  0  0  0  0  0  0  0
  139.7850   77.0900  221.9270 C   0  0  1  0  0  0  0  0  0  0  0  0
  141.0440   77.2060  222.7130 C   0  0  0  0  0  0  0  0  0  0  0  0
  141.2840   78.6550  223.0340 C   0  0  0  0  0  0  0  0  0  0  0  0
  142.5740   79.1700  223.0710 C   0  0  0  0  0  0  0  0  0  0  0  0
  142.8380   80.4920  223.3620 C   0  0  0  0  0  0  0  0  0  0  0  0
  141.7930   81.3530  223.6310 C   0  0  0  0  0  0  0  0  0  0  0  0
  140.5010   80.8520  223.5980 C   0  0  0  0  0  0  0  0  0  0  0  0
  140.2570   79.5280  223.3050 C   0  0  0  0  0  0  0  0  0  0  0  0
  139.9870   72.0170  222.6560 C   0  0  0  0  0  0  0  0  0  0  0  0
  139.1560   70.9180  222.6360 C   0  0  0  0  0  0  0  0  0  0  0  0
  138.9890   70.0950  223.7250 C   0  0  0  0  0  0  0  0  0  0  0  0
  139.6810   70.3890  224.8660 C   0  0  0  0  0  0  0  0  0  0  0  0
  139.5320   69.5800  225.9720 C   0  0  0  0  0  0  0  0  0  0  0  0
  140.2300   69.8780  227.1210 C   0  0  0  0  0  0  0  0  0  0  0  0
  140.0540   68.9900  228.3030 C   0  0  0  0  0  0  0  0  0  0  0  0
  139.5270   67.7630  227.9390 F   0  0  0  0  0  0  0  0  0  0  0  0
  139.1630   69.6250  229.1770 F   0  0  0  0  0  0  0  0  0  0  0  0
  141.2490   68.8730  228.9670 F   0  0  0  0  0  0  0  0  0  0  0  0
  141.0780   70.9890  227.1610 C   0  0  0  0  0  0  0  0  0  0  0  0
  141.2200   71.8010  226.0330 C   0  0  0  0  0  0  0  0  0  0  0  0
  140.5230   71.5060  224.8800 C   0  0  0  0  0  0  0  0  0  0  0  0
  140.6600   72.2930  223.7860 N   0  0  0  0  0  0  0  0  0  0  0  0
  142.0110   73.6950  221.8560 H   0  0  0  0  0  0  0  0  0  0  0  0
  142.1362   74.1739  219.3952 H   0  0  0  0  0  0  0  0  0  0  0  0
  140.3196   74.1055  219.3753 H   0  0  0  0  0  0  0  0  0  0  0  0
  138.3606   77.3708  219.6129 H   0  0  0  0  0  0  0  0  0  0  0  0
  138.9370   75.8247  218.8909 H   0  0  0  0  0  0  0  0  0  0  0  0
  136.6716   75.7712  220.0603 H   0  0  0  0  0  0  0  0  0  0  0  0
  137.9107   74.5351  220.5693 H   0  0  0  0  0  0  0  0  0  0  0  0
  136.8919   76.9450  222.0194 H   0  0  0  0  0  0  0  0  0  0  0  0
  137.0362   75.1746  222.5212 H   0  0  0  0  0  0  0  0  0  0  0  0
  138.5336   76.8666  223.6311 H   0  0  0  0  0  0  0  0  0  0  0  0
  139.2297   75.3222  222.9217 H   0  0  0  0  0  0  0  0  0  0  0  0
  139.4709   78.1259  221.7315 H   0  0  0  0  0  0  0  0  0  0  0  0
  140.9513   76.6312  223.6463 H   0  0  0  0  0  0  0  0  0  0  0  0
  141.8869   76.8084  222.1287 H   0  0  0  0  0  0  0  0  0  0  0  0
  143.4179   78.4968  222.8599 H   0  0  0  0  0  0  0  0  0  0  0  0
  143.8751   80.8582  223.3797 H   0  0  0  0  0  0  0  0  0  0  0  0
  141.9811   82.4111  223.8658 H   0  0  0  0  0  0  0  0  0  0  0  0
  139.6556   81.5233  223.8095 H   0  0  0  0  0  0  0  0  0  0  0  0
  139.2198   79.1621  223.2875 H   0  0  0  0  0  0  0  0  0  0  0  0
  138.6042   70.6899  221.7121 H   0  0  0  0  0  0  0  0  0  0  0  0
  138.3176   69.2249  223.6789 H   0  0  0  0  0  0  0  0  0  0  0  0
  138.8637   68.7070  225.9372 H   0  0  0  0  0  0  0  0  0  0  0  0
  141.6335   71.2238  228.0809 H   0  0  0  0  0  0  0  0  0  0  0  0
  141.8872   72.6750  226.0644 H   0  0  0  0  0  0  0  0  0  0  0  0
  1  2  2  0
  2  3  1  0
  3  4  1  0
  4  5  1  0
  5  6  2  0
  5  7  1  0
  7  8  1  0
  8  9  1  0
  9 10  1  0
 10 11  1  0
 11 12  1  0
 12 13  1  0
 13 14  1  0
 14 15  2  0
 15 16  1  0
 16 17  2  0
 17 18  1  0
 18 19  2  0
  2 20  1  0
 20 21  2  0
 21 22  1  0
 22 23  2  0
 23 24  1  0
 24 25  2  0
 25 26  1  0
 26 27  1  0
 26 28  1  0
 26 29  1  0
 25 30  1  0
 30 31  2  0
 31 32  1  0
 32 33  2  0
 12  7  1  0
 19 14  1  0
 33 20  1  0
 32 23  1  0
  3 34  1  0
  4 35  1  0
  4 36  1  0
  8 37  1  0
  8 38  1  0
  9 39  1  0
  9 40  1  0
 10 41  1  0
 10 42  1  0
 11 43  1  0
 11 44  1  0
 12 45  1  6
 13 46  1  0
 13 47  1  0
 15 48  1  0
 16 49  1  0
 17 50  1  0
 18 51  1  0
 19 52  1  0
 21 53  1  0
 22 54  1  0
 24 55  1  0
 30 56  1  0
 31 57  1  0
M  END
>  <smiles>  (54) 
O=C(NCC(=O)N1CCCCC1Cc1ccccc1)c1ccc2cc(C(F)(F)F)ccc2n1

>  <score_type>  (54) 
oracle

>  <origin>  (54) 
autodockgpu

>  <m_score__min__energy>  (54) 
-8.4199999999999999

>  <m_primary>  (54) 
energy

>  <rmsd>  (54) 
2.869836741318428

>  <m_score__min__rmsd>  (54) 
2.869836741318428

>  <meeko>  (54) 
{"free_energy": -7.84, "intermolecular_energy": -9.93, "internal_energy": -2.17, "cluster_size": 11, "cluster_id": 1, "rank_in_cluster": 6}

>  <energy>  (54) 
-8.18

>  <cluster_rmsd>  (54) 
0.71

>  <cluster>  (54) 
1

$$$$

     RDKit          3D

 57 60  0  0  0  0  0  0  0  0999 V2000
  137.3850   73.0480  220.5530 O   0  0  0  0  0  0  0  0  0  0  0  0
  137.4700   73.4650  221.7500 C   0  0  0  0  0  0  0  0  0  0  0  0
  137.0420   72.5550  222.7560 N   0  0  0  0  0  0  0  0  0  0  0  0
  136.5580   71.2670  222.3300 C   0  0  0  0  0  0  0  0  0  0  0  0
  137.4150   70.1560  222.8110 C   0  0  0  0  0  0  0  0  0  0  0  0
  136.8200   69.1410  223.2640 O   0  0  0  0  0  0  0  0  0  0  0  0
  138.8170   70.2900  222.7360 N   0  0  0  0  0  0  0  0  0  0  0  0
  139.5060   70.2190  221.4370 C   0  0  0  0  0  0  0  0  0  0  0  0
  140.2440   71.5090  221.1690 C   0  0  0  0  0  0  0  0  0  0  0  0
  141.0230   71.9910  222.3530 C   0  0  0  0  0  0  0  0  0  0  0  0
  140.3610   71.8300  223.6770 C   0  0  0  0  0  0  0  0  0  0  0  0
  139.6780   70.5010  223.8840 C   0  0  1  0  0  0  0  0  0  0  0  0
  138.9710   70.5060  225.1940 C   0  0  0  0  0  0  0  0  0  0  0  0
  139.7620   69.6890  226.1760 C   0  0  0  0  0  0  0  0  0  0  0  0
  139.9750   68.3320  225.9650 C   0  0  0  0  0  0  0  0  0  0  0  0
  140.6940   67.5470  226.8420 C   0  0  0  0  0  0  0  0  0  0  0  0
  141.2310   68.1130  227.9800 C   0  0  0  0  0  0  0  0  0  0  0  0
  141.0260   69.4650  228.2040 C   0  0  0  0  0  0  0  0  0  0  0  0
  140.3050   70.2340  227.3170 C   0  0  0  0  0  0  0  0  0  0  0  0
  137.9760   74.7920  222.0710 C   0  0  0  0  0  0  0  0  0  0  0  0
  137.0610   75.7690  222.4010 C   0  0  0  0  0  0  0  0  0  0  0  0
  137.4320   77.0540  222.7210 C   0  0  0  0  0  0  0  0  0  0  0  0
  138.7640   77.3610  222.7080 C   0  0  0  0  0  0  0  0  0  0  0  0
  139.1630   78.6420  223.0250 C   0  0  0  0  0  0  0  0  0  0  0  0
  140.5040   78.9500  223.0110 C   0  0  0  0  0  0  0  0  0  0  0  0
  140.9130   80.3400  223.3570 C   0  0  0  0  0  0  0  0  0  0  0  0
  141.9960   80.3480  224.2180 F   0  0  0  0  0  0  0  0  0  0  0  0
  139.8250   80.9520  223.9920 F   0  0  0  0  0  0  0  0  0  0  0  0
  141.1510   81.0450  222.2050 F   0  0  0  0  0  0  0  0  0  0  0  0
  141.4480   77.9730  222.6790 C   0  0  0  0  0  0  0  0  0  0  0  0
  141.0300   76.6780  222.3600 C   0  0  0  0  0  0  0  0  0  0  0  0
  139.6870   76.3660  222.3730 C   0  0  0  0  0  0  0  0  0  0  0  0
  139.2820   75.1110  222.0630 N   0  0  0  0  0  0  0  0  0  0  0  0
  137.0810   72.8250  223.7700 H   0  0  0  0  0  0  0  0  0  0  0  0
  135.5404   71.1241  222.7224 H   0  0  0  0  0  0  0  0  0  0  0  0
  136.5708   71.2498  221.2302 H   0  0  0  0  0  0  0  0  0  0  0  0
  140.2237   69.3855  221.4511 H   0  0  0  0  0  0  0  0  0  0  0  0
  138.7615   70.0589  220.6432 H   0  0  0  0  0  0  0  0  0  0  0  0
  140.9402   71.3479  220.3327 H   0  0  0  0  0  0  0  0  0  0  0  0
  139.4922   72.2767  220.9336 H   0  0  0  0  0  0  0  0  0  0  0  0
  141.9719   71.4352  222.3809 H   0  0  0  0  0  0  0  0  0  0  0  0
  141.1416   73.0751  222.2096 H   0  0  0  0  0  0  0  0  0  0  0  0
  141.1259   71.9474  224.4588 H   0  0  0  0  0  0  0  0  0  0  0  0
  139.5719   72.5950  223.7243 H   0  0  0  0  0  0  0  0  0  0  0  0
  140.3813   69.6571  223.9396 H   0  0  0  0  0  0  0  0  0  0  0  0
  138.8806   71.5390  225.5610 H   0  0  0  0  0  0  0  0  0  0  0  0
  137.9649   70.0770  225.0766 H   0  0  0  0  0  0  0  0  0  0  0  0
  139.5534   67.8654  225.0625 H   0  0  0  0  0  0  0  0  0  0  0  0
  140.8384   66.4763  226.6355 H   0  0  0  0  0  0  0  0  0  0  0  0
  141.8082   67.5054  228.6925 H   0  0  0  0  0  0  0  0  0  0  0  0
  141.4466   69.9327  229.1064 H   0  0  0  0  0  0  0  0  0  0  0  0
  140.1605   71.3045  227.5249 H   0  0  0  0  0  0  0  0  0  0  0  0
  135.9918   75.5105  222.4087 H   0  0  0  0  0  0  0  0  0  0  0  0
  136.6788   77.8127  222.9799 H   0  0  0  0  0  0  0  0  0  0  0  0
  138.4184   79.4085  223.2859 H   0  0  0  0  0  0  0  0  0  0  0  0
  142.5190   78.2236  222.6689 H   0  0  0  0  0  0  0  0  0  0  0  0
  141.7716   75.9086  222.0989 H   0  0  0  0  0  0  0  0  0  0  0  0
  1  2  2  0
  2  3  1  0
  3  4  1  0
  4  5  1  0
  5  6  2  0
  5  7  1  0
  7  8  1  0
  8  9  1  0
  9 10  1  0
 10 11  1  0
 11 12  1  0
 12 13  1  0
 13 14  1  0
 14 15  2  0
 15 16  1  0
 16 17  2  0
 17 18  1  0
 18 19  2  0
  2 20  1  0
 20 21  2  0
 21 22  1  0
 22 23  2  0
 23 24  1  0
 24 25  2  0
 25 26  1  0
 26 27  1  0
 26 28  1  0
 26 29  1  0
 25 30  1  0
 30 31  2  0
 31 32  1  0
 32 33  2  0
 12  7  1  0
 19 14  1  0
 33 20  1  0
 32 23  1  0
  3 34  1  0
  4 35  1  0
  4 36  1  0
  8 37  1  0
  8 38  1  0
  9 39  1  0
  9 40  1  0
 10 41  1  0
 10 42  1  0
 11 43  1  0
 11 44  1  0
 12 45  1  1
 13 46  1  0
 13 47  1  0
 15 48  1  0
 16 49  1  0
 17 50  1  0
 18 51  1  0
 19 52  1  0
 21 53  1  0
 22 54  1  0
 24 55  1  0
 30 56  1  0
 31 57  1  0
M  END
>  <smiles>  (55) 
O=C(NCC(=O)N1CCCCC1Cc1ccccc1)c1ccc2cc(C(F)(F)F)ccc2n1

>  <score_type>  (55) 
oracle

>  <origin>  (55) 
autodockgpu

>  <m_score__min__energy>  (55) 
-8.4199999999999999

>  <m_primary>  (55) 
energy

>  <rmsd>  (55) 
7.1996585818281

>  <m_score__min__rmsd>  (55) 
7.1996585818281

>  <meeko>  (55) 
{"free_energy": -7.74, "intermolecular_energy": -9.83, "internal_energy": -2.2, "cluster_size": 38, "cluster_id": 2, "rank_in_cluster": 33}

>  <energy>  (55) 
-8.15

>  <cluster_rmsd>  (55) 
1.79

>  <cluster>  (55) 
1

$$$$

     RDKit          3D

 57 60  0  0  0  0  0  0  0  0999 V2000
  136.5370   74.8930  221.0540 O   0  0  0  0  0  0  0  0  0  0  0  0
  137.5460   74.6950  221.8010 C   0  0  0  0  0  0  0  0  0  0  0  0
  137.6400   73.4020  222.3870 N   0  0  0  0  0  0  0  0  0  0  0  0
  136.5990   72.4540  222.0840 C   0  0  0  0  0  0  0  0  0  0  0  0
  137.0940   71.0560  222.0740 C   0  0  0  0  0  0  0  0  0  0  0  0
  136.2200   70.1470  222.0560 O   0  0  0  0  0  0  0  0  0  0  0  0
  138.4850   70.8220  222.0830 N   0  0  0  0  0  0  0  0  0  0  0  0
  139.2720   70.9420  220.8450 C   0  0  0  0  0  0  0  0  0  0  0  0
  140.3330   72.0050  221.0040 C   0  0  0  0  0  0  0  0  0  0  0  0
  141.0730   71.8990  222.3010 C   0  0  0  0  0  0  0  0  0  0  0  0
  140.2520   71.5510  223.4940 C   0  0  0  0  0  0  0  0  0  0  0  0
  139.2410   70.4550  223.2660 C   0  0  1  0  0  0  0  0  0  0  0  0
  138.4190   70.2760  224.4940 C   0  0  0  0  0  0  0  0  0  0  0  0
  139.2330   69.5380  225.5200 C   0  0  0  0  0  0  0  0  0  0  0  0
  139.2850   68.1490  225.5220 C   0  0  0  0  0  0  0  0  0  0  0  0
  140.0180   67.4350  226.4470 C   0  0  0  0  0  0  0  0  0  0  0  0
  140.7350   68.1070  227.4160 C   0  0  0  0  0  0  0  0  0  0  0  0
  140.6920   69.4930  227.4250 C   0  0  0  0  0  0  0  0  0  0  0  0
  139.9540   70.1900  226.4940 C   0  0  0  0  0  0  0  0  0  0  0  0
  138.5440   75.7270  222.0410 C   0  0  0  0  0  0  0  0  0  0  0  0
  139.8610   75.4290  221.7650 C   0  0  0  0  0  0  0  0  0  0  0  0
  140.8810   76.3310  221.9550 C   0  0  0  0  0  0  0  0  0  0  0  0
  140.5640   77.5690  222.4380 C   0  0  0  0  0  0  0  0  0  0  0  0
  141.5680   78.4920  222.6390 C   0  0  0  0  0  0  0  0  0  0  0  0
  141.2460   79.7390  223.1250 C   0  0  0  0  0  0  0  0  0  0  0  0
  142.3460   80.7200  223.3340 C   0  0  0  0  0  0  0  0  0  0  0  0
  141.8990   82.0210  223.1760 F   0  0  0  0  0  0  0  0  0  0  0  0
  143.3310   80.4590  222.3720 F   0  0  0  0  0  0  0  0  0  0  0  0
  142.9200   80.5070  224.5610 F   0  0  0  0  0  0  0  0  0  0  0  0
  139.9150   80.0610  223.4120 C   0  0  0  0  0  0  0  0  0  0  0  0
  138.9070   79.1160  223.2040 C   0  0  0  0  0  0  0  0  0  0  0  0
  139.2260   77.8660  222.7170 C   0  0  0  0  0  0  0  0  0  0  0  0
  138.2480   76.9500  222.5150 N   0  0  0  0  0  0  0  0  0  0  0  0
  138.4440   73.1600  223.0160 H   0  0  0  0  0  0  0  0  0  0  0  0
  135.8078   72.5434  222.8429 H   0  0  0  0  0  0  0  0  0  0  0  0
  136.2190   72.6829  221.0774 H   0  0  0  0  0  0  0  0  0  0  0  0
  139.7535   69.9777  220.6253 H   0  0  0  0  0  0  0  0  0  0  0  0
  138.6022   71.2233  220.0191 H   0  0  0  0  0  0  0  0  0  0  0  0
  141.0542   71.9073  220.1792 H   0  0  0  0  0  0  0  0  0  0  0  0
  139.8269   72.9816  220.9912 H   0  0  0  0  0  0  0  0  0  0  0  0
  141.8449   71.1238  222.1858 H   0  0  0  0  0  0  0  0  0  0  0  0
  141.4717   72.9050  222.4983 H   0  0  0  0  0  0  0  0  0  0  0  0
  140.9324   71.2280  224.2957 H   0  0  0  0  0  0  0  0  0  0  0  0
  139.6785   72.4540  223.7504 H   0  0  0  0  0  0  0  0  0  0  0  0
  139.7015   69.4731  223.0822 H   0  0  0  0  0  0  0  0  0  0  0  0
  138.1285   71.2599  224.8908 H   0  0  0  0  0  0  0  0  0  0  0  0
  137.5111   69.7027  224.2551 H   0  0  0  0  0  0  0  0  0  0  0  0
  138.7197   67.5977  224.7562 H   0  0  0  0  0  0  0  0  0  0  0  0
  140.0310   66.3356  226.4125 H   0  0  0  0  0  0  0  0  0  0  0  0
  141.3261   67.5567  228.1629 H   0  0  0  0  0  0  0  0  0  0  0  0
  141.2575   70.0459  228.1895 H   0  0  0  0  0  0  0  0  0  0  0  0
  139.9407   71.2893  226.5298 H   0  0  0  0  0  0  0  0  0  0  0  0
  140.1059   74.4292  221.3771 H   0  0  0  0  0  0  0  0  0  0  0  0
  141.9228   76.0635  221.7247 H   0  0  0  0  0  0  0  0  0  0  0  0
  142.6136   78.2352  222.4138 H   0  0  0  0  0  0  0  0  0  0  0  0
  139.6621   81.0582  223.8014 H   0  0  0  0  0  0  0  0  0  0  0  0
  137.8603   79.3689  223.4285 H   0  0  0  0  0  0  0  0  0  0  0  0
  1  2  2  0
  2  3  1  0
  3  4  1  0
  4  5  1  0
  5  6  2  0
  5  7  1  0
  7  8  1  0
  8  9  1  0
  9 10  1  0
 10 11  1  0
 11 12  1  0
 12 13  1  0
 13 14  1  0
 14 15  2  0
 15 16  1  0
 16 17  2  0
 17 18  1  0
 18 19  2  0
  2 20  1  0
 20 21  2  0
 21 22  1  0
 22 23  2  0
 23 24  1  0
 24 25  2  0
 25 26  1  0
 26 27  1  0
 26 28  1  0
 26 29  1  0
 25 30  1  0
 30 31  2  0
 31 32  1  0
 32 33  2  0
 12  7  1  0
 19 14  1  0
 33 20  1  0
 32 23  1  0
  3 34  1  0
  4 35  1  0
  4 36  1  0
  8 37  1  0
  8 38  1  0
  9 39  1  0
  9 40  1  0
 10 41  1  0
 10 42  1  0
 11 43  1  0
 11 44  1  0
 12 45  1  6
 13 46  1  0
 13 47  1  0
 15 48  1  0
 16 49  1  0
 17 50  1  0
 18 51  1  0
 19 52  1  0
 21 53  1  0
 22 54  1  0
 24 55  1  0
 30 56  1  0
 31 57  1  0
M  END
>  <smiles>  (56) 
O=C(NCC(=O)N1CCCCC1Cc1ccccc1)c1ccc2cc(C(F)(F)F)ccc2n1

>  <score_type>  (56) 
oracle

>  <origin>  (56) 
autodockgpu

>  <m_score__min__energy>  (56) 
-8.4199999999999999

>  <m_primary>  (56) 
energy

>  <rmsd>  (56) 
7.306959056807862

>  <m_score__min__rmsd>  (56) 
7.306959056807862

>  <meeko>  (56) 
{"free_energy": -7.93, "intermolecular_energy": -10.02, "internal_energy": -1.95, "cluster_size": 38, "cluster_id": 2, "rank_in_cluster": 9}

>  <energy>  (56) 
-7.84

>  <cluster_rmsd>  (56) 
1.52

>  <cluster>  (56) 
1

$$$$

     RDKit          3D

 57 60  0  0  0  0  0  0  0  0999 V2000
  139.7370   72.9250  220.5610 O   0  0  0  0  0  0  0  0  0  0  0  0
  139.2880   73.7970  221.3690 C   0  0  0  0  0  0  0  0  0  0  0  0
  138.1640   73.4040  222.1470 N   0  0  0  0  0  0  0  0  0  0  0  0
  137.6470   72.0740  221.9480 C   0  0  0  0  0  0  0  0  0  0  0  0
  137.1450   71.4700  223.2060 C   0  0  0  0  0  0  0  0  0  0  0  0
  136.4750   72.2230  223.9660 O   0  0  0  0  0  0  0  0  0  0  0  0
  137.4340   70.1180  223.4790 N   0  0  0  0  0  0  0  0  0  0  0  0
  136.3880   69.0890  223.3570 C   0  0  0  0  0  0  0  0  0  0  0  0
  136.7890   68.0600  222.3270 C   0  0  0  0  0  0  0  0  0  0  0  0
  138.2070   67.6050  222.4790 C   0  0  0  0  0  0  0  0  0  0  0  0
  139.1960   68.6620  222.8280 C   0  0  0  0  0  0  0  0  0  0  0  0
  138.7370   69.6300  223.8910 C   0  0  1  0  0  0  0  0  0  0  0  0
  139.7650   70.6910  224.0710 C   0  0  0  0  0  0  0  0  0  0  0  0
  140.0880   70.8110  225.5340 C   0  0  0  0  0  0  0  0  0  0  0  0
  139.6870   69.8300  226.4330 C   0  0  0  0  0  0  0  0  0  0  0  0
  139.9620   69.9030  227.7830 C   0  0  0  0  0  0  0  0  0  0  0  0
  140.6600   70.9850  228.2800 C   0  0  0  0  0  0  0  0  0  0  0  0
  141.0650   71.9710  227.3940 C   0  0  0  0  0  0  0  0  0  0  0  0
  140.7820   71.8820  226.0490 C   0  0  0  0  0  0  0  0  0  0  0  0
  139.8890   75.1180  221.4910 C   0  0  0  0  0  0  0  0  0  0  0  0
  141.0520   75.3650  220.7930 C   0  0  0  0  0  0  0  0  0  0  0  0
  141.7000   76.5770  220.8390 C   0  0  0  0  0  0  0  0  0  0  0  0
  141.1600   77.5670  221.6110 C   0  0  0  0  0  0  0  0  0  0  0  0
  141.7910   78.7920  221.6750 C   0  0  0  0  0  0  0  0  0  0  0  0
  141.2450   79.7880  222.4530 C   0  0  0  0  0  0  0  0  0  0  0  0
  141.9430   81.1020  222.5070 C   0  0  0  0  0  0  0  0  0  0  0  0
  141.5580   81.9210  221.4590 F   0  0  0  0  0  0  0  0  0  0  0  0
  143.3170   80.8540  222.4070 F   0  0  0  0  0  0  0  0  0  0  0  0
  141.7300   81.6810  223.7320 F   0  0  0  0  0  0  0  0  0  0  0  0
  140.0660   79.5560  223.1690 C   0  0  0  0  0  0  0  0  0  0  0  0
  139.4370   78.3100  223.0960 C   0  0  0  0  0  0  0  0  0  0  0  0
  139.9810   77.3100  222.3170 C   0  0  0  0  0  0  0  0  0  0  0  0
  139.3710   76.1020  222.2470 N   0  0  0  0  0  0  0  0  0  0  0  0
  137.7350   74.0680  222.8370 H   0  0  0  0  0  0  0  0  0  0  0  0
  136.8204   72.1207  221.2238 H   0  0  0  0  0  0  0  0  0  0  0  0
  138.4705   71.4452  221.5786 H   0  0  0  0  0  0  0  0  0  0  0  0
  136.2488   68.5948  224.3298 H   0  0  0  0  0  0  0  0  0  0  0  0
  135.4486   69.5666  223.0416 H   0  0  0  0  0  0  0  0  0  0  0  0
  136.1276   67.1868  222.4274 H   0  0  0  0  0  0  0  0  0  0  0  0
  136.6980   68.5311  221.3372 H   0  0  0  0  0  0  0  0  0  0  0  0
  138.2333   66.8438  223.2726 H   0  0  0  0  0  0  0  0  0  0  0  0
  138.5074   67.2320  221.4887 H   0  0  0  0  0  0  0  0  0  0  0  0
  140.1120   68.1692  223.1860 H   0  0  0  0  0  0  0  0  0  0  0  0
  139.3517   69.2550  221.9147 H   0  0  0  0  0  0  0  0  0  0  0  0
  138.6263   69.1643  224.8814 H   0  0  0  0  0  0  0  0  0  0  0  0
  140.6741   70.4231  223.5127 H   0  0  0  0  0  0  0  0  0  0  0  0
  139.3813   71.6503  223.6936 H   0  0  0  0  0  0  0  0  0  0  0  0
  139.1286   68.9616  226.0535 H   0  0  0  0  0  0  0  0  0  0  0  0
  139.6268   69.1031  228.4596 H   0  0  0  0  0  0  0  0  0  0  0  0
  140.8893   71.0629  229.3530 H   0  0  0  0  0  0  0  0  0  0  0  0
  141.6227   72.8406  227.7720 H   0  0  0  0  0  0  0  0  0  0  0  0
  141.1172   72.6826  225.3733 H   0  0  0  0  0  0  0  0  0  0  0  0
  141.4783   74.5610  220.1750 H   0  0  0  0  0  0  0  0  0  0  0  0
  142.6267   76.7449  220.2706 H   0  0  0  0  0  0  0  0  0  0  0  0
  142.7187   78.9708  221.1116 H   0  0  0  0  0  0  0  0  0  0  0  0
  139.6337   80.3545  223.7898 H   0  0  0  0  0  0  0  0  0  0  0  0
  138.5097   78.1271  223.6588 H   0  0  0  0  0  0  0  0  0  0  0  0
  1  2  2  0
  2  3  1  0
  3  4  1  0
  4  5  1  0
  5  6  2  0
  5  7  1  0
  7  8  1  0
  8  9  1  0
  9 10  1  0
 10 11  1  0
 11 12  1  0
 12 13  1  0
 13 14  1  0
 14 15  2  0
 15 16  1  0
 16 17  2  0
 17 18  1  0
 18 19  2  0
  2 20  1  0
 20 21  2  0
 21 22  1  0
 22 23  2  0
 23 24  1  0
 24 25  2  0
 25 26  1  0
 26 27  1  0
 26 28  1  0
 26 29  1  0
 25 30  1  0
 30 31  2  0
 31 32  1  0
 32 33  2  0
 12  7  1  0
 19 14  1  0
 33 20  1  0
 32 23  1  0
  3 34  1  0
  4 35  1  0
  4 36  1  0
  8 37  1  0
  8 38  1  0
  9 39  1  0
  9 40  1  0
 10 41  1  0
 10 42  1  0
 11 43  1  0
 11 44  1  0
 12 45  1  1
 13 46  1  0
 13 47  1  0
 15 48  1  0
 16 49  1  0
 17 50  1  0
 18 51  1  0
 19 52  1  0
 21 53  1  0
 22 54  1  0
 24 55  1  0
 30 56  1  0
 31 57  1  0
M  END
>  <smiles>  (57) 
O=C(NCC(=O)N1CCCCC1Cc1ccccc1)c1ccc2cc(C(F)(F)F)ccc2n1

>  <score_type>  (57) 
oracle

>  <origin>  (57) 
autodockgpu

>  <m_score__min__energy>  (57) 
-8.4199999999999999

>  <m_primary>  (57) 
energy

>  <rmsd>  (57) 
8.007496971562487

>  <m_score__min__rmsd>  (57) 
8.007496971562487

>  <meeko>  (57) 
{"free_energy": -8.04, "intermolecular_energy": -10.13, "internal_energy": -2.09, "cluster_size": 38, "cluster_id": 2, "rank_in_cluster": 4}

>  <energy>  (57) 
-7.8

>  <cluster_rmsd>  (57) 
1.54

>  <cluster>  (57) 
1

$$$$

     RDKit          3D

 57 60  0  0  0  0  0  0  0  0999 V2000
  137.6080   72.8430  220.7170 O   0  0  0  0  0  0  0  0  0  0  0  0
  137.6330   73.3410  221.8860 C   0  0  0  0  0  0  0  0  0  0  0  0
  137.1900   72.4880  222.9340 N   0  0  0  0  0  0  0  0  0  0  0  0
  136.7610   71.1600  222.5790 C   0  0  0  0  0  0  0  0  0  0  0  0
  137.7140   70.1180  223.0320 C   0  0  0  0  0  0  0  0  0  0  0  0
  137.2260   69.1460  223.6700 O   0  0  0  0  0  0  0  0  0  0  0  0
  139.0840   70.2660  222.7320 N   0  0  0  0  0  0  0  0  0  0  0  0
  139.6050   69.8810  221.4100 C   0  0  0  0  0  0  0  0  0  0  0  0
  140.2220   71.0780  220.7260 C   0  0  0  0  0  0  0  0  0  0  0  0
  141.1140   71.8700  221.6310 C   0  0  0  0  0  0  0  0  0  0  0  0
  140.6370   72.0380  223.0310 C   0  0  0  0  0  0  0  0  0  0  0  0
  140.0690   70.7890  223.6590 C   0  0  1  0  0  0  0  0  0  0  0  0
  139.5360   71.1120  225.0100 C   0  0  0  0  0  0  0  0  0  0  0  0
  140.0020   70.0630  225.9800 C   0  0  0  0  0  0  0  0  0  0  0  0
  140.5440   70.4220  227.2090 C   0  0  0  0  0  0  0  0  0  0  0  0
  140.9850   69.4900  228.1260 C   0  0  0  0  0  0  0  0  0  0  0  0
  140.8930   68.1450  227.8310 C   0  0  0  0  0  0  0  0  0  0  0  0
  140.3550   67.7740  226.6090 C   0  0  0  0  0  0  0  0  0  0  0  0
  139.9200   68.7180  225.7050 C   0  0  0  0  0  0  0  0  0  0  0  0
  138.0870   74.7020  222.1360 C   0  0  0  0  0  0  0  0  0  0  0  0
  137.1360   75.6590  222.4150 C   0  0  0  0  0  0  0  0  0  0  0  0
  137.4580   76.9720  222.6660 C   0  0  0  0  0  0  0  0  0  0  0  0
  138.7770   77.3290  222.6340 C   0  0  0  0  0  0  0  0  0  0  0  0
  139.1260   78.6400  222.8820 C   0  0  0  0  0  0  0  0  0  0  0  0
  140.4550   78.9970  222.8500 C   0  0  0  0  0  0  0  0  0  0  0  0
  140.8100   80.4180  223.1210 C   0  0  0  0  0  0  0  0  0  0  0  0
  141.1410   81.0870  221.9560 F   0  0  0  0  0  0  0  0  0  0  0  0
  141.9200   80.4180  223.9760 F   0  0  0  0  0  0  0  0  0  0  0  0
  139.7830   81.0220  223.8010 F   0  0  0  0  0  0  0  0  0  0  0  0
  141.4350   78.0400  222.5690 C   0  0  0  0  0  0  0  0  0  0  0  0
  141.0680   76.7150  222.3190 C   0  0  0  0  0  0  0  0  0  0  0  0
  139.7370   76.3530  222.3510 C   0  0  0  0  0  0  0  0  0  0  0  0
  139.3800   75.0690  222.1080 N   0  0  0  0  0  0  0  0  0  0  0  0
  137.1800   72.8260  223.9280 H   0  0  0  0  0  0  0  0  0  0  0  0
  135.7821   70.9692  223.0430 H   0  0  0  0  0  0  0  0  0  0  0  0
  136.7040   71.1081  221.4817 H   0  0  0  0  0  0  0  0  0  0  0  0
  140.3687   69.0990  221.5337 H   0  0  0  0  0  0  0  0  0  0  0  0
  138.7768   69.5015  220.7934 H   0  0  0  0  0  0  0  0  0  0  0  0
  140.8149   70.7257  219.8691 H   0  0  0  0  0  0  0  0  0  0  0  0
  139.4005   71.7384  220.4113 H   0  0  0  0  0  0  0  0  0  0  0  0
  142.0912   71.3661  221.6662 H   0  0  0  0  0  0  0  0  0  0  0  0
  141.1463   72.8833  221.2043 H   0  0  0  0  0  0  0  0  0  0  0  0
  141.4863   72.3737  223.6442 H   0  0  0  0  0  0  0  0  0  0  0  0
  139.8146   72.7676  222.9930 H   0  0  0  0  0  0  0  0  0  0  0  0
  140.8243   70.0073  223.8274 H   0  0  0  0  0  0  0  0  0  0  0  0
  139.9057   72.0984  225.3268 H   0  0  0  0  0  0  0  0  0  0  0  0
  138.4365   71.1322  224.9822 H   0  0  0  0  0  0  0  0  0  0  0  0
  140.6244   71.4900  227.4599 H   0  0  0  0  0  0  0  0  0  0  0  0
  141.4077   69.8174  229.0873 H   0  0  0  0  0  0  0  0  0  0  0  0
  141.2383   67.3859  228.5483 H   0  0  0  0  0  0  0  0  0  0  0  0
  140.2738   66.7065  226.3563 H   0  0  0  0  0  0  0  0  0  0  0  0
  139.4985   68.3893  224.7436 H   0  0  0  0  0  0  0  0  0  0  0  0
  136.0774   75.3610  222.4378 H   0  0  0  0  0  0  0  0  0  0  0  0
  136.6763   77.7140  222.8863 H   0  0  0  0  0  0  0  0  0  0  0  0
  138.3525   79.3904  223.1025 H   0  0  0  0  0  0  0  0  0  0  0  0
  142.4957   78.3304  222.5447 H   0  0  0  0  0  0  0  0  0  0  0  0
  141.8387   75.9621  222.0971 H   0  0  0  0  0  0  0  0  0  0  0  0
  1  2  2  0
  2  3  1  0
  3  4  1  0
  4  5  1  0
  5  6  2  0
  5  7  1  0
  7  8  1  0
  8  9  1  0
  9 10  1  0
 10 11  1  0
 11 12  1  0
 12 13  1  0
 13 14  1  0
 14 15  2  0
 15 16  1  0
 16 17  2  0
 17 18  1  0
 18 19  2  0
  2 20  1  0
 20 21  2  0
 21 22  1  0
 22 23  2  0
 23 24  1  0
 24 25  2  0
 25 26  1  0
 26 27  1  0
 26 28  1  0
 26 29  1  0
 25 30  1  0
 30 31  2  0
 31 32  1  0
 32 33  2  0
 12  7  1  0
 19 14  1  0
 33 20  1  0
 32 23  1  0
  3 34  1  0
  4 35  1  0
  4 36  1  0
  8 37  1  0
  8 38  1  0
  9 39  1  0
  9 40  1  0
 10 41  1  0
 10 42  1  0
 11 43  1  0
 11 44  1  0
 12 45  1  1
 13 46  1  0
 13 47  1  0
 15 48  1  0
 16 49  1  0
 17 50  1  0
 18 51  1  0
 19 52  1  0
 21 53  1  0
 22 54  1  0
 24 55  1  0
 30 56  1  0
 31 57  1  0
M  END
>  <smiles>  (58) 
O=C(NCC(=O)N1CCCCC1Cc1ccccc1)c1ccc2cc(C(F)(F)F)ccc2n1

>  <score_type>  (58) 
oracle

>  <origin>  (58) 
autodockgpu

>  <m_score__min__energy>  (58) 
-8.4199999999999999

>  <m_primary>  (58) 
energy

>  <rmsd>  (58) 
7.1059084291073535

>  <m_score__min__rmsd>  (58) 
7.1059084291073535

>  <meeko>  (58) 
{"free_energy": -7.89, "intermolecular_energy": -9.97, "internal_energy": -2.32, "cluster_size": 38, "cluster_id": 2, "rank_in_cluster": 16}

>  <energy>  (58) 
-7.79

>  <cluster_rmsd>  (58) 
1.55

>  <cluster>  (58) 
1

$$$$

     RDKit          3D

 57 60  0  0  0  0  0  0  0  0999 V2000
  138.6820   73.2740  220.0850 O   0  0  0  0  0  0  0  0  0  0  0  0
  138.6320   73.9010  221.1880 C   0  0  0  0  0  0  0  0  0  0  0  0
  137.7730   73.3480  222.1790 N   0  0  0  0  0  0  0  0  0  0  0  0
  137.0520   72.1470  221.8420 C   0  0  0  0  0  0  0  0  0  0  0  0
  137.6520   70.9380  222.4550 C   0  0  0  0  0  0  0  0  0  0  0  0
  136.8800   70.2060  223.1330 O   0  0  0  0  0  0  0  0  0  0  0  0
  139.0220   70.6740  222.2510 N   0  0  0  0  0  0  0  0  0  0  0  0
  139.4900   70.0880  220.9840 C   0  0  0  0  0  0  0  0  0  0  0  0
  140.4650   71.0220  220.3070 C   0  0  0  0  0  0  0  0  0  0  0  0
  141.4900   71.5760  221.2470 C   0  0  0  0  0  0  0  0  0  0  0  0
  140.9980   71.9460  222.6030 C   0  0  0  0  0  0  0  0  0  0  0  0
  140.0590   70.9450  223.2290 C   0  0  1  0  0  0  0  0  0  0  0  0
  139.5600   71.4780  224.5260 C   0  0  0  0  0  0  0  0  0  0  0  0
  139.9920   70.5540  225.6300 C   0  0  0  0  0  0  0  0  0  0  0  0
  140.5740   71.0540  226.7890 C   0  0  0  0  0  0  0  0  0  0  0  0
  140.9870   70.2400  227.8240 C   0  0  0  0  0  0  0  0  0  0  0  0
  140.8240   68.8740  227.7230 C   0  0  0  0  0  0  0  0  0  0  0  0
  140.2460   68.3610  226.5730 C   0  0  0  0  0  0  0  0  0  0  0  0
  139.8400   69.1890  225.5490 C   0  0  0  0  0  0  0  0  0  0  0  0
  139.4060   75.1110  221.4250 C   0  0  0  0  0  0  0  0  0  0  0  0
  140.6620   75.1930  220.8640 C   0  0  0  0  0  0  0  0  0  0  0  0
  141.4760   76.2910  221.0250 C   0  0  0  0  0  0  0  0  0  0  0  0
  141.0090   77.3330  221.7750 C   0  0  0  0  0  0  0  0  0  0  0  0
  141.8040   78.4450  221.9520 C   0  0  0  0  0  0  0  0  0  0  0  0
  141.3320   79.4950  222.7070 C   0  0  0  0  0  0  0  0  0  0  0  0
  142.2080   80.6860  222.8860 C   0  0  0  0  0  0  0  0  0  0  0  0
  143.5300   80.3180  223.0650 F   0  0  0  0  0  0  0  0  0  0  0  0
  141.7670   81.3650  224.0280 F   0  0  0  0  0  0  0  0  0  0  0  0
  142.0390   81.5380  221.8240 F   0  0  0  0  0  0  0  0  0  0  0  0
  140.0600   79.4300  223.2860 C   0  0  0  0  0  0  0  0  0  0  0  0
  139.2640   78.2970  223.0980 C   0  0  0  0  0  0  0  0  0  0  0  0
  139.7330   77.2440  222.3420 C   0  0  0  0  0  0  0  0  0  0  0  0
  138.9620   76.1450  222.1600 N   0  0  0  0  0  0  0  0  0  0  0  0
  137.6770   73.8070  223.1170 H   0  0  0  0  0  0  0  0  0  0  0  0
  136.0154   72.2458  222.1967 H   0  0  0  0  0  0  0  0  0  0  0  0
  137.0939   72.0256  220.7495 H   0  0  0  0  0  0  0  0  0  0  0  0
  139.9881   69.1289  221.1891 H   0  0  0  0  0  0  0  0  0  0  0  0
  138.6266   69.9281  220.3215 H   0  0  0  0  0  0  0  0  0  0  0  0
  140.9828   70.4702  219.5086 H   0  0  0  0  0  0  0  0  0  0  0  0
  139.8880   71.8705  219.9106 H   0  0  0  0  0  0  0  0  0  0  0  0
  142.2785   70.8189  221.3698 H   0  0  0  0  0  0  0  0  0  0  0  0
  141.8358   72.5149  220.7899 H   0  0  0  0  0  0  0  0  0  0  0  0
  141.8696   72.0582  223.2646 H   0  0  0  0  0  0  0  0  0  0  0  0
  140.4236   72.8762  222.4814 H   0  0  0  0  0  0  0  0  0  0  0  0
  140.5474   69.9912  223.4776 H   0  0  0  0  0  0  0  0  0  0  0  0
  139.9781   72.4807  224.6987 H   0  0  0  0  0  0  0  0  0  0  0  0
  138.4623   71.5451  224.5040 H   0  0  0  0  0  0  0  0  0  0  0  0
  140.7108   72.1412  226.8850 H   0  0  0  0  0  0  0  0  0  0  0  0
  141.4434   70.6778  228.7240 H   0  0  0  0  0  0  0  0  0  0  0  0
  141.1455   68.2073  228.5367 H   0  0  0  0  0  0  0  0  0  0  0  0
  140.1088   67.2739  226.4757 H   0  0  0  0  0  0  0  0  0  0  0  0
  139.3853   68.7498  224.6488 H   0  0  0  0  0  0  0  0  0  0  0  0
  141.0285   74.3473  220.2637 H   0  0  0  0  0  0  0  0  0  0  0  0
  142.4737   76.3285  220.5632 H   0  0  0  0  0  0  0  0  0  0  0  0
  142.8036   78.4929  221.4955 H   0  0  0  0  0  0  0  0  0  0  0  0
  139.6866   80.2707  223.8891 H   0  0  0  0  0  0  0  0  0  0  0  0
  138.2638   78.2454  223.5530 H   0  0  0  0  0  0  0  0  0  0  0  0
  1  2  2  0
  2  3  1  0
  3  4  1  0
  4  5  1  0
  5  6  2  0
  5  7  1  0
  7  8  1  0
  8  9  1  0
  9 10  1  0
 10 11  1  0
 11 12  1  0
 12 13  1  0
 13 14  1  0
 14 15  2  0
 15 16  1  0
 16 17  2  0
 17 18  1  0
 18 19  2  0
  2 20  1  0
 20 21  2  0
 21 22  1  0
 22 23  2  0
 23 24  1  0
 24 25  2  0
 25 26  1  0
 26 27  1  0
 26 28  1  0
 26 29  1  0
 25 30  1  0
 30 31  2  0
 31 32  1  0
 32 33  2  0
 12  7  1  0
 19 14  1  0
 33 20  1  0
 32 23  1  0
  3 34  1  0
  4 35  1  0
  4 36  1  0
  8 37  1  0
  8 38  1  0
  9 39  1  0
  9 40  1  0
 10 41  1  0
 10 42  1  0
 11 43  1  0
 11 44  1  0
 12 45  1  1
 13 46  1  0
 13 47  1  0
 15 48  1  0
 16 49  1  0
 17 50  1  0
 18 51  1  0
 19 52  1  0
 21 53  1  0
 22 54  1  0
 24 55  1  0
 30 56  1  0
 31 57  1  0
M  END
>  <smiles>  (59) 
O=C(NCC(=O)N1CCCCC1Cc1ccccc1)c1ccc2cc(C(F)(F)F)ccc2n1

>  <score_type>  (59) 
oracle

>  <origin>  (59) 
autodockgpu

>  <m_score__min__energy>  (59) 
-8.4199999999999999

>  <m_primary>  (59) 
energy

>  <rmsd>  (59) 
7.108142244492828

>  <m_score__min__rmsd>  (59) 
7.108142244492828

>  <meeko>  (59) 
{"free_energy": -7.63, "intermolecular_energy": -9.72, "internal_energy": -2.3, "cluster_size": 38, "cluster_id": 2, "rank_in_cluster": 38}

>  <energy>  (59) 
-7.7

>  <cluster_rmsd>  (59) 
1.55

>  <cluster>  (59) 
1

$$$$

     RDKit          3D

 57 60  0  0  0  0  0  0  0  0999 V2000
  138.1960   73.1350  220.2390 O   0  0  0  0  0  0  0  0  0  0  0  0
  138.2510   73.6650  221.3930 C   0  0  0  0  0  0  0  0  0  0  0  0
  137.5200   73.0010  222.4170 N   0  0  0  0  0  0  0  0  0  0  0  0
  136.7960   71.8090  222.0550 C   0  0  0  0  0  0  0  0  0  0  0  0
  137.4700   70.5750  222.5240 C   0  0  0  0  0  0  0  0  0  0  0  0
  136.7320   69.6870  223.0320 O   0  0  0  0  0  0  0  0  0  0  0  0
  138.8680   70.4600  222.3800 N   0  0  0  0  0  0  0  0  0  0  0  0
  139.4550   70.0330  221.0990 C   0  0  0  0  0  0  0  0  0  0  0  0
  140.3650   71.1100  220.5590 C   0  0  0  0  0  0  0  0  0  0  0  0
  141.2820   71.6740  221.5990 C   0  0  0  0  0  0  0  0  0  0  0  0
  140.6880   71.8770  222.9500 C   0  0  0  0  0  0  0  0  0  0  0  0
  139.8220   70.7410  223.4360 C   0  0  1  0  0  0  0  0  0  0  0  0
  139.2090   71.1100  224.7410 C   0  0  0  0  0  0  0  0  0  0  0  0
  139.7350   70.1860  225.8030 C   0  0  0  0  0  0  0  0  0  0  0  0
  140.3670   70.6890  226.9340 C   0  0  0  0  0  0  0  0  0  0  0  0
  140.8650   69.8750  227.9310 C   0  0  0  0  0  0  0  0  0  0  0  0
  140.7400   68.5060  227.8190 C   0  0  0  0  0  0  0  0  0  0  0  0
  140.1130   67.9900  226.6960 C   0  0  0  0  0  0  0  0  0  0  0  0
  139.6210   68.8180  225.7100 C   0  0  0  0  0  0  0  0  0  0  0  0
  139.0170   74.8760  221.6510 C   0  0  0  0  0  0  0  0  0  0  0  0
  140.3430   74.8930  221.2730 C   0  0  0  0  0  0  0  0  0  0  0  0
  141.1550   75.9850  221.4710 C   0  0  0  0  0  0  0  0  0  0  0  0
  140.6140   77.0910  222.0660 C   0  0  0  0  0  0  0  0  0  0  0  0
  141.4070   78.1990  222.2750 C   0  0  0  0  0  0  0  0  0  0  0  0
  140.8610   79.3110  222.8750 C   0  0  0  0  0  0  0  0  0  0  0  0
  141.7350   80.4970  223.0910 C   0  0  0  0  0  0  0  0  0  0  0  0
  141.3130   81.2440  224.1770 F   0  0  0  0  0  0  0  0  0  0  0  0
  141.6600   81.2900  221.9390 F   0  0  0  0  0  0  0  0  0  0  0  0
  143.0380   80.0860  223.2090 F   0  0  0  0  0  0  0  0  0  0  0  0
  139.5170   79.3130  223.2650 C   0  0  0  0  0  0  0  0  0  0  0  0
  138.7250   78.1830  223.0460 C   0  0  0  0  0  0  0  0  0  0  0  0
  139.2690   77.0670  222.4460 C   0  0  0  0  0  0  0  0  0  0  0  0
  138.5010   75.9710  222.2350 N   0  0  0  0  0  0  0  0  0  0  0  0
  137.5160   73.3760  223.3970 H   0  0  0  0  0  0  0  0  0  0  0  0
  135.7923   71.8555  222.5027 H   0  0  0  0  0  0  0  0  0  0  0  0
  136.7456   71.7673  220.9569 H   0  0  0  0  0  0  0  0  0  0  0  0
  140.0348   69.1112  221.2541 H   0  0  0  0  0  0  0  0  0  0  0  0
  138.6462   69.8501  220.3762 H   0  0  0  0  0  0  0  0  0  0  0  0
  140.9740   70.6814  219.7494 H   0  0  0  0  0  0  0  0  0  0  0  0
  139.7273   71.9317  220.2009 H   0  0  0  0  0  0  0  0  0  0  0  0
  142.1341   70.9865  221.7054 H   0  0  0  0  0  0  0  0  0  0  0  0
  141.5564   72.6773  221.2410 H   0  0  0  0  0  0  0  0  0  0  0  0
  141.5097   72.0129  223.6685 H   0  0  0  0  0  0  0  0  0  0  0  0
  140.0315   72.7561  222.8714 H   0  0  0  0  0  0  0  0  0  0  0  0
  140.3882   69.8189  223.6339 H   0  0  0  0  0  0  0  0  0  0  0  0
  139.4711   72.1484  224.9919 H   0  0  0  0  0  0  0  0  0  0  0  0
  138.1144   71.0211  224.6776 H   0  0  0  0  0  0  0  0  0  0  0  0
  140.4745   71.7787  227.0386 H   0  0  0  0  0  0  0  0  0  0  0  0
  141.3587   70.3154  228.8098 H   0  0  0  0  0  0  0  0  0  0  0  0
  141.1289   67.8393  228.6028 H   0  0  0  0  0  0  0  0  0  0  0  0
  140.0061   66.9004  226.5896 H   0  0  0  0  0  0  0  0  0  0  0  0
  139.1276   68.3765  224.8316 H   0  0  0  0  0  0  0  0  0  0  0  0
  140.7678   73.9982  220.7945 H   0  0  0  0  0  0  0  0  0  0  0  0
  142.2099   75.9693  221.1596 H   0  0  0  0  0  0  0  0  0  0  0  0
  142.4628   78.1946  221.9662 H   0  0  0  0  0  0  0  0  0  0  0  0
  139.0843   80.2038  223.7437 H   0  0  0  0  0  0  0  0  0  0  0  0
  137.6684   78.1836  223.3520 H   0  0  0  0  0  0  0  0  0  0  0  0
  1  2  2  0
  2  3  1  0
  3  4  1  0
  4  5  1  0
  5  6  2  0
  5  7  1  0
  7  8  1  0
  8  9  1  0
  9 10  1  0
 10 11  1  0
 11 12  1  0
 12 13  1  0
 13 14  1  0
 14 15  2  0
 15 16  1  0
 16 17  2  0
 17 18  1  0
 18 19  2  0
  2 20  1  0
 20 21  2  0
 21 22  1  0
 22 23  2  0
 23 24  1  0
 24 25  2  0
 25 26  1  0
 26 27  1  0
 26 28  1  0
 26 29  1  0
 25 30  1  0
 30 31  2  0
 31 32  1  0
 32 33  2  0
 12  7  1  0
 19 14  1  0
 33 20  1  0
 32 23  1  0
  3 34  1  0
  4 35  1  0
  4 36  1  0
  8 37  1  0
  8 38  1  0
  9 39  1  0
  9 40  1  0
 10 41  1  0
 10 42  1  0
 11 43  1  0
 11 44  1  0
 12 45  1  1
 13 46  1  0
 13 47  1  0
 15 48  1  0
 16 49  1  0
 17 50  1  0
 18 51  1  0
 19 52  1  0
 21 53  1  0
 22 54  1  0
 24 55  1  0
 30 56  1  0
 31 57  1  0
M  END
>  <smiles>  (60) 
O=C(NCC(=O)N1CCCCC1Cc1ccccc1)c1ccc2cc(C(F)(F)F)ccc2n1

>  <score_type>  (60) 
oracle

>  <origin>  (60) 
autodockgpu

>  <m_score__min__energy>  (60) 
-8.4199999999999999

>  <m_primary>  (60) 
energy

>  <rmsd>  (60) 
7.089592735428229

>  <m_score__min__rmsd>  (60) 
7.089592735428229

>  <meeko>  (60) 
{"free_energy": -7.79, "intermolecular_energy": -9.88, "internal_energy": -2.28, "cluster_size": 38, "cluster_id": 2, "rank_in_cluster": 28}

>  <energy>  (60) 
-7.63

>  <cluster_rmsd>  (60) 
1.56

>  <cluster>  (60) 
1

$$$$

     RDKit          3D

 57 60  0  0  0  0  0  0  0  0999 V2000
  136.2380   74.4210  221.4300 O   0  0  0  0  0  0  0  0  0  0  0  0
  137.3890   74.5580  221.9500 C   0  0  0  0  0  0  0  0  0  0  0  0
  138.0410   73.3560  222.3410 N   0  0  0  0  0  0  0  0  0  0  0  0
  137.3460   72.1150  222.1170 C   0  0  0  0  0  0  0  0  0  0  0  0
  136.9270   71.4660  223.3820 C   0  0  0  0  0  0  0  0  0  0  0  0
  136.2850   72.1810  224.1980 O   0  0  0  0  0  0  0  0  0  0  0  0
  137.2590   70.1120  223.6000 N   0  0  0  0  0  0  0  0  0  0  0  0
  136.2370   69.0610  223.4640 C   0  0  0  0  0  0  0  0  0  0  0  0
  136.6410   68.0790  222.3900 C   0  0  0  0  0  0  0  0  0  0  0  0
  138.0740   67.6590  222.4930 C   0  0  0  0  0  0  0  0  0  0  0  0
  139.0420   68.7300  222.8560 C   0  0  0  0  0  0  0  0  0  0  0  0
  138.5840   69.6470  223.9630 C   0  0  1  0  0  0  0  0  0  0  0  0
  139.5870   70.7290  224.1580 C   0  0  0  0  0  0  0  0  0  0  0  0
  139.9590   70.7910  225.6130 C   0  0  0  0  0  0  0  0  0  0  0  0
  140.7050   71.8530  226.1110 C   0  0  0  0  0  0  0  0  0  0  0  0
  141.0680   71.9460  227.4390 C   0  0  0  0  0  0  0  0  0  0  0  0
  140.6850   70.9580  228.3220 C   0  0  0  0  0  0  0  0  0  0  0  0
  139.9410   69.8930  227.8380 C   0  0  0  0  0  0  0  0  0  0  0  0
  139.5880   69.8160  226.5090 C   0  0  0  0  0  0  0  0  0  0  0  0
  138.0030   75.8660  222.1320 C   0  0  0  0  0  0  0  0  0  0  0  0
  137.1870   76.9750  222.0790 C   0  0  0  0  0  0  0  0  0  0  0  0
  137.6650   78.2550  222.2380 C   0  0  0  0  0  0  0  0  0  0  0  0
  139.0040   78.4200  222.4560 C   0  0  0  0  0  0  0  0  0  0  0  0
  139.5090   79.6920  222.6190 C   0  0  0  0  0  0  0  0  0  0  0  0
  140.8580   79.8560  222.8390 C   0  0  0  0  0  0  0  0  0  0  0  0
  141.3810   81.2390  223.0130 C   0  0  0  0  0  0  0  0  0  0  0  0
  140.4620   82.1840  222.5900 F   0  0  0  0  0  0  0  0  0  0  0  0
  142.5390   81.3520  222.2320 F   0  0  0  0  0  0  0  0  0  0  0  0
  141.7610   81.4220  224.3180 F   0  0  0  0  0  0  0  0  0  0  0  0
  141.7020   78.7420  222.8970 C   0  0  0  0  0  0  0  0  0  0  0  0
  141.1780   77.4580  222.7300 C   0  0  0  0  0  0  0  0  0  0  0  0
  139.8270   77.2900  222.5100 C   0  0  0  0  0  0  0  0  0  0  0  0
  139.3180   76.0450  222.3480 N   0  0  0  0  0  0  0  0  0  0  0  0
  138.9950   73.3860  222.7780 H   0  0  0  0  0  0  0  0  0  0  0  0
  136.4511   72.3159  221.5097 H   0  0  0  0  0  0  0  0  0  0  0  0
  138.0373   71.4315  221.6022 H   0  0  0  0  0  0  0  0  0  0  0  0
  136.1319   68.5299  224.4215 H   0  0  0  0  0  0  0  0  0  0  0  0
  135.2791   69.5246  223.1856 H   0  0  0  0  0  0  0  0  0  0  0  0
  136.0063   67.1847  222.4755 H   0  0  0  0  0  0  0  0  0  0  0  0
  136.5133   68.5808  221.4195 H   0  0  0  0  0  0  0  0  0  0  0  0
  138.1401   66.8717  223.2584 H   0  0  0  0  0  0  0  0  0  0  0  0
  138.3604   67.3293  221.4834 H   0  0  0  0  0  0  0  0  0  0  0  0
  139.9795   68.2506  223.1744 H   0  0  0  0  0  0  0  0  0  0  0  0
  139.1587   69.3587  221.9610 H   0  0  0  0  0  0  0  0  0  0  0  0
  138.5108   69.1440  224.9385 H   0  0  0  0  0  0  0  0  0  0  0  0
  140.4828   70.5150  223.5566 H   0  0  0  0  0  0  0  0  0  0  0  0
  139.1624   71.6927  223.8403 H   0  0  0  0  0  0  0  0  0  0  0  0
  141.0179   72.6496  225.4200 H   0  0  0  0  0  0  0  0  0  0  0  0
  141.6597   72.8036  227.7916 H   0  0  0  0  0  0  0  0  0  0  0  0
  140.9632   71.0138  229.3848 H   0  0  0  0  0  0  0  0  0  0  0  0
  139.6271   69.0955  228.5275 H   0  0  0  0  0  0  0  0  0  0  0  0
  138.9974   68.9573  226.1571 H   0  0  0  0  0  0  0  0  0  0  0  0
  136.1108   76.8311  221.9026 H   0  0  0  0  0  0  0  0  0  0  0  0
  136.9886   79.1212  222.1910 H   0  0  0  0  0  0  0  0  0  0  0  0
  138.8421   80.5656  222.5739 H   0  0  0  0  0  0  0  0  0  0  0  0
  142.7792   78.8772  223.0743 H   0  0  0  0  0  0  0  0  0  0  0  0
  141.8420   76.5821  222.7739 H   0  0  0  0  0  0  0  0  0  0  0  0
  1  2  2  0
  2  3  1  0
  3  4  1  0
  4  5  1  0
  5  6  2  0
  5  7  1  0
  7  8  1  0
  8  9  1  0
  9 10  1  0
 10 11  1  0
 11 12  1  0
 12 13  1  0
 13 14  1  0
 14 15  2  0
 15 16  1  0
 16 17  2  0
 17 18  1  0
 18 19  2  0
  2 20  1  0
 20 21  2  0
 21 22  1  0
 22 23  2  0
 23 24  1  0
 24 25  2  0
 25 26  1  0
 26 27  1  0
 26 28  1  0
 26 29  1  0
 25 30  1  0
 30 31  2  0
 31 32  1  0
 32 33  2  0
 12  7  1  0
 19 14  1  0
 33 20  1  0
 32 23  1  0
  3 34  1  0
  4 35  1  0
  4 36  1  0
  8 37  1  0
  8 38  1  0
  9 39  1  0
  9 40  1  0
 10 41  1  0
 10 42  1  0
 11 43  1  0
 11 44  1  0
 12 45  1  1
 13 46  1  0
 13 47  1  0
 15 48  1  0
 16 49  1  0
 17 50  1  0
 18 51  1  0
 19 52  1  0
 21 53  1  0
 22 54  1  0
 24 55  1  0
 30 56  1  0
 31 57  1  0
M  END
>  <smiles>  (61) 
O=C(NCC(=O)N1CCCCC1Cc1ccccc1)c1ccc2cc(C(F)(F)F)ccc2n1

>  <score_type>  (61) 
oracle

>  <origin>  (61) 
autodockgpu

>  <m_score__min__energy>  (61) 
-8.4199999999999999

>  <m_primary>  (61) 
energy

>  <rmsd>  (61) 
8.18671788886098

>  <m_score__min__rmsd>  (61) 
8.18671788886098

>  <meeko>  (61) 
{"free_energy": -7.66, "intermolecular_energy": -9.74, "internal_energy": -1.72, "cluster_size": 38, "cluster_id": 2, "rank_in_cluster": 35}

>  <energy>  (61) 
-7.23

>  <cluster_rmsd>  (61) 
1.73

>  <cluster>  (61) 
1

$$$$

     RDKit          3D

 57 60  0  0  0  0  0  0  0  0999 V2000
  140.4370   73.0560  220.7580 O   0  0  0  0  0  0  0  0  0  0  0  0
  139.8060   73.9070  221.4580 C   0  0  0  0  0  0  0  0  0  0  0  0
  138.6650   73.4180  222.1520 N   0  0  0  0  0  0  0  0  0  0  0  0
  138.3360   72.0240  221.9970 C   0  0  0  0  0  0  0  0  0  0  0  0
  137.4990   71.5150  223.1100 C   0  0  0  0  0  0  0  0  0  0  0  0
  136.7230   72.3440  223.6580 O   0  0  0  0  0  0  0  0  0  0  0  0
  137.6100   70.1600  223.4870 N   0  0  0  0  0  0  0  0  0  0  0  0
  136.4490   69.2610  223.3970 C   0  0  0  0  0  0  0  0  0  0  0  0
  136.7470   68.1180  222.4570 C   0  0  0  0  0  0  0  0  0  0  0  0
  138.0940   67.5060  222.6920 C   0  0  0  0  0  0  0  0  0  0  0  0
  139.1960   68.4580  223.0030 C   0  0  0  0  0  0  0  0  0  0  0  0
  138.8310   69.5490  223.9790 C   0  0  1  0  0  0  0  0  0  0  0  0
  139.9770   70.4880  224.1240 C   0  0  0  0  0  0  0  0  0  0  0  0
  140.2240   70.7310  225.5860 C   0  0  0  0  0  0  0  0  0  0  0  0
  139.7580   69.8380  226.5440 C   0  0  0  0  0  0  0  0  0  0  0  0
  139.9630   70.0250  227.8950 C   0  0  0  0  0  0  0  0  0  0  0  0
  140.6540   71.1360  228.3340 C   0  0  0  0  0  0  0  0  0  0  0  0
  141.1230   72.0350  227.3890 C   0  0  0  0  0  0  0  0  0  0  0  0
  140.9100   71.8320  226.0430 C   0  0  0  0  0  0  0  0  0  0  0  0
  140.2270   75.2990  221.5460 C   0  0  0  0  0  0  0  0  0  0  0  0
  141.3220   75.6900  220.8070 C   0  0  0  0  0  0  0  0  0  0  0  0
  141.8020   76.9790  220.8170 C   0  0  0  0  0  0  0  0  0  0  0  0
  141.1570   77.8980  221.5960 C   0  0  0  0  0  0  0  0  0  0  0  0
  141.6180   79.1980  221.6250 C   0  0  0  0  0  0  0  0  0  0  0  0
  140.9680   80.1230  222.4100 C   0  0  0  0  0  0  0  0  0  0  0  0
  141.4820   81.5200  222.4250 C   0  0  0  0  0  0  0  0  0  0  0  0
  142.2090   81.7780  223.5750 F   0  0  0  0  0  0  0  0  0  0  0  0
  140.3740   82.3760  222.3880 F   0  0  0  0  0  0  0  0  0  0  0  0
  142.2050   81.7520  221.2830 F   0  0  0  0  0  0  0  0  0  0  0  0
  139.8540   79.7450  223.1670 C   0  0  0  0  0  0  0  0  0  0  0  0
  139.3970   78.4250  223.1290 C   0  0  0  0  0  0  0  0  0  0  0  0
  140.0460   77.4960  222.3440 C   0  0  0  0  0  0  0  0  0  0  0  0
  139.6040   76.2150  222.3070 N   0  0  0  0  0  0  0  0  0  0  0  0
  138.0900   74.0590  222.7520 H   0  0  0  0  0  0  0  0  0  0  0  0
  137.7865   71.8933  221.0531 H   0  0  0  0  0  0  0  0  0  0  0  0
  139.2772   71.4547  221.9968 H   0  0  0  0  0  0  0  0  0  0  0  0
  136.2214   68.8603  224.3958 H   0  0  0  0  0  0  0  0  0  0  0  0
  135.5864   69.8257  223.0136 H   0  0  0  0  0  0  0  0  0  0  0  0
  135.9799   67.3416  222.5943 H   0  0  0  0  0  0  0  0  0  0  0  0
  136.7420   68.5221  221.4339 H   0  0  0  0  0  0  0  0  0  0  0  0
  138.0039   66.8073  223.5368 H   0  0  0  0  0  0  0  0  0  0  0  0
  138.3734   67.0277  221.7416 H   0  0  0  0  0  0  0  0  0  0  0  0
  140.0339   67.8852  223.4272 H   0  0  0  0  0  0  0  0  0  0  0  0
  139.4489   68.9596  222.0573 H   0  0  0  0  0  0  0  0  0  0  0  0
  138.6362   69.1735  224.9944 H   0  0  0  0  0  0  0  0  0  0  0  0
  140.8751   70.0483  223.6657 H   0  0  0  0  0  0  0  0  0  0  0  0
  139.7460   71.4389  223.6216 H   0  0  0  0  0  0  0  0  0  0  0  0
  139.2042   68.9476  226.2116 H   0  0  0  0  0  0  0  0  0  0  0  0
  139.5776   69.2921  228.6191 H   0  0  0  0  0  0  0  0  0  0  0  0
  140.8282   71.3039  229.4071 H   0  0  0  0  0  0  0  0  0  0  0  0
  141.6754   72.9269  227.7197 H   0  0  0  0  0  0  0  0  0  0  0  0
  141.2963   72.5650  225.3195 H   0  0  0  0  0  0  0  0  0  0  0  0
  141.8330   74.9413  220.1839 H   0  0  0  0  0  0  0  0  0  0  0  0
  142.6788   77.2616  220.2159 H   0  0  0  0  0  0  0  0  0  0  0  0
  142.4941   79.4916  221.0282 H   0  0  0  0  0  0  0  0  0  0  0  0
  139.3373   80.4876  223.7928 H   0  0  0  0  0  0  0  0  0  0  0  0
  138.5211   78.1278  223.7243 H   0  0  0  0  0  0  0  0  0  0  0  0
  1  2  2  0
  2  3  1  0
  3  4  1  0
  4  5  1  0
  5  6  2  0
  5  7  1  0
  7  8  1  0
  8  9  1  0
  9 10  1  0
 10 11  1  0
 11 12  1  0
 12 13  1  0
 13 14  1  0
 14 15  2  0
 15 16  1  0
 16 17  2  0
 17 18  1  0
 18 19  2  0
  2 20  1  0
 20 21  2  0
 21 22  1  0
 22 23  2  0
 23 24  1  0
 24 25  2  0
 25 26  1  0
 26 27  1  0
 26 28  1  0
 26 29  1  0
 25 30  1  0
 30 31  2  0
 31 32  1  0
 32 33  2  0
 12  7  1  0
 19 14  1  0
 33 20  1  0
 32 23  1  0
  3 34  1  0
  4 35  1  0
  4 36  1  0
  8 37  1  0
  8 38  1  0
  9 39  1  0
  9 40  1  0
 10 41  1  0
 10 42  1  0
 11 43  1  0
 11 44  1  0
 12 45  1  1
 13 46  1  0
 13 47  1  0
 15 48  1  0
 16 49  1  0
 17 50  1  0
 18 51  1  0
 19 52  1  0
 21 53  1  0
 22 54  1  0
 24 55  1  0
 30 56  1  0
 31 57  1  0
M  END
>  <smiles>  (62) 
O=C(NCC(=O)N1CCCCC1Cc1ccccc1)c1ccc2cc(C(F)(F)F)ccc2n1

>  <score_type>  (62) 
oracle

>  <origin>  (62) 
autodockgpu

>  <m_score__min__energy>  (62) 
-8.4199999999999999

>  <m_primary>  (62) 
energy

>  <rmsd>  (62) 
8.154826078807574

>  <m_score__min__rmsd>  (62) 
8.154826078807574

>  <meeko>  (62) 
{"free_energy": -7.99, "intermolecular_energy": -10.08, "internal_energy": -2.11, "cluster_size": 38, "cluster_id": 2, "rank_in_cluster": 6}

>  <energy>  (62) 
-8.33

>  <cluster_rmsd>  (62) 
0.0

>  <cluster>  (62) 
2

$$$$

     RDKit          3D

 57 60  0  0  0  0  0  0  0  0999 V2000
  137.9500   73.4490  220.2080 O   0  0  0  0  0  0  0  0  0  0  0  0
  138.1330   73.8500  221.4000 C   0  0  0  0  0  0  0  0  0  0  0  0
  137.5020   73.0810  222.4180 N   0  0  0  0  0  0  0  0  0  0  0  0
  136.7260   71.9390  222.0080 C   0  0  0  0  0  0  0  0  0  0  0  0
  137.3500   70.6570  222.4170 C   0  0  0  0  0  0  0  0  0  0  0  0
  136.5680   69.7480  222.8080 O   0  0  0  0  0  0  0  0  0  0  0  0
  138.7520   70.5250  222.3480 N   0  0  0  0  0  0  0  0  0  0  0  0
  139.4190   70.3010  221.0550 C   0  0  0  0  0  0  0  0  0  0  0  0
  140.3860   71.4240  220.7670 C   0  0  0  0  0  0  0  0  0  0  0  0
  141.2390   71.7760  221.9460 C   0  0  0  0  0  0  0  0  0  0  0  0
  140.5560   71.7670  223.2690 C   0  0  0  0  0  0  0  0  0  0  0  0
  139.6360   70.5940  223.4970 C   0  0  1  0  0  0  0  0  0  0  0  0
  138.9390   70.7570  224.8020 C   0  0  0  0  0  0  0  0  0  0  0  0
  139.6460   69.9270  225.8370 C   0  0  0  0  0  0  0  0  0  0  0  0
  139.5660   68.5390  225.8110 C   0  0  0  0  0  0  0  0  0  0  0  0
  140.1980   67.7410  226.7420 C   0  0  0  0  0  0  0  0  0  0  0  0
  140.9430   68.3240  227.7460 C   0  0  0  0  0  0  0  0  0  0  0  0
  141.0300   69.7070  227.7850 C   0  0  0  0  0  0  0  0  0  0  0  0
  140.3920   70.4880  226.8460 C   0  0  0  0  0  0  0  0  0  0  0  0
  138.9390   75.0230  221.7050 C   0  0  0  0  0  0  0  0  0  0  0  0
  140.2830   74.9780  221.4020 C   0  0  0  0  0  0  0  0  0  0  0  0
  141.1340   76.0310  221.6490 C   0  0  0  0  0  0  0  0  0  0  0  0
  140.6130   77.1590  222.2170 C   0  0  0  0  0  0  0  0  0  0  0  0
  141.4440   78.2290  222.4740 C   0  0  0  0  0  0  0  0  0  0  0  0
  140.9180   79.3650  223.0460 C   0  0  0  0  0  0  0  0  0  0  0  0
  141.8330   80.5080  223.3150 C   0  0  0  0  0  0  0  0  0  0  0  0
  142.4920   80.9090  222.1660 F   0  0  0  0  0  0  0  0  0  0  0  0
  142.7790   80.0770  224.2540 F   0  0  0  0  0  0  0  0  0  0  0  0
  141.1280   81.5290  223.9000 F   0  0  0  0  0  0  0  0  0  0  0  0
  139.5560   79.4290  223.3610 C   0  0  0  0  0  0  0  0  0  0  0  0
  138.7250   78.3380  223.0940 C   0  0  0  0  0  0  0  0  0  0  0  0
  139.2480   77.1990  222.5210 C   0  0  0  0  0  0  0  0  0  0  0  0
  138.4430   76.1400  222.2630 N   0  0  0  0  0  0  0  0  0  0  0  0
  137.6050   73.3480  223.4270 H   0  0  0  0  0  0  0  0  0  0  0  0
  135.7275   72.0077  222.4644 H   0  0  0  0  0  0  0  0  0  0  0  0
  136.6677   71.9491  220.9096 H   0  0  0  0  0  0  0  0  0  0  0  0
  139.9679   69.3484  221.0893 H   0  0  0  0  0  0  0  0  0  0  0  0
  138.6596   70.2678  220.2598 H   0  0  0  0  0  0  0  0  0  0  0  0
  141.0417   71.1185  219.9383 H   0  0  0  0  0  0  0  0  0  0  0  0
  139.7916   72.3139  220.5126 H   0  0  0  0  0  0  0  0  0  0  0  0
  142.0679   71.0541  221.9898 H   0  0  0  0  0  0  0  0  0  0  0  0
  141.5577   72.8161  221.7827 H   0  0  0  0  0  0  0  0  0  0  0  0
  141.3278   71.7541  224.0526 H   0  0  0  0  0  0  0  0  0  0  0  0
  139.9239   72.6668  223.2977 H   0  0  0  0  0  0  0  0  0  0  0  0
  140.1696   69.6351  223.5725 H   0  0  0  0  0  0  0  0  0  0  0  0
  138.9577   71.8154  225.1012 H   0  0  0  0  0  0  0  0  0  0  0  0
  137.8933   70.4281  224.7104 H   0  0  0  0  0  0  0  0  0  0  0  0
  138.9756   68.0585  225.0169 H   0  0  0  0  0  0  0  0  0  0  0  0
  140.1084   66.6462  226.6841 H   0  0  0  0  0  0  0  0  0  0  0  0
  141.4559   67.7061  228.4978 H   0  0  0  0  0  0  0  0  0  0  0  0
  141.6186   70.1893  228.5793 H   0  0  0  0  0  0  0  0  0  0  0  0
  140.4815   71.5828  226.9051 H   0  0  0  0  0  0  0  0  0  0  0  0
  140.6913   74.0646  220.9448 H   0  0  0  0  0  0  0  0  0  0  0  0
  142.2027   75.9663  221.3964 H   0  0  0  0  0  0  0  0  0  0  0  0
  142.5141   78.1753  222.2249 H   0  0  0  0  0  0  0  0  0  0  0  0
  139.1396   80.3384  223.8189 H   0  0  0  0  0  0  0  0  0  0  0  0
  137.6543   78.3882  223.3409 H   0  0  0  0  0  0  0  0  0  0  0  0
  1  2  2  0
  2  3  1  0
  3  4  1  0
  4  5  1  0
  5  6  2  0
  5  7  1  0
  7  8  1  0
  8  9  1  0
  9 10  1  0
 10 11  1  0
 11 12  1  0
 12 13  1  0
 13 14  1  0
 14 15  2  0
 15 16  1  0
 16 17  2  0
 17 18  1  0
 18 19  2  0
  2 20  1  0
 20 21  2  0
 21 22  1  0
 22 23  2  0
 23 24  1  0
 24 25  2  0
 25 26  1  0
 26 27  1  0
 26 28  1  0
 26 29  1  0
 25 30  1  0
 30 31  2  0
 31 32  1  0
 32 33  2  0
 12  7  1  0
 19 14  1  0
 33 20  1  0
 32 23  1  0
  3 34  1  0
  4 35  1  0
  4 36  1  0
  8 37  1  0
  8 38  1  0
  9 39  1  0
  9 40  1  0
 10 41  1  0
 10 42  1  0
 11 43  1  0
 11 44  1  0
 12 45  1  1
 13 46  1  0
 13 47  1  0
 15 48  1  0
 16 49  1  0
 17 50  1  0
 18 51  1  0
 19 52  1  0
 21 53  1  0
 22 54  1  0
 24 55  1  0
 30 56  1  0
 31 57  1  0
M  END
>  <smiles>  (63) 
O=C(NCC(=O)N1CCCCC1Cc1ccccc1)c1ccc2cc(C(F)(F)F)ccc2n1

>  <score_type>  (63) 
oracle

>  <origin>  (63) 
autodockgpu

>  <m_score__min__energy>  (63) 
-8.4199999999999999

>  <m_primary>  (63) 
energy

>  <rmsd>  (63) 
7.134465159964468

>  <m_score__min__rmsd>  (63) 
7.134465159964468

>  <meeko>  (63) 
{"free_energy": -7.79, "intermolecular_energy": -9.88, "internal_energy": -2.22, "cluster_size": 38, "cluster_id": 2, "rank_in_cluster": 29}

>  <energy>  (63) 
-8.3

>  <cluster_rmsd>  (63) 
0.09

>  <cluster>  (63) 
2

$$$$

     RDKit          3D

 57 60  0  0  0  0  0  0  0  0999 V2000
  139.4500   72.6290  220.2650 O   0  0  0  0  0  0  0  0  0  0  0  0
  140.2080   72.7850  221.2720 C   0  0  0  0  0  0  0  0  0  0  0  0
  141.2100   73.7870  221.1460 N   0  0  0  0  0  0  0  0  0  0  0  0
  141.2700   74.5190  219.9070 C   0  0  0  0  0  0  0  0  0  0  0  0
  141.1080   75.9800  220.1060 C   0  0  0  0  0  0  0  0  0  0  0  0
  142.0870   76.7060  219.7800 O   0  0  0  0  0  0  0  0  0  0  0  0
  139.8960   76.4690  220.6370 N   0  0  0  0  0  0  0  0  0  0  0  0
  138.6560   76.4100  219.8460 C   0  0  0  0  0  0  0  0  0  0  0  0
  137.6210   75.5770  220.5620 C   0  0  0  0  0  0  0  0  0  0  0  0
  137.5110   75.9090  222.0180 C   0  0  0  0  0  0  0  0  0  0  0  0
  138.7950   76.1810  222.7220 C   0  0  0  0  0  0  0  0  0  0  0  0
  139.7620   77.0520  221.9580 C   0  0  1  0  0  0  0  0  0  0  0  0
  141.0370   77.1610  222.7180 C   0  0  0  0  0  0  0  0  0  0  0  0
  141.2900   78.6080  223.0370 C   0  0  0  0  0  0  0  0  0  0  0  0
  142.5840   79.1170  223.0510 C   0  0  0  0  0  0  0  0  0  0  0  0
  142.8590   80.4370  223.3400 C   0  0  0  0  0  0  0  0  0  0  0  0
  141.8240   81.3030  223.6290 C   0  0  0  0  0  0  0  0  0  0  0  0
  140.5290   80.8080  223.6190 C   0  0  0  0  0  0  0  0  0  0  0  0
  140.2730   79.4860  223.3280 C   0  0  0  0  0  0  0  0  0  0  0  0
  140.0610   71.9870  222.4810 C   0  0  0  0  0  0  0  0  0  0  0  0
  139.2310   70.8880  222.4310 C   0  0  0  0  0  0  0  0  0  0  0  0
  139.0210   70.0680  223.5160 C   0  0  0  0  0  0  0  0  0  0  0  0
  139.6670   70.3660  224.6820 C   0  0  0  0  0  0  0  0  0  0  0  0
  139.4740   69.5610  225.7840 C   0  0  0  0  0  0  0  0  0  0  0  0
  140.1250   69.8620  226.9590 C   0  0  0  0  0  0  0  0  0  0  0  0
  139.9030   68.9780  228.1360 C   0  0  0  0  0  0  0  0  0  0  0  0
  141.0960   68.6550  228.7580 F   0  0  0  0  0  0  0  0  0  0  0  0
  139.3010   67.8030  227.6710 F   0  0  0  0  0  0  0  0  0  0  0  0
  139.0090   69.5740  228.9900 F   0  0  0  0  0  0  0  0  0  0  0  0
  140.9720   70.9740  227.0290 C   0  0  0  0  0  0  0  0  0  0  0  0
  141.1590   71.7820  225.9050 C   0  0  0  0  0  0  0  0  0  0  0  0
  140.5080   71.4830  224.7260 C   0  0  0  0  0  0  0  0  0  0  0  0
  140.6890   72.2670  223.6360 N   0  0  0  0  0  0  0  0  0  0  0  0
  141.8760   73.9770  221.9340 H   0  0  0  0  0  0  0  0  0  0  0  0
  142.2452   74.3328  219.4334 H   0  0  0  0  0  0  0  0  0  0  0  0
  140.4413   74.1727  219.2719 H   0  0  0  0  0  0  0  0  0  0  0  0
  138.2671   77.4290  219.7032 H   0  0  0  0  0  0  0  0  0  0  0  0
  138.8739   75.9514  218.8702 H   0  0  0  0  0  0  0  0  0  0  0  0
  136.6433   75.7486  220.0881 H   0  0  0  0  0  0  0  0  0  0  0  0
  137.9339   74.5252  220.4861 H   0  0  0  0  0  0  0  0  0  0  0  0
  136.8785   76.8040  222.1128 H   0  0  0  0  0  0  0  0  0  0  0  0
  137.0931   75.0114  222.4972 H   0  0  0  0  0  0  0  0  0  0  0  0
  138.5641   76.6798  223.6748 H   0  0  0  0  0  0  0  0  0  0  0  0
  139.2901   75.2073  222.8514 H   0  0  0  0  0  0  0  0  0  0  0  0
  139.4098   78.0870  221.8369 H   0  0  0  0  0  0  0  0  0  0  0  0
  140.9610   76.5846  223.6518 H   0  0  0  0  0  0  0  0  0  0  0  0
  141.8660   76.7611  222.1156 H   0  0  0  0  0  0  0  0  0  0  0  0
  143.4207   78.4404  222.8227 H   0  0  0  0  0  0  0  0  0  0  0  0
  143.8981   80.7979  223.3402 H   0  0  0  0  0  0  0  0  0  0  0  0
  142.0217   82.3598  223.8615 H   0  0  0  0  0  0  0  0  0  0  0  0
  139.6910   81.4829  223.8475 H   0  0  0  0  0  0  0  0  0  0  0  0
  139.2337   79.1257  223.3285 H   0  0  0  0  0  0  0  0  0  0  0  0
  138.7162   70.6572  221.4867 H   0  0  0  0  0  0  0  0  0  0  0  0
  138.3521   69.1975  223.4463 H   0  0  0  0  0  0  0  0  0  0  0  0
  138.8074   68.6880  225.7253 H   0  0  0  0  0  0  0  0  0  0  0  0
  141.4906   71.2118  227.9695 H   0  0  0  0  0  0  0  0  0  0  0  0
  141.8248   72.6559  225.9599 H   0  0  0  0  0  0  0  0  0  0  0  0
  1  2  2  0
  2  3  1  0
  3  4  1  0
  4  5  1  0
  5  6  2  0
  5  7  1  0
  7  8  1  0
  8  9  1  0
  9 10  1  0
 10 11  1  0
 11 12  1  0
 12 13  1  0
 13 14  1  0
 14 15  2  0
 15 16  1  0
 16 17  2  0
 17 18  1  0
 18 19  2  0
  2 20  1  0
 20 21  2  0
 21 22  1  0
 22 23  2  0
 23 24  1  0
 24 25  2  0
 25 26  1  0
 26 27  1  0
 26 28  1  0
 26 29  1  0
 25 30  1  0
 30 31  2  0
 31 32  1  0
 32 33  2  0
 12  7  1  0
 19 14  1  0
 33 20  1  0
 32 23  1  0
  3 34  1  0
  4 35  1  0
  4 36  1  0
  8 37  1  0
  8 38  1  0
  9 39  1  0
  9 40  1  0
 10 41  1  0
 10 42  1  0
 11 43  1  0
 11 44  1  0
 12 45  1  6
 13 46  1  0
 13 47  1  0
 15 48  1  0
 16 49  1  0
 17 50  1  0
 18 51  1  0
 19 52  1  0
 21 53  1  0
 22 54  1  0
 24 55  1  0
 30 56  1  0
 31 57  1  0
M  END
>  <smiles>  (64) 
O=C(NCC(=O)N1CCCCC1Cc1ccccc1)c1ccc2cc(C(F)(F)F)ccc2n1

>  <score_type>  (64) 
oracle

>  <origin>  (64) 
autodockgpu

>  <m_score__min__energy>  (64) 
-8.4199999999999999

>  <m_primary>  (64) 
energy

>  <rmsd>  (64) 
2.914395091683533

>  <m_score__min__rmsd>  (64) 
2.914395091683533

>  <meeko>  (64) 
{"free_energy": -7.8, "intermolecular_energy": -9.89, "internal_energy": -2.22, "cluster_size": 11, "cluster_id": 1, "rank_in_cluster": 7}

>  <energy>  (64) 
-8.17

>  <cluster_rmsd>  (64) 
1.87

>  <cluster>  (64) 
2

$$$$

     RDKit          3D

 57 60  0  0  0  0  0  0  0  0999 V2000
  139.5960   72.6940  220.1310 O   0  0  0  0  0  0  0  0  0  0  0  0
  140.3090   72.8610  221.1680 C   0  0  0  0  0  0  0  0  0  0  0  0
  141.2940   73.8850  221.0870 N   0  0  0  0  0  0  0  0  0  0  0  0
  141.3890   74.6240  219.8540 C   0  0  0  0  0  0  0  0  0  0  0  0
  141.1240   76.0710  220.0420 C   0  0  0  0  0  0  0  0  0  0  0  0
  142.0270   76.8640  219.6590 O   0  0  0  0  0  0  0  0  0  0  0  0
  139.9050   76.4750  220.6230 N   0  0  0  0  0  0  0  0  0  0  0  0
  138.6490   76.3940  219.8590 C   0  0  0  0  0  0  0  0  0  0  0  0
  137.6730   75.4790  220.5580 C   0  0  0  0  0  0  0  0  0  0  0  0
  137.5840   75.7350  222.0300 C   0  0  0  0  0  0  0  0  0  0  0  0
  138.8710   76.0350  222.7170 C   0  0  0  0  0  0  0  0  0  0  0  0
  139.7760   76.9870  221.9750 C   0  0  1  0  0  0  0  0  0  0  0  0
  141.0630   77.1210  222.7100 C   0  0  0  0  0  0  0  0  0  0  0  0
  141.2960   78.5730  223.0210 C   0  0  0  0  0  0  0  0  0  0  0  0
  140.2280   79.4250  223.2790 C   0  0  0  0  0  0  0  0  0  0  0  0
  140.3990   80.7630  223.5670 C   0  0  0  0  0  0  0  0  0  0  0  0
  141.6710   81.2960  223.6060 C   0  0  0  0  0  0  0  0  0  0  0  0
  142.7450   80.4580  223.3500 C   0  0  0  0  0  0  0  0  0  0  0  0
  142.5560   79.1230  223.0640 C   0  0  0  0  0  0  0  0  0  0  0  0
  140.1290   72.0550  222.3680 C   0  0  0  0  0  0  0  0  0  0  0  0
  139.3100   70.9500  222.2850 C   0  0  0  0  0  0  0  0  0  0  0  0
  139.0720   70.1220  223.3570 C   0  0  0  0  0  0  0  0  0  0  0  0
  139.6780   70.4190  224.5460 C   0  0  0  0  0  0  0  0  0  0  0  0
  139.4560   69.6050  225.6360 C   0  0  0  0  0  0  0  0  0  0  0  0
  140.0670   69.9050  226.8330 C   0  0  0  0  0  0  0  0  0  0  0  0
  139.8140   69.0120  227.9970 C   0  0  0  0  0  0  0  0  0  0  0  0
  139.2760   67.8010  227.5970 F   0  0  0  0  0  0  0  0  0  0  0  0
  138.8970   69.6610  228.8340 F   0  0  0  0  0  0  0  0  0  0  0  0
  140.9730   68.8610  228.7160 F   0  0  0  0  0  0  0  0  0  0  0  0
  140.9020   71.0220  226.9360 C   0  0  0  0  0  0  0  0  0  0  0  0
  141.1190   71.8390  225.8230 C   0  0  0  0  0  0  0  0  0  0  0  0
  140.5080   71.5410  224.6230 C   0  0  0  0  0  0  0  0  0  0  0  0
  140.7180   72.3330  223.5440 N   0  0  0  0  0  0  0  0  0  0  0  0
  141.9230   74.0850  221.9030 H   0  0  0  0  0  0  0  0  0  0  0  0
  142.4026   74.5004  219.4450 H   0  0  0  0  0  0  0  0  0  0  0  0
  140.6267   74.2294  219.1661 H   0  0  0  0  0  0  0  0  0  0  0  0
  138.2091   77.3987  219.7750 H   0  0  0  0  0  0  0  0  0  0  0  0
  138.8630   75.9933  218.8572 H   0  0  0  0  0  0  0  0  0  0  0  0
  136.6766   75.6255  220.1157 H   0  0  0  0  0  0  0  0  0  0  0  0
  138.0338   74.4485  220.4241 H   0  0  0  0  0  0  0  0  0  0  0  0
  136.9124   76.5926  222.1829 H   0  0  0  0  0  0  0  0  0  0  0  0
  137.2213   74.7963  222.4740 H   0  0  0  0  0  0  0  0  0  0  0  0
  138.6408   76.4759  223.6981 H   0  0  0  0  0  0  0  0  0  0  0  0
  139.4147   75.0814  222.7872 H   0  0  0  0  0  0  0  0  0  0  0  0
  139.3717   78.0081  221.9130 H   0  0  0  0  0  0  0  0  0  0  0  0
  141.0153   76.5457  223.6463 H   0  0  0  0  0  0  0  0  0  0  0  0
  141.8873   76.7347  222.0925 H   0  0  0  0  0  0  0  0  0  0  0  0
  139.2071   79.0162  223.2524 H   0  0  0  0  0  0  0  0  0  0  0  0
  139.5256   81.4019  223.7646 H   0  0  0  0  0  0  0  0  0  0  0  0
  141.8290   82.3603  223.8347 H   0  0  0  0  0  0  0  0  0  0  0  0
  143.7663   80.8657  223.3756 H   0  0  0  0  0  0  0  0  0  0  0  0
  143.4299   78.4849  222.8663 H   0  0  0  0  0  0  0  0  0  0  0  0
  138.8275   70.7211  221.3233 H   0  0  0  0  0  0  0  0  0  0  0  0
  138.4133   69.2463  223.2606 H   0  0  0  0  0  0  0  0  0  0  0  0
  138.7990   68.7269  225.5507 H   0  0  0  0  0  0  0  0  0  0  0  0
  141.3885   71.2579  227.8940 H   0  0  0  0  0  0  0  0  0  0  0  0
  141.7757   72.7178  225.9039 H   0  0  0  0  0  0  0  0  0  0  0  0
  1  2  2  0
  2  3  1  0
  3  4  1  0
  4  5  1  0
  5  6  2  0
  5  7  1  0
  7  8  1  0
  8  9  1  0
  9 10  1  0
 10 11  1  0
 11 12  1  0
 12 13  1  0
 13 14  1  0
 14 15  2  0
 15 16  1  0
 16 17  2  0
 17 18  1  0
 18 19  2  0
  2 20  1  0
 20 21  2  0
 21 22  1  0
 22 23  2  0
 23 24  1  0
 24 25  2  0
 25 26  1  0
 26 27  1  0
 26 28  1  0
 26 29  1  0
 25 30  1  0
 30 31  2  0
 31 32  1  0
 32 33  2  0
 12  7  1  0
 19 14  1  0
 33 20  1  0
 32 23  1  0
  3 34  1  0
  4 35  1  0
  4 36  1  0
  8 37  1  0
  8 38  1  0
  9 39  1  0
  9 40  1  0
 10 41  1  0
 10 42  1  0
 11 43  1  0
 11 44  1  0
 12 45  1  6
 13 46  1  0
 13 47  1  0
 15 48  1  0
 16 49  1  0
 17 50  1  0
 18 51  1  0
 19 52  1  0
 21 53  1  0
 22 54  1  0
 24 55  1  0
 30 56  1  0
 31 57  1  0
M  END
>  <smiles>  (65) 
O=C(NCC(=O)N1CCCCC1Cc1ccccc1)c1ccc2cc(C(F)(F)F)ccc2n1

>  <score_type>  (65) 
oracle

>  <origin>  (65) 
autodockgpu

>  <m_score__min__energy>  (65) 
-8.4199999999999999

>  <m_primary>  (65) 
energy

>  <rmsd>  (65) 
2.9736947530128526

>  <m_score__min__rmsd>  (65) 
2.9736947530128526

>  <meeko>  (65) 
{"free_energy": -7.63, "intermolecular_energy": -9.72, "internal_energy": -2.31, "cluster_size": 11, "cluster_id": 1, "rank_in_cluster": 10}

>  <energy>  (65) 
-8.04

>  <cluster_rmsd>  (65) 
0.94

>  <cluster>  (65) 
2

$$$$

     RDKit          3D

 57 60  0  0  0  0  0  0  0  0999 V2000
  137.7950   72.7950  220.8440 O   0  0  0  0  0  0  0  0  0  0  0  0
  137.6760   73.3620  221.9740 C   0  0  0  0  0  0  0  0  0  0  0  0
  137.0900   72.5760  223.0050 N   0  0  0  0  0  0  0  0  0  0  0  0
  136.6930   71.2310  222.6750 C   0  0  0  0  0  0  0  0  0  0  0  0
  137.6140   70.2160  223.2400 C   0  0  0  0  0  0  0  0  0  0  0  0
  137.1060   69.3620  224.0160 O   0  0  0  0  0  0  0  0  0  0  0  0
  138.9790   70.2570  222.8860 N   0  0  0  0  0  0  0  0  0  0  0  0
  139.4210   69.7960  221.5600 C   0  0  0  0  0  0  0  0  0  0  0  0
  140.0940   70.9240  220.8150 C   0  0  0  0  0  0  0  0  0  0  0  0
  141.0730   71.6790  221.6590 C   0  0  0  0  0  0  0  0  0  0  0  0
  140.6630   71.9230  223.0700 C   0  0  0  0  0  0  0  0  0  0  0  0
  140.0330   70.7370  223.7590 C   0  0  1  0  0  0  0  0  0  0  0  0
  139.5750   71.1390  225.1170 C   0  0  0  0  0  0  0  0  0  0  0  0
  139.9990   70.0860  226.1030 C   0  0  0  0  0  0  0  0  0  0  0  0
  140.4210   70.4370  227.3800 C   0  0  0  0  0  0  0  0  0  0  0  0
  140.8190   69.5030  228.3140 C   0  0  0  0  0  0  0  0  0  0  0  0
  140.8040   68.1630  227.9870 C   0  0  0  0  0  0  0  0  0  0  0  0
  140.3860   67.7990  226.7160 C   0  0  0  0  0  0  0  0  0  0  0  0
  139.9920   68.7460  225.7970 C   0  0  0  0  0  0  0  0  0  0  0  0
  138.1130   74.7330  222.2010 C   0  0  0  0  0  0  0  0  0  0  0  0
  137.1490   75.6820  222.4640 C   0  0  0  0  0  0  0  0  0  0  0  0
  137.4530   77.0040  222.6920 C   0  0  0  0  0  0  0  0  0  0  0  0
  138.7670   77.3770  222.6540 C   0  0  0  0  0  0  0  0  0  0  0  0
  139.1000   78.6960  222.8800 C   0  0  0  0  0  0  0  0  0  0  0  0
  140.4240   79.0710  222.8410 C   0  0  0  0  0  0  0  0  0  0  0  0
  140.7600   80.5000  223.0890 C   0  0  0  0  0  0  0  0  0  0  0  0
  141.0070   81.1720  221.9040 F   0  0  0  0  0  0  0  0  0  0  0  0
  141.9170   80.5300  223.8770 F   0  0  0  0  0  0  0  0  0  0  0  0
  139.7600   81.0820  223.8250 F   0  0  0  0  0  0  0  0  0  0  0  0
  141.4160   78.1210  222.5760 C   0  0  0  0  0  0  0  0  0  0  0  0
  141.0660   76.7880  222.3500 C   0  0  0  0  0  0  0  0  0  0  0  0
  139.7410   76.4090  222.3880 C   0  0  0  0  0  0  0  0  0  0  0  0
  139.4010   75.1160  222.1670 N   0  0  0  0  0  0  0  0  0  0  0  0
  136.9580   72.9720  223.9680 H   0  0  0  0  0  0  0  0  0  0  0  0
  135.6833   71.0527  223.0734 H   0  0  0  0  0  0  0  0  0  0  0  0
  136.7167   71.1331  221.5796 H   0  0  0  0  0  0  0  0  0  0  0  0
  140.1320   68.9656  221.6821 H   0  0  0  0  0  0  0  0  0  0  0  0
  138.5453   69.4583  220.9864 H   0  0  0  0  0  0  0  0  0  0  0  0
  140.6277   70.5037  219.9498 H   0  0  0  0  0  0  0  0  0  0  0  0
  139.3090   71.6311  220.5087 H   0  0  0  0  0  0  0  0  0  0  0  0
  142.0138   71.1093  221.6751 H   0  0  0  0  0  0  0  0  0  0  0  0
  141.1587   72.6739  221.1976 H   0  0  0  0  0  0  0  0  0  0  0  0
  141.5568   72.2155  223.6406 H   0  0  0  0  0  0  0  0  0  0  0  0
  139.8932   72.7081  223.0380 H   0  0  0  0  0  0  0  0  0  0  0  0
  140.7378   69.9091  223.9258 H   0  0  0  0  0  0  0  0  0  0  0  0
  140.0276   72.1039  225.3892 H   0  0  0  0  0  0  0  0  0  0  0  0
  138.4798   71.2409  225.1270 H   0  0  0  0  0  0  0  0  0  0  0  0
  140.4383   71.5015  227.6568 H   0  0  0  0  0  0  0  0  0  0  0  0
  141.1464   69.8249  229.3136 H   0  0  0  0  0  0  0  0  0  0  0  0
  141.1161   67.4016  228.7169 H   0  0  0  0  0  0  0  0  0  0  0  0
  140.3688   66.7352  226.4369 H   0  0  0  0  0  0  0  0  0  0  0  0
  139.6650   68.4234  224.7975 H   0  0  0  0  0  0  0  0  0  0  0  0
  136.0946   75.3699  222.4927 H   0  0  0  0  0  0  0  0  0  0  0  0
  136.6615   77.7394  222.8989 H   0  0  0  0  0  0  0  0  0  0  0  0
  138.3169   79.4397  223.0890 H   0  0  0  0  0  0  0  0  0  0  0  0
  142.4729   78.4242  222.5456 H   0  0  0  0  0  0  0  0  0  0  0  0
  141.8466   76.0414  222.1419 H   0  0  0  0  0  0  0  0  0  0  0  0
  1  2  2  0
  2  3  1  0
  3  4  1  0
  4  5  1  0
  5  6  2  0
  5  7  1  0
  7  8  1  0
  8  9  1  0
  9 10  1  0
 10 11  1  0
 11 12  1  0
 12 13  1  0
 13 14  1  0
 14 15  2  0
 15 16  1  0
 16 17  2  0
 17 18  1  0
 18 19  2  0
  2 20  1  0
 20 21  2  0
 21 22  1  0
 22 23  2  0
 23 24  1  0
 24 25  2  0
 25 26  1  0
 26 27  1  0
 26 28  1  0
 26 29  1  0
 25 30  1  0
 30 31  2  0
 31 32  1  0
 32 33  2  0
 12  7  1  0
 19 14  1  0
 33 20  1  0
 32 23  1  0
  3 34  1  0
  4 35  1  0
  4 36  1  0
  8 37  1  0
  8 38  1  0
  9 39  1  0
  9 40  1  0
 10 41  1  0
 10 42  1  0
 11 43  1  0
 11 44  1  0
 12 45  1  1
 13 46  1  0
 13 47  1  0
 15 48  1  0
 16 49  1  0
 17 50  1  0
 18 51  1  0
 19 52  1  0
 21 53  1  0
 22 54  1  0
 24 55  1  0
 30 56  1  0
 31 57  1  0
M  END
>  <smiles>  (66) 
O=C(NCC(=O)N1CCCCC1Cc1ccccc1)c1ccc2cc(C(F)(F)F)ccc2n1

>  <score_type>  (66) 
oracle

>  <origin>  (66) 
autodockgpu

>  <m_score__min__energy>  (66) 
-8.4199999999999999

>  <m_primary>  (66) 
energy

>  <rmsd>  (66) 
7.162816494802105

>  <m_score__min__rmsd>  (66) 
7.162816494802105

>  <meeko>  (66) 
{"free_energy": -7.95, "intermolecular_energy": -10.04, "internal_energy": -2.25, "cluster_size": 38, "cluster_id": 2, "rank_in_cluster": 8}

>  <energy>  (66) 
-8.0

>  <cluster_rmsd>  (66) 
1.3

>  <cluster>  (66) 
2

$$$$

     RDKit          3D

 57 60  0  0  0  0  0  0  0  0999 V2000
  137.7300   72.7010  220.8250 O   0  0  0  0  0  0  0  0  0  0  0  0
  137.6620   73.2850  221.9510 C   0  0  0  0  0  0  0  0  0  0  0  0
  137.1280   72.5120  223.0200 N   0  0  0  0  0  0  0  0  0  0  0  0
  136.7210   71.1610  222.7300 C   0  0  0  0  0  0  0  0  0  0  0  0
  137.6670   70.1570  223.2740 C   0  0  0  0  0  0  0  0  0  0  0  0
  137.1800   69.2790  224.0360 O   0  0  0  0  0  0  0  0  0  0  0  0
  139.0290   70.2360  222.9170 N   0  0  0  0  0  0  0  0  0  0  0  0
  139.4830   69.7770  221.5940 C   0  0  0  0  0  0  0  0  0  0  0  0
  140.1210   70.9190  220.8390 C   0  0  0  0  0  0  0  0  0  0  0  0
  141.0790   71.7080  221.6760 C   0  0  0  0  0  0  0  0  0  0  0  0
  140.6640   71.9520  223.0850 C   0  0  0  0  0  0  0  0  0  0  0  0
  140.0700   70.7540  223.7840 C   0  0  1  0  0  0  0  0  0  0  0  0
  139.6030   71.1530  225.1400 C   0  0  0  0  0  0  0  0  0  0  0  0
  140.0220   70.0990  226.1280 C   0  0  0  0  0  0  0  0  0  0  0  0
  140.4720   70.4510  227.3950 C   0  0  0  0  0  0  0  0  0  0  0  0
  140.8660   69.5160  228.3290 C   0  0  0  0  0  0  0  0  0  0  0  0
  140.8190   68.1740  228.0120 C   0  0  0  0  0  0  0  0  0  0  0  0
  140.3730   67.8090  226.7520 C   0  0  0  0  0  0  0  0  0  0  0  0
  139.9830   68.7570  225.8310 C   0  0  0  0  0  0  0  0  0  0  0  0
  138.1040   74.6600  222.1360 C   0  0  0  0  0  0  0  0  0  0  0  0
  137.1390   75.6330  222.2870 C   0  0  0  0  0  0  0  0  0  0  0  0
  137.4480   76.9610  222.4680 C   0  0  0  0  0  0  0  0  0  0  0  0
  138.7670   77.3160  222.4970 C   0  0  0  0  0  0  0  0  0  0  0  0
  139.1040   78.6410  222.6770 C   0  0  0  0  0  0  0  0  0  0  0  0
  140.4330   78.9980  222.7060 C   0  0  0  0  0  0  0  0  0  0  0  0
  140.7740   80.4340  222.9010 C   0  0  0  0  0  0  0  0  0  0  0  0
  140.6760   81.1420  221.7160 F   0  0  0  0  0  0  0  0  0  0  0  0
  142.0960   80.4940  223.3580 F   0  0  0  0  0  0  0  0  0  0  0  0
  139.9850   80.9580  223.8940 F   0  0  0  0  0  0  0  0  0  0  0  0
  141.4270   78.0250  222.5540 C   0  0  0  0  0  0  0  0  0  0  0  0
  141.0720   76.6860  222.3730 C   0  0  0  0  0  0  0  0  0  0  0  0
  139.7410   76.3250  222.3430 C   0  0  0  0  0  0  0  0  0  0  0  0
  139.3970   75.0260  222.1670 N   0  0  0  0  0  0  0  0  0  0  0  0
  137.0400   72.9230  223.9820 H   0  0  0  0  0  0  0  0  0  0  0  0
  135.7290   70.9881  223.1727 H   0  0  0  0  0  0  0  0  0  0  0  0
  136.6999   71.0443  221.6364 H   0  0  0  0  0  0  0  0  0  0  0  0
  140.2188   68.9694  221.7219 H   0  0  0  0  0  0  0  0  0  0  0  0
  138.6173   69.4080  221.0244 H   0  0  0  0  0  0  0  0  0  0  0  0
  140.6651   70.5084  219.9757 H   0  0  0  0  0  0  0  0  0  0  0  0
  139.3152   71.6005  220.5288 H   0  0  0  0  0  0  0  0  0  0  0  0
  142.0354   71.1650  221.6957 H   0  0  0  0  0  0  0  0  0  0  0  0
  141.1360   72.7011  221.2065 H   0  0  0  0  0  0  0  0  0  0  0  0
  141.5495   72.2752  223.6519 H   0  0  0  0  0  0  0  0  0  0  0  0
  139.8718   72.7143  223.0479 H   0  0  0  0  0  0  0  0  0  0  0  0
  140.7990   69.9483  223.9556 H   0  0  0  0  0  0  0  0  0  0  0  0
  140.0525   72.1181  225.4164 H   0  0  0  0  0  0  0  0  0  0  0  0
  138.5076   71.2530  225.1430 H   0  0  0  0  0  0  0  0  0  0  0  0
  140.5156   71.5169  227.6632 H   0  0  0  0  0  0  0  0  0  0  0  0
  141.2157   69.8382  229.3209 H   0  0  0  0  0  0  0  0  0  0  0  0
  141.1283   67.4118  228.7424 H   0  0  0  0  0  0  0  0  0  0  0  0
  140.3294   66.7435  226.4820 H   0  0  0  0  0  0  0  0  0  0  0  0
  139.6338   68.4339  224.8392 H   0  0  0  0  0  0  0  0  0  0  0  0
  136.0803   75.3356  222.2617 H   0  0  0  0  0  0  0  0  0  0  0  0
  136.6561   77.7153  222.5860 H   0  0  0  0  0  0  0  0  0  0  0  0
  138.3201   79.4035  222.7960 H   0  0  0  0  0  0  0  0  0  0  0  0
  142.4880   78.3144  222.5770 H   0  0  0  0  0  0  0  0  0  0  0  0
  141.8530   75.9205  222.2545 H   0  0  0  0  0  0  0  0  0  0  0  0
  1  2  2  0
  2  3  1  0
  3  4  1  0
  4  5  1  0
  5  6  2  0
  5  7  1  0
  7  8  1  0
  8  9  1  0
  9 10  1  0
 10 11  1  0
 11 12  1  0
 12 13  1  0
 13 14  1  0
 14 15  2  0
 15 16  1  0
 16 17  2  0
 17 18  1  0
 18 19  2  0
  2 20  1  0
 20 21  2  0
 21 22  1  0
 22 23  2  0
 23 24  1  0
 24 25  2  0
 25 26  1  0
 26 27  1  0
 26 28  1  0
 26 29  1  0
 25 30  1  0
 30 31  2  0
 31 32  1  0
 32 33  2  0
 12  7  1  0
 19 14  1  0
 33 20  1  0
 32 23  1  0
  3 34  1  0
  4 35  1  0
  4 36  1  0
  8 37  1  0
  8 38  1  0
  9 39  1  0
  9 40  1  0
 10 41  1  0
 10 42  1  0
 11 43  1  0
 11 44  1  0
 12 45  1  1
 13 46  1  0
 13 47  1  0
 15 48  1  0
 16 49  1  0
 17 50  1  0
 18 51  1  0
 19 52  1  0
 21 53  1  0
 22 54  1  0
 24 55  1  0
 30 56  1  0
 31 57  1  0
M  END
>  <smiles>  (67) 
O=C(NCC(=O)N1CCCCC1Cc1ccccc1)c1ccc2cc(C(F)(F)F)ccc2n1

>  <score_type>  (67) 
oracle

>  <origin>  (67) 
autodockgpu

>  <m_score__min__energy>  (67) 
-8.4199999999999999

>  <m_primary>  (67) 
energy

>  <rmsd>  (67) 
7.157485128046301

>  <m_score__min__rmsd>  (67) 
7.157485128046301

>  <meeko>  (67) 
{"free_energy": -7.88, "intermolecular_energy": -9.97, "internal_energy": -2.28, "cluster_size": 38, "cluster_id": 2, "rank_in_cluster": 17}

>  <energy>  (67) 
-7.99

>  <cluster_rmsd>  (67) 
1.11

>  <cluster>  (67) 
2

$$$$

     RDKit          3D

 57 60  0  0  0  0  0  0  0  0999 V2000
  138.2550   73.1470  220.2870 O   0  0  0  0  0  0  0  0  0  0  0  0
  138.2840   73.6790  221.4400 C   0  0  0  0  0  0  0  0  0  0  0  0
  137.5230   73.0210  222.4460 N   0  0  0  0  0  0  0  0  0  0  0  0
  136.8010   71.8340  222.0690 C   0  0  0  0  0  0  0  0  0  0  0  0
  137.4550   70.5960  222.5590 C   0  0  0  0  0  0  0  0  0  0  0  0
  136.7040   69.7360  223.0950 O   0  0  0  0  0  0  0  0  0  0  0  0
  138.8480   70.4500  222.4030 N   0  0  0  0  0  0  0  0  0  0  0  0
  139.4140   69.9970  221.1220 C   0  0  0  0  0  0  0  0  0  0  0  0
  140.3430   71.0480  220.5630 C   0  0  0  0  0  0  0  0  0  0  0  0
  141.2810   71.6020  221.5890 C   0  0  0  0  0  0  0  0  0  0  0  0
  140.7050   71.8310  222.9430 C   0  0  0  0  0  0  0  0  0  0  0  0
  139.8180   70.7200  223.4480 C   0  0  1  0  0  0  0  0  0  0  0  0
  139.2250   71.1150  224.7550 C   0  0  0  0  0  0  0  0  0  0  0  0
  139.7940   70.2360  225.8330 C   0  0  0  0  0  0  0  0  0  0  0  0
  139.5980   68.8600  225.8050 C   0  0  0  0  0  0  0  0  0  0  0  0
  140.1030   68.0180  226.7760 C   0  0  0  0  0  0  0  0  0  0  0  0
  140.8330   68.5440  227.8220 C   0  0  0  0  0  0  0  0  0  0  0  0
  141.0350   69.9150  227.8620 C   0  0  0  0  0  0  0  0  0  0  0  0
  140.5240   70.7400  226.8840 C   0  0  0  0  0  0  0  0  0  0  0  0
  139.0500   74.8860  221.7150 C   0  0  0  0  0  0  0  0  0  0  0  0
  140.3880   74.8910  221.3830 C   0  0  0  0  0  0  0  0  0  0  0  0
  141.2010   75.9790  221.6000 C   0  0  0  0  0  0  0  0  0  0  0  0
  140.6490   77.0920  222.1680 C   0  0  0  0  0  0  0  0  0  0  0  0
  141.4430   78.1960  222.3970 C   0  0  0  0  0  0  0  0  0  0  0  0
  140.8850   79.3170  222.9690 C   0  0  0  0  0  0  0  0  0  0  0  0
  141.7600   80.4980  223.2060 C   0  0  0  0  0  0  0  0  0  0  0  0
  141.0150   81.6330  223.4750 F   0  0  0  0  0  0  0  0  0  0  0  0
  142.5050   80.7100  222.0400 F   0  0  0  0  0  0  0  0  0  0  0  0
  142.6560   80.2080  224.2040 F   0  0  0  0  0  0  0  0  0  0  0  0
  139.5290   79.3310  223.3130 C   0  0  0  0  0  0  0  0  0  0  0  0
  138.7350   78.2060  223.0760 C   0  0  0  0  0  0  0  0  0  0  0  0
  139.2910   77.0810  222.5030 C   0  0  0  0  0  0  0  0  0  0  0  0
  138.5220   75.9890  222.2730 N   0  0  0  0  0  0  0  0  0  0  0  0
  137.4960   73.3980  223.4250 H   0  0  0  0  0  0  0  0  0  0  0  0
  135.7865   71.8885  222.4907 H   0  0  0  0  0  0  0  0  0  0  0  0
  136.7783   71.7895  220.9701 H   0  0  0  0  0  0  0  0  0  0  0  0
  139.9746   69.0641  221.2818 H   0  0  0  0  0  0  0  0  0  0  0  0
  138.5951   69.8247  220.4081 H   0  0  0  0  0  0  0  0  0  0  0  0
  140.9353   70.5977  219.7529 H   0  0  0  0  0  0  0  0  0  0  0  0
  139.7206   71.8799  220.2017 H   0  0  0  0  0  0  0  0  0  0  0  0
  142.1191   70.8973  221.6944 H   0  0  0  0  0  0  0  0  0  0  0  0
  141.5729   72.5958  221.2186 H   0  0  0  0  0  0  0  0  0  0  0  0
  141.5365   71.9546  223.6524 H   0  0  0  0  0  0  0  0  0  0  0  0
  140.0680   72.7241  222.8621 H   0  0  0  0  0  0  0  0  0  0  0  0
  140.3654   69.7875  223.6502 H   0  0  0  0  0  0  0  0  0  0  0  0
  139.4689   72.1661  224.9686 H   0  0  0  0  0  0  0  0  0  0  0  0
  138.1317   70.9997  224.7184 H   0  0  0  0  0  0  0  0  0  0  0  0
  139.0183   68.4252  224.9774 H   0  0  0  0  0  0  0  0  0  0  0  0
  139.9243   66.9343  226.7159 H   0  0  0  0  0  0  0  0  0  0  0  0
  141.2449   67.8911  228.6056 H   0  0  0  0  0  0  0  0  0  0  0  0
  141.6136   70.3519  228.6893 H   0  0  0  0  0  0  0  0  0  0  0  0
  140.7035   71.8235  226.9450 H   0  0  0  0  0  0  0  0  0  0  0  0
  140.8225   73.9894  220.9266 H   0  0  0  0  0  0  0  0  0  0  0  0
  142.2655   75.9536  221.3240 H   0  0  0  0  0  0  0  0  0  0  0  0
  142.5090   78.1811  222.1260 H   0  0  0  0  0  0  0  0  0  0  0  0
  139.0875   80.2286  223.7705 H   0  0  0  0  0  0  0  0  0  0  0  0
  137.6687   78.2173  223.3458 H   0  0  0  0  0  0  0  0  0  0  0  0
  1  2  2  0
  2  3  1  0
  3  4  1  0
  4  5  1  0
  5  6  2  0
  5  7  1  0
  7  8  1  0
  8  9  1  0
  9 10  1  0
 10 11  1  0
 11 12  1  0
 12 13  1  0
 13 14  1  0
 14 15  2  0
 15 16  1  0
 16 17  2  0
 17 18  1  0
 18 19  2  0
  2 20  1  0
 20 21  2  0
 21 22  1  0
 22 23  2  0
 23 24  1  0
 24 25  2  0
 25 26  1  0
 26 27  1  0
 26 28  1  0
 26 29  1  0
 25 30  1  0
 30 31  2  0
 31 32  1  0
 32 33  2  0
 12  7  1  0
 19 14  1  0
 33 20  1  0
 32 23  1  0
  3 34  1  0
  4 35  1  0
  4 36  1  0
  8 37  1  0
  8 38  1  0
  9 39  1  0
  9 40  1  0
 10 41  1  0
 10 42  1  0
 11 43  1  0
 11 44  1  0
 12 45  1  1
 13 46  1  0
 13 47  1  0
 15 48  1  0
 16 49  1  0
 17 50  1  0
 18 51  1  0
 19 52  1  0
 21 53  1  0
 22 54  1  0
 24 55  1  0
 30 56  1  0
 31 57  1  0
M  END
>  <smiles>  (68) 
O=C(NCC(=O)N1CCCCC1Cc1ccccc1)c1ccc2cc(C(F)(F)F)ccc2n1

>  <score_type>  (68) 
oracle

>  <origin>  (68) 
autodockgpu

>  <m_score__min__energy>  (68) 
-8.4199999999999999

>  <m_primary>  (68) 
energy

>  <rmsd>  (68) 
7.087175559423497

>  <m_score__min__rmsd>  (68) 
7.087175559423497

>  <meeko>  (68) 
{"free_energy": -7.79, "intermolecular_energy": -9.88, "internal_energy": -2.28, "cluster_size": 38, "cluster_id": 2, "rank_in_cluster": 31}

>  <energy>  (68) 
-7.95

>  <cluster_rmsd>  (68) 
1.68

>  <cluster>  (68) 
2

$$$$

     RDKit          3D

 57 60  0  0  0  0  0  0  0  0999 V2000
  137.5690   72.7660  220.7730 O   0  0  0  0  0  0  0  0  0  0  0  0
  137.6240   73.2820  221.9330 C   0  0  0  0  0  0  0  0  0  0  0  0
  137.2100   72.4440  223.0060 N   0  0  0  0  0  0  0  0  0  0  0  0
  136.7730   71.1100  222.6810 C   0  0  0  0  0  0  0  0  0  0  0  0
  137.7440   70.0770  223.1140 C   0  0  0  0  0  0  0  0  0  0  0  0
  137.2780   69.0980  223.7580 O   0  0  0  0  0  0  0  0  0  0  0  0
  139.1070   70.2390  222.7880 N   0  0  0  0  0  0  0  0  0  0  0  0
  139.6150   69.8270  221.4690 C   0  0  0  0  0  0  0  0  0  0  0  0
  140.2010   71.0140  220.7430 C   0  0  0  0  0  0  0  0  0  0  0  0
  141.0930   71.8460  221.6120 C   0  0  0  0  0  0  0  0  0  0  0  0
  140.6350   72.0450  223.0150 C   0  0  0  0  0  0  0  0  0  0  0  0
  140.0970   70.8050  223.6850 C   0  0  1  0  0  0  0  0  0  0  0  0
  139.5790   71.1560  225.0350 C   0  0  0  0  0  0  0  0  0  0  0  0
  140.0110   70.0990  226.0120 C   0  0  0  0  0  0  0  0  0  0  0  0
  140.3440   70.4330  227.3200 C   0  0  0  0  0  0  0  0  0  0  0  0
  140.7460   69.4930  228.2460 C   0  0  0  0  0  0  0  0  0  0  0  0
  140.8290   68.1650  227.8800 C   0  0  0  0  0  0  0  0  0  0  0  0
  140.5010   67.8190  226.5790 C   0  0  0  0  0  0  0  0  0  0  0  0
  140.1010   68.7710  225.6670 C   0  0  0  0  0  0  0  0  0  0  0  0
  138.0840   74.6460  222.1510 C   0  0  0  0  0  0  0  0  0  0  0  0
  137.1350   75.6170  222.3850 C   0  0  0  0  0  0  0  0  0  0  0  0
  137.4610   76.9360  222.6030 C   0  0  0  0  0  0  0  0  0  0  0  0
  138.7830   77.2830  222.5840 C   0  0  0  0  0  0  0  0  0  0  0  0
  139.1370   78.5980  222.7990 C   0  0  0  0  0  0  0  0  0  0  0  0
  140.4690   78.9460  222.7790 C   0  0  0  0  0  0  0  0  0  0  0  0
  140.8290   80.3710  223.0150 C   0  0  0  0  0  0  0  0  0  0  0  0
  142.0030   80.4820  223.7380 F   0  0  0  0  0  0  0  0  0  0  0  0
  139.7870   80.9520  223.7490 F   0  0  0  0  0  0  0  0  0  0  0  0
  140.8860   81.0310  221.8130 F   0  0  0  0  0  0  0  0  0  0  0  0
  141.4470   77.9740  222.5430 C   0  0  0  0  0  0  0  0  0  0  0  0
  141.0750   76.6450  222.3270 C   0  0  0  0  0  0  0  0  0  0  0  0
  139.7410   76.2930  222.3460 C   0  0  0  0  0  0  0  0  0  0  0  0
  139.3800   75.0040  222.1350 N   0  0  0  0  0  0  0  0  0  0  0  0
  137.2260   72.7970  223.9940 H   0  0  0  0  0  0  0  0  0  0  0  0
  135.8109   70.9219  223.1799 H   0  0  0  0  0  0  0  0  0  0  0  0
  136.6788   71.0447  221.5870 H   0  0  0  0  0  0  0  0  0  0  0  0
  140.3938   69.0617  221.6022 H   0  0  0  0  0  0  0  0  0  0  0  0
  138.7841   69.4174  220.8758 H   0  0  0  0  0  0  0  0  0  0  0  0
  140.7870   70.6478  219.8871 H   0  0  0  0  0  0  0  0  0  0  0  0
  139.3637   71.6516  220.4228 H   0  0  0  0  0  0  0  0  0  0  0  0
  142.0792   71.3599  221.6454 H   0  0  0  0  0  0  0  0  0  0  0  0
  141.1006   72.8475  221.1572 H   0  0  0  0  0  0  0  0  0  0  0  0
  141.4882   72.4105  223.6053 H   0  0  0  0  0  0  0  0  0  0  0  0
  139.8008   72.7606  222.9707 H   0  0  0  0  0  0  0  0  0  0  0  0
  140.8681   70.0409  223.8625 H   0  0  0  0  0  0  0  0  0  0  0  0
  139.9832   72.1314  225.3435 H   0  0  0  0  0  0  0  0  0  0  0  0
  138.4808   71.2135  225.0095 H   0  0  0  0  0  0  0  0  0  0  0  0
  140.2846   71.4873  227.6282 H   0  0  0  0  0  0  0  0  0  0  0  0
  140.9992   69.8005  229.2713 H   0  0  0  0  0  0  0  0  0  0  0  0
  141.1477   67.4000  228.6033 H   0  0  0  0  0  0  0  0  0  0  0  0
  140.5611   66.7654  226.2688 H   0  0  0  0  0  0  0  0  0  0  0  0
  139.8484   68.4624  224.6418 H   0  0  0  0  0  0  0  0  0  0  0  0
  136.0742   75.3262  222.3981 H   0  0  0  0  0  0  0  0  0  0  0  0
  136.6806   77.6891  222.7872 H   0  0  0  0  0  0  0  0  0  0  0  0
  138.3651   79.3595  222.9841 H   0  0  0  0  0  0  0  0  0  0  0  0
  142.5100   78.2565  222.5275 H   0  0  0  0  0  0  0  0  0  0  0  0
  141.8441   75.8806  222.1421 H   0  0  0  0  0  0  0  0  0  0  0  0
  1  2  2  0
  2  3  1  0
  3  4  1  0
  4  5  1  0
  5  6  2  0
  5  7  1  0
  7  8  1  0
  8  9  1  0
  9 10  1  0
 10 11  1  0
 11 12  1  0
 12 13  1  0
 13 14  1  0
 14 15  2  0
 15 16  1  0
 16 17  2  0
 17 18  1  0
 18 19  2  0
  2 20  1  0
 20 21  2  0
 21 22  1  0
 22 23  2  0
 23 24  1  0
 24 25  2  0
 25 26  1  0
 26 27  1  0
 26 28  1  0
 26 29  1  0
 25 30  1  0
 30 31  2  0
 31 32  1  0
 32 33  2  0
 12  7  1  0
 19 14  1  0
 33 20  1  0
 32 23  1  0
  3 34  1  0
  4 35  1  0
  4 36  1  0
  8 37  1  0
  8 38  1  0
  9 39  1  0
  9 40  1  0
 10 41  1  0
 10 42  1  0
 11 43  1  0
 11 44  1  0
 12 45  1  1
 13 46  1  0
 13 47  1  0
 15 48  1  0
 16 49  1  0
 17 50  1  0
 18 51  1  0
 19 52  1  0
 21 53  1  0
 22 54  1  0
 24 55  1  0
 30 56  1  0
 31 57  1  0
M  END
>  <smiles>  (69) 
O=C(NCC(=O)N1CCCCC1Cc1ccccc1)c1ccc2cc(C(F)(F)F)ccc2n1

>  <score_type>  (69) 
oracle

>  <origin>  (69) 
autodockgpu

>  <m_score__min__energy>  (69) 
-8.4199999999999999

>  <m_primary>  (69) 
energy

>  <rmsd>  (69) 
7.103439516032426

>  <m_score__min__rmsd>  (69) 
7.103439516032426

>  <meeko>  (69) 
{"free_energy": -7.84, "intermolecular_energy": -9.93, "internal_energy": -2.34, "cluster_size": 38, "cluster_id": 2, "rank_in_cluster": 21}

>  <energy>  (69) 
-7.95

>  <cluster_rmsd>  (69) 
1.68

>  <cluster>  (69) 
2

$$$$

     RDKit          3D

 57 60  0  0  0  0  0  0  0  0999 V2000
  136.4740   74.9720  221.0710 O   0  0  0  0  0  0  0  0  0  0  0  0
  137.5010   74.7840  221.7960 C   0  0  0  0  0  0  0  0  0  0  0  0
  137.6320   73.4860  222.3620 N   0  0  0  0  0  0  0  0  0  0  0  0
  136.6050   72.5210  222.0670 C   0  0  0  0  0  0  0  0  0  0  0  0
  137.0920   71.1250  222.1820 C   0  0  0  0  0  0  0  0  0  0  0  0
  136.2120   70.2270  222.2880 O   0  0  0  0  0  0  0  0  0  0  0  0
  138.4810   70.8800  222.1650 N   0  0  0  0  0  0  0  0  0  0  0  0
  139.2350   70.9420  220.9030 C   0  0  0  0  0  0  0  0  0  0  0  0
  140.3070   72.0020  220.9880 C   0  0  0  0  0  0  0  0  0  0  0  0
  141.0810   71.9460  222.2690 C   0  0  0  0  0  0  0  0  0  0  0  0
  140.2900   71.6550  223.4960 C   0  0  0  0  0  0  0  0  0  0  0  0
  139.2660   70.5580  223.3420 C   0  0  1  0  0  0  0  0  0  0  0  0
  138.4760   70.4380  224.5980 C   0  0  0  0  0  0  0  0  0  0  0  0
  139.2770   69.6590  225.6030 C   0  0  0  0  0  0  0  0  0  0  0  0
  139.2940   68.2690  225.5750 C   0  0  0  0  0  0  0  0  0  0  0  0
  140.0150   67.5170  226.4800 C   0  0  0  0  0  0  0  0  0  0  0  0
  140.7530   68.1510  227.4590 C   0  0  0  0  0  0  0  0  0  0  0  0
  140.7440   69.5360  227.4980 C   0  0  0  0  0  0  0  0  0  0  0  0
  140.0190   70.2710  226.5860 C   0  0  0  0  0  0  0  0  0  0  0  0
  138.4830   75.8340  222.0300 C   0  0  0  0  0  0  0  0  0  0  0  0
  139.8000   75.5640  221.7270 C   0  0  0  0  0  0  0  0  0  0  0  0
  140.8060   76.4840  221.9100 C   0  0  0  0  0  0  0  0  0  0  0  0
  140.4720   77.7100  222.4130 C   0  0  0  0  0  0  0  0  0  0  0  0
  141.4620   78.6510  222.6060 C   0  0  0  0  0  0  0  0  0  0  0  0
  141.1240   79.8850  223.1130 C   0  0  0  0  0  0  0  0  0  0  0  0
  142.2090   80.8860  223.3140 C   0  0  0  0  0  0  0  0  0  0  0  0
  143.4460   80.2750  223.4220 F   0  0  0  0  0  0  0  0  0  0  0  0
  141.9350   81.5700  224.5050 F   0  0  0  0  0  0  0  0  0  0  0  0
  142.1660   81.8120  222.3020 F   0  0  0  0  0  0  0  0  0  0  0  0
  139.7930   80.1780  223.4270 C   0  0  0  0  0  0  0  0  0  0  0  0
  138.7990   79.2160  223.2270 C   0  0  0  0  0  0  0  0  0  0  0  0
  139.1340   77.9780  222.7190 C   0  0  0  0  0  0  0  0  0  0  0  0
  138.1710   77.0440  222.5240 N   0  0  0  0  0  0  0  0  0  0  0  0
  138.4540   73.2520  222.9730 H   0  0  0  0  0  0  0  0  0  0  0  0
  135.7727   72.6641  222.7718 H   0  0  0  0  0  0  0  0  0  0  0  0
  136.2839   72.6799  221.0270 H   0  0  0  0  0  0  0  0  0  0  0  0
  139.7038   69.9655  220.7114 H   0  0  0  0  0  0  0  0  0  0  0  0
  138.5448   71.1941  220.0844 H   0  0  0  0  0  0  0  0  0  0  0  0
  141.0053   71.8631  220.1495 H   0  0  0  0  0  0  0  0  0  0  0  0
  139.8074   72.9811  220.9464 H   0  0  0  0  0  0  0  0  0  0  0  0
  141.8449   71.1612  222.1668 H   0  0  0  0  0  0  0  0  0  0  0  0
  141.4910   72.9566  222.4127 H   0  0  0  0  0  0  0  0  0  0  0  0
  140.9894   71.3612  224.2926 H   0  0  0  0  0  0  0  0  0  0  0  0
  139.7291   72.5723  223.7282 H   0  0  0  0  0  0  0  0  0  0  0  0
  139.7150   69.5656  223.1882 H   0  0  0  0  0  0  0  0  0  0  0  0
  138.2593   71.4406  224.9954 H   0  0  0  0  0  0  0  0  0  0  0  0
  137.5275   69.9196  224.3942 H   0  0  0  0  0  0  0  0  0  0  0  0
  138.7101   67.7486  224.8015 H   0  0  0  0  0  0  0  0  0  0  0  0
  140.0016   66.4186  226.4215 H   0  0  0  0  0  0  0  0  0  0  0  0
  141.3343   67.5707  228.1907 H   0  0  0  0  0  0  0  0  0  0  0  0
  141.3264   70.0582  228.2714 H   0  0  0  0  0  0  0  0  0  0  0  0
  140.0338   71.3693  226.6452 H   0  0  0  0  0  0  0  0  0  0  0  0
  140.0568   74.5737  221.3229 H   0  0  0  0  0  0  0  0  0  0  0  0
  141.8488   76.2401  221.6589 H   0  0  0  0  0  0  0  0  0  0  0  0
  142.5080   78.4181  222.3579 H   0  0  0  0  0  0  0  0  0  0  0  0
  139.5283   81.1661  223.8316 H   0  0  0  0  0  0  0  0  0  0  0  0
  137.7520   79.4455  223.4741 H   0  0  0  0  0  0  0  0  0  0  0  0
  1  2  2  0
  2  3  1  0
  3  4  1  0
  4  5  1  0
  5  6  2  0
  5  7  1  0
  7  8  1  0
  8  9  1  0
  9 10  1  0
 10 11  1  0
 11 12  1  0
 12 13  1  0
 13 14  1  0
 14 15  2  0
 15 16  1  0
 16 17  2  0
 17 18  1  0
 18 19  2  0
  2 20  1  0
 20 21  2  0
 21 22  1  0
 22 23  2  0
 23 24  1  0
 24 25  2  0
 25 26  1  0
 26 27  1  0
 26 28  1  0
 26 29  1  0
 25 30  1  0
 30 31  2  0
 31 32  1  0
 32 33  2  0
 12  7  1  0
 19 14  1  0
 33 20  1  0
 32 23  1  0
  3 34  1  0
  4 35  1  0
  4 36  1  0
  8 37  1  0
  8 38  1  0
  9 39  1  0
  9 40  1  0
 10 41  1  0
 10 42  1  0
 11 43  1  0
 11 44  1  0
 12 45  1  6
 13 46  1  0
 13 47  1  0
 15 48  1  0
 16 49  1  0
 17 50  1  0
 18 51  1  0
 19 52  1  0
 21 53  1  0
 22 54  1  0
 24 55  1  0
 30 56  1  0
 31 57  1  0
M  END
>  <smiles>  (70) 
O=C(NCC(=O)N1CCCCC1Cc1ccccc1)c1ccc2cc(C(F)(F)F)ccc2n1

>  <score_type>  (70) 
oracle

>  <origin>  (70) 
autodockgpu

>  <m_score__min__energy>  (70) 
-8.4199999999999999

>  <m_primary>  (70) 
energy

>  <rmsd>  (70) 
7.356978511887934

>  <m_score__min__rmsd>  (70) 
7.356978511887934

>  <meeko>  (70) 
{"free_energy": -8.0, "intermolecular_energy": -10.09, "internal_energy": -1.94, "cluster_size": 38, "cluster_id": 2, "rank_in_cluster": 5}

>  <energy>  (70) 
-7.93

>  <cluster_rmsd>  (70) 
1.35

>  <cluster>  (70) 
2

$$$$

     RDKit          3D

 57 60  0  0  0  0  0  0  0  0999 V2000
  139.5910   72.6130  220.1550 O   0  0  0  0  0  0  0  0  0  0  0  0
  140.2860   72.8000  221.2010 C   0  0  0  0  0  0  0  0  0  0  0  0
  141.2640   73.8310  221.1210 N   0  0  0  0  0  0  0  0  0  0  0  0
  141.3730   74.5530  219.8790 C   0  0  0  0  0  0  0  0  0  0  0  0
  141.1330   76.0060  220.0490 C   0  0  0  0  0  0  0  0  0  0  0  0
  142.0590   76.7780  219.6800 O   0  0  0  0  0  0  0  0  0  0  0  0
  139.9080   76.4380  220.5990 N   0  0  0  0  0  0  0  0  0  0  0  0
  138.6660   76.3580  219.8150 C   0  0  0  0  0  0  0  0  0  0  0  0
  137.6650   75.4700  220.5150 C   0  0  0  0  0  0  0  0  0  0  0  0
  137.5540   75.7590  221.9800 C   0  0  0  0  0  0  0  0  0  0  0  0
  138.8320   76.0570  222.6830 C   0  0  0  0  0  0  0  0  0  0  0  0
  139.7630   76.9810  221.9370 C   0  0  1  0  0  0  0  0  0  0  0  0
  141.0390   77.1140  222.6920 C   0  0  0  0  0  0  0  0  0  0  0  0
  141.2800   78.5680  222.9870 C   0  0  0  0  0  0  0  0  0  0  0  0
  142.5670   79.0920  222.9750 C   0  0  0  0  0  0  0  0  0  0  0  0
  142.8310   80.4200  223.2410 C   0  0  0  0  0  0  0  0  0  0  0  0
  141.7890   81.2770  223.5330 C   0  0  0  0  0  0  0  0  0  0  0  0
  140.5010   80.7670  223.5490 C   0  0  0  0  0  0  0  0  0  0  0  0
  140.2560   79.4380  223.2810 C   0  0  0  0  0  0  0  0  0  0  0  0
  140.0930   72.0100  222.4090 C   0  0  0  0  0  0  0  0  0  0  0  0
  139.2520   70.9200  222.3390 C   0  0  0  0  0  0  0  0  0  0  0  0
  139.0010   70.1080  223.4200 C   0  0  0  0  0  0  0  0  0  0  0  0
  139.6150   70.4040  224.6040 C   0  0  0  0  0  0  0  0  0  0  0  0
  139.3800   69.6060  225.7030 C   0  0  0  0  0  0  0  0  0  0  0  0
  140.0000   69.9050  226.8950 C   0  0  0  0  0  0  0  0  0  0  0  0
  139.7320   69.0290  228.0700 C   0  0  0  0  0  0  0  0  0  0  0  0
  138.8810   69.6430  228.9730 F   0  0  0  0  0  0  0  0  0  0  0  0
  140.9580   68.7810  228.6980 F   0  0  0  0  0  0  0  0  0  0  0  0
  139.2540   67.8190  227.6350 F   0  0  0  0  0  0  0  0  0  0  0  0
  140.8570   71.0070  226.9860 C   0  0  0  0  0  0  0  0  0  0  0  0
  141.0870   71.8080  225.8640 C   0  0  0  0  0  0  0  0  0  0  0  0
  140.4680   71.5110  224.6690 C   0  0  0  0  0  0  0  0  0  0  0  0
  140.6900   72.2880  223.5810 N   0  0  0  0  0  0  0  0  0  0  0  0
  141.8790   74.0470  221.9440 H   0  0  0  0  0  0  0  0  0  0  0  0
  142.3847   74.4069  219.4727 H   0  0  0  0  0  0  0  0  0  0  0  0
  140.6048   74.1632  219.1950 H   0  0  0  0  0  0  0  0  0  0  0  0
  138.2413   77.3665  219.7028 H   0  0  0  0  0  0  0  0  0  0  0  0
  138.8923   75.9341  218.8255 H   0  0  0  0  0  0  0  0  0  0  0  0
  136.6786   75.6201  220.0519 H   0  0  0  0  0  0  0  0  0  0  0  0
  138.0135   74.4321  220.4088 H   0  0  0  0  0  0  0  0  0  0  0  0
  136.8913   76.6284  222.1027 H   0  0  0  0  0  0  0  0  0  0  0  0
  137.1714   74.8347  222.4374 H   0  0  0  0  0  0  0  0  0  0  0  0
  138.5904   76.5221  223.6501 H   0  0  0  0  0  0  0  0  0  0  0  0
  139.3616   75.0981  222.7834 H   0  0  0  0  0  0  0  0  0  0  0  0
  139.3744   78.0060  221.8460 H   0  0  0  0  0  0  0  0  0  0  0  0
  140.9704   76.5522  223.6352 H   0  0  0  0  0  0  0  0  0  0  0  0
  141.8700   76.7120  222.0938 H   0  0  0  0  0  0  0  0  0  0  0  0
  143.4083   78.4219  222.7444 H   0  0  0  0  0  0  0  0  0  0  0  0
  143.8655   80.7934  223.2205 H   0  0  0  0  0  0  0  0  0  0  0  0
  141.9768   82.3393  223.7478 H   0  0  0  0  0  0  0  0  0  0  0  0
  139.6585   81.4354  223.7799 H   0  0  0  0  0  0  0  0  0  0  0  0
  139.2213   79.0654  223.3026 H   0  0  0  0  0  0  0  0  0  0  0  0
  138.7625   70.6908  221.3809 H   0  0  0  0  0  0  0  0  0  0  0  0
  138.3250   69.2445  223.3339 H   0  0  0  0  0  0  0  0  0  0  0  0
  138.7051   68.7406  225.6284 H   0  0  0  0  0  0  0  0  0  0  0  0
  141.3498   71.2431  227.9406 H   0  0  0  0  0  0  0  0  0  0  0  0
  141.7612   72.6743  225.9346 H   0  0  0  0  0  0  0  0  0  0  0  0
  1  2  2  0
  2  3  1  0
  3  4  1  0
  4  5  1  0
  5  6  2  0
  5  7  1  0
  7  8  1  0
  8  9  1  0
  9 10  1  0
 10 11  1  0
 11 12  1  0
 12 13  1  0
 13 14  1  0
 14 15  2  0
 15 16  1  0
 16 17  2  0
 17 18  1  0
 18 19  2  0
  2 20  1  0
 20 21  2  0
 21 22  1  0
 22 23  2  0
 23 24  1  0
 24 25  2  0
 25 26  1  0
 26 27  1  0
 26 28  1  0
 26 29  1  0
 25 30  1  0
 30 31  2  0
 31 32  1  0
 32 33  2  0
 12  7  1  0
 19 14  1  0
 33 20  1  0
 32 23  1  0
  3 34  1  0
  4 35  1  0
  4 36  1  0
  8 37  1  0
  8 38  1  0
  9 39  1  0
  9 40  1  0
 10 41  1  0
 10 42  1  0
 11 43  1  0
 11 44  1  0
 12 45  1  6
 13 46  1  0
 13 47  1  0
 15 48  1  0
 16 49  1  0
 17 50  1  0
 18 51  1  0
 19 52  1  0
 21 53  1  0
 22 54  1  0
 24 55  1  0
 30 56  1  0
 31 57  1  0
M  END
>  <smiles>  (71) 
O=C(NCC(=O)N1CCCCC1Cc1ccccc1)c1ccc2cc(C(F)(F)F)ccc2n1

>  <score_type>  (71) 
oracle

>  <origin>  (71) 
autodockgpu

>  <m_score__min__energy>  (71) 
-8.4199999999999999

>  <m_primary>  (71) 
energy

>  <rmsd>  (71) 
2.939575047516027

>  <m_score__min__rmsd>  (71) 
2.939575047516027

>  <meeko>  (71) 
{"free_energy": -7.7, "intermolecular_energy": -9.79, "internal_energy": -2.28, "cluster_size": 11, "cluster_id": 1, "rank_in_cluster": 9}

>  <energy>  (71) 
-7.92

>  <cluster_rmsd>  (71) 
1.68

>  <cluster>  (71) 
2

$$$$

     RDKit          3D

 57 60  0  0  0  0  0  0  0  0999 V2000
  139.9550   74.4740  222.0080 O   0  0  0  0  0  0  0  0  0  0  0  0
  139.5860   73.2860  221.7500 C   0  0  0  0  0  0  0  0  0  0  0  0
  139.1770   73.0400  220.4100 N   0  0  0  0  0  0  0  0  0  0  0  0
  139.2170   74.1430  219.4850 C   0  0  0  0  0  0  0  0  0  0  0  0
  140.5700   74.3540  218.9170 C   0  0  0  0  0  0  0  0  0  0  0  0
  140.6430   74.4820  217.6640 O   0  0  0  0  0  0  0  0  0  0  0  0
  141.6790   74.4010  219.7870 N   0  0  0  0  0  0  0  0  0  0  0  0
  142.3520   73.1620  220.2090 C   0  0  0  0  0  0  0  0  0  0  0  0
  143.7980   73.1810  219.7760 C   0  0  0  0  0  0  0  0  0  0  0  0
  144.4760   74.4840  220.0670 C   0  0  0  0  0  0  0  0  0  0  0  0
  143.6620   75.7080  219.8330 C   0  0  0  0  0  0  0  0  0  0  0  0
  142.2400   75.6250  220.3270 C   0  0  1  0  0  0  0  0  0  0  0  0
  141.5080   76.8630  219.9410 C   0  0  0  0  0  0  0  0  0  0  0  0
  141.2450   77.6770  221.1770 C   0  0  0  0  0  0  0  0  0  0  0  0
  142.1500   78.6440  221.5970 C   0  0  0  0  0  0  0  0  0  0  0  0
  141.9470   79.4110  222.7260 C   0  0  0  0  0  0  0  0  0  0  0  0
  140.8060   79.2270  223.4800 C   0  0  0  0  0  0  0  0  0  0  0  0
  139.8950   78.2650  223.0720 C   0  0  0  0  0  0  0  0  0  0  0  0
  140.1140   77.5080  221.9420 C   0  0  0  0  0  0  0  0  0  0  0  0
  139.5840   72.2410  222.7640 C   0  0  0  0  0  0  0  0  0  0  0  0
  138.7360   71.1690  222.5830 C   0  0  0  0  0  0  0  0  0  0  0  0
  138.6560   70.1290  223.4800 C   0  0  0  0  0  0  0  0  0  0  0  0
  139.4530   70.1720  224.5880 C   0  0  0  0  0  0  0  0  0  0  0  0
  139.3930   69.1420  225.5030 C   0  0  0  0  0  0  0  0  0  0  0  0
  140.1960   69.1870  226.6190 C   0  0  0  0  0  0  0  0  0  0  0  0
  140.1150   68.0630  227.5930 C   0  0  0  0  0  0  0  0  0  0  0  0
  139.8810   68.5240  228.8770 F   0  0  0  0  0  0  0  0  0  0  0  0
  141.3450   67.3940  227.5680 F   0  0  0  0  0  0  0  0  0  0  0  0
  139.1640   67.1670  227.1760 F   0  0  0  0  0  0  0  0  0  0  0  0
  141.0630   70.2660  226.8200 C   0  0  0  0  0  0  0  0  0  0  0  0
  141.1150   71.3040  225.8860 C   0  0  0  0  0  0  0  0  0  0  0  0
  140.3120   71.2620  224.7660 C   0  0  0  0  0  0  0  0  0  0  0  0
  140.3620   72.2680  223.8600 N   0  0  0  0  0  0  0  0  0  0  0  0
  138.8580   72.0830  220.1170 H   0  0  0  0  0  0  0  0  0  0  0  0
  138.5159   73.9398  218.6621 H   0  0  0  0  0  0  0  0  0  0  0  0
  138.9382   75.0535  220.0357 H   0  0  0  0  0  0  0  0  0  0  0  0
  142.3018   73.0762  221.3045 H   0  0  0  0  0  0  0  0  0  0  0  0
  141.8485   72.3029  219.7417 H   0  0  0  0  0  0  0  0  0  0  0  0
  144.3339   72.3802  220.3066 H   0  0  0  0  0  0  0  0  0  0  0  0
  143.8183   73.0344  218.6860 H   0  0  0  0  0  0  0  0  0  0  0  0
  144.7783   74.4776  221.1246 H   0  0  0  0  0  0  0  0  0  0  0  0
  145.3163   74.5462  219.3599 H   0  0  0  0  0  0  0  0  0  0  0  0
  144.1535   76.5488  220.3443 H   0  0  0  0  0  0  0  0  0  0  0  0
  143.6040   75.8378  218.7422 H   0  0  0  0  0  0  0  0  0  0  0  0
  142.1658   75.5762  221.4234 H   0  0  0  0  0  0  0  0  0  0  0  0
  142.1172   77.4478  219.2361 H   0  0  0  0  0  0  0  0  0  0  0  0
  140.5554   76.5983  219.4587 H   0  0  0  0  0  0  0  0  0  0  0  0
  143.0640   78.8044  221.0064 H   0  0  0  0  0  0  0  0  0  0  0  0
  142.6907   80.1650  223.0233 H   0  0  0  0  0  0  0  0  0  0  0  0
  140.6238   79.8288  224.3825 H   0  0  0  0  0  0  0  0  0  0  0  0
  138.9804   78.1031  223.6614 H   0  0  0  0  0  0  0  0  0  0  0  0
  139.3702   76.7538  221.6456 H   0  0  0  0  0  0  0  0  0  0  0  0
  138.0988   71.1444  221.6867 H   0  0  0  0  0  0  0  0  0  0  0  0
  137.9695   69.2866  223.3095 H   0  0  0  0  0  0  0  0  0  0  0  0
  138.7109   68.2942  225.3423 H   0  0  0  0  0  0  0  0  0  0  0  0
  141.7040   70.2974  227.7134 H   0  0  0  0  0  0  0  0  0  0  0  0
  141.7957   72.1535  226.0441 H   0  0  0  0  0  0  0  0  0  0  0  0
  1  2  2  0
  2  3  1  0
  3  4  1  0
  4  5  1  0
  5  6  2  0
  5  7  1  0
  7  8  1  0
  8  9  1  0
  9 10  1  0
 10 11  1  0
 11 12  1  0
 12 13  1  0
 13 14  1  0
 14 15  2  0
 15 16  1  0
 16 17  2  0
 17 18  1  0
 18 19  2  0
  2 20  1  0
 20 21  2  0
 21 22  1  0
 22 23  2  0
 23 24  1  0
 24 25  2  0
 25 26  1  0
 26 27  1  0
 26 28  1  0
 26 29  1  0
 25 30  1  0
 30 31  2  0
 31 32  1  0
 32 33  2  0
 12  7  1  0
 19 14  1  0
 33 20  1  0
 32 23  1  0
  3 34  1  0
  4 35  1  0
  4 36  1  0
  8 37  1  0
  8 38  1  0
  9 39  1  0
  9 40  1  0
 10 41  1  0
 10 42  1  0
 11 43  1  0
 11 44  1  0
 12 45  1  1
 13 46  1  0
 13 47  1  0
 15 48  1  0
 16 49  1  0
 17 50  1  0
 18 51  1  0
 19 52  1  0
 21 53  1  0
 22 54  1  0
 24 55  1  0
 30 56  1  0
 31 57  1  0
M  END
>  <smiles>  (72) 
O=C(NCC(=O)N1CCCCC1Cc1ccccc1)c1ccc2cc(C(F)(F)F)ccc2n1

>  <score_type>  (72) 
oracle

>  <origin>  (72) 
autodockgpu

>  <m_score__min__energy>  (72) 
-8.4199999999999999

>  <m_primary>  (72) 
energy

>  <rmsd>  (72) 
2.784270044572178

>  <m_score__min__rmsd>  (72) 
2.784270044572178

>  <meeko>  (72) 
{"free_energy": -7.79, "intermolecular_energy": -9.88, "internal_energy": -1.96, "cluster_size": 11, "cluster_id": 1, "rank_in_cluster": 8}

>  <energy>  (72) 
-7.91

>  <cluster_rmsd>  (72) 
1.7

>  <cluster>  (72) 
2

$$$$

     RDKit          3D

 57 60  0  0  0  0  0  0  0  0999 V2000
  139.2940   71.6690  220.6860 O   0  0  0  0  0  0  0  0  0  0  0  0
  139.1850   72.1680  221.8490 C   0  0  0  0  0  0  0  0  0  0  0  0
  138.7640   73.5260  221.9050 N   0  0  0  0  0  0  0  0  0  0  0  0
  138.5070   74.1980  220.6580 C   0  0  0  0  0  0  0  0  0  0  0  0
  139.2920   75.4480  220.5180 C   0  0  0  0  0  0  0  0  0  0  0  0
  138.6490   76.4860  220.2020 O   0  0  0  0  0  0  0  0  0  0  0  0
  140.6840   75.4120  220.7420 N   0  0  0  0  0  0  0  0  0  0  0  0
  141.4010   74.1270  220.7870 C   0  0  0  0  0  0  0  0  0  0  0  0
  142.4550   74.0810  219.7080 C   0  0  0  0  0  0  0  0  0  0  0  0
  143.2670   75.3370  219.6330 C   0  0  0  0  0  0  0  0  0  0  0  0
  142.5170   76.6090  219.8200 C   0  0  0  0  0  0  0  0  0  0  0  0
  141.5080   76.5890  220.9420 C   0  0  1  0  0  0  0  0  0  0  0  0
  140.7570   77.8740  220.9570 C   0  0  0  0  0  0  0  0  0  0  0  0
  141.3830   78.7910  221.9700 C   0  0  0  0  0  0  0  0  0  0  0  0
  141.9530   79.9970  221.5810 C   0  0  0  0  0  0  0  0  0  0  0  0
  142.5390   80.8660  222.4780 C   0  0  0  0  0  0  0  0  0  0  0  0
  142.5700   80.5420  223.8190 C   0  0  0  0  0  0  0  0  0  0  0  0
  142.0060   79.3420  224.2210 C   0  0  0  0  0  0  0  0  0  0  0  0
  141.4260   78.4860  223.3110 C   0  0  0  0  0  0  0  0  0  0  0  0
  139.4700   71.3960  223.0500 C   0  0  0  0  0  0  0  0  0  0  0  0
  139.0820   70.0740  223.0750 C   0  0  0  0  0  0  0  0  0  0  0  0
  139.3030   69.2570  224.1590 C   0  0  0  0  0  0  0  0  0  0  0  0
  139.9340   69.7900  225.2480 C   0  0  0  0  0  0  0  0  0  0  0  0
  140.1690   68.9920  226.3480 C   0  0  0  0  0  0  0  0  0  0  0  0
  140.8040   69.5300  227.4440 C   0  0  0  0  0  0  0  0  0  0  0  0
  141.0480   68.6510  228.6210 C   0  0  0  0  0  0  0  0  0  0  0  0
  139.9360   68.5910  229.4440 F   0  0  0  0  0  0  0  0  0  0  0  0
  142.1170   69.1980  229.3410 F   0  0  0  0  0  0  0  0  0  0  0  0
  141.4500   67.4130  228.1890 F   0  0  0  0  0  0  0  0  0  0  0  0
  141.2070   70.8700  227.4370 C   0  0  0  0  0  0  0  0  0  0  0  0
  140.9630   71.6680  226.3160 C   0  0  0  0  0  0  0  0  0  0  0  0
  140.3270   71.1320  225.2160 C   0  0  0  0  0  0  0  0  0  0  0  0
  140.0900   71.9050  224.1290 N   0  0  0  0  0  0  0  0  0  0  0  0
  138.6490   74.0100  222.8290 H   0  0  0  0  0  0  0  0  0  0  0  0
  138.7695   73.5214  219.8313 H   0  0  0  0  0  0  0  0  0  0  0  0
  137.4406   74.4670  220.6352 H   0  0  0  0  0  0  0  0  0  0  0  0
  141.8818   74.0133  221.7698 H   0  0  0  0  0  0  0  0  0  0  0  0
  140.6835   73.3094  220.6234 H   0  0  0  0  0  0  0  0  0  0  0  0
  143.1309   73.2378  219.9132 H   0  0  0  0  0  0  0  0  0  0  0  0
  141.9366   73.9649  218.7448 H   0  0  0  0  0  0  0  0  0  0  0  0
  144.0412   75.2847  220.4126 H   0  0  0  0  0  0  0  0  0  0  0  0
  143.6638   75.3738  218.6077 H   0  0  0  0  0  0  0  0  0  0  0  0
  143.2442   77.4078  220.0278 H   0  0  0  0  0  0  0  0  0  0  0  0
  141.9469   76.7717  218.8934 H   0  0  0  0  0  0  0  0  0  0  0  0
  141.9696   76.5145  221.9377 H   0  0  0  0  0  0  0  0  0  0  0  0
  140.8006   78.3390  219.9611 H   0  0  0  0  0  0  0  0  0  0  0  0
  139.7055   77.6885  221.2213 H   0  0  0  0  0  0  0  0  0  0  0  0
  141.9363   80.2697  220.5155 H   0  0  0  0  0  0  0  0  0  0  0  0
  142.9787   81.8111  222.1265 H   0  0  0  0  0  0  0  0  0  0  0  0
  143.0316   81.2204  224.5516 H   0  0  0  0  0  0  0  0  0  0  0  0
  142.0217   79.0679  225.2862 H   0  0  0  0  0  0  0  0  0  0  0  0
  140.9887   77.5401  223.6632 H   0  0  0  0  0  0  0  0  0  0  0  0
  138.5754   69.6555  222.1928 H   0  0  0  0  0  0  0  0  0  0  0  0
  138.9813   68.2051  224.1499 H   0  0  0  0  0  0  0  0  0  0  0  0
  139.8528   67.9384  226.3493 H   0  0  0  0  0  0  0  0  0  0  0  0
  141.7161   71.2955  228.3143 H   0  0  0  0  0  0  0  0  0  0  0  0
  141.2777   72.7220  226.3110 H   0  0  0  0  0  0  0  0  0  0  0  0
  1  2  2  0
  2  3  1  0
  3  4  1  0
  4  5  1  0
  5  6  2  0
  5  7  1  0
  7  8  1  0
  8  9  1  0
  9 10  1  0
 10 11  1  0
 11 12  1  0
 12 13  1  0
 13 14  1  0
 14 15  2  0
 15 16  1  0
 16 17  2  0
 17 18  1  0
 18 19  2  0
  2 20  1  0
 20 21  2  0
 21 22  1  0
 22 23  2  0
 23 24  1  0
 24 25  2  0
 25 26  1  0
 26 27  1  0
 26 28  1  0
 26 29  1  0
 25 30  1  0
 30 31  2  0
 31 32  1  0
 32 33  2  0
 12  7  1  0
 19 14  1  0
 33 20  1  0
 32 23  1  0
  3 34  1  0
  4 35  1  0
  4 36  1  0
  8 37  1  0
  8 38  1  0
  9 39  1  0
  9 40  1  0
 10 41  1  0
 10 42  1  0
 11 43  1  0
 11 44  1  0
 12 45  1  1
 13 46  1  0
 13 47  1  0
 15 48  1  0
 16 49  1  0
 17 50  1  0
 18 51  1  0
 19 52  1  0
 21 53  1  0
 22 54  1  0
 24 55  1  0
 30 56  1  0
 31 57  1  0
M  END
>  <smiles>  (73) 
O=C(NCC(=O)N1CCCCC1Cc1ccccc1)c1ccc2cc(C(F)(F)F)ccc2n1

>  <score_type>  (73) 
oracle

>  <origin>  (73) 
autodockgpu

>  <m_score__min__energy>  (73) 
-8.4199999999999999

>  <m_primary>  (73) 
energy

>  <rmsd>  (73) 
2.0246688599768206

>  <m_score__min__rmsd>  (73) 
2.0246688599768206

>  <meeko>  (73) 
{"free_energy": -8.42, "intermolecular_energy": -10.51, "internal_energy": -1.43, "cluster_size": 11, "cluster_id": 1, "rank_in_cluster": 1}

>  <energy>  (73) 
-7.91

>  <cluster_rmsd>  (73) 
1.71

>  <cluster>  (73) 
2

$$$$

     RDKit          3D

 57 60  0  0  0  0  0  0  0  0999 V2000
  137.4100   73.6150  220.2690 O   0  0  0  0  0  0  0  0  0  0  0  0
  137.8150   73.8610  221.4480 C   0  0  0  0  0  0  0  0  0  0  0  0
  137.3850   72.9520  222.4540 N   0  0  0  0  0  0  0  0  0  0  0  0
  136.5430   71.8560  222.0480 C   0  0  0  0  0  0  0  0  0  0  0  0
  137.1650   70.5370  222.3190 C   0  0  0  0  0  0  0  0  0  0  0  0
  136.3770   69.5710  222.5120 O   0  0  0  0  0  0  0  0  0  0  0  0
  138.5710   70.4350  222.3450 N   0  0  0  0  0  0  0  0  0  0  0  0
  139.3460   70.4610  221.0940 C   0  0  0  0  0  0  0  0  0  0  0  0
  140.3040   71.6280  221.1000 C   0  0  0  0  0  0  0  0  0  0  0  0
  141.0480   71.7650  222.3920 C   0  0  0  0  0  0  0  0  0  0  0  0
  140.2610   71.5040  223.6280 C   0  0  0  0  0  0  0  0  0  0  0  0
  139.3560   70.2990  223.5580 C   0  0  1  0  0  0  0  0  0  0  0  0
  138.5520   70.2100  224.8080 C   0  0  0  0  0  0  0  0  0  0  0  0
  139.4190   69.6610  225.9060 C   0  0  0  0  0  0  0  0  0  0  0  0
  139.9950   70.5070  226.8470 C   0  0  0  0  0  0  0  0  0  0  0  0
  140.7980   70.0440  227.8680 C   0  0  0  0  0  0  0  0  0  0  0  0
  141.0520   68.6920  227.9770 C   0  0  0  0  0  0  0  0  0  0  0  0
  140.4850   67.8380  227.0450 C   0  0  0  0  0  0  0  0  0  0  0  0
  139.6850   68.3180  226.0310 C   0  0  0  0  0  0  0  0  0  0  0  0
  138.6670   75.0020  221.7500 C   0  0  0  0  0  0  0  0  0  0  0  0
  140.0200   74.8750  221.5210 C   0  0  0  0  0  0  0  0  0  0  0  0
  140.9130   75.8910  221.7720 C   0  0  0  0  0  0  0  0  0  0  0  0
  140.4260   77.0680  222.2670 C   0  0  0  0  0  0  0  0  0  0  0  0
  141.2990   78.1030  222.5280 C   0  0  0  0  0  0  0  0  0  0  0  0
  140.8070   79.2870  223.0260 C   0  0  0  0  0  0  0  0  0  0  0  0
  141.7680   80.3910  223.3000 C   0  0  0  0  0  0  0  0  0  0  0  0
  142.7570   79.9930  224.1830 F   0  0  0  0  0  0  0  0  0  0  0  0
  141.0460   81.4450  223.8730 F   0  0  0  0  0  0  0  0  0  0  0  0
  142.2780   80.8550  222.1140 F   0  0  0  0  0  0  0  0  0  0  0  0
  139.4370   79.4350  223.2650 C   0  0  0  0  0  0  0  0  0  0  0  0
  138.5620   78.3790  222.9970 C   0  0  0  0  0  0  0  0  0  0  0  0
  139.0520   77.1910  222.4970 C   0  0  0  0  0  0  0  0  0  0  0  0
  138.2040   76.1660  222.2370 N   0  0  0  0  0  0  0  0  0  0  0  0
  137.6770   73.0860  223.4530 H   0  0  0  0  0  0  0  0  0  0  0  0
  135.5921   71.9182  222.5976 H   0  0  0  0  0  0  0  0  0  0  0  0
  136.3860   71.9370  220.9623 H   0  0  0  0  0  0  0  0  0  0  0  0
  139.9147   69.5242  220.9990 H   0  0  0  0  0  0  0  0  0  0  0  0
  138.6548   70.5676  220.2450 H   0  0  0  0  0  0  0  0  0  0  0  0
  141.0331   71.4876  220.2884 H   0  0  0  0  0  0  0  0  0  0  0  0
  139.7097   72.5434  220.9629 H   0  0  0  0  0  0  0  0  0  0  0  0
  141.8894   71.0567  222.3727 H   0  0  0  0  0  0  0  0  0  0  0  0
  141.3504   72.8210  222.4500 H   0  0  0  0  0  0  0  0  0  0  0  0
  140.9670   71.3542  224.4582 H   0  0  0  0  0  0  0  0  0  0  0  0
  139.6056   72.3763  223.7683 H   0  0  0  0  0  0  0  0  0  0  0  0
  139.9055   69.3478  223.5008 H   0  0  0  0  0  0  0  0  0  0  0  0
  138.1918   71.2111  225.0875 H   0  0  0  0  0  0  0  0  0  0  0  0
  137.6878   69.5482  224.6491 H   0  0  0  0  0  0  0  0  0  0  0  0
  139.8027   71.5876  226.7743 H   0  0  0  0  0  0  0  0  0  0  0  0
  141.2337   70.7486  228.5916 H   0  0  0  0  0  0  0  0  0  0  0  0
  141.6892   68.3018  228.7843 H   0  0  0  0  0  0  0  0  0  0  0  0
  140.6770   66.7572  227.1158 H   0  0  0  0  0  0  0  0  0  0  0  0
  139.2506   67.6127  225.3072 H   0  0  0  0  0  0  0  0  0  0  0  0
  140.4011   73.9235  221.1217 H   0  0  0  0  0  0  0  0  0  0  0  0
  141.9881   75.7597  221.5798 H   0  0  0  0  0  0  0  0  0  0  0  0
  142.3762   77.9832  222.3402 H   0  0  0  0  0  0  0  0  0  0  0  0
  139.0480   80.3833  223.6642 H   0  0  0  0  0  0  0  0  0  0  0  0
  137.4843   78.4952  223.1845 H   0  0  0  0  0  0  0  0  0  0  0  0
  1  2  2  0
  2  3  1  0
  3  4  1  0
  4  5  1  0
  5  6  2  0
  5  7  1  0
  7  8  1  0
  8  9  1  0
  9 10  1  0
 10 11  1  0
 11 12  1  0
 12 13  1  0
 13 14  1  0
 14 15  2  0
 15 16  1  0
 16 17  2  0
 17 18  1  0
 18 19  2  0
  2 20  1  0
 20 21  2  0
 21 22  1  0
 22 23  2  0
 23 24  1  0
 24 25  2  0
 25 26  1  0
 26 27  1  0
 26 28  1  0
 26 29  1  0
 25 30  1  0
 30 31  2  0
 31 32  1  0
 32 33  2  0
 12  7  1  0
 19 14  1  0
 33 20  1  0
 32 23  1  0
  3 34  1  0
  4 35  1  0
  4 36  1  0
  8 37  1  0
  8 38  1  0
  9 39  1  0
  9 40  1  0
 10 41  1  0
 10 42  1  0
 11 43  1  0
 11 44  1  0
 12 45  1  6
 13 46  1  0
 13 47  1  0
 15 48  1  0
 16 49  1  0
 17 50  1  0
 18 51  1  0
 19 52  1  0
 21 53  1  0
 22 54  1  0
 24 55  1  0
 30 56  1  0
 31 57  1  0
M  END
>  <smiles>  (74) 
O=C(NCC(=O)N1CCCCC1Cc1ccccc1)c1ccc2cc(C(F)(F)F)ccc2n1

>  <score_type>  (74) 
oracle

>  <origin>  (74) 
autodockgpu

>  <m_score__min__energy>  (74) 
-8.4199999999999999

>  <m_primary>  (74) 
energy

>  <rmsd>  (74) 
7.208538501266152

>  <m_score__min__rmsd>  (74) 
7.208538501266152

>  <meeko>  (74) 
{"free_energy": -7.75, "intermolecular_energy": -9.84, "internal_energy": -2.1, "cluster_size": 38, "cluster_id": 2, "rank_in_cluster": 32}

>  <energy>  (74) 
-7.9

>  <cluster_rmsd>  (74) 
1.72

>  <cluster>  (74) 
2

$$$$

     RDKit          3D

 57 60  0  0  0  0  0  0  0  0999 V2000
  136.5050   73.2380  220.7480 O   0  0  0  0  0  0  0  0  0  0  0  0
  137.0230   73.5030  221.8770 C   0  0  0  0  0  0  0  0  0  0  0  0
  136.9360   72.4760  222.8580 N   0  0  0  0  0  0  0  0  0  0  0  0
  136.2780   71.2500  222.4840 C   0  0  0  0  0  0  0  0  0  0  0  0
  137.1750   70.0740  222.5890 C   0  0  0  0  0  0  0  0  0  0  0  0
  136.6250   68.9400  222.5530 O   0  0  0  0  0  0  0  0  0  0  0  0
  138.5640   70.2810  222.7180 N   0  0  0  0  0  0  0  0  0  0  0  0
  139.3750   70.6640  221.5510 C   0  0  0  0  0  0  0  0  0  0  0  0
  140.0370   71.9990  221.7940 C   0  0  0  0  0  0  0  0  0  0  0  0
  140.6640   72.1010  223.1500 C   0  0  0  0  0  0  0  0  0  0  0  0
  139.8950   71.4910  224.2700 C   0  0  0  0  0  0  0  0  0  0  0  0
  139.2960   70.1420  223.9630 C   0  0  1  0  0  0  0  0  0  0  0  0
  138.4710   69.6910  225.1180 C   0  0  0  0  0  0  0  0  0  0  0  0
  139.3830   69.1600  226.1880 C   0  0  0  0  0  0  0  0  0  0  0  0
  140.0800   67.9720  226.0040 C   0  0  0  0  0  0  0  0  0  0  0  0
  140.9240   67.4500  226.9610 C   0  0  0  0  0  0  0  0  0  0  0  0
  141.0980   68.1180  228.1560 C   0  0  0  0  0  0  0  0  0  0  0  0
  140.4080   69.3040  228.3530 C   0  0  0  0  0  0  0  0  0  0  0  0
  139.5690   69.8110  227.3860 C   0  0  0  0  0  0  0  0  0  0  0  0
  137.6670   74.7800  222.1500 C   0  0  0  0  0  0  0  0  0  0  0  0
  136.8770   75.8210  222.5880 C   0  0  0  0  0  0  0  0  0  0  0  0
  137.3840   77.0670  222.8750 C   0  0  0  0  0  0  0  0  0  0  0  0
  138.7260   77.2680  222.7140 C   0  0  0  0  0  0  0  0  0  0  0  0
  139.2600   78.5080  222.9940 C   0  0  0  0  0  0  0  0  0  0  0  0
  140.6120   78.7090  222.8310 C   0  0  0  0  0  0  0  0  0  0  0  0
  141.1680   80.0560  223.1400 C   0  0  0  0  0  0  0  0  0  0  0  0
  141.8610   80.5750  222.0600 F   0  0  0  0  0  0  0  0  0  0  0  0
  142.0500   79.9100  224.2180 F   0  0  0  0  0  0  0  0  0  0  0  0
  140.1550   80.8800  223.5610 F   0  0  0  0  0  0  0  0  0  0  0  0
  141.4310   77.6650  222.3870 C   0  0  0  0  0  0  0  0  0  0  0  0
  140.8770   76.4130  222.1070 C   0  0  0  0  0  0  0  0  0  0  0  0
  139.5230   76.2080  222.2690 C   0  0  0  0  0  0  0  0  0  0  0  0
  138.9860   74.9940  221.9970 N   0  0  0  0  0  0  0  0  0  0  0  0
  137.3400   72.6190  223.8150 H   0  0  0  0  0  0  0  0  0  0  0  0
  135.4140   71.0959  223.1471 H   0  0  0  0  0  0  0  0  0  0  0  0
  135.9670   71.3426  221.4330 H   0  0  0  0  0  0  0  0  0  0  0  0
  140.1481   69.9006  221.3790 H   0  0  0  0  0  0  0  0  0  0  0  0
  138.7222   70.7414  220.6690 H   0  0  0  0  0  0  0  0  0  0  0  0
  140.8185   72.1466  221.0341 H   0  0  0  0  0  0  0  0  0  0  0  0
  139.2554   72.7706  221.7332 H   0  0  0  0  0  0  0  0  0  0  0  0
  141.6451   71.6056  223.1057 H   0  0  0  0  0  0  0  0  0  0  0  0
  140.7140   73.1767  223.3745 H   0  0  0  0  0  0  0  0  0  0  0  0
  140.5729   71.3773  225.1288 H   0  0  0  0  0  0  0  0  0  0  0  0
  139.0507   72.1669  224.4709 H   0  0  0  0  0  0  0  0  0  0  0  0
  140.0522   69.3553  223.8245 H   0  0  0  0  0  0  0  0  0  0  0  0
  137.8929   70.5395  225.5128 H   0  0  0  0  0  0  0  0  0  0  0  0
  137.7758   68.9022  224.7948 H   0  0  0  0  0  0  0  0  0  0  0  0
  139.9533   67.4265  225.0572 H   0  0  0  0  0  0  0  0  0  0  0  0
  141.4561   66.5058  226.7730 H   0  0  0  0  0  0  0  0  0  0  0  0
  141.7674   67.7194  228.9326 H   0  0  0  0  0  0  0  0  0  0  0  0
  140.5330   69.8503  229.2995 H   0  0  0  0  0  0  0  0  0  0  0  0
  139.0369   70.7550  227.5749 H   0  0  0  0  0  0  0  0  0  0  0  0
  135.7978   75.6485  222.7131 H   0  0  0  0  0  0  0  0  0  0  0  0
  136.7281   77.8782  223.2240 H   0  0  0  0  0  0  0  0  0  0  0  0
  138.6136   79.3266  223.3434 H   0  0  0  0  0  0  0  0  0  0  0  0
  142.5110   77.8298  222.2583 H   0  0  0  0  0  0  0  0  0  0  0  0
  141.5203   75.5919  221.7577 H   0  0  0  0  0  0  0  0  0  0  0  0
  1  2  2  0
  2  3  1  0
  3  4  1  0
  4  5  1  0
  5  6  2  0
  5  7  1  0
  7  8  1  0
  8  9  1  0
  9 10  1  0
 10 11  1  0
 11 12  1  0
 12 13  1  0
 13 14  1  0
 14 15  2  0
 15 16  1  0
 16 17  2  0
 17 18  1  0
 18 19  2  0
  2 20  1  0
 20 21  2  0
 21 22  1  0
 22 23  2  0
 23 24  1  0
 24 25  2  0
 25 26  1  0
 26 27  1  0
 26 28  1  0
 26 29  1  0
 25 30  1  0
 30 31  2  0
 31 32  1  0
 32 33  2  0
 12  7  1  0
 19 14  1  0
 33 20  1  0
 32 23  1  0
  3 34  1  0
  4 35  1  0
  4 36  1  0
  8 37  1  0
  8 38  1  0
  9 39  1  0
  9 40  1  0
 10 41  1  0
 10 42  1  0
 11 43  1  0
 11 44  1  0
 12 45  1  6
 13 46  1  0
 13 47  1  0
 15 48  1  0
 16 49  1  0
 17 50  1  0
 18 51  1  0
 19 52  1  0
 21 53  1  0
 22 54  1  0
 24 55  1  0
 30 56  1  0
 31 57  1  0
M  END
>  <smiles>  (75) 
O=C(NCC(=O)N1CCCCC1Cc1ccccc1)c1ccc2cc(C(F)(F)F)ccc2n1

>  <score_type>  (75) 
oracle

>  <origin>  (75) 
autodockgpu

>  <m_score__min__energy>  (75) 
-8.4199999999999999

>  <m_primary>  (75) 
energy

>  <rmsd>  (75) 
7.319545845295237

>  <m_score__min__rmsd>  (75) 
7.319545845295237

>  <meeko>  (75) 
{"free_energy": -7.64, "intermolecular_energy": -9.72, "internal_energy": -2.17, "cluster_size": 38, "cluster_id": 2, "rank_in_cluster": 37}

>  <energy>  (75) 
-7.9

>  <cluster_rmsd>  (75) 
0.96

>  <cluster>  (75) 
2

$$$$

     RDKit          3D

 57 60  0  0  0  0  0  0  0  0999 V2000
  138.2950   73.5290  219.8870 O   0  0  0  0  0  0  0  0  0  0  0  0
  138.4360   73.9770  221.0670 C   0  0  0  0  0  0  0  0  0  0  0  0
  137.7490   73.2640  222.0890 N   0  0  0  0  0  0  0  0  0  0  0  0
  136.9700   72.1180  221.6950 C   0  0  0  0  0  0  0  0  0  0  0  0
  137.6270   70.8380  222.0530 C   0  0  0  0  0  0  0  0  0  0  0  0
  136.8660   69.8660  222.3100 O   0  0  0  0  0  0  0  0  0  0  0  0
  139.0350   70.7770  222.0860 N   0  0  0  0  0  0  0  0  0  0  0  0
  139.8020   70.5250  220.8540 C   0  0  0  0  0  0  0  0  0  0  0  0
  140.7300   71.6830  220.5740 C   0  0  0  0  0  0  0  0  0  0  0  0
  141.4790   72.1360  221.7880 C   0  0  0  0  0  0  0  0  0  0  0  0
  140.7060   72.1560  223.0610 C   0  0  0  0  0  0  0  0  0  0  0  0
  139.8310   70.9480  223.2870 C   0  0  1  0  0  0  0  0  0  0  0  0
  139.0370   71.1380  224.5320 C   0  0  0  0  0  0  0  0  0  0  0  0
  139.7560   70.4720  225.6720 C   0  0  0  0  0  0  0  0  0  0  0  0
  139.7360   69.0900  225.8150 C   0  0  0  0  0  0  0  0  0  0  0  0
  140.3800   68.4410  226.8480 C   0  0  0  0  0  0  0  0  0  0  0  0
  141.0780   69.1750  227.7850 C   0  0  0  0  0  0  0  0  0  0  0  0
  141.1060   70.5550  227.6550 C   0  0  0  0  0  0  0  0  0  0  0  0
  140.4560   71.1860  226.6170 C   0  0  0  0  0  0  0  0  0  0  0  0
  139.2510   75.1480  221.3570 C   0  0  0  0  0  0  0  0  0  0  0  0
  140.5260   75.1930  220.8340 C   0  0  0  0  0  0  0  0  0  0  0  0
  141.3780   76.2510  221.0460 C   0  0  0  0  0  0  0  0  0  0  0  0
  140.9310   77.2940  221.8080 C   0  0  0  0  0  0  0  0  0  0  0  0
  141.7650   78.3680  222.0360 C   0  0  0  0  0  0  0  0  0  0  0  0
  141.3130   79.4180  222.8030 C   0  0  0  0  0  0  0  0  0  0  0  0
  142.2300   80.5670  223.0370 C   0  0  0  0  0  0  0  0  0  0  0  0
  142.1950   81.4630  221.9820 F   0  0  0  0  0  0  0  0  0  0  0  0
  143.5280   80.0530  223.1520 F   0  0  0  0  0  0  0  0  0  0  0  0
  141.9260   81.1570  224.2370 F   0  0  0  0  0  0  0  0  0  0  0  0
  140.0220   79.3910  223.3430 C   0  0  0  0  0  0  0  0  0  0  0  0
  139.1870   78.2970  223.1040 C   0  0  0  0  0  0  0  0  0  0  0  0
  139.6360   77.2440  222.3350 C   0  0  0  0  0  0  0  0  0  0  0  0
  138.8270   76.1820  222.1040 N   0  0  0  0  0  0  0  0  0  0  0  0
  137.8150   73.5710  223.0900 H   0  0  0  0  0  0  0  0  0  0  0  0
  135.9924   72.1658  222.1970 H   0  0  0  0  0  0  0  0  0  0  0  0
  136.8628   72.1454  220.6006 H   0  0  0  0  0  0  0  0  0  0  0  0
  140.3938   69.6058  220.9756 H   0  0  0  0  0  0  0  0  0  0  0  0
  139.1034   70.4120  220.0119 H   0  0  0  0  0  0  0  0  0  0  0  0
  141.4567   71.3732  219.8086 H   0  0  0  0  0  0  0  0  0  0  0  0
  140.1116   72.5267  220.2338 H   0  0  0  0  0  0  0  0  0  0  0  0
  142.3370   71.4615  221.9255 H   0  0  0  0  0  0  0  0  0  0  0  0
  141.7566   73.1823  221.5925 H   0  0  0  0  0  0  0  0  0  0  0  0
  141.4206   72.2221  223.8946 H   0  0  0  0  0  0  0  0  0  0  0  0
  140.0302   73.0218  223.0002 H   0  0  0  0  0  0  0  0  0  0  0  0
  140.4039   70.0229  223.4483 H   0  0  0  0  0  0  0  0  0  0  0  0
  138.9284   72.2125  224.7408 H   0  0  0  0  0  0  0  0  0  0  0  0
  138.0383   70.6936  224.4096 H   0  0  0  0  0  0  0  0  0  0  0  0
  139.1851   68.4900  225.0757 H   0  0  0  0  0  0  0  0  0  0  0  0
  140.3373   67.3445  226.9243 H   0  0  0  0  0  0  0  0  0  0  0  0
  141.5999   68.6770  228.6155 H   0  0  0  0  0  0  0  0  0  0  0  0
  141.6566   71.1564  228.3933 H   0  0  0  0  0  0  0  0  0  0  0  0
  140.4975   72.2827  226.5423 H   0  0  0  0  0  0  0  0  0  0  0  0
  140.8756   74.3482  220.2224 H   0  0  0  0  0  0  0  0  0  0  0  0
  142.3900   76.2579  220.6149 H   0  0  0  0  0  0  0  0  0  0  0  0
  142.7791   78.3856  221.6102 H   0  0  0  0  0  0  0  0  0  0  0  0
  139.6648   80.2317  223.9559 H   0  0  0  0  0  0  0  0  0  0  0  0
  138.1725   78.2754  223.5287 H   0  0  0  0  0  0  0  0  0  0  0  0
  1  2  2  0
  2  3  1  0
  3  4  1  0
  4  5  1  0
  5  6  2  0
  5  7  1  0
  7  8  1  0
  8  9  1  0
  9 10  1  0
 10 11  1  0
 11 12  1  0
 12 13  1  0
 13 14  1  0
 14 15  2  0
 15 16  1  0
 16 17  2  0
 17 18  1  0
 18 19  2  0
  2 20  1  0
 20 21  2  0
 21 22  1  0
 22 23  2  0
 23 24  1  0
 24 25  2  0
 25 26  1  0
 26 27  1  0
 26 28  1  0
 26 29  1  0
 25 30  1  0
 30 31  2  0
 31 32  1  0
 32 33  2  0
 12  7  1  0
 19 14  1  0
 33 20  1  0
 32 23  1  0
  3 34  1  0
  4 35  1  0
  4 36  1  0
  8 37  1  0
  8 38  1  0
  9 39  1  0
  9 40  1  0
 10 41  1  0
 10 42  1  0
 11 43  1  0
 11 44  1  0
 12 45  1  1
 13 46  1  0
 13 47  1  0
 15 48  1  0
 16 49  1  0
 17 50  1  0
 18 51  1  0
 19 52  1  0
 21 53  1  0
 22 54  1  0
 24 55  1  0
 30 56  1  0
 31 57  1  0
M  END
>  <smiles>  (76) 
O=C(NCC(=O)N1CCCCC1Cc1ccccc1)c1ccc2cc(C(F)(F)F)ccc2n1

>  <score_type>  (76) 
oracle

>  <origin>  (76) 
autodockgpu

>  <m_score__min__energy>  (76) 
-8.4199999999999999

>  <m_primary>  (76) 
energy

>  <rmsd>  (76) 
7.084233070219973

>  <m_score__min__rmsd>  (76) 
7.084233070219973

>  <meeko>  (76) 
{"free_energy": -7.64, "intermolecular_energy": -9.73, "internal_energy": -2.28, "cluster_size": 38, "cluster_id": 2, "rank_in_cluster": 36}

>  <energy>  (76) 
-7.89

>  <cluster_rmsd>  (76) 
1.71

>  <cluster>  (76) 
2

$$$$

     RDKit          3D

 57 60  0  0  0  0  0  0  0  0999 V2000
  138.8300   73.7810  221.0560 O   0  0  0  0  0  0  0  0  0  0  0  0
  139.8640   73.3600  221.6630 C   0  0  0  0  0  0  0  0  0  0  0  0
  141.0970   73.9550  221.2760 N   0  0  0  0  0  0  0  0  0  0  0  0
  141.0580   74.9640  220.2480 C   0  0  0  0  0  0  0  0  0  0  0  0
  142.3610   75.6530  220.0840 C   0  0  0  0  0  0  0  0  0  0  0  0
  143.3860   75.0180  220.4550 O   0  0  0  0  0  0  0  0  0  0  0  0
  142.3850   76.9510  219.5330 N   0  0  0  0  0  0  0  0  0  0  0  0
  142.9680   77.1870  218.2030 C   0  0  0  0  0  0  0  0  0  0  0  0
  141.9250   77.7570  217.2710 C   0  0  0  0  0  0  0  0  0  0  0  0
  141.1260   78.8590  217.8950 C   0  0  0  0  0  0  0  0  0  0  0  0
  140.7520   78.6640  219.3230 C   0  0  0  0  0  0  0  0  0  0  0  0
  141.8580   78.1280  220.1980 C   0  0  1  0  0  0  0  0  0  0  0  0
  141.3310   77.8800  221.5670 C   0  0  0  0  0  0  0  0  0  0  0  0
  141.6450   79.0690  222.4320 C   0  0  0  0  0  0  0  0  0  0  0  0
  140.6280   79.8720  222.9330 C   0  0  0  0  0  0  0  0  0  0  0  0
  140.8740   80.9730  223.7280 C   0  0  0  0  0  0  0  0  0  0  0  0
  142.1740   81.3060  224.0490 C   0  0  0  0  0  0  0  0  0  0  0  0
  143.1980   80.5140  223.5540 C   0  0  0  0  0  0  0  0  0  0  0  0
  142.9340   79.4180  222.7620 C   0  0  0  0  0  0  0  0  0  0  0  0
  139.7900   72.3320  222.6910 C   0  0  0  0  0  0  0  0  0  0  0  0
  138.7980   71.3820  222.5840 C   0  0  0  0  0  0  0  0  0  0  0  0
  138.6410   70.3680  223.5010 C   0  0  0  0  0  0  0  0  0  0  0  0
  139.5090   70.3130  224.5540 C   0  0  0  0  0  0  0  0  0  0  0  0
  139.3730   69.3070  225.4870 C   0  0  0  0  0  0  0  0  0  0  0  0
  140.2480   69.2530  226.5480 C   0  0  0  0  0  0  0  0  0  0  0  0
  140.0830   68.1570  227.5440 C   0  0  0  0  0  0  0  0  0  0  0  0
  139.2070   67.1880  227.0870 F   0  0  0  0  0  0  0  0  0  0  0  0
  139.5610   68.7260  228.7120 F   0  0  0  0  0  0  0  0  0  0  0  0
  141.3140   67.6440  227.8650 F   0  0  0  0  0  0  0  0  0  0  0  0
  141.2620   70.2080  226.6740 C   0  0  0  0  0  0  0  0  0  0  0  0
  141.3890   71.2230  225.7220 C   0  0  0  0  0  0  0  0  0  0  0  0
  140.5140   71.2800  224.6580 C   0  0  0  0  0  0  0  0  0  0  0  0
  140.6360   72.2640  223.7340 N   0  0  0  0  0  0  0  0  0  0  0  0
  141.9960   73.6620  221.7300 H   0  0  0  0  0  0  0  0  0  0  0  0
  140.7880   74.4868  219.2944 H   0  0  0  0  0  0  0  0  0  0  0  0
  140.3144   75.7180  220.5455 H   0  0  0  0  0  0  0  0  0  0  0  0
  143.8026   77.8979  218.2929 H   0  0  0  0  0  0  0  0  0  0  0  0
  143.3309   76.2320  217.7952 H   0  0  0  0  0  0  0  0  0  0  0  0
  142.4309   78.1526  216.3779 H   0  0  0  0  0  0  0  0  0  0  0  0
  141.2272   76.9446  217.0200 H   0  0  0  0  0  0  0  0  0  0  0  0
  141.7163   79.7845  217.8248 H   0  0  0  0  0  0  0  0  0  0  0  0
  140.1765   78.8886  217.3404 H   0  0  0  0  0  0  0  0  0  0  0  0
  140.4342   79.6355  219.7295 H   0  0  0  0  0  0  0  0  0  0  0  0
  139.9536   77.9074  219.3340 H   0  0  0  0  0  0  0  0  0  0  0  0
  142.6858   78.8397  220.3330 H   0  0  0  0  0  0  0  0  0  0  0  0
  140.2418   77.7330  221.5224 H   0  0  0  0  0  0  0  0  0  0  0  0
  141.7986   76.9781  221.9888 H   0  0  0  0  0  0  0  0  0  0  0  0
  139.5859   79.6204  222.6864 H   0  0  0  0  0  0  0  0  0  0  0  0
  140.0383   81.5817  224.1037 H   0  0  0  0  0  0  0  0  0  0  0  0
  142.3923   82.1786  224.6822 H   0  0  0  0  0  0  0  0  0  0  0  0
  144.2408   80.7651  223.7980 H   0  0  0  0  0  0  0  0  0  0  0  0
  143.7703   78.8102  222.3862 H   0  0  0  0  0  0  0  0  0  0  0  0
  138.1042   71.4361  221.7321 H   0  0  0  0  0  0  0  0  0  0  0  0
  137.8394   69.6231  223.3891 H   0  0  0  0  0  0  0  0  0  0  0  0
  138.5750   68.5568  225.3846 H   0  0  0  0  0  0  0  0  0  0  0  0
  141.9599   70.1601  227.5229 H   0  0  0  0  0  0  0  0  0  0  0  0
  142.1856   71.9751  225.8213 H   0  0  0  0  0  0  0  0  0  0  0  0
  1  2  2  0
  2  3  1  0
  3  4  1  0
  4  5  1  0
  5  6  2  0
  5  7  1  0
  7  8  1  0
  8  9  1  0
  9 10  1  0
 10 11  1  0
 11 12  1  0
 12 13  1  0
 13 14  1  0
 14 15  2  0
 15 16  1  0
 16 17  2  0
 17 18  1  0
 18 19  2  0
  2 20  1  0
 20 21  2  0
 21 22  1  0
 22 23  2  0
 23 24  1  0
 24 25  2  0
 25 26  1  0
 26 27  1  0
 26 28  1  0
 26 29  1  0
 25 30  1  0
 30 31  2  0
 31 32  1  0
 32 33  2  0
 12  7  1  0
 19 14  1  0
 33 20  1  0
 32 23  1  0
  3 34  1  0
  4 35  1  0
  4 36  1  0
  8 37  1  0
  8 38  1  0
  9 39  1  0
  9 40  1  0
 10 41  1  0
 10 42  1  0
 11 43  1  0
 11 44  1  0
 12 45  1  1
 13 46  1  0
 13 47  1  0
 15 48  1  0
 16 49  1  0
 17 50  1  0
 18 51  1  0
 19 52  1  0
 21 53  1  0
 22 54  1  0
 24 55  1  0
 30 56  1  0
 31 57  1  0
M  END
>  <smiles>  (77) 
O=C(NCC(=O)N1CCCCC1Cc1ccccc1)c1ccc2cc(C(F)(F)F)ccc2n1

>  <score_type>  (77) 
oracle

>  <origin>  (77) 
autodockgpu

>  <m_score__min__energy>  (77) 
-8.4199999999999999

>  <m_primary>  (77) 
energy

>  <rmsd>  (77) 
2.876288241946042

>  <m_score__min__rmsd>  (77) 
2.876288241946042

>  <meeko>  (77) 
{"free_energy": -8.15, "intermolecular_energy": -10.24, "internal_energy": -1.97, "cluster_size": 11, "cluster_id": 1, "rank_in_cluster": 5}

>  <energy>  (77) 
-7.89

>  <cluster_rmsd>  (77) 
1.72

>  <cluster>  (77) 
2

$$$$

     RDKit          3D

 57 60  0  0  0  0  0  0  0  0999 V2000
  137.8220   72.7100  220.8420 O   0  0  0  0  0  0  0  0  0  0  0  0
  137.6960   73.2770  221.9720 C   0  0  0  0  0  0  0  0  0  0  0  0
  137.1120   72.4860  223.0010 N   0  0  0  0  0  0  0  0  0  0  0  0
  136.7240   71.1390  222.6700 C   0  0  0  0  0  0  0  0  0  0  0  0
  137.6630   70.1310  223.2190 C   0  0  0  0  0  0  0  0  0  0  0  0
  137.1700   69.2610  223.9880 O   0  0  0  0  0  0  0  0  0  0  0  0
  139.0250   70.1950  222.8590 N   0  0  0  0  0  0  0  0  0  0  0  0
  139.4730   69.7180  221.5410 C   0  0  0  0  0  0  0  0  0  0  0  0
  140.1180   70.8460  220.7710 C   0  0  0  0  0  0  0  0  0  0  0  0
  141.0820   71.6390  221.5980 C   0  0  0  0  0  0  0  0  0  0  0  0
  140.6720   71.9010  223.0050 C   0  0  0  0  0  0  0  0  0  0  0  0
  140.0710   70.7160  223.7190 C   0  0  1  0  0  0  0  0  0  0  0  0
  139.6090   71.1340  225.0710 C   0  0  0  0  0  0  0  0  0  0  0  0
  140.0100   70.0830  226.0680 C   0  0  0  0  0  0  0  0  0  0  0  0
  140.4850   70.4400  227.3240 C   0  0  0  0  0  0  0  0  0  0  0  0
  140.8650   69.5070  228.2670 C   0  0  0  0  0  0  0  0  0  0  0  0
  140.7770   68.1620  227.9700 C   0  0  0  0  0  0  0  0  0  0  0  0
  140.3050   67.7930  226.7210 C   0  0  0  0  0  0  0  0  0  0  0  0
  139.9300   68.7380  225.7910 C   0  0  0  0  0  0  0  0  0  0  0  0
  138.1230   74.6500  222.2000 C   0  0  0  0  0  0  0  0  0  0  0  0
  137.1520   75.5940  222.4520 C   0  0  0  0  0  0  0  0  0  0  0  0
  137.4460   76.9180  222.6810 C   0  0  0  0  0  0  0  0  0  0  0  0
  138.7590   77.2990  222.6530 C   0  0  0  0  0  0  0  0  0  0  0  0
  139.0820   78.6200  222.8790 C   0  0  0  0  0  0  0  0  0  0  0  0
  140.4040   79.0020  222.8520 C   0  0  0  0  0  0  0  0  0  0  0  0
  140.7300   80.4340  223.0990 C   0  0  0  0  0  0  0  0  0  0  0  0
  140.9610   81.1100  221.9140 F   0  0  0  0  0  0  0  0  0  0  0  0
  141.8930   80.4720  223.8770 F   0  0  0  0  0  0  0  0  0  0  0  0
  139.7310   81.0060  223.8450 F   0  0  0  0  0  0  0  0  0  0  0  0
  141.4040   78.0580  222.5970 C   0  0  0  0  0  0  0  0  0  0  0  0
  141.0640   76.7220  222.3700 C   0  0  0  0  0  0  0  0  0  0  0  0
  139.7400   76.3360  222.3970 C   0  0  0  0  0  0  0  0  0  0  0  0
  139.4090   75.0410  222.1760 N   0  0  0  0  0  0  0  0  0  0  0  0
  136.9730   72.8820  223.9630 H   0  0  0  0  0  0  0  0  0  0  0  0
  135.7214   70.9488  223.0806 H   0  0  0  0  0  0  0  0  0  0  0  0
  136.7340   71.0460  221.5740 H   0  0  0  0  0  0  0  0  0  0  0  0
  140.2031   68.9065  221.6769 H   0  0  0  0  0  0  0  0  0  0  0  0
  138.6032   69.3494  220.9775 H   0  0  0  0  0  0  0  0  0  0  0  0
  140.6588   70.4209  219.9126 H   0  0  0  0  0  0  0  0  0  0  0  0
  139.3167   71.5289  220.4523 H   0  0  0  0  0  0  0  0  0  0  0  0
  142.0355   71.0910  221.6216 H   0  0  0  0  0  0  0  0  0  0  0  0
  141.1428   72.6267  221.1176 H   0  0  0  0  0  0  0  0  0  0  0  0
  141.5612   72.2239  223.5662 H   0  0  0  0  0  0  0  0  0  0  0  0
  139.8849   72.6682  222.9608 H   0  0  0  0  0  0  0  0  0  0  0  0
  140.7945   69.9073  223.8995 H   0  0  0  0  0  0  0  0  0  0  0  0
  140.0734   72.0943  225.3396 H   0  0  0  0  0  0  0  0  0  0  0  0
  138.5152   71.2511  225.0719 H   0  0  0  0  0  0  0  0  0  0  0  0
  140.5611   71.5079  227.5765 H   0  0  0  0  0  0  0  0  0  0  0  0
  141.2360   69.8333  229.2498 H   0  0  0  0  0  0  0  0  0  0  0  0
  141.0744   67.4016  228.7071 H   0  0  0  0  0  0  0  0  0  0  0  0
  140.2281   66.7255  226.4669 H   0  0  0  0  0  0  0  0  0  0  0  0
  139.5596   68.4106  224.8083 H   0  0  0  0  0  0  0  0  0  0  0  0
  136.0991   75.2762  222.4708 H   0  0  0  0  0  0  0  0  0  0  0  0
  136.6485   77.6488  222.8808 H   0  0  0  0  0  0  0  0  0  0  0  0
  138.2927   79.3598  223.0785 H   0  0  0  0  0  0  0  0  0  0  0  0
  142.4593   78.3677  222.5751 H   0  0  0  0  0  0  0  0  0  0  0  0
  141.8506   75.9795  222.1701 H   0  0  0  0  0  0  0  0  0  0  0  0
  1  2  2  0
  2  3  1  0
  3  4  1  0
  4  5  1  0
  5  6  2  0
  5  7  1  0
  7  8  1  0
  8  9  1  0
  9 10  1  0
 10 11  1  0
 11 12  1  0
 12 13  1  0
 13 14  1  0
 14 15  2  0
 15 16  1  0
 16 17  2  0
 17 18  1  0
 18 19  2  0
  2 20  1  0
 20 21  2  0
 21 22  1  0
 22 23  2  0
 23 24  1  0
 24 25  2  0
 25 26  1  0
 26 27  1  0
 26 28  1  0
 26 29  1  0
 25 30  1  0
 30 31  2  0
 31 32  1  0
 32 33  2  0
 12  7  1  0
 19 14  1  0
 33 20  1  0
 32 23  1  0
  3 34  1  0
  4 35  1  0
  4 36  1  0
  8 37  1  0
  8 38  1  0
  9 39  1  0
  9 40  1  0
 10 41  1  0
 10 42  1  0
 11 43  1  0
 11 44  1  0
 12 45  1  1
 13 46  1  0
 13 47  1  0
 15 48  1  0
 16 49  1  0
 17 50  1  0
 18 51  1  0
 19 52  1  0
 21 53  1  0
 22 54  1  0
 24 55  1  0
 30 56  1  0
 31 57  1  0
M  END
>  <smiles>  (78) 
O=C(NCC(=O)N1CCCCC1Cc1ccccc1)c1ccc2cc(C(F)(F)F)ccc2n1

>  <score_type>  (78) 
oracle

>  <origin>  (78) 
autodockgpu

>  <m_score__min__energy>  (78) 
-8.4199999999999999

>  <m_primary>  (78) 
energy

>  <rmsd>  (78) 
7.134048828571334

>  <m_score__min__rmsd>  (78) 
7.134048828571334

>  <meeko>  (78) 
{"free_energy": -7.91, "intermolecular_energy": -10.0, "internal_energy": -2.27, "cluster_size": 38, "cluster_id": 2, "rank_in_cluster": 11}

>  <energy>  (78) 
-7.88

>  <cluster_rmsd>  (78) 
1.69

>  <cluster>  (78) 
2

$$$$

     RDKit          3D

 57 60  0  0  0  0  0  0  0  0999 V2000
  137.7540   72.8540  220.6640 O   0  0  0  0  0  0  0  0  0  0  0  0
  137.6740   73.3590  221.8270 C   0  0  0  0  0  0  0  0  0  0  0  0
  137.1300   72.5140  222.8350 N   0  0  0  0  0  0  0  0  0  0  0  0
  136.7280   71.1870  222.4480 C   0  0  0  0  0  0  0  0  0  0  0  0
  137.6820   70.1500  222.9110 C   0  0  0  0  0  0  0  0  0  0  0  0
  137.1880   69.1540  223.5070 O   0  0  0  0  0  0  0  0  0  0  0  0
  139.0590   70.3290  222.6660 N   0  0  0  0  0  0  0  0  0  0  0  0
  139.6350   69.9880  221.3550 C   0  0  0  0  0  0  0  0  0  0  0  0
  140.2560   71.2120  220.7260 C   0  0  0  0  0  0  0  0  0  0  0  0
  141.1000   71.9950  221.6830 C   0  0  0  0  0  0  0  0  0  0  0  0
  140.5700   72.1170  223.0690 C   0  0  0  0  0  0  0  0  0  0  0  0
  140.0010   70.8430  223.6420 C   0  0  1  0  0  0  0  0  0  0  0  0
  139.4120   71.1220  224.9810 C   0  0  0  0  0  0  0  0  0  0  0  0
  139.9030   70.0850  225.9520 C   0  0  0  0  0  0  0  0  0  0  0  0
  140.5410   70.4590  227.1290 C   0  0  0  0  0  0  0  0  0  0  0  0
  141.0070   69.5390  228.0460 C   0  0  0  0  0  0  0  0  0  0  0  0
  140.8440   68.1910  227.8030 C   0  0  0  0  0  0  0  0  0  0  0  0
  140.2100   67.8040  226.6320 C   0  0  0  0  0  0  0  0  0  0  0  0
  139.7510   68.7360  225.7280 C   0  0  0  0  0  0  0  0  0  0  0  0
  138.1120   74.7180  222.1110 C   0  0  0  0  0  0  0  0  0  0  0  0
  137.1480   75.6600  222.3980 C   0  0  0  0  0  0  0  0  0  0  0  0
  137.4530   76.9710  222.6800 C   0  0  0  0  0  0  0  0  0  0  0  0
  138.7680   77.3410  222.6720 C   0  0  0  0  0  0  0  0  0  0  0  0
  139.1020   78.6500  222.9520 C   0  0  0  0  0  0  0  0  0  0  0  0
  140.4270   79.0210  222.9430 C   0  0  0  0  0  0  0  0  0  0  0  0
  140.7650   80.4390  223.2480 C   0  0  0  0  0  0  0  0  0  0  0  0
  139.6650   81.1260  223.7330 F   0  0  0  0  0  0  0  0  0  0  0  0
  141.1840   81.0380  222.0540 F   0  0  0  0  0  0  0  0  0  0  0  0
  141.8310   80.4780  224.1100 F   0  0  0  0  0  0  0  0  0  0  0  0
  141.4200   78.0790  222.6540 C   0  0  0  0  0  0  0  0  0  0  0  0
  141.0690   76.7560  222.3730 C   0  0  0  0  0  0  0  0  0  0  0  0
  139.7420   76.3810  222.3810 C   0  0  0  0  0  0  0  0  0  0  0  0
  139.4010   75.0980  222.1070 N   0  0  0  0  0  0  0  0  0  0  0  0
  137.0310   72.8580  223.8220 H   0  0  0  0  0  0  0  0  0  0  0  0
  135.7394   70.9766  222.8820 H   0  0  0  0  0  0  0  0  0  0  0  0
  136.7013   71.1516  221.3489 H   0  0  0  0  0  0  0  0  0  0  0  0
  140.4069   69.2155  221.4867 H   0  0  0  0  0  0  0  0  0  0  0  0
  138.8367   69.6119  220.6983 H   0  0  0  0  0  0  0  0  0  0  0  0
  140.8862   70.8919  219.8832 H   0  0  0  0  0  0  0  0  0  0  0  0
  139.4352   71.8668  220.3982 H   0  0  0  0  0  0  0  0  0  0  0  0
  142.0845   71.5077  221.7405 H   0  0  0  0  0  0  0  0  0  0  0  0
  141.1287   73.0198  221.2844 H   0  0  0  0  0  0  0  0  0  0  0  0
  141.3909   72.4492  223.7215 H   0  0  0  0  0  0  0  0  0  0  0  0
  139.7374   72.8342  223.0206 H   0  0  0  0  0  0  0  0  0  0  0  0
  140.7632   70.0695  223.8173 H   0  0  0  0  0  0  0  0  0  0  0  0
  139.7214   72.1217  225.3199 H   0  0  0  0  0  0  0  0  0  0  0  0
  138.3142   71.0875  224.9209 H   0  0  0  0  0  0  0  0  0  0  0  0
  140.6798   71.5301  227.3376 H   0  0  0  0  0  0  0  0  0  0  0  0
  141.5057   69.8788  228.9657 H   0  0  0  0  0  0  0  0  0  0  0  0
  141.2081   67.4412  228.5207 H   0  0  0  0  0  0  0  0  0  0  0  0
  140.0712   66.7333  226.4214 H   0  0  0  0  0  0  0  0  0  0  0  0
  139.2529   68.3951  224.8084 H   0  0  0  0  0  0  0  0  0  0  0  0
  136.0923   75.3510  222.4017 H   0  0  0  0  0  0  0  0  0  0  0  0
  136.6611   77.7005  222.9054 H   0  0  0  0  0  0  0  0  0  0  0  0
  138.3187   79.3880  223.1796 H   0  0  0  0  0  0  0  0  0  0  0  0
  142.4780   78.3800  222.6480 H   0  0  0  0  0  0  0  0  0  0  0  0
  141.8497   76.0151  222.1459 H   0  0  0  0  0  0  0  0  0  0  0  0
  1  2  2  0
  2  3  1  0
  3  4  1  0
  4  5  1  0
  5  6  2  0
  5  7  1  0
  7  8  1  0
  8  9  1  0
  9 10  1  0
 10 11  1  0
 11 12  1  0
 12 13  1  0
 13 14  1  0
 14 15  2  0
 15 16  1  0
 16 17  2  0
 17 18  1  0
 18 19  2  0
  2 20  1  0
 20 21  2  0
 21 22  1  0
 22 23  2  0
 23 24  1  0
 24 25  2  0
 25 26  1  0
 26 27  1  0
 26 28  1  0
 26 29  1  0
 25 30  1  0
 30 31  2  0
 31 32  1  0
 32 33  2  0
 12  7  1  0
 19 14  1  0
 33 20  1  0
 32 23  1  0
  3 34  1  0
  4 35  1  0
  4 36  1  0
  8 37  1  0
  8 38  1  0
  9 39  1  0
  9 40  1  0
 10 41  1  0
 10 42  1  0
 11 43  1  0
 11 44  1  0
 12 45  1  1
 13 46  1  0
 13 47  1  0
 15 48  1  0
 16 49  1  0
 17 50  1  0
 18 51  1  0
 19 52  1  0
 21 53  1  0
 22 54  1  0
 24 55  1  0
 30 56  1  0
 31 57  1  0
M  END
>  <smiles>  (79) 
O=C(NCC(=O)N1CCCCC1Cc1ccccc1)c1ccc2cc(C(F)(F)F)ccc2n1

>  <score_type>  (79) 
oracle

>  <origin>  (79) 
autodockgpu

>  <m_score__min__energy>  (79) 
-8.4199999999999999

>  <m_primary>  (79) 
energy

>  <rmsd>  (79) 
7.0772251375404815

>  <m_score__min__rmsd>  (79) 
7.0772251375404815

>  <meeko>  (79) 
{"free_energy": -7.87, "intermolecular_energy": -9.96, "internal_energy": -2.31, "cluster_size": 38, "cluster_id": 2, "rank_in_cluster": 19}

>  <energy>  (79) 
-7.88

>  <cluster_rmsd>  (79) 
1.42

>  <cluster>  (79) 
2

$$$$

     RDKit          3D

 57 60  0  0  0  0  0  0  0  0999 V2000
  141.2100   75.6560  220.9130 O   0  0  0  0  0  0  0  0  0  0  0  0
  140.2410   75.6880  221.7340 C   0  0  0  0  0  0  0  0  0  0  0  0
  139.6480   74.4320  222.0440 N   0  0  0  0  0  0  0  0  0  0  0  0
  140.1940   73.2610  221.4080 C   0  0  0  0  0  0  0  0  0  0  0  0
  140.2920   72.1080  222.3360 C   0  0  0  0  0  0  0  0  0  0  0  0
  141.4150   71.5390  222.4110 O   0  0  0  0  0  0  0  0  0  0  0  0
  139.1520   71.7200  223.0690 N   0  0  0  0  0  0  0  0  0  0  0  0
  137.8040   71.8920  222.5030 C   0  0  0  0  0  0  0  0  0  0  0  0
  137.1120   70.5550  222.3930 C   0  0  0  0  0  0  0  0  0  0  0  0
  137.2550   69.7210  223.6280 C   0  0  0  0  0  0  0  0  0  0  0  0
  138.5870   69.7620  224.2910 C   0  0  0  0  0  0  0  0  0  0  0  0
  139.1970   71.1380  224.3980 C   0  0  1  0  0  0  0  0  0  0  0  0
  140.5630   71.0300  224.9790 C   0  0  0  0  0  0  0  0  0  0  0  0
  140.5250   70.0710  226.1350 C   0  0  0  0  0  0  0  0  0  0  0  0
  141.0750   68.7990  226.0220 C   0  0  0  0  0  0  0  0  0  0  0  0
  141.0590   67.8880  227.0580 C   0  0  0  0  0  0  0  0  0  0  0  0
  140.4800   68.2340  228.2620 C   0  0  0  0  0  0  0  0  0  0  0  0
  139.9280   69.4990  228.3880 C   0  0  0  0  0  0  0  0  0  0  0  0
  139.9520   70.3960  227.3430 C   0  0  0  0  0  0  0  0  0  0  0  0
  139.7670   76.9330  222.3220 C   0  0  0  0  0  0  0  0  0  0  0  0
  140.7080   77.8280  222.7820 C   0  0  0  0  0  0  0  0  0  0  0  0
  140.3680   79.0320  223.3540 C   0  0  0  0  0  0  0  0  0  0  0  0
  139.0410   79.3400  223.4640 C   0  0  0  0  0  0  0  0  0  0  0  0
  138.6730   80.5410  224.0340 C   0  0  0  0  0  0  0  0  0  0  0  0
  137.3360   80.8490  224.1440 C   0  0  0  0  0  0  0  0  0  0  0  0
  136.9620   82.1510  224.7620 C   0  0  0  0  0  0  0  0  0  0  0  0
  137.5990   82.3350  225.9770 F   0  0  0  0  0  0  0  0  0  0  0  0
  135.5770   82.1330  224.9740 F   0  0  0  0  0  0  0  0  0  0  0  0
  137.2170   83.1660  223.8750 F   0  0  0  0  0  0  0  0  0  0  0  0
  136.3660   79.9530  223.6830 C   0  0  0  0  0  0  0  0  0  0  0  0
  136.7520   78.7400  223.1070 C   0  0  0  0  0  0  0  0  0  0  0  0
  138.0910   78.4270  222.9950 C   0  0  0  0  0  0  0  0  0  0  0  0
  138.4660   77.2500  222.4380 N   0  0  0  0  0  0  0  0  0  0  0  0
  138.8430   74.3740  222.7140 H   0  0  0  0  0  0  0  0  0  0  0  0
  139.5451   72.9818  220.5648 H   0  0  0  0  0  0  0  0  0  0  0  0
  141.2113   73.5066  221.0692 H   0  0  0  0  0  0  0  0  0  0  0  0
  137.2165   72.5528  223.1573 H   0  0  0  0  0  0  0  0  0  0  0  0
  137.8890   72.3365  221.5004 H   0  0  0  0  0  0  0  0  0  0  0  0
  136.0415   70.7281  222.2085 H   0  0  0  0  0  0  0  0  0  0  0  0
  137.5864   70.0051  221.5669 H   0  0  0  0  0  0  0  0  0  0  0  0
  136.5058   70.0658  224.3559 H   0  0  0  0  0  0  0  0  0  0  0  0
  137.1179   68.6798  223.3009 H   0  0  0  0  0  0  0  0  0  0  0  0
  138.4762   69.3565  225.3075 H   0  0  0  0  0  0  0  0  0  0  0  0
  139.2660   69.1698  223.6599 H   0  0  0  0  0  0  0  0  0  0  0  0
  138.6462   71.8041  225.0784 H   0  0  0  0  0  0  0  0  0  0  0  0
  141.2614   70.6592  224.2143 H   0  0  0  0  0  0  0  0  0  0  0  0
  140.9003   72.0182  225.3251 H   0  0  0  0  0  0  0  0  0  0  0  0
  141.5412   68.5076  225.0692 H   0  0  0  0  0  0  0  0  0  0  0  0
  141.5053   66.8914  226.9251 H   0  0  0  0  0  0  0  0  0  0  0  0
  140.4572   67.5231  229.1011 H   0  0  0  0  0  0  0  0  0  0  0  0
  139.4620   69.7921  229.3403 H   0  0  0  0  0  0  0  0  0  0  0  0
  139.5043   71.3918  227.4768 H   0  0  0  0  0  0  0  0  0  0  0  0
  141.7731   77.5697  222.6882 H   0  0  0  0  0  0  0  0  0  0  0  0
  141.1418   79.7268  223.7125 H   0  0  0  0  0  0  0  0  0  0  0  0
  139.4382   81.2435  224.3960 H   0  0  0  0  0  0  0  0  0  0  0  0
  135.2988   80.2034  223.7740 H   0  0  0  0  0  0  0  0  0  0  0  0
  135.9894   78.0356  222.7433 H   0  0  0  0  0  0  0  0  0  0  0  0
  1  2  2  0
  2  3  1  0
  3  4  1  0
  4  5  1  0
  5  6  2  0
  5  7  1  0
  7  8  1  0
  8  9  1  0
  9 10  1  0
 10 11  1  0
 11 12  1  0
 12 13  1  0
 13 14  1  0
 14 15  2  0
 15 16  1  0
 16 17  2  0
 17 18  1  0
 18 19  2  0
  2 20  1  0
 20 21  2  0
 21 22  1  0
 22 23  2  0
 23 24  1  0
 24 25  2  0
 25 26  1  0
 26 27  1  0
 26 28  1  0
 26 29  1  0
 25 30  1  0
 30 31  2  0
 31 32  1  0
 32 33  2  0
 12  7  1  0
 19 14  1  0
 33 20  1  0
 32 23  1  0
  3 34  1  0
  4 35  1  0
  4 36  1  0
  8 37  1  0
  8 38  1  0
  9 39  1  0
  9 40  1  0
 10 41  1  0
 10 42  1  0
 11 43  1  0
 11 44  1  0
 12 45  1  1
 13 46  1  0
 13 47  1  0
 15 48  1  0
 16 49  1  0
 17 50  1  0
 18 51  1  0
 19 52  1  0
 21 53  1  0
 22 54  1  0
 24 55  1  0
 30 56  1  0
 31 57  1  0
M  END
>  <smiles>  (80) 
O=C(NCC(=O)N1CCCCC1Cc1ccccc1)c1ccc2cc(C(F)(F)F)ccc2n1

>  <score_type>  (80) 
oracle

>  <origin>  (80) 
autodockgpu

>  <m_score__min__energy>  (80) 
-8.4199999999999999

>  <m_primary>  (80) 
energy

>  <rmsd>  (80) 
8.185612354920908

>  <m_score__min__rmsd>  (80) 
8.185612354920908

>  <meeko>  (80) 
{"free_energy": -8.14, "intermolecular_energy": -10.23, "internal_energy": -1.43, "cluster_size": 1, "cluster_id": 3, "rank_in_cluster": 1}

>  <energy>  (80) 
-7.87

>  <cluster_rmsd>  (80) 
1.73

>  <cluster>  (80) 
2

$$$$

     RDKit          3D

 57 60  0  0  0  0  0  0  0  0999 V2000
  136.8860   74.6940  221.0830 O   0  0  0  0  0  0  0  0  0  0  0  0
  137.9380   74.5840  221.7870 C   0  0  0  0  0  0  0  0  0  0  0  0
  138.1800   73.2980  222.3450 N   0  0  0  0  0  0  0  0  0  0  0  0
  137.2240   72.2580  222.0660 C   0  0  0  0  0  0  0  0  0  0  0  0
  136.7680   71.5650  223.2950 C   0  0  0  0  0  0  0  0  0  0  0  0
  136.0090   72.2170  224.0620 O   0  0  0  0  0  0  0  0  0  0  0  0
  137.1960   70.2430  223.5340 N   0  0  0  0  0  0  0  0  0  0  0  0
  136.2920   69.1070  223.2850 C   0  0  0  0  0  0  0  0  0  0  0  0
  136.8900   68.1850  222.2500 C   0  0  0  0  0  0  0  0  0  0  0  0
  138.3370   67.8910  222.4970 C   0  0  0  0  0  0  0  0  0  0  0  0
  139.1630   69.0370  222.9680 C   0  0  0  0  0  0  0  0  0  0  0  0
  138.5130   69.8890  224.0290 C   0  0  1  0  0  0  0  0  0  0  0  0
  139.3900   71.0530  224.3360 C   0  0  0  0  0  0  0  0  0  0  0  0
  139.9460   70.8900  225.7230 C   0  0  0  0  0  0  0  0  0  0  0  0
  140.7040   71.8970  226.3080 C   0  0  0  0  0  0  0  0  0  0  0  0
  141.2330   71.7870  227.5770 C   0  0  0  0  0  0  0  0  0  0  0  0
  141.0130   70.6390  228.3100 C   0  0  0  0  0  0  0  0  0  0  0  0
  140.2590   69.6260  227.7390 C   0  0  0  0  0  0  0  0  0  0  0  0
  139.7390   69.7540  226.4700 C   0  0  0  0  0  0  0  0  0  0  0  0
  138.8400   75.7050  222.0070 C   0  0  0  0  0  0  0  0  0  0  0  0
  140.1590   75.5540  221.6360 C   0  0  0  0  0  0  0  0  0  0  0  0
  141.0940   76.5500  221.8000 C   0  0  0  0  0  0  0  0  0  0  0  0
  140.6860   77.7310  222.3540 C   0  0  0  0  0  0  0  0  0  0  0  0
  141.6030   78.7450  222.5290 C   0  0  0  0  0  0  0  0  0  0  0  0
  141.1900   79.9340  223.0870 C   0  0  0  0  0  0  0  0  0  0  0  0
  142.1970   81.0160  223.2660 C   0  0  0  0  0  0  0  0  0  0  0  0
  142.1240   81.5680  224.5340 F   0  0  0  0  0  0  0  0  0  0  0  0
  141.9180   82.0120  222.3220 F   0  0  0  0  0  0  0  0  0  0  0  0
  143.4460   80.5290  222.9760 F   0  0  0  0  0  0  0  0  0  0  0  0
  139.8550   80.1070  223.4690 C   0  0  0  0  0  0  0  0  0  0  0  0
  138.9360   79.0710  223.2860 C   0  0  0  0  0  0  0  0  0  0  0  0
  139.3460   77.8780  222.7270 C   0  0  0  0  0  0  0  0  0  0  0  0
  138.4550   76.8730  222.5500 N   0  0  0  0  0  0  0  0  0  0  0  0
  139.0280   73.1270  222.9390 H   0  0  0  0  0  0  0  0  0  0  0  0
  136.3510   72.7050  221.5679 H   0  0  0  0  0  0  0  0  0  0  0  0
  137.7166   71.5130  221.4240 H   0  0  0  0  0  0  0  0  0  0  0  0
  136.1392   68.5516  224.2221 H   0  0  0  0  0  0  0  0  0  0  0  0
  135.3290   69.4879  222.9142 H   0  0  0  0  0  0  0  0  0  0  0  0
  136.3325   67.2368  222.2609 H   0  0  0  0  0  0  0  0  0  0  0  0
  136.8180   68.6916  221.2762 H   0  0  0  0  0  0  0  0  0  0  0  0
  138.3947   67.0989  223.2580 H   0  0  0  0  0  0  0  0  0  0  0  0
  138.7536   67.6060  221.5196 H   0  0  0  0  0  0  0  0  0  0  0  0
  140.1021   68.6368  223.3779 H   0  0  0  0  0  0  0  0  0  0  0  0
  139.3146   69.6896  222.0956 H   0  0  0  0  0  0  0  0  0  0  0  0
  138.3850   69.3631  224.9866 H   0  0  0  0  0  0  0  0  0  0  0  0
  140.2152   71.0955  223.6098 H   0  0  0  0  0  0  0  0  0  0  0  0
  138.8086   71.9848  224.2742 H   0  0  0  0  0  0  0  0  0  0  0  0
  140.8895   72.8183  225.7364 H   0  0  0  0  0  0  0  0  0  0  0  0
  141.8268   72.6096  228.0021 H   0  0  0  0  0  0  0  0  0  0  0  0
  141.4263   70.5303  229.3236 H   0  0  0  0  0  0  0  0  0  0  0  0
  140.0726   68.7039  228.3091 H   0  0  0  0  0  0  0  0  0  0  0  0
  139.1459   68.9307  226.0453 H   0  0  0  0  0  0  0  0  0  0  0  0
  140.4766   74.5994  221.1912 H   0  0  0  0  0  0  0  0  0  0  0  0
  142.1399   76.4001  221.4940 H   0  0  0  0  0  0  0  0  0  0  0  0
  142.6515   78.6061  222.2267 H   0  0  0  0  0  0  0  0  0  0  0  0
  139.5292   81.0590  223.9135 H   0  0  0  0  0  0  0  0  0  0  0  0
  137.8867   79.2061  223.5872 H   0  0  0  0  0  0  0  0  0  0  0  0
  1  2  2  0
  2  3  1  0
  3  4  1  0
  4  5  1  0
  5  6  2  0
  5  7  1  0
  7  8  1  0
  8  9  1  0
  9 10  1  0
 10 11  1  0
 11 12  1  0
 12 13  1  0
 13 14  1  0
 14 15  2  0
 15 16  1  0
 16 17  2  0
 17 18  1  0
 18 19  2  0
  2 20  1  0
 20 21  2  0
 21 22  1  0
 22 23  2  0
 23 24  1  0
 24 25  2  0
 25 26  1  0
 26 27  1  0
 26 28  1  0
 26 29  1  0
 25 30  1  0
 30 31  2  0
 31 32  1  0
 32 33  2  0
 12  7  1  0
 19 14  1  0
 33 20  1  0
 32 23  1  0
  3 34  1  0
  4 35  1  0
  4 36  1  0
  8 37  1  0
  8 38  1  0
  9 39  1  0
  9 40  1  0
 10 41  1  0
 10 42  1  0
 11 43  1  0
 11 44  1  0
 12 45  1  1
 13 46  1  0
 13 47  1  0
 15 48  1  0
 16 49  1  0
 17 50  1  0
 18 51  1  0
 19 52  1  0
 21 53  1  0
 22 54  1  0
 24 55  1  0
 30 56  1  0
 31 57  1  0
M  END
>  <smiles>  (81) 
O=C(NCC(=O)N1CCCCC1Cc1ccccc1)c1ccc2cc(C(F)(F)F)ccc2n1

>  <score_type>  (81) 
oracle

>  <origin>  (81) 
autodockgpu

>  <m_score__min__energy>  (81) 
-8.4199999999999999

>  <m_primary>  (81) 
energy

>  <rmsd>  (81) 
7.999293241762119

>  <m_score__min__rmsd>  (81) 
7.999293241762119

>  <meeko>  (81) 
{"free_energy": -8.33, "intermolecular_energy": -10.42, "internal_energy": -1.54, "cluster_size": 38, "cluster_id": 2, "rank_in_cluster": 1}

>  <energy>  (81) 
-7.86

>  <cluster_rmsd>  (81) 
1.73

>  <cluster>  (81) 
2

$$$$

     RDKit          3D

 57 60  0  0  0  0  0  0  0  0999 V2000
  138.9710   72.0970  220.5550 O   0  0  0  0  0  0  0  0  0  0  0  0
  139.0260   72.5770  221.7300 C   0  0  0  0  0  0  0  0  0  0  0  0
  138.8350   73.9820  221.8370 N   0  0  0  0  0  0  0  0  0  0  0  0
  138.6000   74.7190  220.6220 C   0  0  0  0  0  0  0  0  0  0  0  0
  139.8140   74.8120  219.7750 C   0  0  0  0  0  0  0  0  0  0  0  0
  139.6290   74.8660  218.5280 O   0  0  0  0  0  0  0  0  0  0  0  0
  141.0810   74.8350  220.3940 N   0  0  0  0  0  0  0  0  0  0  0  0
  141.8110   73.5830  220.6500 C   0  0  0  0  0  0  0  0  0  0  0  0
  143.1350   73.5950  219.9230 C   0  0  0  0  0  0  0  0  0  0  0  0
  143.8750   74.8870  220.0820 C   0  0  0  0  0  0  0  0  0  0  0  0
  143.0460   76.1220  220.0380 C   0  0  0  0  0  0  0  0  0  0  0  0
  141.7570   76.0460  220.8190 C   0  0  1  0  0  0  0  0  0  0  0  0
  140.9760   77.2960  220.6100 C   0  0  0  0  0  0  0  0  0  0  0  0
  141.4060   78.3140  221.6300 C   0  0  0  0  0  0  0  0  0  0  0  0
  141.3920   78.0100  222.9860 C   0  0  0  0  0  0  0  0  0  0  0  0
  141.7770   78.9160  223.9530 C   0  0  0  0  0  0  0  0  0  0  0  0
  142.1940   80.1770  223.5800 C   0  0  0  0  0  0  0  0  0  0  0  0
  142.2120   80.4930  222.2300 C   0  0  0  0  0  0  0  0  0  0  0  0
  141.8240   79.5760  221.2780 C   0  0  0  0  0  0  0  0  0  0  0  0
  139.2700   71.7380  222.8960 C   0  0  0  0  0  0  0  0  0  0  0  0
  138.7090   70.4800  222.9140 C   0  0  0  0  0  0  0  0  0  0  0  0
  138.8760   69.6090  223.9660 C   0  0  0  0  0  0  0  0  0  0  0  0
  139.6320   70.0200  225.0280 C   0  0  0  0  0  0  0  0  0  0  0  0
  139.8150   69.1670  226.0950 C   0  0  0  0  0  0  0  0  0  0  0  0
  140.5760   69.5830  227.1640 C   0  0  0  0  0  0  0  0  0  0  0  0
  140.7620   68.6440  228.3050 C   0  0  0  0  0  0  0  0  0  0  0  0
  139.6300   68.5850  229.0990 F   0  0  0  0  0  0  0  0  0  0  0  0
  141.8300   69.1230  229.0730 F   0  0  0  0  0  0  0  0  0  0  0  0
  141.1340   67.4130  227.8270 F   0  0  0  0  0  0  0  0  0  0  0  0
  141.1540   70.8560  227.1640 C   0  0  0  0  0  0  0  0  0  0  0  0
  140.9600   71.7120  226.0760 C   0  0  0  0  0  0  0  0  0  0  0  0
  140.1990   71.2980  225.0030 C   0  0  0  0  0  0  0  0  0  0  0  0
  140.0100   72.1280  223.9480 N   0  0  0  0  0  0  0  0  0  0  0  0
  138.8660   74.4540  222.7740 H   0  0  0  0  0  0  0  0  0  0  0  0
  137.8076   74.2142  220.0499 H   0  0  0  0  0  0  0  0  0  0  0  0
  138.3057   75.7416  220.9008 H   0  0  0  0  0  0  0  0  0  0  0  0
  141.9903   73.4810  221.7305 H   0  0  0  0  0  0  0  0  0  0  0  0
  141.2098   72.7358  220.2883 H   0  0  0  0  0  0  0  0  0  0  0  0
  143.7603   72.7813  220.3190 H   0  0  0  0  0  0  0  0  0  0  0  0
  142.9244   73.4648  218.8512 H   0  0  0  0  0  0  0  0  0  0  0  0
  144.3910   74.8622  221.0531 H   0  0  0  0  0  0  0  0  0  0  0  0
  144.5500   74.9513  219.2158 H   0  0  0  0  0  0  0  0  0  0  0  0
  143.6443   76.9507  220.4446 H   0  0  0  0  0  0  0  0  0  0  0  0
  142.7625   76.2678  218.9852 H   0  0  0  0  0  0  0  0  0  0  0  0
  141.9130   75.9829  221.9060 H   0  0  0  0  0  0  0  0  0  0  0  0
  141.1642   77.6844  219.5982 H   0  0  0  0  0  0  0  0  0  0  0  0
  139.9016   77.0876  220.7207 H   0  0  0  0  0  0  0  0  0  0  0  0
  141.0614   77.0091  223.3004 H   0  0  0  0  0  0  0  0  0  0  0  0
  141.7515   78.6341  225.0160 H   0  0  0  0  0  0  0  0  0  0  0  0
  142.5047   80.9139  224.3352 H   0  0  0  0  0  0  0  0  0  0  0  0
  142.5419   81.4935  221.9136 H   0  0  0  0  0  0  0  0  0  0  0  0
  141.8490   79.8588  220.2153 H   0  0  0  0  0  0  0  0  0  0  0  0
  138.1036   70.1591  222.0534 H   0  0  0  0  0  0  0  0  0  0  0  0
  138.4144   68.6106  223.9527 H   0  0  0  0  0  0  0  0  0  0  0  0
  139.3586   68.1662  226.0924 H   0  0  0  0  0  0  0  0  0  0  0  0
  141.7616   71.1841  228.0203 H   0  0  0  0  0  0  0  0  0  0  0  0
  141.4136   72.7141  226.0757 H   0  0  0  0  0  0  0  0  0  0  0  0
  1  2  2  0
  2  3  1  0
  3  4  1  0
  4  5  1  0
  5  6  2  0
  5  7  1  0
  7  8  1  0
  8  9  1  0
  9 10  1  0
 10 11  1  0
 11 12  1  0
 12 13  1  0
 13 14  1  0
 14 15  2  0
 15 16  1  0
 16 17  2  0
 17 18  1  0
 18 19  2  0
  2 20  1  0
 20 21  2  0
 21 22  1  0
 22 23  2  0
 23 24  1  0
 24 25  2  0
 25 26  1  0
 26 27  1  0
 26 28  1  0
 26 29  1  0
 25 30  1  0
 30 31  2  0
 31 32  1  0
 32 33  2  0
 12  7  1  0
 19 14  1  0
 33 20  1  0
 32 23  1  0
  3 34  1  0
  4 35  1  0
  4 36  1  0
  8 37  1  0
  8 38  1  0
  9 39  1  0
  9 40  1  0
 10 41  1  0
 10 42  1  0
 11 43  1  0
 11 44  1  0
 12 45  1  1
 13 46  1  0
 13 47  1  0
 15 48  1  0
 16 49  1  0
 17 50  1  0
 18 51  1  0
 19 52  1  0
 21 53  1  0
 22 54  1  0
 24 55  1  0
 30 56  1  0
 31 57  1  0
M  END
>  <smiles>  (82) 
O=C(NCC(=O)N1CCCCC1Cc1ccccc1)c1ccc2cc(C(F)(F)F)ccc2n1

>  <score_type>  (82) 
oracle

>  <origin>  (82) 
autodockgpu

>  <m_score__min__energy>  (82) 
-8.4199999999999999

>  <m_primary>  (82) 
energy

>  <rmsd>  (82) 
2.3224468589591933

>  <m_score__min__rmsd>  (82) 
2.3224468589591933

>  <meeko>  (82) 
{"free_energy": -8.24, "intermolecular_energy": -10.33, "internal_energy": -1.86, "cluster_size": 11, "cluster_id": 1, "rank_in_cluster": 3}

>  <energy>  (82) 
-7.84

>  <cluster_rmsd>  (82) 
1.72

>  <cluster>  (82) 
2

$$$$

     RDKit          3D

 57 60  0  0  0  0  0  0  0  0999 V2000
  138.0480   73.3670  220.2000 O   0  0  0  0  0  0  0  0  0  0  0  0
  138.2200   73.8150  221.3760 C   0  0  0  0  0  0  0  0  0  0  0  0
  137.5930   73.0790  222.4190 N   0  0  0  0  0  0  0  0  0  0  0  0
  136.8320   71.9130  222.0500 C   0  0  0  0  0  0  0  0  0  0  0  0
  137.5250   70.6510  222.4050 C   0  0  0  0  0  0  0  0  0  0  0  0
  136.7980   69.7010  222.8050 O   0  0  0  0  0  0  0  0  0  0  0  0
  138.9270   70.5800  222.2770 N   0  0  0  0  0  0  0  0  0  0  0  0
  139.5440   70.2240  220.9890 C   0  0  0  0  0  0  0  0  0  0  0  0
  140.4320   71.3460  220.5090 C   0  0  0  0  0  0  0  0  0  0  0  0
  141.3180   71.8900  221.5860 C   0  0  0  0  0  0  0  0  0  0  0  0
  140.7000   72.0200  222.9350 C   0  0  0  0  0  0  0  0  0  0  0  0
  139.8580   70.8420  223.3590 C   0  0  1  0  0  0  0  0  0  0  0  0
  139.2160   71.1380  224.6690 C   0  0  0  0  0  0  0  0  0  0  0  0
  139.7520   70.1840  225.6990 C   0  0  0  0  0  0  0  0  0  0  0  0
  140.4390   70.6540  226.8130 C   0  0  0  0  0  0  0  0  0  0  0  0
  140.9470   69.8120  227.7810 C   0  0  0  0  0  0  0  0  0  0  0  0
  140.7780   68.4480  227.6560 C   0  0  0  0  0  0  0  0  0  0  0  0
  140.0960   67.9670  226.5500 C   0  0  0  0  0  0  0  0  0  0  0  0
  139.5950   68.8220  225.5930 C   0  0  0  0  0  0  0  0  0  0  0  0
  139.0120   75.0080  221.6400 C   0  0  0  0  0  0  0  0  0  0  0  0
  140.3410   74.9940  221.2730 C   0  0  0  0  0  0  0  0  0  0  0  0
  141.1770   76.0670  221.4770 C   0  0  0  0  0  0  0  0  0  0  0  0
  140.6570   77.1850  222.0670 C   0  0  0  0  0  0  0  0  0  0  0  0
  141.4740   78.2750  222.2830 C   0  0  0  0  0  0  0  0  0  0  0  0
  140.9490   79.4000  222.8770 C   0  0  0  0  0  0  0  0  0  0  0  0
  141.8490   80.5650  223.1000 C   0  0  0  0  0  0  0  0  0  0  0  0
  141.4550   81.3030  224.2030 F   0  0  0  0  0  0  0  0  0  0  0  0
  141.7750   81.3770  221.9610 F   0  0  0  0  0  0  0  0  0  0  0  0
  143.1450   80.1270  223.1950 F   0  0  0  0  0  0  0  0  0  0  0  0
  139.6030   79.4320  223.2560 C   0  0  0  0  0  0  0  0  0  0  0  0
  138.7860   78.3210  223.0320 C   0  0  0  0  0  0  0  0  0  0  0  0
  139.3080   77.1930  222.4360 C   0  0  0  0  0  0  0  0  0  0  0  0
  138.5170   76.1150  222.2190 N   0  0  0  0  0  0  0  0  0  0  0  0
  137.6880   73.3850  223.4190 H   0  0  0  0  0  0  0  0  0  0  0  0
  135.8639   71.9433  222.5713 H   0  0  0  0  0  0  0  0  0  0  0  0
  136.7019   71.9288  220.9578 H   0  0  0  0  0  0  0  0  0  0  0  0
  140.1463   69.3121  221.1143 H   0  0  0  0  0  0  0  0  0  0  0  0
  138.7510   70.0511  220.2466 H   0  0  0  0  0  0  0  0  0  0  0  0
  141.0643   70.9680  219.6921 H   0  0  0  0  0  0  0  0  0  0  0  0
  139.7776   72.1648  220.1754 H   0  0  0  0  0  0  0  0  0  0  0  0
  142.1870   71.2217  221.6767 H   0  0  0  0  0  0  0  0  0  0  0  0
  141.5693   72.9146  221.2745 H   0  0  0  0  0  0  0  0  0  0  0  0
  141.5076   72.1465  223.6711 H   0  0  0  0  0  0  0  0  0  0  0  0
  140.0216   72.8844  222.8839 H   0  0  0  0  0  0  0  0  0  0  0  0
  140.4467   69.9281  223.5266 H   0  0  0  0  0  0  0  0  0  0  0  0
  139.4455   72.1715  224.9678 H   0  0  0  0  0  0  0  0  0  0  0  0
  138.1254   71.0222  224.5848 H   0  0  0  0  0  0  0  0  0  0  0  0
  140.5830   71.7386  226.9269 H   0  0  0  0  0  0  0  0  0  0  0  0
  141.4837   70.2257  228.6475 H   0  0  0  0  0  0  0  0  0  0  0  0
  141.1752   67.7593  228.4162 H   0  0  0  0  0  0  0  0  0  0  0  0
  139.9519   66.8827  226.4340 H   0  0  0  0  0  0  0  0  0  0  0  0
  139.0587   68.4069  224.7269 H   0  0  0  0  0  0  0  0  0  0  0  0
  140.7487   74.0892  220.7984 H   0  0  0  0  0  0  0  0  0  0  0  0
  142.2337   76.0266  221.1741 H   0  0  0  0  0  0  0  0  0  0  0  0
  142.5322   78.2455  221.9842 H   0  0  0  0  0  0  0  0  0  0  0  0
  139.1872   80.3329  223.7309 H   0  0  0  0  0  0  0  0  0  0  0  0
  137.7277   78.3464  223.3308 H   0  0  0  0  0  0  0  0  0  0  0  0
  1  2  2  0
  2  3  1  0
  3  4  1  0
  4  5  1  0
  5  6  2  0
  5  7  1  0
  7  8  1  0
  8  9  1  0
  9 10  1  0
 10 11  1  0
 11 12  1  0
 12 13  1  0
 13 14  1  0
 14 15  2  0
 15 16  1  0
 16 17  2  0
 17 18  1  0
 18 19  2  0
  2 20  1  0
 20 21  2  0
 21 22  1  0
 22 23  2  0
 23 24  1  0
 24 25  2  0
 25 26  1  0
 26 27  1  0
 26 28  1  0
 26 29  1  0
 25 30  1  0
 30 31  2  0
 31 32  1  0
 32 33  2  0
 12  7  1  0
 19 14  1  0
 33 20  1  0
 32 23  1  0
  3 34  1  0
  4 35  1  0
  4 36  1  0
  8 37  1  0
  8 38  1  0
  9 39  1  0
  9 40  1  0
 10 41  1  0
 10 42  1  0
 11 43  1  0
 11 44  1  0
 12 45  1  1
 13 46  1  0
 13 47  1  0
 15 48  1  0
 16 49  1  0
 17 50  1  0
 18 51  1  0
 19 52  1  0
 21 53  1  0
 22 54  1  0
 24 55  1  0
 30 56  1  0
 31 57  1  0
M  END
>  <smiles>  (83) 
O=C(NCC(=O)N1CCCCC1Cc1ccccc1)c1ccc2cc(C(F)(F)F)ccc2n1

>  <score_type>  (83) 
oracle

>  <origin>  (83) 
autodockgpu

>  <m_score__min__energy>  (83) 
-8.4199999999999999

>  <m_primary>  (83) 
energy

>  <rmsd>  (83) 
7.080937765241636

>  <m_score__min__rmsd>  (83) 
7.080937765241636

>  <meeko>  (83) 
{"free_energy": -7.84, "intermolecular_energy": -9.93, "internal_energy": -2.27, "cluster_size": 38, "cluster_id": 2, "rank_in_cluster": 22}

>  <energy>  (83) 
-7.84

>  <cluster_rmsd>  (83) 
1.49

>  <cluster>  (83) 
2

$$$$

     RDKit          3D

 57 60  0  0  0  0  0  0  0  0999 V2000
  139.6170   72.8610  220.5570 O   0  0  0  0  0  0  0  0  0  0  0  0
  139.2290   73.7030  221.4250 C   0  0  0  0  0  0  0  0  0  0  0  0
  138.1640   73.2810  222.2680 N   0  0  0  0  0  0  0  0  0  0  0  0
  137.6320   71.9590  222.0600 C   0  0  0  0  0  0  0  0  0  0  0  0
  137.1400   71.3440  223.3170 C   0  0  0  0  0  0  0  0  0  0  0  0
  136.6000   72.1210  224.1510 O   0  0  0  0  0  0  0  0  0  0  0  0
  137.2960   69.9560  223.5080 N   0  0  0  0  0  0  0  0  0  0  0  0
  136.1320   69.0570  223.4490 C   0  0  0  0  0  0  0  0  0  0  0  0
  136.3150   68.0420  222.3460 C   0  0  0  0  0  0  0  0  0  0  0  0
  137.6800   67.4260  222.3400 C   0  0  0  0  0  0  0  0  0  0  0  0
  138.8110   68.3490  222.6310 C   0  0  0  0  0  0  0  0  0  0  0  0
  138.5680   69.3080  223.7700 C   0  0  1  0  0  0  0  0  0  0  0  0
  139.7230   70.2390  223.8900 C   0  0  0  0  0  0  0  0  0  0  0  0
  140.0250   70.4540  225.3470 C   0  0  0  0  0  0  0  0  0  0  0  0
  140.7570   71.5580  225.7660 C   0  0  0  0  0  0  0  0  0  0  0  0
  141.0570   71.7910  227.0920 C   0  0  0  0  0  0  0  0  0  0  0  0
  140.6220   70.9040  228.0560 C   0  0  0  0  0  0  0  0  0  0  0  0
  139.8910   69.7980  227.6510 C   0  0  0  0  0  0  0  0  0  0  0  0
  139.6010   69.5810  226.3220 C   0  0  0  0  0  0  0  0  0  0  0  0
  139.8400   75.0190  221.5510 C   0  0  0  0  0  0  0  0  0  0  0  0
  141.0160   75.2520  220.8720 C   0  0  0  0  0  0  0  0  0  0  0  0
  141.6750   76.4590  220.9230 C   0  0  0  0  0  0  0  0  0  0  0  0
  141.1290   77.4580  221.6790 C   0  0  0  0  0  0  0  0  0  0  0  0
  141.7690   78.6780  221.7470 C   0  0  0  0  0  0  0  0  0  0  0  0
  141.2190   79.6830  222.5090 C   0  0  0  0  0  0  0  0  0  0  0  0
  141.9260   80.9920  222.5670 C   0  0  0  0  0  0  0  0  0  0  0  0
  141.5510   81.8150  221.5200 F   0  0  0  0  0  0  0  0  0  0  0  0
  143.2990   80.7330  222.4710 F   0  0  0  0  0  0  0  0  0  0  0  0
  141.7140   81.5700  223.7930 F   0  0  0  0  0  0  0  0  0  0  0  0
  140.0250   79.4650  223.2050 C   0  0  0  0  0  0  0  0  0  0  0  0
  139.3860   78.2250  223.1280 C   0  0  0  0  0  0  0  0  0  0  0  0
  139.9350   77.2160  222.3650 C   0  0  0  0  0  0  0  0  0  0  0  0
  139.3160   76.0120  222.2900 N   0  0  0  0  0  0  0  0  0  0  0  0
  137.7870   73.9190  223.0110 H   0  0  0  0  0  0  0  0  0  0  0  0
  136.7967   72.0223  221.3470 H   0  0  0  0  0  0  0  0  0  0  0  0
  138.4449   71.3271  221.6728 H   0  0  0  0  0  0  0  0  0  0  0  0
  136.0273   68.5339  224.4110 H   0  0  0  0  0  0  0  0  0  0  0  0
  135.2287   69.6508  223.2453 H   0  0  0  0  0  0  0  0  0  0  0  0
  135.5702   67.2432  222.4773 H   0  0  0  0  0  0  0  0  0  0  0  0
  136.1868   68.5687  221.3888 H   0  0  0  0  0  0  0  0  0  0  0  0
  137.6929   66.6279  223.0969 H   0  0  0  0  0  0  0  0  0  0  0  0
  137.8421   67.0715  221.3114 H   0  0  0  0  0  0  0  0  0  0  0  0
  139.6939   67.7411  222.8779 H   0  0  0  0  0  0  0  0  0  0  0  0
  138.9468   68.9659  221.7304 H   0  0  0  0  0  0  0  0  0  0  0  0
  138.4986   68.8089  224.7478 H   0  0  0  0  0  0  0  0  0  0  0  0
  140.6015   69.8040  223.3910 H   0  0  0  0  0  0  0  0  0  0  0  0
  139.4784   71.2000  223.4140 H   0  0  0  0  0  0  0  0  0  0  0  0
  141.1113   72.2746  225.0104 H   0  0  0  0  0  0  0  0  0  0  0  0
  141.6396   72.6786  227.3796 H   0  0  0  0  0  0  0  0  0  0  0  0
  140.8497   71.0706  229.1192 H   0  0  0  0  0  0  0  0  0  0  0  0
  139.5359   69.0802  228.4051 H   0  0  0  0  0  0  0  0  0  0  0  0
  139.0193   68.6927  226.0348 H   0  0  0  0  0  0  0  0  0  0  0  0
  141.4451   74.4411  220.2651 H   0  0  0  0  0  0  0  0  0  0  0  0
  142.6138   76.6151  220.3714 H   0  0  0  0  0  0  0  0  0  0  0  0
  142.7078   78.8454  221.1986 H   0  0  0  0  0  0  0  0  0  0  0  0
  139.5889   80.2709  223.8135 H   0  0  0  0  0  0  0  0  0  0  0  0
  138.4470   78.0539  223.6748 H   0  0  0  0  0  0  0  0  0  0  0  0
  1  2  2  0
  2  3  1  0
  3  4  1  0
  4  5  1  0
  5  6  2  0
  5  7  1  0
  7  8  1  0
  8  9  1  0
  9 10  1  0
 10 11  1  0
 11 12  1  0
 12 13  1  0
 13 14  1  0
 14 15  2  0
 15 16  1  0
 16 17  2  0
 17 18  1  0
 18 19  2  0
  2 20  1  0
 20 21  2  0
 21 22  1  0
 22 23  2  0
 23 24  1  0
 24 25  2  0
 25 26  1  0
 26 27  1  0
 26 28  1  0
 26 29  1  0
 25 30  1  0
 30 31  2  0
 31 32  1  0
 32 33  2  0
 12  7  1  0
 19 14  1  0
 33 20  1  0
 32 23  1  0
  3 34  1  0
  4 35  1  0
  4 36  1  0
  8 37  1  0
  8 38  1  0
  9 39  1  0
  9 40  1  0
 10 41  1  0
 10 42  1  0
 11 43  1  0
 11 44  1  0
 12 45  1  1
 13 46  1  0
 13 47  1  0
 15 48  1  0
 16 49  1  0
 17 50  1  0
 18 51  1  0
 19 52  1  0
 21 53  1  0
 22 54  1  0
 24 55  1  0
 30 56  1  0
 31 57  1  0
M  END
>  <smiles>  (84) 
O=C(NCC(=O)N1CCCCC1Cc1ccccc1)c1ccc2cc(C(F)(F)F)ccc2n1

>  <score_type>  (84) 
oracle

>  <origin>  (84) 
autodockgpu

>  <m_score__min__energy>  (84) 
-8.4199999999999999

>  <m_primary>  (84) 
energy

>  <rmsd>  (84) 
8.0473094371275

>  <m_score__min__rmsd>  (84) 
8.0473094371275

>  <meeko>  (84) 
{"free_energy": -7.9, "intermolecular_energy": -9.99, "internal_energy": -2.16, "cluster_size": 38, "cluster_id": 2, "rank_in_cluster": 14}

>  <energy>  (84) 
-7.83

>  <cluster_rmsd>  (84) 
1.45

>  <cluster>  (84) 
2

$$$$

     RDKit          3D

 57 60  0  0  0  0  0  0  0  0999 V2000
  138.2060   73.0970  220.3140 O   0  0  0  0  0  0  0  0  0  0  0  0
  138.2580   73.6460  221.4590 C   0  0  0  0  0  0  0  0  0  0  0  0
  137.5200   73.0020  222.4900 N   0  0  0  0  0  0  0  0  0  0  0  0
  136.7930   71.8070  222.1460 C   0  0  0  0  0  0  0  0  0  0  0  0
  137.4560   70.5790  222.6450 C   0  0  0  0  0  0  0  0  0  0  0  0
  136.7150   69.7250  223.2040 O   0  0  0  0  0  0  0  0  0  0  0  0
  138.8480   70.4330  222.4720 N   0  0  0  0  0  0  0  0  0  0  0  0
  139.3960   69.9620  221.1890 C   0  0  0  0  0  0  0  0  0  0  0  0
  140.3140   71.0070  220.6010 C   0  0  0  0  0  0  0  0  0  0  0  0
  141.2660   71.5780  221.6060 C   0  0  0  0  0  0  0  0  0  0  0  0
  140.7080   71.8260  222.9640 C   0  0  0  0  0  0  0  0  0  0  0  0
  139.8320   70.7210  223.4980 C   0  0  1  0  0  0  0  0  0  0  0  0
  139.2560   71.1340  224.8070 C   0  0  0  0  0  0  0  0  0  0  0  0
  139.8700   70.2970  225.8940 C   0  0  0  0  0  0  0  0  0  0  0  0
  139.7890   68.9100  225.8550 C   0  0  0  0  0  0  0  0  0  0  0  0
  140.3370   68.1060  226.8330 C   0  0  0  0  0  0  0  0  0  0  0  0
  140.9960   68.6820  227.9000 C   0  0  0  0  0  0  0  0  0  0  0  0
  141.0830   70.0640  227.9520 C   0  0  0  0  0  0  0  0  0  0  0  0
  140.5290   70.8520  226.9660 C   0  0  0  0  0  0  0  0  0  0  0  0
  139.0280   74.8580  221.6990 C   0  0  0  0  0  0  0  0  0  0  0  0
  140.3600   74.8570  221.3480 C   0  0  0  0  0  0  0  0  0  0  0  0
  141.1760   75.9490  221.5320 C   0  0  0  0  0  0  0  0  0  0  0  0
  140.6320   77.0730  222.0870 C   0  0  0  0  0  0  0  0  0  0  0  0
  141.4280   78.1810  222.2830 C   0  0  0  0  0  0  0  0  0  0  0  0
  140.8780   79.3120  222.8420 C   0  0  0  0  0  0  0  0  0  0  0  0
  141.7560   80.4980  223.0440 C   0  0  0  0  0  0  0  0  0  0  0  0
  143.0860   80.1290  223.1460 F   0  0  0  0  0  0  0  0  0  0  0  0
  141.3630   81.1140  224.2390 F   0  0  0  0  0  0  0  0  0  0  0  0
  141.5380   81.4030  222.0370 F   0  0  0  0  0  0  0  0  0  0  0  0
  139.5280   79.3330  223.2060 C   0  0  0  0  0  0  0  0  0  0  0  0
  138.7310   78.2030  223.0020 C   0  0  0  0  0  0  0  0  0  0  0  0
  139.2790   77.0680  222.4420 C   0  0  0  0  0  0  0  0  0  0  0  0
  138.5070   75.9710  222.2450 N   0  0  0  0  0  0  0  0  0  0  0  0
  137.5130   73.3930  223.4640 H   0  0  0  0  0  0  0  0  0  0  0  0
  135.7859   71.8677  222.5842 H   0  0  0  0  0  0  0  0  0  0  0  0
  136.7519   71.7436  221.0486 H   0  0  0  0  0  0  0  0  0  0  0  0
  139.9612   69.0328  221.3541 H   0  0  0  0  0  0  0  0  0  0  0  0
  138.5670   69.7771  220.4900 H   0  0  0  0  0  0  0  0  0  0  0  0
  140.8955   70.5464  219.7888 H   0  0  0  0  0  0  0  0  0  0  0  0
  139.6844   71.8321  220.2366 H   0  0  0  0  0  0  0  0  0  0  0  0
  142.1067   70.8763  221.7102 H   0  0  0  0  0  0  0  0  0  0  0  0
  141.5515   72.5665  221.2169 H   0  0  0  0  0  0  0  0  0  0  0  0
  141.5488   71.9630  223.6599 H   0  0  0  0  0  0  0  0  0  0  0  0
  140.0670   72.7158  222.8782 H   0  0  0  0  0  0  0  0  0  0  0  0
  140.3855   69.7935  223.7061 H   0  0  0  0  0  0  0  0  0  0  0  0
  139.4770   72.1961  224.9892 H   0  0  0  0  0  0  0  0  0  0  0  0
  138.1655   70.9904  224.7966 H   0  0  0  0  0  0  0  0  0  0  0  0
  139.2674   68.4347  225.0112 H   0  0  0  0  0  0  0  0  0  0  0  0
  140.2492   67.0118  226.7627 H   0  0  0  0  0  0  0  0  0  0  0  0
  141.4413   68.0593  228.6899 H   0  0  0  0  0  0  0  0  0  0  0  0
  141.6036   70.5409  228.7955 H   0  0  0  0  0  0  0  0  0  0  0  0
  140.6157   71.9462  227.0380 H   0  0  0  0  0  0  0  0  0  0  0  0
  140.7882   73.9468  220.9029 H   0  0  0  0  0  0  0  0  0  0  0  0
  142.2363   75.9183  221.2407 H   0  0  0  0  0  0  0  0  0  0  0  0
  142.4898   78.1616  221.9962 H   0  0  0  0  0  0  0  0  0  0  0  0
  139.0931   80.2391  223.6530 H   0  0  0  0  0  0  0  0  0  0  0  0
  137.6688   78.2189  223.2875 H   0  0  0  0  0  0  0  0  0  0  0  0
  1  2  2  0
  2  3  1  0
  3  4  1  0
  4  5  1  0
  5  6  2  0
  5  7  1  0
  7  8  1  0
  8  9  1  0
  9 10  1  0
 10 11  1  0
 11 12  1  0
 12 13  1  0
 13 14  1  0
 14 15  2  0
 15 16  1  0
 16 17  2  0
 17 18  1  0
 18 19  2  0
  2 20  1  0
 20 21  2  0
 21 22  1  0
 22 23  2  0
 23 24  1  0
 24 25  2  0
 25 26  1  0
 26 27  1  0
 26 28  1  0
 26 29  1  0
 25 30  1  0
 30 31  2  0
 31 32  1  0
 32 33  2  0
 12  7  1  0
 19 14  1  0
 33 20  1  0
 32 23  1  0
  3 34  1  0
  4 35  1  0
  4 36  1  0
  8 37  1  0
  8 38  1  0
  9 39  1  0
  9 40  1  0
 10 41  1  0
 10 42  1  0
 11 43  1  0
 11 44  1  0
 12 45  1  1
 13 46  1  0
 13 47  1  0
 15 48  1  0
 16 49  1  0
 17 50  1  0
 18 51  1  0
 19 52  1  0
 21 53  1  0
 22 54  1  0
 24 55  1  0
 30 56  1  0
 31 57  1  0
M  END
>  <smiles>  (85) 
O=C(NCC(=O)N1CCCCC1Cc1ccccc1)c1ccc2cc(C(F)(F)F)ccc2n1

>  <score_type>  (85) 
oracle

>  <origin>  (85) 
autodockgpu

>  <m_score__min__energy>  (85) 
-8.4199999999999999

>  <m_primary>  (85) 
energy

>  <rmsd>  (85) 
7.11059709630609

>  <m_score__min__rmsd>  (85) 
7.11059709630609

>  <meeko>  (85) 
{"free_energy": -7.79, "intermolecular_energy": -9.88, "internal_energy": -2.28, "cluster_size": 38, "cluster_id": 2, "rank_in_cluster": 30}

>  <energy>  (85) 
-7.82

>  <cluster_rmsd>  (85) 
1.41

>  <cluster>  (85) 
2

$$$$

     RDKit          3D

 57 60  0  0  0  0  0  0  0  0999 V2000
  138.0490   73.4190  220.2100 O   0  0  0  0  0  0  0  0  0  0  0  0
  138.2130   73.8490  221.3950 C   0  0  0  0  0  0  0  0  0  0  0  0
  137.5830   73.0940  222.4230 N   0  0  0  0  0  0  0  0  0  0  0  0
  136.8290   71.9310  222.0310 C   0  0  0  0  0  0  0  0  0  0  0  0
  137.5030   70.6660  222.4130 C   0  0  0  0  0  0  0  0  0  0  0  0
  136.7610   69.7360  222.8330 O   0  0  0  0  0  0  0  0  0  0  0  0
  138.9040   70.5720  222.2880 N   0  0  0  0  0  0  0  0  0  0  0  0
  139.5170   70.2000  221.0020 C   0  0  0  0  0  0  0  0  0  0  0  0
  140.4250   71.3060  220.5190 C   0  0  0  0  0  0  0  0  0  0  0  0
  141.3180   71.8390  221.5960 C   0  0  0  0  0  0  0  0  0  0  0  0
  140.6990   71.9840  222.9430 C   0  0  0  0  0  0  0  0  0  0  0  0
  139.8370   70.8220  223.3700 C   0  0  1  0  0  0  0  0  0  0  0  0
  139.1980   71.1340  224.6780 C   0  0  0  0  0  0  0  0  0  0  0  0
  139.7560   70.2110  225.7240 C   0  0  0  0  0  0  0  0  0  0  0  0
  139.5570   68.8380  225.6410 C   0  0  0  0  0  0  0  0  0  0  0  0
  140.0510   67.9580  226.5810 C   0  0  0  0  0  0  0  0  0  0  0  0
  140.7730   68.4390  227.6540 C   0  0  0  0  0  0  0  0  0  0  0  0
  140.9780   69.8070  227.7500 C   0  0  0  0  0  0  0  0  0  0  0  0
  140.4770   70.6710  226.8020 C   0  0  0  0  0  0  0  0  0  0  0  0
  138.9990   75.0410  221.6820 C   0  0  0  0  0  0  0  0  0  0  0  0
  140.3390   75.0230  221.3610 C   0  0  0  0  0  0  0  0  0  0  0  0
  141.1700   76.0940  221.5900 C   0  0  0  0  0  0  0  0  0  0  0  0
  140.6340   77.2150  222.1580 C   0  0  0  0  0  0  0  0  0  0  0  0
  141.4450   78.3040  222.3980 C   0  0  0  0  0  0  0  0  0  0  0  0
  140.9030   79.4320  222.9710 C   0  0  0  0  0  0  0  0  0  0  0  0
  141.7980   80.5960  223.2210 C   0  0  0  0  0  0  0  0  0  0  0  0
  141.1260   81.6200  223.8660 F   0  0  0  0  0  0  0  0  0  0  0  0
  142.2430   81.0590  221.9760 F   0  0  0  0  0  0  0  0  0  0  0  0
  142.9070   80.1770  223.9110 F   0  0  0  0  0  0  0  0  0  0  0  0
  139.5450   79.4700  223.3030 C   0  0  0  0  0  0  0  0  0  0  0  0
  138.7330   78.3600  223.0550 C   0  0  0  0  0  0  0  0  0  0  0  0
  139.2730   77.2280  222.4810 C   0  0  0  0  0  0  0  0  0  0  0  0
  138.4860   76.1510  222.2400 N   0  0  0  0  0  0  0  0  0  0  0  0
  137.6720   73.3840  223.4270 H   0  0  0  0  0  0  0  0  0  0  0  0
  135.8437   71.9677  222.5187 H   0  0  0  0  0  0  0  0  0  0  0  0
  136.7365   71.9445  220.9350 H   0  0  0  0  0  0  0  0  0  0  0  0
  140.1037   69.2786  221.1319 H   0  0  0  0  0  0  0  0  0  0  0  0
  138.7225   70.0370  220.2589 H   0  0  0  0  0  0  0  0  0  0  0  0
  141.0524   70.9145  219.7047 H   0  0  0  0  0  0  0  0  0  0  0  0
  139.7851   72.1344  220.1809 H   0  0  0  0  0  0  0  0  0  0  0  0
  142.1755   71.1566  221.6910 H   0  0  0  0  0  0  0  0  0  0  0  0
  141.5875   72.8580  221.2814 H   0  0  0  0  0  0  0  0  0  0  0  0
  141.5069   72.1003  223.6804 H   0  0  0  0  0  0  0  0  0  0  0  0
  140.0346   72.8589  222.8866 H   0  0  0  0  0  0  0  0  0  0  0  0
  140.4098   69.8988  223.5421 H   0  0  0  0  0  0  0  0  0  0  0  0
  139.4117   72.1772  224.9540 H   0  0  0  0  0  0  0  0  0  0  0  0
  138.1090   70.9978  224.6030 H   0  0  0  0  0  0  0  0  0  0  0  0
  138.9830   68.4375  224.7924 H   0  0  0  0  0  0  0  0  0  0  0  0
  139.8703   66.8780  226.4759 H   0  0  0  0  0  0  0  0  0  0  0  0
  141.1760   67.7541  228.4145 H   0  0  0  0  0  0  0  0  0  0  0  0
  141.5510   70.2092  228.5985 H   0  0  0  0  0  0  0  0  0  0  0  0
  140.6568   71.7509  226.9086 H   0  0  0  0  0  0  0  0  0  0  0  0
  140.7604   74.1158  220.9034 H   0  0  0  0  0  0  0  0  0  0  0  0
  142.2363   76.0496  221.3234 H   0  0  0  0  0  0  0  0  0  0  0  0
  142.5125   78.2717  222.1346 H   0  0  0  0  0  0  0  0  0  0  0  0
  139.1158   80.3741  223.7596 H   0  0  0  0  0  0  0  0  0  0  0  0
  137.6651   78.3890  223.3171 H   0  0  0  0  0  0  0  0  0  0  0  0
  1  2  2  0
  2  3  1  0
  3  4  1  0
  4  5  1  0
  5  6  2  0
  5  7  1  0
  7  8  1  0
  8  9  1  0
  9 10  1  0
 10 11  1  0
 11 12  1  0
 12 13  1  0
 13 14  1  0
 14 15  2  0
 15 16  1  0
 16 17  2  0
 17 18  1  0
 18 19  2  0
  2 20  1  0
 20 21  2  0
 21 22  1  0
 22 23  2  0
 23 24  1  0
 24 25  2  0
 25 26  1  0
 26 27  1  0
 26 28  1  0
 26 29  1  0
 25 30  1  0
 30 31  2  0
 31 32  1  0
 32 33  2  0
 12  7  1  0
 19 14  1  0
 33 20  1  0
 32 23  1  0
  3 34  1  0
  4 35  1  0
  4 36  1  0
  8 37  1  0
  8 38  1  0
  9 39  1  0
  9 40  1  0
 10 41  1  0
 10 42  1  0
 11 43  1  0
 11 44  1  0
 12 45  1  1
 13 46  1  0
 13 47  1  0
 15 48  1  0
 16 49  1  0
 17 50  1  0
 18 51  1  0
 19 52  1  0
 21 53  1  0
 22 54  1  0
 24 55  1  0
 30 56  1  0
 31 57  1  0
M  END
>  <smiles>  (86) 
O=C(NCC(=O)N1CCCCC1Cc1ccccc1)c1ccc2cc(C(F)(F)F)ccc2n1

>  <score_type>  (86) 
oracle

>  <origin>  (86) 
autodockgpu

>  <m_score__min__energy>  (86) 
-8.4199999999999999

>  <m_primary>  (86) 
energy

>  <rmsd>  (86) 
7.090970067452064

>  <m_score__min__rmsd>  (86) 
7.090970067452064

>  <meeko>  (86) 
{"free_energy": -7.81, "intermolecular_energy": -9.9, "internal_energy": -2.28, "cluster_size": 38, "cluster_id": 2, "rank_in_cluster": 26}

>  <energy>  (86) 
-7.81

>  <cluster_rmsd>  (86) 
1.47

>  <cluster>  (86) 
2

$$$$

     RDKit          3D

 57 60  0  0  0  0  0  0  0  0999 V2000
  137.8130   72.8170  220.8380 O   0  0  0  0  0  0  0  0  0  0  0  0
  137.6880   73.3770  221.9710 C   0  0  0  0  0  0  0  0  0  0  0  0
  137.1000   72.5840  222.9950 N   0  0  0  0  0  0  0  0  0  0  0  0
  136.7070   71.2400  222.6560 C   0  0  0  0  0  0  0  0  0  0  0  0
  137.6250   70.2230  223.2230 C   0  0  0  0  0  0  0  0  0  0  0  0
  137.1120   69.3690  223.9970 O   0  0  0  0  0  0  0  0  0  0  0  0
  138.9900   70.2630  222.8740 N   0  0  0  0  0  0  0  0  0  0  0  0
  139.4370   69.8030  221.5490 C   0  0  0  0  0  0  0  0  0  0  0  0
  140.1140   70.9310  220.8080 C   0  0  0  0  0  0  0  0  0  0  0  0
  141.0910   71.6830  221.6580 C   0  0  0  0  0  0  0  0  0  0  0  0
  140.6760   71.9260  223.0670 C   0  0  0  0  0  0  0  0  0  0  0  0
  140.0420   70.7410  223.7520 C   0  0  1  0  0  0  0  0  0  0  0  0
  139.5800   71.1410  225.1090 C   0  0  0  0  0  0  0  0  0  0  0  0
  140.0610   70.1240  226.1060 C   0  0  0  0  0  0  0  0  0  0  0  0
  139.9610   68.7640  225.8380 C   0  0  0  0  0  0  0  0  0  0  0  0
  140.3880   67.7990  226.7270 C   0  0  0  0  0  0  0  0  0  0  0  0
  140.9410   68.1790  227.9330 C   0  0  0  0  0  0  0  0  0  0  0  0
  141.0460   69.5320  228.2130 C   0  0  0  0  0  0  0  0  0  0  0  0
  140.6130   70.4820  227.3140 C   0  0  0  0  0  0  0  0  0  0  0  0
  138.1220   74.7470  222.2080 C   0  0  0  0  0  0  0  0  0  0  0  0
  137.1560   75.6920  222.4780 C   0  0  0  0  0  0  0  0  0  0  0  0
  137.4570   77.0130  222.7160 C   0  0  0  0  0  0  0  0  0  0  0  0
  138.7700   77.3900  222.6790 C   0  0  0  0  0  0  0  0  0  0  0  0
  139.0990   78.7080  222.9140 C   0  0  0  0  0  0  0  0  0  0  0  0
  140.4220   79.0870  222.8770 C   0  0  0  0  0  0  0  0  0  0  0  0
  140.7540   80.5150  223.1340 C   0  0  0  0  0  0  0  0  0  0  0  0
  141.9070   80.6370  223.8910 F   0  0  0  0  0  0  0  0  0  0  0  0
  139.6840   81.0750  223.8440 F   0  0  0  0  0  0  0  0  0  0  0  0
  140.8360   81.1860  221.9400 F   0  0  0  0  0  0  0  0  0  0  0  0
  141.4170   78.1420  222.6040 C   0  0  0  0  0  0  0  0  0  0  0  0
  141.0700   76.8090  222.3680 C   0  0  0  0  0  0  0  0  0  0  0  0
  139.7450   76.4270  222.4050 C   0  0  0  0  0  0  0  0  0  0  0  0
  139.4090   75.1350  222.1750 N   0  0  0  0  0  0  0  0  0  0  0  0
  136.9630   72.9750  223.9590 H   0  0  0  0  0  0  0  0  0  0  0  0
  135.6946   71.0589  223.0462 H   0  0  0  0  0  0  0  0  0  0  0  0
  136.7390   71.1473  221.5604 H   0  0  0  0  0  0  0  0  0  0  0  0
  140.1467   68.9718  221.6730 H   0  0  0  0  0  0  0  0  0  0  0  0
  138.5632   69.4668  220.9715 H   0  0  0  0  0  0  0  0  0  0  0  0
  140.6505   70.5114  219.9442 H   0  0  0  0  0  0  0  0  0  0  0  0
  139.3314   71.6396  220.4990 H   0  0  0  0  0  0  0  0  0  0  0  0
  142.0305   71.1113  221.6774 H   0  0  0  0  0  0  0  0  0  0  0  0
  141.1803   72.6784  221.1985 H   0  0  0  0  0  0  0  0  0  0  0  0
  141.5680   72.2167  223.6414 H   0  0  0  0  0  0  0  0  0  0  0  0
  139.9074   72.7121  223.0327 H   0  0  0  0  0  0  0  0  0  0  0  0
  140.7452   69.9121  223.9204 H   0  0  0  0  0  0  0  0  0  0  0  0
  139.9905   72.1295  225.3624 H   0  0  0  0  0  0  0  0  0  0  0  0
  138.4814   71.1921  225.1289 H   0  0  0  0  0  0  0  0  0  0  0  0
  139.5246   68.4445  224.8802 H   0  0  0  0  0  0  0  0  0  0  0  0
  140.2882   66.7327  226.4759 H   0  0  0  0  0  0  0  0  0  0  0  0
  141.2901   67.4258  228.6547 H   0  0  0  0  0  0  0  0  0  0  0  0
  141.4828   69.8533  229.1700 H   0  0  0  0  0  0  0  0  0  0  0  0
  140.7107   71.5480  227.5673 H   0  0  0  0  0  0  0  0  0  0  0  0
  136.1023   75.3775  222.5042 H   0  0  0  0  0  0  0  0  0  0  0  0
  136.6639   77.7446  222.9299 H   0  0  0  0  0  0  0  0  0  0  0  0
  138.3138   79.4479  223.1285 H   0  0  0  0  0  0  0  0  0  0  0  0
  142.4731   78.4485  222.5751 H   0  0  0  0  0  0  0  0  0  0  0  0
  141.8520   76.0658  222.1531 H   0  0  0  0  0  0  0  0  0  0  0  0
  1  2  2  0
  2  3  1  0
  3  4  1  0
  4  5  1  0
  5  6  2  0
  5  7  1  0
  7  8  1  0
  8  9  1  0
  9 10  1  0
 10 11  1  0
 11 12  1  0
 12 13  1  0
 13 14  1  0
 14 15  2  0
 15 16  1  0
 16 17  2  0
 17 18  1  0
 18 19  2  0
  2 20  1  0
 20 21  2  0
 21 22  1  0
 22 23  2  0
 23 24  1  0
 24 25  2  0
 25 26  1  0
 26 27  1  0
 26 28  1  0
 26 29  1  0
 25 30  1  0
 30 31  2  0
 31 32  1  0
 32 33  2  0
 12  7  1  0
 19 14  1  0
 33 20  1  0
 32 23  1  0
  3 34  1  0
  4 35  1  0
  4 36  1  0
  8 37  1  0
  8 38  1  0
  9 39  1  0
  9 40  1  0
 10 41  1  0
 10 42  1  0
 11 43  1  0
 11 44  1  0
 12 45  1  1
 13 46  1  0
 13 47  1  0
 15 48  1  0
 16 49  1  0
 17 50  1  0
 18 51  1  0
 19 52  1  0
 21 53  1  0
 22 54  1  0
 24 55  1  0
 30 56  1  0
 31 57  1  0
M  END
>  <smiles>  (87) 
O=C(NCC(=O)N1CCCCC1Cc1ccccc1)c1ccc2cc(C(F)(F)F)ccc2n1

>  <score_type>  (87) 
oracle

>  <origin>  (87) 
autodockgpu

>  <m_score__min__energy>  (87) 
-8.4199999999999999

>  <m_primary>  (87) 
energy

>  <rmsd>  (87) 
7.15998197067803

>  <m_score__min__rmsd>  (87) 
7.15998197067803

>  <meeko>  (87) 
{"free_energy": -7.95, "intermolecular_energy": -10.04, "internal_energy": -2.25, "cluster_size": 38, "cluster_id": 2, "rank_in_cluster": 7}

>  <energy>  (87) 
-7.81

>  <cluster_rmsd>  (87) 
1.49

>  <cluster>  (87) 
2

$$$$

     RDKit          3D

 57 60  0  0  0  0  0  0  0  0999 V2000
  138.1990   73.1580  220.2710 O   0  0  0  0  0  0  0  0  0  0  0  0
  138.2580   73.6840  221.4260 C   0  0  0  0  0  0  0  0  0  0  0  0
  137.5250   73.0200  222.4500 N   0  0  0  0  0  0  0  0  0  0  0  0
  136.7960   71.8330  222.0860 C   0  0  0  0  0  0  0  0  0  0  0  0
  137.4580   70.5950  222.5630 C   0  0  0  0  0  0  0  0  0  0  0  0
  136.7120   69.7220  223.0860 O   0  0  0  0  0  0  0  0  0  0  0  0
  138.8530   70.4620  222.4100 N   0  0  0  0  0  0  0  0  0  0  0  0
  139.4260   70.0200  221.1280 C   0  0  0  0  0  0  0  0  0  0  0  0
  140.3460   71.0830  220.5760 C   0  0  0  0  0  0  0  0  0  0  0  0
  141.2780   71.6400  221.6080 C   0  0  0  0  0  0  0  0  0  0  0  0
  140.6960   71.8570  222.9610 C   0  0  0  0  0  0  0  0  0  0  0  0
  139.8180   70.7350  223.4580 C   0  0  1  0  0  0  0  0  0  0  0  0
  139.2180   71.1180  224.7660 C   0  0  0  0  0  0  0  0  0  0  0  0
  139.7830   70.2300  225.8380 C   0  0  0  0  0  0  0  0  0  0  0  0
  139.6890   68.8470  225.7390 C   0  0  0  0  0  0  0  0  0  0  0  0
  140.1930   67.9970  226.7020 C   0  0  0  0  0  0  0  0  0  0  0  0
  140.8180   68.5210  227.8150 C   0  0  0  0  0  0  0  0  0  0  0  0
  140.9180   69.8990  227.9270 C   0  0  0  0  0  0  0  0  0  0  0  0
  140.4080   70.7320  226.9560 C   0  0  0  0  0  0  0  0  0  0  0  0
  139.0300   74.8910  221.6860 C   0  0  0  0  0  0  0  0  0  0  0  0
  140.3540   74.9050  221.3060 C   0  0  0  0  0  0  0  0  0  0  0  0
  141.1710   75.9930  221.5050 C   0  0  0  0  0  0  0  0  0  0  0  0
  140.6360   77.0980  222.1050 C   0  0  0  0  0  0  0  0  0  0  0  0
  141.4330   78.2030  222.3160 C   0  0  0  0  0  0  0  0  0  0  0  0
  140.8930   79.3150  222.9210 C   0  0  0  0  0  0  0  0  0  0  0  0
  141.7730   80.4970  223.1390 C   0  0  0  0  0  0  0  0  0  0  0  0
  142.1140   81.0990  221.9410 F   0  0  0  0  0  0  0  0  0  0  0  0
  142.9390   80.0430  223.7670 F   0  0  0  0  0  0  0  0  0  0  0  0
  141.1620   81.3640  224.0090 F   0  0  0  0  0  0  0  0  0  0  0  0
  139.5510   79.3200  223.3150 C   0  0  0  0  0  0  0  0  0  0  0  0
  138.7530   78.1940  223.0950 C   0  0  0  0  0  0  0  0  0  0  0  0
  139.2910   77.0780  222.4890 C   0  0  0  0  0  0  0  0  0  0  0  0
  138.5180   75.9860  222.2760 N   0  0  0  0  0  0  0  0  0  0  0  0
  137.5240   73.3920  223.4310 H   0  0  0  0  0  0  0  0  0  0  0  0
  135.7895   71.8876  222.5263 H   0  0  0  0  0  0  0  0  0  0  0  0
  136.7535   71.7889  220.9877 H   0  0  0  0  0  0  0  0  0  0  0  0
  139.9953   69.0919  221.2848 H   0  0  0  0  0  0  0  0  0  0  0  0
  138.6104   69.8426  220.4115 H   0  0  0  0  0  0  0  0  0  0  0  0
  140.9437   70.6429  219.7642 H   0  0  0  0  0  0  0  0  0  0  0  0
  139.7166   71.9111  220.2181 H   0  0  0  0  0  0  0  0  0  0  0  0
  142.1216   70.9417  221.7121 H   0  0  0  0  0  0  0  0  0  0  0  0
  141.5634   72.6378  221.2434 H   0  0  0  0  0  0  0  0  0  0  0  0
  141.5242   71.9851  223.6735 H   0  0  0  0  0  0  0  0  0  0  0  0
  140.0508   72.7444  222.8825 H   0  0  0  0  0  0  0  0  0  0  0  0
  140.3736   69.8066  223.6562 H   0  0  0  0  0  0  0  0  0  0  0  0
  139.4597   72.1674  224.9902 H   0  0  0  0  0  0  0  0  0  0  0  0
  138.1249   71.0022  224.7233 H   0  0  0  0  0  0  0  0  0  0  0  0
  139.1933   68.4128  224.8582 H   0  0  0  0  0  0  0  0  0  0  0  0
  140.0971   66.9077  226.5831 H   0  0  0  0  0  0  0  0  0  0  0  0
  141.2269   67.8613  228.5944 H   0  0  0  0  0  0  0  0  0  0  0  0
  141.4135   70.3350  228.8070 H   0  0  0  0  0  0  0  0  0  0  0  0
  140.5024   71.8213  227.0769 H   0  0  0  0  0  0  0  0  0  0  0  0
  140.7745   74.0100  220.8241 H   0  0  0  0  0  0  0  0  0  0  0  0
  142.2249   75.9744  221.1903 H   0  0  0  0  0  0  0  0  0  0  0  0
  142.4879   78.1960  222.0045 H   0  0  0  0  0  0  0  0  0  0  0  0
  139.1234   80.2108  223.7983 H   0  0  0  0  0  0  0  0  0  0  0  0
  137.6975   78.1978  223.4047 H   0  0  0  0  0  0  0  0  0  0  0  0
  1  2  2  0
  2  3  1  0
  3  4  1  0
  4  5  1  0
  5  6  2  0
  5  7  1  0
  7  8  1  0
  8  9  1  0
  9 10  1  0
 10 11  1  0
 11 12  1  0
 12 13  1  0
 13 14  1  0
 14 15  2  0
 15 16  1  0
 16 17  2  0
 17 18  1  0
 18 19  2  0
  2 20  1  0
 20 21  2  0
 21 22  1  0
 22 23  2  0
 23 24  1  0
 24 25  2  0
 25 26  1  0
 26 27  1  0
 26 28  1  0
 26 29  1  0
 25 30  1  0
 30 31  2  0
 31 32  1  0
 32 33  2  0
 12  7  1  0
 19 14  1  0
 33 20  1  0
 32 23  1  0
  3 34  1  0
  4 35  1  0
  4 36  1  0
  8 37  1  0
  8 38  1  0
  9 39  1  0
  9 40  1  0
 10 41  1  0
 10 42  1  0
 11 43  1  0
 11 44  1  0
 12 45  1  1
 13 46  1  0
 13 47  1  0
 15 48  1  0
 16 49  1  0
 17 50  1  0
 18 51  1  0
 19 52  1  0
 21 53  1  0
 22 54  1  0
 24 55  1  0
 30 56  1  0
 31 57  1  0
M  END
>  <smiles>  (88) 
O=C(NCC(=O)N1CCCCC1Cc1ccccc1)c1ccc2cc(C(F)(F)F)ccc2n1

>  <score_type>  (88) 
oracle

>  <origin>  (88) 
autodockgpu

>  <m_score__min__energy>  (88) 
-8.4199999999999999

>  <m_primary>  (88) 
energy

>  <rmsd>  (88) 
7.091506643870805

>  <m_score__min__rmsd>  (88) 
7.091506643870805

>  <meeko>  (88) 
{"free_energy": -7.8, "intermolecular_energy": -9.88, "internal_energy": -2.29, "cluster_size": 38, "cluster_id": 2, "rank_in_cluster": 27}

>  <energy>  (88) 
-7.8

>  <cluster_rmsd>  (88) 
1.47

>  <cluster>  (88) 
2

$$$$

     RDKit          3D

 57 60  0  0  0  0  0  0  0  0999 V2000
  139.7460   73.3880  219.7120 O   0  0  0  0  0  0  0  0  0  0  0  0
  140.4570   73.3960  220.7650 C   0  0  0  0  0  0  0  0  0  0  0  0
  141.4620   74.4010  220.8280 N   0  0  0  0  0  0  0  0  0  0  0  0
  141.5790   75.3010  219.7090 C   0  0  0  0  0  0  0  0  0  0  0  0
  141.1200   76.6720  220.0380 C   0  0  0  0  0  0  0  0  0  0  0  0
  141.8810   77.6190  219.6970 O   0  0  0  0  0  0  0  0  0  0  0  0
  139.8850   76.8420  220.6970 N   0  0  0  0  0  0  0  0  0  0  0  0
  138.6200   76.7650  219.9480 C   0  0  0  0  0  0  0  0  0  0  0  0
  137.7620   75.6470  220.4900 C   0  0  0  0  0  0  0  0  0  0  0  0
  137.6950   75.6370  221.9860 C   0  0  0  0  0  0  0  0  0  0  0  0
  138.9670   75.9460  222.6960 C   0  0  0  0  0  0  0  0  0  0  0  0
  139.7490   77.0990  222.1190 C   0  0  1  0  0  0  0  0  0  0  0  0
  141.0390   77.2370  222.8480 C   0  0  0  0  0  0  0  0  0  0  0  0
  141.3160   78.6970  223.0740 C   0  0  0  0  0  0  0  0  0  0  0  0
  140.2760   79.5900  223.3040 C   0  0  0  0  0  0  0  0  0  0  0  0
  140.4860   80.9370  223.5140 C   0  0  0  0  0  0  0  0  0  0  0  0
  141.7730   81.4370  223.5000 C   0  0  0  0  0  0  0  0  0  0  0  0
  142.8190   80.5570  223.2710 C   0  0  0  0  0  0  0  0  0  0  0  0
  142.5900   79.2150  223.0630 C   0  0  0  0  0  0  0  0  0  0  0  0
  140.2540   72.4370  221.8410 C   0  0  0  0  0  0  0  0  0  0  0  0
  139.5640   71.2790  221.5530 C   0  0  0  0  0  0  0  0  0  0  0  0
  139.3180   70.3080  222.4950 C   0  0  0  0  0  0  0  0  0  0  0  0
  139.7810   70.5120  223.7640 C   0  0  0  0  0  0  0  0  0  0  0  0
  139.5480   69.5540  224.7280 C   0  0  0  0  0  0  0  0  0  0  0  0
  140.0150   69.7610  226.0070 C   0  0  0  0  0  0  0  0  0  0  0  0
  139.7520   68.7130  227.0320 C   0  0  0  0  0  0  0  0  0  0  0  0
  138.8960   67.7380  226.5490 F   0  0  0  0  0  0  0  0  0  0  0  0
  139.1520   69.3400  228.1300 F   0  0  0  0  0  0  0  0  0  0  0  0
  140.9440   68.1950  227.4700 F   0  0  0  0  0  0  0  0  0  0  0  0
  140.7180   70.9290  226.3190 C   0  0  0  0  0  0  0  0  0  0  0  0
  140.9480   71.8920  225.3330 C   0  0  0  0  0  0  0  0  0  0  0  0
  140.4810   71.6880  224.0510 C   0  0  0  0  0  0  0  0  0  0  0  0
  140.7030   72.6220  223.0950 N   0  0  0  0  0  0  0  0  0  0  0  0
  142.0910   74.4740  221.6650 H   0  0  0  0  0  0  0  0  0  0  0  0
  142.6338   75.3459  219.4001 H   0  0  0  0  0  0  0  0  0  0  0  0
  140.9392   74.9172  218.9007 H   0  0  0  0  0  0  0  0  0  0  0  0
  138.0802   77.7183  220.0470 H   0  0  0  0  0  0  0  0  0  0  0  0
  138.8408   76.5675  218.8886 H   0  0  0  0  0  0  0  0  0  0  0  0
  136.7425   75.7632  220.0937 H   0  0  0  0  0  0  0  0  0  0  0  0
  138.2183   74.6974  220.1735 H   0  0  0  0  0  0  0  0  0  0  0  0
  136.9470   76.3821  222.2949 H   0  0  0  0  0  0  0  0  0  0  0  0
  137.4413   74.6039  222.2657 H   0  0  0  0  0  0  0  0  0  0  0  0
  138.7255   76.1856  223.7421 H   0  0  0  0  0  0  0  0  0  0  0  0
  139.6046   75.0558  222.5908 H   0  0  0  0  0  0  0  0  0  0  0  0
  139.2442   78.0686  222.2415 H   0  0  0  0  0  0  0  0  0  0  0  0
  140.9733   76.7193  223.8163 H   0  0  0  0  0  0  0  0  0  0  0  0
  141.8515   76.7905  222.2561 H   0  0  0  0  0  0  0  0  0  0  0  0
  139.2448   79.2074  223.3191 H   0  0  0  0  0  0  0  0  0  0  0  0
  139.6333   81.6088  223.6916 H   0  0  0  0  0  0  0  0  0  0  0  0
  141.9634   82.5075  223.6665 H   0  0  0  0  0  0  0  0  0  0  0  0
  143.8510   80.9374  223.2551 H   0  0  0  0  0  0  0  0  0  0  0  0
  143.4431   78.5440  222.8845 H   0  0  0  0  0  0  0  0  0  0  0  0
  139.1952   71.1255  220.5281 H   0  0  0  0  0  0  0  0  0  0  0  0
  138.7646   69.3937  222.2344 H   0  0  0  0  0  0  0  0  0  0  0  0
  138.9960   68.6358  224.4786 H   0  0  0  0  0  0  0  0  0  0  0  0
  141.0902   71.0898  227.3415 H   0  0  0  0  0  0  0  0  0  0  0  0
  141.5004   72.8110  225.5785 H   0  0  0  0  0  0  0  0  0  0  0  0
  1  2  2  0
  2  3  1  0
  3  4  1  0
  4  5  1  0
  5  6  2  0
  5  7  1  0
  7  8  1  0
  8  9  1  0
  9 10  1  0
 10 11  1  0
 11 12  1  0
 12 13  1  0
 13 14  1  0
 14 15  2  0
 15 16  1  0
 16 17  2  0
 17 18  1  0
 18 19  2  0
  2 20  1  0
 20 21  2  0
 21 22  1  0
 22 23  2  0
 23 24  1  0
 24 25  2  0
 25 26  1  0
 26 27  1  0
 26 28  1  0
 26 29  1  0
 25 30  1  0
 30 31  2  0
 31 32  1  0
 32 33  2  0
 12  7  1  0
 19 14  1  0
 33 20  1  0
 32 23  1  0
  3 34  1  0
  4 35  1  0
  4 36  1  0
  8 37  1  0
  8 38  1  0
  9 39  1  0
  9 40  1  0
 10 41  1  0
 10 42  1  0
 11 43  1  0
 11 44  1  0
 12 45  1  6
 13 46  1  0
 13 47  1  0
 15 48  1  0
 16 49  1  0
 17 50  1  0
 18 51  1  0
 19 52  1  0
 21 53  1  0
 22 54  1  0
 24 55  1  0
 30 56  1  0
 31 57  1  0
M  END
>  <smiles>  (89) 
O=C(NCC(=O)N1CCCCC1Cc1ccccc1)c1ccc2cc(C(F)(F)F)ccc2n1

>  <score_type>  (89) 
oracle

>  <origin>  (89) 
autodockgpu

>  <m_score__min__energy>  (89) 
-8.4199999999999999

>  <m_primary>  (89) 
energy

>  <rmsd>  (89) 
3.295459925400972

>  <m_score__min__rmsd>  (89) 
3.295459925400972

>  <meeko>  (89) 
{"free_energy": -7.23, "intermolecular_energy": -9.31, "internal_energy": -2.47, "cluster_size": 11, "cluster_id": 1, "rank_in_cluster": 11}

>  <energy>  (89) 
-7.79

>  <cluster_rmsd>  (89) 
1.48

>  <cluster>  (89) 
2

$$$$

     RDKit          3D

 57 60  0  0  0  0  0  0  0  0999 V2000
  137.7040   72.8340  220.6980 O   0  0  0  0  0  0  0  0  0  0  0  0
  137.6750   73.3290  221.8680 C   0  0  0  0  0  0  0  0  0  0  0  0
  137.1890   72.4730  222.8940 N   0  0  0  0  0  0  0  0  0  0  0  0
  136.7790   71.1440  222.5170 C   0  0  0  0  0  0  0  0  0  0  0  0
  137.7480   70.1100  222.9510 C   0  0  0  0  0  0  0  0  0  0  0  0
  137.2700   69.0930  223.5240 O   0  0  0  0  0  0  0  0  0  0  0  0
  139.1220   70.3120  222.7040 N   0  0  0  0  0  0  0  0  0  0  0  0
  139.7050   69.9700  221.3970 C   0  0  0  0  0  0  0  0  0  0  0  0
  140.3030   71.2000  220.7560 C   0  0  0  0  0  0  0  0  0  0  0  0
  141.1320   72.0070  221.7060 C   0  0  0  0  0  0  0  0  0  0  0  0
  140.5980   72.1330  223.0910 C   0  0  0  0  0  0  0  0  0  0  0  0
  140.0530   70.8540  223.6760 C   0  0  1  0  0  0  0  0  0  0  0  0
  139.4590   71.1330  225.0120 C   0  0  0  0  0  0  0  0  0  0  0  0
  139.9600   70.1080  225.9900 C   0  0  0  0  0  0  0  0  0  0  0  0
  139.7840   68.7500  225.7490 C   0  0  0  0  0  0  0  0  0  0  0  0
  140.2270   67.7780  226.6220 C   0  0  0  0  0  0  0  0  0  0  0  0
  140.8710   68.1470  227.7850 C   0  0  0  0  0  0  0  0  0  0  0  0
  141.0520   69.4980  228.0380 C   0  0  0  0  0  0  0  0  0  0  0  0
  140.6030   70.4560  227.1550 C   0  0  0  0  0  0  0  0  0  0  0  0
  138.1160   74.6900  222.1400 C   0  0  0  0  0  0  0  0  0  0  0  0
  137.1530   75.6360  222.4190 C   0  0  0  0  0  0  0  0  0  0  0  0
  137.4610   76.9490  222.6910 C   0  0  0  0  0  0  0  0  0  0  0  0
  138.7770   77.3170  222.6800 C   0  0  0  0  0  0  0  0  0  0  0  0
  139.1130   78.6270  222.9490 C   0  0  0  0  0  0  0  0  0  0  0  0
  140.4390   78.9960  222.9380 C   0  0  0  0  0  0  0  0  0  0  0  0
  140.7780   80.4160  223.2310 C   0  0  0  0  0  0  0  0  0  0  0  0
  139.7280   81.0670  223.8550 F   0  0  0  0  0  0  0  0  0  0  0  0
  141.0410   81.0460  222.0090 F   0  0  0  0  0  0  0  0  0  0  0  0
  141.9370   80.4650  223.9640 F   0  0  0  0  0  0  0  0  0  0  0  0
  141.4300   78.0500  222.6570 C   0  0  0  0  0  0  0  0  0  0  0  0
  141.0770   76.7250  222.3860 C   0  0  0  0  0  0  0  0  0  0  0  0
  139.7490   76.3520  222.3970 C   0  0  0  0  0  0  0  0  0  0  0  0
  139.4060   75.0680  222.1340 N   0  0  0  0  0  0  0  0  0  0  0  0
  137.1350   72.8080  223.8870 H   0  0  0  0  0  0  0  0  0  0  0  0
  135.8039   70.9306  222.9791 H   0  0  0  0  0  0  0  0  0  0  0  0
  136.7206   71.1095  221.4191 H   0  0  0  0  0  0  0  0  0  0  0  0
  140.4916   69.2138  221.5364 H   0  0  0  0  0  0  0  0  0  0  0  0
  138.9143   69.5725  220.7437 H   0  0  0  0  0  0  0  0  0  0  0  0
  140.9391   70.8841  219.9161 H   0  0  0  0  0  0  0  0  0  0  0  0
  139.4702   71.8363  220.4218 H   0  0  0  0  0  0  0  0  0  0  0  0
  142.1249   71.5378  221.7691 H   0  0  0  0  0  0  0  0  0  0  0  0
  141.1431   73.0283  221.2974 H   0  0  0  0  0  0  0  0  0  0  0  0
  141.4117   72.4874  223.7409 H   0  0  0  0  0  0  0  0  0  0  0  0
  139.7520   72.8338  223.0348 H   0  0  0  0  0  0  0  0  0  0  0  0
  140.8299   70.0971  223.8592 H   0  0  0  0  0  0  0  0  0  0  0  0
  139.7560   72.1382  225.3457 H   0  0  0  0  0  0  0  0  0  0  0  0
  138.3618   71.0846  224.9500 H   0  0  0  0  0  0  0  0  0  0  0  0
  139.2718   68.4387  224.8267 H   0  0  0  0  0  0  0  0  0  0  0  0
  140.0676   66.7142  226.3920 H   0  0  0  0  0  0  0  0  0  0  0  0
  141.2321   67.3877  228.4943 H   0  0  0  0  0  0  0  0  0  0  0  0
  141.5633   69.8109  228.9603 H   0  0  0  0  0  0  0  0  0  0  0  0
  140.7619   71.5196  227.3864 H   0  0  0  0  0  0  0  0  0  0  0  0
  136.0967   75.3290  222.4244 H   0  0  0  0  0  0  0  0  0  0  0  0
  136.6705   77.6816  222.9110 H   0  0  0  0  0  0  0  0  0  0  0  0
  138.3308   79.3682  223.1697 H   0  0  0  0  0  0  0  0  0  0  0  0
  142.4885   78.3491  222.6492 H   0  0  0  0  0  0  0  0  0  0  0  0
  141.8566   75.9812  222.1644 H   0  0  0  0  0  0  0  0  0  0  0  0
  1  2  2  0
  2  3  1  0
  3  4  1  0
  4  5  1  0
  5  6  2  0
  5  7  1  0
  7  8  1  0
  8  9  1  0
  9 10  1  0
 10 11  1  0
 11 12  1  0
 12 13  1  0
 13 14  1  0
 14 15  2  0
 15 16  1  0
 16 17  2  0
 17 18  1  0
 18 19  2  0
  2 20  1  0
 20 21  2  0
 21 22  1  0
 22 23  2  0
 23 24  1  0
 24 25  2  0
 25 26  1  0
 26 27  1  0
 26 28  1  0
 26 29  1  0
 25 30  1  0
 30 31  2  0
 31 32  1  0
 32 33  2  0
 12  7  1  0
 19 14  1  0
 33 20  1  0
 32 23  1  0
  3 34  1  0
  4 35  1  0
  4 36  1  0
  8 37  1  0
  8 38  1  0
  9 39  1  0
  9 40  1  0
 10 41  1  0
 10 42  1  0
 11 43  1  0
 11 44  1  0
 12 45  1  1
 13 46  1  0
 13 47  1  0
 15 48  1  0
 16 49  1  0
 17 50  1  0
 18 51  1  0
 19 52  1  0
 21 53  1  0
 22 54  1  0
 24 55  1  0
 30 56  1  0
 31 57  1  0
M  END
>  <smiles>  (90) 
O=C(NCC(=O)N1CCCCC1Cc1ccccc1)c1ccc2cc(C(F)(F)F)ccc2n1

>  <score_type>  (90) 
oracle

>  <origin>  (90) 
autodockgpu

>  <m_score__min__energy>  (90) 
-8.4199999999999999

>  <m_primary>  (90) 
energy

>  <rmsd>  (90) 
7.073254597075359

>  <m_score__min__rmsd>  (90) 
7.073254597075359

>  <meeko>  (90) 
{"free_energy": -7.86, "intermolecular_energy": -9.95, "internal_energy": -2.34, "cluster_size": 38, "cluster_id": 2, "rank_in_cluster": 20}

>  <energy>  (90) 
-7.79

>  <cluster_rmsd>  (90) 
1.47

>  <cluster>  (90) 
2

$$$$

     RDKit          3D

 57 60  0  0  0  0  0  0  0  0999 V2000
  141.1530   73.5180  221.0250 O   0  0  0  0  0  0  0  0  0  0  0  0
  140.2070   73.4430  221.8700 C   0  0  0  0  0  0  0  0  0  0  0  0
  139.2790   74.5210  221.8600 N   0  0  0  0  0  0  0  0  0  0  0  0
  139.4960   75.5810  220.9090 C   0  0  0  0  0  0  0  0  0  0  0  0
  140.5110   76.5570  221.3730 C   0  0  0  0  0  0  0  0  0  0  0  0
  140.3690   77.0060  222.5440 O   0  0  0  0  0  0  0  0  0  0  0  0
  141.5580   76.9230  220.5030 N   0  0  0  0  0  0  0  0  0  0  0  0
  142.5460   75.9260  220.0610 C   0  0  0  0  0  0  0  0  0  0  0  0
  142.5150   75.7930  218.5570 C   0  0  0  0  0  0  0  0  0  0  0  0
  142.4880   77.1150  217.8550 C   0  0  0  0  0  0  0  0  0  0  0  0
  141.6380   78.1660  218.4790 C   0  0  0  0  0  0  0  0  0  0  0  0
  141.7530   78.2630  219.9800 C   0  0  1  0  0  0  0  0  0  0  0  0
  140.7830   79.2710  220.4880 C   0  0  0  0  0  0  0  0  0  0  0  0
  141.3810   79.9630  221.6810 C   0  0  0  0  0  0  0  0  0  0  0  0
  142.1120   79.2510  222.6240 C   0  0  0  0  0  0  0  0  0  0  0  0
  142.6750   79.8480  223.7330 C   0  0  0  0  0  0  0  0  0  0  0  0
  142.5180   81.2040  223.9310 C   0  0  0  0  0  0  0  0  0  0  0  0
  141.7910   81.9270  222.9980 C   0  0  0  0  0  0  0  0  0  0  0  0
  141.2350   81.3140  221.8970 C   0  0  0  0  0  0  0  0  0  0  0  0
  140.0800   72.3220  222.7900 C   0  0  0  0  0  0  0  0  0  0  0  0
  139.2970   71.2550  222.4040 C   0  0  0  0  0  0  0  0  0  0  0  0
  139.1100   70.1470  223.1960 C   0  0  0  0  0  0  0  0  0  0  0  0
  139.7310   70.1150  224.4130 C   0  0  0  0  0  0  0  0  0  0  0  0
  139.5610   69.0160  225.2280 C   0  0  0  0  0  0  0  0  0  0  0  0
  140.1870   68.9850  226.4530 C   0  0  0  0  0  0  0  0  0  0  0  0
  139.9890   67.7870  227.3160 C   0  0  0  0  0  0  0  0  0  0  0  0
  141.0930   66.9530  227.2830 F   0  0  0  0  0  0  0  0  0  0  0  0
  138.8790   67.0910  226.8210 F   0  0  0  0  0  0  0  0  0  0  0  0
  139.6720   68.1900  228.5890 F   0  0  0  0  0  0  0  0  0  0  0  0
  140.9850   70.0570  226.8630 C   0  0  0  0  0  0  0  0  0  0  0  0
  141.1500   71.1660  226.0280 C   0  0  0  0  0  0  0  0  0  0  0  0
  140.5250   71.2000  224.8000 C   0  0  0  0  0  0  0  0  0  0  0  0
  140.6840   72.2750  223.9900 N   0  0  0  0  0  0  0  0  0  0  0  0
  138.4690   74.5330  222.5270 H   0  0  0  0  0  0  0  0  0  0  0  0
  139.8371   75.1404  219.9606 H   0  0  0  0  0  0  0  0  0  0  0  0
  138.5451   76.1196  220.7840 H   0  0  0  0  0  0  0  0  0  0  0  0
  143.5503   76.2447  220.3771 H   0  0  0  0  0  0  0  0  0  0  0  0
  142.3014   74.9533  220.5127 H   0  0  0  0  0  0  0  0  0  0  0  0
  143.4115   75.2429  218.2349 H   0  0  0  0  0  0  0  0  0  0  0  0
  141.5900   75.2600  218.2921 H   0  0  0  0  0  0  0  0  0  0  0  0
  143.5191   77.4959  217.8142 H   0  0  0  0  0  0  0  0  0  0  0  0
  142.0423   76.9189  216.8686 H   0  0  0  0  0  0  0  0  0  0  0  0
  141.9249   79.1375  218.0502 H   0  0  0  0  0  0  0  0  0  0  0  0
  140.5952   77.8886  218.2653 H   0  0  0  0  0  0  0  0  0  0  0  0
  142.7388   78.6175  220.3154 H   0  0  0  0  0  0  0  0  0  0  0  0
  140.5710   80.0093  219.7006 H   0  0  0  0  0  0  0  0  0  0  0  0
  139.8451   78.7738  220.7765 H   0  0  0  0  0  0  0  0  0  0  0  0
  142.2471   78.1688  222.4807 H   0  0  0  0  0  0  0  0  0  0  0  0
  143.2459   79.2460  224.4553 H   0  0  0  0  0  0  0  0  0  0  0  0
  142.9591   81.6998  224.8082 H   0  0  0  0  0  0  0  0  0  0  0  0
  141.6558   83.0095  223.1395 H   0  0  0  0  0  0  0  0  0  0  0  0
  140.6629   81.9165  221.1761 H   0  0  0  0  0  0  0  0  0  0  0  0
  138.8018   71.2917  221.4225 H   0  0  0  0  0  0  0  0  0  0  0  0
  138.4791   69.3108  222.8601 H   0  0  0  0  0  0  0  0  0  0  0  0
  138.9324   68.1739  224.9028 H   0  0  0  0  0  0  0  0  0  0  0  0
  141.4834   70.0279  227.8432 H   0  0  0  0  0  0  0  0  0  0  0  0
  141.7775   72.0100  226.3504 H   0  0  0  0  0  0  0  0  0  0  0  0
  1  2  2  0
  2  3  1  0
  3  4  1  0
  4  5  1  0
  5  6  2  0
  5  7  1  0
  7  8  1  0
  8  9  1  0
  9 10  1  0
 10 11  1  0
 11 12  1  0
 12 13  1  0
 13 14  1  0
 14 15  2  0
 15 16  1  0
 16 17  2  0
 17 18  1  0
 18 19  2  0
  2 20  1  0
 20 21  2  0
 21 22  1  0
 22 23  2  0
 23 24  1  0
 24 25  2  0
 25 26  1  0
 26 27  1  0
 26 28  1  0
 26 29  1  0
 25 30  1  0
 30 31  2  0
 31 32  1  0
 32 33  2  0
 12  7  1  0
 19 14  1  0
 33 20  1  0
 32 23  1  0
  3 34  1  0
  4 35  1  0
  4 36  1  0
  8 37  1  0
  8 38  1  0
  9 39  1  0
  9 40  1  0
 10 41  1  0
 10 42  1  0
 11 43  1  0
 11 44  1  0
 12 45  1  6
 13 46  1  0
 13 47  1  0
 15 48  1  0
 16 49  1  0
 17 50  1  0
 18 51  1  0
 19 52  1  0
 21 53  1  0
 22 54  1  0
 24 55  1  0
 30 56  1  0
 31 57  1  0
M  END
>  <smiles>  (91) 
O=C(NCC(=O)N1CCCCC1Cc1ccccc1)c1ccc2cc(C(F)(F)F)ccc2n1

>  <score_type>  (91) 
oracle

>  <origin>  (91) 
autodockgpu

>  <m_score__min__energy>  (91) 
-8.4199999999999999

>  <m_primary>  (91) 
energy

>  <rmsd>  (91) 
2.4998812936494508

>  <m_score__min__rmsd>  (91) 
2.4998812936494508

>  <meeko>  (91) 
{"free_energy": -8.27, "intermolecular_energy": -10.36, "internal_energy": -1.63, "cluster_size": 11, "cluster_id": 1, "rank_in_cluster": 2}

>  <energy>  (91) 
-7.79

>  <cluster_rmsd>  (91) 
1.44

>  <cluster>  (91) 
2

$$$$

     RDKit          3D

 57 60  0  0  0  0  0  0  0  0999 V2000
  137.7740   73.6710  220.1990 O   0  0  0  0  0  0  0  0  0  0  0  0
  138.0390   73.9990  221.3980 C   0  0  0  0  0  0  0  0  0  0  0  0
  137.4730   73.1740  222.4080 N   0  0  0  0  0  0  0  0  0  0  0  0
  136.6640   72.0600  221.9850 C   0  0  0  0  0  0  0  0  0  0  0  0
  137.2860   70.7540  222.3100 C   0  0  0  0  0  0  0  0  0  0  0  0
  136.5020   69.8160  222.6190 O   0  0  0  0  0  0  0  0  0  0  0  0
  138.6900   70.6320  222.2560 N   0  0  0  0  0  0  0  0  0  0  0  0
  139.3780   70.4670  220.9650 C   0  0  0  0  0  0  0  0  0  0  0  0
  140.3420   71.6070  220.7400 C   0  0  0  0  0  0  0  0  0  0  0  0
  141.1750   71.9130  221.9460 C   0  0  0  0  0  0  0  0  0  0  0  0
  140.4720   71.8440  223.2570 C   0  0  0  0  0  0  0  0  0  0  0  0
  139.5560   70.6570  223.4200 C   0  0  1  0  0  0  0  0  0  0  0  0
  138.8380   70.7600  224.7210 C   0  0  0  0  0  0  0  0  0  0  0  0
  139.5760   69.9480  225.7480 C   0  0  0  0  0  0  0  0  0  0  0  0
  139.5090   68.5600  225.7400 C   0  0  0  0  0  0  0  0  0  0  0  0
  140.1690   67.7780  226.6650 C   0  0  0  0  0  0  0  0  0  0  0  0
  140.9320   68.3790  227.6450 C   0  0  0  0  0  0  0  0  0  0  0  0
  141.0070   69.7630  227.6660 C   0  0  0  0  0  0  0  0  0  0  0  0
  140.3400   70.5280  226.7340 C   0  0  0  0  0  0  0  0  0  0  0  0
  138.8730   75.1500  221.7160 C   0  0  0  0  0  0  0  0  0  0  0  0
  140.2270   75.0510  221.4810 C   0  0  0  0  0  0  0  0  0  0  0  0
  141.1030   76.0780  221.7460 C   0  0  0  0  0  0  0  0  0  0  0  0
  140.5970   77.2370  222.2640 C   0  0  0  0  0  0  0  0  0  0  0  0
  141.4530   78.2820  222.5390 C   0  0  0  0  0  0  0  0  0  0  0  0
  140.9420   79.4490  223.0600 C   0  0  0  0  0  0  0  0  0  0  0  0
  141.8850   80.5650  223.3490 C   0  0  0  0  0  0  0  0  0  0  0  0
  141.3250   81.4880  224.2140 F   0  0  0  0  0  0  0  0  0  0  0  0
  142.1720   81.1980  222.1330 F   0  0  0  0  0  0  0  0  0  0  0  0
  143.0670   80.0520  223.8210 F   0  0  0  0  0  0  0  0  0  0  0  0
  139.5710   79.5690  223.3060 C   0  0  0  0  0  0  0  0  0  0  0  0
  138.7130   78.5020  223.0230 C   0  0  0  0  0  0  0  0  0  0  0  0
  139.2220   77.3320  222.5000 C   0  0  0  0  0  0  0  0  0  0  0  0
  138.3910   76.2970  222.2260 N   0  0  0  0  0  0  0  0  0  0  0  0
  137.6450   73.3790  223.4230 H   0  0  0  0  0  0  0  0  0  0  0  0
  135.6877   72.1212  222.4881 H   0  0  0  0  0  0  0  0  0  0  0  0
  136.5584   72.1183  220.8916 H   0  0  0  0  0  0  0  0  0  0  0  0
  139.9325   69.5170  220.9673 H   0  0  0  0  0  0  0  0  0  0  0  0
  138.6311   70.4631  220.1575 H   0  0  0  0  0  0  0  0  0  0  0  0
  141.0120   71.3412  219.9090 H   0  0  0  0  0  0  0  0  0  0  0  0
  139.7458   72.5036  220.5148 H   0  0  0  0  0  0  0  0  0  0  0  0
  142.0074   71.1943  221.9718 H   0  0  0  0  0  0  0  0  0  0  0  0
  141.4899   72.9608  221.8320 H   0  0  0  0  0  0  0  0  0  0  0  0
  141.2318   71.8019  224.0513 H   0  0  0  0  0  0  0  0  0  0  0  0
  139.8342   72.7384  223.3146 H   0  0  0  0  0  0  0  0  0  0  0  0
  140.0945   69.6988  223.4621 H   0  0  0  0  0  0  0  0  0  0  0  0
  138.7996   71.8121  225.0396 H   0  0  0  0  0  0  0  0  0  0  0  0
  137.8114   70.3802  224.6120 H   0  0  0  0  0  0  0  0  0  0  0  0
  138.9054   68.0650  224.9649 H   0  0  0  0  0  0  0  0  0  0  0  0
  140.0875   66.6819  226.6216 H   0  0  0  0  0  0  0  0  0  0  0  0
  141.4678   67.7745  228.3916 H   0  0  0  0  0  0  0  0  0  0  0  0
  141.6098   70.2595  228.4406 H   0  0  0  0  0  0  0  0  0  0  0  0
  140.4200   71.6241  226.7793 H   0  0  0  0  0  0  0  0  0  0  0  0
  140.6234   74.1131  221.0648 H   0  0  0  0  0  0  0  0  0  0  0  0
  142.1794   75.9695  221.5468 H   0  0  0  0  0  0  0  0  0  0  0  0
  142.5312   78.1844  222.3444 H   0  0  0  0  0  0  0  0  0  0  0  0
  139.1671   80.5035  223.7225 H   0  0  0  0  0  0  0  0  0  0  0  0
  137.6343   78.5956  223.2171 H   0  0  0  0  0  0  0  0  0  0  0  0
  1  2  2  0
  2  3  1  0
  3  4  1  0
  4  5  1  0
  5  6  2  0
  5  7  1  0
  7  8  1  0
  8  9  1  0
  9 10  1  0
 10 11  1  0
 11 12  1  0
 12 13  1  0
 13 14  1  0
 14 15  2  0
 15 16  1  0
 16 17  2  0
 17 18  1  0
 18 19  2  0
  2 20  1  0
 20 21  2  0
 21 22  1  0
 22 23  2  0
 23 24  1  0
 24 25  2  0
 25 26  1  0
 26 27  1  0
 26 28  1  0
 26 29  1  0
 25 30  1  0
 30 31  2  0
 31 32  1  0
 32 33  2  0
 12  7  1  0
 19 14  1  0
 33 20  1  0
 32 23  1  0
  3 34  1  0
  4 35  1  0
  4 36  1  0
  8 37  1  0
  8 38  1  0
  9 39  1  0
  9 40  1  0
 10 41  1  0
 10 42  1  0
 11 43  1  0
 11 44  1  0
 12 45  1  1
 13 46  1  0
 13 47  1  0
 15 48  1  0
 16 49  1  0
 17 50  1  0
 18 51  1  0
 19 52  1  0
 21 53  1  0
 22 54  1  0
 24 55  1  0
 30 56  1  0
 31 57  1  0
M  END
>  <smiles>  (92) 
O=C(NCC(=O)N1CCCCC1Cc1ccccc1)c1ccc2cc(C(F)(F)F)ccc2n1

>  <score_type>  (92) 
oracle

>  <origin>  (92) 
autodockgpu

>  <m_score__min__energy>  (92) 
-8.4199999999999999

>  <m_primary>  (92) 
energy

>  <rmsd>  (92) 
7.1408354854122384

>  <m_score__min__rmsd>  (92) 
7.1408354854122384

>  <meeko>  (92) 
{"free_energy": -7.88, "intermolecular_energy": -9.96, "internal_energy": -2.19, "cluster_size": 38, "cluster_id": 2, "rank_in_cluster": 18}

>  <energy>  (92) 
-7.79

>  <cluster_rmsd>  (92) 
1.5

>  <cluster>  (92) 
2

$$$$

     RDKit          3D

 57 60  0  0  0  0  0  0  0  0999 V2000
  138.2210   73.1560  220.3730 O   0  0  0  0  0  0  0  0  0  0  0  0
  138.2190   73.7450  221.4980 C   0  0  0  0  0  0  0  0  0  0  0  0
  137.4060   73.1570  222.5060 N   0  0  0  0  0  0  0  0  0  0  0  0
  136.6720   71.9670  222.1620 C   0  0  0  0  0  0  0  0  0  0  0  0
  137.3010   70.7380  222.7040 C   0  0  0  0  0  0  0  0  0  0  0  0
  136.5480   69.9530  223.3420 O   0  0  0  0  0  0  0  0  0  0  0  0
  138.6760   70.5180  222.4810 N   0  0  0  0  0  0  0  0  0  0  0  0
  139.1550   70.0490  221.1700 C   0  0  0  0  0  0  0  0  0  0  0  0
  140.1130   71.0540  220.5770 C   0  0  0  0  0  0  0  0  0  0  0  0
  141.1280   71.5440  221.5630 C   0  0  0  0  0  0  0  0  0  0  0  0
  140.6290   71.7890  222.9440 C   0  0  0  0  0  0  0  0  0  0  0  0
  139.7070   70.7230  223.4810 C   0  0  1  0  0  0  0  0  0  0  0  0
  139.1980   71.1350  224.8180 C   0  0  0  0  0  0  0  0  0  0  0  0
  139.7290   70.1840  225.8540 C   0  0  0  0  0  0  0  0  0  0  0  0
  140.3810   70.6580  226.9860 C   0  0  0  0  0  0  0  0  0  0  0  0
  140.8830   69.8190  227.9590 C   0  0  0  0  0  0  0  0  0  0  0  0
  140.7440   68.4530  227.8210 C   0  0  0  0  0  0  0  0  0  0  0  0
  140.0960   67.9670  226.6970 C   0  0  0  0  0  0  0  0  0  0  0  0
  139.6000   68.8200  225.7350 C   0  0  0  0  0  0  0  0  0  0  0  0
  139.0020   74.9490  221.7410 C   0  0  0  0  0  0  0  0  0  0  0  0
  140.3310   74.9390  221.3750 C   0  0  0  0  0  0  0  0  0  0  0  0
  141.1590   76.0210  221.5600 C   0  0  0  0  0  0  0  0  0  0  0  0
  140.6310   77.1450  222.1300 C   0  0  0  0  0  0  0  0  0  0  0  0
  141.4390   78.2450  222.3270 C   0  0  0  0  0  0  0  0  0  0  0  0
  140.9060   79.3760  222.9010 C   0  0  0  0  0  0  0  0  0  0  0  0
  141.7970   80.5520  223.1040 C   0  0  0  0  0  0  0  0  0  0  0  0
  143.1010   80.1600  223.3510 F   0  0  0  0  0  0  0  0  0  0  0  0
  141.3170   81.2570  224.2140 F   0  0  0  0  0  0  0  0  0  0  0  0
  141.6960   81.3910  222.0230 F   0  0  0  0  0  0  0  0  0  0  0  0
  139.5590   79.4060  223.2790 C   0  0  0  0  0  0  0  0  0  0  0  0
  138.7500   78.2850  223.0740 C   0  0  0  0  0  0  0  0  0  0  0  0
  139.2820   77.1500  222.4990 C   0  0  0  0  0  0  0  0  0  0  0  0
  138.4980   76.0620  222.3010 N   0  0  0  0  0  0  0  0  0  0  0  0
  137.3510   73.5840  223.4630 H   0  0  0  0  0  0  0  0  0  0  0  0
  135.6531   72.0508  222.5679 H   0  0  0  0  0  0  0  0  0  0  0  0
  136.6635   71.8836  221.0652 H   0  0  0  0  0  0  0  0  0  0  0  0
  139.6701   69.0851  221.2946 H   0  0  0  0  0  0  0  0  0  0  0  0
  138.2951   69.9297  220.4945 H   0  0  0  0  0  0  0  0  0  0  0  0
  140.6408   70.5815  219.7355 H   0  0  0  0  0  0  0  0  0  0  0  0
  139.5212   71.9229  220.2532 H   0  0  0  0  0  0  0  0  0  0  0  0
  141.9295   70.7929  221.6228 H   0  0  0  0  0  0  0  0  0  0  0  0
  141.4577   72.5241  221.1879 H   0  0  0  0  0  0  0  0  0  0  0  0
  141.4981   71.8595  223.6146 H   0  0  0  0  0  0  0  0  0  0  0  0
  140.0387   72.7162  222.9004 H   0  0  0  0  0  0  0  0  0  0  0  0
  140.2114   69.7601  223.6493 H   0  0  0  0  0  0  0  0  0  0  0  0
  139.5388   72.1561  225.0445 H   0  0  0  0  0  0  0  0  0  0  0  0
  138.0982   71.1144  224.8212 H   0  0  0  0  0  0  0  0  0  0  0  0
  140.5014   71.7442  227.1109 H   0  0  0  0  0  0  0  0  0  0  0  0
  141.3915   70.2367  228.8405 H   0  0  0  0  0  0  0  0  0  0  0  0
  141.1382   67.7666  228.5849 H   0  0  0  0  0  0  0  0  0  0  0  0
  139.9753   66.8810  226.5702 H   0  0  0  0  0  0  0  0  0  0  0  0
  139.0908   68.4015  224.8544 H   0  0  0  0  0  0  0  0  0  0  0  0
  140.7456   74.0291  220.9166 H   0  0  0  0  0  0  0  0  0  0  0  0
  142.2160   75.9829  221.2578 H   0  0  0  0  0  0  0  0  0  0  0  0
  142.4974   78.2185  222.0286 H   0  0  0  0  0  0  0  0  0  0  0  0
  139.1368   80.3123  223.7377 H   0  0  0  0  0  0  0  0  0  0  0  0
  137.6910   78.3079  223.3707 H   0  0  0  0  0  0  0  0  0  0  0  0
  1  2  2  0
  2  3  1  0
  3  4  1  0
  4  5  1  0
  5  6  2  0
  5  7  1  0
  7  8  1  0
  8  9  1  0
  9 10  1  0
 10 11  1  0
 11 12  1  0
 12 13  1  0
 13 14  1  0
 14 15  2  0
 15 16  1  0
 16 17  2  0
 17 18  1  0
 18 19  2  0
  2 20  1  0
 20 21  2  0
 21 22  1  0
 22 23  2  0
 23 24  1  0
 24 25  2  0
 25 26  1  0
 26 27  1  0
 26 28  1  0
 26 29  1  0
 25 30  1  0
 30 31  2  0
 31 32  1  0
 32 33  2  0
 12  7  1  0
 19 14  1  0
 33 20  1  0
 32 23  1  0
  3 34  1  0
  4 35  1  0
  4 36  1  0
  8 37  1  0
  8 38  1  0
  9 39  1  0
  9 40  1  0
 10 41  1  0
 10 42  1  0
 11 43  1  0
 11 44  1  0
 12 45  1  1
 13 46  1  0
 13 47  1  0
 15 48  1  0
 16 49  1  0
 17 50  1  0
 18 51  1  0
 19 52  1  0
 21 53  1  0
 22 54  1  0
 24 55  1  0
 30 56  1  0
 31 57  1  0
M  END
>  <smiles>  (93) 
O=C(NCC(=O)N1CCCCC1Cc1ccccc1)c1ccc2cc(C(F)(F)F)ccc2n1

>  <score_type>  (93) 
oracle

>  <origin>  (93) 
autodockgpu

>  <m_score__min__energy>  (93) 
-8.4199999999999999

>  <m_primary>  (93) 
energy

>  <rmsd>  (93) 
7.122498507421569

>  <m_score__min__rmsd>  (93) 
7.122498507421569

>  <meeko>  (93) 
{"free_energy": -7.82, "intermolecular_energy": -9.91, "internal_energy": -2.24, "cluster_size": 38, "cluster_id": 2, "rank_in_cluster": 24}

>  <energy>  (93) 
-7.75

>  <cluster_rmsd>  (93) 
1.42

>  <cluster>  (93) 
2

$$$$

     RDKit          3D

 57 60  0  0  0  0  0  0  0  0999 V2000
  140.2030   72.7430  220.5530 O   0  0  0  0  0  0  0  0  0  0  0  0
  139.7340   73.5420  221.4230 C   0  0  0  0  0  0  0  0  0  0  0  0
  138.7480   73.0020  222.2940 N   0  0  0  0  0  0  0  0  0  0  0  0
  138.3780   71.6220  222.1110 C   0  0  0  0  0  0  0  0  0  0  0  0
  137.5610   71.1030  223.2350 C   0  0  0  0  0  0  0  0  0  0  0  0
  136.9700   71.9600  223.9470 O   0  0  0  0  0  0  0  0  0  0  0  0
  137.4890   69.7100  223.4430 N   0  0  0  0  0  0  0  0  0  0  0  0
  136.2230   68.9870  223.2380 C   0  0  0  0  0  0  0  0  0  0  0  0
  136.3910   67.9370  222.1650 C   0  0  0  0  0  0  0  0  0  0  0  0
  137.6420   67.1310  222.3300 C   0  0  0  0  0  0  0  0  0  0  0  0
  138.8510   67.8860  222.7610 C   0  0  0  0  0  0  0  0  0  0  0  0
  138.6100   68.8890  223.8620 C   0  0  1  0  0  0  0  0  0  0  0  0
  139.8650   69.6460  224.1260 C   0  0  0  0  0  0  0  0  0  0  0  0
  139.9450   69.9560  225.5950 C   0  0  0  0  0  0  0  0  0  0  0  0
  140.4540   71.1710  226.0380 C   0  0  0  0  0  0  0  0  0  0  0  0
  140.5460   71.4930  227.3760 C   0  0  0  0  0  0  0  0  0  0  0  0
  140.1220   70.5880  228.3270 C   0  0  0  0  0  0  0  0  0  0  0  0
  139.6130   69.3720  227.8990 C   0  0  0  0  0  0  0  0  0  0  0  0
  139.5290   69.0670  226.5580 C   0  0  0  0  0  0  0  0  0  0  0  0
  140.1800   74.9240  221.5220 C   0  0  0  0  0  0  0  0  0  0  0  0
  141.3050   75.2910  220.8150 C   0  0  0  0  0  0  0  0  0  0  0  0
  141.8110   76.5700  220.8390 C   0  0  0  0  0  0  0  0  0  0  0  0
  141.1630   77.5040  221.5980 C   0  0  0  0  0  0  0  0  0  0  0  0
  141.6490   78.7940  221.6390 C   0  0  0  0  0  0  0  0  0  0  0  0
  140.9960   79.7330  222.4040 C   0  0  0  0  0  0  0  0  0  0  0  0
  141.5380   81.1200  222.4340 C   0  0  0  0  0  0  0  0  0  0  0  0
  142.1920   81.4310  221.2540 F   0  0  0  0  0  0  0  0  0  0  0  0
  142.4530   81.1910  223.4920 F   0  0  0  0  0  0  0  0  0  0  0  0
  140.5250   81.9990  222.7220 F   0  0  0  0  0  0  0  0  0  0  0  0
  139.8530   79.3800  223.1290 C   0  0  0  0  0  0  0  0  0  0  0  0
  139.3700   78.0690  223.0780 C   0  0  0  0  0  0  0  0  0  0  0  0
  140.0220   77.1250  222.3130 C   0  0  0  0  0  0  0  0  0  0  0  0
  139.5550   75.8550  222.2640 N   0  0  0  0  0  0  0  0  0  0  0  0
  138.3120   73.5980  223.0400 H   0  0  0  0  0  0  0  0  0  0  0  0
  137.7975   71.5320  221.1810 H   0  0  0  0  0  0  0  0  0  0  0  0
  139.3035   71.0291  222.0666 H   0  0  0  0  0  0  0  0  0  0  0  0
  135.9255   68.5010  224.1789 H   0  0  0  0  0  0  0  0  0  0  0  0
  135.4480   69.7014  222.9235 H   0  0  0  0  0  0  0  0  0  0  0  0
  135.5275   67.2565  222.2014 H   0  0  0  0  0  0  0  0  0  0  0  0
  136.4596   68.4595  221.1994 H   0  0  0  0  0  0  0  0  0  0  0  0
  137.4447   66.3530  223.0823 H   0  0  0  0  0  0  0  0  0  0  0  0
  137.8773   66.7391  221.3295 H   0  0  0  0  0  0  0  0  0  0  0  0
  139.5989   67.1614  223.1155 H   0  0  0  0  0  0  0  0  0  0  0  0
  139.1860   68.4612  221.8853 H   0  0  0  0  0  0  0  0  0  0  0  0
  138.3473   68.4217  224.8225 H   0  0  0  0  0  0  0  0  0  0  0  0
  140.7325   69.0385  223.8288 H   0  0  0  0  0  0  0  0  0  0  0  0
  139.8660   70.5810  223.5465 H   0  0  0  0  0  0  0  0  0  0  0  0
  140.7967   71.9041  225.2929 H   0  0  0  0  0  0  0  0  0  0  0  0
  140.9555   72.4666  227.6833 H   0  0  0  0  0  0  0  0  0  0  0  0
  140.1863   70.8258  229.3991 H   0  0  0  0  0  0  0  0  0  0  0  0
  139.2702   68.6377  228.6428 H   0  0  0  0  0  0  0  0  0  0  0  0
  139.1209   68.0926  226.2515 H   0  0  0  0  0  0  0  0  0  0  0  0
  141.8184   74.5311  220.2076 H   0  0  0  0  0  0  0  0  0  0  0  0
  142.7110   76.8334  220.2640 H   0  0  0  0  0  0  0  0  0  0  0  0
  142.5476   79.0689  221.0672 H   0  0  0  0  0  0  0  0  0  0  0  0
  139.3342   80.1339  223.7393 H   0  0  0  0  0  0  0  0  0  0  0  0
  138.4709   77.7909  223.6475 H   0  0  0  0  0  0  0  0  0  0  0  0
  1  2  2  0
  2  3  1  0
  3  4  1  0
  4  5  1  0
  5  6  2  0
  5  7  1  0
  7  8  1  0
  8  9  1  0
  9 10  1  0
 10 11  1  0
 11 12  1  0
 12 13  1  0
 13 14  1  0
 14 15  2  0
 15 16  1  0
 16 17  2  0
 17 18  1  0
 18 19  2  0
  2 20  1  0
 20 21  2  0
 21 22  1  0
 22 23  2  0
 23 24  1  0
 24 25  2  0
 25 26  1  0
 26 27  1  0
 26 28  1  0
 26 29  1  0
 25 30  1  0
 30 31  2  0
 31 32  1  0
 32 33  2  0
 12  7  1  0
 19 14  1  0
 33 20  1  0
 32 23  1  0
  3 34  1  0
  4 35  1  0
  4 36  1  0
  8 37  1  0
  8 38  1  0
  9 39  1  0
  9 40  1  0
 10 41  1  0
 10 42  1  0
 11 43  1  0
 11 44  1  0
 12 45  1  1
 13 46  1  0
 13 47  1  0
 15 48  1  0
 16 49  1  0
 17 50  1  0
 18 51  1  0
 19 52  1  0
 21 53  1  0
 22 54  1  0
 24 55  1  0
 30 56  1  0
 31 57  1  0
M  END
>  <smiles>  (94) 
O=C(NCC(=O)N1CCCCC1Cc1ccccc1)c1ccc2cc(C(F)(F)F)ccc2n1

>  <score_type>  (94) 
oracle

>  <origin>  (94) 
autodockgpu

>  <m_score__min__energy>  (94) 
-8.4199999999999999

>  <m_primary>  (94) 
energy

>  <rmsd>  (94) 
8.167143650564714

>  <m_score__min__rmsd>  (94) 
8.167143650564714

>  <meeko>  (94) 
{"free_energy": -7.71, "intermolecular_energy": -9.8, "internal_energy": -2.23, "cluster_size": 38, "cluster_id": 2, "rank_in_cluster": 34}

>  <energy>  (94) 
-7.74

>  <cluster_rmsd>  (94) 
1.68

>  <cluster>  (94) 
2

$$$$

     RDKit          3D

 57 60  0  0  0  0  0  0  0  0999 V2000
  137.7350   72.8290  220.6960 O   0  0  0  0  0  0  0  0  0  0  0  0
  137.6700   73.3420  221.8570 C   0  0  0  0  0  0  0  0  0  0  0  0
  137.1410   72.5030  222.8780 N   0  0  0  0  0  0  0  0  0  0  0  0
  136.7340   71.1730  222.5050 C   0  0  0  0  0  0  0  0  0  0  0  0
  137.6840   70.1380  222.9810 C   0  0  0  0  0  0  0  0  0  0  0  0
  137.1880   69.1660  223.6130 O   0  0  0  0  0  0  0  0  0  0  0  0
  139.0580   70.2910  222.7060 N   0  0  0  0  0  0  0  0  0  0  0  0
  139.6030   69.9250  221.3880 C   0  0  0  0  0  0  0  0  0  0  0  0
  140.2300   71.1300  220.7300 C   0  0  0  0  0  0  0  0  0  0  0  0
  141.1050   71.9120  221.6600 C   0  0  0  0  0  0  0  0  0  0  0  0
  140.6040   72.0610  223.0550 C   0  0  0  0  0  0  0  0  0  0  0  0
  140.0270   70.8040  223.6560 C   0  0  1  0  0  0  0  0  0  0  0  0
  139.4700   71.1090  225.0020 C   0  0  0  0  0  0  0  0  0  0  0  0
  139.9710   70.0820  225.9790 C   0  0  0  0  0  0  0  0  0  0  0  0
  140.5720   70.4690  227.1720 C   0  0  0  0  0  0  0  0  0  0  0  0
  141.0460   69.5590  228.0940 C   0  0  0  0  0  0  0  0  0  0  0  0
  140.9280   68.2070  227.8410 C   0  0  0  0  0  0  0  0  0  0  0  0
  140.3320   67.8080  226.6550 C   0  0  0  0  0  0  0  0  0  0  0  0
  139.8640   68.7310  225.7460 C   0  0  0  0  0  0  0  0  0  0  0  0
  138.1120   74.7030  222.1260 C   0  0  0  0  0  0  0  0  0  0  0  0
  137.1500   75.6480  222.4120 C   0  0  0  0  0  0  0  0  0  0  0  0
  137.4590   76.9610  222.6810 C   0  0  0  0  0  0  0  0  0  0  0  0
  138.7750   77.3300  222.6600 C   0  0  0  0  0  0  0  0  0  0  0  0
  139.1110   78.6410  222.9260 C   0  0  0  0  0  0  0  0  0  0  0  0
  140.4370   79.0100  222.9050 C   0  0  0  0  0  0  0  0  0  0  0  0
  140.7780   80.4310  223.1950 C   0  0  0  0  0  0  0  0  0  0  0  0
  141.1340   81.1100  222.0430 F   0  0  0  0  0  0  0  0  0  0  0  0
  141.8660   80.4300  224.0760 F   0  0  0  0  0  0  0  0  0  0  0  0
  139.7310   81.0240  223.8540 F   0  0  0  0  0  0  0  0  0  0  0  0
  141.4270   78.0650  222.6160 C   0  0  0  0  0  0  0  0  0  0  0  0
  141.0730   76.7400  222.3490 C   0  0  0  0  0  0  0  0  0  0  0  0
  139.7460   76.3660  222.3690 C   0  0  0  0  0  0  0  0  0  0  0  0
  139.4010   75.0820  222.1100 N   0  0  0  0  0  0  0  0  0  0  0  0
  137.0560   72.8530  223.8630 H   0  0  0  0  0  0  0  0  0  0  0  0
  135.7441   70.9711  222.9401 H   0  0  0  0  0  0  0  0  0  0  0  0
  136.7079   71.1253  221.4063 H   0  0  0  0  0  0  0  0  0  0  0  0
  140.3655   69.1424  221.5148 H   0  0  0  0  0  0  0  0  0  0  0  0
  138.7857   69.5537  220.7523 H   0  0  0  0  0  0  0  0  0  0  0  0
  140.8383   70.7887  219.8794 H   0  0  0  0  0  0  0  0  0  0  0  0
  139.4133   71.7933  220.4090 H   0  0  0  0  0  0  0  0  0  0  0  0
  142.0826   71.4097  221.7050 H   0  0  0  0  0  0  0  0  0  0  0  0
  141.1421   72.9309  221.2470 H   0  0  0  0  0  0  0  0  0  0  0  0
  141.4426   72.3890  223.6868 H   0  0  0  0  0  0  0  0  0  0  0  0
  139.7818   72.7906  223.0131 H   0  0  0  0  0  0  0  0  0  0  0  0
  140.7808   70.0212  223.8263 H   0  0  0  0  0  0  0  0  0  0  0  0
  139.7966   72.1105  225.3187 H   0  0  0  0  0  0  0  0  0  0  0  0
  138.3709   71.0845  224.9654 H   0  0  0  0  0  0  0  0  0  0  0  0
  140.6733   71.5427  227.3888 H   0  0  0  0  0  0  0  0  0  0  0  0
  141.5153   69.9086  229.0254 H   0  0  0  0  0  0  0  0  0  0  0  0
  141.2980   67.4644  228.5632 H   0  0  0  0  0  0  0  0  0  0  0  0
  140.2309   66.7348  226.4357 H   0  0  0  0  0  0  0  0  0  0  0  0
  139.3951   68.3803  224.8148 H   0  0  0  0  0  0  0  0  0  0  0  0
  136.0941   75.3400  222.4256 H   0  0  0  0  0  0  0  0  0  0  0  0
  136.6697   77.6932  222.9066 H   0  0  0  0  0  0  0  0  0  0  0  0
  138.3298   79.3818  223.1519 H   0  0  0  0  0  0  0  0  0  0  0  0
  142.4851   78.3653  222.5989 H   0  0  0  0  0  0  0  0  0  0  0  0
  141.8516   75.9965  222.1232 H   0  0  0  0  0  0  0  0  0  0  0  0
  1  2  2  0
  2  3  1  0
  3  4  1  0
  4  5  1  0
  5  6  2  0
  5  7  1  0
  7  8  1  0
  8  9  1  0
  9 10  1  0
 10 11  1  0
 11 12  1  0
 12 13  1  0
 13 14  1  0
 14 15  2  0
 15 16  1  0
 16 17  2  0
 17 18  1  0
 18 19  2  0
  2 20  1  0
 20 21  2  0
 21 22  1  0
 22 23  2  0
 23 24  1  0
 24 25  2  0
 25 26  1  0
 26 27  1  0
 26 28  1  0
 26 29  1  0
 25 30  1  0
 30 31  2  0
 31 32  1  0
 32 33  2  0
 12  7  1  0
 19 14  1  0
 33 20  1  0
 32 23  1  0
  3 34  1  0
  4 35  1  0
  4 36  1  0
  8 37  1  0
  8 38  1  0
  9 39  1  0
  9 40  1  0
 10 41  1  0
 10 42  1  0
 11 43  1  0
 11 44  1  0
 12 45  1  1
 13 46  1  0
 13 47  1  0
 15 48  1  0
 16 49  1  0
 17 50  1  0
 18 51  1  0
 19 52  1  0
 21 53  1  0
 22 54  1  0
 24 55  1  0
 30 56  1  0
 31 57  1  0
M  END
>  <smiles>  (95) 
O=C(NCC(=O)N1CCCCC1Cc1ccccc1)c1ccc2cc(C(F)(F)F)ccc2n1

>  <score_type>  (95) 
oracle

>  <origin>  (95) 
autodockgpu

>  <m_score__min__energy>  (95) 
-8.4199999999999999

>  <m_primary>  (95) 
energy

>  <rmsd>  (95) 
7.092759552638406

>  <m_score__min__rmsd>  (95) 
7.092759552638406

>  <meeko>  (95) 
{"free_energy": -7.9, "intermolecular_energy": -9.99, "internal_energy": -2.31, "cluster_size": 38, "cluster_id": 2, "rank_in_cluster": 13}

>  <energy>  (95) 
-7.71

>  <cluster_rmsd>  (95) 
1.2

>  <cluster>  (95) 
2

$$$$

     RDKit          3D

 57 60  0  0  0  0  0  0  0  0999 V2000
  141.8630   72.9090  220.8640 O   0  0  0  0  0  0  0  0  0  0  0  0
  141.1360   73.6660  221.5800 C   0  0  0  0  0  0  0  0  0  0  0  0
  140.2490   73.0080  222.4770 N   0  0  0  0  0  0  0  0  0  0  0  0
  140.2590   71.5670  222.4890 C   0  0  0  0  0  0  0  0  0  0  0  0
  138.9100   70.9920  222.2640 C   0  0  0  0  0  0  0  0  0  0  0  0
  138.7040   70.4590  221.1400 O   0  0  0  0  0  0  0  0  0  0  0  0
  137.9530   71.0680  223.2970 N   0  0  0  0  0  0  0  0  0  0  0  0
  136.6970   71.8100  223.0980 C   0  0  0  0  0  0  0  0  0  0  0  0
  135.5150   70.8830  223.2600 C   0  0  0  0  0  0  0  0  0  0  0  0
  135.6270   70.0000  224.4630 C   0  0  0  0  0  0  0  0  0  0  0  0
  136.9840   69.4540  224.7450 C   0  0  0  0  0  0  0  0  0  0  0  0
  138.1080   70.4490  224.6000 C   0  0  1  0  0  0  0  0  0  0  0  0
  139.4110   69.7590  224.8040 C   0  0  0  0  0  0  0  0  0  0  0  0
  140.0760   70.3290  226.0250 C   0  0  0  0  0  0  0  0  0  0  0  0
  140.6830   71.5790  225.9860 C   0  0  0  0  0  0  0  0  0  0  0  0
  141.3050   72.1370  227.0830 C   0  0  0  0  0  0  0  0  0  0  0  0
  141.3380   71.4430  228.2750 C   0  0  0  0  0  0  0  0  0  0  0  0
  140.7380   70.1950  228.3280 C   0  0  0  0  0  0  0  0  0  0  0  0
  140.1210   69.6530  227.2220 C   0  0  0  0  0  0  0  0  0  0  0  0
  141.2060   75.1170  221.4880 C   0  0  0  0  0  0  0  0  0  0  0  0
  141.9490   75.6640  220.4640 C   0  0  0  0  0  0  0  0  0  0  0  0
  142.0810   77.0210  220.2870 C   0  0  0  0  0  0  0  0  0  0  0  0
  141.4460   77.8500  221.1680 C   0  0  0  0  0  0  0  0  0  0  0  0
  141.5620   79.2150  221.0130 C   0  0  0  0  0  0  0  0  0  0  0  0
  140.9210   80.0480  221.9020 C   0  0  0  0  0  0  0  0  0  0  0  0
  141.0600   81.5190  221.7150 C   0  0  0  0  0  0  0  0  0  0  0  0
  139.8240   82.1320  221.6010 F   0  0  0  0  0  0  0  0  0  0  0  0
  141.7810   81.7270  220.5330 F   0  0  0  0  0  0  0  0  0  0  0  0
  141.8120   82.0390  222.7380 F   0  0  0  0  0  0  0  0  0  0  0  0
  140.1630   79.5130  222.9480 C   0  0  0  0  0  0  0  0  0  0  0  0
  140.0530   78.1270  223.0940 C   0  0  0  0  0  0  0  0  0  0  0  0
  140.6930   77.2890  222.2050 C   0  0  0  0  0  0  0  0  0  0  0  0
  140.5870   75.9460  222.3470 N   0  0  0  0  0  0  0  0  0  0  0  0
  139.6150   73.5630  223.1020 H   0  0  0  0  0  0  0  0  0  0  0  0
  140.9319   71.2114  221.6948 H   0  0  0  0  0  0  0  0  0  0  0  0
  140.6019   71.2414  223.4822 H   0  0  0  0  0  0  0  0  0  0  0  0
  136.6302   72.6181  223.8413 H   0  0  0  0  0  0  0  0  0  0  0  0
  136.6860   72.2334  222.0828 H   0  0  0  0  0  0  0  0  0  0  0  0
  134.6030   71.4907  223.3545 H   0  0  0  0  0  0  0  0  0  0  0  0
  135.4833   70.2313  222.3744 H   0  0  0  0  0  0  0  0  0  0  0  0
  135.3094   70.5832  225.3399 H   0  0  0  0  0  0  0  0  0  0  0  0
  134.9927   69.1266  224.2514 H   0  0  0  0  0  0  0  0  0  0  0  0
  136.9929   69.0756  225.7778 H   0  0  0  0  0  0  0  0  0  0  0  0
  137.1649   68.6704  223.9945 H   0  0  0  0  0  0  0  0  0  0  0  0
  138.0814   71.2445  225.3592 H   0  0  0  0  0  0  0  0  0  0  0  0
  139.2404   68.6815  224.9452 H   0  0  0  0  0  0  0  0  0  0  0  0
  140.0543   69.9085  223.9244 H   0  0  0  0  0  0  0  0  0  0  0  0
  140.6665   72.1452  225.0431 H   0  0  0  0  0  0  0  0  0  0  0  0
  141.7723   73.1300  227.0081 H   0  0  0  0  0  0  0  0  0  0  0  0
  141.8288   71.8701  229.1620 H   0  0  0  0  0  0  0  0  0  0  0  0
  140.7547   69.6271  229.2699 H   0  0  0  0  0  0  0  0  0  0  0  0
  139.6549   68.6595  227.2977 H   0  0  0  0  0  0  0  0  0  0  0  0
  142.4566   74.9878  219.7603 H   0  0  0  0  0  0  0  0  0  0  0  0
  142.6809   77.4277  219.4595 H   0  0  0  0  0  0  0  0  0  0  0  0
  142.1592   79.6332  220.1893 H   0  0  0  0  0  0  0  0  0  0  0  0
  139.6531   80.1827  223.6561 H   0  0  0  0  0  0  0  0  0  0  0  0
  139.4569   77.7054  223.9167 H   0  0  0  0  0  0  0  0  0  0  0  0
  1  2  2  0
  2  3  1  0
  3  4  1  0
  4  5  1  0
  5  6  2  0
  5  7  1  0
  7  8  1  0
  8  9  1  0
  9 10  1  0
 10 11  1  0
 11 12  1  0
 12 13  1  0
 13 14  1  0
 14 15  2  0
 15 16  1  0
 16 17  2  0
 17 18  1  0
 18 19  2  0
  2 20  1  0
 20 21  2  0
 21 22  1  0
 22 23  2  0
 23 24  1  0
 24 25  2  0
 25 26  1  0
 26 27  1  0
 26 28  1  0
 26 29  1  0
 25 30  1  0
 30 31  2  0
 31 32  1  0
 32 33  2  0
 12  7  1  0
 19 14  1  0
 33 20  1  0
 32 23  1  0
  3 34  1  0
  4 35  1  0
  4 36  1  0
  8 37  1  0
  8 38  1  0
  9 39  1  0
  9 40  1  0
 10 41  1  0
 10 42  1  0
 11 43  1  0
 11 44  1  0
 12 45  1  1
 13 46  1  0
 13 47  1  0
 15 48  1  0
 16 49  1  0
 17 50  1  0
 18 51  1  0
 19 52  1  0
 21 53  1  0
 22 54  1  0
 24 55  1  0
 30 56  1  0
 31 57  1  0
M  END
>  <smiles>  (96) 
O=C(NCC(=O)N1CCCCC1Cc1ccccc1)c1ccc2cc(C(F)(F)F)ccc2n1

>  <score_type>  (96) 
oracle

>  <origin>  (96) 
autodockgpu

>  <m_score__min__energy>  (96) 
-8.4199999999999999

>  <m_primary>  (96) 
energy

>  <rmsd>  (96) 
8.142073501812092

>  <m_score__min__rmsd>  (96) 
8.142073501812092

>  <meeko>  (96) 
{"free_energy": -8.17, "intermolecular_energy": -10.26, "internal_energy": -1.68, "cluster_size": 38, "cluster_id": 2, "rank_in_cluster": 3}

>  <energy>  (96) 
-7.66

>  <cluster_rmsd>  (96) 
0.75

>  <cluster>  (96) 
2

$$$$

     RDKit          3D

 57 60  0  0  0  0  0  0  0  0999 V2000
  137.7730   72.8340  220.8000 O   0  0  0  0  0  0  0  0  0  0  0  0
  137.6790   73.3720  221.9470 C   0  0  0  0  0  0  0  0  0  0  0  0
  137.1230   72.5580  222.9720 N   0  0  0  0  0  0  0  0  0  0  0  0
  136.7240   71.2190  222.6200 C   0  0  0  0  0  0  0  0  0  0  0  0
  137.6450   70.1940  223.1650 C   0  0  0  0  0  0  0  0  0  0  0  0
  137.1300   69.3040  223.8960 O   0  0  0  0  0  0  0  0  0  0  0  0
  139.0170   70.2650  222.8450 N   0  0  0  0  0  0  0  0  0  0  0  0
  139.5010   69.8240  221.5260 C   0  0  0  0  0  0  0  0  0  0  0  0
  140.1680   70.9710  220.8070 C   0  0  0  0  0  0  0  0  0  0  0  0
  141.1110   71.7380  221.6810 C   0  0  0  0  0  0  0  0  0  0  0  0
  140.6620   71.9620  223.0830 C   0  0  0  0  0  0  0  0  0  0  0  0
  140.0400   70.7590  223.7470 C   0  0  1  0  0  0  0  0  0  0  0  0
  139.5420   71.1400  225.0970 C   0  0  0  0  0  0  0  0  0  0  0  0
  139.9490   70.0800  226.0820 C   0  0  0  0  0  0  0  0  0  0  0  0
  140.3370   70.4200  227.3730 C   0  0  0  0  0  0  0  0  0  0  0  0
  140.7200   69.4790  228.3060 C   0  0  0  0  0  0  0  0  0  0  0  0
  140.7240   68.1420  227.9640 C   0  0  0  0  0  0  0  0  0  0  0  0
  140.3400   67.7890  226.6800 C   0  0  0  0  0  0  0  0  0  0  0  0
  139.9610   68.7430  225.7610 C   0  0  0  0  0  0  0  0  0  0  0  0
  138.1140   74.7390  222.1970 C   0  0  0  0  0  0  0  0  0  0  0  0
  137.1480   75.6890  222.4490 C   0  0  0  0  0  0  0  0  0  0  0  0
  137.4500   77.0070  222.6970 C   0  0  0  0  0  0  0  0  0  0  0  0
  138.7660   77.3770  222.6900 C   0  0  0  0  0  0  0  0  0  0  0  0
  139.0970   78.6930  222.9350 C   0  0  0  0  0  0  0  0  0  0  0  0
  140.4220   79.0640  222.9280 C   0  0  0  0  0  0  0  0  0  0  0  0
  140.7570   80.4910  223.1960 C   0  0  0  0  0  0  0  0  0  0  0  0
  139.7140   81.1430  223.8290 F   0  0  0  0  0  0  0  0  0  0  0  0
  140.9940   81.1060  221.9600 F   0  0  0  0  0  0  0  0  0  0  0  0
  141.9280   80.5580  223.9070 F   0  0  0  0  0  0  0  0  0  0  0  0
  141.4180   78.1150  222.6740 C   0  0  0  0  0  0  0  0  0  0  0  0
  141.0690   76.7850  222.4270 C   0  0  0  0  0  0  0  0  0  0  0  0
  139.7420   76.4100  222.4330 C   0  0  0  0  0  0  0  0  0  0  0  0
  139.4040   75.1200  222.1930 N   0  0  0  0  0  0  0  0  0  0  0  0
  137.0120   72.9300  223.9470 H   0  0  0  0  0  0  0  0  0  0  0  0
  135.7151   71.0348  223.0178 H   0  0  0  0  0  0  0  0  0  0  0  0
  136.7451   71.1399  221.5230 H   0  0  0  0  0  0  0  0  0  0  0  0
  140.2259   69.0074  221.6591 H   0  0  0  0  0  0  0  0  0  0  0  0
  138.6467   69.4731  220.9284 H   0  0  0  0  0  0  0  0  0  0  0  0
  140.7307   70.5691  219.9515 H   0  0  0  0  0  0  0  0  0  0  0  0
  139.3765   71.6648  220.4873 H   0  0  0  0  0  0  0  0  0  0  0  0
  142.0622   71.1867  221.7158 H   0  0  0  0  0  0  0  0  0  0  0  0
  141.1882   72.7382  221.2298 H   0  0  0  0  0  0  0  0  0  0  0  0
  141.5356   72.2677  223.6775 H   0  0  0  0  0  0  0  0  0  0  0  0
  139.8773   72.7316  223.0380 H   0  0  0  0  0  0  0  0  0  0  0  0
  140.7572   69.9440  223.9243 H   0  0  0  0  0  0  0  0  0  0  0  0
  139.9778   72.1058  225.3925 H   0  0  0  0  0  0  0  0  0  0  0  0
  138.4459   71.2310  225.0784 H   0  0  0  0  0  0  0  0  0  0  0  0
  140.3386   71.4814  227.6619 H   0  0  0  0  0  0  0  0  0  0  0  0
  141.0205   69.7924  229.3167 H   0  0  0  0  0  0  0  0  0  0  0  0
  141.0247   67.3750  228.6929 H   0  0  0  0  0  0  0  0  0  0  0  0
  140.3378   66.7281  226.3894 H   0  0  0  0  0  0  0  0  0  0  0  0
  139.6620   68.4288  224.7501 H   0  0  0  0  0  0  0  0  0  0  0  0
  136.0923   75.3801  222.4518 H   0  0  0  0  0  0  0  0  0  0  0  0
  136.6562   77.7422  222.8952 H   0  0  0  0  0  0  0  0  0  0  0  0
  138.3115   79.4370  223.1336 H   0  0  0  0  0  0  0  0  0  0  0  0
  142.4760   78.4160  222.6688 H   0  0  0  0  0  0  0  0  0  0  0  0
  141.8516   76.0380  222.2280 H   0  0  0  0  0  0  0  0  0  0  0  0
  1  2  2  0
  2  3  1  0
  3  4  1  0
  4  5  1  0
  5  6  2  0
  5  7  1  0
  7  8  1  0
  8  9  1  0
  9 10  1  0
 10 11  1  0
 11 12  1  0
 12 13  1  0
 13 14  1  0
 14 15  2  0
 15 16  1  0
 16 17  2  0
 17 18  1  0
 18 19  2  0
  2 20  1  0
 20 21  2  0
 21 22  1  0
 22 23  2  0
 23 24  1  0
 24 25  2  0
 25 26  1  0
 26 27  1  0
 26 28  1  0
 26 29  1  0
 25 30  1  0
 30 31  2  0
 31 32  1  0
 32 33  2  0
 12  7  1  0
 19 14  1  0
 33 20  1  0
 32 23  1  0
  3 34  1  0
  4 35  1  0
  4 36  1  0
  8 37  1  0
  8 38  1  0
  9 39  1  0
  9 40  1  0
 10 41  1  0
 10 42  1  0
 11 43  1  0
 11 44  1  0
 12 45  1  1
 13 46  1  0
 13 47  1  0
 15 48  1  0
 16 49  1  0
 17 50  1  0
 18 51  1  0
 19 52  1  0
 21 53  1  0
 22 54  1  0
 24 55  1  0
 30 56  1  0
 31 57  1  0
M  END
>  <smiles>  (97) 
O=C(NCC(=O)N1CCCCC1Cc1ccccc1)c1ccc2cc(C(F)(F)F)ccc2n1

>  <score_type>  (97) 
oracle

>  <origin>  (97) 
autodockgpu

>  <m_score__min__energy>  (97) 
-8.4199999999999999

>  <m_primary>  (97) 
energy

>  <rmsd>  (97) 
7.140436355439878

>  <m_score__min__rmsd>  (97) 
7.140436355439878

>  <meeko>  (97) 
{"free_energy": -7.92, "intermolecular_energy": -10.0, "internal_energy": -2.27, "cluster_size": 38, "cluster_id": 2, "rank_in_cluster": 10}

>  <energy>  (97) 
-7.64

>  <cluster_rmsd>  (97) 
1.52

>  <cluster>  (97) 
2

$$$$

     RDKit          3D

 57 60  0  0  0  0  0  0  0  0999 V2000
  138.2070   73.1800  220.2880 O   0  0  0  0  0  0  0  0  0  0  0  0
  138.2660   73.6950  221.4470 C   0  0  0  0  0  0  0  0  0  0  0  0
  137.5290   73.0240  222.4630 N   0  0  0  0  0  0  0  0  0  0  0  0
  136.7970   71.8420  222.0870 C   0  0  0  0  0  0  0  0  0  0  0  0
  137.4520   70.5980  222.5600 C   0  0  0  0  0  0  0  0  0  0  0  0
  136.7050   69.7350  223.0950 O   0  0  0  0  0  0  0  0  0  0  0  0
  138.8440   70.4500  222.3890 N   0  0  0  0  0  0  0  0  0  0  0  0
  139.3950   69.9950  221.1020 C   0  0  0  0  0  0  0  0  0  0  0  0
  140.3190   71.0440  220.5320 C   0  0  0  0  0  0  0  0  0  0  0  0
  141.2700   71.5980  221.5480 C   0  0  0  0  0  0  0  0  0  0  0  0
  140.7080   71.8290  222.9070 C   0  0  0  0  0  0  0  0  0  0  0  0
  139.8260   70.7200  223.4230 C   0  0  1  0  0  0  0  0  0  0  0  0
  139.2470   71.1160  224.7360 C   0  0  0  0  0  0  0  0  0  0  0  0
  139.7630   70.1840  225.7960 C   0  0  0  0  0  0  0  0  0  0  0  0
  140.4000   70.6780  226.9280 C   0  0  0  0  0  0  0  0  0  0  0  0
  140.8890   69.8570  227.9230 C   0  0  0  0  0  0  0  0  0  0  0  0
  140.7500   68.4890  227.8080 C   0  0  0  0  0  0  0  0  0  0  0  0
  140.1170   67.9830  226.6840 C   0  0  0  0  0  0  0  0  0  0  0  0
  139.6350   68.8180  225.7000 C   0  0  0  0  0  0  0  0  0  0  0  0
  139.0400   74.8980  221.7200 C   0  0  0  0  0  0  0  0  0  0  0  0
  140.3780   74.8910  221.3930 C   0  0  0  0  0  0  0  0  0  0  0  0
  141.1990   75.9740  221.6080 C   0  0  0  0  0  0  0  0  0  0  0  0
  140.6530   77.0940  222.1690 C   0  0  0  0  0  0  0  0  0  0  0  0
  141.4540   78.1940  222.3950 C   0  0  0  0  0  0  0  0  0  0  0  0
  140.9020   79.3210  222.9600 C   0  0  0  0  0  0  0  0  0  0  0  0
  141.7850   80.4970  223.1950 C   0  0  0  0  0  0  0  0  0  0  0  0
  143.0370   80.1070  223.6370 F   0  0  0  0  0  0  0  0  0  0  0  0
  141.1810   81.2860  224.1810 F   0  0  0  0  0  0  0  0  0  0  0  0
  141.8430   81.2580  222.0550 F   0  0  0  0  0  0  0  0  0  0  0  0
  139.5450   79.3470  223.2980 C   0  0  0  0  0  0  0  0  0  0  0  0
  138.7440   78.2260  223.0630 C   0  0  0  0  0  0  0  0  0  0  0  0
  139.2940   77.0950  222.4980 C   0  0  0  0  0  0  0  0  0  0  0  0
  138.5170   76.0080  222.2700 N   0  0  0  0  0  0  0  0  0  0  0  0
  137.5280   73.3880  223.4480 H   0  0  0  0  0  0  0  0  0  0  0  0
  135.7882   71.8977  222.5221 H   0  0  0  0  0  0  0  0  0  0  0  0
  136.7601   71.8052  220.9882 H   0  0  0  0  0  0  0  0  0  0  0  0
  139.9560   69.0615  221.2563 H   0  0  0  0  0  0  0  0  0  0  0  0
  138.5679   69.8233  220.3974 H   0  0  0  0  0  0  0  0  0  0  0  0
  140.9017   70.5922  219.7157 H   0  0  0  0  0  0  0  0  0  0  0  0
  139.6938   71.8765  220.1770 H   0  0  0  0  0  0  0  0  0  0  0  0
  142.1079   70.8920  221.6454 H   0  0  0  0  0  0  0  0  0  0  0  0
  141.5605   72.5906  221.1735 H   0  0  0  0  0  0  0  0  0  0  0  0
  141.5468   71.9534  223.6077 H   0  0  0  0  0  0  0  0  0  0  0  0
  140.0703   72.7221  222.8309 H   0  0  0  0  0  0  0  0  0  0  0  0
  140.3756   69.7878  223.6203 H   0  0  0  0  0  0  0  0  0  0  0  0
  139.5444   72.1478  224.9747 H   0  0  0  0  0  0  0  0  0  0  0  0
  138.1493   71.0593  224.6918 H   0  0  0  0  0  0  0  0  0  0  0  0
  140.5190   71.7663  227.0348 H   0  0  0  0  0  0  0  0  0  0  0  0
  141.3868   70.2904  228.8029 H   0  0  0  0  0  0  0  0  0  0  0  0
  141.1325   67.8163  228.5898 H   0  0  0  0  0  0  0  0  0  0  0  0
  139.9972   66.8949  226.5755 H   0  0  0  0  0  0  0  0  0  0  0  0
  139.1379   68.3836  224.8201 H   0  0  0  0  0  0  0  0  0  0  0  0
  140.8070   73.9839  220.9423 H   0  0  0  0  0  0  0  0  0  0  0  0
  142.2643   75.9392  221.3361 H   0  0  0  0  0  0  0  0  0  0  0  0
  142.5206   78.1707  222.1270 H   0  0  0  0  0  0  0  0  0  0  0  0
  139.1080   80.2501  223.7490 H   0  0  0  0  0  0  0  0  0  0  0  0
  137.6767   78.2461  223.3284 H   0  0  0  0  0  0  0  0  0  0  0  0
  1  2  2  0
  2  3  1  0
  3  4  1  0
  4  5  1  0
  5  6  2  0
  5  7  1  0
  7  8  1  0
  8  9  1  0
  9 10  1  0
 10 11  1  0
 11 12  1  0
 12 13  1  0
 13 14  1  0
 14 15  2  0
 15 16  1  0
 16 17  2  0
 17 18  1  0
 18 19  2  0
  2 20  1  0
 20 21  2  0
 21 22  1  0
 22 23  2  0
 23 24  1  0
 24 25  2  0
 25 26  1  0
 26 27  1  0
 26 28  1  0
 26 29  1  0
 25 30  1  0
 30 31  2  0
 31 32  1  0
 32 33  2  0
 12  7  1  0
 19 14  1  0
 33 20  1  0
 32 23  1  0
  3 34  1  0
  4 35  1  0
  4 36  1  0
  8 37  1  0
  8 38  1  0
  9 39  1  0
  9 40  1  0
 10 41  1  0
 10 42  1  0
 11 43  1  0
 11 44  1  0
 12 45  1  1
 13 46  1  0
 13 47  1  0
 15 48  1  0
 16 49  1  0
 17 50  1  0
 18 51  1  0
 19 52  1  0
 21 53  1  0
 22 54  1  0
 24 55  1  0
 30 56  1  0
 31 57  1  0
M  END
>  <smiles>  (98) 
O=C(NCC(=O)N1CCCCC1Cc1ccccc1)c1ccc2cc(C(F)(F)F)ccc2n1

>  <score_type>  (98) 
oracle

>  <origin>  (98) 
autodockgpu

>  <m_score__min__energy>  (98) 
-8.4199999999999999

>  <m_primary>  (98) 
energy

>  <rmsd>  (98) 
7.085040375532954

>  <m_score__min__rmsd>  (98) 
7.085040375532954

>  <meeko>  (98) 
{"free_energy": -7.81, "intermolecular_energy": -9.9, "internal_energy": -2.28, "cluster_size": 38, "cluster_id": 2, "rank_in_cluster": 25}

>  <energy>  (98) 
-7.64

>  <cluster_rmsd>  (98) 
1.66

>  <cluster>  (98) 
2

$$$$

     RDKit          3D

 57 60  0  0  0  0  0  0  0  0999 V2000
  137.7790   72.8170  220.7310 O   0  0  0  0  0  0  0  0  0  0  0  0
  137.6950   73.3410  221.8850 C   0  0  0  0  0  0  0  0  0  0  0  0
  137.1560   72.5100  222.9060 N   0  0  0  0  0  0  0  0  0  0  0  0
  136.7610   71.1740  222.5410 C   0  0  0  0  0  0  0  0  0  0  0  0
  137.7060   70.1490  223.0470 C   0  0  0  0  0  0  0  0  0  0  0  0
  137.2070   69.2020  223.7150 O   0  0  0  0  0  0  0  0  0  0  0  0
  139.0800   70.2820  222.7580 N   0  0  0  0  0  0  0  0  0  0  0  0
  139.6100   69.8860  221.4430 C   0  0  0  0  0  0  0  0  0  0  0  0
  140.2440   71.0730  220.7600 C   0  0  0  0  0  0  0  0  0  0  0  0
  141.1360   71.8610  221.6690 C   0  0  0  0  0  0  0  0  0  0  0  0
  140.6480   72.0400  223.0640 C   0  0  0  0  0  0  0  0  0  0  0  0
  140.0620   70.8000  223.6920 C   0  0  1  0  0  0  0  0  0  0  0  0
  139.5190   71.1340  225.0370 C   0  0  0  0  0  0  0  0  0  0  0  0
  140.0080   70.1140  226.0260 C   0  0  0  0  0  0  0  0  0  0  0  0
  139.8740   68.7540  225.7700 C   0  0  0  0  0  0  0  0  0  0  0  0
  140.3080   67.7860  226.6520 C   0  0  0  0  0  0  0  0  0  0  0  0
  140.9020   68.1610  227.8400 C   0  0  0  0  0  0  0  0  0  0  0  0
  141.0410   69.5140  228.1080 C   0  0  0  0  0  0  0  0  0  0  0  0
  140.6010   70.4670  227.2160 C   0  0  0  0  0  0  0  0  0  0  0  0
  138.1250   74.7070  222.1460 C   0  0  0  0  0  0  0  0  0  0  0  0
  137.1550   75.6490  222.4140 C   0  0  0  0  0  0  0  0  0  0  0  0
  137.4530   76.9660  222.6740 C   0  0  0  0  0  0  0  0  0  0  0  0
  138.7660   77.3430  222.6640 C   0  0  0  0  0  0  0  0  0  0  0  0
  139.0920   78.6580  222.9210 C   0  0  0  0  0  0  0  0  0  0  0  0
  140.4150   79.0360  222.9100 C   0  0  0  0  0  0  0  0  0  0  0  0
  140.7440   80.4610  223.1920 C   0  0  0  0  0  0  0  0  0  0  0  0
  141.0740   81.1410  222.0320 F   0  0  0  0  0  0  0  0  0  0  0  0
  141.8470   80.4750  224.0550 F   0  0  0  0  0  0  0  0  0  0  0  0
  139.7020   81.0440  223.8660 F   0  0  0  0  0  0  0  0  0  0  0  0
  141.4140   78.0950  222.6400 C   0  0  0  0  0  0  0  0  0  0  0  0
  141.0710   76.7650  222.3810 C   0  0  0  0  0  0  0  0  0  0  0  0
  139.7460   76.3830  222.3920 C   0  0  0  0  0  0  0  0  0  0  0  0
  139.4120   75.0940  222.1400 N   0  0  0  0  0  0  0  0  0  0  0  0
  137.0540   72.8700  223.8870 H   0  0  0  0  0  0  0  0  0  0  0  0
  135.7639   70.9732  222.9598 H   0  0  0  0  0  0  0  0  0  0  0  0
  136.7554   71.1132  221.4427 H   0  0  0  0  0  0  0  0  0  0  0  0
  140.3652   69.0976  221.5776 H   0  0  0  0  0  0  0  0  0  0  0  0
  138.7843   69.5113  220.8203 H   0  0  0  0  0  0  0  0  0  0  0  0
  140.8409   70.7111  219.9098 H   0  0  0  0  0  0  0  0  0  0  0  0
  139.4315   71.7398  220.4356 H   0  0  0  0  0  0  0  0  0  0  0  0
  142.1080   71.3480  221.7152 H   0  0  0  0  0  0  0  0  0  0  0  0
  141.1821   72.8719  221.2378 H   0  0  0  0  0  0  0  0  0  0  0  0
  141.4950   72.3699  223.6834 H   0  0  0  0  0  0  0  0  0  0  0  0
  139.8334   72.7776  223.0154 H   0  0  0  0  0  0  0  0  0  0  0  0
  140.8085   70.0121  223.8708 H   0  0  0  0  0  0  0  0  0  0  0  0
  139.8646   72.1344  225.3368 H   0  0  0  0  0  0  0  0  0  0  0  0
  138.4194   71.1273  225.0073 H   0  0  0  0  0  0  0  0  0  0  0  0
  139.4035   68.4375  224.8274 H   0  0  0  0  0  0  0  0  0  0  0  0
  140.1812   66.7206  226.4096 H   0  0  0  0  0  0  0  0  0  0  0  0
  141.2563   67.4051  228.5563 H   0  0  0  0  0  0  0  0  0  0  0  0
  141.5112   69.8324  229.0501 H   0  0  0  0  0  0  0  0  0  0  0  0
  140.7264   71.5322  227.4603 H   0  0  0  0  0  0  0  0  0  0  0  0
  136.1009   75.3348  222.4201 H   0  0  0  0  0  0  0  0  0  0  0  0
  136.6567   77.6953  222.8841 H   0  0  0  0  0  0  0  0  0  0  0  0
  138.3040   79.3958  223.1322 H   0  0  0  0  0  0  0  0  0  0  0  0
  142.4703   78.4019  222.6315 H   0  0  0  0  0  0  0  0  0  0  0  0
  141.8563   76.0246  222.1688 H   0  0  0  0  0  0  0  0  0  0  0  0
  1  2  2  0
  2  3  1  0
  3  4  1  0
  4  5  1  0
  5  6  2  0
  5  7  1  0
  7  8  1  0
  8  9  1  0
  9 10  1  0
 10 11  1  0
 11 12  1  0
 12 13  1  0
 13 14  1  0
 14 15  2  0
 15 16  1  0
 16 17  2  0
 17 18  1  0
 18 19  2  0
  2 20  1  0
 20 21  2  0
 21 22  1  0
 22 23  2  0
 23 24  1  0
 24 25  2  0
 25 26  1  0
 26 27  1  0
 26 28  1  0
 26 29  1  0
 25 30  1  0
 30 31  2  0
 31 32  1  0
 32 33  2  0
 12  7  1  0
 19 14  1  0
 33 20  1  0
 32 23  1  0
  3 34  1  0
  4 35  1  0
  4 36  1  0
  8 37  1  0
  8 38  1  0
  9 39  1  0
  9 40  1  0
 10 41  1  0
 10 42  1  0
 11 43  1  0
 11 44  1  0
 12 45  1  1
 13 46  1  0
 13 47  1  0
 15 48  1  0
 16 49  1  0
 17 50  1  0
 18 51  1  0
 19 52  1  0
 21 53  1  0
 22 54  1  0
 24 55  1  0
 30 56  1  0
 31 57  1  0
M  END
>  <smiles>  (99) 
O=C(NCC(=O)N1CCCCC1Cc1ccccc1)c1ccc2cc(C(F)(F)F)ccc2n1

>  <score_type>  (99) 
oracle

>  <origin>  (99) 
autodockgpu

>  <m_score__min__energy>  (99) 
-8.4199999999999999

>  <m_primary>  (99) 
energy

>  <rmsd>  (99) 
7.1063228647757235

>  <m_score__min__rmsd>  (99) 
7.1063228647757235

>  <meeko>  (99) 
{"free_energy": -7.91, "intermolecular_energy": -10.0, "internal_energy": -2.3, "cluster_size": 38, "cluster_id": 2, "rank_in_cluster": 12}

>  <energy>  (99) 
-7.63

>  <cluster_rmsd>  (99) 
1.5

>  <cluster>  (99) 
2

$$$$

     RDKit          3D

 57 60  0  0  0  0  0  0  0  0999 V2000
  136.9020   74.6950  221.1100 O   0  0  0  0  0  0  0  0  0  0  0  0
  137.9670   74.5930  221.7950 C   0  0  0  0  0  0  0  0  0  0  0  0
  138.2310   73.3090  222.3460 N   0  0  0  0  0  0  0  0  0  0  0  0
  137.2800   72.2600  222.0820 C   0  0  0  0  0  0  0  0  0  0  0  0
  136.8270   71.5830  223.3210 C   0  0  0  0  0  0  0  0  0  0  0  0
  136.0970   72.2570  224.0980 O   0  0  0  0  0  0  0  0  0  0  0  0
  137.2250   70.2510  223.5590 N   0  0  0  0  0  0  0  0  0  0  0  0
  136.2880   69.1390  223.3340 C   0  0  0  0  0  0  0  0  0  0  0  0
  136.8410   68.1960  222.2920 C   0  0  0  0  0  0  0  0  0  0  0  0
  138.2840   67.8660  222.5110 C   0  0  0  0  0  0  0  0  0  0  0  0
  139.1490   68.9920  222.9590 C   0  0  0  0  0  0  0  0  0  0  0  0
  138.5430   69.8660  224.0290 C   0  0  1  0  0  0  0  0  0  0  0  0
  139.4560   71.0080  224.3120 C   0  0  0  0  0  0  0  0  0  0  0  0
  140.0000   70.8610  225.7050 C   0  0  0  0  0  0  0  0  0  0  0  0
  139.8390   69.6740  226.4100 C   0  0  0  0  0  0  0  0  0  0  0  0
  140.3220   69.4990  227.6900 C   0  0  0  0  0  0  0  0  0  0  0  0
  140.9940   70.5310  228.3130 C   0  0  0  0  0  0  0  0  0  0  0  0
  141.1610   71.7200  227.6220 C   0  0  0  0  0  0  0  0  0  0  0  0
  140.6720   71.8770  226.3430 C   0  0  0  0  0  0  0  0  0  0  0  0
  138.8630   75.7230  222.0010 C   0  0  0  0  0  0  0  0  0  0  0  0
  140.1660   75.5990  221.5700 C   0  0  0  0  0  0  0  0  0  0  0  0
  141.0930   76.6040  221.7160 C   0  0  0  0  0  0  0  0  0  0  0  0
  140.6930   77.7670  222.3130 C   0  0  0  0  0  0  0  0  0  0  0  0
  141.6030   78.7900  222.4720 C   0  0  0  0  0  0  0  0  0  0  0  0
  141.1990   79.9600  223.0740 C   0  0  0  0  0  0  0  0  0  0  0  0
  142.1980   81.0530  223.2340 C   0  0  0  0  0  0  0  0  0  0  0  0
  142.1150   81.9680  222.1990 F   0  0  0  0  0  0  0  0  0  0  0  0
  143.4690   80.4660  223.2200 F   0  0  0  0  0  0  0  0  0  0  0  0
  142.0410   81.6360  224.4660 F   0  0  0  0  0  0  0  0  0  0  0  0
  139.8800   80.1050  223.5180 C   0  0  0  0  0  0  0  0  0  0  0  0
  138.9680   79.0600  223.3510 C   0  0  0  0  0  0  0  0  0  0  0  0
  139.3700   77.8860  222.7480 C   0  0  0  0  0  0  0  0  0  0  0  0
  138.4850   76.8720  222.5870 N   0  0  0  0  0  0  0  0  0  0  0  0
  139.0910   73.1440  222.9240 H   0  0  0  0  0  0  0  0  0  0  0  0
  136.4050   72.6953  221.5771 H   0  0  0  0  0  0  0  0  0  0  0  0
  137.7765   71.5080  221.4512 H   0  0  0  0  0  0  0  0  0  0  0  0
  136.1392   68.5923  224.2769 H   0  0  0  0  0  0  0  0  0  0  0  0
  135.3283   69.5434  222.9799 H   0  0  0  0  0  0  0  0  0  0  0  0
  136.2596   67.2626  222.3197 H   0  0  0  0  0  0  0  0  0  0  0  0
  136.7622   68.6992  221.3170 H   0  0  0  0  0  0  0  0  0  0  0  0
  138.3367   67.0762  223.2749 H   0  0  0  0  0  0  0  0  0  0  0  0
  138.6729   67.5659  221.5268 H   0  0  0  0  0  0  0  0  0  0  0  0
  140.0855   68.5693  223.3517 H   0  0  0  0  0  0  0  0  0  0  0  0
  139.2997   69.6363  222.0803 H   0  0  0  0  0  0  0  0  0  0  0  0
  138.4212   69.3487  224.9921 H   0  0  0  0  0  0  0  0  0  0  0  0
  140.2853   71.0059  223.5893 H   0  0  0  0  0  0  0  0  0  0  0  0
  138.9056   71.9564  224.2244 H   0  0  0  0  0  0  0  0  0  0  0  0
  139.3054   68.8415  225.9282 H   0  0  0  0  0  0  0  0  0  0  0  0
  140.1724   68.5421  228.2115 H   0  0  0  0  0  0  0  0  0  0  0  0
  141.3874   70.4123  229.3334 H   0  0  0  0  0  0  0  0  0  0  0  0
  141.6935   72.5539  228.1028 H   0  0  0  0  0  0  0  0  0  0  0  0
  140.8223   72.8342  225.8222 H   0  0  0  0  0  0  0  0  0  0  0  0
  140.4767   74.6591  221.0903 H   0  0  0  0  0  0  0  0  0  0  0  0
  142.1268   76.4759  221.3626 H   0  0  0  0  0  0  0  0  0  0  0  0
  142.6393   78.6728  222.1221 H   0  0  0  0  0  0  0  0  0  0  0  0
  139.5612   81.0417  223.9985 H   0  0  0  0  0  0  0  0  0  0  0  0
  137.9309   79.1730  223.6998 H   0  0  0  0  0  0  0  0  0  0  0  0
  1  2  2  0
  2  3  1  0
  3  4  1  0
  4  5  1  0
  5  6  2  0
  5  7  1  0
  7  8  1  0
  8  9  1  0
  9 10  1  0
 10 11  1  0
 11 12  1  0
 12 13  1  0
 13 14  1  0
 14 15  2  0
 15 16  1  0
 16 17  2  0
 17 18  1  0
 18 19  2  0
  2 20  1  0
 20 21  2  0
 21 22  1  0
 22 23  2  0
 23 24  1  0
 24 25  2  0
 25 26  1  0
 26 27  1  0
 26 28  1  0
 26 29  1  0
 25 30  1  0
 30 31  2  0
 31 32  1  0
 32 33  2  0
 12  7  1  0
 19 14  1  0
 33 20  1  0
 32 23  1  0
  3 34  1  0
  4 35  1  0
  4 36  1  0
  8 37  1  0
  8 38  1  0
  9 39  1  0
  9 40  1  0
 10 41  1  0
 10 42  1  0
 11 43  1  0
 11 44  1  0
 12 45  1  1
 13 46  1  0
 13 47  1  0
 15 48  1  0
 16 49  1  0
 17 50  1  0
 18 51  1  0
 19 52  1  0
 21 53  1  0
 22 54  1  0
 24 55  1  0
 30 56  1  0
 31 57  1  0
M  END
>  <smiles>  (100) 
O=C(NCC(=O)N1CCCCC1Cc1ccccc1)c1ccc2cc(C(F)(F)F)ccc2n1

>  <score_type>  (100) 
oracle

>  <origin>  (100) 
autodockgpu

>  <m_score__min__energy>  (100) 
-8.4199999999999999

>  <m_primary>  (100) 
energy

>  <rmsd>  (100) 
8.01415057453505

>  <m_score__min__rmsd>  (100) 
8.01415057453505

>  <meeko>  (100) 
{"free_energy": -8.3, "intermolecular_energy": -10.39, "internal_energy": -1.54, "cluster_size": 38, "cluster_id": 2, "rank_in_cluster": 2}

>  <energy>  (100) 
-8.14

>  <cluster_rmsd>  (100) 
0.0

>  <cluster>  (100) 
3

$$$$
