
     RDKit          3D

 51 54  0  0  0  0  0  0  0  0999 V2000
  141.6660   72.5060  220.9600 O   0  0  0  0  0  0  0  0  0  0  0  0
  140.9670   73.3550  221.5710 C   0  0  0  0  0  0  0  0  0  0  0  0
  140.0160   72.8410  222.5060 N   0  0  0  0  0  0  0  0  0  0  0  0
  139.9810   71.3800  222.6300 C   0  0  0  0  0  0  0  0  0  0  0  0
  139.3040   71.0730  223.9220 C   0  0  0  0  0  0  0  0  0  0  0  0
  138.1330   71.5020  224.1270 O   0  0  0  0  0  0  0  0  0  0  0  0
  139.9960   70.3000  224.8990 N   0  0  0  0  0  0  0  0  0  0  0  0
  140.8840   71.0080  225.8220 C   0  0  0  0  0  0  0  0  0  0  0  0
  140.2840   71.0150  227.2250 C   0  0  0  0  0  0  0  0  0  0  0  0
  140.7390   69.7840  227.9790 C   0  0  0  0  0  0  0  0  0  0  0  0
  140.6660   68.5250  227.1760 C   0  0  0  0  0  0  0  0  0  0  0  0
  139.4750   68.3980  226.2860 C   0  0  0  0  0  0  0  0  0  0  0  0
  139.7450   68.8760  224.8770 C   0  0  1  0  0  0  0  0  0  0  0  0
  138.6650   68.4960  223.9620 C   0  0  0  0  0  0  0  0  0  0  0  0
  138.7640   67.5740  222.9930 N   0  0  0  0  0  0  0  0  0  0  0  0
  137.6090   67.4650  222.3420 C   0  0  0  0  0  0  0  0  0  0  0  0
  136.7170   68.3610  222.9180 C   0  0  0  0  0  0  0  0  0  0  0  0
  137.4120   68.9640  223.9010 N   0  0  0  0  0  0  0  0  0  0  0  0
  141.1000   74.7950  221.3560 C   0  0  0  0  0  0  0  0  0  0  0  0
  141.8790   75.2090  220.2840 C   0  0  0  0  0  0  0  0  0  0  0  0
  142.0690   76.5510  219.9940 C   0  0  0  0  0  0  0  0  0  0  0  0
  141.4470   77.4560  220.8230 C   0  0  0  0  0  0  0  0  0  0  0  0
  141.6330   78.7950  220.5380 C   0  0  0  0  0  0  0  0  0  0  0  0
  141.0250   79.7390  221.3450 C   0  0  0  0  0  0  0  0  0  0  0  0
  141.2810   81.4180  220.9580 Cl  0  0  0  0  0  0  0  0  0  0  0  0
  140.2590   79.3160  222.4020 C   0  0  0  0  0  0  0  0  0  0  0  0
  140.0610   77.9700  222.7020 C   0  0  0  0  0  0  0  0  0  0  0  0
  140.6700   77.0260  221.8930 C   0  0  0  0  0  0  0  0  0  0  0  0
  140.5000   75.7060  222.1550 N   0  0  0  0  0  0  0  0  0  0  0  0
  139.3910   73.4650  223.0620 H   0  0  0  0  0  0  0  0  0  0  0  0
  139.4165   70.9425  221.7934 H   0  0  0  0  0  0  0  0  0  0  0  0
  140.9964   70.9577  222.6066 H   0  0  0  0  0  0  0  0  0  0  0  0
  141.8609   70.5029  225.8466 H   0  0  0  0  0  0  0  0  0  0  0  0
  141.0078   72.0455  225.4781 H   0  0  0  0  0  0  0  0  0  0  0  0
  140.6169   71.9161  227.7608 H   0  0  0  0  0  0  0  0  0  0  0  0
  139.1864   71.0135  227.1525 H   0  0  0  0  0  0  0  0  0  0  0  0
  141.7823   69.9353  228.2932 H   0  0  0  0  0  0  0  0  0  0  0  0
  140.0567   69.6601  228.8329 H   0  0  0  0  0  0  0  0  0  0  0  0
  141.5665   68.4720  226.5465 H   0  0  0  0  0  0  0  0  0  0  0  0
  140.5859   67.7059  227.9058 H   0  0  0  0  0  0  0  0  0  0  0  0
  139.1759   67.3402  226.2474 H   0  0  0  0  0  0  0  0  0  0  0  0
  138.6788   69.0312  226.7045 H   0  0  0  0  0  0  0  0  0  0  0  0
  140.6451   68.3794  224.4855 H   0  0  0  0  0  0  0  0  0  0  0  0
  137.3985   66.7884  221.5006 H   0  0  0  0  0  0  0  0  0  0  0  0
  135.6697   68.5392  222.6327 H   0  0  0  0  0  0  0  0  0  0  0  0
  136.9980   69.6980  224.5200 H   0  0  0  0  0  0  0  0  0  0  0  0
  142.3587   74.4511  219.6472 H   0  0  0  0  0  0  0  0  0  0  0  0
  142.6862   76.8763  219.1436 H   0  0  0  0  0  0  0  0  0  0  0  0
  142.2537   79.1046  219.6843 H   0  0  0  0  0  0  0  0  0  0  0  0
  139.7802   80.0730  223.0405 H   0  0  0  0  0  0  0  0  0  0  0  0
  139.4389   77.6662  223.5568 H   0  0  0  0  0  0  0  0  0  0  0  0
  1  2  2  0
  2  3  1  0
  3  4  1  0
  4  5  1  0
  5  6  2  0
  5  7  1  0
  7  8  1  0
  8  9  1  0
  9 10  1  0
 10 11  1  0
 11 12  1  0
 12 13  1  0
 13 14  1  0
 14 15  2  0
 15 16  1  0
 16 17  2  0
 17 18  1  0
  2 19  1  0
 19 20  2  0
 20 21  1  0
 21 22  2  0
 22 23  1  0
 23 24  2  0
 24 25  1  0
 24 26  1  0
 26 27  2  0
 27 28  1  0
 28 29  2  0
 13  7  1  0
 18 14  1  0
 29 19  1  0
 28 22  1  0
  3 30  1  0
  4 31  1  0
  4 32  1  0
  8 33  1  0
  8 34  1  0
  9 35  1  0
  9 36  1  0
 10 37  1  0
 10 38  1  0
 11 39  1  0
 11 40  1  0
 12 41  1  0
 12 42  1  0
 13 43  1  6
 16 44  1  0
 17 45  1  0
 18 46  1  0
 20 47  1  0
 21 48  1  0
 23 49  1  0
 26 50  1  0
 27 51  1  0
M  END
>  <smiles>  (1) 
O=C(NCC(=O)N1CCCCC[C@H]1c1ncc[nH]1)c1ccc2cc(Cl)ccc2n1

>  <score_type>  (1) 
oracle

>  <origin>  (1) 
autodockgpu

>  <m_score__min__energy>  (1) 
-6.0300000000000002

>  <m_primary>  (1) 
energy

>  <rmsd>  (1) 
9.325360305672051

>  <m_score__min__rmsd>  (1) 
9.325360305672051

>  <meeko>  (1) 
{"free_energy": -5.52, "intermolecular_energy": -8.8, "internal_energy": -2.3, "cluster_size": 5, "cluster_id": 4, "rank_in_cluster": 1}

>  <energy>  (1) 
-6.03

>  <cluster_rmsd>  (1) 
0.0

>  <cluster>  (1) 
1

$$$$

     RDKit          3D

 51 54  0  0  0  0  0  0  0  0999 V2000
  134.8530   68.6710  224.9630 O   0  0  0  0  0  0  0  0  0  0  0  0
  135.3130   69.8390  225.0480 C   0  0  0  0  0  0  0  0  0  0  0  0
  136.6240   70.0460  224.5210 N   0  0  0  0  0  0  0  0  0  0  0  0
  137.2660   68.8600  223.9430 C   0  0  0  0  0  0  0  0  0  0  0  0
  138.5310   68.6420  224.7000 C   0  0  0  0  0  0  0  0  0  0  0  0
  139.1780   67.5700  224.5320 O   0  0  0  0  0  0  0  0  0  0  0  0
  138.9840   69.6520  225.5970 N   0  0  0  0  0  0  0  0  0  0  0  0
  138.8080   69.4160  227.0300 C   0  0  0  0  0  0  0  0  0  0  0  0
  139.7850   70.2770  227.8270 C   0  0  0  0  0  0  0  0  0  0  0  0
  141.2030   69.8300  227.5430 C   0  0  0  0  0  0  0  0  0  0  0  0
  141.5040   69.6660  226.0870 C   0  0  0  0  0  0  0  0  0  0  0  0
  141.0740   70.7910  225.2120 C   0  0  0  0  0  0  0  0  0  0  0  0
  139.5790   70.8220  224.9900 C   0  0  1  0  0  0  0  0  0  0  0  0
  139.2480   70.9650  223.5700 C   0  0  0  0  0  0  0  0  0  0  0  0
  138.4140   71.8840  223.0610 N   0  0  0  0  0  0  0  0  0  0  0  0
  138.3290   71.7470  221.7400 C   0  0  0  0  0  0  0  0  0  0  0  0
  139.1480   70.6850  221.3750 C   0  0  0  0  0  0  0  0  0  0  0  0
  139.6830   70.2440  222.5290 N   0  0  0  0  0  0  0  0  0  0  0  0
  134.5670   70.9430  225.6500 C   0  0  0  0  0  0  0  0  0  0  0  0
  133.5930   70.6180  226.5850 C   0  0  0  0  0  0  0  0  0  0  0  0
  132.8300   71.5900  227.2130 C   0  0  0  0  0  0  0  0  0  0  0  0
  133.0860   72.8960  226.8660 C   0  0  0  0  0  0  0  0  0  0  0  0
  132.3290   73.8690  227.4900 C   0  0  0  0  0  0  0  0  0  0  0  0
  132.5530   75.1950  227.1720 C   0  0  0  0  0  0  0  0  0  0  0  0
  131.5800   76.3950  227.9760 Cl  0  0  0  0  0  0  0  0  0  0  0  0
  133.5190   75.5020  226.2460 C   0  0  0  0  0  0  0  0  0  0  0  0
  134.2910   74.5330  225.6090 C   0  0  0  0  0  0  0  0  0  0  0  0
  134.0660   73.2060  225.9290 C   0  0  0  0  0  0  0  0  0  0  0  0
  134.7980   72.2360  225.3280 N   0  0  0  0  0  0  0  0  0  0  0  0
  137.0920   70.9790  224.5440 H   0  0  0  0  0  0  0  0  0  0  0  0
  136.6075   67.9849  224.0462 H   0  0  0  0  0  0  0  0  0  0  0  0
  137.4676   69.0037  222.8712 H   0  0  0  0  0  0  0  0  0  0  0  0
  137.7779   69.6735  227.3174 H   0  0  0  0  0  0  0  0  0  0  0  0
  139.0028   68.3554  227.2470 H   0  0  0  0  0  0  0  0  0  0  0  0
  139.6676   71.3308  227.5341 H   0  0  0  0  0  0  0  0  0  0  0  0
  139.5757   70.1683  228.9014 H   0  0  0  0  0  0  0  0  0  0  0  0
  141.8927   70.5801  227.9574 H   0  0  0  0  0  0  0  0  0  0  0  0
  141.3268   68.8414  228.0091 H   0  0  0  0  0  0  0  0  0  0  0  0
  142.5922   69.5484  225.9773 H   0  0  0  0  0  0  0  0  0  0  0  0
  140.9271   68.7896  225.7567 H   0  0  0  0  0  0  0  0  0  0  0  0
  141.3793   71.7378  225.6813 H   0  0  0  0  0  0  0  0  0  0  0  0
  141.5516   70.6491  224.2313 H   0  0  0  0  0  0  0  0  0  0  0  0
  139.1523   71.7103  225.4787 H   0  0  0  0  0  0  0  0  0  0  0  0
  137.7211   72.3624  221.0605 H   0  0  0  0  0  0  0  0  0  0  0  0
  139.3214   70.2905  220.3629 H   0  0  0  0  0  0  0  0  0  0  0  0
  140.3520   69.4410  222.5720 H   0  0  0  0  0  0  0  0  0  0  0  0
  133.4223   69.5602  226.8341 H   0  0  0  0  0  0  0  0  0  0  0  0
  132.0581   71.3297  227.9522 H   0  0  0  0  0  0  0  0  0  0  0  0
  131.5610   73.5928  228.2275 H   0  0  0  0  0  0  0  0  0  0  0  0
  133.6909   76.5594  225.9961 H   0  0  0  0  0  0  0  0  0  0  0  0
  135.0578   74.8150  224.8724 H   0  0  0  0  0  0  0  0  0  0  0  0
  1  2  2  0
  2  3  1  0
  3  4  1  0
  4  5  1  0
  5  6  2  0
  5  7  1  0
  7  8  1  0
  8  9  1  0
  9 10  1  0
 10 11  1  0
 11 12  1  0
 12 13  1  0
 13 14  1  0
 14 15  2  0
 15 16  1  0
 16 17  2  0
 17 18  1  0
  2 19  1  0
 19 20  2  0
 20 21  1  0
 21 22  2  0
 22 23  1  0
 23 24  2  0
 24 25  1  0
 24 26  1  0
 26 27  2  0
 27 28  1  0
 28 29  2  0
 13  7  1  0
 18 14  1  0
 29 19  1  0
 28 22  1  0
  3 30  1  0
  4 31  1  0
  4 32  1  0
  8 33  1  0
  8 34  1  0
  9 35  1  0
  9 36  1  0
 10 37  1  0
 10 38  1  0
 11 39  1  0
 11 40  1  0
 12 41  1  0
 12 42  1  0
 13 43  1  1
 16 44  1  0
 17 45  1  0
 18 46  1  0
 20 47  1  0
 21 48  1  0
 23 49  1  0
 26 50  1  0
 27 51  1  0
M  END
>  <smiles>  (2) 
O=C(NCC(=O)N1CCCCC[C@H]1c1ncc[nH]1)c1ccc2cc(Cl)ccc2n1

>  <score_type>  (2) 
oracle

>  <origin>  (2) 
autodockgpu

>  <m_score__min__energy>  (2) 
-6.0300000000000002

>  <m_primary>  (2) 
energy

>  <rmsd>  (2) 
8.343569278563221

>  <m_score__min__rmsd>  (2) 
8.343569278563221

>  <meeko>  (2) 
{"free_energy": -4.58, "intermolecular_energy": -7.86, "internal_energy": -2.41, "cluster_size": 2, "cluster_id": 5, "rank_in_cluster": 2}

>  <energy>  (2) 
-5.37

>  <cluster_rmsd>  (2) 
0.99

>  <cluster>  (2) 
1

$$$$

     RDKit          3D

 51 54  0  0  0  0  0  0  0  0999 V2000
  135.3750   76.0660  222.5940 O   0  0  0  0  0  0  0  0  0  0  0  0
  136.5220   75.5510  222.6620 C   0  0  0  0  0  0  0  0  0  0  0  0
  136.5750   74.1240  222.7040 N   0  0  0  0  0  0  0  0  0  0  0  0
  135.2770   73.4430  222.6610 C   0  0  0  0  0  0  0  0  0  0  0  0
  134.9730   73.0030  224.0520 C   0  0  0  0  0  0  0  0  0  0  0  0
  135.8180   73.2150  224.9680 O   0  0  0  0  0  0  0  0  0  0  0  0
  133.7340   72.3530  224.3180 N   0  0  0  0  0  0  0  0  0  0  0  0
  133.5480   71.0020  223.7890 C   0  0  0  0  0  0  0  0  0  0  0  0
  133.2360   70.0320  224.9250 C   0  0  0  0  0  0  0  0  0  0  0  0
  134.0290   70.4190  226.1550 C   0  0  0  0  0  0  0  0  0  0  0  0
  133.4200   71.5390  226.9370 C   0  0  0  0  0  0  0  0  0  0  0  0
  132.3050   72.2620  226.2580 C   0  0  0  0  0  0  0  0  0  0  0  0
  132.7750   73.1060  225.0950 C   0  0  1  0  0  0  0  0  0  0  0  0
  133.2880   74.4030  225.5430 C   0  0  0  0  0  0  0  0  0  0  0  0
  133.4780   74.7580  226.8230 N   0  0  0  0  0  0  0  0  0  0  0  0
  133.9540   75.9990  226.8910 C   0  0  0  0  0  0  0  0  0  0  0  0
  134.0780   76.4720  225.5900 C   0  0  0  0  0  0  0  0  0  0  0  0
  133.6580   75.4600  224.8090 N   0  0  0  0  0  0  0  0  0  0  0  0
  137.7470   76.3460  222.6970 C   0  0  0  0  0  0  0  0  0  0  0  0
  138.9270   75.7150  222.3270 C   0  0  0  0  0  0  0  0  0  0  0  0
  140.1430   76.3800  222.3270 C   0  0  0  0  0  0  0  0  0  0  0  0
  140.1240   77.7010  222.7120 C   0  0  0  0  0  0  0  0  0  0  0  0
  141.3340   78.3690  222.7130 C   0  0  0  0  0  0  0  0  0  0  0  0
  141.3620   79.6970  223.0930 C   0  0  0  0  0  0  0  0  0  0  0  0
  142.9030   80.5090  223.0840 Cl  0  0  0  0  0  0  0  0  0  0  0  0
  140.1880   80.3090  223.4580 C   0  0  0  0  0  0  0  0  0  0  0  0
  138.9610   79.6500  223.4610 C   0  0  0  0  0  0  0  0  0  0  0  0
  138.9350   78.3200  223.0800 C   0  0  0  0  0  0  0  0  0  0  0  0
  137.7580   77.6460  223.0720 N   0  0  0  0  0  0  0  0  0  0  0  0
  137.4780   73.6030  222.7590 H   0  0  0  0  0  0  0  0  0  0  0  0
  134.4989   74.1339  222.3042 H   0  0  0  0  0  0  0  0  0  0  0  0
  135.3052   72.5846  221.9737 H   0  0  0  0  0  0  0  0  0  0  0  0
  132.7134   71.0036  223.0725 H   0  0  0  0  0  0  0  0  0  0  0  0
  134.4725   70.6819  223.2862 H   0  0  0  0  0  0  0  0  0  0  0  0
  132.1610   70.0712  225.1551 H   0  0  0  0  0  0  0  0  0  0  0  0
  133.5100   69.0114  224.6197 H   0  0  0  0  0  0  0  0  0  0  0  0
  134.1042   69.5388  226.8105 H   0  0  0  0  0  0  0  0  0  0  0  0
  135.0119   70.7687  225.8061 H   0  0  0  0  0  0  0  0  0  0  0  0
  133.0314   71.1234  227.8784 H   0  0  0  0  0  0  0  0  0  0  0  0
  134.2203   72.2803  227.0779 H   0  0  0  0  0  0  0  0  0  0  0  0
  131.5819   71.5217  225.8851 H   0  0  0  0  0  0  0  0  0  0  0  0
  131.8519   72.9396  226.9966 H   0  0  0  0  0  0  0  0  0  0  0  0
  131.9216   73.3413  224.4420 H   0  0  0  0  0  0  0  0  0  0  0  0
  134.2038   76.5500  227.8097 H   0  0  0  0  0  0  0  0  0  0  0  0
  134.4408   77.4594  225.2685 H   0  0  0  0  0  0  0  0  0  0  0  0
  133.6370   75.5220  223.7640 H   0  0  0  0  0  0  0  0  0  0  0  0
  138.8960   74.6576  222.0254 H   0  0  0  0  0  0  0  0  0  0  0  0
  141.0764   75.8771  222.0340 H   0  0  0  0  0  0  0  0  0  0  0  0
  142.2587   77.8523  222.4164 H   0  0  0  0  0  0  0  0  0  0  0  0
  140.2181   81.3659  223.7612 H   0  0  0  0  0  0  0  0  0  0  0  0
  138.0392   80.1718  223.7577 H   0  0  0  0  0  0  0  0  0  0  0  0
  1  2  2  0
  2  3  1  0
  3  4  1  0
  4  5  1  0
  5  6  2  0
  5  7  1  0
  7  8  1  0
  8  9  1  0
  9 10  1  0
 10 11  1  0
 11 12  1  0
 12 13  1  0
 13 14  1  0
 14 15  2  0
 15 16  1  0
 16 17  2  0
 17 18  1  0
  2 19  1  0
 19 20  2  0
 20 21  1  0
 21 22  2  0
 22 23  1  0
 23 24  2  0
 24 25  1  0
 24 26  1  0
 26 27  2  0
 27 28  1  0
 28 29  2  0
 13  7  1  0
 18 14  1  0
 29 19  1  0
 28 22  1  0
  3 30  1  0
  4 31  1  0
  4 32  1  0
  8 33  1  0
  8 34  1  0
  9 35  1  0
  9 36  1  0
 10 37  1  0
 10 38  1  0
 11 39  1  0
 11 40  1  0
 12 41  1  0
 12 42  1  0
 13 43  1  6
 16 44  1  0
 17 45  1  0
 18 46  1  0
 20 47  1  0
 21 48  1  0
 23 49  1  0
 26 50  1  0
 27 51  1  0
M  END
>  <smiles>  (3) 
O=C(NCC(=O)N1CCCCC[C@H]1c1ncc[nH]1)c1ccc2cc(Cl)ccc2n1

>  <score_type>  (3) 
oracle

>  <origin>  (3) 
autodockgpu

>  <m_score__min__energy>  (3) 
-6.0300000000000002

>  <m_primary>  (3) 
energy

>  <rmsd>  (3) 
9.009293589672811

>  <m_score__min__rmsd>  (3) 
9.009293589672811

>  <meeko>  (3) 
{"free_energy": -4.39, "intermolecular_energy": -7.67, "internal_energy": -2.48, "cluster_size": 2, "cluster_id": 13, "rank_in_cluster": 1}

>  <energy>  (3) 
-5.11

>  <cluster_rmsd>  (3) 
1.46

>  <cluster>  (3) 
1

$$$$

     RDKit          3D

 51 54  0  0  0  0  0  0  0  0999 V2000
  139.7980   71.8550  220.8470 O   0  0  0  0  0  0  0  0  0  0  0  0
  139.7500   72.3010  222.0230 C   0  0  0  0  0  0  0  0  0  0  0  0
  139.5650   73.7110  222.1600 N   0  0  0  0  0  0  0  0  0  0  0  0
  139.4530   74.4580  220.9020 C   0  0  0  0  0  0  0  0  0  0  0  0
  140.5390   75.4790  220.9080 C   0  0  0  0  0  0  0  0  0  0  0  0
  141.1140   75.7680  221.9960 O   0  0  0  0  0  0  0  0  0  0  0  0
  140.9060   76.1070  219.6830 N   0  0  0  0  0  0  0  0  0  0  0  0
  140.0230   77.1520  219.1650 C   0  0  0  0  0  0  0  0  0  0  0  0
  140.3290   78.4830  219.8480 C   0  0  0  0  0  0  0  0  0  0  0  0
  141.7870   78.8340  219.6460 C   0  0  0  0  0  0  0  0  0  0  0  0
  142.4460   78.0640  218.5460 C   0  0  0  0  0  0  0  0  0  0  0  0
  143.1040   76.7910  218.9670 C   0  0  0  0  0  0  0  0  0  0  0  0
  142.1300   75.6400  219.0710 C   0  0  1  0  0  0  0  0  0  0  0  0
  142.7210   74.4940  219.7670 C   0  0  0  0  0  0  0  0  0  0  0  0
  143.9450   74.4720  220.3160 N   0  0  0  0  0  0  0  0  0  0  0  0
  144.1790   73.2850  220.8700 C   0  0  0  0  0  0  0  0  0  0  0  0
  143.0520   72.4990  220.6700 C   0  0  0  0  0  0  0  0  0  0  0  0
  142.1940   73.2840  219.9930 N   0  0  0  0  0  0  0  0  0  0  0  0
  139.8740   71.4460  223.2010 C   0  0  0  0  0  0  0  0  0  0  0  0
  139.4560   70.1270  223.0780 C   0  0  0  0  0  0  0  0  0  0  0  0
  139.5320   69.2350  224.1360 C   0  0  0  0  0  0  0  0  0  0  0  0
  140.0430   69.7200  225.3180 C   0  0  0  0  0  0  0  0  0  0  0  0
  140.1210   68.8340  226.3750 C   0  0  0  0  0  0  0  0  0  0  0  0
  140.6290   69.2780  227.5810 C   0  0  0  0  0  0  0  0  0  0  0  0
  140.7120   68.1360  228.8940 Cl  0  0  0  0  0  0  0  0  0  0  0  0
  141.0380   70.5840  227.6900 C   0  0  0  0  0  0  0  0  0  0  0  0
  140.9660   71.4890  226.6330 C   0  0  0  0  0  0  0  0  0  0  0  0
  140.4580   71.0420  225.4260 C   0  0  0  0  0  0  0  0  0  0  0  0
  140.3730   71.8950  224.3750 N   0  0  0  0  0  0  0  0  0  0  0  0
  139.5110   74.1760  223.0930 H   0  0  0  0  0  0  0  0  0  0  0  0
  139.5771   73.7785  220.0459 H   0  0  0  0  0  0  0  0  0  0  0  0
  138.4652   74.9336  220.8125 H   0  0  0  0  0  0  0  0  0  0  0  0
  140.1781   77.2551  218.0809 H   0  0  0  0  0  0  0  0  0  0  0  0
  138.9782   76.8744  219.3686 H   0  0  0  0  0  0  0  0  0  0  0  0
  139.6987   79.2718  219.4116 H   0  0  0  0  0  0  0  0  0  0  0  0
  140.1196   78.3977  220.9245 H   0  0  0  0  0  0  0  0  0  0  0  0
  141.8561   79.9059  219.4088 H   0  0  0  0  0  0  0  0  0  0  0  0
  142.3113   78.5746  220.5776 H   0  0  0  0  0  0  0  0  0  0  0  0
  141.6799   77.8192  217.7956 H   0  0  0  0  0  0  0  0  0  0  0  0
  143.2486   78.7095  218.1598 H   0  0  0  0  0  0  0  0  0  0  0  0
  143.8769   76.5328  218.2281 H   0  0  0  0  0  0  0  0  0  0  0  0
  143.5356   76.9535  219.9657 H   0  0  0  0  0  0  0  0  0  0  0  0
  141.8855   75.2726  218.0634 H   0  0  0  0  0  0  0  0  0  0  0  0
  145.0986   72.9815  221.3918 H   0  0  0  0  0  0  0  0  0  0  0  0
  142.8947   71.4598  220.9946 H   0  0  0  0  0  0  0  0  0  0  0  0
  141.2430   72.9610  219.6960 H   0  0  0  0  0  0  0  0  0  0  0  0
  139.0536   69.7810  222.1145 H   0  0  0  0  0  0  0  0  0  0  0  0
  139.2003   68.1910  224.0358 H   0  0  0  0  0  0  0  0  0  0  0  0
  139.7846   67.7932  226.2587 H   0  0  0  0  0  0  0  0  0  0  0  0
  141.4399   70.9309  228.6534 H   0  0  0  0  0  0  0  0  0  0  0  0
  141.3033   72.5289  226.7545 H   0  0  0  0  0  0  0  0  0  0  0  0
  1  2  2  0
  2  3  1  0
  3  4  1  0
  4  5  1  0
  5  6  2  0
  5  7  1  0
  7  8  1  0
  8  9  1  0
  9 10  1  0
 10 11  1  0
 11 12  1  0
 12 13  1  0
 13 14  1  0
 14 15  2  0
 15 16  1  0
 16 17  2  0
 17 18  1  0
  2 19  1  0
 19 20  2  0
 20 21  1  0
 21 22  2  0
 22 23  1  0
 23 24  2  0
 24 25  1  0
 24 26  1  0
 26 27  2  0
 27 28  1  0
 28 29  2  0
 13  7  1  0
 18 14  1  0
 29 19  1  0
 28 22  1  0
  3 30  1  0
  4 31  1  0
  4 32  1  0
  8 33  1  0
  8 34  1  0
  9 35  1  0
  9 36  1  0
 10 37  1  0
 10 38  1  0
 11 39  1  0
 11 40  1  0
 12 41  1  0
 12 42  1  0
 13 43  1  6
 16 44  1  0
 17 45  1  0
 18 46  1  0
 20 47  1  0
 21 48  1  0
 23 49  1  0
 26 50  1  0
 27 51  1  0
M  END
>  <smiles>  (4) 
O=C(NCC(=O)N1CCCCC[C@H]1c1ncc[nH]1)c1ccc2cc(Cl)ccc2n1

>  <score_type>  (4) 
oracle

>  <origin>  (4) 
autodockgpu

>  <m_score__min__energy>  (4) 
-6.0300000000000002

>  <m_primary>  (4) 
energy

>  <rmsd>  (4) 
3.247752823598428

>  <m_score__min__rmsd>  (4) 
3.247752823598428

>  <meeko>  (4) 
{"free_energy": -5.16, "intermolecular_energy": -8.45, "internal_energy": -2.8, "cluster_size": 5, "cluster_id": 6, "rank_in_cluster": 1}

>  <energy>  (4) 
-4.67

>  <cluster_rmsd>  (4) 
0.95

>  <cluster>  (4) 
1

$$$$

     RDKit          3D

 51 54  0  0  0  0  0  0  0  0999 V2000
  138.5940   71.8030  220.9420 O   0  0  0  0  0  0  0  0  0  0  0  0
  139.2350   72.2180  221.9420 C   0  0  0  0  0  0  0  0  0  0  0  0
  139.6940   73.5700  221.8860 N   0  0  0  0  0  0  0  0  0  0  0  0
  139.3530   74.3010  220.6600 C   0  0  0  0  0  0  0  0  0  0  0  0
  140.3930   73.9570  219.6490 C   0  0  0  0  0  0  0  0  0  0  0  0
  140.0850   73.9350  218.4240 O   0  0  0  0  0  0  0  0  0  0  0  0
  141.7160   73.6600  220.0890 N   0  0  0  0  0  0  0  0  0  0  0  0
  141.9900   72.2990  220.5490 C   0  0  0  0  0  0  0  0  0  0  0  0
  143.0170   71.6340  219.6360 C   0  0  0  0  0  0  0  0  0  0  0  0
  144.4130   71.9650  220.1170 C   0  0  0  0  0  0  0  0  0  0  0  0
  144.7720   73.4100  219.9770 C   0  0  0  0  0  0  0  0  0  0  0  0
  143.9250   74.3510  220.7650 C   0  0  0  0  0  0  0  0  0  0  0  0
  142.6630   74.7520  220.0350 C   0  0  1  0  0  0  0  0  0  0  0  0
  142.9490   75.1980  218.6690 C   0  0  0  0  0  0  0  0  0  0  0  0
  143.6690   76.2830  218.3470 N   0  0  0  0  0  0  0  0  0  0  0  0
  143.7430   76.4110  217.0240 C   0  0  0  0  0  0  0  0  0  0  0  0
  143.0360   75.3560  216.4610 C   0  0  0  0  0  0  0  0  0  0  0  0
  142.5720   74.6480  217.5080 N   0  0  0  0  0  0  0  0  0  0  0  0
  139.5100   71.3840  223.1100 C   0  0  0  0  0  0  0  0  0  0  0  0
  139.1100   70.0550  223.0520 C   0  0  0  0  0  0  0  0  0  0  0  0
  139.3240   69.1820  224.1070 C   0  0  0  0  0  0  0  0  0  0  0  0
  139.9530   69.6960  225.2170 C   0  0  0  0  0  0  0  0  0  0  0  0
  140.1680   68.8290  226.2710 C   0  0  0  0  0  0  0  0  0  0  0  0
  140.7970   69.3020  227.4070 C   0  0  0  0  0  0  0  0  0  0  0  0
  141.0520   68.1830  228.7170 Cl  0  0  0  0  0  0  0  0  0  0  0  0
  141.1860   70.6180  227.4510 C   0  0  0  0  0  0  0  0  0  0  0  0
  140.9770   71.5050  226.3970 C   0  0  0  0  0  0  0  0  0  0  0  0
  140.3470   71.0280  225.2610 C   0  0  0  0  0  0  0  0  0  0  0  0
  140.1260   71.8630  224.2150 N   0  0  0  0  0  0  0  0  0  0  0  0
  140.2340   74.0070  222.6650 H   0  0  0  0  0  0  0  0  0  0  0  0
  138.3596   73.9946  220.3005 H   0  0  0  0  0  0  0  0  0  0  0  0
  139.3240   75.3854  220.8426 H   0  0  0  0  0  0  0  0  0  0  0  0
  142.3842   72.3342  221.5753 H   0  0  0  0  0  0  0  0  0  0  0  0
  141.0572   71.7165  220.5264 H   0  0  0  0  0  0  0  0  0  0  0  0
  142.8721   70.5438  219.6549 H   0  0  0  0  0  0  0  0  0  0  0  0
  142.8870   72.0048  218.6086 H   0  0  0  0  0  0  0  0  0  0  0  0
  144.4882   71.6902  221.1795 H   0  0  0  0  0  0  0  0  0  0  0  0
  145.1127   71.3980  219.4854 H   0  0  0  0  0  0  0  0  0  0  0  0
  145.8150   73.5353  220.3034 H   0  0  0  0  0  0  0  0  0  0  0  0
  144.6107   73.6648  218.9192 H   0  0  0  0  0  0  0  0  0  0  0  0
  143.6448   73.8643  221.7108 H   0  0  0  0  0  0  0  0  0  0  0  0
  144.5140   75.2641  220.9360 H   0  0  0  0  0  0  0  0  0  0  0  0
  142.2081   75.6199  220.5348 H   0  0  0  0  0  0  0  0  0  0  0  0
  144.2684   77.2072  216.4763 H   0  0  0  0  0  0  0  0  0  0  0  0
  142.8875   75.1449  215.3917 H   0  0  0  0  0  0  0  0  0  0  0  0
  141.9950   73.7820  217.3960 H   0  0  0  0  0  0  0  0  0  0  0  0
  138.6100   69.6856  222.1445 H   0  0  0  0  0  0  0  0  0  0  0  0
  139.0065   68.1299  224.0590 H   0  0  0  0  0  0  0  0  0  0  0  0
  139.8439   67.7798  226.2070 H   0  0  0  0  0  0  0  0  0  0  0  0
  141.6848   70.9885  228.3587 H   0  0  0  0  0  0  0  0  0  0  0  0
  141.3031   72.5533  226.4659 H   0  0  0  0  0  0  0  0  0  0  0  0
  1  2  2  0
  2  3  1  0
  3  4  1  0
  4  5  1  0
  5  6  2  0
  5  7  1  0
  7  8  1  0
  8  9  1  0
  9 10  1  0
 10 11  1  0
 11 12  1  0
 12 13  1  0
 13 14  1  0
 14 15  2  0
 15 16  1  0
 16 17  2  0
 17 18  1  0
  2 19  1  0
 19 20  2  0
 20 21  1  0
 21 22  2  0
 22 23  1  0
 23 24  2  0
 24 25  1  0
 24 26  1  0
 26 27  2  0
 27 28  1  0
 28 29  2  0
 13  7  1  0
 18 14  1  0
 29 19  1  0
 28 22  1  0
  3 30  1  0
  4 31  1  0
  4 32  1  0
  8 33  1  0
  8 34  1  0
  9 35  1  0
  9 36  1  0
 10 37  1  0
 10 38  1  0
 11 39  1  0
 11 40  1  0
 12 41  1  0
 12 42  1  0
 13 43  1  1
 16 44  1  0
 17 45  1  0
 18 46  1  0
 20 47  1  0
 21 48  1  0
 23 49  1  0
 26 50  1  0
 27 51  1  0
M  END
>  <smiles>  (5) 
O=C(NCC(=O)N1CCCCC[C@H]1c1ncc[nH]1)c1ccc2cc(Cl)ccc2n1

>  <score_type>  (5) 
oracle

>  <origin>  (5) 
autodockgpu

>  <m_score__min__energy>  (5) 
-6.0300000000000002

>  <m_primary>  (5) 
energy

>  <rmsd>  (5) 
3.8467532562629914

>  <m_score__min__rmsd>  (5) 
3.8467532562629914

>  <meeko>  (5) 
{"free_energy": -4.21, "intermolecular_energy": -7.49, "internal_energy": -2.62, "cluster_size": 2, "cluster_id": 9, "rank_in_cluster": 2}

>  <energy>  (5) 
-4.51

>  <cluster_rmsd>  (5) 
1.74

>  <cluster>  (5) 
1

$$$$

     RDKit          3D

 51 54  0  0  0  0  0  0  0  0999 V2000
  140.9360   72.4750  221.1890 O   0  0  0  0  0  0  0  0  0  0  0  0
  140.2290   72.6670  222.2120 C   0  0  0  0  0  0  0  0  0  0  0  0
  139.4180   73.8430  222.2110 N   0  0  0  0  0  0  0  0  0  0  0  0
  139.5160   74.6760  221.0080 C   0  0  0  0  0  0  0  0  0  0  0  0
  140.5000   75.7550  221.3080 C   0  0  0  0  0  0  0  0  0  0  0  0
  140.3980   76.4040  222.3880 O   0  0  0  0  0  0  0  0  0  0  0  0
  141.5350   76.0290  220.3690 N   0  0  0  0  0  0  0  0  0  0  0  0
  142.1520   77.3550  220.4050 C   0  0  0  0  0  0  0  0  0  0  0  0
  141.3230   78.3400  219.5850 C   0  0  0  0  0  0  0  0  0  0  0  0
  141.3550   77.9400  218.1260 C   0  0  0  0  0  0  0  0  0  0  0  0
  140.8380   76.5610  217.8670 C   0  0  0  0  0  0  0  0  0  0  0  0
  141.8340   75.4660  218.0430 C   0  0  0  0  0  0  0  0  0  0  0  0
  141.8730   74.9520  219.4650 C   0  0  1  0  0  0  0  0  0  0  0  0
  143.1600   74.3220  219.7750 C   0  0  0  0  0  0  0  0  0  0  0  0
  144.2740   74.4390  219.0370 N   0  0  0  0  0  0  0  0  0  0  0  0
  145.2670   73.7460  219.5900 C   0  0  0  0  0  0  0  0  0  0  0  0
  144.7710   73.1510  220.7430 C   0  0  0  0  0  0  0  0  0  0  0  0
  143.4820   73.5340  220.8080 N   0  0  0  0  0  0  0  0  0  0  0  0
  140.2210   71.7540  223.3530 C   0  0  0  0  0  0  0  0  0  0  0  0
  139.7020   70.4820  223.1470 C   0  0  0  0  0  0  0  0  0  0  0  0
  139.6480   69.5420  224.1630 C   0  0  0  0  0  0  0  0  0  0  0  0
  140.1350   69.9300  225.3900 C   0  0  0  0  0  0  0  0  0  0  0  0
  140.0840   68.9950  226.4060 C   0  0  0  0  0  0  0  0  0  0  0  0
  140.5640   69.3410  227.6560 C   0  0  0  0  0  0  0  0  0  0  0  0
  140.4830   68.1400  228.9140 Cl  0  0  0  0  0  0  0  0  0  0  0  0
  141.0730   70.6020  227.8460 C   0  0  0  0  0  0  0  0  0  0  0  0
  141.1320   71.5550  226.8310 C   0  0  0  0  0  0  0  0  0  0  0  0
  140.6530   71.2060  225.5810 C   0  0  0  0  0  0  0  0  0  0  0  0
  140.6940   72.1080  224.5690 N   0  0  0  0  0  0  0  0  0  0  0  0
  138.7960   74.0890  223.0130 H   0  0  0  0  0  0  0  0  0  0  0  0
  139.8643   74.0722  220.1570 H   0  0  0  0  0  0  0  0  0  0  0  0
  138.5364   75.0993  220.7410 H   0  0  0  0  0  0  0  0  0  0  0  0
  142.2057   77.7034  221.4470 H   0  0  0  0  0  0  0  0  0  0  0  0
  143.1643   77.2935  219.9790 H   0  0  0  0  0  0  0  0  0  0  0  0
  140.2833   78.3311  219.9442 H   0  0  0  0  0  0  0  0  0  0  0  0
  141.7425   79.3508  219.6956 H   0  0  0  0  0  0  0  0  0  0  0  0
  140.7404   78.6533  217.5572 H   0  0  0  0  0  0  0  0  0  0  0  0
  142.4097   77.9507  217.8138 H   0  0  0  0  0  0  0  0  0  0  0  0
  140.0026   76.3754  218.5582 H   0  0  0  0  0  0  0  0  0  0  0  0
  140.5447   76.5392  216.8071 H   0  0  0  0  0  0  0  0  0  0  0  0
  141.5687   74.6348  217.3731 H   0  0  0  0  0  0  0  0  0  0  0  0
  142.8279   75.8719  217.8033 H   0  0  0  0  0  0  0  0  0  0  0  0
  141.1227   74.1575  219.5907 H   0  0  0  0  0  0  0  0  0  0  0  0
  146.2935   73.6602  219.2041 H   0  0  0  0  0  0  0  0  0  0  0  0
  145.3139   72.5064  221.4499 H   0  0  0  0  0  0  0  0  0  0  0  0
  142.8410   73.2380  221.5800 H   0  0  0  0  0  0  0  0  0  0  0  0
  139.3235   70.2139  222.1496 H   0  0  0  0  0  0  0  0  0  0  0  0
  139.2363   68.5355  223.9972 H   0  0  0  0  0  0  0  0  0  0  0  0
  139.6688   67.9928  226.2238 H   0  0  0  0  0  0  0  0  0  0  0  0
  141.4508   70.8718  228.8432 H   0  0  0  0  0  0  0  0  0  0  0  0
  141.5476   72.5561  227.0184 H   0  0  0  0  0  0  0  0  0  0  0  0
  1  2  2  0
  2  3  1  0
  3  4  1  0
  4  5  1  0
  5  6  2  0
  5  7  1  0
  7  8  1  0
  8  9  1  0
  9 10  1  0
 10 11  1  0
 11 12  1  0
 12 13  1  0
 13 14  1  0
 14 15  2  0
 15 16  1  0
 16 17  2  0
 17 18  1  0
  2 19  1  0
 19 20  2  0
 20 21  1  0
 21 22  2  0
 22 23  1  0
 23 24  2  0
 24 25  1  0
 24 26  1  0
 26 27  2  0
 27 28  1  0
 28 29  2  0
 13  7  1  0
 18 14  1  0
 29 19  1  0
 28 22  1  0
  3 30  1  0
  4 31  1  0
  4 32  1  0
  8 33  1  0
  8 34  1  0
  9 35  1  0
  9 36  1  0
 10 37  1  0
 10 38  1  0
 11 39  1  0
 11 40  1  0
 12 41  1  0
 12 42  1  0
 13 43  1  6
 16 44  1  0
 17 45  1  0
 18 46  1  0
 20 47  1  0
 21 48  1  0
 23 49  1  0
 26 50  1  0
 27 51  1  0
M  END
>  <smiles>  (6) 
O=C(NCC(=O)N1CCCCC[C@H]1c1ncc[nH]1)c1ccc2cc(Cl)ccc2n1

>  <score_type>  (6) 
oracle

>  <origin>  (6) 
autodockgpu

>  <m_score__min__energy>  (6) 
-6.0300000000000002

>  <m_primary>  (6) 
energy

>  <rmsd>  (6) 
3.484974753976136

>  <m_score__min__rmsd>  (6) 
3.484974753976136

>  <meeko>  (6) 
{"free_energy": -4.45, "intermolecular_energy": -7.73, "internal_energy": -2.5, "cluster_size": 5, "cluster_id": 6, "rank_in_cluster": 5}

>  <energy>  (6) 
-5.71

>  <cluster_rmsd>  (6) 
0.0

>  <cluster>  (6) 
2

$$$$

     RDKit          3D

 51 54  0  0  0  0  0  0  0  0999 V2000
  142.5830   78.4230  218.0550 O   0  0  0  0  0  0  0  0  0  0  0  0
  142.1100   77.3770  218.5700 C   0  0  0  0  0  0  0  0  0  0  0  0
  140.8200   77.4940  219.1740 N   0  0  0  0  0  0  0  0  0  0  0  0
  140.2130   78.8270  219.1110 C   0  0  0  0  0  0  0  0  0  0  0  0
  140.1360   79.3330  220.5110 C   0  0  0  0  0  0  0  0  0  0  0  0
  139.0220   79.7100  220.9750 O   0  0  0  0  0  0  0  0  0  0  0  0
  141.3230   79.3790  221.2980 N   0  0  0  0  0  0  0  0  0  0  0  0
  142.1570   80.5770  221.2010 C   0  0  0  0  0  0  0  0  0  0  0  0
  141.6420   81.6520  222.1540 C   0  0  0  0  0  0  0  0  0  0  0  0
  141.8120   81.1880  223.5840 C   0  0  0  0  0  0  0  0  0  0  0  0
  141.0940   79.9130  223.8940 C   0  0  0  0  0  0  0  0  0  0  0  0
  141.8340   78.6660  223.5440 C   0  0  0  0  0  0  0  0  0  0  0  0
  141.5850   78.2190  222.1210 C   0  0  1  0  0  0  0  0  0  0  0  0
  140.5230   77.2110  222.0510 C   0  0  0  0  0  0  0  0  0  0  0  0
  140.6990   75.9290  221.6980 N   0  0  0  0  0  0  0  0  0  0  0  0
  139.5390   75.2790  221.7350 C   0  0  0  0  0  0  0  0  0  0  0  0
  138.5620   76.1840  222.1300 C   0  0  0  0  0  0  0  0  0  0  0  0
  139.2170   77.3470  222.3090 N   0  0  0  0  0  0  0  0  0  0  0  0
  142.8200   76.1000  218.5660 C   0  0  0  0  0  0  0  0  0  0  0  0
  142.8910   75.4150  217.3600 C   0  0  0  0  0  0  0  0  0  0  0  0
  143.5410   74.1960  217.2490 C   0  0  0  0  0  0  0  0  0  0  0  0
  144.1160   73.6960  218.3950 C   0  0  0  0  0  0  0  0  0  0  0  0
  144.7660   72.4820  218.2900 C   0  0  0  0  0  0  0  0  0  0  0  0
  145.3580   71.9420  219.4160 C   0  0  0  0  0  0  0  0  0  0  0  0
  146.1680   70.4100  219.2490 Cl  0  0  0  0  0  0  0  0  0  0  0  0
  145.2810   72.6300  220.6020 C   0  0  0  0  0  0  0  0  0  0  0  0
  144.6300   73.8560  220.7240 C   0  0  0  0  0  0  0  0  0  0  0  0
  144.0380   74.3940  219.5950 C   0  0  0  0  0  0  0  0  0  0  0  0
  143.3950   75.5860  219.6760 N   0  0  0  0  0  0  0  0  0  0  0  0
  140.3440   76.6830  219.6270 H   0  0  0  0  0  0  0  0  0  0  0  0
  140.8349   79.4976  218.4998 H   0  0  0  0  0  0  0  0  0  0  0  0
  139.2143   78.7841  218.6518 H   0  0  0  0  0  0  0  0  0  0  0  0
  143.1934   80.3215  221.4665 H   0  0  0  0  0  0  0  0  0  0  0  0
  142.1187   80.9604  220.1707 H   0  0  0  0  0  0  0  0  0  0  0  0
  142.2116   82.5804  222.0004 H   0  0  0  0  0  0  0  0  0  0  0  0
  140.5760   81.8360  221.9545 H   0  0  0  0  0  0  0  0  0  0  0  0
  142.8848   81.0371  223.7745 H   0  0  0  0  0  0  0  0  0  0  0  0
  141.3757   81.9662  224.2275 H   0  0  0  0  0  0  0  0  0  0  0  0
  140.8860   79.8935  224.9740 H   0  0  0  0  0  0  0  0  0  0  0  0
  140.1869   79.9145  223.2717 H   0  0  0  0  0  0  0  0  0  0  0  0
  142.9112   78.8484  223.6721 H   0  0  0  0  0  0  0  0  0  0  0  0
  141.4742   77.8682  224.2104 H   0  0  0  0  0  0  0  0  0  0  0  0
  142.4839   77.7216  221.7277 H   0  0  0  0  0  0  0  0  0  0  0  0
  139.3818   74.2168  221.4960 H   0  0  0  0  0  0  0  0  0  0  0  0
  137.4875   75.9924  222.2668 H   0  0  0  0  0  0  0  0  0  0  0  0
  138.7370   78.2260  222.6130 H   0  0  0  0  0  0  0  0  0  0  0  0
  142.4182   75.8521  216.4681 H   0  0  0  0  0  0  0  0  0  0  0  0
  143.5946   73.6551  216.2926 H   0  0  0  0  0  0  0  0  0  0  0  0
  144.8118   71.9537  217.3262 H   0  0  0  0  0  0  0  0  0  0  0  0
  145.7538   72.1943  221.4946 H   0  0  0  0  0  0  0  0  0  0  0  0
  144.5880   74.3809  221.6898 H   0  0  0  0  0  0  0  0  0  0  0  0
  1  2  2  0
  2  3  1  0
  3  4  1  0
  4  5  1  0
  5  6  2  0
  5  7  1  0
  7  8  1  0
  8  9  1  0
  9 10  1  0
 10 11  1  0
 11 12  1  0
 12 13  1  0
 13 14  1  0
 14 15  2  0
 15 16  1  0
 16 17  2  0
 17 18  1  0
  2 19  1  0
 19 20  2  0
 20 21  1  0
 21 22  2  0
 22 23  1  0
 23 24  2  0
 24 25  1  0
 24 26  1  0
 26 27  2  0
 27 28  1  0
 28 29  2  0
 13  7  1  0
 18 14  1  0
 29 19  1  0
 28 22  1  0
  3 30  1  0
  4 31  1  0
  4 32  1  0
  8 33  1  0
  8 34  1  0
  9 35  1  0
  9 36  1  0
 10 37  1  0
 10 38  1  0
 11 39  1  0
 11 40  1  0
 12 41  1  0
 12 42  1  0
 13 43  1  6
 16 44  1  0
 17 45  1  0
 18 46  1  0
 20 47  1  0
 21 48  1  0
 23 49  1  0
 26 50  1  0
 27 51  1  0
M  END
>  <smiles>  (7) 
O=C(NCC(=O)N1CCCCC[C@H]1c1ncc[nH]1)c1ccc2cc(Cl)ccc2n1

>  <score_type>  (7) 
oracle

>  <origin>  (7) 
autodockgpu

>  <m_score__min__energy>  (7) 
-6.0300000000000002

>  <m_primary>  (7) 
energy

>  <rmsd>  (7) 
7.310440978752568

>  <m_score__min__rmsd>  (7) 
7.310440978752568

>  <meeko>  (7) 
{"free_energy": -3.98, "intermolecular_energy": -7.26, "internal_energy": -3.23, "cluster_size": 3, "cluster_id": 8, "rank_in_cluster": 2}

>  <energy>  (7) 
-4.36

>  <cluster_rmsd>  (7) 
1.74

>  <cluster>  (7) 
2

$$$$

     RDKit          3D

 51 54  0  0  0  0  0  0  0  0999 V2000
  136.2660   70.8700  221.7700 O   0  0  0  0  0  0  0  0  0  0  0  0
  137.1340   71.4560  222.4680 C   0  0  0  0  0  0  0  0  0  0  0  0
  137.4310   72.8070  222.1100 N   0  0  0  0  0  0  0  0  0  0  0  0
  136.6770   73.3370  220.9690 C   0  0  0  0  0  0  0  0  0  0  0  0
  137.5230   74.3940  220.3460 C   0  0  0  0  0  0  0  0  0  0  0  0
  138.3040   74.0880  219.4010 O   0  0  0  0  0  0  0  0  0  0  0  0
  137.4310   75.7310  220.8320 N   0  0  0  0  0  0  0  0  0  0  0  0
  136.2380   76.5010  220.4810 C   0  0  0  0  0  0  0  0  0  0  0  0
  135.1130   76.2050  221.4690 C   0  0  0  0  0  0  0  0  0  0  0  0
  135.5670   76.5440  222.8720 C   0  0  0  0  0  0  0  0  0  0  0  0
  136.7530   75.7570  223.3290 C   0  0  0  0  0  0  0  0  0  0  0  0
  138.0780   76.3910  223.0600 C   0  0  0  0  0  0  0  0  0  0  0  0
  138.5420   76.1930  221.6340 C   0  0  1  0  0  0  0  0  0  0  0  0
  139.7090   75.3090  221.5650 C   0  0  0  0  0  0  0  0  0  0  0  0
  139.8490   74.1600  222.2420 N   0  0  0  0  0  0  0  0  0  0  0  0
  141.0210   73.5980  221.9590 C   0  0  0  0  0  0  0  0  0  0  0  0
  141.6740   74.4240  221.0520 C   0  0  0  0  0  0  0  0  0  0  0  0
  140.8300   75.4530  220.8470 N   0  0  0  0  0  0  0  0  0  0  0  0
  137.8170   70.8120  223.5880 C   0  0  0  0  0  0  0  0  0  0  0  0
  137.3870   69.5430  223.9520 C   0  0  0  0  0  0  0  0  0  0  0  0
  137.9680   68.8470  225.0000 C   0  0  0  0  0  0  0  0  0  0  0  0
  138.9960   69.4760  225.6640 C   0  0  0  0  0  0  0  0  0  0  0  0
  139.5790   68.7860  226.7090 C   0  0  0  0  0  0  0  0  0  0  0  0
  140.6160   69.3800  227.4040 C   0  0  0  0  0  0  0  0  0  0  0  0
  141.3280   68.4830  228.7170 Cl  0  0  0  0  0  0  0  0  0  0  0  0
  141.0310   70.6350  227.0350 C   0  0  0  0  0  0  0  0  0  0  0  0
  140.4540   71.3430  225.9830 C   0  0  0  0  0  0  0  0  0  0  0  0
  139.4170   70.7460  225.2880 C   0  0  0  0  0  0  0  0  0  0  0  0
  138.8300   71.4060  224.2580 N   0  0  0  0  0  0  0  0  0  0  0  0
  138.1350   73.3770  222.6280 H   0  0  0  0  0  0  0  0  0  0  0  0
  136.4766   72.5356  220.2426 H   0  0  0  0  0  0  0  0  0  0  0  0
  135.7087   73.7467  221.2924 H   0  0  0  0  0  0  0  0  0  0  0  0
  136.4759   77.5745  220.5115 H   0  0  0  0  0  0  0  0  0  0  0  0
  135.9120   76.2184  219.4691 H   0  0  0  0  0  0  0  0  0  0  0  0
  134.2318   76.8116  221.2128 H   0  0  0  0  0  0  0  0  0  0  0  0
  134.8530   75.1374  221.4172 H   0  0  0  0  0  0  0  0  0  0  0  0
  135.8266   77.6125  222.9039 H   0  0  0  0  0  0  0  0  0  0  0  0
  134.7359   76.2923  223.5473 H   0  0  0  0  0  0  0  0  0  0  0  0
  136.6627   75.6046  224.4146 H   0  0  0  0  0  0  0  0  0  0  0  0
  136.7394   74.8208  222.7516 H   0  0  0  0  0  0  0  0  0  0  0  0
  137.9981   77.4702  223.2573 H   0  0  0  0  0  0  0  0  0  0  0  0
  138.8159   75.9101  223.7189 H   0  0  0  0  0  0  0  0  0  0  0  0
  138.8805   77.1542  221.2200 H   0  0  0  0  0  0  0  0  0  0  0  0
  141.4037   72.6515  222.3685 H   0  0  0  0  0  0  0  0  0  0  0  0
  142.6650   74.2706  220.5998 H   0  0  0  0  0  0  0  0  0  0  0  0
  141.0510   76.2470  220.2020 H   0  0  0  0  0  0  0  0  0  0  0  0
  136.5621   69.0771  223.3929 H   0  0  0  0  0  0  0  0  0  0  0  0
  137.6246   67.8421  225.2867 H   0  0  0  0  0  0  0  0  0  0  0  0
  139.2244   67.7815  226.9834 H   0  0  0  0  0  0  0  0  0  0  0  0
  141.8551   71.1022  227.5942 H   0  0  0  0  0  0  0  0  0  0  0  0
  140.8123   72.3473  225.7127 H   0  0  0  0  0  0  0  0  0  0  0  0
  1  2  2  0
  2  3  1  0
  3  4  1  0
  4  5  1  0
  5  6  2  0
  5  7  1  0
  7  8  1  0
  8  9  1  0
  9 10  1  0
 10 11  1  0
 11 12  1  0
 12 13  1  0
 13 14  1  0
 14 15  2  0
 15 16  1  0
 16 17  2  0
 17 18  1  0
  2 19  1  0
 19 20  2  0
 20 21  1  0
 21 22  2  0
 22 23  1  0
 23 24  2  0
 24 25  1  0
 24 26  1  0
 26 27  2  0
 27 28  1  0
 28 29  2  0
 13  7  1  0
 18 14  1  0
 29 19  1  0
 28 22  1  0
  3 30  1  0
  4 31  1  0
  4 32  1  0
  8 33  1  0
  8 34  1  0
  9 35  1  0
  9 36  1  0
 10 37  1  0
 10 38  1  0
 11 39  1  0
 11 40  1  0
 12 41  1  0
 12 42  1  0
 13 43  1  6
 16 44  1  0
 17 45  1  0
 18 46  1  0
 20 47  1  0
 21 48  1  0
 23 49  1  0
 26 50  1  0
 27 51  1  0
M  END
>  <smiles>  (8) 
O=C(NCC(=O)N1CCCCC[C@H]1c1ncc[nH]1)c1ccc2cc(Cl)ccc2n1

>  <score_type>  (8) 
oracle

>  <origin>  (8) 
autodockgpu

>  <m_score__min__energy>  (8) 
-6.0300000000000002

>  <m_primary>  (8) 
energy

>  <rmsd>  (8) 
3.722063615721094

>  <m_score__min__rmsd>  (8) 
3.722063615721094

>  <meeko>  (8) 
{"free_energy": -4.01, "intermolecular_energy": -7.29, "internal_energy": -2.77, "cluster_size": 2, "cluster_id": 15, "rank_in_cluster": 1}

>  <energy>  (8) 
-3.58

>  <cluster_rmsd>  (8) 
1.88

>  <cluster>  (8) 
2

$$$$

     RDKit          3D

 51 54  0  0  0  0  0  0  0  0999 V2000
  140.7540   72.2720  221.0700 O   0  0  0  0  0  0  0  0  0  0  0  0
  140.0800   72.4950  222.1090 C   0  0  0  0  0  0  0  0  0  0  0  0
  139.2580   73.6630  222.0950 N   0  0  0  0  0  0  0  0  0  0  0  0
  139.3080   74.4540  220.8610 C   0  0  0  0  0  0  0  0  0  0  0  0
  139.9550   75.7520  221.2060 C   0  0  0  0  0  0  0  0  0  0  0  0
  140.5260   75.8820  222.3260 O   0  0  0  0  0  0  0  0  0  0  0  0
  139.9140   76.8180  220.2620 N   0  0  0  0  0  0  0  0  0  0  0  0
  138.6840   77.6060  220.1790 C   0  0  0  0  0  0  0  0  0  0  0  0
  138.9890   78.9970  219.6280 C   0  0  0  0  0  0  0  0  0  0  0  0
  139.8770   79.7440  220.5990 C   0  0  0  0  0  0  0  0  0  0  0  0
  141.0840   78.9730  221.0280 C   0  0  0  0  0  0  0  0  0  0  0  0
  141.8100   78.2720  219.9360 C   0  0  0  0  0  0  0  0  0  0  0  0
  141.1100   77.0140  219.4730 C   0  0  1  0  0  0  0  0  0  0  0  0
  142.0100   75.8580  219.4940 C   0  0  0  0  0  0  0  0  0  0  0  0
  142.3940   75.1600  218.4150 N   0  0  0  0  0  0  0  0  0  0  0  0
  143.2120   74.1720  218.7730 C   0  0  0  0  0  0  0  0  0  0  0  0
  143.3640   74.2330  220.1530 C   0  0  0  0  0  0  0  0  0  0  0  0
  142.6090   75.2780  220.5410 N   0  0  0  0  0  0  0  0  0  0  0  0
  140.1180   71.6220  223.2800 C   0  0  0  0  0  0  0  0  0  0  0  0
  139.6200   70.3340  223.1310 C   0  0  0  0  0  0  0  0  0  0  0  0
  139.6100   69.4280  224.1810 C   0  0  0  0  0  0  0  0  0  0  0  0
  140.1200   69.8680  225.3810 C   0  0  0  0  0  0  0  0  0  0  0  0
  140.1130   68.9690  226.4290 C   0  0  0  0  0  0  0  0  0  0  0  0
  140.6160   69.3670  227.6530 C   0  0  0  0  0  0  0  0  0  0  0  0
  140.5910   68.2100  228.9540 Cl  0  0  0  0  0  0  0  0  0  0  0  0
  141.1050   70.6430  227.7870 C   0  0  0  0  0  0  0  0  0  0  0  0
  141.1200   71.5610  226.7390 C   0  0  0  0  0  0  0  0  0  0  0  0
  140.6160   71.1590  225.5140 C   0  0  0  0  0  0  0  0  0  0  0  0
  140.6140   72.0270  224.4710 N   0  0  0  0  0  0  0  0  0  0  0  0
  138.6610   73.9320  222.9080 H   0  0  0  0  0  0  0  0  0  0  0  0
  139.8995   73.9274  220.0976 H   0  0  0  0  0  0  0  0  0  0  0  0
  138.2988   74.6127  220.4533 H   0  0  0  0  0  0  0  0  0  0  0  0
  137.9711   77.0987  219.5124 H   0  0  0  0  0  0  0  0  0  0  0  0
  138.2504   77.7041  221.1851 H   0  0  0  0  0  0  0  0  0  0  0  0
  139.5029   78.9028  218.6600 H   0  0  0  0  0  0  0  0  0  0  0  0
  138.0482   79.5508  219.4930 H   0  0  0  0  0  0  0  0  0  0  0  0
  140.2127   80.6740  220.1170 H   0  0  0  0  0  0  0  0  0  0  0  0
  139.2781   79.9308  221.5026 H   0  0  0  0  0  0  0  0  0  0  0  0
  141.7836   79.6746  221.5058 H   0  0  0  0  0  0  0  0  0  0  0  0
  140.7186   78.1866  221.7048 H   0  0  0  0  0  0  0  0  0  0  0  0
  141.9020   78.9570  219.0803 H   0  0  0  0  0  0  0  0  0  0  0  0
  142.7923   77.9750  220.3320 H   0  0  0  0  0  0  0  0  0  0  0  0
  140.8064   77.1265  218.4217 H   0  0  0  0  0  0  0  0  0  0  0  0
  143.6819   73.4406  218.0990 H   0  0  0  0  0  0  0  0  0  0  0  0
  143.9695   73.5714  220.7898 H   0  0  0  0  0  0  0  0  0  0  0  0
  142.5250   75.5750  221.5420 H   0  0  0  0  0  0  0  0  0  0  0  0
  139.2226   70.0240  222.1533 H   0  0  0  0  0  0  0  0  0  0  0  0
  139.2142   68.4088  224.0606 H   0  0  0  0  0  0  0  0  0  0  0  0
  139.7138   67.9532  226.2919 H   0  0  0  0  0  0  0  0  0  0  0  0
  141.5023   70.9541  228.7645 H   0  0  0  0  0  0  0  0  0  0  0  0
  141.5206   72.5756  226.8809 H   0  0  0  0  0  0  0  0  0  0  0  0
  1  2  2  0
  2  3  1  0
  3  4  1  0
  4  5  1  0
  5  6  2  0
  5  7  1  0
  7  8  1  0
  8  9  1  0
  9 10  1  0
 10 11  1  0
 11 12  1  0
 12 13  1  0
 13 14  1  0
 14 15  2  0
 15 16  1  0
 16 17  2  0
 17 18  1  0
  2 19  1  0
 19 20  2  0
 20 21  1  0
 21 22  2  0
 22 23  1  0
 23 24  2  0
 24 25  1  0
 24 26  1  0
 26 27  2  0
 27 28  1  0
 28 29  2  0
 13  7  1  0
 18 14  1  0
 29 19  1  0
 28 22  1  0
  3 30  1  0
  4 31  1  0
  4 32  1  0
  8 33  1  0
  8 34  1  0
  9 35  1  0
  9 36  1  0
 10 37  1  0
 10 38  1  0
 11 39  1  0
 11 40  1  0
 12 41  1  0
 12 42  1  0
 13 43  1  6
 16 44  1  0
 17 45  1  0
 18 46  1  0
 20 47  1  0
 21 48  1  0
 23 49  1  0
 26 50  1  0
 27 51  1  0
M  END
>  <smiles>  (9) 
O=C(NCC(=O)N1CCCCC[C@H]1c1ncc[nH]1)c1ccc2cc(Cl)ccc2n1

>  <score_type>  (9) 
oracle

>  <origin>  (9) 
autodockgpu

>  <m_score__min__energy>  (9) 
-6.0300000000000002

>  <m_primary>  (9) 
energy

>  <rmsd>  (9) 
3.059620560835699

>  <m_score__min__rmsd>  (9) 
3.059620560835699

>  <meeko>  (9) 
{"free_energy": -5.0, "intermolecular_energy": -8.28, "internal_energy": -2.36, "cluster_size": 6, "cluster_id": 3, "rank_in_cluster": 2}

>  <energy>  (9) 
-5.53

>  <cluster_rmsd>  (9) 
0.0

>  <cluster>  (9) 
3

$$$$

     RDKit          3D

 51 54  0  0  0  0  0  0  0  0999 V2000
  138.1450   77.7200  222.4790 O   0  0  0  0  0  0  0  0  0  0  0  0
  138.4170   76.4930  222.4110 C   0  0  0  0  0  0  0  0  0  0  0  0
  137.4280   75.5940  222.9160 N   0  0  0  0  0  0  0  0  0  0  0  0
  136.2160   76.2250  223.4500 C   0  0  0  0  0  0  0  0  0  0  0  0
  135.3880   75.1360  224.0420 C   0  0  0  0  0  0  0  0  0  0  0  0
  135.7870   73.9400  223.9650 O   0  0  0  0  0  0  0  0  0  0  0  0
  134.1600   75.4710  224.6830 N   0  0  0  0  0  0  0  0  0  0  0  0
  133.1230   76.1120  223.8750 C   0  0  0  0  0  0  0  0  0  0  0  0
  133.2780   77.6300  223.9310 C   0  0  0  0  0  0  0  0  0  0  0  0
  132.8000   78.1390  225.2740 C   0  0  0  0  0  0  0  0  0  0  0  0
  133.5370   77.5560  226.4370 C   0  0  0  0  0  0  0  0  0  0  0  0
  133.1760   76.1470  226.7780 C   0  0  0  0  0  0  0  0  0  0  0  0
  134.0650   75.1380  226.0870 C   0  0  1  0  0  0  0  0  0  0  0  0
  133.6100   73.7660  226.3240 C   0  0  0  0  0  0  0  0  0  0  0  0
  132.8060   73.3820  227.3270 N   0  0  0  0  0  0  0  0  0  0  0  0
  132.5820   72.0720  227.2620 C   0  0  0  0  0  0  0  0  0  0  0  0
  133.2750   71.5820  226.1620 C   0  0  0  0  0  0  0  0  0  0  0  0
  133.8850   72.6570  225.6270 N   0  0  0  0  0  0  0  0  0  0  0  0
  139.6680   75.9890  221.8510 C   0  0  0  0  0  0  0  0  0  0  0  0
  140.5230   76.9140  221.2660 C   0  0  0  0  0  0  0  0  0  0  0  0
  141.7340   76.5390  220.7050 C   0  0  0  0  0  0  0  0  0  0  0  0
  142.0500   75.2010  220.7580 C   0  0  0  0  0  0  0  0  0  0  0  0
  143.2560   74.8210  220.2010 C   0  0  0  0  0  0  0  0  0  0  0  0
  143.6150   73.4870  220.2320 C   0  0  0  0  0  0  0  0  0  0  0  0
  145.1410   73.0430  219.5200 Cl  0  0  0  0  0  0  0  0  0  0  0  0
  142.7610   72.5820  220.8120 C   0  0  0  0  0  0  0  0  0  0  0  0
  141.5420   72.9490  221.3780 C   0  0  0  0  0  0  0  0  0  0  0  0
  141.1850   74.2860  221.3470 C   0  0  0  0  0  0  0  0  0  0  0  0
  140.0050   74.6800  221.8880 N   0  0  0  0  0  0  0  0  0  0  0  0
  137.5600   74.5590  222.9030 H   0  0  0  0  0  0  0  0  0  0  0  0
  136.4816   76.9614  224.2228 H   0  0  0  0  0  0  0  0  0  0  0  0
  135.6649   76.7536  222.6583 H   0  0  0  0  0  0  0  0  0  0  0  0
  133.2144   75.7751  222.8318 H   0  0  0  0  0  0  0  0  0  0  0  0
  132.1350   75.8360  224.2721 H   0  0  0  0  0  0  0  0  0  0  0  0
  134.3367   77.8953  223.7944 H   0  0  0  0  0  0  0  0  0  0  0  0
  132.6778   78.0887  223.1313 H   0  0  0  0  0  0  0  0  0  0  0  0
  132.9261   79.2315  225.2958 H   0  0  0  0  0  0  0  0  0  0  0  0
  131.7479   77.8347  225.3761 H   0  0  0  0  0  0  0  0  0  0  0  0
  134.6124   77.5857  226.2077 H   0  0  0  0  0  0  0  0  0  0  0  0
  133.2568   78.1626  227.3108 H   0  0  0  0  0  0  0  0  0  0  0  0
  133.2689   76.0125  227.8658 H   0  0  0  0  0  0  0  0  0  0  0  0
  132.1451   75.9739  226.4356 H   0  0  0  0  0  0  0  0  0  0  0  0
  135.0773   75.1854  226.5149 H   0  0  0  0  0  0  0  0  0  0  0  0
  131.9609   71.4838  227.9536 H   0  0  0  0  0  0  0  0  0  0  0  0
  133.3164   70.5422  225.8056 H   0  0  0  0  0  0  0  0  0  0  0  0
  134.4890   72.5990  224.7740 H   0  0  0  0  0  0  0  0  0  0  0  0
  140.2310   77.9744  221.2473 H   0  0  0  0  0  0  0  0  0  0  0  0
  142.4081   77.2740  220.2410 H   0  0  0  0  0  0  0  0  0  0  0  0
  143.9193   75.5680  219.7406 H   0  0  0  0  0  0  0  0  0  0  0  0
  143.0518   71.5213  220.8306 H   0  0  0  0  0  0  0  0  0  0  0  0
  140.8821   72.1977  221.8364 H   0  0  0  0  0  0  0  0  0  0  0  0
  1  2  2  0
  2  3  1  0
  3  4  1  0
  4  5  1  0
  5  6  2  0
  5  7  1  0
  7  8  1  0
  8  9  1  0
  9 10  1  0
 10 11  1  0
 11 12  1  0
 12 13  1  0
 13 14  1  0
 14 15  2  0
 15 16  1  0
 16 17  2  0
 17 18  1  0
  2 19  1  0
 19 20  2  0
 20 21  1  0
 21 22  2  0
 22 23  1  0
 23 24  2  0
 24 25  1  0
 24 26  1  0
 26 27  2  0
 27 28  1  0
 28 29  2  0
 13  7  1  0
 18 14  1  0
 29 19  1  0
 28 22  1  0
  3 30  1  0
  4 31  1  0
  4 32  1  0
  8 33  1  0
  8 34  1  0
  9 35  1  0
  9 36  1  0
 10 37  1  0
 10 38  1  0
 11 39  1  0
 11 40  1  0
 12 41  1  0
 12 42  1  0
 13 43  1  1
 16 44  1  0
 17 45  1  0
 18 46  1  0
 20 47  1  0
 21 48  1  0
 23 49  1  0
 26 50  1  0
 27 51  1  0
M  END
>  <smiles>  (10) 
O=C(NCC(=O)N1CCCCC[C@H]1c1ncc[nH]1)c1ccc2cc(Cl)ccc2n1

>  <score_type>  (10) 
oracle

>  <origin>  (10) 
autodockgpu

>  <m_score__min__energy>  (10) 
-6.0300000000000002

>  <m_primary>  (10) 
energy

>  <rmsd>  (10) 
8.83220670163032

>  <m_score__min__rmsd>  (10) 
8.83220670163032

>  <meeko>  (10) 
{"free_energy": -4.26, "intermolecular_energy": -7.54, "internal_energy": -2.79, "cluster_size": 1, "cluster_id": 14, "rank_in_cluster": 1}

>  <energy>  (10) 
-5.0

>  <cluster_rmsd>  (10) 
1.23

>  <cluster>  (10) 
3

$$$$

     RDKit          3D

 51 54  0  0  0  0  0  0  0  0999 V2000
  134.3240   71.1700  224.4540 O   0  0  0  0  0  0  0  0  0  0  0  0
  135.0340   72.2030  224.5650 C   0  0  0  0  0  0  0  0  0  0  0  0
  136.3630   72.1200  224.0450 N   0  0  0  0  0  0  0  0  0  0  0  0
  136.7250   70.8310  223.4450 C   0  0  0  0  0  0  0  0  0  0  0  0
  137.3300   70.0060  224.5290 C   0  0  0  0  0  0  0  0  0  0  0  0
  136.5770   69.4120  225.3520 O   0  0  0  0  0  0  0  0  0  0  0  0
  138.7490   69.9050  224.6120 N   0  0  0  0  0  0  0  0  0  0  0  0
  139.3340   68.5650  224.6540 C   0  0  0  0  0  0  0  0  0  0  0  0
  139.9550   68.3060  226.0240 C   0  0  0  0  0  0  0  0  0  0  0  0
  139.3970   69.2910  227.0280 C   0  0  0  0  0  0  0  0  0  0  0  0
  140.0830   70.6200  227.0130 C   0  0  0  0  0  0  0  0  0  0  0  0
  140.5780   71.0610  225.6760 C   0  0  0  0  0  0  0  0  0  0  0  0
  139.4740   71.1550  224.6480 C   0  0  1  0  0  0  0  0  0  0  0  0
  139.9910   71.5590  223.3370 C   0  0  0  0  0  0  0  0  0  0  0  0
  140.2820   72.8180  222.9770 N   0  0  0  0  0  0  0  0  0  0  0  0
  140.7300   72.8460  221.7240 C   0  0  0  0  0  0  0  0  0  0  0  0
  140.7290   71.5400  221.2490 C   0  0  0  0  0  0  0  0  0  0  0  0
  140.2690   70.7960  222.2730 N   0  0  0  0  0  0  0  0  0  0  0  0
  134.5510   73.4340  225.1870 C   0  0  0  0  0  0  0  0  0  0  0  0
  135.1940   74.6160  224.8430 C   0  0  0  0  0  0  0  0  0  0  0  0
  134.8120   75.8370  225.3770 C   0  0  0  0  0  0  0  0  0  0  0  0
  133.7630   75.8210  226.2670 C   0  0  0  0  0  0  0  0  0  0  0  0
  133.3790   77.0360  226.8020 C   0  0  0  0  0  0  0  0  0  0  0  0
  132.3290   77.0670  227.7000 C   0  0  0  0  0  0  0  0  0  0  0  0
  131.8710   78.6140  228.3560 Cl  0  0  0  0  0  0  0  0  0  0  0  0
  131.7030   75.8910  228.0320 C   0  0  0  0  0  0  0  0  0  0  0  0
  132.0780   74.6590  227.5010 C   0  0  0  0  0  0  0  0  0  0  0  0
  133.1300   74.6300  226.6010 C   0  0  0  0  0  0  0  0  0  0  0  0
  133.5220   73.4480  226.0640 N   0  0  0  0  0  0  0  0  0  0  0  0
  137.0280   72.9230  224.0880 H   0  0  0  0  0  0  0  0  0  0  0  0
  135.8284   70.3338  223.0463 H   0  0  0  0  0  0  0  0  0  0  0  0
  137.4308   70.9676  222.6124 H   0  0  0  0  0  0  0  0  0  0  0  0
  138.5483   67.8190  224.4639 H   0  0  0  0  0  0  0  0  0  0  0  0
  140.1162   68.4896  223.8843 H   0  0  0  0  0  0  0  0  0  0  0  0
  139.7178   67.2812  226.3457 H   0  0  0  0  0  0  0  0  0  0  0  0
  141.0463   68.4282  225.9597 H   0  0  0  0  0  0  0  0  0  0  0  0
  138.3314   69.4479  226.8049 H   0  0  0  0  0  0  0  0  0  0  0  0
  139.5580   68.8579  228.0262 H   0  0  0  0  0  0  0  0  0  0  0  0
  139.3717   71.3750  227.3792 H   0  0  0  0  0  0  0  0  0  0  0  0
  140.9736   70.5126  227.6496 H   0  0  0  0  0  0  0  0  0  0  0  0
  141.0450   72.0512  225.7826 H   0  0  0  0  0  0  0  0  0  0  0  0
  141.2979   70.3080  225.3230 H   0  0  0  0  0  0  0  0  0  0  0  0
  138.7674   71.9465  224.9384 H   0  0  0  0  0  0  0  0  0  0  0  0
  141.0440   73.7404  221.1659 H   0  0  0  0  0  0  0  0  0  0  0  0
  141.0371   71.1899  220.2527 H   0  0  0  0  0  0  0  0  0  0  0  0
  140.1560   69.7580  222.2120 H   0  0  0  0  0  0  0  0  0  0  0  0
  136.0289   74.5824  224.1276 H   0  0  0  0  0  0  0  0  0  0  0  0
  135.3222   76.7721  225.1027 H   0  0  0  0  0  0  0  0  0  0  0  0
  133.9000   77.9622  226.5180 H   0  0  0  0  0  0  0  0  0  0  0  0
  130.8690   75.9231  228.7485 H   0  0  0  0  0  0  0  0  0  0  0  0
  131.5536   73.7357  227.7884 H   0  0  0  0  0  0  0  0  0  0  0  0
  1  2  2  0
  2  3  1  0
  3  4  1  0
  4  5  1  0
  5  6  2  0
  5  7  1  0
  7  8  1  0
  8  9  1  0
  9 10  1  0
 10 11  1  0
 11 12  1  0
 12 13  1  0
 13 14  1  0
 14 15  2  0
 15 16  1  0
 16 17  2  0
 17 18  1  0
  2 19  1  0
 19 20  2  0
 20 21  1  0
 21 22  2  0
 22 23  1  0
 23 24  2  0
 24 25  1  0
 24 26  1  0
 26 27  2  0
 27 28  1  0
 28 29  2  0
 13  7  1  0
 18 14  1  0
 29 19  1  0
 28 22  1  0
  3 30  1  0
  4 31  1  0
  4 32  1  0
  8 33  1  0
  8 34  1  0
  9 35  1  0
  9 36  1  0
 10 37  1  0
 10 38  1  0
 11 39  1  0
 11 40  1  0
 12 41  1  0
 12 42  1  0
 13 43  1  1
 16 44  1  0
 17 45  1  0
 18 46  1  0
 20 47  1  0
 21 48  1  0
 23 49  1  0
 26 50  1  0
 27 51  1  0
M  END
>  <smiles>  (11) 
O=C(NCC(=O)N1CCCCC[C@H]1c1ncc[nH]1)c1ccc2cc(Cl)ccc2n1

>  <score_type>  (11) 
oracle

>  <origin>  (11) 
autodockgpu

>  <m_score__min__energy>  (11) 
-6.0300000000000002

>  <m_primary>  (11) 
energy

>  <rmsd>  (11) 
8.419848873154901

>  <m_score__min__rmsd>  (11) 
8.419848873154901

>  <meeko>  (11) 
{"free_energy": -5.51, "intermolecular_energy": -8.79, "internal_energy": -1.62, "cluster_size": 2, "cluster_id": 5, "rank_in_cluster": 1}

>  <energy>  (11) 
-4.98

>  <cluster_rmsd>  (11) 
1.56

>  <cluster>  (11) 
3

$$$$

     RDKit          3D

 51 54  0  0  0  0  0  0  0  0999 V2000
  139.9240   73.7010  220.4190 O   0  0  0  0  0  0  0  0  0  0  0  0
  139.6780   73.7650  221.6510 C   0  0  0  0  0  0  0  0  0  0  0  0
  139.4360   75.0680  222.1850 N   0  0  0  0  0  0  0  0  0  0  0  0
  139.5050   76.1680  221.2170 C   0  0  0  0  0  0  0  0  0  0  0  0
  140.9080   76.6730  221.2380 C   0  0  0  0  0  0  0  0  0  0  0  0
  141.8420   75.9290  220.8240 O   0  0  0  0  0  0  0  0  0  0  0  0
  141.1630   77.9870  221.7250 N   0  0  0  0  0  0  0  0  0  0  0  0
  141.8110   78.9350  220.8180 C   0  0  0  0  0  0  0  0  0  0  0  0
  141.4180   80.3630  221.1840 C   0  0  0  0  0  0  0  0  0  0  0  0
  142.3140   80.8680  222.2940 C   0  0  0  0  0  0  0  0  0  0  0  0
  141.9130   80.3960  223.6550 C   0  0  0  0  0  0  0  0  0  0  0  0
  141.8880   78.9110  223.8310 C   0  0  0  0  0  0  0  0  0  0  0  0
  140.7500   78.2520  223.0850 C   0  0  1  0  0  0  0  0  0  0  0  0
  139.5200   79.0440  223.1690 C   0  0  0  0  0  0  0  0  0  0  0  0
  139.1320   79.7550  224.2380 N   0  0  0  0  0  0  0  0  0  0  0  0
  137.9710   80.3580  223.9930 C   0  0  0  0  0  0  0  0  0  0  0  0
  137.5880   80.0200  222.7010 C   0  0  0  0  0  0  0  0  0  0  0  0
  138.5670   79.2170  222.2450 N   0  0  0  0  0  0  0  0  0  0  0  0
  139.6360   72.5850  222.5130 C   0  0  0  0  0  0  0  0  0  0  0  0
  138.7290   71.5870  222.1830 C   0  0  0  0  0  0  0  0  0  0  0  0
  138.6100   70.4290  222.9360 C   0  0  0  0  0  0  0  0  0  0  0  0
  139.4380   70.3160  224.0290 C   0  0  0  0  0  0  0  0  0  0  0  0
  139.3250   69.1630  224.7820 C   0  0  0  0  0  0  0  0  0  0  0  0
  140.1370   69.0070  225.8890 C   0  0  0  0  0  0  0  0  0  0  0  0
  139.9670   67.5430  226.8170 Cl  0  0  0  0  0  0  0  0  0  0  0  0
  141.0290   70.0010  226.2040 C   0  0  0  0  0  0  0  0  0  0  0  0
  141.1560   71.1690  225.4550 C   0  0  0  0  0  0  0  0  0  0  0  0
  140.3420   71.3230  224.3460 C   0  0  0  0  0  0  0  0  0  0  0  0
  140.4380   72.4470  223.5930 N   0  0  0  0  0  0  0  0  0  0  0  0
  139.2220   75.2240  223.1940 H   0  0  0  0  0  0  0  0  0  0  0  0
  139.2486   75.8039  220.2112 H   0  0  0  0  0  0  0  0  0  0  0  0
  138.7941   76.9666  221.4757 H   0  0  0  0  0  0  0  0  0  0  0  0
  142.9027   78.8264  220.8975 H   0  0  0  0  0  0  0  0  0  0  0  0
  141.4881   78.7256  219.7875 H   0  0  0  0  0  0  0  0  0  0  0  0
  141.5281   81.0105  220.3016 H   0  0  0  0  0  0  0  0  0  0  0  0
  140.3719   80.3780  221.5239 H   0  0  0  0  0  0  0  0  0  0  0  0
  143.3396   80.5235  222.0957 H   0  0  0  0  0  0  0  0  0  0  0  0
  142.2318   81.9649  222.2982 H   0  0  0  0  0  0  0  0  0  0  0  0
  142.6239   80.8133  224.3833 H   0  0  0  0  0  0  0  0  0  0  0  0
  140.8788   80.7392  223.8052 H   0  0  0  0  0  0  0  0  0  0  0  0
  142.8375   78.4971  223.4606 H   0  0  0  0  0  0  0  0  0  0  0  0
  141.7443   78.7067  224.9023 H   0  0  0  0  0  0  0  0  0  0  0  0
  140.5084   77.2890  223.5585 H   0  0  0  0  0  0  0  0  0  0  0  0
  137.4158   81.0060  224.6871 H   0  0  0  0  0  0  0  0  0  0  0  0
  136.6811   80.3395  222.1666 H   0  0  0  0  0  0  0  0  0  0  0  0
  138.5560   78.7990  221.2850 H   0  0  0  0  0  0  0  0  0  0  0  0
  138.0870   71.7187  221.2996 H   0  0  0  0  0  0  0  0  0  0  0  0
  137.8898   69.6403  222.6728 H   0  0  0  0  0  0  0  0  0  0  0  0
  138.6010   68.3826  224.5049 H   0  0  0  0  0  0  0  0  0  0  0  0
  141.6722   69.8699  227.0867 H   0  0  0  0  0  0  0  0  0  0  0  0
  141.8819   71.9460  225.7367 H   0  0  0  0  0  0  0  0  0  0  0  0
  1  2  2  0
  2  3  1  0
  3  4  1  0
  4  5  1  0
  5  6  2  0
  5  7  1  0
  7  8  1  0
  8  9  1  0
  9 10  1  0
 10 11  1  0
 11 12  1  0
 12 13  1  0
 13 14  1  0
 14 15  2  0
 15 16  1  0
 16 17  2  0
 17 18  1  0
  2 19  1  0
 19 20  2  0
 20 21  1  0
 21 22  2  0
 22 23  1  0
 23 24  2  0
 24 25  1  0
 24 26  1  0
 26 27  2  0
 27 28  1  0
 28 29  2  0
 13  7  1  0
 18 14  1  0
 29 19  1  0
 28 22  1  0
  3 30  1  0
  4 31  1  0
  4 32  1  0
  8 33  1  0
  8 34  1  0
  9 35  1  0
  9 36  1  0
 10 37  1  0
 10 38  1  0
 11 39  1  0
 11 40  1  0
 12 41  1  0
 12 42  1  0
 13 43  1  1
 16 44  1  0
 17 45  1  0
 18 46  1  0
 20 47  1  0
 21 48  1  0
 23 49  1  0
 26 50  1  0
 27 51  1  0
M  END
>  <smiles>  (12) 
O=C(NCC(=O)N1CCCCC[C@H]1c1ncc[nH]1)c1ccc2cc(Cl)ccc2n1

>  <score_type>  (12) 
oracle

>  <origin>  (12) 
autodockgpu

>  <m_score__min__energy>  (12) 
-6.0300000000000002

>  <m_primary>  (12) 
energy

>  <rmsd>  (12) 
3.817781543516065

>  <m_score__min__rmsd>  (12) 
3.817781543516065

>  <meeko>  (12) 
{"free_energy": -5.71, "intermolecular_energy": -8.99, "internal_energy": -1.46, "cluster_size": 3, "cluster_id": 2, "rank_in_cluster": 1}

>  <energy>  (12) 
-4.93

>  <cluster_rmsd>  (12) 
1.72

>  <cluster>  (12) 
3

$$$$

     RDKit          3D

 51 54  0  0  0  0  0  0  0  0999 V2000
  140.0050   72.2690  220.8380 O   0  0  0  0  0  0  0  0  0  0  0  0
  139.8010   72.6430  222.0220 C   0  0  0  0  0  0  0  0  0  0  0  0
  139.4590   74.0180  222.2050 N   0  0  0  0  0  0  0  0  0  0  0  0
  139.3890   74.8180  220.9770 C   0  0  0  0  0  0  0  0  0  0  0  0
  139.3600   76.2480  221.3950 C   0  0  0  0  0  0  0  0  0  0  0  0
  138.7460   76.5740  222.4510 O   0  0  0  0  0  0  0  0  0  0  0  0
  140.0260   77.2180  220.5920 N   0  0  0  0  0  0  0  0  0  0  0  0
  139.2890   77.7910  219.4660 C   0  0  0  0  0  0  0  0  0  0  0  0
  139.5750   76.9970  218.1940 C   0  0  0  0  0  0  0  0  0  0  0  0
  140.9380   77.3730  217.6560 C   0  0  0  0  0  0  0  0  0  0  0  0
  142.0580   77.1040  218.6100 C   0  0  0  0  0  0  0  0  0  0  0  0
  142.1390   78.0390  219.7690 C   0  0  0  0  0  0  0  0  0  0  0  0
  141.3820   77.5400  220.9790 C   0  0  1  0  0  0  0  0  0  0  0  0
  141.4530   78.4930  222.0900 C   0  0  0  0  0  0  0  0  0  0  0  0
  142.4910   79.3030  222.3470 N   0  0  0  0  0  0  0  0  0  0  0  0
  142.2420   80.0430  223.4240 C   0  0  0  0  0  0  0  0  0  0  0  0
  140.9790   79.6950  223.8890 C   0  0  0  0  0  0  0  0  0  0  0  0
  140.5440   78.7460  223.0390 N   0  0  0  0  0  0  0  0  0  0  0  0
  139.9030   71.7400  223.1670 C   0  0  0  0  0  0  0  0  0  0  0  0
  139.4670   70.4340  222.9890 C   0  0  0  0  0  0  0  0  0  0  0  0
  139.5200   69.4990  224.0110 C   0  0  0  0  0  0  0  0  0  0  0  0
  140.0280   69.9300  225.2150 C   0  0  0  0  0  0  0  0  0  0  0  0
  140.0840   69.0030  226.2380 C   0  0  0  0  0  0  0  0  0  0  0  0
  140.5870   69.3920  227.4650 C   0  0  0  0  0  0  0  0  0  0  0  0
  140.6420   68.1980  228.7320 Cl  0  0  0  0  0  0  0  0  0  0  0  0
  141.0140   70.6860  227.6280 C   0  0  0  0  0  0  0  0  0  0  0  0
  140.9650   71.6330  226.6070 C   0  0  0  0  0  0  0  0  0  0  0  0
  140.4610   71.2410  225.3790 C   0  0  0  0  0  0  0  0  0  0  0  0
  140.3980   72.1360  224.3620 N   0  0  0  0  0  0  0  0  0  0  0  0
  139.2710   74.4230  223.1480 H   0  0  0  0  0  0  0  0  0  0  0  0
  140.2711   74.6251  220.3487 H   0  0  0  0  0  0  0  0  0  0  0  0
  138.4956   74.5607  220.3891 H   0  0  0  0  0  0  0  0  0  0  0  0
  138.2109   77.7569  219.6816 H   0  0  0  0  0  0  0  0  0  0  0  0
  139.6084   78.8334  219.3195 H   0  0  0  0  0  0  0  0  0  0  0  0
  139.5556   75.9211  218.4221 H   0  0  0  0  0  0  0  0  0  0  0  0
  138.8084   77.2277  217.4396 H   0  0  0  0  0  0  0  0  0  0  0  0
  141.1192   76.7966  216.7368 H   0  0  0  0  0  0  0  0  0  0  0  0
  140.9236   78.4581  217.4762 H   0  0  0  0  0  0  0  0  0  0  0  0
  141.9337   76.0841  219.0028 H   0  0  0  0  0  0  0  0  0  0  0  0
  142.9876   77.2426  218.0385 H   0  0  0  0  0  0  0  0  0  0  0  0
  143.1964   78.1668  220.0441 H   0  0  0  0  0  0  0  0  0  0  0  0
  141.6797   78.9896  219.4601 H   0  0  0  0  0  0  0  0  0  0  0  0
  141.8535   76.6201  221.3550 H   0  0  0  0  0  0  0  0  0  0  0  0
  142.9134   80.7938  223.8662 H   0  0  0  0  0  0  0  0  0  0  0  0
  140.4501   80.1057  224.7617 H   0  0  0  0  0  0  0  0  0  0  0  0
  139.6090   78.2860  223.1350 H   0  0  0  0  0  0  0  0  0  0  0  0
  139.0682   70.1326  222.0092 H   0  0  0  0  0  0  0  0  0  0  0  0
  139.1736   68.4650  223.8668 H   0  0  0  0  0  0  0  0  0  0  0  0
  139.7340   67.9724  226.0785 H   0  0  0  0  0  0  0  0  0  0  0  0
  141.4124   70.9889  228.6076 H   0  0  0  0  0  0  0  0  0  0  0  0
  141.3166   72.6621  226.7721 H   0  0  0  0  0  0  0  0  0  0  0  0
  1  2  2  0
  2  3  1  0
  3  4  1  0
  4  5  1  0
  5  6  2  0
  5  7  1  0
  7  8  1  0
  8  9  1  0
  9 10  1  0
 10 11  1  0
 11 12  1  0
 12 13  1  0
 13 14  1  0
 14 15  2  0
 15 16  1  0
 16 17  2  0
 17 18  1  0
  2 19  1  0
 19 20  2  0
 20 21  1  0
 21 22  2  0
 22 23  1  0
 23 24  2  0
 24 25  1  0
 24 26  1  0
 26 27  2  0
 27 28  1  0
 28 29  2  0
 13  7  1  0
 18 14  1  0
 29 19  1  0
 28 22  1  0
  3 30  1  0
  4 31  1  0
  4 32  1  0
  8 33  1  0
  8 34  1  0
  9 35  1  0
  9 36  1  0
 10 37  1  0
 10 38  1  0
 11 39  1  0
 11 40  1  0
 12 41  1  0
 12 42  1  0
 13 43  1  1
 16 44  1  0
 17 45  1  0
 18 46  1  0
 20 47  1  0
 21 48  1  0
 23 49  1  0
 26 50  1  0
 27 51  1  0
M  END
>  <smiles>  (13) 
O=C(NCC(=O)N1CCCCC[C@H]1c1ncc[nH]1)c1ccc2cc(Cl)ccc2n1

>  <score_type>  (13) 
oracle

>  <origin>  (13) 
autodockgpu

>  <m_score__min__energy>  (13) 
-6.0300000000000002

>  <m_primary>  (13) 
energy

>  <rmsd>  (13) 
1.8708964004440642

>  <m_score__min__rmsd>  (13) 
1.8708964004440642

>  <meeko>  (13) 
{"free_energy": -5.37, "intermolecular_energy": -8.66, "internal_energy": -2.61, "cluster_size": 5, "cluster_id": 1, "rank_in_cluster": 2}

>  <energy>  (13) 
-4.77

>  <cluster_rmsd>  (13) 
1.43

>  <cluster>  (13) 
3

$$$$

     RDKit          3D

 51 54  0  0  0  0  0  0  0  0999 V2000
  139.4010   75.0020  222.6990 O   0  0  0  0  0  0  0  0  0  0  0  0
  139.9320   75.0680  221.5600 C   0  0  0  0  0  0  0  0  0  0  0  0
  139.4870   76.1280  220.7110 N   0  0  0  0  0  0  0  0  0  0  0  0
  138.4620   77.0060  221.2850 C   0  0  0  0  0  0  0  0  0  0  0  0
  139.1470   77.8750  222.2840 C   0  0  0  0  0  0  0  0  0  0  0  0
  138.5680   78.1430  223.3750 O   0  0  0  0  0  0  0  0  0  0  0  0
  140.4440   78.3830  221.9850 N   0  0  0  0  0  0  0  0  0  0  0  0
  141.4580   78.3230  223.0390 C   0  0  0  0  0  0  0  0  0  0  0  0
  141.4340   79.6090  223.8620 C   0  0  0  0  0  0  0  0  0  0  0  0
  142.0800   80.7280  223.0750 C   0  0  0  0  0  0  0  0  0  0  0  0
  142.3940   80.3660  221.6590 C   0  0  0  0  0  0  0  0  0  0  0  0
  141.2160   80.3030  220.7470 C   0  0  0  0  0  0  0  0  0  0  0  0
  140.6270   78.9130  220.6520 C   0  0  1  0  0  0  0  0  0  0  0  0
  141.4330   78.0430  219.7920 C   0  0  0  0  0  0  0  0  0  0  0  0
  141.0810   77.6320  218.5640 N   0  0  0  0  0  0  0  0  0  0  0  0
  142.0300   76.8540  218.0500 C   0  0  0  0  0  0  0  0  0  0  0  0
  143.0470   76.7550  218.9910 C   0  0  0  0  0  0  0  0  0  0  0  0
  142.6310   77.4980  220.0340 N   0  0  0  0  0  0  0  0  0  0  0  0
  140.9510   74.1250  221.1050 C   0  0  0  0  0  0  0  0  0  0  0  0
  140.5550   72.8100  220.8960 C   0  0  0  0  0  0  0  0  0  0  0  0
  141.4450   71.8390  220.4650 C   0  0  0  0  0  0  0  0  0  0  0  0
  142.7430   72.2410  220.2530 C   0  0  0  0  0  0  0  0  0  0  0  0
  143.6330   71.2760  219.8220 C   0  0  0  0  0  0  0  0  0  0  0  0
  144.9490   71.6350  219.5950 C   0  0  0  0  0  0  0  0  0  0  0  0
  146.0450   70.3940  219.0550 Cl  0  0  0  0  0  0  0  0  0  0  0  0
  145.3270   72.9380  219.8060 C   0  0  0  0  0  0  0  0  0  0  0  0
  144.4410   73.9220  220.2390 C   0  0  0  0  0  0  0  0  0  0  0  0
  143.1250   73.5600  220.4650 C   0  0  0  0  0  0  0  0  0  0  0  0
  142.2350   74.4920  220.8870 N   0  0  0  0  0  0  0  0  0  0  0  0
  139.8670   76.2670  219.7500 H   0  0  0  0  0  0  0  0  0  0  0  0
  138.0070   77.6227  220.4959 H   0  0  0  0  0  0  0  0  0  0  0  0
  137.6602   76.4193  221.7572 H   0  0  0  0  0  0  0  0  0  0  0  0
  141.2495   77.4661  223.6964 H   0  0  0  0  0  0  0  0  0  0  0  0
  142.4504   78.2079  222.5786 H   0  0  0  0  0  0  0  0  0  0  0  0
  140.3922   79.8772  224.0917 H   0  0  0  0  0  0  0  0  0  0  0  0
  141.9895   79.4534  224.7986 H   0  0  0  0  0  0  0  0  0  0  0  0
  141.3948   81.5885  223.0693 H   0  0  0  0  0  0  0  0  0  0  0  0
  143.0370   80.9553  223.5675 H   0  0  0  0  0  0  0  0  0  0  0  0
  143.0927   81.1171  221.2620 H   0  0  0  0  0  0  0  0  0  0  0  0
  142.8140   79.3498  221.6881 H   0  0  0  0  0  0  0  0  0  0  0  0
  140.4423   80.9884  221.1232 H   0  0  0  0  0  0  0  0  0  0  0  0
  141.5578   80.5892  219.7414 H   0  0  0  0  0  0  0  0  0  0  0  0
  139.6398   78.9633  220.1693 H   0  0  0  0  0  0  0  0  0  0  0  0
  142.0125   76.3759  217.0595 H   0  0  0  0  0  0  0  0  0  0  0  0
  143.9879   76.1919  218.9032 H   0  0  0  0  0  0  0  0  0  0  0  0
  143.1970   77.6160  220.9060 H   0  0  0  0  0  0  0  0  0  0  0  0
  139.5064   72.5318  221.0775 H   0  0  0  0  0  0  0  0  0  0  0  0
  141.1289   70.7983  220.3006 H   0  0  0  0  0  0  0  0  0  0  0  0
  143.3004   70.2398  219.6622 H   0  0  0  0  0  0  0  0  0  0  0  0
  146.3755   73.2172  219.6252 H   0  0  0  0  0  0  0  0  0  0  0  0
  144.7781   74.9571  220.3967 H   0  0  0  0  0  0  0  0  0  0  0  0
  1  2  2  0
  2  3  1  0
  3  4  1  0
  4  5  1  0
  5  6  2  0
  5  7  1  0
  7  8  1  0
  8  9  1  0
  9 10  1  0
 10 11  1  0
 11 12  1  0
 12 13  1  0
 13 14  1  0
 14 15  2  0
 15 16  1  0
 16 17  2  0
 17 18  1  0
  2 19  1  0
 19 20  2  0
 20 21  1  0
 21 22  2  0
 22 23  1  0
 23 24  2  0
 24 25  1  0
 24 26  1  0
 26 27  2  0
 27 28  1  0
 28 29  2  0
 13  7  1  0
 18 14  1  0
 29 19  1  0
 28 22  1  0
  3 30  1  0
  4 31  1  0
  4 32  1  0
  8 33  1  0
  8 34  1  0
  9 35  1  0
  9 36  1  0
 10 37  1  0
 10 38  1  0
 11 39  1  0
 11 40  1  0
 12 41  1  0
 12 42  1  0
 13 43  1  6
 16 44  1  0
 17 45  1  0
 18 46  1  0
 20 47  1  0
 21 48  1  0
 23 49  1  0
 26 50  1  0
 27 51  1  0
M  END
>  <smiles>  (14) 
O=C(NCC(=O)N1CCCCC[C@H]1c1ncc[nH]1)c1ccc2cc(Cl)ccc2n1

>  <score_type>  (14) 
oracle

>  <origin>  (14) 
autodockgpu

>  <m_score__min__energy>  (14) 
-6.0300000000000002

>  <m_primary>  (14) 
energy

>  <rmsd>  (14) 
5.872881270942875

>  <m_score__min__rmsd>  (14) 
5.872881270942875

>  <meeko>  (14) 
{"free_energy": -4.12, "intermolecular_energy": -7.4, "internal_energy": -3.0, "cluster_size": 2, "cluster_id": 10, "rank_in_cluster": 2}

>  <energy>  (14) 
-4.68

>  <cluster_rmsd>  (14) 
1.05

>  <cluster>  (14) 
3

$$$$

     RDKit          3D

 51 54  0  0  0  0  0  0  0  0999 V2000
  142.3850   74.7760  220.8870 O   0  0  0  0  0  0  0  0  0  0  0  0
  141.1790   74.9840  221.1810 C   0  0  0  0  0  0  0  0  0  0  0  0
  140.6960   76.3130  220.9760 N   0  0  0  0  0  0  0  0  0  0  0  0
  141.6770   77.2660  220.4470 C   0  0  0  0  0  0  0  0  0  0  0  0
  141.2590   78.6190  220.9120 C   0  0  0  0  0  0  0  0  0  0  0  0
  140.7660   79.4360  220.0830 O   0  0  0  0  0  0  0  0  0  0  0  0
  141.4250   78.9620  222.2850 N   0  0  0  0  0  0  0  0  0  0  0  0
  142.7570   79.3760  222.7260 C   0  0  0  0  0  0  0  0  0  0  0  0
  142.6560   80.6230  223.6000 C   0  0  0  0  0  0  0  0  0  0  0  0
  141.8260   81.6730  222.8930 C   0  0  0  0  0  0  0  0  0  0  0  0
  140.3710   81.3380  222.8120 C   0  0  0  0  0  0  0  0  0  0  0  0
  139.9250   80.2240  223.6880 C   0  0  0  0  0  0  0  0  0  0  0  0
  140.2430   78.8630  223.1120 C   0  0  1  0  0  0  0  0  0  0  0  0
  139.0930   78.2930  222.4060 C   0  0  0  0  0  0  0  0  0  0  0  0
  138.4470   77.1720  222.7610 N   0  0  0  0  0  0  0  0  0  0  0  0
  137.4490   76.9280  221.9150 C   0  0  0  0  0  0  0  0  0  0  0  0
  137.4480   77.9410  220.9640 C   0  0  0  0  0  0  0  0  0  0  0  0
  138.4710   78.7460  221.3100 N   0  0  0  0  0  0  0  0  0  0  0  0
  140.3000   73.9410  221.7030 C   0  0  0  0  0  0  0  0  0  0  0  0
  139.0130   73.8730  221.1840 C   0  0  0  0  0  0  0  0  0  0  0  0
  138.1010   72.9210  221.6120 C   0  0  0  0  0  0  0  0  0  0  0  0
  138.5340   72.0440  222.5800 C   0  0  0  0  0  0  0  0  0  0  0  0
  137.6290   71.0930  223.0090 C   0  0  0  0  0  0  0  0  0  0  0  0
  138.0200   70.1900  223.9800 C   0  0  0  0  0  0  0  0  0  0  0  0
  136.8540   69.0050  224.5000 Cl  0  0  0  0  0  0  0  0  0  0  0  0
  139.2940   70.2680  224.4850 C   0  0  0  0  0  0  0  0  0  0  0  0
  140.2180   71.2210  224.0620 C   0  0  0  0  0  0  0  0  0  0  0  0
  139.8240   72.1230  223.0890 C   0  0  0  0  0  0  0  0  0  0  0  0
  140.6980   73.0650  222.6530 N   0  0  0  0  0  0  0  0  0  0  0  0
  139.7110   76.5850  221.1890 H   0  0  0  0  0  0  0  0  0  0  0  0
  142.6805   77.0277  220.8294 H   0  0  0  0  0  0  0  0  0  0  0  0
  141.7170   77.2216  219.3486 H   0  0  0  0  0  0  0  0  0  0  0  0
  143.2178   78.5622  223.3051 H   0  0  0  0  0  0  0  0  0  0  0  0
  143.3737   79.6035  221.8440 H   0  0  0  0  0  0  0  0  0  0  0  0
  142.1790   80.3621  224.5563 H   0  0  0  0  0  0  0  0  0  0  0  0
  143.6645   81.0201  223.7877 H   0  0  0  0  0  0  0  0  0  0  0  0
  141.9334   82.6235  223.4361 H   0  0  0  0  0  0  0  0  0  0  0  0
  142.1988   81.7340  221.8599 H   0  0  0  0  0  0  0  0  0  0  0  0
  139.7998   82.2366  223.0880 H   0  0  0  0  0  0  0  0  0  0  0  0
  140.1938   81.0020  221.7796 H   0  0  0  0  0  0  0  0  0  0  0  0
  140.4276   80.3197  224.6618 H   0  0  0  0  0  0  0  0  0  0  0  0
  138.8316   80.2957  223.7845 H   0  0  0  0  0  0  0  0  0  0  0  0
  140.4591   78.1590  223.9291 H   0  0  0  0  0  0  0  0  0  0  0  0
  136.7516   76.0786  221.9604 H   0  0  0  0  0  0  0  0  0  0  0  0
  136.7609   78.0598  220.1132 H   0  0  0  0  0  0  0  0  0  0  0  0
  138.7200   79.6080  220.7720 H   0  0  0  0  0  0  0  0  0  0  0  0
  138.7093   74.5950  220.4117 H   0  0  0  0  0  0  0  0  0  0  0  0
  137.0828   72.8692  221.1989 H   0  0  0  0  0  0  0  0  0  0  0  0
  136.6146   71.0547  222.5854 H   0  0  0  0  0  0  0  0  0  0  0  0
  139.5987   69.5465  225.2574 H   0  0  0  0  0  0  0  0  0  0  0  0
  141.2312   71.2556  224.4889 H   0  0  0  0  0  0  0  0  0  0  0  0
  1  2  2  0
  2  3  1  0
  3  4  1  0
  4  5  1  0
  5  6  2  0
  5  7  1  0
  7  8  1  0
  8  9  1  0
  9 10  1  0
 10 11  1  0
 11 12  1  0
 12 13  1  0
 13 14  1  0
 14 15  2  0
 15 16  1  0
 16 17  2  0
 17 18  1  0
  2 19  1  0
 19 20  2  0
 20 21  1  0
 21 22  2  0
 22 23  1  0
 23 24  2  0
 24 25  1  0
 24 26  1  0
 26 27  2  0
 27 28  1  0
 28 29  2  0
 13  7  1  0
 18 14  1  0
 29 19  1  0
 28 22  1  0
  3 30  1  0
  4 31  1  0
  4 32  1  0
  8 33  1  0
  8 34  1  0
  9 35  1  0
  9 36  1  0
 10 37  1  0
 10 38  1  0
 11 39  1  0
 11 40  1  0
 12 41  1  0
 12 42  1  0
 13 43  1  1
 16 44  1  0
 17 45  1  0
 18 46  1  0
 20 47  1  0
 21 48  1  0
 23 49  1  0
 26 50  1  0
 27 51  1  0
M  END
>  <smiles>  (15) 
O=C(NCC(=O)N1CCCCC[C@H]1c1ncc[nH]1)c1ccc2cc(Cl)ccc2n1

>  <score_type>  (15) 
oracle

>  <origin>  (15) 
autodockgpu

>  <m_score__min__energy>  (15) 
-6.0300000000000002

>  <m_primary>  (15) 
energy

>  <rmsd>  (15) 
5.426753177719233

>  <m_score__min__rmsd>  (15) 
5.426753177719233

>  <meeko>  (15) 
{"free_energy": -3.58, "intermolecular_energy": -6.87, "internal_energy": -3.05, "cluster_size": 3, "cluster_id": 2, "rank_in_cluster": 3}

>  <energy>  (15) 
-5.52

>  <cluster_rmsd>  (15) 
0.0

>  <cluster>  (15) 
4

$$$$

     RDKit          3D

 51 54  0  0  0  0  0  0  0  0999 V2000
  139.4290   71.8360  220.9130 O   0  0  0  0  0  0  0  0  0  0  0  0
  139.5490   72.2950  222.0790 C   0  0  0  0  0  0  0  0  0  0  0  0
  139.4790   73.7150  222.2130 N   0  0  0  0  0  0  0  0  0  0  0  0
  139.2730   74.4570  220.9640 C   0  0  0  0  0  0  0  0  0  0  0  0
  140.1010   75.6930  221.0540 C   0  0  0  0  0  0  0  0  0  0  0  0
  140.5520   76.0570  222.1770 O   0  0  0  0  0  0  0  0  0  0  0  0
  140.3660   76.4370  219.8690 N   0  0  0  0  0  0  0  0  0  0  0  0
  139.2840   77.2590  219.3260 C   0  0  0  0  0  0  0  0  0  0  0  0
  139.3170   78.6500  219.9550 C   0  0  0  0  0  0  0  0  0  0  0  0
  140.7010   79.2420  219.8050 C   0  0  0  0  0  0  0  0  0  0  0  0
  141.7630   78.4850  220.5360 C   0  0  0  0  0  0  0  0  0  0  0  0
  142.5240   77.5020  219.7140 C   0  0  0  0  0  0  0  0  0  0  0  0
  141.6950   76.3010  219.3160 C   0  0  1  0  0  0  0  0  0  0  0  0
  142.3500   75.0450  219.6940 C   0  0  0  0  0  0  0  0  0  0  0  0
  142.7270   74.0840  218.8370 N   0  0  0  0  0  0  0  0  0  0  0  0
  143.2910   73.0760  219.4970 C   0  0  0  0  0  0  0  0  0  0  0  0
  143.2790   73.3990  220.8480 C   0  0  0  0  0  0  0  0  0  0  0  0
  142.6940   74.6100  220.9120 N   0  0  0  0  0  0  0  0  0  0  0  0
  139.7500   71.4430  223.2490 C   0  0  0  0  0  0  0  0  0  0  0  0
  139.3930   70.1060  223.1330 C   0  0  0  0  0  0  0  0  0  0  0  0
  139.5440   69.2150  224.1840 C   0  0  0  0  0  0  0  0  0  0  0  0
  140.0670   69.7210  225.3520 C   0  0  0  0  0  0  0  0  0  0  0  0
  140.2200   68.8370  226.4020 C   0  0  0  0  0  0  0  0  0  0  0  0
  140.7420   69.3020  227.5950 C   0  0  0  0  0  0  0  0  0  0  0  0
  140.9200   68.1610  228.8990 Cl  0  0  0  0  0  0  0  0  0  0  0  0
  141.0900   70.6260  227.6960 C   0  0  0  0  0  0  0  0  0  0  0  0
  140.9430   71.5290  226.6460 C   0  0  0  0  0  0  0  0  0  0  0  0
  140.4210   71.0610  225.4530 C   0  0  0  0  0  0  0  0  0  0  0  0
  140.2620   71.9130  224.4090 N   0  0  0  0  0  0  0  0  0  0  0  0
  139.5660   74.1910  223.1380 H   0  0  0  0  0  0  0  0  0  0  0  0
  139.5932   73.8487  220.1053 H   0  0  0  0  0  0  0  0  0  0  0  0
  138.2104   74.7040  220.8231 H   0  0  0  0  0  0  0  0  0  0  0  0
  139.4068   77.3491  218.2366 H   0  0  0  0  0  0  0  0  0  0  0  0
  138.3194   76.7825  219.5552 H   0  0  0  0  0  0  0  0  0  0  0  0
  138.5851   79.2976  219.4500 H   0  0  0  0  0  0  0  0  0  0  0  0
  139.0660   78.5739  221.0233 H   0  0  0  0  0  0  0  0  0  0  0  0
  140.9584   79.2557  218.7356 H   0  0  0  0  0  0  0  0  0  0  0  0
  140.6674   80.2507  220.2426 H   0  0  0  0  0  0  0  0  0  0  0  0
  142.4792   79.2130  220.9447 H   0  0  0  0  0  0  0  0  0  0  0  0
  141.2425   77.8985  221.3074 H   0  0  0  0  0  0  0  0  0  0  0  0
  142.8745   78.0049  218.8006 H   0  0  0  0  0  0  0  0  0  0  0  0
  143.3612   77.1369  220.3270 H   0  0  0  0  0  0  0  0  0  0  0  0
  141.6033   76.2630  218.2205 H   0  0  0  0  0  0  0  0  0  0  0  0
  143.6939   72.1537  219.0532 H   0  0  0  0  0  0  0  0  0  0  0  0
  143.6638   72.7964  221.6839 H   0  0  0  0  0  0  0  0  0  0  0  0
  142.5430   75.1190  221.8140 H   0  0  0  0  0  0  0  0  0  0  0  0
  138.9788   69.7439  222.1804 H   0  0  0  0  0  0  0  0  0  0  0  0
  139.2600   68.1565  224.0892 H   0  0  0  0  0  0  0  0  0  0  0  0
  139.9316   67.7813  226.2912 H   0  0  0  0  0  0  0  0  0  0  0  0
  141.5032   70.9898  228.6483 H   0  0  0  0  0  0  0  0  0  0  0  0
  141.2334   72.5836  226.7617 H   0  0  0  0  0  0  0  0  0  0  0  0
  1  2  2  0
  2  3  1  0
  3  4  1  0
  4  5  1  0
  5  6  2  0
  5  7  1  0
  7  8  1  0
  8  9  1  0
  9 10  1  0
 10 11  1  0
 11 12  1  0
 12 13  1  0
 13 14  1  0
 14 15  2  0
 15 16  1  0
 16 17  2  0
 17 18  1  0
  2 19  1  0
 19 20  2  0
 20 21  1  0
 21 22  2  0
 22 23  1  0
 23 24  2  0
 24 25  1  0
 24 26  1  0
 26 27  2  0
 27 28  1  0
 28 29  2  0
 13  7  1  0
 18 14  1  0
 29 19  1  0
 28 22  1  0
  3 30  1  0
  4 31  1  0
  4 32  1  0
  8 33  1  0
  8 34  1  0
  9 35  1  0
  9 36  1  0
 10 37  1  0
 10 38  1  0
 11 39  1  0
 11 40  1  0
 12 41  1  0
 12 42  1  0
 13 43  1  6
 16 44  1  0
 17 45  1  0
 18 46  1  0
 20 47  1  0
 21 48  1  0
 23 49  1  0
 26 50  1  0
 27 51  1  0
M  END
>  <smiles>  (16) 
O=C(NCC(=O)N1CCCCC[C@H]1c1ncc[nH]1)c1ccc2cc(Cl)ccc2n1

>  <score_type>  (16) 
oracle

>  <origin>  (16) 
autodockgpu

>  <m_score__min__energy>  (16) 
-6.0300000000000002

>  <m_primary>  (16) 
energy

>  <rmsd>  (16) 
3.1045374664867866

>  <m_score__min__rmsd>  (16) 
3.1045374664867866

>  <meeko>  (16) 
{"free_energy": -4.98, "intermolecular_energy": -8.26, "internal_energy": -2.84, "cluster_size": 6, "cluster_id": 3, "rank_in_cluster": 3}

>  <energy>  (16) 
-5.18

>  <cluster_rmsd>  (16) 
0.79

>  <cluster>  (16) 
4

$$$$

     RDKit          3D

 51 54  0  0  0  0  0  0  0  0999 V2000
  138.7140   73.6160  221.0850 O   0  0  0  0  0  0  0  0  0  0  0  0
  139.7380   73.1680  221.6640 C   0  0  0  0  0  0  0  0  0  0  0  0
  140.9990   73.5890  221.1410 N   0  0  0  0  0  0  0  0  0  0  0  0
  140.9330   74.4960  219.9900 C   0  0  0  0  0  0  0  0  0  0  0  0
  141.8710   75.6190  220.2700 C   0  0  0  0  0  0  0  0  0  0  0  0
  143.1100   75.3850  220.3600 O   0  0  0  0  0  0  0  0  0  0  0  0
  141.3490   76.9350  220.4310 N   0  0  0  0  0  0  0  0  0  0  0  0
  141.1290   77.7310  219.2230 C   0  0  0  0  0  0  0  0  0  0  0  0
  141.8850   79.0540  219.3240 C   0  0  0  0  0  0  0  0  0  0  0  0
  141.0350   80.0700  220.0550 C   0  0  0  0  0  0  0  0  0  0  0  0
  140.9510   79.8370  221.5290 C   0  0  0  0  0  0  0  0  0  0  0  0
  141.7530   78.6860  222.0380 C   0  0  0  0  0  0  0  0  0  0  0  0
  141.0850   77.3520  221.7900 C   0  0  1  0  0  0  0  0  0  0  0  0
  139.6570   77.3960  222.1120 C   0  0  0  0  0  0  0  0  0  0  0  0
  139.0750   78.2950  222.9210 N   0  0  0  0  0  0  0  0  0  0  0  0
  137.7680   78.0610  223.0050 C   0  0  0  0  0  0  0  0  0  0  0  0
  137.4880   76.9550  222.2120 C   0  0  0  0  0  0  0  0  0  0  0  0
  138.6750   76.5890  221.6920 N   0  0  0  0  0  0  0  0  0  0  0  0
  139.6690   72.2650  222.8110 C   0  0  0  0  0  0  0  0  0  0  0  0
  138.6130   71.3640  222.8490 C   0  0  0  0  0  0  0  0  0  0  0  0
  138.4560   70.4650  223.8930 C   0  0  0  0  0  0  0  0  0  0  0  0
  139.4020   70.5090  224.8920 C   0  0  0  0  0  0  0  0  0  0  0  0
  139.2510   69.6140  225.9340 C   0  0  0  0  0  0  0  0  0  0  0  0
  140.1780   69.6220  226.9590 C   0  0  0  0  0  0  0  0  0  0  0  0
  139.9580   68.4820  228.2580 Cl  0  0  0  0  0  0  0  0  0  0  0  0
  141.2170   70.5180  226.9090 C   0  0  0  0  0  0  0  0  0  0  0  0
  141.3840   71.4250  225.8640 C   0  0  0  0  0  0  0  0  0  0  0  0
  140.4550   71.4150  224.8390 C   0  0  0  0  0  0  0  0  0  0  0  0
  140.5840   72.2850  223.8060 N   0  0  0  0  0  0  0  0  0  0  0  0
  141.9050   73.2730  221.5520 H   0  0  0  0  0  0  0  0  0  0  0  0
  141.2376   73.9680  219.0743 H   0  0  0  0  0  0  0  0  0  0  0  0
  139.9085   74.8669  219.8391 H   0  0  0  0  0  0  0  0  0  0  0  0
  141.4896   77.1714  218.3474 H   0  0  0  0  0  0  0  0  0  0  0  0
  140.0536   77.9370  219.1174 H   0  0  0  0  0  0  0  0  0  0  0  0
  142.8240   78.8979  219.8753 H   0  0  0  0  0  0  0  0  0  0  0  0
  142.1088   79.4249  218.3129 H   0  0  0  0  0  0  0  0  0  0  0  0
  141.4650   81.0682  219.8855 H   0  0  0  0  0  0  0  0  0  0  0  0
  140.0135   79.9788  219.6573 H   0  0  0  0  0  0  0  0  0  0  0  0
  141.3015   80.7471  222.0377 H   0  0  0  0  0  0  0  0  0  0  0  0
  139.8994   79.5926  221.7395 H   0  0  0  0  0  0  0  0  0  0  0  0
  142.7308   78.6886  221.5341 H   0  0  0  0  0  0  0  0  0  0  0  0
  141.8549   78.8085  223.1264 H   0  0  0  0  0  0  0  0  0  0  0  0
  141.5108   76.5950  222.4650 H   0  0  0  0  0  0  0  0  0  0  0  0
  137.0411   78.6383  223.5951 H   0  0  0  0  0  0  0  0  0  0  0  0
  136.5093   76.4813  222.0452 H   0  0  0  0  0  0  0  0  0  0  0  0
  138.7820   75.7740  221.0440 H   0  0  0  0  0  0  0  0  0  0  0  0
  137.8808   71.3634  222.0281 H   0  0  0  0  0  0  0  0  0  0  0  0
  137.6181   69.7529  223.9214 H   0  0  0  0  0  0  0  0  0  0  0  0
  138.4079   68.9076  225.9474 H   0  0  0  0  0  0  0  0  0  0  0  0
  141.9496   70.5202  227.7295 H   0  0  0  0  0  0  0  0  0  0  0  0
  142.2298   72.1282  225.8546 H   0  0  0  0  0  0  0  0  0  0  0  0
  1  2  2  0
  2  3  1  0
  3  4  1  0
  4  5  1  0
  5  6  2  0
  5  7  1  0
  7  8  1  0
  8  9  1  0
  9 10  1  0
 10 11  1  0
 11 12  1  0
 12 13  1  0
 13 14  1  0
 14 15  2  0
 15 16  1  0
 16 17  2  0
 17 18  1  0
  2 19  1  0
 19 20  2  0
 20 21  1  0
 21 22  2  0
 22 23  1  0
 23 24  2  0
 24 25  1  0
 24 26  1  0
 26 27  2  0
 27 28  1  0
 28 29  2  0
 13  7  1  0
 18 14  1  0
 29 19  1  0
 28 22  1  0
  3 30  1  0
  4 31  1  0
  4 32  1  0
  8 33  1  0
  8 34  1  0
  9 35  1  0
  9 36  1  0
 10 37  1  0
 10 38  1  0
 11 39  1  0
 11 40  1  0
 12 41  1  0
 12 42  1  0
 13 43  1  1
 16 44  1  0
 17 45  1  0
 18 46  1  0
 20 47  1  0
 21 48  1  0
 23 49  1  0
 26 50  1  0
 27 51  1  0
M  END
>  <smiles>  (17) 
O=C(NCC(=O)N1CCCCC[C@H]1c1ncc[nH]1)c1ccc2cc(Cl)ccc2n1

>  <score_type>  (17) 
oracle

>  <origin>  (17) 
autodockgpu

>  <m_score__min__energy>  (17) 
-6.0300000000000002

>  <m_primary>  (17) 
energy

>  <rmsd>  (17) 
3.223752411789681

>  <m_score__min__rmsd>  (17) 
3.223752411789681

>  <meeko>  (17) 
{"free_energy": -4.36, "intermolecular_energy": -7.64, "internal_energy": -2.53, "cluster_size": 3, "cluster_id": 2, "rank_in_cluster": 2}

>  <energy>  (17) 
-4.99

>  <cluster_rmsd>  (17) 
0.88

>  <cluster>  (17) 
4

$$$$

     RDKit          3D

 51 54  0  0  0  0  0  0  0  0999 V2000
  136.2000   77.6330  222.6730 O   0  0  0  0  0  0  0  0  0  0  0  0
  136.6850   76.5390  223.0590 C   0  0  0  0  0  0  0  0  0  0  0  0
  138.0700   76.3230  222.7790 N   0  0  0  0  0  0  0  0  0  0  0  0
  138.7470   77.4160  222.0730 C   0  0  0  0  0  0  0  0  0  0  0  0
  140.2110   77.2090  222.2610 C   0  0  0  0  0  0  0  0  0  0  0  0
  140.6500   76.0450  222.4850 O   0  0  0  0  0  0  0  0  0  0  0  0
  141.0850   78.3320  222.1820 N   0  0  0  0  0  0  0  0  0  0  0  0
  141.6300   78.8580  223.4340 C   0  0  0  0  0  0  0  0  0  0  0  0
  140.9430   80.1730  223.7930 C   0  0  0  0  0  0  0  0  0  0  0  0
  141.6190   81.3150  223.0660 C   0  0  0  0  0  0  0  0  0  0  0  0
  141.5080   81.2320  221.5770 C   0  0  0  0  0  0  0  0  0  0  0  0
  142.2150   80.0750  220.9580 C   0  0  0  0  0  0  0  0  0  0  0  0
  141.3460   78.8430  220.8550 C   0  0  1  0  0  0  0  0  0  0  0  0
  141.9320   77.8430  219.9580 C   0  0  0  0  0  0  0  0  0  0  0  0
  142.1480   78.0160  218.6450 N   0  0  0  0  0  0  0  0  0  0  0  0
  142.6910   76.9210  218.1200 C   0  0  0  0  0  0  0  0  0  0  0  0
  142.8340   75.9920  219.1430 C   0  0  0  0  0  0  0  0  0  0  0  0
  142.3550   76.6050  220.2420 N   0  0  0  0  0  0  0  0  0  0  0  0
  135.8980   75.5250  223.7590 C   0  0  0  0  0  0  0  0  0  0  0  0
  135.0920   75.9550  224.8040 C   0  0  0  0  0  0  0  0  0  0  0  0
  134.3070   75.0740  225.5320 C   0  0  0  0  0  0  0  0  0  0  0  0
  134.3650   73.7490  225.1650 C   0  0  0  0  0  0  0  0  0  0  0  0
  133.5840   72.8660  225.8870 C   0  0  0  0  0  0  0  0  0  0  0  0
  133.6110   71.5250  225.5530 C   0  0  0  0  0  0  0  0  0  0  0  0
  132.6150   70.4400  226.4830 Cl  0  0  0  0  0  0  0  0  0  0  0  0
  134.4120   71.1140  224.5180 C   0  0  0  0  0  0  0  0  0  0  0  0
  135.2050   71.9910  223.7810 C   0  0  0  0  0  0  0  0  0  0  0  0
  135.1760   73.3340  224.1160 C   0  0  0  0  0  0  0  0  0  0  0  0
  135.9350   74.2170  223.4200 N   0  0  0  0  0  0  0  0  0  0  0  0
  138.5640   75.4480  223.0590 H   0  0  0  0  0  0  0  0  0  0  0  0
  138.4951   77.3887  221.0026 H   0  0  0  0  0  0  0  0  0  0  0  0
  138.4331   78.3941  222.4665 H   0  0  0  0  0  0  0  0  0  0  0  0
  141.4618   78.1278  224.2393 H   0  0  0  0  0  0  0  0  0  0  0  0
  142.7083   79.0369  223.3105 H   0  0  0  0  0  0  0  0  0  0  0  0
  139.8848   80.1258  223.4965 H   0  0  0  0  0  0  0  0  0  0  0  0
  141.0148   80.3378  224.8782 H   0  0  0  0  0  0  0  0  0  0  0  0
  141.1581   82.2576  223.3962 H   0  0  0  0  0  0  0  0  0  0  0  0
  142.6900   81.2617  223.3111 H   0  0  0  0  0  0  0  0  0  0  0  0
  140.4415   81.1592  221.3175 H   0  0  0  0  0  0  0  0  0  0  0  0
  141.9921   82.1369  221.1809 H   0  0  0  0  0  0  0  0  0  0  0  0
  142.5391   80.3617  219.9467 H   0  0  0  0  0  0  0  0  0  0  0  0
  143.0685   79.8244  221.6051 H   0  0  0  0  0  0  0  0  0  0  0  0
  140.3807   79.1109  220.4006 H   0  0  0  0  0  0  0  0  0  0  0  0
  142.9752   76.7772  217.0671 H   0  0  0  0  0  0  0  0  0  0  0  0
  143.2487   74.9757  219.0708 H   0  0  0  0  0  0  0  0  0  0  0  0
  142.3320   76.1460  221.1820 H   0  0  0  0  0  0  0  0  0  0  0  0
  135.0756   77.0243  225.0617 H   0  0  0  0  0  0  0  0  0  0  0  0
  133.6702   75.4168  226.3608 H   0  0  0  0  0  0  0  0  0  0  0  0
  132.9520   73.2243  226.7130 H   0  0  0  0  0  0  0  0  0  0  0  0
  134.4290   70.0452  224.2586 H   0  0  0  0  0  0  0  0  0  0  0  0
  135.8359   71.6269  222.9568 H   0  0  0  0  0  0  0  0  0  0  0  0
  1  2  2  0
  2  3  1  0
  3  4  1  0
  4  5  1  0
  5  6  2  0
  5  7  1  0
  7  8  1  0
  8  9  1  0
  9 10  1  0
 10 11  1  0
 11 12  1  0
 12 13  1  0
 13 14  1  0
 14 15  2  0
 15 16  1  0
 16 17  2  0
 17 18  1  0
  2 19  1  0
 19 20  2  0
 20 21  1  0
 21 22  2  0
 22 23  1  0
 23 24  2  0
 24 25  1  0
 24 26  1  0
 26 27  2  0
 27 28  1  0
 28 29  2  0
 13  7  1  0
 18 14  1  0
 29 19  1  0
 28 22  1  0
  3 30  1  0
  4 31  1  0
  4 32  1  0
  8 33  1  0
  8 34  1  0
  9 35  1  0
  9 36  1  0
 10 37  1  0
 10 38  1  0
 11 39  1  0
 11 40  1  0
 12 41  1  0
 12 42  1  0
 13 43  1  6
 16 44  1  0
 17 45  1  0
 18 46  1  0
 20 47  1  0
 21 48  1  0
 23 49  1  0
 26 50  1  0
 27 51  1  0
M  END
>  <smiles>  (18) 
O=C(NCC(=O)N1CCCCC[C@H]1c1ncc[nH]1)c1ccc2cc(Cl)ccc2n1

>  <score_type>  (18) 
oracle

>  <origin>  (18) 
autodockgpu

>  <m_score__min__energy>  (18) 
-6.0300000000000002

>  <m_primary>  (18) 
energy

>  <rmsd>  (18) 
6.148670674262559

>  <m_score__min__rmsd>  (18) 
6.148670674262559

>  <meeko>  (18) 
{"free_energy": -4.46, "intermolecular_energy": -7.74, "internal_energy": -2.63, "cluster_size": 3, "cluster_id": 7, "rank_in_cluster": 3}

>  <energy>  (18) 
-4.98

>  <cluster_rmsd>  (18) 
0.96

>  <cluster>  (18) 
4

$$$$

     RDKit          3D

 51 54  0  0  0  0  0  0  0  0999 V2000
  138.1890   73.4120  220.7060 O   0  0  0  0  0  0  0  0  0  0  0  0
  139.0820   73.4350  221.5930 C   0  0  0  0  0  0  0  0  0  0  0  0
  139.9160   74.5940  221.6250 N   0  0  0  0  0  0  0  0  0  0  0  0
  139.6190   75.6130  220.6130 C   0  0  0  0  0  0  0  0  0  0  0  0
  140.7390   76.5970  220.6480 C   0  0  0  0  0  0  0  0  0  0  0  0
  141.8290   76.2760  221.2000 O   0  0  0  0  0  0  0  0  0  0  0  0
  140.5520   77.8800  220.0570 N   0  0  0  0  0  0  0  0  0  0  0  0
  139.3490   78.0890  219.2520 C   0  0  0  0  0  0  0  0  0  0  0  0
  138.4290   79.0960  219.9370 C   0  0  0  0  0  0  0  0  0  0  0  0
  138.8280   80.5010  219.5390 C   0  0  0  0  0  0  0  0  0  0  0  0
  140.1820   80.9050  220.0290 C   0  0  0  0  0  0  0  0  0  0  0  0
  141.3180   80.0960  219.4970 C   0  0  0  0  0  0  0  0  0  0  0  0
  141.5870   78.8550  220.3180 C   0  0  1  0  0  0  0  0  0  0  0  0
  141.7340   79.1720  221.7410 C   0  0  0  0  0  0  0  0  0  0  0  0
  141.8180   80.4090  222.2520 N   0  0  0  0  0  0  0  0  0  0  0  0
  141.9450   80.3540  223.5750 C   0  0  0  0  0  0  0  0  0  0  0  0
  141.9450   79.0130  223.9400 C   0  0  0  0  0  0  0  0  0  0  0  0
  141.8140   78.3360  222.7840 N   0  0  0  0  0  0  0  0  0  0  0  0
  139.2760   72.3480  222.5500 C   0  0  0  0  0  0  0  0  0  0  0  0
  138.5190   71.1970  222.3690 C   0  0  0  0  0  0  0  0  0  0  0  0
  138.6280   70.1100  223.2220 C   0  0  0  0  0  0  0  0  0  0  0  0
  139.5250   70.2250  224.2590 C   0  0  0  0  0  0  0  0  0  0  0  0
  139.6370   69.1430  225.1110 C   0  0  0  0  0  0  0  0  0  0  0  0
  140.5270   69.2150  226.1660 C   0  0  0  0  0  0  0  0  0  0  0  0
  140.6430   67.8350  227.2210 Cl  0  0  0  0  0  0  0  0  0  0  0  0
  141.2680   70.3580  226.3330 C   0  0  0  0  0  0  0  0  0  0  0  0
  141.1670   71.4570  225.4830 C   0  0  0  0  0  0  0  0  0  0  0  0
  140.2760   71.3830  224.4260 C   0  0  0  0  0  0  0  0  0  0  0  0
  140.1500   72.4330  223.5780 N   0  0  0  0  0  0  0  0  0  0  0  0
  140.6830   74.7070  222.3240 H   0  0  0  0  0  0  0  0  0  0  0  0
  139.5534   75.1497  219.6175 H   0  0  0  0  0  0  0  0  0  0  0  0
  138.6566   76.1041  220.8192 H   0  0  0  0  0  0  0  0  0  0  0  0
  139.6358   78.4728  218.2618 H   0  0  0  0  0  0  0  0  0  0  0  0
  138.8179   77.1320  219.1425 H   0  0  0  0  0  0  0  0  0  0  0  0
  137.3893   78.9099  219.6299 H   0  0  0  0  0  0  0  0  0  0  0  0
  138.5159   78.9868  221.0281 H   0  0  0  0  0  0  0  0  0  0  0  0
  138.8231   80.5651  218.4409 H   0  0  0  0  0  0  0  0  0  0  0  0
  138.1019   81.1843  220.0036 H   0  0  0  0  0  0  0  0  0  0  0  0
  140.3482   81.9541  219.7433 H   0  0  0  0  0  0  0  0  0  0  0  0
  140.1742   80.7417  221.1168 H   0  0  0  0  0  0  0  0  0  0  0  0
  141.0809   79.7916  218.4669 H   0  0  0  0  0  0  0  0  0  0  0  0
  142.2204   80.7236  219.5389 H   0  0  0  0  0  0  0  0  0  0  0  0
  142.5495   78.4152  220.0176 H   0  0  0  0  0  0  0  0  0  0  0  0
  142.0338   81.2133  224.2560 H   0  0  0  0  0  0  0  0  0  0  0  0
  142.0330   78.5954  224.9538 H   0  0  0  0  0  0  0  0  0  0  0  0
  141.7810   77.2910  222.7400 H   0  0  0  0  0  0  0  0  0  0  0  0
  137.8142   71.1471  221.5260 H   0  0  0  0  0  0  0  0  0  0  0  0
  138.0270   69.2002  223.0771 H   0  0  0  0  0  0  0  0  0  0  0  0
  139.0286   68.2403  224.9524 H   0  0  0  0  0  0  0  0  0  0  0  0
  141.9732   70.4086  227.1757 H   0  0  0  0  0  0  0  0  0  0  0  0
  141.7774   72.3573  225.6469 H   0  0  0  0  0  0  0  0  0  0  0  0
  1  2  2  0
  2  3  1  0
  3  4  1  0
  4  5  1  0
  5  6  2  0
  5  7  1  0
  7  8  1  0
  8  9  1  0
  9 10  1  0
 10 11  1  0
 11 12  1  0
 12 13  1  0
 13 14  1  0
 14 15  2  0
 15 16  1  0
 16 17  2  0
 17 18  1  0
  2 19  1  0
 19 20  2  0
 20 21  1  0
 21 22  2  0
 22 23  1  0
 23 24  2  0
 24 25  1  0
 24 26  1  0
 26 27  2  0
 27 28  1  0
 28 29  2  0
 13  7  1  0
 18 14  1  0
 29 19  1  0
 28 22  1  0
  3 30  1  0
  4 31  1  0
  4 32  1  0
  8 33  1  0
  8 34  1  0
  9 35  1  0
  9 36  1  0
 10 37  1  0
 10 38  1  0
 11 39  1  0
 11 40  1  0
 12 41  1  0
 12 42  1  0
 13 43  1  6
 16 44  1  0
 17 45  1  0
 18 46  1  0
 20 47  1  0
 21 48  1  0
 23 49  1  0
 26 50  1  0
 27 51  1  0
M  END
>  <smiles>  (19) 
O=C(NCC(=O)N1CCCCC[C@H]1c1ncc[nH]1)c1ccc2cc(Cl)ccc2n1

>  <score_type>  (19) 
oracle

>  <origin>  (19) 
autodockgpu

>  <m_score__min__energy>  (19) 
-6.0300000000000002

>  <m_primary>  (19) 
energy

>  <rmsd>  (19) 
2.5912810431091686

>  <m_score__min__rmsd>  (19) 
2.5912810431091686

>  <meeko>  (19) 
{"free_energy": -4.51, "intermolecular_energy": -7.8, "internal_energy": -2.58, "cluster_size": 5, "cluster_id": 1, "rank_in_cluster": 5}

>  <energy>  (19) 
-4.93

>  <cluster_rmsd>  (19) 
0.36

>  <cluster>  (19) 
4

$$$$

     RDKit          3D

 51 54  0  0  0  0  0  0  0  0999 V2000
  140.5870   72.3830  220.8050 O   0  0  0  0  0  0  0  0  0  0  0  0
  140.0560   72.6780  221.9070 C   0  0  0  0  0  0  0  0  0  0  0  0
  139.4220   73.9560  221.9850 N   0  0  0  0  0  0  0  0  0  0  0  0
  139.4740   74.7610  220.7600 C   0  0  0  0  0  0  0  0  0  0  0  0
  140.8820   75.2290  220.6110 C   0  0  0  0  0  0  0  0  0  0  0  0
  141.5650   75.4820  221.6440 O   0  0  0  0  0  0  0  0  0  0  0  0
  141.4260   75.3810  219.3030 N   0  0  0  0  0  0  0  0  0  0  0  0
  141.2480   76.6720  218.6380 C   0  0  0  0  0  0  0  0  0  0  0  0
  142.6000   77.3560  218.4520 C   0  0  0  0  0  0  0  0  0  0  0  0
  143.2340   76.8850  217.1620 C   0  0  0  0  0  0  0  0  0  0  0  0
  143.5970   75.4350  217.1620 C   0  0  0  0  0  0  0  0  0  0  0  0
  142.4590   74.4910  217.3140 C   0  0  0  0  0  0  0  0  0  0  0  0
  142.1070   74.2270  218.7600 C   0  0  1  0  0  0  0  0  0  0  0  0
  143.2850   73.8340  219.5390 C   0  0  0  0  0  0  0  0  0  0  0  0
  144.0650   72.7750  219.2770 N   0  0  0  0  0  0  0  0  0  0  0  0
  145.0490   72.6960  220.1700 C   0  0  0  0  0  0  0  0  0  0  0  0
  144.8980   73.7560  221.0550 C   0  0  0  0  0  0  0  0  0  0  0  0
  143.8070   74.4180  220.6250 N   0  0  0  0  0  0  0  0  0  0  0  0
  140.0720   71.7800  223.0590 C   0  0  0  0  0  0  0  0  0  0  0  0
  139.5740   70.4970  222.8740 C   0  0  0  0  0  0  0  0  0  0  0  0
  139.5440   69.5690  223.9040 C   0  0  0  0  0  0  0  0  0  0  0  0
  140.0340   69.9820  225.1220 C   0  0  0  0  0  0  0  0  0  0  0  0
  140.0070   69.0600  226.1510 C   0  0  0  0  0  0  0  0  0  0  0  0
  140.4890   69.4320  227.3920 C   0  0  0  0  0  0  0  0  0  0  0  0
  140.4390   68.2470  228.6670 Cl  0  0  0  0  0  0  0  0  0  0  0  0
  140.9770   70.7040  227.5610 C   0  0  0  0  0  0  0  0  0  0  0  0
  141.0110   71.6440  226.5340 C   0  0  0  0  0  0  0  0  0  0  0  0
  140.5290   71.2690  225.2920 C   0  0  0  0  0  0  0  0  0  0  0  0
  140.5470   72.1590  224.2680 N   0  0  0  0  0  0  0  0  0  0  0  0
  138.9520   74.2910  222.8550 H   0  0  0  0  0  0  0  0  0  0  0  0
  139.1844   74.1496  219.8926 H   0  0  0  0  0  0  0  0  0  0  0  0
  138.7794   75.6120  220.8173 H   0  0  0  0  0  0  0  0  0  0  0  0
  140.7818   76.5136  217.6543 H   0  0  0  0  0  0  0  0  0  0  0  0
  140.6030   77.3113  219.2587 H   0  0  0  0  0  0  0  0  0  0  0  0
  142.4565   78.4459  218.4127 H   0  0  0  0  0  0  0  0  0  0  0  0
  143.2574   77.1012  219.2963 H   0  0  0  0  0  0  0  0  0  0  0  0
  142.5243   77.0648  216.3410 H   0  0  0  0  0  0  0  0  0  0  0  0
  144.1703   77.4495  217.0406 H   0  0  0  0  0  0  0  0  0  0  0  0
  144.0983   75.2110  216.2088 H   0  0  0  0  0  0  0  0  0  0  0  0
  144.2355   75.2833  218.0448 H   0  0  0  0  0  0  0  0  0  0  0  0
  141.5790   74.9172  216.8101 H   0  0  0  0  0  0  0  0  0  0  0  0
  142.7611   73.5328  216.8661 H   0  0  0  0  0  0  0  0  0  0  0  0
  141.4196   73.3703  218.8204 H   0  0  0  0  0  0  0  0  0  0  0  0
  145.8383   71.9305  220.2014 H   0  0  0  0  0  0  0  0  0  0  0  0
  145.5322   74.0014  221.9196 H   0  0  0  0  0  0  0  0  0  0  0  0
  143.4410   75.2760  221.0990 H   0  0  0  0  0  0  0  0  0  0  0  0
  139.1928   70.2089  221.8832 H   0  0  0  0  0  0  0  0  0  0  0  0
  139.1483   68.5535  223.7550 H   0  0  0  0  0  0  0  0  0  0  0  0
  139.6090   68.0480  225.9855 H   0  0  0  0  0  0  0  0  0  0  0  0
  141.3580   70.9936  228.5514 H   0  0  0  0  0  0  0  0  0  0  0  0
  141.4093   72.6550  226.7049 H   0  0  0  0  0  0  0  0  0  0  0  0
  1  2  2  0
  2  3  1  0
  3  4  1  0
  4  5  1  0
  5  6  2  0
  5  7  1  0
  7  8  1  0
  8  9  1  0
  9 10  1  0
 10 11  1  0
 11 12  1  0
 12 13  1  0
 13 14  1  0
 14 15  2  0
 15 16  1  0
 16 17  2  0
 17 18  1  0
  2 19  1  0
 19 20  2  0
 20 21  1  0
 21 22  2  0
 22 23  1  0
 23 24  2  0
 24 25  1  0
 24 26  1  0
 26 27  2  0
 27 28  1  0
 28 29  2  0
 13  7  1  0
 18 14  1  0
 29 19  1  0
 28 22  1  0
  3 30  1  0
  4 31  1  0
  4 32  1  0
  8 33  1  0
  8 34  1  0
  9 35  1  0
  9 36  1  0
 10 37  1  0
 10 38  1  0
 11 39  1  0
 11 40  1  0
 12 41  1  0
 12 42  1  0
 13 43  1  6
 16 44  1  0
 17 45  1  0
 18 46  1  0
 20 47  1  0
 21 48  1  0
 23 49  1  0
 26 50  1  0
 27 51  1  0
M  END
>  <smiles>  (20) 
O=C(NCC(=O)N1CCCCC[C@H]1c1ncc[nH]1)c1ccc2cc(Cl)ccc2n1

>  <score_type>  (20) 
oracle

>  <origin>  (20) 
autodockgpu

>  <m_score__min__energy>  (20) 
-6.0300000000000002

>  <m_primary>  (20) 
energy

>  <rmsd>  (20) 
3.33801700791612

>  <m_score__min__rmsd>  (20) 
3.33801700791612

>  <meeko>  (20) 
{"free_energy": -4.7, "intermolecular_energy": -7.98, "internal_energy": -2.55, "cluster_size": 5, "cluster_id": 6, "rank_in_cluster": 4}

>  <energy>  (20) 
-5.51

>  <cluster_rmsd>  (20) 
0.0

>  <cluster>  (20) 
5

$$$$

     RDKit          3D

 51 54  0  0  0  0  0  0  0  0999 V2000
  139.0060   75.2360  222.6640 O   0  0  0  0  0  0  0  0  0  0  0  0
  139.9490   75.5510  221.8930 C   0  0  0  0  0  0  0  0  0  0  0  0
  139.9970   76.9160  221.4740 N   0  0  0  0  0  0  0  0  0  0  0  0
  138.9330   77.7760  222.0030 C   0  0  0  0  0  0  0  0  0  0  0  0
  138.9390   79.0230  221.1850 C   0  0  0  0  0  0  0  0  0  0  0  0
  138.0860   79.1640  220.2630 O   0  0  0  0  0  0  0  0  0  0  0  0
  139.9080   80.0290  221.4630 N   0  0  0  0  0  0  0  0  0  0  0  0
  139.7880   80.7580  222.7250 C   0  0  0  0  0  0  0  0  0  0  0  0
  140.5850   80.0500  223.8180 C   0  0  0  0  0  0  0  0  0  0  0  0
  142.0630   80.3000  223.6110 C   0  0  0  0  0  0  0  0  0  0  0  0
  142.5760   79.8260  222.2890 C   0  0  0  0  0  0  0  0  0  0  0  0
  142.2050   80.6770  221.1200 C   0  0  0  0  0  0  0  0  0  0  0  0
  140.9250   80.2280  220.4540 C   0  0  1  0  0  0  0  0  0  0  0  0
  141.1400   79.0470  219.6130 C   0  0  0  0  0  0  0  0  0  0  0  0
  142.2520   78.2960  219.6080 N   0  0  0  0  0  0  0  0  0  0  0  0
  142.1300   77.3000  218.7340 C   0  0  0  0  0  0  0  0  0  0  0  0
  140.8770   77.4110  218.1430 C   0  0  0  0  0  0  0  0  0  0  0  0
  140.3160   78.4930  218.7150 N   0  0  0  0  0  0  0  0  0  0  0  0
  140.9530   74.5930  221.4370 C   0  0  0  0  0  0  0  0  0  0  0  0
  140.6410   73.2440  221.5410 C   0  0  0  0  0  0  0  0  0  0  0  0
  141.5240   72.2560  221.1360 C   0  0  0  0  0  0  0  0  0  0  0  0
  142.7300   72.6780  220.6240 C   0  0  0  0  0  0  0  0  0  0  0  0
  143.6130   71.6960  220.2180 C   0  0  0  0  0  0  0  0  0  0  0  0
  144.8360   72.0740  219.6960 C   0  0  0  0  0  0  0  0  0  0  0  0
  145.9270   70.8120  219.1960 Cl  0  0  0  0  0  0  0  0  0  0  0  0
  145.1330   73.4110  219.5990 C   0  0  0  0  0  0  0  0  0  0  0  0
  144.2520   74.4120  220.0030 C   0  0  0  0  0  0  0  0  0  0  0  0
  143.0280   74.0310  220.5240 C   0  0  0  0  0  0  0  0  0  0  0  0
  142.1460   74.9790  220.9280 N   0  0  0  0  0  0  0  0  0  0  0  0
  140.7410   77.2750  220.8360 H   0  0  0  0  0  0  0  0  0  0  0  0
  137.9597   77.2709  221.9160 H   0  0  0  0  0  0  0  0  0  0  0  0
  139.1003   78.0013  223.0666 H   0  0  0  0  0  0  0  0  0  0  0  0
  140.1772   81.7785  222.5941 H   0  0  0  0  0  0  0  0  0  0  0  0
  138.7288   80.7962  223.0193 H   0  0  0  0  0  0  0  0  0  0  0  0
  140.2823   80.4382  224.8017 H   0  0  0  0  0  0  0  0  0  0  0  0
  140.3874   78.9689  223.7722 H   0  0  0  0  0  0  0  0  0  0  0  0
  142.2455   81.3822  223.6860 H   0  0  0  0  0  0  0  0  0  0  0  0
  142.5960   79.7284  224.3850 H   0  0  0  0  0  0  0  0  0  0  0  0
  143.6738   79.7850  222.3450 H   0  0  0  0  0  0  0  0  0  0  0  0
  142.1075   78.8463  222.1137 H   0  0  0  0  0  0  0  0  0  0  0  0
  142.0769   81.7133  221.4658 H   0  0  0  0  0  0  0  0  0  0  0  0
  143.0127   80.5924  220.3781 H   0  0  0  0  0  0  0  0  0  0  0  0
  140.5722   81.0126  219.7685 H   0  0  0  0  0  0  0  0  0  0  0  0
  142.8841   76.5287  218.5184 H   0  0  0  0  0  0  0  0  0  0  0  0
  140.4388   76.7569  217.3748 H   0  0  0  0  0  0  0  0  0  0  0  0
  139.3570   78.8310  218.4680 H   0  0  0  0  0  0  0  0  0  0  0  0
  139.6655   72.9515  221.9566 H   0  0  0  0  0  0  0  0  0  0  0  0
  141.2738   71.1881  221.2195 H   0  0  0  0  0  0  0  0  0  0  0  0
  143.3476   70.6323  220.3085 H   0  0  0  0  0  0  0  0  0  0  0  0
  146.1087   73.7046  219.1844 H   0  0  0  0  0  0  0  0  0  0  0  0
  144.5217   75.4744  219.9105 H   0  0  0  0  0  0  0  0  0  0  0  0
  1  2  2  0
  2  3  1  0
  3  4  1  0
  4  5  1  0
  5  6  2  0
  5  7  1  0
  7  8  1  0
  8  9  1  0
  9 10  1  0
 10 11  1  0
 11 12  1  0
 12 13  1  0
 13 14  1  0
 14 15  2  0
 15 16  1  0
 16 17  2  0
 17 18  1  0
  2 19  1  0
 19 20  2  0
 20 21  1  0
 21 22  2  0
 22 23  1  0
 23 24  2  0
 24 25  1  0
 24 26  1  0
 26 27  2  0
 27 28  1  0
 28 29  2  0
 13  7  1  0
 18 14  1  0
 29 19  1  0
 28 22  1  0
  3 30  1  0
  4 31  1  0
  4 32  1  0
  8 33  1  0
  8 34  1  0
  9 35  1  0
  9 36  1  0
 10 37  1  0
 10 38  1  0
 11 39  1  0
 11 40  1  0
 12 41  1  0
 12 42  1  0
 13 43  1  6
 16 44  1  0
 17 45  1  0
 18 46  1  0
 20 47  1  0
 21 48  1  0
 23 49  1  0
 26 50  1  0
 27 51  1  0
M  END
>  <smiles>  (21) 
O=C(NCC(=O)N1CCCCC[C@H]1c1ncc[nH]1)c1ccc2cc(Cl)ccc2n1

>  <score_type>  (21) 
oracle

>  <origin>  (21) 
autodockgpu

>  <m_score__min__energy>  (21) 
-6.0300000000000002

>  <m_primary>  (21) 
energy

>  <rmsd>  (21) 
6.2625154098521625

>  <m_score__min__rmsd>  (21) 
6.2625154098521625

>  <meeko>  (21) 
{"free_energy": -3.57, "intermolecular_energy": -6.85, "internal_energy": -3.49, "cluster_size": 3, "cluster_id": 8, "rank_in_cluster": 3}

>  <energy>  (21) 
-4.58

>  <cluster_rmsd>  (21) 
1.75

>  <cluster>  (21) 
5

$$$$

     RDKit          3D

 51 54  0  0  0  0  0  0  0  0999 V2000
  140.1900   72.3520  220.8500 O   0  0  0  0  0  0  0  0  0  0  0  0
  139.9700   72.7340  222.0290 C   0  0  0  0  0  0  0  0  0  0  0  0
  139.6870   74.1230  222.2040 N   0  0  0  0  0  0  0  0  0  0  0  0
  139.6880   74.9270  220.9760 C   0  0  0  0  0  0  0  0  0  0  0  0
  139.9430   76.3370  221.3840 C   0  0  0  0  0  0  0  0  0  0  0  0
  139.8750   76.6530  222.6060 O   0  0  0  0  0  0  0  0  0  0  0  0
  140.2600   77.3010  220.3830 N   0  0  0  0  0  0  0  0  0  0  0  0
  139.3030   77.4890  219.2930 C   0  0  0  0  0  0  0  0  0  0  0  0
  139.8130   76.8110  218.0240 C   0  0  0  0  0  0  0  0  0  0  0  0
  141.3260   76.7990  218.0290 C   0  0  0  0  0  0  0  0  0  0  0  0
  141.9400   78.1610  218.0860 C   0  0  0  0  0  0  0  0  0  0  0  0
  141.7360   78.9130  219.3640 C   0  0  0  0  0  0  0  0  0  0  0  0
  141.5130   78.0020  220.5500 C   0  0  1  0  0  0  0  0  0  0  0  0
  141.5980   78.7360  221.8160 C   0  0  0  0  0  0  0  0  0  0  0  0
  141.5500   80.0700  221.9400 N   0  0  0  0  0  0  0  0  0  0  0  0
  141.6530   80.4180  223.2200 C   0  0  0  0  0  0  0  0  0  0  0  0
  141.7750   79.2510  223.9630 C   0  0  0  0  0  0  0  0  0  0  0  0
  141.7360   78.2550  223.0580 N   0  0  0  0  0  0  0  0  0  0  0  0
  139.9980   71.8270  223.1740 C   0  0  0  0  0  0  0  0  0  0  0  0
  139.5000   70.5450  222.9830 C   0  0  0  0  0  0  0  0  0  0  0  0
  139.4800   69.6090  224.0050 C   0  0  0  0  0  0  0  0  0  0  0  0
  139.9810   70.0130  225.2220 C   0  0  0  0  0  0  0  0  0  0  0  0
  139.9640   69.0830  226.2440 C   0  0  0  0  0  0  0  0  0  0  0  0
  140.4580   69.4450  227.4830 C   0  0  0  0  0  0  0  0  0  0  0  0
  140.4210   68.2500  228.7490 Cl  0  0  0  0  0  0  0  0  0  0  0  0
  140.9470   70.7160  227.6580 C   0  0  0  0  0  0  0  0  0  0  0  0
  140.9710   71.6640  226.6380 C   0  0  0  0  0  0  0  0  0  0  0  0
  140.4770   71.2990  225.3970 C   0  0  0  0  0  0  0  0  0  0  0  0
  140.4840   72.1970  224.3810 N   0  0  0  0  0  0  0  0  0  0  0  0
  139.4900   74.5360  223.1420 H   0  0  0  0  0  0  0  0  0  0  0  0
  140.4809   74.5801  220.2970 H   0  0  0  0  0  0  0  0  0  0  0  0
  138.7288   74.8374  220.4451 H   0  0  0  0  0  0  0  0  0  0  0  0
  138.3362   77.0481  219.5776 H   0  0  0  0  0  0  0  0  0  0  0  0
  139.1819   78.5655  219.1021 H   0  0  0  0  0  0  0  0  0  0  0  0
  139.4387   75.7774  217.9852 H   0  0  0  0  0  0  0  0  0  0  0  0
  139.4546   77.3652  217.1440 H   0  0  0  0  0  0  0  0  0  0  0  0
  141.6654   76.2286  218.9062 H   0  0  0  0  0  0  0  0  0  0  0  0
  141.6459   76.3428  217.0806 H   0  0  0  0  0  0  0  0  0  0  0  0
  143.0230   78.0501  217.9285 H   0  0  0  0  0  0  0  0  0  0  0  0
  141.4335   78.7506  217.3076 H   0  0  0  0  0  0  0  0  0  0  0  0
  142.6274   79.5283  219.5560 H   0  0  0  0  0  0  0  0  0  0  0  0
  140.8328   79.5296  219.2452 H   0  0  0  0  0  0  0  0  0  0  0  0
  142.3159   77.2514  220.5940 H   0  0  0  0  0  0  0  0  0  0  0  0
  141.6433   81.4436  223.6175 H   0  0  0  0  0  0  0  0  0  0  0  0
  141.8806   79.1602  225.0541 H   0  0  0  0  0  0  0  0  0  0  0  0
  141.8050   77.2450  223.3240 H   0  0  0  0  0  0  0  0  0  0  0  0
  139.1106   70.2645  221.9932 H   0  0  0  0  0  0  0  0  0  0  0  0
  139.0837   68.5944  223.8515 H   0  0  0  0  0  0  0  0  0  0  0  0
  139.5643   68.0723  226.0744 H   0  0  0  0  0  0  0  0  0  0  0  0
  141.3369   70.9979  228.6472 H   0  0  0  0  0  0  0  0  0  0  0  0
  141.3709   72.6737  226.8132 H   0  0  0  0  0  0  0  0  0  0  0  0
  1  2  2  0
  2  3  1  0
  3  4  1  0
  4  5  1  0
  5  6  2  0
  5  7  1  0
  7  8  1  0
  8  9  1  0
  9 10  1  0
 10 11  1  0
 11 12  1  0
 12 13  1  0
 13 14  1  0
 14 15  2  0
 15 16  1  0
 16 17  2  0
 17 18  1  0
  2 19  1  0
 19 20  2  0
 20 21  1  0
 21 22  2  0
 22 23  1  0
 23 24  2  0
 24 25  1  0
 24 26  1  0
 26 27  2  0
 27 28  1  0
 28 29  2  0
 13  7  1  0
 18 14  1  0
 29 19  1  0
 28 22  1  0
  3 30  1  0
  4 31  1  0
  4 32  1  0
  8 33  1  0
  8 34  1  0
  9 35  1  0
  9 36  1  0
 10 37  1  0
 10 38  1  0
 11 39  1  0
 11 40  1  0
 12 41  1  0
 12 42  1  0
 13 43  1  1
 16 44  1  0
 17 45  1  0
 18 46  1  0
 20 47  1  0
 21 48  1  0
 23 49  1  0
 26 50  1  0
 27 51  1  0
M  END
>  <smiles>  (22) 
O=C(NCC(=O)N1CCCCC[C@H]1c1ncc[nH]1)c1ccc2cc(Cl)ccc2n1

>  <score_type>  (22) 
oracle

>  <origin>  (22) 
autodockgpu

>  <m_score__min__energy>  (22) 
-6.0300000000000002

>  <m_primary>  (22) 
energy

>  <rmsd>  (22) 
1.8117224464327857

>  <m_score__min__rmsd>  (22) 
1.8117224464327857

>  <meeko>  (22) 
{"free_energy": -4.67, "intermolecular_energy": -7.96, "internal_energy": -2.47, "cluster_size": 5, "cluster_id": 1, "rank_in_cluster": 4}

>  <energy>  (22) 
-5.16

>  <cluster_rmsd>  (22) 
0.0

>  <cluster>  (22) 
6

$$$$

     RDKit          3D

 51 54  0  0  0  0  0  0  0  0999 V2000
  139.1670   77.3320  221.8040 O   0  0  0  0  0  0  0  0  0  0  0  0
  140.0230   77.5620  220.9110 C   0  0  0  0  0  0  0  0  0  0  0  0
  139.8380   78.7540  220.1450 N   0  0  0  0  0  0  0  0  0  0  0  0
  138.6650   79.5580  220.5040 C   0  0  0  0  0  0  0  0  0  0  0  0
  139.1680   80.9070  220.8900 C   0  0  0  0  0  0  0  0  0  0  0  0
  138.6130   81.9370  220.4120 O   0  0  0  0  0  0  0  0  0  0  0  0
  140.2670   81.0040  221.7930 N   0  0  0  0  0  0  0  0  0  0  0  0
  139.9830   80.8920  223.2230 C   0  0  0  0  0  0  0  0  0  0  0  0
  140.8360   79.7870  223.8410 C   0  0  0  0  0  0  0  0  0  0  0  0
  142.1960   80.3390  224.2070 C   0  0  0  0  0  0  0  0  0  0  0  0
  143.1090   80.5190  223.0360 C   0  0  0  0  0  0  0  0  0  0  0  0
  142.5230   80.1580  221.7120 C   0  0  0  0  0  0  0  0  0  0  0  0
  141.5660   81.2070  221.1910 C   0  0  1  0  0  0  0  0  0  0  0  0
  141.5270   81.2210  219.7270 C   0  0  0  0  0  0  0  0  0  0  0  0
  142.1880   80.3700  218.9290 N   0  0  0  0  0  0  0  0  0  0  0  0
  141.9420   80.6500  217.6510 C   0  0  0  0  0  0  0  0  0  0  0  0
  141.0780   81.7380  217.6200 C   0  0  0  0  0  0  0  0  0  0  0  0
  140.8580   82.0470  218.9120 N   0  0  0  0  0  0  0  0  0  0  0  0
  141.1550   76.6750  220.6510 C   0  0  0  0  0  0  0  0  0  0  0  0
  142.2590   77.2220  220.0090 C   0  0  0  0  0  0  0  0  0  0  0  0
  143.3830   76.4660  219.7160 C   0  0  0  0  0  0  0  0  0  0  0  0
  143.3530   75.1430  220.0940 C   0  0  0  0  0  0  0  0  0  0  0  0
  144.4710   74.3850  219.8050 C   0  0  0  0  0  0  0  0  0  0  0  0
  144.4850   73.0520  220.1670 C   0  0  0  0  0  0  0  0  0  0  0  0
  145.9100   72.1250  219.7870 Cl  0  0  0  0  0  0  0  0  0  0  0  0
  143.3880   72.5230  220.8010 C   0  0  0  0  0  0  0  0  0  0  0  0
  142.2530   73.2750  221.1000 C   0  0  0  0  0  0  0  0  0  0  0  0
  142.2420   74.6100  220.7370 C   0  0  0  0  0  0  0  0  0  0  0  0
  141.1540   75.3720  221.0120 N   0  0  0  0  0  0  0  0  0  0  0  0
  140.4950   79.0320  219.3830 H   0  0  0  0  0  0  0  0  0  0  0  0
  137.9844   79.6397  219.6437 H   0  0  0  0  0  0  0  0  0  0  0  0
  138.1069   79.0939  221.3305 H   0  0  0  0  0  0  0  0  0  0  0  0
  140.2130   81.8481  223.7158 H   0  0  0  0  0  0  0  0  0  0  0  0
  138.9197   80.6466  223.3613 H   0  0  0  0  0  0  0  0  0  0  0  0
  140.3405   79.4051  224.7458 H   0  0  0  0  0  0  0  0  0  0  0  0
  140.9573   78.9702  223.1143 H   0  0  0  0  0  0  0  0  0  0  0  0
  142.0548   81.3170  224.6904 H   0  0  0  0  0  0  0  0  0  0  0  0
  142.6711   79.6046  224.8741 H   0  0  0  0  0  0  0  0  0  0  0  0
  143.4095   81.5765  222.9982 H   0  0  0  0  0  0  0  0  0  0  0  0
  143.9502   79.8285  223.1959 H   0  0  0  0  0  0  0  0  0  0  0  0
  143.3409   80.0367  220.9866 H   0  0  0  0  0  0  0  0  0  0  0  0
  141.9541   79.2258  221.8438 H   0  0  0  0  0  0  0  0  0  0  0  0
  141.9205   82.2072  221.4807 H   0  0  0  0  0  0  0  0  0  0  0  0
  142.3485   80.1173  216.7786 H   0  0  0  0  0  0  0  0  0  0  0  0
  140.6636   82.2384  216.7323 H   0  0  0  0  0  0  0  0  0  0  0  0
  140.2370   82.8350  219.2080 H   0  0  0  0  0  0  0  0  0  0  0  0
  142.2405   78.2846  219.7254 H   0  0  0  0  0  0  0  0  0  0  0  0
  144.2554   76.9016  219.2068 H   0  0  0  0  0  0  0  0  0  0  0  0
  145.3355   74.8352  219.2952 H   0  0  0  0  0  0  0  0  0  0  0  0
  143.4055   71.4605  221.0851 H   0  0  0  0  0  0  0  0  0  0  0  0
  141.3910   72.8201  221.6099 H   0  0  0  0  0  0  0  0  0  0  0  0
  1  2  2  0
  2  3  1  0
  3  4  1  0
  4  5  1  0
  5  6  2  0
  5  7  1  0
  7  8  1  0
  8  9  1  0
  9 10  1  0
 10 11  1  0
 11 12  1  0
 12 13  1  0
 13 14  1  0
 14 15  2  0
 15 16  1  0
 16 17  2  0
 17 18  1  0
  2 19  1  0
 19 20  2  0
 20 21  1  0
 21 22  2  0
 22 23  1  0
 23 24  2  0
 24 25  1  0
 24 26  1  0
 26 27  2  0
 27 28  1  0
 28 29  2  0
 13  7  1  0
 18 14  1  0
 29 19  1  0
 28 22  1  0
  3 30  1  0
  4 31  1  0
  4 32  1  0
  8 33  1  0
  8 34  1  0
  9 35  1  0
  9 36  1  0
 10 37  1  0
 10 38  1  0
 11 39  1  0
 11 40  1  0
 12 41  1  0
 12 42  1  0
 13 43  1  1
 16 44  1  0
 17 45  1  0
 18 46  1  0
 20 47  1  0
 21 48  1  0
 23 49  1  0
 26 50  1  0
 27 51  1  0
M  END
>  <smiles>  (23) 
O=C(NCC(=O)N1CCCCC[C@H]1c1ncc[nH]1)c1ccc2cc(Cl)ccc2n1

>  <score_type>  (23) 
oracle

>  <origin>  (23) 
autodockgpu

>  <m_score__min__energy>  (23) 
-6.0300000000000002

>  <m_primary>  (23) 
energy

>  <rmsd>  (23) 
7.352348743550745

>  <m_score__min__rmsd>  (23) 
7.352348743550745

>  <meeko>  (23) 
{"free_energy": -3.94, "intermolecular_energy": -7.23, "internal_energy": -3.48, "cluster_size": 3, "cluster_id": 16, "rank_in_cluster": 2}

>  <energy>  (23) 
-4.96

>  <cluster_rmsd>  (23) 
0.11

>  <cluster>  (23) 
6

$$$$

     RDKit          3D

 51 54  0  0  0  0  0  0  0  0999 V2000
  141.8490   72.2660  221.2240 O   0  0  0  0  0  0  0  0  0  0  0  0
  141.1280   73.1130  221.8110 C   0  0  0  0  0  0  0  0  0  0  0  0
  140.1980   72.6030  222.7680 N   0  0  0  0  0  0  0  0  0  0  0  0
  140.2090   71.1460  222.9420 C   0  0  0  0  0  0  0  0  0  0  0  0
  139.5430   70.8620  224.2450 C   0  0  0  0  0  0  0  0  0  0  0  0
  138.4400   71.4190  224.5130 O   0  0  0  0  0  0  0  0  0  0  0  0
  140.1670   69.9670  225.1610 N   0  0  0  0  0  0  0  0  0  0  0  0
  141.0600   70.5390  226.1690 C   0  0  0  0  0  0  0  0  0  0  0  0
  140.3420   70.6340  227.5120 C   0  0  0  0  0  0  0  0  0  0  0  0
  140.4600   69.3150  228.2460 C   0  0  0  0  0  0  0  0  0  0  0  0
  140.6050   68.1330  227.3410 C   0  0  0  0  0  0  0  0  0  0  0  0
  139.5100   67.9720  226.3460 C   0  0  0  0  0  0  0  0  0  0  0  0
  139.8480   68.5660  224.9970 C   0  0  1  0  0  0  0  0  0  0  0  0
  138.7810   68.3290  224.0210 C   0  0  0  0  0  0  0  0  0  0  0  0
  138.8460   67.4550  223.0050 N   0  0  0  0  0  0  0  0  0  0  0  0
  137.7150   67.4800  222.3040 C   0  0  0  0  0  0  0  0  0  0  0  0
  136.8760   68.4160  222.8950 C   0  0  0  0  0  0  0  0  0  0  0  0
  137.5760   68.9040  223.9370 N   0  0  0  0  0  0  0  0  0  0  0  0
  141.2160   74.5480  221.5460 C   0  0  0  0  0  0  0  0  0  0  0  0
  141.9780   74.9490  220.4560 C   0  0  0  0  0  0  0  0  0  0  0  0
  142.1250   76.2860  220.1200 C   0  0  0  0  0  0  0  0  0  0  0  0
  141.4770   77.1990  220.9200 C   0  0  0  0  0  0  0  0  0  0  0  0
  141.6200   78.5320  220.5890 C   0  0  0  0  0  0  0  0  0  0  0  0
  140.9870   79.4840  221.3650 C   0  0  0  0  0  0  0  0  0  0  0  0
  141.1890   81.1560  220.9200 Cl  0  0  0  0  0  0  0  0  0  0  0  0
  140.2370   79.0740  222.4400 C   0  0  0  0  0  0  0  0  0  0  0  0
  140.0820   77.7330  222.7860 C   0  0  0  0  0  0  0  0  0  0  0  0
  140.7170   76.7820  222.0070 C   0  0  0  0  0  0  0  0  0  0  0  0
  140.5890   75.4670  222.3150 N   0  0  0  0  0  0  0  0  0  0  0  0
  139.5570   73.2260  223.3070 H   0  0  0  0  0  0  0  0  0  0  0  0
  139.6578   70.6627  222.1219 H   0  0  0  0  0  0  0  0  0  0  0  0
  141.2372   70.7553  222.9313 H   0  0  0  0  0  0  0  0  0  0  0  0
  141.9471   69.8974  226.2753 H   0  0  0  0  0  0  0  0  0  0  0  0
  141.3634   71.5473  225.8508 H   0  0  0  0  0  0  0  0  0  0  0  0
  140.7996   71.4313  228.1161 H   0  0  0  0  0  0  0  0  0  0  0  0
  139.2797   70.8638  227.3426 H   0  0  0  0  0  0  0  0  0  0  0  0
  141.3421   69.3604  228.9017 H   0  0  0  0  0  0  0  0  0  0  0  0
  139.5250   69.1759  228.8085 H   0  0  0  0  0  0  0  0  0  0  0  0
  141.5532   68.2356  226.7930 H   0  0  0  0  0  0  0  0  0  0  0  0
  140.5713   67.2426  227.9860 H   0  0  0  0  0  0  0  0  0  0  0  0
  139.3089   66.8984  226.2162 H   0  0  0  0  0  0  0  0  0  0  0  0
  138.6315   68.5095  226.7324 H   0  0  0  0  0  0  0  0  0  0  0  0
  140.7354   68.0632  224.5850 H   0  0  0  0  0  0  0  0  0  0  0  0
  137.4862   66.8702  221.4176 H   0  0  0  0  0  0  0  0  0  0  0  0
  135.8603   68.6976  222.5803 H   0  0  0  0  0  0  0  0  0  0  0  0
  137.1970   69.6370  224.5800 H   0  0  0  0  0  0  0  0  0  0  0  0
  142.4783   74.1850  219.8428 H   0  0  0  0  0  0  0  0  0  0  0  0
  142.7296   76.6013  219.2568 H   0  0  0  0  0  0  0  0  0  0  0  0
  142.2276   78.8309  219.7221 H   0  0  0  0  0  0  0  0  0  0  0  0
  139.7370   79.8372  223.0545 H   0  0  0  0  0  0  0  0  0  0  0  0
  139.4725   77.4391  223.6532 H   0  0  0  0  0  0  0  0  0  0  0  0
  1  2  2  0
  2  3  1  0
  3  4  1  0
  4  5  1  0
  5  6  2  0
  5  7  1  0
  7  8  1  0
  8  9  1  0
  9 10  1  0
 10 11  1  0
 11 12  1  0
 12 13  1  0
 13 14  1  0
 14 15  2  0
 15 16  1  0
 16 17  2  0
 17 18  1  0
  2 19  1  0
 19 20  2  0
 20 21  1  0
 21 22  2  0
 22 23  1  0
 23 24  2  0
 24 25  1  0
 24 26  1  0
 26 27  2  0
 27 28  1  0
 28 29  2  0
 13  7  1  0
 18 14  1  0
 29 19  1  0
 28 22  1  0
  3 30  1  0
  4 31  1  0
  4 32  1  0
  8 33  1  0
  8 34  1  0
  9 35  1  0
  9 36  1  0
 10 37  1  0
 10 38  1  0
 11 39  1  0
 11 40  1  0
 12 41  1  0
 12 42  1  0
 13 43  1  6
 16 44  1  0
 17 45  1  0
 18 46  1  0
 20 47  1  0
 21 48  1  0
 23 49  1  0
 26 50  1  0
 27 51  1  0
M  END
>  <smiles>  (24) 
O=C(NCC(=O)N1CCCCC[C@H]1c1ncc[nH]1)c1ccc2cc(Cl)ccc2n1

>  <score_type>  (24) 
oracle

>  <origin>  (24) 
autodockgpu

>  <m_score__min__energy>  (24) 
-6.0300000000000002

>  <m_primary>  (24) 
energy

>  <rmsd>  (24) 
9.389028354803049

>  <m_score__min__rmsd>  (24) 
9.389028354803049

>  <meeko>  (24) 
{"free_energy": -4.93, "intermolecular_energy": -8.21, "internal_energy": -2.41, "cluster_size": 5, "cluster_id": 4, "rank_in_cluster": 5}

>  <energy>  (24) 
-4.92

>  <cluster_rmsd>  (24) 
0.23

>  <cluster>  (24) 
6

$$$$

     RDKit          3D

 51 54  0  0  0  0  0  0  0  0999 V2000
  139.5040   71.7270  220.9730 O   0  0  0  0  0  0  0  0  0  0  0  0
  139.5970   72.1940  222.1380 C   0  0  0  0  0  0  0  0  0  0  0  0
  139.5000   73.6140  222.2630 N   0  0  0  0  0  0  0  0  0  0  0  0
  139.3000   74.3450  221.0070 C   0  0  0  0  0  0  0  0  0  0  0  0
  139.9230   75.6880  221.1860 C   0  0  0  0  0  0  0  0  0  0  0  0
  140.4110   76.0010  222.3080 O   0  0  0  0  0  0  0  0  0  0  0  0
  139.9530   76.5890  220.0820 N   0  0  0  0  0  0  0  0  0  0  0  0
  138.8700   77.5660  219.9720 C   0  0  0  0  0  0  0  0  0  0  0  0
  139.4460   78.9730  219.8340 C   0  0  0  0  0  0  0  0  0  0  0  0
  140.5980   79.1480  220.7990 C   0  0  0  0  0  0  0  0  0  0  0  0
  141.8700   78.5090  220.3420 C   0  0  0  0  0  0  0  0  0  0  0  0
  141.7850   77.7670  219.0470 C   0  0  0  0  0  0  0  0  0  0  0  0
  141.0680   76.4420  219.1730 C   0  0  1  0  0  0  0  0  0  0  0  0
  141.9860   75.3660  219.5560 C   0  0  0  0  0  0  0  0  0  0  0  0
  142.4100   74.3870  218.7430 N   0  0  0  0  0  0  0  0  0  0  0  0
  143.2340   73.5710  219.3950 C   0  0  0  0  0  0  0  0  0  0  0  0
  143.3500   74.0450  220.6960 C   0  0  0  0  0  0  0  0  0  0  0  0
  142.5680   75.1400  220.7400 N   0  0  0  0  0  0  0  0  0  0  0  0
  139.7960   71.3520  223.3160 C   0  0  0  0  0  0  0  0  0  0  0  0
  139.4320   70.0160  223.2120 C   0  0  0  0  0  0  0  0  0  0  0  0
  139.5790   69.1340  224.2710 C   0  0  0  0  0  0  0  0  0  0  0  0
  140.1070   69.6480  225.4340 C   0  0  0  0  0  0  0  0  0  0  0  0
  140.2560   68.7730  226.4920 C   0  0  0  0  0  0  0  0  0  0  0  0
  140.7830   69.2460  227.6800 C   0  0  0  0  0  0  0  0  0  0  0  0
  140.9570   68.1170  228.9940 Cl  0  0  0  0  0  0  0  0  0  0  0  0
  141.1380   70.5690  227.7690 C   0  0  0  0  0  0  0  0  0  0  0  0
  140.9940   71.4640  226.7100 C   0  0  0  0  0  0  0  0  0  0  0  0
  140.4670   70.9880  225.5220 C   0  0  0  0  0  0  0  0  0  0  0  0
  140.3120   71.8300  224.4710 N   0  0  0  0  0  0  0  0  0  0  0  0
  139.5640   74.0960  223.1870 H   0  0  0  0  0  0  0  0  0  0  0  0
  139.7844   73.8105  220.1766 H   0  0  0  0  0  0  0  0  0  0  0  0
  138.2299   74.4350  220.7689 H   0  0  0  0  0  0  0  0  0  0  0  0
  138.2593   77.3343  219.0869 H   0  0  0  0  0  0  0  0  0  0  0  0
  138.2482   77.5184  220.8782 H   0  0  0  0  0  0  0  0  0  0  0  0
  139.8049   79.1221  218.8049 H   0  0  0  0  0  0  0  0  0  0  0  0
  138.6634   79.7116  220.0623 H   0  0  0  0  0  0  0  0  0  0  0  0
  140.7789   80.2249  220.9315 H   0  0  0  0  0  0  0  0  0  0  0  0
  140.3087   78.6513  221.7369 H   0  0  0  0  0  0  0  0  0  0  0  0
  142.6264   79.2999  220.2311 H   0  0  0  0  0  0  0  0  0  0  0  0
  142.1239   77.7588  221.1053 H   0  0  0  0  0  0  0  0  0  0  0  0
  141.2442   78.3908  218.3201 H   0  0  0  0  0  0  0  0  0  0  0  0
  142.8138   77.5554  218.7202 H   0  0  0  0  0  0  0  0  0  0  0  0
  140.6672   76.1457  218.1924 H   0  0  0  0  0  0  0  0  0  0  0  0
  143.7327   72.6828  218.9798 H   0  0  0  0  0  0  0  0  0  0  0  0
  143.9505   73.6181  221.5128 H   0  0  0  0  0  0  0  0  0  0  0  0
  142.4530   75.7190  221.6040 H   0  0  0  0  0  0  0  0  0  0  0  0
  139.0155   69.6475  222.2629 H   0  0  0  0  0  0  0  0  0  0  0  0
  139.2884   68.0765  224.1865 H   0  0  0  0  0  0  0  0  0  0  0  0
  139.9607   67.7182  226.3916 H   0  0  0  0  0  0  0  0  0  0  0  0
  141.5543   70.9391  228.7175 H   0  0  0  0  0  0  0  0  0  0  0  0
  141.2906   72.5180  226.8155 H   0  0  0  0  0  0  0  0  0  0  0  0
  1  2  2  0
  2  3  1  0
  3  4  1  0
  4  5  1  0
  5  6  2  0
  5  7  1  0
  7  8  1  0
  8  9  1  0
  9 10  1  0
 10 11  1  0
 11 12  1  0
 12 13  1  0
 13 14  1  0
 14 15  2  0
 15 16  1  0
 16 17  2  0
 17 18  1  0
  2 19  1  0
 19 20  2  0
 20 21  1  0
 21 22  2  0
 22 23  1  0
 23 24  2  0
 24 25  1  0
 24 26  1  0
 26 27  2  0
 27 28  1  0
 28 29  2  0
 13  7  1  0
 18 14  1  0
 29 19  1  0
 28 22  1  0
  3 30  1  0
  4 31  1  0
  4 32  1  0
  8 33  1  0
  8 34  1  0
  9 35  1  0
  9 36  1  0
 10 37  1  0
 10 38  1  0
 11 39  1  0
 11 40  1  0
 12 41  1  0
 12 42  1  0
 13 43  1  6
 16 44  1  0
 17 45  1  0
 18 46  1  0
 20 47  1  0
 21 48  1  0
 23 49  1  0
 26 50  1  0
 27 51  1  0
M  END
>  <smiles>  (25) 
O=C(NCC(=O)N1CCCCC[C@H]1c1ncc[nH]1)c1ccc2cc(Cl)ccc2n1

>  <score_type>  (25) 
oracle

>  <origin>  (25) 
autodockgpu

>  <m_score__min__energy>  (25) 
-6.0300000000000002

>  <m_primary>  (25) 
energy

>  <rmsd>  (25) 
2.954097321795912

>  <m_score__min__rmsd>  (25) 
2.954097321795912

>  <meeko>  (25) 
{"free_energy": -4.77, "intermolecular_energy": -8.05, "internal_energy": -2.83, "cluster_size": 6, "cluster_id": 3, "rank_in_cluster": 5}

>  <energy>  (25) 
-4.7

>  <cluster_rmsd>  (25) 
1.45

>  <cluster>  (25) 
6

$$$$

     RDKit          3D

 51 54  0  0  0  0  0  0  0  0999 V2000
  137.3020   78.6470  221.1670 O   0  0  0  0  0  0  0  0  0  0  0  0
  137.6780   79.6320  221.8540 C   0  0  0  0  0  0  0  0  0  0  0  0
  138.7800   80.3810  221.3410 N   0  0  0  0  0  0  0  0  0  0  0  0
  139.3320   79.9000  220.0700 C   0  0  0  0  0  0  0  0  0  0  0  0
  140.2950   78.8120  220.4020 C   0  0  0  0  0  0  0  0  0  0  0  0
  140.2050   77.7010  219.8060 O   0  0  0  0  0  0  0  0  0  0  0  0
  141.2970   79.0500  221.3860 N   0  0  0  0  0  0  0  0  0  0  0  0
  142.2120   80.1700  221.1680 C   0  0  0  0  0  0  0  0  0  0  0  0
  141.5600   81.4750  221.6200 C   0  0  0  0  0  0  0  0  0  0  0  0
  141.1220   81.3500  223.0630 C   0  0  0  0  0  0  0  0  0  0  0  0
  141.7910   80.2350  223.8020 C   0  0  0  0  0  0  0  0  0  0  0  0
  141.0630   78.9330  223.7830 C   0  0  0  0  0  0  0  0  0  0  0  0
  141.3060   78.1460  222.5150 C   0  0  1  0  0  0  0  0  0  0  0  0
  140.3550   77.0410  222.3750 C   0  0  0  0  0  0  0  0  0  0  0  0
  140.6740   75.7890  222.0140 N   0  0  0  0  0  0  0  0  0  0  0  0
  139.5830   75.0270  221.9810 C   0  0  0  0  0  0  0  0  0  0  0  0
  138.5040   75.8250  222.3390 C   0  0  0  0  0  0  0  0  0  0  0  0
  139.0300   77.0430  222.5680 N   0  0  0  0  0  0  0  0  0  0  0  0
  137.0380   80.0090  223.1130 C   0  0  0  0  0  0  0  0  0  0  0  0
  135.7720   79.4970  223.3630 C   0  0  0  0  0  0  0  0  0  0  0  0
  135.0800   79.7950  224.5270 C   0  0  0  0  0  0  0  0  0  0  0  0
  135.7110   80.6250  225.4250 C   0  0  0  0  0  0  0  0  0  0  0  0
  135.0250   80.9240  226.5870 C   0  0  0  0  0  0  0  0  0  0  0  0
  135.6210   81.7540  227.5180 C   0  0  0  0  0  0  0  0  0  0  0  0
  134.7290   82.1110  228.9700 Cl  0  0  0  0  0  0  0  0  0  0  0  0
  136.8730   82.2530  227.2580 C   0  0  0  0  0  0  0  0  0  0  0  0
  137.5770   81.9600  226.0920 C   0  0  0  0  0  0  0  0  0  0  0  0
  136.9790   81.1290  225.1610 C   0  0  0  0  0  0  0  0  0  0  0  0
  137.6350   80.8220  224.0140 N   0  0  0  0  0  0  0  0  0  0  0  0
  139.1640   81.2150  221.8380 H   0  0  0  0  0  0  0  0  0  0  0  0
  138.5262   79.5102  219.4307 H   0  0  0  0  0  0  0  0  0  0  0  0
  139.8301   80.7142  219.5232 H   0  0  0  0  0  0  0  0  0  0  0  0
  143.1337   80.0046  221.7452 H   0  0  0  0  0  0  0  0  0  0  0  0
  142.4493   80.2381  220.0961 H   0  0  0  0  0  0  0  0  0  0  0  0
  142.2844   82.2976  221.5272 H   0  0  0  0  0  0  0  0  0  0  0  0
  140.6836   81.6834  220.9888 H   0  0  0  0  0  0  0  0  0  0  0  0
  141.3514   82.2944  223.5782 H   0  0  0  0  0  0  0  0  0  0  0  0
  140.0449   81.1270  223.0529 H   0  0  0  0  0  0  0  0  0  0  0  0
  142.7830   80.0767  223.3537 H   0  0  0  0  0  0  0  0  0  0  0  0
  141.8296   80.5475  224.8560 H   0  0  0  0  0  0  0  0  0  0  0  0
  141.3974   78.3305  224.6404 H   0  0  0  0  0  0  0  0  0  0  0  0
  139.9867   79.1538  223.8354 H   0  0  0  0  0  0  0  0  0  0  0  0
  142.2972   77.6712  222.5606 H   0  0  0  0  0  0  0  0  0  0  0  0
  139.5432   73.9596  221.7181 H   0  0  0  0  0  0  0  0  0  0  0  0
  137.4483   75.5265  222.4183 H   0  0  0  0  0  0  0  0  0  0  0  0
  138.4510   77.8640  222.8600 H   0  0  0  0  0  0  0  0  0  0  0  0
  135.3051   78.8368  222.6172 H   0  0  0  0  0  0  0  0  0  0  0  0
  134.0769   79.3883  224.7227 H   0  0  0  0  0  0  0  0  0  0  0  0
  134.0225   80.5089  226.7678 H   0  0  0  0  0  0  0  0  0  0  0  0
  137.3411   82.9132  228.0030 H   0  0  0  0  0  0  0  0  0  0  0  0
  138.5795   82.3773  225.9165 H   0  0  0  0  0  0  0  0  0  0  0  0
  1  2  2  0
  2  3  1  0
  3  4  1  0
  4  5  1  0
  5  6  2  0
  5  7  1  0
  7  8  1  0
  8  9  1  0
  9 10  1  0
 10 11  1  0
 11 12  1  0
 12 13  1  0
 13 14  1  0
 14 15  2  0
 15 16  1  0
 16 17  2  0
 17 18  1  0
  2 19  1  0
 19 20  2  0
 20 21  1  0
 21 22  2  0
 22 23  1  0
 23 24  2  0
 24 25  1  0
 24 26  1  0
 26 27  2  0
 27 28  1  0
 28 29  2  0
 13  7  1  0
 18 14  1  0
 29 19  1  0
 28 22  1  0
  3 30  1  0
  4 31  1  0
  4 32  1  0
  8 33  1  0
  8 34  1  0
  9 35  1  0
  9 36  1  0
 10 37  1  0
 10 38  1  0
 11 39  1  0
 11 40  1  0
 12 41  1  0
 12 42  1  0
 13 43  1  1
 16 44  1  0
 17 45  1  0
 18 46  1  0
 20 47  1  0
 21 48  1  0
 23 49  1  0
 26 50  1  0
 27 51  1  0
M  END
>  <smiles>  (26) 
O=C(NCC(=O)N1CCCCC[C@H]1c1ncc[nH]1)c1ccc2cc(Cl)ccc2n1

>  <score_type>  (26) 
oracle

>  <origin>  (26) 
autodockgpu

>  <m_score__min__energy>  (26) 
-6.0300000000000002

>  <m_primary>  (26) 
energy

>  <rmsd>  (26) 
8.603249862269578

>  <m_score__min__rmsd>  (26) 
8.603249862269578

>  <meeko>  (26) 
{"free_energy": -3.84, "intermolecular_energy": -7.12, "internal_energy": -2.9, "cluster_size": 2, "cluster_id": 19, "rank_in_cluster": 1}

>  <energy>  (26) 
-4.45

>  <cluster_rmsd>  (26) 
1.19

>  <cluster>  (26) 
6

$$$$

     RDKit          3D

 51 54  0  0  0  0  0  0  0  0999 V2000
  136.2690   77.7840  222.4280 O   0  0  0  0  0  0  0  0  0  0  0  0
  136.6860   76.7070  222.9280 C   0  0  0  0  0  0  0  0  0  0  0  0
  138.0630   76.3960  222.7060 N   0  0  0  0  0  0  0  0  0  0  0  0
  138.8140   77.3810  221.9210 C   0  0  0  0  0  0  0  0  0  0  0  0
  140.2600   77.0850  222.1260 C   0  0  0  0  0  0  0  0  0  0  0  0
  140.5990   76.0110  222.7000 O   0  0  0  0  0  0  0  0  0  0  0  0
  141.2300   78.0230  221.6680 N   0  0  0  0  0  0  0  0  0  0  0  0
  141.9350   77.7190  220.4230 C   0  0  0  0  0  0  0  0  0  0  0  0
  141.3040   78.4870  219.2640 C   0  0  0  0  0  0  0  0  0  0  0  0
  141.8310   79.9050  219.2470 C   0  0  0  0  0  0  0  0  0  0  0  0
  141.5100   80.6820  220.4840 C   0  0  0  0  0  0  0  0  0  0  0  0
  142.2110   80.2250  221.7210 C   0  0  0  0  0  0  0  0  0  0  0  0
  141.4210   79.1940  222.4950 C   0  0  1  0  0  0  0  0  0  0  0  0
  140.1650   79.7490  223.0060 C   0  0  0  0  0  0  0  0  0  0  0  0
  139.3470   80.5630  222.3220 N   0  0  0  0  0  0  0  0  0  0  0  0
  138.2930   80.8880  223.0680 C   0  0  0  0  0  0  0  0  0  0  0  0
  138.4360   80.2530  224.2950 C   0  0  0  0  0  0  0  0  0  0  0  0
  139.5940   79.5720  224.2040 N   0  0  0  0  0  0  0  0  0  0  0  0
  135.8300   75.8060  223.6960 C   0  0  0  0  0  0  0  0  0  0  0  0
  135.8360   74.4640  223.3400 C   0  0  0  0  0  0  0  0  0  0  0  0
  135.0590   73.5280  224.0050 C   0  0  0  0  0  0  0  0  0  0  0  0
  134.2820   73.9940  225.0400 C   0  0  0  0  0  0  0  0  0  0  0  0
  133.5070   73.0650  225.7070 C   0  0  0  0  0  0  0  0  0  0  0  0
  132.7100   73.4890  226.7540 C   0  0  0  0  0  0  0  0  0  0  0  0
  131.7450   72.2920  227.5720 Cl  0  0  0  0  0  0  0  0  0  0  0  0
  132.7140   74.8180  227.0960 C   0  0  0  0  0  0  0  0  0  0  0  0
  133.4900   75.7670  226.4330 C   0  0  0  0  0  0  0  0  0  0  0  0
  134.2870   75.3400  225.3860 C   0  0  0  0  0  0  0  0  0  0  0  0
  135.0560   76.2360  224.7180 N   0  0  0  0  0  0  0  0  0  0  0  0
  138.5030   75.5260  223.0800 H   0  0  0  0  0  0  0  0  0  0  0  0
  138.5567   77.2912  220.8553 H   0  0  0  0  0  0  0  0  0  0  0  0
  138.5725   78.4058  222.2396 H   0  0  0  0  0  0  0  0  0  0  0  0
  142.9908   78.0114  220.5217 H   0  0  0  0  0  0  0  0  0  0  0  0
  141.8636   76.6399  220.2221 H   0  0  0  0  0  0  0  0  0  0  0  0
  141.5573   77.9911  218.3154 H   0  0  0  0  0  0  0  0  0  0  0  0
  140.2114   78.5052  219.3902 H   0  0  0  0  0  0  0  0  0  0  0  0
  142.9246   79.8674  219.1348 H   0  0  0  0  0  0  0  0  0  0  0  0
  141.3397   80.4198  218.4082 H   0  0  0  0  0  0  0  0  0  0  0  0
  141.7830   81.7327  220.3065 H   0  0  0  0  0  0  0  0  0  0  0  0
  140.4359   80.5326  220.6686 H   0  0  0  0  0  0  0  0  0  0  0  0
  143.1777   79.7850  221.4349 H   0  0  0  0  0  0  0  0  0  0  0  0
  142.3388   81.1020  222.3725 H   0  0  0  0  0  0  0  0  0  0  0  0
  141.9877   78.8893  223.3872 H   0  0  0  0  0  0  0  0  0  0  0  0
  137.4603   81.5408  222.7672 H   0  0  0  0  0  0  0  0  0  0  0  0
  137.7514   80.2969  225.1549 H   0  0  0  0  0  0  0  0  0  0  0  0
  139.9710   78.9890  224.9860 H   0  0  0  0  0  0  0  0  0  0  0  0
  136.4748   74.1344  222.5074 H   0  0  0  0  0  0  0  0  0  0  0  0
  135.0636   72.4658  223.7193 H   0  0  0  0  0  0  0  0  0  0  0  0
  133.5238   72.0060  225.4101 H   0  0  0  0  0  0  0  0  0  0  0  0
  132.0770   75.1486  227.9296 H   0  0  0  0  0  0  0  0  0  0  0  0
  133.4693   76.8249  226.7335 H   0  0  0  0  0  0  0  0  0  0  0  0
  1  2  2  0
  2  3  1  0
  3  4  1  0
  4  5  1  0
  5  6  2  0
  5  7  1  0
  7  8  1  0
  8  9  1  0
  9 10  1  0
 10 11  1  0
 11 12  1  0
 12 13  1  0
 13 14  1  0
 14 15  2  0
 15 16  1  0
 16 17  2  0
 17 18  1  0
  2 19  1  0
 19 20  2  0
 20 21  1  0
 21 22  2  0
 22 23  1  0
 23 24  2  0
 24 25  1  0
 24 26  1  0
 26 27  2  0
 27 28  1  0
 28 29  2  0
 13  7  1  0
 18 14  1  0
 29 19  1  0
 28 22  1  0
  3 30  1  0
  4 31  1  0
  4 32  1  0
  8 33  1  0
  8 34  1  0
  9 35  1  0
  9 36  1  0
 10 37  1  0
 10 38  1  0
 11 39  1  0
 11 40  1  0
 12 41  1  0
 12 42  1  0
 13 43  1  1
 16 44  1  0
 17 45  1  0
 18 46  1  0
 20 47  1  0
 21 48  1  0
 23 49  1  0
 26 50  1  0
 27 51  1  0
M  END
>  <smiles>  (27) 
O=C(NCC(=O)N1CCCCC[C@H]1c1ncc[nH]1)c1ccc2cc(Cl)ccc2n1

>  <score_type>  (27) 
oracle

>  <origin>  (27) 
autodockgpu

>  <m_score__min__energy>  (27) 
-6.0300000000000002

>  <m_primary>  (27) 
energy

>  <rmsd>  (27) 
5.738142060827563

>  <m_score__min__rmsd>  (27) 
5.738142060827563

>  <meeko>  (27) 
{"free_energy": -4.44, "intermolecular_energy": -7.72, "internal_energy": -2.07, "cluster_size": 1, "cluster_id": 12, "rank_in_cluster": 1}

>  <energy>  (27) 
-5.04

>  <cluster_rmsd>  (27) 
0.0

>  <cluster>  (27) 
7

$$$$

     RDKit          3D

 51 54  0  0  0  0  0  0  0  0999 V2000
  139.7680   74.7230  221.9390 O   0  0  0  0  0  0  0  0  0  0  0  0
  140.9460   74.9370  221.5500 C   0  0  0  0  0  0  0  0  0  0  0  0
  141.4060   76.2870  221.6280 N   0  0  0  0  0  0  0  0  0  0  0  0
  140.4380   77.2530  222.1570 C   0  0  0  0  0  0  0  0  0  0  0  0
  141.1180   78.5800  222.1760 C   0  0  0  0  0  0  0  0  0  0  0  0
  142.3150   78.6580  222.5740 O   0  0  0  0  0  0  0  0  0  0  0  0
  140.4000   79.7320  221.7440 N   0  0  0  0  0  0  0  0  0  0  0  0
  140.1600   80.7910  222.7240 C   0  0  0  0  0  0  0  0  0  0  0  0
  141.2740   81.8320  222.6530 C   0  0  0  0  0  0  0  0  0  0  0  0
  141.0620   82.7210  221.4470 C   0  0  0  0  0  0  0  0  0  0  0  0
  141.0540   81.9820  220.1470 C   0  0  0  0  0  0  0  0  0  0  0  0
  139.8340   81.1640  219.8880 C   0  0  0  0  0  0  0  0  0  0  0  0
  139.9770   79.7350  220.3610 C   0  0  1  0  0  0  0  0  0  0  0  0
  140.8630   78.9630  219.4860 C   0  0  0  0  0  0  0  0  0  0  0  0
  140.5040   78.4090  218.3180 N   0  0  0  0  0  0  0  0  0  0  0  0
  141.5390   77.7780  217.7700 C   0  0  0  0  0  0  0  0  0  0  0  0
  142.6240   77.9300  218.6250 C   0  0  0  0  0  0  0  0  0  0  0  0
  142.1560   78.6600  219.6560 N   0  0  0  0  0  0  0  0  0  0  0  0
  141.8160   73.8790  221.0400 C   0  0  0  0  0  0  0  0  0  0  0  0
  141.2540   72.6210  220.8640 C   0  0  0  0  0  0  0  0  0  0  0  0
  141.9940   71.5500  220.3870 C   0  0  0  0  0  0  0  0  0  0  0  0
  143.3160   71.7950  220.0950 C   0  0  0  0  0  0  0  0  0  0  0  0
  144.0570   70.7310  219.6180 C   0  0  0  0  0  0  0  0  0  0  0  0
  145.3900   70.9310  219.3110 C   0  0  0  0  0  0  0  0  0  0  0  0
  146.2960   69.5690  218.7140 Cl  0  0  0  0  0  0  0  0  0  0  0  0
  145.9330   72.1790  219.4900 C   0  0  0  0  0  0  0  0  0  0  0  0
  145.1980   73.2620  219.9690 C   0  0  0  0  0  0  0  0  0  0  0  0
  143.8640   73.0590  220.2750 C   0  0  0  0  0  0  0  0  0  0  0  0
  143.1180   74.0910  220.7440 N   0  0  0  0  0  0  0  0  0  0  0  0
  142.3670   76.5640  221.3300 H   0  0  0  0  0  0  0  0  0  0  0  0
  139.5498   77.2921  221.5092 H   0  0  0  0  0  0  0  0  0  0  0  0
  140.1057   76.9659  223.1655 H   0  0  0  0  0  0  0  0  0  0  0  0
  139.1957   81.2745  222.5087 H   0  0  0  0  0  0  0  0  0  0  0  0
  140.1409   80.3516  223.7322 H   0  0  0  0  0  0  0  0  0  0  0  0
  141.2611   82.4449  223.5664 H   0  0  0  0  0  0  0  0  0  0  0  0
  142.2449   81.3225  222.5651 H   0  0  0  0  0  0  0  0  0  0  0  0
  140.0958   83.2345  221.5601 H   0  0  0  0  0  0  0  0  0  0  0  0
  141.9093   83.4216  221.4123 H   0  0  0  0  0  0  0  0  0  0  0  0
  141.1476   82.7193  219.3361 H   0  0  0  0  0  0  0  0  0  0  0  0
  141.8927   81.2718  220.1949 H   0  0  0  0  0  0  0  0  0  0  0  0
  138.9838   81.6246  220.4124 H   0  0  0  0  0  0  0  0  0  0  0  0
  139.6762   81.1390  218.7997 H   0  0  0  0  0  0  0  0  0  0  0  0
  139.0017   79.2294  220.3048 H   0  0  0  0  0  0  0  0  0  0  0  0
  141.5365   77.2345  216.8136 H   0  0  0  0  0  0  0  0  0  0  0  0
  143.6433   77.5392  218.4894 H   0  0  0  0  0  0  0  0  0  0  0  0
  142.7530   78.9400  220.4690 H   0  0  0  0  0  0  0  0  0  0  0  0
  140.1925   72.4703  221.1099 H   0  0  0  0  0  0  0  0  0  0  0  0
  141.5467   70.5546  220.2489 H   0  0  0  0  0  0  0  0  0  0  0  0
  143.5944   69.7419  219.4848 H   0  0  0  0  0  0  0  0  0  0  0  0
  146.9945   72.3309  219.2447 H   0  0  0  0  0  0  0  0  0  0  0  0
  145.6649   74.2494  220.0999 H   0  0  0  0  0  0  0  0  0  0  0  0
  1  2  2  0
  2  3  1  0
  3  4  1  0
  4  5  1  0
  5  6  2  0
  5  7  1  0
  7  8  1  0
  8  9  1  0
  9 10  1  0
 10 11  1  0
 11 12  1  0
 12 13  1  0
 13 14  1  0
 14 15  2  0
 15 16  1  0
 16 17  2  0
 17 18  1  0
  2 19  1  0
 19 20  2  0
 20 21  1  0
 21 22  2  0
 22 23  1  0
 23 24  2  0
 24 25  1  0
 24 26  1  0
 26 27  2  0
 27 28  1  0
 28 29  2  0
 13  7  1  0
 18 14  1  0
 29 19  1  0
 28 22  1  0
  3 30  1  0
  4 31  1  0
  4 32  1  0
  8 33  1  0
  8 34  1  0
  9 35  1  0
  9 36  1  0
 10 37  1  0
 10 38  1  0
 11 39  1  0
 11 40  1  0
 12 41  1  0
 12 42  1  0
 13 43  1  1
 16 44  1  0
 17 45  1  0
 18 46  1  0
 20 47  1  0
 21 48  1  0
 23 49  1  0
 26 50  1  0
 27 51  1  0
M  END
>  <smiles>  (28) 
O=C(NCC(=O)N1CCCCC[C@H]1c1ncc[nH]1)c1ccc2cc(Cl)ccc2n1

>  <score_type>  (28) 
oracle

>  <origin>  (28) 
autodockgpu

>  <m_score__min__energy>  (28) 
-6.0300000000000002

>  <m_primary>  (28) 
energy

>  <rmsd>  (28) 
6.294640570806022

>  <m_score__min__rmsd>  (28) 
6.294640570806022

>  <meeko>  (28) 
{"free_energy": -4.5, "intermolecular_energy": -7.78, "internal_energy": -2.74, "cluster_size": 2, "cluster_id": 10, "rank_in_cluster": 1}

>  <energy>  (28) 
-4.82

>  <cluster_rmsd>  (28) 
0.23

>  <cluster>  (28) 
7

$$$$

     RDKit          3D

 51 54  0  0  0  0  0  0  0  0999 V2000
  140.2510   72.4530  221.0020 O   0  0  0  0  0  0  0  0  0  0  0  0
  140.0000   72.8170  222.1800 C   0  0  0  0  0  0  0  0  0  0  0  0
  139.6610   74.1930  222.3610 N   0  0  0  0  0  0  0  0  0  0  0  0
  139.6490   75.0050  221.1400 C   0  0  0  0  0  0  0  0  0  0  0  0
  140.6400   76.1000  221.3390 C   0  0  0  0  0  0  0  0  0  0  0  0
  140.9490   76.4520  222.5130 O   0  0  0  0  0  0  0  0  0  0  0  0
  141.2200   76.7260  220.1980 N   0  0  0  0  0  0  0  0  0  0  0  0
  141.2800   75.9540  218.9570 C   0  0  0  0  0  0  0  0  0  0  0  0
  142.6950   75.9920  218.3840 C   0  0  0  0  0  0  0  0  0  0  0  0
  142.8470   77.2030  217.4890 C   0  0  0  0  0  0  0  0  0  0  0  0
  142.8920   78.5000  218.2310 C   0  0  0  0  0  0  0  0  0  0  0  0
  141.6840   78.8000  219.0600 C   0  0  0  0  0  0  0  0  0  0  0  0
  141.6950   78.0780  220.3880 C   0  0  1  0  0  0  0  0  0  0  0  0
  140.9440   78.8150  221.4080 C   0  0  0  0  0  0  0  0  0  0  0  0
  141.4780   79.3880  222.4960 N   0  0  0  0  0  0  0  0  0  0  0  0
  140.5290   79.9770  223.2200 C   0  0  0  0  0  0  0  0  0  0  0  0
  139.3190   79.7740  222.5680 C   0  0  0  0  0  0  0  0  0  0  0  0
  139.6290   79.0600  221.4700 N   0  0  0  0  0  0  0  0  0  0  0  0
  140.0470   71.9020  223.3180 C   0  0  0  0  0  0  0  0  0  0  0  0
  139.5530   70.6190  223.1250 C   0  0  0  0  0  0  0  0  0  0  0  0
  139.5520   69.6760  224.1410 C   0  0  0  0  0  0  0  0  0  0  0  0
  140.0650   70.0740  225.3540 C   0  0  0  0  0  0  0  0  0  0  0  0
  140.0660   69.1370  226.3700 C   0  0  0  0  0  0  0  0  0  0  0  0
  140.5730   69.4940  227.6050 C   0  0  0  0  0  0  0  0  0  0  0  0
  140.5580   68.2900  228.8640 Cl  0  0  0  0  0  0  0  0  0  0  0  0
  141.0570   70.7660  227.7830 C   0  0  0  0  0  0  0  0  0  0  0  0
  141.0640   71.7210  226.7690 C   0  0  0  0  0  0  0  0  0  0  0  0
  140.5560   71.3620  225.5320 C   0  0  0  0  0  0  0  0  0  0  0  0
  140.5460   72.2660  224.5220 N   0  0  0  0  0  0  0  0  0  0  0  0
  139.4360   74.5900  223.3000 H   0  0  0  0  0  0  0  0  0  0  0  0
  139.9338   74.3898  220.2737 H   0  0  0  0  0  0  0  0  0  0  0  0
  138.6454   75.4122  220.9476 H   0  0  0  0  0  0  0  0  0  0  0  0
  140.9988   74.9108  219.1634 H   0  0  0  0  0  0  0  0  0  0  0  0
  140.5836   76.3915  218.2265 H   0  0  0  0  0  0  0  0  0  0  0  0
  143.4221   76.0515  219.2073 H   0  0  0  0  0  0  0  0  0  0  0  0
  142.8769   75.0790  217.7980 H   0  0  0  0  0  0  0  0  0  0  0  0
  143.7814   77.0974  216.9183 H   0  0  0  0  0  0  0  0  0  0  0  0
  141.9590   77.2356  216.8406 H   0  0  0  0  0  0  0  0  0  0  0  0
  143.7665   78.4806  218.8980 H   0  0  0  0  0  0  0  0  0  0  0  0
  142.9414   79.2886  217.4657 H   0  0  0  0  0  0  0  0  0  0  0  0
  141.6464   79.8831  219.2484 H   0  0  0  0  0  0  0  0  0  0  0  0
  140.8023   78.4540  218.5006 H   0  0  0  0  0  0  0  0  0  0  0  0
  142.7253   78.0230  220.7693 H   0  0  0  0  0  0  0  0  0  0  0  0
  140.6759   80.5246  224.1626 H   0  0  0  0  0  0  0  0  0  0  0  0
  138.3235   80.1215  222.8813 H   0  0  0  0  0  0  0  0  0  0  0  0
  138.9110   78.7520  220.7730 H   0  0  0  0  0  0  0  0  0  0  0  0
  139.1513   70.3432  222.1388 H   0  0  0  0  0  0  0  0  0  0  0  0
  139.1605   68.6599  223.9852 H   0  0  0  0  0  0  0  0  0  0  0  0
  139.6702   68.1251  226.1986 H   0  0  0  0  0  0  0  0  0  0  0  0
  141.4568   71.0434  228.7695 H   0  0  0  0  0  0  0  0  0  0  0  0
  141.4616   72.7312  226.9459 H   0  0  0  0  0  0  0  0  0  0  0  0
  1  2  2  0
  2  3  1  0
  3  4  1  0
  4  5  1  0
  5  6  2  0
  5  7  1  0
  7  8  1  0
  8  9  1  0
  9 10  1  0
 10 11  1  0
 11 12  1  0
 12 13  1  0
 13 14  1  0
 14 15  2  0
 15 16  1  0
 16 17  2  0
 17 18  1  0
  2 19  1  0
 19 20  2  0
 20 21  1  0
 21 22  2  0
 22 23  1  0
 23 24  2  0
 24 25  1  0
 24 26  1  0
 26 27  2  0
 27 28  1  0
 28 29  2  0
 13  7  1  0
 18 14  1  0
 29 19  1  0
 28 22  1  0
  3 30  1  0
  4 31  1  0
  4 32  1  0
  8 33  1  0
  8 34  1  0
  9 35  1  0
  9 36  1  0
 10 37  1  0
 10 38  1  0
 11 39  1  0
 11 40  1  0
 12 41  1  0
 12 42  1  0
 13 43  1  1
 16 44  1  0
 17 45  1  0
 18 46  1  0
 20 47  1  0
 21 48  1  0
 23 49  1  0
 26 50  1  0
 27 51  1  0
M  END
>  <smiles>  (29) 
O=C(NCC(=O)N1CCCCC[C@H]1c1ncc[nH]1)c1ccc2cc(Cl)ccc2n1

>  <score_type>  (29) 
oracle

>  <origin>  (29) 
autodockgpu

>  <m_score__min__energy>  (29) 
-6.0300000000000002

>  <m_primary>  (29) 
energy

>  <rmsd>  (29) 
1.904909939394227

>  <m_score__min__rmsd>  (29) 
1.904909939394227

>  <meeko>  (29) 
{"free_energy": -5.11, "intermolecular_energy": -8.39, "internal_energy": -1.56, "cluster_size": 5, "cluster_id": 1, "rank_in_cluster": 3}

>  <energy>  (29) 
-4.46

>  <cluster_rmsd>  (29) 
0.43

>  <cluster>  (29) 
7

$$$$

     RDKit          3D

 51 54  0  0  0  0  0  0  0  0999 V2000
  141.8550   73.1360  221.0260 O   0  0  0  0  0  0  0  0  0  0  0  0
  141.0220   73.9100  221.5660 C   0  0  0  0  0  0  0  0  0  0  0  0
  139.9670   73.2920  222.3060 N   0  0  0  0  0  0  0  0  0  0  0  0
  139.9960   71.8260  222.3390 C   0  0  0  0  0  0  0  0  0  0  0  0
  139.3670   71.4110  223.6250 C   0  0  0  0  0  0  0  0  0  0  0  0
  138.2350   71.8740  223.9410 O   0  0  0  0  0  0  0  0  0  0  0  0
  140.0610   70.4980  224.4720 N   0  0  0  0  0  0  0  0  0  0  0  0
  141.1190   71.0350  225.3270 C   0  0  0  0  0  0  0  0  0  0  0  0
  140.5400   71.4580  226.6750 C   0  0  0  0  0  0  0  0  0  0  0  0
  140.2360   70.2310  227.5050 C   0  0  0  0  0  0  0  0  0  0  0  0
  139.2630   69.2940  226.8630 C   0  0  0  0  0  0  0  0  0  0  0  0
  139.8180   68.4690  225.7510 C   0  0  0  0  0  0  0  0  0  0  0  0
  139.6400   69.1170  224.3970 C   0  0  1  0  0  0  0  0  0  0  0  0
  138.2710   68.9580  223.8990 C   0  0  0  0  0  0  0  0  0  0  0  0
  137.8960   68.1120  222.9280 N   0  0  0  0  0  0  0  0  0  0  0  0
  136.5870   68.2100  222.7120 C   0  0  0  0  0  0  0  0  0  0  0  0
  136.0880   69.1680  223.5860 C   0  0  0  0  0  0  0  0  0  0  0  0
  137.1570   69.5920  224.2860 N   0  0  0  0  0  0  0  0  0  0  0  0
  141.1060   75.3640  221.4580 C   0  0  0  0  0  0  0  0  0  0  0  0
  141.2590   75.9010  220.1860 C   0  0  0  0  0  0  0  0  0  0  0  0
  141.3490   77.2680  219.9750 C   0  0  0  0  0  0  0  0  0  0  0  0
  141.2790   78.0700  221.0910 C   0  0  0  0  0  0  0  0  0  0  0  0
  141.3670   79.4340  220.8860 C   0  0  0  0  0  0  0  0  0  0  0  0
  141.3010   80.2780  221.9780 C   0  0  0  0  0  0  0  0  0  0  0  0
  141.4170   81.9910  221.6850 Cl  0  0  0  0  0  0  0  0  0  0  0  0
  141.1510   79.7350  223.2300 C   0  0  0  0  0  0  0  0  0  0  0  0
  141.0590   78.3630  223.4520 C   0  0  0  0  0  0  0  0  0  0  0  0
  141.1250   77.5190  222.3570 C   0  0  0  0  0  0  0  0  0  0  0  0
  141.0400   76.1770  222.5360 N   0  0  0  0  0  0  0  0  0  0  0  0
  139.2290   73.8480  222.7900 H   0  0  0  0  0  0  0  0  0  0  0  0
  139.4280   71.4169  221.4904 H   0  0  0  0  0  0  0  0  0  0  0  0
  141.0271   71.4501  222.2649 H   0  0  0  0  0  0  0  0  0  0  0  0
  141.8853   70.2621  225.4865 H   0  0  0  0  0  0  0  0  0  0  0  0
  141.5679   71.9115  224.8369 H   0  0  0  0  0  0  0  0  0  0  0  0
  141.2699   72.0871  227.2056 H   0  0  0  0  0  0  0  0  0  0  0  0
  139.6129   72.0270  226.5116 H   0  0  0  0  0  0  0  0  0  0  0  0
  141.1768   69.6883  227.6792 H   0  0  0  0  0  0  0  0  0  0  0  0
  139.7736   70.5825  228.4392 H   0  0  0  0  0  0  0  0  0  0  0  0
  138.8855   68.6111  227.6383 H   0  0  0  0  0  0  0  0  0  0  0  0
  138.4805   69.9245  226.4155 H   0  0  0  0  0  0  0  0  0  0  0  0
  140.8927   68.3161  225.9291 H   0  0  0  0  0  0  0  0  0  0  0  0
  139.2675   67.5167  225.7379 H   0  0  0  0  0  0  0  0  0  0  0  0
  140.2780   68.6092  223.6587 H   0  0  0  0  0  0  0  0  0  0  0  0
  136.0053   67.6367  221.9752 H   0  0  0  0  0  0  0  0  0  0  0  0
  135.0460   69.5064  223.6846 H   0  0  0  0  0  0  0  0  0  0  0  0
  137.0920   70.3240  225.0320 H   0  0  0  0  0  0  0  0  0  0  0  0
  141.3102   75.2223  219.3219 H   0  0  0  0  0  0  0  0  0  0  0  0
  141.4702   77.6903  218.9666 H   0  0  0  0  0  0  0  0  0  0  0  0
  141.4875   79.8406  219.8710 H   0  0  0  0  0  0  0  0  0  0  0  0
  141.1013   80.4126  224.0951 H   0  0  0  0  0  0  0  0  0  0  0  0
  140.9373   77.9616  224.4689 H   0  0  0  0  0  0  0  0  0  0  0  0
  1  2  2  0
  2  3  1  0
  3  4  1  0
  4  5  1  0
  5  6  2  0
  5  7  1  0
  7  8  1  0
  8  9  1  0
  9 10  1  0
 10 11  1  0
 11 12  1  0
 12 13  1  0
 13 14  1  0
 14 15  2  0
 15 16  1  0
 16 17  2  0
 17 18  1  0
  2 19  1  0
 19 20  2  0
 20 21  1  0
 21 22  2  0
 22 23  1  0
 23 24  2  0
 24 25  1  0
 24 26  1  0
 26 27  2  0
 27 28  1  0
 28 29  2  0
 13  7  1  0
 18 14  1  0
 29 19  1  0
 28 22  1  0
  3 30  1  0
  4 31  1  0
  4 32  1  0
  8 33  1  0
  8 34  1  0
  9 35  1  0
  9 36  1  0
 10 37  1  0
 10 38  1  0
 11 39  1  0
 11 40  1  0
 12 41  1  0
 12 42  1  0
 13 43  1  6
 16 44  1  0
 17 45  1  0
 18 46  1  0
 20 47  1  0
 21 48  1  0
 23 49  1  0
 26 50  1  0
 27 51  1  0
M  END
>  <smiles>  (30) 
O=C(NCC(=O)N1CCCCC[C@H]1c1ncc[nH]1)c1ccc2cc(Cl)ccc2n1

>  <score_type>  (30) 
oracle

>  <origin>  (30) 
autodockgpu

>  <m_score__min__energy>  (30) 
-6.0300000000000002

>  <m_primary>  (30) 
energy

>  <rmsd>  (30) 
9.187679834055372

>  <m_score__min__rmsd>  (30) 
9.187679834055372

>  <meeko>  (30) 
{"free_energy": -5.18, "intermolecular_energy": -8.46, "internal_energy": -2.31, "cluster_size": 5, "cluster_id": 4, "rank_in_cluster": 2}

>  <energy>  (30) 
-4.79

>  <cluster_rmsd>  (30) 
0.0

>  <cluster>  (30) 
8

$$$$

     RDKit          3D

 51 54  0  0  0  0  0  0  0  0999 V2000
  138.0830   77.5470  222.2160 O   0  0  0  0  0  0  0  0  0  0  0  0
  139.0630   77.6590  221.4340 C   0  0  0  0  0  0  0  0  0  0  0  0
  139.2000   78.9130  220.7630 N   0  0  0  0  0  0  0  0  0  0  0  0
  138.1740   79.9120  221.0780 C   0  0  0  0  0  0  0  0  0  0  0  0
  138.8900   81.1550  221.4810 C   0  0  0  0  0  0  0  0  0  0  0  0
  138.4920   82.2710  221.0440 O   0  0  0  0  0  0  0  0  0  0  0  0
  140.0130   81.0550  222.3540 N   0  0  0  0  0  0  0  0  0  0  0  0
  139.7810   80.5370  223.7020 C   0  0  0  0  0  0  0  0  0  0  0  0
  140.2200   79.0770  223.7850 C   0  0  0  0  0  0  0  0  0  0  0  0
  141.7140   79.0080  224.0140 C   0  0  0  0  0  0  0  0  0  0  0  0
  142.5210   79.6090  222.9070 C   0  0  0  0  0  0  0  0  0  0  0  0
  142.3890   81.0870  222.7590 C   0  0  0  0  0  0  0  0  0  0  0  0
  141.2820   81.4820  221.8080 C   0  0  1  0  0  0  0  0  0  0  0  0
  141.5260   80.9750  220.4550 C   0  0  0  0  0  0  0  0  0  0  0  0
  141.8360   79.7060  220.1500 N   0  0  0  0  0  0  0  0  0  0  0  0
  141.9940   79.5740  218.8350 C   0  0  0  0  0  0  0  0  0  0  0  0
  141.7760   80.8200  218.2600 C   0  0  0  0  0  0  0  0  0  0  0  0
  141.4950   81.6370  219.2920 N   0  0  0  0  0  0  0  0  0  0  0  0
  140.0220   76.5800  221.2060 C   0  0  0  0  0  0  0  0  0  0  0  0
  139.6890   75.3200  221.6840 C   0  0  0  0  0  0  0  0  0  0  0  0
  140.5300   74.2300  221.5200 C   0  0  0  0  0  0  0  0  0  0  0  0
  141.7140   74.4580  220.8580 C   0  0  0  0  0  0  0  0  0  0  0  0
  142.5560   73.3750  220.6910 C   0  0  0  0  0  0  0  0  0  0  0  0
  143.7560   73.5590  220.0320 C   0  0  0  0  0  0  0  0  0  0  0  0
  144.7940   72.1730  219.8400 Cl  0  0  0  0  0  0  0  0  0  0  0  0
  144.0740   74.8100  219.5650 C   0  0  0  0  0  0  0  0  0  0  0  0
  143.2360   75.9110  219.7240 C   0  0  0  0  0  0  0  0  0  0  0  0
  142.0340   75.7260  220.3840 C   0  0  0  0  0  0  0  0  0  0  0  0
  141.1930   76.7760  220.5580 N   0  0  0  0  0  0  0  0  0  0  0  0
  139.9800   79.1030  220.0960 H   0  0  0  0  0  0  0  0  0  0  0  0
  137.5496   80.1050  220.1932 H   0  0  0  0  0  0  0  0  0  0  0  0
  137.5144   79.5585  221.8842 H   0  0  0  0  0  0  0  0  0  0  0  0
  140.3581   81.1322  224.4250 H   0  0  0  0  0  0  0  0  0  0  0  0
  138.7079   80.6044  223.9342 H   0  0  0  0  0  0  0  0  0  0  0  0
  139.6987   78.5849  224.6194 H   0  0  0  0  0  0  0  0  0  0  0  0
  139.9711   78.5668  222.8428 H   0  0  0  0  0  0  0  0  0  0  0  0
  141.9477   79.5451  224.9451 H   0  0  0  0  0  0  0  0  0  0  0  0
  141.9823   77.9424  224.0652 H   0  0  0  0  0  0  0  0  0  0  0  0
  143.5803   79.3783  223.0933 H   0  0  0  0  0  0  0  0  0  0  0  0
  142.1353   79.1718  221.9742 H   0  0  0  0  0  0  0  0  0  0  0  0
  142.1762   81.5219  223.7467 H   0  0  0  0  0  0  0  0  0  0  0  0
  143.3347   81.4649  222.3431 H   0  0  0  0  0  0  0  0  0  0  0  0
  141.2564   82.5771  221.7070 H   0  0  0  0  0  0  0  0  0  0  0  0
  142.2505   78.6473  218.3008 H   0  0  0  0  0  0  0  0  0  0  0  0
  141.8229   81.0819  217.1927 H   0  0  0  0  0  0  0  0  0  0  0  0
  141.2830   82.6550  219.1670 H   0  0  0  0  0  0  0  0  0  0  0  0
  138.7313   75.1825  222.2074 H   0  0  0  0  0  0  0  0  0  0  0  0
  140.2637   73.2328  221.9003 H   0  0  0  0  0  0  0  0  0  0  0  0
  142.2755   72.3836  221.0762 H   0  0  0  0  0  0  0  0  0  0  0  0
  145.0321   74.9489  219.0427 H   0  0  0  0  0  0  0  0  0  0  0  0
  143.5216   76.8998  219.3358 H   0  0  0  0  0  0  0  0  0  0  0  0
  1  2  2  0
  2  3  1  0
  3  4  1  0
  4  5  1  0
  5  6  2  0
  5  7  1  0
  7  8  1  0
  8  9  1  0
  9 10  1  0
 10 11  1  0
 11 12  1  0
 12 13  1  0
 13 14  1  0
 14 15  2  0
 15 16  1  0
 16 17  2  0
 17 18  1  0
  2 19  1  0
 19 20  2  0
 20 21  1  0
 21 22  2  0
 22 23  1  0
 23 24  2  0
 24 25  1  0
 24 26  1  0
 26 27  2  0
 27 28  1  0
 28 29  2  0
 13  7  1  0
 18 14  1  0
 29 19  1  0
 28 22  1  0
  3 30  1  0
  4 31  1  0
  4 32  1  0
  8 33  1  0
  8 34  1  0
  9 35  1  0
  9 36  1  0
 10 37  1  0
 10 38  1  0
 11 39  1  0
 11 40  1  0
 12 41  1  0
 12 42  1  0
 13 43  1  6
 16 44  1  0
 17 45  1  0
 18 46  1  0
 20 47  1  0
 21 48  1  0
 23 49  1  0
 26 50  1  0
 27 51  1  0
M  END
>  <smiles>  (31) 
O=C(NCC(=O)N1CCCCC[C@H]1c1ncc[nH]1)c1ccc2cc(Cl)ccc2n1

>  <score_type>  (31) 
oracle

>  <origin>  (31) 
autodockgpu

>  <m_score__min__energy>  (31) 
-6.0300000000000002

>  <m_primary>  (31) 
energy

>  <rmsd>  (31) 
7.035118802759562

>  <m_score__min__rmsd>  (31) 
7.035118802759562

>  <meeko>  (31) 
{"free_energy": -3.93, "intermolecular_energy": -7.21, "internal_energy": -3.33, "cluster_size": 3, "cluster_id": 16, "rank_in_cluster": 3}

>  <energy>  (31) 
-3.98

>  <cluster_rmsd>  (31) 
1.07

>  <cluster>  (31) 
8

$$$$

     RDKit          3D

 51 54  0  0  0  0  0  0  0  0999 V2000
  140.2320   74.1380  222.3040 O   0  0  0  0  0  0  0  0  0  0  0  0
  140.9920   74.4210  221.3420 C   0  0  0  0  0  0  0  0  0  0  0  0
  140.8170   75.7100  220.7510 N   0  0  0  0  0  0  0  0  0  0  0  0
  139.7680   76.5410  221.3510 C   0  0  0  0  0  0  0  0  0  0  0  0
  139.6430   77.7590  220.5020 C   0  0  0  0  0  0  0  0  0  0  0  0
  139.2310   77.6470  219.3120 O   0  0  0  0  0  0  0  0  0  0  0  0
  139.9920   79.0260  221.0520 N   0  0  0  0  0  0  0  0  0  0  0  0
  138.9930   79.7080  221.8750 C   0  0  0  0  0  0  0  0  0  0  0  0
  139.0820   79.2220  223.3190 C   0  0  0  0  0  0  0  0  0  0  0  0
  140.4860   79.4380  223.8410 C   0  0  0  0  0  0  0  0  0  0  0  0
  141.5330   78.6840  223.0850 C   0  0  0  0  0  0  0  0  0  0  0  0
  142.1810   79.4390  221.9740 C   0  0  0  0  0  0  0  0  0  0  0  0
  141.3160   79.5130  220.7370 C   0  0  1  0  0  0  0  0  0  0  0  0
  141.9320   78.8150  219.6050 C   0  0  0  0  0  0  0  0  0  0  0  0
  142.5440   77.6230  219.6750 N   0  0  0  0  0  0  0  0  0  0  0  0
  142.9950   77.2660  218.4750 C   0  0  0  0  0  0  0  0  0  0  0  0
  142.6590   78.2770  217.5830 C   0  0  0  0  0  0  0  0  0  0  0  0
  142.0130   79.1970  218.3250 N   0  0  0  0  0  0  0  0  0  0  0  0
  142.0060   73.4980  220.8350 C   0  0  0  0  0  0  0  0  0  0  0  0
  143.2940   73.9920  220.6770 C   0  0  0  0  0  0  0  0  0  0  0  0
  144.3280   73.1990  220.2030 C   0  0  0  0  0  0  0  0  0  0  0  0
  144.0140   71.8950  219.8970 C   0  0  0  0  0  0  0  0  0  0  0  0
  145.0410   71.1000  219.4250 C   0  0  0  0  0  0  0  0  0  0  0  0
  144.7720   69.7830  219.1050 C   0  0  0  0  0  0  0  0  0  0  0  0
  146.0890   68.8090  218.5110 Cl  0  0  0  0  0  0  0  0  0  0  0  0
  143.4940   69.3080  219.2650 C   0  0  0  0  0  0  0  0  0  0  0  0
  142.4490   70.0960  219.7410 C   0  0  0  0  0  0  0  0  0  0  0  0
  142.7200   71.4140  220.0610 C   0  0  0  0  0  0  0  0  0  0  0  0
  141.7270   72.2120  220.5260 N   0  0  0  0  0  0  0  0  0  0  0  0
  141.3990   76.0370  219.9490 H   0  0  0  0  0  0  0  0  0  0  0  0
  138.8146   75.9926  221.3686 H   0  0  0  0  0  0  0  0  0  0  0  0
  140.0214   76.8077  222.3877 H   0  0  0  0  0  0  0  0  0  0  0  0
  139.1753   80.7924  221.8443 H   0  0  0  0  0  0  0  0  0  0  0  0
  137.9901   79.4855  221.4816 H   0  0  0  0  0  0  0  0  0  0  0  0
  138.3698   79.7856  223.9396 H   0  0  0  0  0  0  0  0  0  0  0  0
  138.8377   78.1503  223.3598 H   0  0  0  0  0  0  0  0  0  0  0  0
  140.7182   80.5114  223.7782 H   0  0  0  0  0  0  0  0  0  0  0  0
  140.5048   79.0633  224.8750 H   0  0  0  0  0  0  0  0  0  0  0  0
  142.3172   78.3850  223.7961 H   0  0  0  0  0  0  0  0  0  0  0  0
  141.0176   77.8329  222.6160 H   0  0  0  0  0  0  0  0  0  0  0  0
  142.3901   80.4624  222.3190 H   0  0  0  0  0  0  0  0  0  0  0  0
  143.1035   78.9047  221.7029 H   0  0  0  0  0  0  0  0  0  0  0  0
  141.2227   80.5610  220.4160 H   0  0  0  0  0  0  0  0  0  0  0  0
  143.5355   76.3390  218.2332 H   0  0  0  0  0  0  0  0  0  0  0  0
  142.8739   78.3173  216.5049 H   0  0  0  0  0  0  0  0  0  0  0  0
  141.6330   80.0850  217.9220 H   0  0  0  0  0  0  0  0  0  0  0  0
  143.4998   75.0413  220.9350 H   0  0  0  0  0  0  0  0  0  0  0  0
  145.3476   73.5926  220.0780 H   0  0  0  0  0  0  0  0  0  0  0  0
  146.0553   71.5086  219.3061 H   0  0  0  0  0  0  0  0  0  0  0  0
  143.2863   68.2593  219.0060 H   0  0  0  0  0  0  0  0  0  0  0  0
  141.4368   69.6819  219.8591 H   0  0  0  0  0  0  0  0  0  0  0  0
  1  2  2  0
  2  3  1  0
  3  4  1  0
  4  5  1  0
  5  6  2  0
  5  7  1  0
  7  8  1  0
  8  9  1  0
  9 10  1  0
 10 11  1  0
 11 12  1  0
 12 13  1  0
 13 14  1  0
 14 15  2  0
 15 16  1  0
 16 17  2  0
 17 18  1  0
  2 19  1  0
 19 20  2  0
 20 21  1  0
 21 22  2  0
 22 23  1  0
 23 24  2  0
 24 25  1  0
 24 26  1  0
 26 27  2  0
 27 28  1  0
 28 29  2  0
 13  7  1  0
 18 14  1  0
 29 19  1  0
 28 22  1  0
  3 30  1  0
  4 31  1  0
  4 32  1  0
  8 33  1  0
  8 34  1  0
  9 35  1  0
  9 36  1  0
 10 37  1  0
 10 38  1  0
 11 39  1  0
 11 40  1  0
 12 41  1  0
 12 42  1  0
 13 43  1  6
 16 44  1  0
 17 45  1  0
 18 46  1  0
 20 47  1  0
 21 48  1  0
 23 49  1  0
 26 50  1  0
 27 51  1  0
M  END
>  <smiles>  (32) 
O=C(NCC(=O)N1CCCCC[C@H]1c1ncc[nH]1)c1ccc2cc(Cl)ccc2n1

>  <score_type>  (32) 
oracle

>  <origin>  (32) 
autodockgpu

>  <m_score__min__energy>  (32) 
-6.0300000000000002

>  <m_primary>  (32) 
energy

>  <rmsd>  (32) 
6.309425544174149

>  <m_score__min__rmsd>  (32) 
6.309425544174149

>  <meeko>  (32) 
{"free_energy": -3.98, "intermolecular_energy": -7.26, "internal_energy": -2.54, "cluster_size": 1, "cluster_id": 17, "rank_in_cluster": 1}

>  <energy>  (32) 
-3.57

>  <cluster_rmsd>  (32) 
1.98

>  <cluster>  (32) 
8

$$$$

     RDKit          3D

 51 54  0  0  0  0  0  0  0  0999 V2000
  138.3010   82.7600  221.1160 O   0  0  0  0  0  0  0  0  0  0  0  0
  138.2270   81.7570  221.8730 C   0  0  0  0  0  0  0  0  0  0  0  0
  138.7060   80.5210  221.3390 N   0  0  0  0  0  0  0  0  0  0  0  0
  139.2250   80.5860  219.9690 C   0  0  0  0  0  0  0  0  0  0  0  0
  140.4060   79.6770  219.9110 C   0  0  0  0  0  0  0  0  0  0  0  0
  140.5800   78.9500  218.8920 O   0  0  0  0  0  0  0  0  0  0  0  0
  141.3130   79.6510  221.0090 N   0  0  0  0  0  0  0  0  0  0  0  0
  142.1560   80.8270  221.2240 C   0  0  0  0  0  0  0  0  0  0  0  0
  141.4780   81.7850  222.2000 C   0  0  0  0  0  0  0  0  0  0  0  0
  141.6250   81.2600  223.6120 C   0  0  0  0  0  0  0  0  0  0  0  0
  141.0210   79.9080  223.8180 C   0  0  0  0  0  0  0  0  0  0  0  0
  141.7760   78.7750  223.2080 C   0  0  0  0  0  0  0  0  0  0  0  0
  141.3070   78.4460  221.8090 C   0  0  1  0  0  0  0  0  0  0  0  0
  140.0070   77.7700  221.8220 C   0  0  0  0  0  0  0  0  0  0  0  0
  139.1770   77.7130  222.8740 N   0  0  0  0  0  0  0  0  0  0  0  0
  138.0810   77.0260  222.5600 C   0  0  0  0  0  0  0  0  0  0  0  0
  138.2070   76.6180  221.2380 C   0  0  0  0  0  0  0  0  0  0  0  0
  139.4000   77.0970  220.8360 N   0  0  0  0  0  0  0  0  0  0  0  0
  137.6860   81.8260  223.2280 C   0  0  0  0  0  0  0  0  0  0  0  0
  137.9460   80.7550  224.0730 C   0  0  0  0  0  0  0  0  0  0  0  0
  137.4780   80.7220  225.3770 C   0  0  0  0  0  0  0  0  0  0  0  0
  136.7410   81.8060  225.7960 C   0  0  0  0  0  0  0  0  0  0  0  0
  136.2720   81.7790  227.0950 C   0  0  0  0  0  0  0  0  0  0  0  0
  135.5270   82.8470  227.5580 C   0  0  0  0  0  0  0  0  0  0  0  0
  134.9510   82.7800  229.2010 Cl  0  0  0  0  0  0  0  0  0  0  0  0
  135.2760   83.8990  226.7130 C   0  0  0  0  0  0  0  0  0  0  0  0
  135.7420   83.9410  225.4000 C   0  0  0  0  0  0  0  0  0  0  0  0
  136.4890   82.8710  224.9390 C   0  0  0  0  0  0  0  0  0  0  0  0
  136.9580   82.8780  223.6670 N   0  0  0  0  0  0  0  0  0  0  0  0
  138.6890   79.6350  221.8890 H   0  0  0  0  0  0  0  0  0  0  0  0
  138.4558   80.2531  219.2566 H   0  0  0  0  0  0  0  0  0  0  0  0
  139.5063   81.6154  219.7024 H   0  0  0  0  0  0  0  0  0  0  0  0
  143.1244   80.5100  221.6384 H   0  0  0  0  0  0  0  0  0  0  0  0
  142.3108   81.3403  220.2635 H   0  0  0  0  0  0  0  0  0  0  0  0
  141.9494   82.7762  222.1271 H   0  0  0  0  0  0  0  0  0  0  0  0
  140.4099   81.8658  221.9498 H   0  0  0  0  0  0  0  0  0  0  0  0
  142.6972   81.2010  223.8504 H   0  0  0  0  0  0  0  0  0  0  0  0
  141.0854   81.9562  224.2709 H   0  0  0  0  0  0  0  0  0  0  0  0
  140.9525   79.7274  224.9009 H   0  0  0  0  0  0  0  0  0  0  0  0
  140.0438   79.9303  223.3134 H   0  0  0  0  0  0  0  0  0  0  0  0
  142.8418   79.0440  223.1675 H   0  0  0  0  0  0  0  0  0  0  0  0
  141.6035   77.8866  223.8332 H   0  0  0  0  0  0  0  0  0  0  0  0
  142.0025   77.7304  221.3462 H   0  0  0  0  0  0  0  0  0  0  0  0
  137.2304   76.8190  223.2260 H   0  0  0  0  0  0  0  0  0  0  0  0
  137.4882   76.0309  220.6475 H   0  0  0  0  0  0  0  0  0  0  0  0
  139.7750   76.9470  219.8710 H   0  0  0  0  0  0  0  0  0  0  0  0
  138.5401   79.9091  223.6967 H   0  0  0  0  0  0  0  0  0  0  0  0
  137.6852   79.8720  226.0437 H   0  0  0  0  0  0  0  0  0  0  0  0
  136.4879   80.9219  227.7499 H   0  0  0  0  0  0  0  0  0  0  0  0
  134.6816   84.7452  227.0880 H   0  0  0  0  0  0  0  0  0  0  0  0
  135.5223   84.8000  224.7489 H   0  0  0  0  0  0  0  0  0  0  0  0
  1  2  2  0
  2  3  1  0
  3  4  1  0
  4  5  1  0
  5  6  2  0
  5  7  1  0
  7  8  1  0
  8  9  1  0
  9 10  1  0
 10 11  1  0
 11 12  1  0
 12 13  1  0
 13 14  1  0
 14 15  2  0
 15 16  1  0
 16 17  2  0
 17 18  1  0
  2 19  1  0
 19 20  2  0
 20 21  1  0
 21 22  2  0
 22 23  1  0
 23 24  2  0
 24 25  1  0
 24 26  1  0
 26 27  2  0
 27 28  1  0
 28 29  2  0
 13  7  1  0
 18 14  1  0
 29 19  1  0
 28 22  1  0
  3 30  1  0
  4 31  1  0
  4 32  1  0
  8 33  1  0
  8 34  1  0
  9 35  1  0
  9 36  1  0
 10 37  1  0
 10 38  1  0
 11 39  1  0
 11 40  1  0
 12 41  1  0
 12 42  1  0
 13 43  1  6
 16 44  1  0
 17 45  1  0
 18 46  1  0
 20 47  1  0
 21 48  1  0
 23 49  1  0
 26 50  1  0
 27 51  1  0
M  END
>  <smiles>  (33) 
O=C(NCC(=O)N1CCCCC[C@H]1c1ncc[nH]1)c1ccc2cc(Cl)ccc2n1

>  <score_type>  (33) 
oracle

>  <origin>  (33) 
autodockgpu

>  <m_score__min__energy>  (33) 
-6.0300000000000002

>  <m_primary>  (33) 
energy

>  <rmsd>  (33) 
9.416154906627305

>  <m_score__min__rmsd>  (33) 
9.416154906627305

>  <meeko>  (33) 
{"free_energy": -3.67, "intermolecular_energy": -6.95, "internal_energy": -3.46, "cluster_size": 2, "cluster_id": 19, "rank_in_cluster": 2}

>  <energy>  (33) 
-4.72

>  <cluster_rmsd>  (33) 
0.0

>  <cluster>  (33) 
9

$$$$

     RDKit          3D

 51 54  0  0  0  0  0  0  0  0999 V2000
  141.8520   73.3580  221.0410 O   0  0  0  0  0  0  0  0  0  0  0  0
  140.9770   74.0810  221.5840 C   0  0  0  0  0  0  0  0  0  0  0  0
  139.9630   73.4010  222.3260 N   0  0  0  0  0  0  0  0  0  0  0  0
  140.0780   71.9390  222.3580 C   0  0  0  0  0  0  0  0  0  0  0  0
  139.3370   71.4730  223.5650 C   0  0  0  0  0  0  0  0  0  0  0  0
  138.1650   71.8960  223.7760 O   0  0  0  0  0  0  0  0  0  0  0  0
  139.9700   70.5590  224.4560 N   0  0  0  0  0  0  0  0  0  0  0  0
  140.9760   71.0920  225.3750 C   0  0  0  0  0  0  0  0  0  0  0  0
  140.3290   71.4510  226.7100 C   0  0  0  0  0  0  0  0  0  0  0  0
  140.0920   70.1910  227.5150 C   0  0  0  0  0  0  0  0  0  0  0  0
  139.2010   69.2000  226.8350 C   0  0  0  0  0  0  0  0  0  0  0  0
  139.8100   68.4850  225.6750 C   0  0  0  0  0  0  0  0  0  0  0  0
  139.5470   69.1800  224.3580 C   0  0  1  0  0  0  0  0  0  0  0  0
  138.1500   69.0350  223.9410 C   0  0  0  0  0  0  0  0  0  0  0  0
  137.7030   68.1550  223.0320 N   0  0  0  0  0  0  0  0  0  0  0  0
  136.3870   68.2780  222.8810 C   0  0  0  0  0  0  0  0  0  0  0  0
  135.9590   69.2880  223.7340 C   0  0  0  0  0  0  0  0  0  0  0  0
  137.0740   69.7150  224.3560 N   0  0  0  0  0  0  0  0  0  0  0  0
  140.9740   75.5380  221.4770 C   0  0  0  0  0  0  0  0  0  0  0  0
  140.9250   76.0830  220.2010 C   0  0  0  0  0  0  0  0  0  0  0  0
  140.9190   77.4530  219.9910 C   0  0  0  0  0  0  0  0  0  0  0  0
  140.9630   78.2500  221.1120 C   0  0  0  0  0  0  0  0  0  0  0  0
  140.9560   79.6160  220.9080 C   0  0  0  0  0  0  0  0  0  0  0  0
  140.9980   80.4550  222.0060 C   0  0  0  0  0  0  0  0  0  0  0  0
  140.9900   82.1720  221.7130 Cl  0  0  0  0  0  0  0  0  0  0  0  0
  141.0470   79.9030  223.2620 C   0  0  0  0  0  0  0  0  0  0  0  0
  141.0540   78.5280  223.4840 C   0  0  0  0  0  0  0  0  0  0  0  0
  141.0100   77.6900  222.3830 C   0  0  0  0  0  0  0  0  0  0  0  0
  141.0160   76.3450  222.5610 N   0  0  0  0  0  0  0  0  0  0  0  0
  139.1940   73.9120  222.8140 H   0  0  0  0  0  0  0  0  0  0  0  0
  139.6339   71.5046  221.4502 H   0  0  0  0  0  0  0  0  0  0  0  0
  141.1322   71.6276  222.3984 H   0  0  0  0  0  0  0  0  0  0  0  0
  141.7555   70.3338  225.5407 H   0  0  0  0  0  0  0  0  0  0  0  0
  141.4214   71.9969  224.9359 H   0  0  0  0  0  0  0  0  0  0  0  0
  140.9950   72.1235  227.2704 H   0  0  0  0  0  0  0  0  0  0  0  0
  139.3677   71.9533  226.5265 H   0  0  0  0  0  0  0  0  0  0  0  0
  141.0640   69.7117  227.7035 H   0  0  0  0  0  0  0  0  0  0  0  0
  139.5855   70.4938  228.4433 H   0  0  0  0  0  0  0  0  0  0  0  0
  138.9005   68.4471  227.5785 H   0  0  0  0  0  0  0  0  0  0  0  0
  138.3585   69.7781  226.4276 H   0  0  0  0  0  0  0  0  0  0  0  0
  140.8973   68.4247  225.8302 H   0  0  0  0  0  0  0  0  0  0  0  0
  139.3509   67.4868  225.6216 H   0  0  0  0  0  0  0  0  0  0  0  0
  140.1381   68.7002  223.5641 H   0  0  0  0  0  0  0  0  0  0  0  0
  135.7527   67.6873  222.2037 H   0  0  0  0  0  0  0  0  0  0  0  0
  134.9323   69.6582  223.8712 H   0  0  0  0  0  0  0  0  0  0  0  0
  137.0670   70.4820  225.0680 H   0  0  0  0  0  0  0  0  0  0  0  0
  140.8900   75.4088  219.3326 H   0  0  0  0  0  0  0  0  0  0  0  0
  140.8810   77.8818  218.9787 H   0  0  0  0  0  0  0  0  0  0  0  0
  140.9176   80.0293  219.8893 H   0  0  0  0  0  0  0  0  0  0  0  0
  141.0823   80.5762  224.1312 H   0  0  0  0  0  0  0  0  0  0  0  0
  141.0934   78.1198  224.5047 H   0  0  0  0  0  0  0  0  0  0  0  0
  1  2  2  0
  2  3  1  0
  3  4  1  0
  4  5  1  0
  5  6  2  0
  5  7  1  0
  7  8  1  0
  8  9  1  0
  9 10  1  0
 10 11  1  0
 11 12  1  0
 12 13  1  0
 13 14  1  0
 14 15  2  0
 15 16  1  0
 16 17  2  0
 17 18  1  0
  2 19  1  0
 19 20  2  0
 20 21  1  0
 21 22  2  0
 22 23  1  0
 23 24  2  0
 24 25  1  0
 24 26  1  0
 26 27  2  0
 27 28  1  0
 28 29  2  0
 13  7  1  0
 18 14  1  0
 29 19  1  0
 28 22  1  0
  3 30  1  0
  4 31  1  0
  4 32  1  0
  8 33  1  0
  8 34  1  0
  9 35  1  0
  9 36  1  0
 10 37  1  0
 10 38  1  0
 11 39  1  0
 11 40  1  0
 12 41  1  0
 12 42  1  0
 13 43  1  6
 16 44  1  0
 17 45  1  0
 18 46  1  0
 20 47  1  0
 21 48  1  0
 23 49  1  0
 26 50  1  0
 27 51  1  0
M  END
>  <smiles>  (34) 
O=C(NCC(=O)N1CCCCC[C@H]1c1ncc[nH]1)c1ccc2cc(Cl)ccc2n1

>  <score_type>  (34) 
oracle

>  <origin>  (34) 
autodockgpu

>  <m_score__min__energy>  (34) 
-6.0300000000000002

>  <m_primary>  (34) 
energy

>  <rmsd>  (34) 
9.209709459514874

>  <m_score__min__rmsd>  (34) 
9.209709459514874

>  <meeko>  (34) 
{"free_energy": -4.99, "intermolecular_energy": -8.27, "internal_energy": -2.26, "cluster_size": 5, "cluster_id": 4, "rank_in_cluster": 3}

>  <energy>  (34) 
-4.21

>  <cluster_rmsd>  (34) 
1.38

>  <cluster>  (34) 
9

$$$$

     RDKit          3D

 51 54  0  0  0  0  0  0  0  0999 V2000
  141.0880   73.6760  221.9400 O   0  0  0  0  0  0  0  0  0  0  0  0
  140.1540   72.8690  222.1840 C   0  0  0  0  0  0  0  0  0  0  0  0
  139.0300   72.9130  221.3020 N   0  0  0  0  0  0  0  0  0  0  0  0
  139.1170   73.9000  220.2200 C   0  0  0  0  0  0  0  0  0  0  0  0
  138.7760   75.2230  220.8140 C   0  0  0  0  0  0  0  0  0  0  0  0
  137.5730   75.4830  221.1030 O   0  0  0  0  0  0  0  0  0  0  0  0
  139.8170   76.1680  221.0440 N   0  0  0  0  0  0  0  0  0  0  0  0
  140.1360   76.5040  222.4320 C   0  0  0  0  0  0  0  0  0  0  0  0
  140.0120   78.0100  222.6480 C   0  0  0  0  0  0  0  0  0  0  0  0
  141.3170   78.6850  222.2820 C   0  0  0  0  0  0  0  0  0  0  0  0
  141.5840   78.7230  220.8110 C   0  0  0  0  0  0  0  0  0  0  0  0
  140.4740   78.2140  219.9500 C   0  0  0  0  0  0  0  0  0  0  0  0
  140.4600   76.7050  219.8650 C   0  0  1  0  0  0  0  0  0  0  0  0
  141.8040   76.1650  219.6450 C   0  0  0  0  0  0  0  0  0  0  0  0
  142.4650   76.1920  218.4790 N   0  0  0  0  0  0  0  0  0  0  0  0
  143.6600   75.6210  218.6130 C   0  0  0  0  0  0  0  0  0  0  0  0
  143.7780   75.2020  219.9330 C   0  0  0  0  0  0  0  0  0  0  0  0
  142.6180   75.5570  220.5170 N   0  0  0  0  0  0  0  0  0  0  0  0
  140.1900   71.9290  223.3010 C   0  0  0  0  0  0  0  0  0  0  0  0
  139.6910   70.6520  223.0760 C   0  0  0  0  0  0  0  0  0  0  0  0
  139.6790   69.6860  224.0700 C   0  0  0  0  0  0  0  0  0  0  0  0
  140.1880   70.0540  225.2950 C   0  0  0  0  0  0  0  0  0  0  0  0
  140.1790   69.0940  226.2880 C   0  0  0  0  0  0  0  0  0  0  0  0
  140.6810   69.4200  227.5340 C   0  0  0  0  0  0  0  0  0  0  0  0
  140.6540   68.1870  228.7650 Cl  0  0  0  0  0  0  0  0  0  0  0  0
  141.1710   70.6850  227.7440 C   0  0  0  0  0  0  0  0  0  0  0  0
  141.1870   71.6630  226.7520 C   0  0  0  0  0  0  0  0  0  0  0  0
  140.6850   71.3350  225.5050 C   0  0  0  0  0  0  0  0  0  0  0  0
  140.6840   72.2620  224.5150 N   0  0  0  0  0  0  0  0  0  0  0  0
  138.2060   72.2830  221.4200 H   0  0  0  0  0  0  0  0  0  0  0  0
  140.1369   73.9215  219.8085 H   0  0  0  0  0  0  0  0  0  0  0  0
  138.4292   73.6472  219.3996 H   0  0  0  0  0  0  0  0  0  0  0  0
  139.4380   75.9814  223.1026 H   0  0  0  0  0  0  0  0  0  0  0  0
  141.1681   76.1924  222.6502 H   0  0  0  0  0  0  0  0  0  0  0  0
  139.2049   78.4055  222.0139 H   0  0  0  0  0  0  0  0  0  0  0  0
  139.7814   78.2096  223.7049 H   0  0  0  0  0  0  0  0  0  0  0  0
  141.2899   79.7189  222.6566 H   0  0  0  0  0  0  0  0  0  0  0  0
  142.1236   78.0931  222.7393 H   0  0  0  0  0  0  0  0  0  0  0  0
  141.7828   79.7672  220.5280 H   0  0  0  0  0  0  0  0  0  0  0  0
  142.4375   78.0509  220.6380 H   0  0  0  0  0  0  0  0  0  0  0  0
  139.5159   78.5536  220.3705 H   0  0  0  0  0  0  0  0  0  0  0  0
  140.6286   78.6069  218.9343 H   0  0  0  0  0  0  0  0  0  0  0  0
  139.8742   76.3909  218.9886 H   0  0  0  0  0  0  0  0  0  0  0  0
  144.4163   75.5024  217.8231 H   0  0  0  0  0  0  0  0  0  0  0  0
  144.6334   74.6913  220.3993 H   0  0  0  0  0  0  0  0  0  0  0  0
  142.4120   75.3700  221.5260 H   0  0  0  0  0  0  0  0  0  0  0  0
  139.2944   70.4005  222.0813 H   0  0  0  0  0  0  0  0  0  0  0  0
  139.2826   68.6760  223.8891 H   0  0  0  0  0  0  0  0  0  0  0  0
  139.7796   68.0882  226.0909 H   0  0  0  0  0  0  0  0  0  0  0  0
  141.5681   70.9373  228.7383 H   0  0  0  0  0  0  0  0  0  0  0  0
  141.5873   72.6674  226.9543 H   0  0  0  0  0  0  0  0  0  0  0  0
  1  2  2  0
  2  3  1  0
  3  4  1  0
  4  5  1  0
  5  6  2  0
  5  7  1  0
  7  8  1  0
  8  9  1  0
  9 10  1  0
 10 11  1  0
 11 12  1  0
 12 13  1  0
 13 14  1  0
 14 15  2  0
 15 16  1  0
 16 17  2  0
 17 18  1  0
  2 19  1  0
 19 20  2  0
 20 21  1  0
 21 22  2  0
 22 23  1  0
 23 24  2  0
 24 25  1  0
 24 26  1  0
 26 27  2  0
 27 28  1  0
 28 29  2  0
 13  7  1  0
 18 14  1  0
 29 19  1  0
 28 22  1  0
  3 30  1  0
  4 31  1  0
  4 32  1  0
  8 33  1  0
  8 34  1  0
  9 35  1  0
  9 36  1  0
 10 37  1  0
 10 38  1  0
 11 39  1  0
 11 40  1  0
 12 41  1  0
 12 42  1  0
 13 43  1  6
 16 44  1  0
 17 45  1  0
 18 46  1  0
 20 47  1  0
 21 48  1  0
 23 49  1  0
 26 50  1  0
 27 51  1  0
M  END
>  <smiles>  (35) 
O=C(NCC(=O)N1CCCCC[C@H]1c1ncc[nH]1)c1ccc2cc(Cl)ccc2n1

>  <score_type>  (35) 
oracle

>  <origin>  (35) 
autodockgpu

>  <m_score__min__energy>  (35) 
-6.0300000000000002

>  <m_primary>  (35) 
energy

>  <rmsd>  (35) 
3.2488052049861107

>  <m_score__min__rmsd>  (35) 
3.2488052049861107

>  <meeko>  (35) 
{"free_energy": -4.68, "intermolecular_energy": -7.96, "internal_energy": -2.5, "cluster_size": 6, "cluster_id": 3, "rank_in_cluster": 6}

>  <energy>  (35) 
-4.5

>  <cluster_rmsd>  (35) 
0.0

>  <cluster>  (35) 
10

$$$$

     RDKit          3D

 51 54  0  0  0  0  0  0  0  0999 V2000
  138.0140   77.3670  221.2350 O   0  0  0  0  0  0  0  0  0  0  0  0
  137.8590   76.4630  222.0960 C   0  0  0  0  0  0  0  0  0  0  0  0
  138.8650   75.4490  222.1410 N   0  0  0  0  0  0  0  0  0  0  0  0
  139.9540   75.5980  221.1690 C   0  0  0  0  0  0  0  0  0  0  0  0
  140.8620   74.4320  221.3560 C   0  0  0  0  0  0  0  0  0  0  0  0
  140.6930   73.6650  222.3460 O   0  0  0  0  0  0  0  0  0  0  0  0
  141.9050   74.2070  220.4110 N   0  0  0  0  0  0  0  0  0  0  0  0
  141.8380   72.9900  219.6020 C   0  0  0  0  0  0  0  0  0  0  0  0
  142.5300   71.8400  220.3280 C   0  0  0  0  0  0  0  0  0  0  0  0
  144.0270   72.0630  220.3250 C   0  0  0  0  0  0  0  0  0  0  0  0
  144.4430   73.3430  219.6730 C   0  0  0  0  0  0  0  0  0  0  0  0
  144.2870   74.5650  220.5140 C   0  0  0  0  0  0  0  0  0  0  0  0
  142.9350   75.2200  220.3480 C   0  0  1  0  0  0  0  0  0  0  0  0
  142.8740   76.0290  219.1280 C   0  0  0  0  0  0  0  0  0  0  0  0
  141.9230   76.9330  218.8490 N   0  0  0  0  0  0  0  0  0  0  0  0
  142.1560   77.4950  217.6650 C   0  0  0  0  0  0  0  0  0  0  0  0
  143.3150   76.9260  217.1520 C   0  0  0  0  0  0  0  0  0  0  0  0
  143.7110   76.0390  218.0840 N   0  0  0  0  0  0  0  0  0  0  0  0
  136.7220   76.4280  223.0130 C   0  0  0  0  0  0  0  0  0  0  0  0
  135.9770   77.5920  223.1490 C   0  0  0  0  0  0  0  0  0  0  0  0
  134.8800   77.6630  223.9940 C   0  0  0  0  0  0  0  0  0  0  0  0
  134.5640   76.5210  224.6920 C   0  0  0  0  0  0  0  0  0  0  0  0
  133.4710   76.5870  225.5350 C   0  0  0  0  0  0  0  0  0  0  0  0
  133.1160   75.4630  226.2560 C   0  0  0  0  0  0  0  0  0  0  0  0
  131.7340   75.5800  227.3090 Cl  0  0  0  0  0  0  0  0  0  0  0  0
  133.8610   74.3180  226.1130 C   0  0  0  0  0  0  0  0  0  0  0  0
  134.9650   74.2360  225.2670 C   0  0  0  0  0  0  0  0  0  0  0  0
  135.3180   75.3630  224.5450 C   0  0  0  0  0  0  0  0  0  0  0  0
  136.3880   75.3190  223.7120 N   0  0  0  0  0  0  0  0  0  0  0  0
  138.8270   74.6580  222.8200 H   0  0  0  0  0  0  0  0  0  0  0  0
  139.5500   75.6029  220.1459 H   0  0  0  0  0  0  0  0  0  0  0  0
  140.4921   76.5451  221.3220 H   0  0  0  0  0  0  0  0  0  0  0  0
  140.7844   72.7277  219.4257 H   0  0  0  0  0  0  0  0  0  0  0  0
  142.3449   73.1671  218.6419 H   0  0  0  0  0  0  0  0  0  0  0  0
  142.1693   71.7929  221.3661 H   0  0  0  0  0  0  0  0  0  0  0  0
  142.3012   70.8944  219.8146 H   0  0  0  0  0  0  0  0  0  0  0  0
  144.3785   72.0739  221.3673 H   0  0  0  0  0  0  0  0  0  0  0  0
  144.4726   71.2448  219.7402 H   0  0  0  0  0  0  0  0  0  0  0  0
  145.5037   73.2543  219.3954 H   0  0  0  0  0  0  0  0  0  0  0  0
  143.7726   73.4782  218.8114 H   0  0  0  0  0  0  0  0  0  0  0  0
  144.4144   74.2839  221.5698 H   0  0  0  0  0  0  0  0  0  0  0  0
  145.0487   75.2897  220.1906 H   0  0  0  0  0  0  0  0  0  0  0  0
  142.7642   75.9268  221.1734 H   0  0  0  0  0  0  0  0  0  0  0  0
  141.5425   78.2691  217.1808 H   0  0  0  0  0  0  0  0  0  0  0  0
  143.8032   77.1514  216.1924 H   0  0  0  0  0  0  0  0  0  0  0  0
  144.5690   75.4490  217.9760 H   0  0  0  0  0  0  0  0  0  0  0  0
  136.2651   78.4821  222.5705 H   0  0  0  0  0  0  0  0  0  0  0  0
  134.2920   78.5865  224.1007 H   0  0  0  0  0  0  0  0  0  0  0  0
  132.8935   77.5183  225.6304 H   0  0  0  0  0  0  0  0  0  0  0  0
  133.5737   73.4275  226.6913 H   0  0  0  0  0  0  0  0  0  0  0  0
  135.5396   73.3025  225.1755 H   0  0  0  0  0  0  0  0  0  0  0  0
  1  2  2  0
  2  3  1  0
  3  4  1  0
  4  5  1  0
  5  6  2  0
  5  7  1  0
  7  8  1  0
  8  9  1  0
  9 10  1  0
 10 11  1  0
 11 12  1  0
 12 13  1  0
 13 14  1  0
 14 15  2  0
 15 16  1  0
 16 17  2  0
 17 18  1  0
  2 19  1  0
 19 20  2  0
 20 21  1  0
 21 22  2  0
 22 23  1  0
 23 24  2  0
 24 25  1  0
 24 26  1  0
 26 27  2  0
 27 28  1  0
 28 29  2  0
 13  7  1  0
 18 14  1  0
 29 19  1  0
 28 22  1  0
  3 30  1  0
  4 31  1  0
  4 32  1  0
  8 33  1  0
  8 34  1  0
  9 35  1  0
  9 36  1  0
 10 37  1  0
 10 38  1  0
 11 39  1  0
 11 40  1  0
 12 41  1  0
 12 42  1  0
 13 43  1  1
 16 44  1  0
 17 45  1  0
 18 46  1  0
 20 47  1  0
 21 48  1  0
 23 49  1  0
 26 50  1  0
 27 51  1  0
M  END
>  <smiles>  (36) 
O=C(NCC(=O)N1CCCCC[C@H]1c1ncc[nH]1)c1ccc2cc(Cl)ccc2n1

>  <score_type>  (36) 
oracle

>  <origin>  (36) 
autodockgpu

>  <m_score__min__energy>  (36) 
-6.0300000000000002

>  <m_primary>  (36) 
energy

>  <rmsd>  (36) 
6.417980245794219

>  <m_score__min__rmsd>  (36) 
6.417980245794219

>  <meeko>  (36) 
{"free_energy": -4.49, "intermolecular_energy": -7.77, "internal_energy": -2.21, "cluster_size": 1, "cluster_id": 11, "rank_in_cluster": 1}

>  <energy>  (36) 
-4.12

>  <cluster_rmsd>  (36) 
1.59

>  <cluster>  (36) 
10

$$$$

     RDKit          3D

 51 54  0  0  0  0  0  0  0  0999 V2000
  134.9900   75.6220  221.9540 O   0  0  0  0  0  0  0  0  0  0  0  0
  136.1680   75.4460  222.3600 C   0  0  0  0  0  0  0  0  0  0  0  0
  136.5420   74.1000  222.6600 N   0  0  0  0  0  0  0  0  0  0  0  0
  135.4960   73.0930  222.4520 C   0  0  0  0  0  0  0  0  0  0  0  0
  135.3260   72.3730  223.7460 C   0  0  0  0  0  0  0  0  0  0  0  0
  136.3240   72.2140  224.5040 O   0  0  0  0  0  0  0  0  0  0  0  0
  134.0370   71.8790  224.0990 N   0  0  0  0  0  0  0  0  0  0  0  0
  133.4550   70.8330  223.2580 C   0  0  0  0  0  0  0  0  0  0  0  0
  133.3260   69.5350  224.0510 C   0  0  0  0  0  0  0  0  0  0  0  0
  134.2460   69.5800  225.2520 C   0  0  0  0  0  0  0  0  0  0  0  0
  133.6540   70.2720  226.4390 C   0  0  0  0  0  0  0  0  0  0  0  0
  133.9040   71.7400  226.5030 C   0  0  0  0  0  0  0  0  0  0  0  0
  133.4280   72.4730  225.2690 C   0  0  1  0  0  0  0  0  0  0  0  0
  133.6660   73.9150  225.3740 C   0  0  0  0  0  0  0  0  0  0  0  0
  133.8420   74.5870  226.5210 N   0  0  0  0  0  0  0  0  0  0  0  0
  134.0350   75.8800  226.2720 C   0  0  0  0  0  0  0  0  0  0  0  0
  133.9810   76.0540  224.8950 C   0  0  0  0  0  0  0  0  0  0  0  0
  133.7530   74.8250  224.3960 N   0  0  0  0  0  0  0  0  0  0  0  0
  137.1210   76.5410  222.5260 C   0  0  0  0  0  0  0  0  0  0  0  0
  136.6020   77.8050  222.7730 C   0  0  0  0  0  0  0  0  0  0  0  0
  137.4210   78.9100  222.9440 C   0  0  0  0  0  0  0  0  0  0  0  0
  138.7770   78.6930  222.8580 C   0  0  0  0  0  0  0  0  0  0  0  0
  139.5980   79.7920  223.0290 C   0  0  0  0  0  0  0  0  0  0  0  0
  140.9670   79.6200  222.9510 C   0  0  0  0  0  0  0  0  0  0  0  0
  141.9720   81.0260  223.1700 Cl  0  0  0  0  0  0  0  0  0  0  0  0
  141.4660   78.3650  222.7060 C   0  0  0  0  0  0  0  0  0  0  0  0
  140.6530   77.2480  222.5320 C   0  0  0  0  0  0  0  0  0  0  0  0
  139.2820   77.4220  222.6110 C   0  0  0  0  0  0  0  0  0  0  0  0
  138.4590   76.3570  222.4470 N   0  0  0  0  0  0  0  0  0  0  0  0
  137.4960   73.8520  223.0030 H   0  0  0  0  0  0  0  0  0  0  0  0
  134.5532   73.5807  222.1636 H   0  0  0  0  0  0  0  0  0  0  0  0
  135.7738   72.3967  221.6470 H   0  0  0  0  0  0  0  0  0  0  0  0
  132.4589   71.1520  222.9174 H   0  0  0  0  0  0  0  0  0  0  0  0
  134.1096   70.6620  222.3907 H   0  0  0  0  0  0  0  0  0  0  0  0
  132.2866   69.4152  224.3904 H   0  0  0  0  0  0  0  0  0  0  0  0
  133.6042   68.6859  223.4094 H   0  0  0  0  0  0  0  0  0  0  0  0
  134.4922   68.5472  225.5395 H   0  0  0  0  0  0  0  0  0  0  0  0
  135.1343   70.1566  224.9544 H   0  0  0  0  0  0  0  0  0  0  0  0
  132.5659   70.1119  226.4195 H   0  0  0  0  0  0  0  0  0  0  0  0
  134.1441   69.8383  227.3232 H   0  0  0  0  0  0  0  0  0  0  0  0
  133.3773   72.1478  227.3784 H   0  0  0  0  0  0  0  0  0  0  0  0
  134.9919   71.8865  226.5745 H   0  0  0  0  0  0  0  0  0  0  0  0
  132.3375   72.3652  225.1732 H   0  0  0  0  0  0  0  0  0  0  0  0
  134.2062   76.6677  227.0205 H   0  0  0  0  0  0  0  0  0  0  0  0
  134.0990   76.9928  224.3340 H   0  0  0  0  0  0  0  0  0  0  0  0
  133.6620   74.6380  223.3700 H   0  0  0  0  0  0  0  0  0  0  0  0
  135.5112   77.9328  222.8346 H   0  0  0  0  0  0  0  0  0  0  0  0
  137.0076   79.9106  223.1388 H   0  0  0  0  0  0  0  0  0  0  0  0
  139.1691   80.7860  223.2238 H   0  0  0  0  0  0  0  0  0  0  0  0
  142.5567   78.2359  222.6444 H   0  0  0  0  0  0  0  0  0  0  0  0
  141.0875   76.2564  222.3375 H   0  0  0  0  0  0  0  0  0  0  0  0
  1  2  2  0
  2  3  1  0
  3  4  1  0
  4  5  1  0
  5  6  2  0
  5  7  1  0
  7  8  1  0
  8  9  1  0
  9 10  1  0
 10 11  1  0
 11 12  1  0
 12 13  1  0
 13 14  1  0
 14 15  2  0
 15 16  1  0
 16 17  2  0
 17 18  1  0
  2 19  1  0
 19 20  2  0
 20 21  1  0
 21 22  2  0
 22 23  1  0
 23 24  2  0
 24 25  1  0
 24 26  1  0
 26 27  2  0
 27 28  1  0
 28 29  2  0
 13  7  1  0
 18 14  1  0
 29 19  1  0
 28 22  1  0
  3 30  1  0
  4 31  1  0
  4 32  1  0
  8 33  1  0
  8 34  1  0
  9 35  1  0
  9 36  1  0
 10 37  1  0
 10 38  1  0
 11 39  1  0
 11 40  1  0
 12 41  1  0
 12 42  1  0
 13 43  1  6
 16 44  1  0
 17 45  1  0
 18 46  1  0
 20 47  1  0
 21 48  1  0
 23 49  1  0
 26 50  1  0
 27 51  1  0
M  END
>  <smiles>  (37) 
O=C(NCC(=O)N1CCCCC[C@H]1c1ncc[nH]1)c1ccc2cc(Cl)ccc2n1

>  <score_type>  (37) 
oracle

>  <origin>  (37) 
autodockgpu

>  <m_score__min__energy>  (37) 
-6.0300000000000002

>  <m_primary>  (37) 
energy

>  <rmsd>  (37) 
9.042085645614154

>  <m_score__min__rmsd>  (37) 
9.042085645614154

>  <meeko>  (37) 
{"free_energy": -3.61, "intermolecular_energy": -6.89, "internal_energy": -2.87, "cluster_size": 2, "cluster_id": 13, "rank_in_cluster": 2}

>  <energy>  (37) 
-4.49

>  <cluster_rmsd>  (37) 
0.0

>  <cluster>  (37) 
11

$$$$

     RDKit          3D

 51 54  0  0  0  0  0  0  0  0999 V2000
  141.8870   72.7530  221.2310 O   0  0  0  0  0  0  0  0  0  0  0  0
  141.0330   73.5790  221.6460 C   0  0  0  0  0  0  0  0  0  0  0  0
  139.8900   73.0340  222.3080 N   0  0  0  0  0  0  0  0  0  0  0  0
  139.8640   71.5710  222.4180 C   0  0  0  0  0  0  0  0  0  0  0  0
  139.3250   71.2500  223.7700 C   0  0  0  0  0  0  0  0  0  0  0  0
  138.2660   71.8130  224.1660 O   0  0  0  0  0  0  0  0  0  0  0  0
  140.0190   70.3110  224.5870 N   0  0  0  0  0  0  0  0  0  0  0  0
  141.1780   70.7900  225.3390 C   0  0  0  0  0  0  0  0  0  0  0  0
  140.7410   71.2800  226.7180 C   0  0  0  0  0  0  0  0  0  0  0  0
  140.4380   70.0930  227.6060 C   0  0  0  0  0  0  0  0  0  0  0  0
  139.3640   69.2000  227.0730 C   0  0  0  0  0  0  0  0  0  0  0  0
  139.7690   68.3240  225.9300 C   0  0  0  0  0  0  0  0  0  0  0  0
  139.4980   68.9620  224.5860 C   0  0  1  0  0  0  0  0  0  0  0  0
  138.0780   68.8930  224.2330 C   0  0  0  0  0  0  0  0  0  0  0  0
  137.0650   69.2520  225.0350 N   0  0  0  0  0  0  0  0  0  0  0  0
  135.9000   69.0680  224.4180 C   0  0  0  0  0  0  0  0  0  0  0  0
  136.1730   68.5640  223.1520 C   0  0  0  0  0  0  0  0  0  0  0  0
  137.5150   68.4760  223.0920 N   0  0  0  0  0  0  0  0  0  0  0  0
  141.1780   75.0230  221.4730 C   0  0  0  0  0  0  0  0  0  0  0  0
  141.8780   75.4640  220.3580 C   0  0  0  0  0  0  0  0  0  0  0  0
  142.0710   76.8130  220.1030 C   0  0  0  0  0  0  0  0  0  0  0  0
  141.5340   77.6960  221.0110 C   0  0  0  0  0  0  0  0  0  0  0  0
  141.7240   79.0420  220.7600 C   0  0  0  0  0  0  0  0  0  0  0  0
  141.2010   79.9650  221.6460 C   0  0  0  0  0  0  0  0  0  0  0  0
  141.4590   81.6530  221.3010 Cl  0  0  0  0  0  0  0  0  0  0  0  0
  140.5110   79.5160  222.7450 C   0  0  0  0  0  0  0  0  0  0  0  0
  140.3110   78.1630  223.0100 C   0  0  0  0  0  0  0  0  0  0  0  0
  140.8350   77.2400  222.1220 C   0  0  0  0  0  0  0  0  0  0  0  0
  140.6600   75.9140  222.3490 N   0  0  0  0  0  0  0  0  0  0  0  0
  139.1280   73.6370  222.6880 H   0  0  0  0  0  0  0  0  0  0  0  0
  139.2138   71.1443  221.6401 H   0  0  0  0  0  0  0  0  0  0  0  0
  140.8702   71.1473  222.2836 H   0  0  0  0  0  0  0  0  0  0  0  0
  141.9005   69.9689  225.4565 H   0  0  0  0  0  0  0  0  0  0  0  0
  141.6442   71.6224  224.7915 H   0  0  0  0  0  0  0  0  0  0  0  0
  141.5485   71.8766  227.1673 H   0  0  0  0  0  0  0  0  0  0  0  0
  139.8380   71.8999  226.6161 H   0  0  0  0  0  0  0  0  0  0  0  0
  141.3578   69.5003  227.7187 H   0  0  0  0  0  0  0  0  0  0  0  0
  140.0756   70.4937  228.5642 H   0  0  0  0  0  0  0  0  0  0  0  0
  139.0229   68.5517  227.8936 H   0  0  0  0  0  0  0  0  0  0  0  0
  138.5807   69.8663  226.6826 H   0  0  0  0  0  0  0  0  0  0  0  0
  140.8460   68.1149  226.0103 H   0  0  0  0  0  0  0  0  0  0  0  0
  139.1721   67.4019  225.9883 H   0  0  0  0  0  0  0  0  0  0  0  0
  140.0201   68.3987  223.7985 H   0  0  0  0  0  0  0  0  0  0  0  0
  134.9034   69.2767  224.8341 H   0  0  0  0  0  0  0  0  0  0  0  0
  135.4492   68.2952  222.3685 H   0  0  0  0  0  0  0  0  0  0  0  0
  138.0220   68.1250  222.2470 H   0  0  0  0  0  0  0  0  0  0  0  0
  142.2908   74.7228  219.6578 H   0  0  0  0  0  0  0  0  0  0  0  0
  142.6258   77.1600  219.2188 H   0  0  0  0  0  0  0  0  0  0  0  0
  142.2814   79.3726  219.8711 H   0  0  0  0  0  0  0  0  0  0  0  0
  140.0985   80.2564  223.4462 H   0  0  0  0  0  0  0  0  0  0  0  0
  139.7524   77.8376  223.8999 H   0  0  0  0  0  0  0  0  0  0  0  0
  1  2  2  0
  2  3  1  0
  3  4  1  0
  4  5  1  0
  5  6  2  0
  5  7  1  0
  7  8  1  0
  8  9  1  0
  9 10  1  0
 10 11  1  0
 11 12  1  0
 12 13  1  0
 13 14  1  0
 14 15  2  0
 15 16  1  0
 16 17  2  0
 17 18  1  0
  2 19  1  0
 19 20  2  0
 20 21  1  0
 21 22  2  0
 22 23  1  0
 23 24  2  0
 24 25  1  0
 24 26  1  0
 26 27  2  0
 27 28  1  0
 28 29  2  0
 13  7  1  0
 18 14  1  0
 29 19  1  0
 28 22  1  0
  3 30  1  0
  4 31  1  0
  4 32  1  0
  8 33  1  0
  8 34  1  0
  9 35  1  0
  9 36  1  0
 10 37  1  0
 10 38  1  0
 11 39  1  0
 11 40  1  0
 12 41  1  0
 12 42  1  0
 13 43  1  6
 16 44  1  0
 17 45  1  0
 18 46  1  0
 20 47  1  0
 21 48  1  0
 23 49  1  0
 26 50  1  0
 27 51  1  0
M  END
>  <smiles>  (38) 
O=C(NCC(=O)N1CCCCC[C@H]1c1ncc[nH]1)c1ccc2cc(Cl)ccc2n1

>  <score_type>  (38) 
oracle

>  <origin>  (38) 
autodockgpu

>  <m_score__min__energy>  (38) 
-6.0300000000000002

>  <m_primary>  (38) 
energy

>  <rmsd>  (38) 
9.233226329237732

>  <m_score__min__rmsd>  (38) 
9.233226329237732

>  <meeko>  (38) 
{"free_energy": -4.98, "intermolecular_energy": -8.26, "internal_energy": -1.91, "cluster_size": 5, "cluster_id": 4, "rank_in_cluster": 4}

>  <energy>  (38) 
-4.44

>  <cluster_rmsd>  (38) 
0.0

>  <cluster>  (38) 
12

$$$$

     RDKit          3D

 51 54  0  0  0  0  0  0  0  0999 V2000
  139.7860   72.2280  220.7000 O   0  0  0  0  0  0  0  0  0  0  0  0
  139.6930   72.6460  221.8830 C   0  0  0  0  0  0  0  0  0  0  0  0
  139.4110   74.0370  222.0460 N   0  0  0  0  0  0  0  0  0  0  0  0
  139.2650   74.8000  220.8010 C   0  0  0  0  0  0  0  0  0  0  0  0
  139.0480   76.2230  221.1890 C   0  0  0  0  0  0  0  0  0  0  0  0
  137.8690   76.6530  221.3380 O   0  0  0  0  0  0  0  0  0  0  0  0
  140.1790   77.0680  221.3850 N   0  0  0  0  0  0  0  0  0  0  0  0
  140.7570   77.1300  222.7270 C   0  0  0  0  0  0  0  0  0  0  0  0
  140.6160   78.5400  223.2930 C   0  0  0  0  0  0  0  0  0  0  0  0
  141.8290   79.3630  222.9170 C   0  0  0  0  0  0  0  0  0  0  0  0
  142.0780   79.4290  221.4440 C   0  0  0  0  0  0  0  0  0  0  0  0
  140.8720   79.2350  220.5860 C   0  0  0  0  0  0  0  0  0  0  0  0
  140.6440   77.7860  220.2190 C   0  0  1  0  0  0  0  0  0  0  0  0
  141.8360   77.1890  219.6120 C   0  0  0  0  0  0  0  0  0  0  0  0
  142.2510   77.4020  218.3540 N   0  0  0  0  0  0  0  0  0  0  0  0
  143.3640   76.7140  218.1140 C   0  0  0  0  0  0  0  0  0  0  0  0
  143.6870   76.0210  219.2740 C   0  0  0  0  0  0  0  0  0  0  0  0
  142.7230   76.3460  220.1550 N   0  0  0  0  0  0  0  0  0  0  0  0
  139.8590   71.7770  223.0460 C   0  0  0  0  0  0  0  0  0  0  0  0
  139.4420   70.4590  222.9210 C   0  0  0  0  0  0  0  0  0  0  0  0
  139.5560   69.5540  223.9650 C   0  0  0  0  0  0  0  0  0  0  0  0
  140.1060   70.0270  225.1350 C   0  0  0  0  0  0  0  0  0  0  0  0
  140.2220   69.1290  226.1780 C   0  0  0  0  0  0  0  0  0  0  0  0
  140.7690   69.5610  227.3720 C   0  0  0  0  0  0  0  0  0  0  0  0
  140.9000   68.4030  228.6670 Cl  0  0  0  0  0  0  0  0  0  0  0  0
  141.1770   70.8670  227.4830 C   0  0  0  0  0  0  0  0  0  0  0  0
  141.0660   71.7840  226.4400 C   0  0  0  0  0  0  0  0  0  0  0  0
  140.5190   71.3490  225.2450 C   0  0  0  0  0  0  0  0  0  0  0  0
  140.3960   72.2150  224.2080 N   0  0  0  0  0  0  0  0  0  0  0  0
  139.3140   74.4790  222.9860 H   0  0  0  0  0  0  0  0  0  0  0  0
  140.1765   74.7086  220.1921 H   0  0  0  0  0  0  0  0  0  0  0  0
  138.4225   74.4216  220.2034 H   0  0  0  0  0  0  0  0  0  0  0  0
  140.2315   76.4203  223.3828 H   0  0  0  0  0  0  0  0  0  0  0  0
  141.8241   76.8686  222.6723 H   0  0  0  0  0  0  0  0  0  0  0  0
  139.7119   79.0112  222.8801 H   0  0  0  0  0  0  0  0  0  0  0  0
  140.5366   78.4869  224.3888 H   0  0  0  0  0  0  0  0  0  0  0  0
  141.6831   80.3872  223.2907 H   0  0  0  0  0  0  0  0  0  0  0  0
  142.7033   78.8717  223.3690 H   0  0  0  0  0  0  0  0  0  0  0  0
  142.5033   80.4172  221.2148 H   0  0  0  0  0  0  0  0  0  0  0  0
  142.7555   78.5942  221.2113 H   0  0  0  0  0  0  0  0  0  0  0  0
  139.9899   79.6031  221.1304 H   0  0  0  0  0  0  0  0  0  0  0  0
  141.0355   79.7926  219.6520 H   0  0  0  0  0  0  0  0  0  0  0  0
  139.8625   77.7201  219.4477 H   0  0  0  0  0  0  0  0  0  0  0  0
  143.9264   76.6969  217.1688 H   0  0  0  0  0  0  0  0  0  0  0  0
  144.5447   75.3518  219.4370 H   0  0  0  0  0  0  0  0  0  0  0  0
  142.6980   75.9710  221.1320 H   0  0  0  0  0  0  0  0  0  0  0  0
  139.0091   70.1233  221.9671 H   0  0  0  0  0  0  0  0  0  0  0  0
  139.2236   68.5103  223.8636 H   0  0  0  0  0  0  0  0  0  0  0  0
  139.8851   68.0884  226.0607 H   0  0  0  0  0  0  0  0  0  0  0  0
  141.6102   71.2040  228.4363 H   0  0  0  0  0  0  0  0  0  0  0  0
  141.4033   72.8238  226.5625 H   0  0  0  0  0  0  0  0  0  0  0  0
  1  2  2  0
  2  3  1  0
  3  4  1  0
  4  5  1  0
  5  6  2  0
  5  7  1  0
  7  8  1  0
  8  9  1  0
  9 10  1  0
 10 11  1  0
 11 12  1  0
 12 13  1  0
 13 14  1  0
 14 15  2  0
 15 16  1  0
 16 17  2  0
 17 18  1  0
  2 19  1  0
 19 20  2  0
 20 21  1  0
 21 22  2  0
 22 23  1  0
 23 24  2  0
 24 25  1  0
 24 26  1  0
 26 27  2  0
 27 28  1  0
 28 29  2  0
 13  7  1  0
 18 14  1  0
 29 19  1  0
 28 22  1  0
  3 30  1  0
  4 31  1  0
  4 32  1  0
  8 33  1  0
  8 34  1  0
  9 35  1  0
  9 36  1  0
 10 37  1  0
 10 38  1  0
 11 39  1  0
 11 40  1  0
 12 41  1  0
 12 42  1  0
 13 43  1  6
 16 44  1  0
 17 45  1  0
 18 46  1  0
 20 47  1  0
 21 48  1  0
 23 49  1  0
 26 50  1  0
 27 51  1  0
M  END
>  <smiles>  (39) 
O=C(NCC(=O)N1CCCCC[C@H]1c1ncc[nH]1)c1ccc2cc(Cl)ccc2n1

>  <score_type>  (39) 
oracle

>  <origin>  (39) 
autodockgpu

>  <m_score__min__energy>  (39) 
-6.0300000000000002

>  <m_primary>  (39) 
energy

>  <rmsd>  (39) 
3.401754055944992

>  <m_score__min__rmsd>  (39) 
3.401754055944992

>  <meeko>  (39) 
{"free_energy": -5.53, "intermolecular_energy": -8.81, "internal_energy": -1.7, "cluster_size": 6, "cluster_id": 3, "rank_in_cluster": 1}

>  <energy>  (39) 
-4.39

>  <cluster_rmsd>  (39) 
0.0

>  <cluster>  (39) 
13

$$$$

     RDKit          3D

 51 54  0  0  0  0  0  0  0  0999 V2000
  136.8070   70.9760  221.4780 O   0  0  0  0  0  0  0  0  0  0  0  0
  137.6270   71.6880  222.1130 C   0  0  0  0  0  0  0  0  0  0  0  0
  137.7740   73.0380  221.6690 N   0  0  0  0  0  0  0  0  0  0  0  0
  136.9420   73.4180  220.5220 C   0  0  0  0  0  0  0  0  0  0  0  0
  137.6720   74.4980  219.7990 C   0  0  0  0  0  0  0  0  0  0  0  0
  138.1970   74.2490  218.6770 O   0  0  0  0  0  0  0  0  0  0  0  0
  137.7590   75.7910  220.3920 N   0  0  0  0  0  0  0  0  0  0  0  0
  136.6740   76.7360  220.1260 C   0  0  0  0  0  0  0  0  0  0  0  0
  135.5290   76.5080  221.1090 C   0  0  0  0  0  0  0  0  0  0  0  0
  136.0350   76.6720  222.5260 C   0  0  0  0  0  0  0  0  0  0  0  0
  137.1150   75.7050  222.8960 C   0  0  0  0  0  0  0  0  0  0  0  0
  138.5070   76.1810  222.6510 C   0  0  0  0  0  0  0  0  0  0  0  0
  138.9280   76.0390  221.2060 C   0  0  1  0  0  0  0  0  0  0  0  0
  139.9680   75.0190  221.0460 C   0  0  0  0  0  0  0  0  0  0  0  0
  140.5440   74.3400  222.0490 N   0  0  0  0  0  0  0  0  0  0  0  0
  141.4480   73.4890  221.5690 C   0  0  0  0  0  0  0  0  0  0  0  0
  141.4590   73.6240  220.1870 C   0  0  0  0  0  0  0  0  0  0  0  0
  140.5380   74.5700  219.9210 N   0  0  0  0  0  0  0  0  0  0  0  0
  138.3990   71.1860  223.2470 C   0  0  0  0  0  0  0  0  0  0  0  0
  139.5310   71.9020  223.6140 C   0  0  0  0  0  0  0  0  0  0  0  0
  140.3320   71.5100  224.6750 C   0  0  0  0  0  0  0  0  0  0  0  0
  139.9500   70.3740  225.3500 C   0  0  0  0  0  0  0  0  0  0  0  0
  140.7450   69.9800  226.4090 C   0  0  0  0  0  0  0  0  0  0  0  0
  140.3980   68.8440  227.1170 C   0  0  0  0  0  0  0  0  0  0  0  0
  141.4230   68.3740  228.4450 Cl  0  0  0  0  0  0  0  0  0  0  0  0
  139.2780   68.1440  226.7430 C   0  0  0  0  0  0  0  0  0  0  0  0
  138.4660   68.5300  225.6790 C   0  0  0  0  0  0  0  0  0  0  0  0
  138.8140   69.6680  224.9730 C   0  0  0  0  0  0  0  0  0  0  0  0
  138.0470   70.0720  223.9300 N   0  0  0  0  0  0  0  0  0  0  0  0
  138.4280   73.7060  222.1310 H   0  0  0  0  0  0  0  0  0  0  0  0
  136.7927   72.5528  219.8594 H   0  0  0  0  0  0  0  0  0  0  0  0
  135.9508   73.7635  220.8508 H   0  0  0  0  0  0  0  0  0  0  0  0
  137.0505   77.7635  220.2377 H   0  0  0  0  0  0  0  0  0  0  0  0
  136.3053   76.5825  219.1011 H   0  0  0  0  0  0  0  0  0  0  0  0
  134.7314   77.2411  220.9181 H   0  0  0  0  0  0  0  0  0  0  0  0
  135.1331   75.4901  220.9784 H   0  0  0  0  0  0  0  0  0  0  0  0
  136.4299   77.6926  222.6376 H   0  0  0  0  0  0  0  0  0  0  0  0
  135.1846   76.4748  223.1953 H   0  0  0  0  0  0  0  0  0  0  0  0
  137.0166   75.4793  223.9681 H   0  0  0  0  0  0  0  0  0  0  0  0
  136.9743   74.8283  222.2467 H   0  0  0  0  0  0  0  0  0  0  0  0
  138.5704   77.2423  222.9330 H   0  0  0  0  0  0  0  0  0  0  0  0
  139.1819   75.5575  223.2558 H   0  0  0  0  0  0  0  0  0  0  0  0
  139.3859   76.9780  220.8616 H   0  0  0  0  0  0  0  0  0  0  0  0
  142.0729   72.8032  222.1599 H   0  0  0  0  0  0  0  0  0  0  0  0
  142.0842   73.0770  219.4660 H   0  0  0  0  0  0  0  0  0  0  0  0
  140.3190   74.8900  218.9490 H   0  0  0  0  0  0  0  0  0  0  0  0
  139.7994   72.8055  223.0468 H   0  0  0  0  0  0  0  0  0  0  0  0
  141.2284   72.0789  224.9629 H   0  0  0  0  0  0  0  0  0  0  0  0
  141.6384   70.5598  226.6841 H   0  0  0  0  0  0  0  0  0  0  0  0
  139.0101   67.2390  227.3080 H   0  0  0  0  0  0  0  0  0  0  0  0
  137.5736   67.9468  225.4078 H   0  0  0  0  0  0  0  0  0  0  0  0
  1  2  2  0
  2  3  1  0
  3  4  1  0
  4  5  1  0
  5  6  2  0
  5  7  1  0
  7  8  1  0
  8  9  1  0
  9 10  1  0
 10 11  1  0
 11 12  1  0
 12 13  1  0
 13 14  1  0
 14 15  2  0
 15 16  1  0
 16 17  2  0
 17 18  1  0
  2 19  1  0
 19 20  2  0
 20 21  1  0
 21 22  2  0
 22 23  1  0
 23 24  2  0
 24 25  1  0
 24 26  1  0
 26 27  2  0
 27 28  1  0
 28 29  2  0
 13  7  1  0
 18 14  1  0
 29 19  1  0
 28 22  1  0
  3 30  1  0
  4 31  1  0
  4 32  1  0
  8 33  1  0
  8 34  1  0
  9 35  1  0
  9 36  1  0
 10 37  1  0
 10 38  1  0
 11 39  1  0
 11 40  1  0
 12 41  1  0
 12 42  1  0
 13 43  1  6
 16 44  1  0
 17 45  1  0
 18 46  1  0
 20 47  1  0
 21 48  1  0
 23 49  1  0
 26 50  1  0
 27 51  1  0
M  END
>  <smiles>  (40) 
O=C(NCC(=O)N1CCCCC[C@H]1c1ncc[nH]1)c1ccc2cc(Cl)ccc2n1

>  <score_type>  (40) 
oracle

>  <origin>  (40) 
autodockgpu

>  <m_score__min__energy>  (40) 
-6.0300000000000002

>  <m_primary>  (40) 
energy

>  <rmsd>  (40) 
4.127016068176845

>  <m_score__min__rmsd>  (40) 
4.127016068176845

>  <meeko>  (40) 
{"free_energy": -3.47, "intermolecular_energy": -6.75, "internal_energy": -3.13, "cluster_size": 2, "cluster_id": 15, "rank_in_cluster": 2}

>  <energy>  (40) 
-3.61

>  <cluster_rmsd>  (40) 
0.92

>  <cluster>  (40) 
13

$$$$

     RDKit          3D

 51 54  0  0  0  0  0  0  0  0999 V2000
  140.5020   72.0630  221.0040 O   0  0  0  0  0  0  0  0  0  0  0  0
  139.9540   72.3570  222.0980 C   0  0  0  0  0  0  0  0  0  0  0  0
  139.2290   73.5870  222.1350 N   0  0  0  0  0  0  0  0  0  0  0  0
  139.2190   74.3510  220.8820 C   0  0  0  0  0  0  0  0  0  0  0  0
  140.3560   75.3120  220.9540 C   0  0  0  0  0  0  0  0  0  0  0  0
  141.1110   75.3060  221.9670 O   0  0  0  0  0  0  0  0  0  0  0  0
  140.5650   76.2190  219.8750 N   0  0  0  0  0  0  0  0  0  0  0  0
  139.4490   77.0820  219.4860 C   0  0  0  0  0  0  0  0  0  0  0  0
  139.3690   78.2870  220.4190 C   0  0  0  0  0  0  0  0  0  0  0  0
  140.7520   78.8640  220.6240 C   0  0  0  0  0  0  0  0  0  0  0  0
  141.6610   78.6820  219.4510 C   0  0  0  0  0  0  0  0  0  0  0  0
  142.5780   77.5030  219.5400 C   0  0  0  0  0  0  0  0  0  0  0  0
  141.8770   76.1910  219.2670 C   0  0  1  0  0  0  0  0  0  0  0  0
  142.6860   75.0480  219.6960 C   0  0  0  0  0  0  0  0  0  0  0  0
  143.9600   75.1160  220.1110 N   0  0  0  0  0  0  0  0  0  0  0  0
  144.4060   73.9030  220.4280 C   0  0  0  0  0  0  0  0  0  0  0  0
  143.3700   73.0040  220.2080 C   0  0  0  0  0  0  0  0  0  0  0  0
  142.3450   73.7550  219.7620 N   0  0  0  0  0  0  0  0  0  0  0  0
  140.0380   71.5030  223.2810 C   0  0  0  0  0  0  0  0  0  0  0  0
  139.5710   70.2010  223.1620 C   0  0  0  0  0  0  0  0  0  0  0  0
  139.6060   69.3120  224.2250 C   0  0  0  0  0  0  0  0  0  0  0  0
  140.1280   69.7840  225.4080 C   0  0  0  0  0  0  0  0  0  0  0  0
  140.1660   68.9010  226.4700 C   0  0  0  0  0  0  0  0  0  0  0  0
  140.6830   69.3320  227.6770 C   0  0  0  0  0  0  0  0  0  0  0  0
  140.7140   68.1950  228.9960 Cl  0  0  0  0  0  0  0  0  0  0  0  0
  141.1410   70.6220  227.7810 C   0  0  0  0  0  0  0  0  0  0  0  0
  141.1100   71.5240  226.7190 C   0  0  0  0  0  0  0  0  0  0  0  0
  140.5930   71.0900  225.5110 C   0  0  0  0  0  0  0  0  0  0  0  0
  140.5470   71.9400  224.4560 N   0  0  0  0  0  0  0  0  0  0  0  0
  138.7390   73.9180  222.9950 H   0  0  0  0  0  0  0  0  0  0  0  0
  139.3491   73.6741  220.0248 H   0  0  0  0  0  0  0  0  0  0  0  0
  138.2634   74.8796  220.7499 H   0  0  0  0  0  0  0  0  0  0  0  0
  139.6010   77.4304  218.4537 H   0  0  0  0  0  0  0  0  0  0  0  0
  138.5113   76.5110  219.5537 H   0  0  0  0  0  0  0  0  0  0  0  0
  138.7158   79.0518  219.9737 H   0  0  0  0  0  0  0  0  0  0  0  0
  138.9582   77.9707  221.3891 H   0  0  0  0  0  0  0  0  0  0  0  0
  140.6526   79.9415  220.8220 H   0  0  0  0  0  0  0  0  0  0  0  0
  141.2041   78.3213  221.4673 H   0  0  0  0  0  0  0  0  0  0  0  0
  141.0386   78.5634  218.5518 H   0  0  0  0  0  0  0  0  0  0  0  0
  142.3062   79.5723  219.4204 H   0  0  0  0  0  0  0  0  0  0  0  0
  143.3852   77.6297  218.8035 H   0  0  0  0  0  0  0  0  0  0  0  0
  142.9655   77.4627  220.5687 H   0  0  0  0  0  0  0  0  0  0  0  0
  141.7451   76.0619  218.1826 H   0  0  0  0  0  0  0  0  0  0  0  0
  145.4125   73.6568  220.7973 H   0  0  0  0  0  0  0  0  0  0  0  0
  143.3839   71.9152  220.3642 H   0  0  0  0  0  0  0  0  0  0  0  0
  141.4140   73.3490  219.5090 H   0  0  0  0  0  0  0  0  0  0  0  0
  139.1619   69.8656  222.1976 H   0  0  0  0  0  0  0  0  0  0  0  0
  139.2352   68.2809  224.1280 H   0  0  0  0  0  0  0  0  0  0  0  0
  139.7913   67.8730  226.3568 H   0  0  0  0  0  0  0  0  0  0  0  0
  141.5505   70.9585  228.7449 H   0  0  0  0  0  0  0  0  0  0  0  0
  141.4856   72.5511  226.8376 H   0  0  0  0  0  0  0  0  0  0  0  0
  1  2  2  0
  2  3  1  0
  3  4  1  0
  4  5  1  0
  5  6  2  0
  5  7  1  0
  7  8  1  0
  8  9  1  0
  9 10  1  0
 10 11  1  0
 11 12  1  0
 12 13  1  0
 13 14  1  0
 14 15  2  0
 15 16  1  0
 16 17  2  0
 17 18  1  0
  2 19  1  0
 19 20  2  0
 20 21  1  0
 21 22  2  0
 22 23  1  0
 23 24  2  0
 24 25  1  0
 24 26  1  0
 26 27  2  0
 27 28  1  0
 28 29  2  0
 13  7  1  0
 18 14  1  0
 29 19  1  0
 28 22  1  0
  3 30  1  0
  4 31  1  0
  4 32  1  0
  8 33  1  0
  8 34  1  0
  9 35  1  0
  9 36  1  0
 10 37  1  0
 10 38  1  0
 11 39  1  0
 11 40  1  0
 12 41  1  0
 12 42  1  0
 13 43  1  6
 16 44  1  0
 17 45  1  0
 18 46  1  0
 20 47  1  0
 21 48  1  0
 23 49  1  0
 26 50  1  0
 27 51  1  0
M  END
>  <smiles>  (41) 
O=C(NCC(=O)N1CCCCC[C@H]1c1ncc[nH]1)c1ccc2cc(Cl)ccc2n1

>  <score_type>  (41) 
oracle

>  <origin>  (41) 
autodockgpu

>  <m_score__min__energy>  (41) 
-6.0300000000000002

>  <m_primary>  (41) 
energy

>  <rmsd>  (41) 
3.1678254005369784

>  <m_score__min__rmsd>  (41) 
3.1678254005369784

>  <meeko>  (41) 
{"free_energy": -4.93, "intermolecular_energy": -8.21, "internal_energy": -2.34, "cluster_size": 6, "cluster_id": 3, "rank_in_cluster": 4}

>  <energy>  (41) 
-4.26

>  <cluster_rmsd>  (41) 
0.0

>  <cluster>  (41) 
14

$$$$

     RDKit          3D

 51 54  0  0  0  0  0  0  0  0999 V2000
  136.0610   77.4250  223.2030 O   0  0  0  0  0  0  0  0  0  0  0  0
  136.5840   76.2980  223.3970 C   0  0  0  0  0  0  0  0  0  0  0  0
  137.9570   76.1610  223.0240 N   0  0  0  0  0  0  0  0  0  0  0  0
  138.5790   77.3640  222.4610 C   0  0  0  0  0  0  0  0  0  0  0  0
  140.0370   77.0790  222.3390 C   0  0  0  0  0  0  0  0  0  0  0  0
  140.4410   75.8820  222.3770 O   0  0  0  0  0  0  0  0  0  0  0  0
  140.9450   78.1670  222.1840 N   0  0  0  0  0  0  0  0  0  0  0  0
  141.5820   78.6980  223.3880 C   0  0  0  0  0  0  0  0  0  0  0  0
  140.8580   79.9600  223.8510 C   0  0  0  0  0  0  0  0  0  0  0  0
  141.3380   81.1460  223.0430 C   0  0  0  0  0  0  0  0  0  0  0  0
  141.0690   81.0250  221.5770 C   0  0  0  0  0  0  0  0  0  0  0  0
  141.8550   79.9730  220.8710 C   0  0  0  0  0  0  0  0  0  0  0  0
  141.1440   78.6390  220.8320 C   0  0  1  0  0  0  0  0  0  0  0  0
  141.8520   77.6750  219.9840 C   0  0  0  0  0  0  0  0  0  0  0  0
  142.1610   77.8650  218.6920 N   0  0  0  0  0  0  0  0  0  0  0  0
  142.8020   76.8030  218.2120 C   0  0  0  0  0  0  0  0  0  0  0  0
  142.9140   75.8780  219.2430 C   0  0  0  0  0  0  0  0  0  0  0  0
  142.3180   76.4610  220.3000 N   0  0  0  0  0  0  0  0  0  0  0  0
  135.8510   75.1720  223.9710 C   0  0  0  0  0  0  0  0  0  0  0  0
  135.0160   75.4380  225.0480 C   0  0  0  0  0  0  0  0  0  0  0  0
  134.2770   74.4400  225.6640 C   0  0  0  0  0  0  0  0  0  0  0  0
  134.4100   73.1690  225.1550 C   0  0  0  0  0  0  0  0  0  0  0  0
  133.6750   72.1710  225.7650 C   0  0  0  0  0  0  0  0  0  0  0  0
  133.7780   70.8790  225.2860 C   0  0  0  0  0  0  0  0  0  0  0  0
  132.8390   69.6450  226.0790 Cl  0  0  0  0  0  0  0  0  0  0  0  0
  134.6080   70.6290  224.2210 C   0  0  0  0  0  0  0  0  0  0  0  0
  135.3550   71.6240  223.5950 C   0  0  0  0  0  0  0  0  0  0  0  0
  135.2490   72.9180  224.0760 C   0  0  0  0  0  0  0  0  0  0  0  0
  135.9620   73.9120  223.4910 N   0  0  0  0  0  0  0  0  0  0  0  0
  138.4800   75.2660  223.1470 H   0  0  0  0  0  0  0  0  0  0  0  0
  138.1520   77.5831  221.4712 H   0  0  0  0  0  0  0  0  0  0  0  0
  138.4005   78.2382  223.1044 H   0  0  0  0  0  0  0  0  0  0  0  0
  141.5406   77.9414  224.1854 H   0  0  0  0  0  0  0  0  0  0  0  0
  142.6295   78.9461  223.1618 H   0  0  0  0  0  0  0  0  0  0  0  0
  139.7747   79.8339  223.7079 H   0  0  0  0  0  0  0  0  0  0  0  0
  141.0710   80.1334  224.9162 H   0  0  0  0  0  0  0  0  0  0  0  0
  140.8305   82.0480  223.4156 H   0  0  0  0  0  0  0  0  0  0  0  0
  142.4300   81.1969  223.1656 H   0  0  0  0  0  0  0  0  0  0  0  0
  140.0009   80.7977  221.4448 H   0  0  0  0  0  0  0  0  0  0  0  0
  141.3733   81.9835  221.1312 H   0  0  0  0  0  0  0  0  0  0  0  0
  142.0378   80.3044  219.8382 H   0  0  0  0  0  0  0  0  0  0  0  0
  142.7942   79.8322  221.4261 H   0  0  0  0  0  0  0  0  0  0  0  0
  140.1544   78.7625  220.3678 H   0  0  0  0  0  0  0  0  0  0  0  0
  143.1758   76.6793  217.1849 H   0  0  0  0  0  0  0  0  0  0  0  0
  143.3867   74.8855  219.2039 H   0  0  0  0  0  0  0  0  0  0  0  0
  142.2450   75.9970  221.2360 H   0  0  0  0  0  0  0  0  0  0  0  0
  134.9388   76.4693  225.4228 H   0  0  0  0  0  0  0  0  0  0  0  0
  133.6169   74.6538  226.5176 H   0  0  0  0  0  0  0  0  0  0  0  0
  133.0190   72.4009  226.6175 H   0  0  0  0  0  0  0  0  0  0  0  0
  134.6863   69.5979  223.8459 H   0  0  0  0  0  0  0  0  0  0  0  0
  136.0101   71.3886  222.7433 H   0  0  0  0  0  0  0  0  0  0  0  0
  1  2  2  0
  2  3  1  0
  3  4  1  0
  4  5  1  0
  5  6  2  0
  5  7  1  0
  7  8  1  0
  8  9  1  0
  9 10  1  0
 10 11  1  0
 11 12  1  0
 12 13  1  0
 13 14  1  0
 14 15  2  0
 15 16  1  0
 16 17  2  0
 17 18  1  0
  2 19  1  0
 19 20  2  0
 20 21  1  0
 21 22  2  0
 22 23  1  0
 23 24  2  0
 24 25  1  0
 24 26  1  0
 26 27  2  0
 27 28  1  0
 28 29  2  0
 13  7  1  0
 18 14  1  0
 29 19  1  0
 28 22  1  0
  3 30  1  0
  4 31  1  0
  4 32  1  0
  8 33  1  0
  8 34  1  0
  9 35  1  0
  9 36  1  0
 10 37  1  0
 10 38  1  0
 11 39  1  0
 11 40  1  0
 12 41  1  0
 12 42  1  0
 13 43  1  6
 16 44  1  0
 17 45  1  0
 18 46  1  0
 20 47  1  0
 21 48  1  0
 23 49  1  0
 26 50  1  0
 27 51  1  0
M  END
>  <smiles>  (42) 
O=C(NCC(=O)N1CCCCC[C@H]1c1ncc[nH]1)c1ccc2cc(Cl)ccc2n1

>  <score_type>  (42) 
oracle

>  <origin>  (42) 
autodockgpu

>  <m_score__min__energy>  (42) 
-6.0300000000000002

>  <m_primary>  (42) 
energy

>  <rmsd>  (42) 
5.99451617052771

>  <m_score__min__rmsd>  (42) 
5.99451617052771

>  <meeko>  (42) 
{"free_energy": -5.04, "intermolecular_energy": -8.32, "internal_energy": -2.68, "cluster_size": 3, "cluster_id": 7, "rank_in_cluster": 1}

>  <energy>  (42) 
-4.01

>  <cluster_rmsd>  (42) 
0.0

>  <cluster>  (42) 
15

$$$$

     RDKit          3D

 51 54  0  0  0  0  0  0  0  0999 V2000
  142.8880   78.9340  218.5050 O   0  0  0  0  0  0  0  0  0  0  0  0
  142.3080   77.8780  218.8660 C   0  0  0  0  0  0  0  0  0  0  0  0
  140.9740   78.0210  219.3580 N   0  0  0  0  0  0  0  0  0  0  0  0
  140.4530   79.3920  219.3760 C   0  0  0  0  0  0  0  0  0  0  0  0
  139.6580   79.5360  220.6280 C   0  0  0  0  0  0  0  0  0  0  0  0
  138.3960   79.5590  220.5630 O   0  0  0  0  0  0  0  0  0  0  0  0
  140.3410   79.6430  221.8740 N   0  0  0  0  0  0  0  0  0  0  0  0
  140.0750   80.8230  222.6960 C   0  0  0  0  0  0  0  0  0  0  0  0
  141.3050   81.7260  222.7290 C   0  0  0  0  0  0  0  0  0  0  0  0
  142.2430   81.2670  223.8240 C   0  0  0  0  0  0  0  0  0  0  0  0
  142.8150   79.9050  223.5950 C   0  0  0  0  0  0  0  0  0  0  0  0
  141.8250   78.7940  223.5750 C   0  0  0  0  0  0  0  0  0  0  0  0
  141.2390   78.5580  222.2010 C   0  0  1  0  0  0  0  0  0  0  0  0
  140.6090   77.2380  222.1030 C   0  0  0  0  0  0  0  0  0  0  0  0
  139.3020   76.9920  222.2790 N   0  0  0  0  0  0  0  0  0  0  0  0
  139.0530   75.6950  222.1220 C   0  0  0  0  0  0  0  0  0  0  0  0
  140.2580   75.0690  221.8300 C   0  0  0  0  0  0  0  0  0  0  0  0
  141.1740   76.0560  221.8310 N   0  0  0  0  0  0  0  0  0  0  0  0
  142.9410   76.5630  218.7970 C   0  0  0  0  0  0  0  0  0  0  0  0
  142.9820   75.9390  217.5570 C   0  0  0  0  0  0  0  0  0  0  0  0
  143.5590   74.6910  217.3840 C   0  0  0  0  0  0  0  0  0  0  0  0
  144.0930   74.0980  218.5050 C   0  0  0  0  0  0  0  0  0  0  0  0
  144.6710   72.8540  218.3380 C   0  0  0  0  0  0  0  0  0  0  0  0
  145.2200   72.2210  219.4370 C   0  0  0  0  0  0  0  0  0  0  0  0
  145.9390   70.6530  219.1920 Cl  0  0  0  0  0  0  0  0  0  0  0  0
  145.1740   72.8480  220.6580 C   0  0  0  0  0  0  0  0  0  0  0  0
  144.5950   74.1020  220.8420 C   0  0  0  0  0  0  0  0  0  0  0  0
  144.0460   74.7340  219.7400 C   0  0  0  0  0  0  0  0  0  0  0  0
  143.4750   75.9560  219.8820 N   0  0  0  0  0  0  0  0  0  0  0  0
  140.4100   77.2040  219.6800 H   0  0  0  0  0  0  0  0  0  0  0  0
  141.2840   80.1127  219.3705 H   0  0  0  0  0  0  0  0  0  0  0  0
  139.8316   79.5889  218.4900 H   0  0  0  0  0  0  0  0  0  0  0  0
  139.2265   81.3791  222.2708 H   0  0  0  0  0  0  0  0  0  0  0  0
  139.8358   80.5021  223.7206 H   0  0  0  0  0  0  0  0  0  0  0  0
  141.8220   81.6758  221.7594 H   0  0  0  0  0  0  0  0  0  0  0  0
  140.9922   82.7619  222.9266 H   0  0  0  0  0  0  0  0  0  0  0  0
  143.0734   81.9850  223.8932 H   0  0  0  0  0  0  0  0  0  0  0  0
  141.6533   81.2157  224.7512 H   0  0  0  0  0  0  0  0  0  0  0  0
  143.3356   79.9137  222.6260 H   0  0  0  0  0  0  0  0  0  0  0  0
  143.4779   79.7060  224.4500 H   0  0  0  0  0  0  0  0  0  0  0  0
  142.3242   77.8720  223.9076 H   0  0  0  0  0  0  0  0  0  0  0  0
  140.9985   79.0739  224.2447 H   0  0  0  0  0  0  0  0  0  0  0  0
  142.0453   78.5507  221.4528 H   0  0  0  0  0  0  0  0  0  0  0  0
  138.0710   75.2067  222.2078 H   0  0  0  0  0  0  0  0  0  0  0  0
  140.4273   73.9990  221.6393 H   0  0  0  0  0  0  0  0  0  0  0  0
  142.1890   75.8870  221.6390 H   0  0  0  0  0  0  0  0  0  0  0  0
  142.5438   76.4501  216.6871 H   0  0  0  0  0  0  0  0  0  0  0  0
  143.5886   74.1994  216.4004 H   0  0  0  0  0  0  0  0  0  0  0  0
  144.6937   72.3759  217.3476 H   0  0  0  0  0  0  0  0  0  0  0  0
  145.6132   72.3383  221.5283 H   0  0  0  0  0  0  0  0  0  0  0  0
  144.5749   74.5759  221.8345 H   0  0  0  0  0  0  0  0  0  0  0  0
  1  2  2  0
  2  3  1  0
  3  4  1  0
  4  5  1  0
  5  6  2  0
  5  7  1  0
  7  8  1  0
  8  9  1  0
  9 10  1  0
 10 11  1  0
 11 12  1  0
 12 13  1  0
 13 14  1  0
 14 15  2  0
 15 16  1  0
 16 17  2  0
 17 18  1  0
  2 19  1  0
 19 20  2  0
 20 21  1  0
 21 22  2  0
 22 23  1  0
 23 24  2  0
 24 25  1  0
 24 26  1  0
 26 27  2  0
 27 28  1  0
 28 29  2  0
 13  7  1  0
 18 14  1  0
 29 19  1  0
 28 22  1  0
  3 30  1  0
  4 31  1  0
  4 32  1  0
  8 33  1  0
  8 34  1  0
  9 35  1  0
  9 36  1  0
 10 37  1  0
 10 38  1  0
 11 39  1  0
 11 40  1  0
 12 41  1  0
 12 42  1  0
 13 43  1  6
 16 44  1  0
 17 45  1  0
 18 46  1  0
 20 47  1  0
 21 48  1  0
 23 49  1  0
 26 50  1  0
 27 51  1  0
M  END
>  <smiles>  (43) 
O=C(NCC(=O)N1CCCCC[C@H]1c1ncc[nH]1)c1ccc2cc(Cl)ccc2n1

>  <score_type>  (43) 
oracle

>  <origin>  (43) 
autodockgpu

>  <m_score__min__energy>  (43) 
-6.0300000000000002

>  <m_primary>  (43) 
energy

>  <rmsd>  (43) 
7.471558413774256

>  <m_score__min__rmsd>  (43) 
7.471558413774256

>  <meeko>  (43) 
{"free_energy": -4.79, "intermolecular_energy": -8.07, "internal_energy": -2.8, "cluster_size": 3, "cluster_id": 8, "rank_in_cluster": 1}

>  <energy>  (43) 
-3.47

>  <cluster_rmsd>  (43) 
0.91

>  <cluster>  (43) 
15

$$$$

     RDKit          3D

 51 54  0  0  0  0  0  0  0  0999 V2000
  139.7450   71.8210  220.8830 O   0  0  0  0  0  0  0  0  0  0  0  0
  139.7310   72.2780  222.0550 C   0  0  0  0  0  0  0  0  0  0  0  0
  139.5590   73.6910  222.1830 N   0  0  0  0  0  0  0  0  0  0  0  0
  139.4190   74.4260  220.9220 C   0  0  0  0  0  0  0  0  0  0  0  0
  140.5690   75.3710  220.8420 C   0  0  0  0  0  0  0  0  0  0  0  0
  141.1830   75.6920  221.8990 O   0  0  0  0  0  0  0  0  0  0  0  0
  140.9510   75.8910  219.5720 N   0  0  0  0  0  0  0  0  0  0  0  0
  139.9860   76.7310  218.8630 C   0  0  0  0  0  0  0  0  0  0  0  0
  140.0630   78.1660  219.3790 C   0  0  0  0  0  0  0  0  0  0  0  0
  141.4730   78.4670  219.8360 C   0  0  0  0  0  0  0  0  0  0  0  0
  142.5280   78.0020  218.8830 C   0  0  0  0  0  0  0  0  0  0  0  0
  143.1910   76.7230  219.2460 C   0  0  0  0  0  0  0  0  0  0  0  0
  142.2730   75.5300  219.1090 C   0  0  1  0  0  0  0  0  0  0  0  0
  142.8170   74.3500  219.7860 C   0  0  0  0  0  0  0  0  0  0  0  0
  144.0580   74.2510  220.2860 N   0  0  0  0  0  0  0  0  0  0  0  0
  144.2390   73.0520  220.8350 C   0  0  0  0  0  0  0  0  0  0  0  0
  143.0560   72.3390  220.6840 C   0  0  0  0  0  0  0  0  0  0  0  0
  142.2230   73.1760  220.0370 N   0  0  0  0  0  0  0  0  0  0  0  0
  139.8810   71.4330  223.2370 C   0  0  0  0  0  0  0  0  0  0  0  0
  139.4670   70.1120  223.1330 C   0  0  0  0  0  0  0  0  0  0  0  0
  139.5660   69.2290  224.1970 C   0  0  0  0  0  0  0  0  0  0  0  0
  140.0970   69.7260  225.3640 C   0  0  0  0  0  0  0  0  0  0  0  0
  140.1990   68.8490  226.4270 C   0  0  0  0  0  0  0  0  0  0  0  0
  140.7280   69.3050  227.6200 C   0  0  0  0  0  0  0  0  0  0  0  0
  140.8400   68.1740  228.9400 Cl  0  0  0  0  0  0  0  0  0  0  0  0
  141.1330   70.6140  227.7100 C   0  0  0  0  0  0  0  0  0  0  0  0
  141.0380   71.5100  226.6470 C   0  0  0  0  0  0  0  0  0  0  0  0
  140.5090   71.0500  225.4540 C   0  0  0  0  0  0  0  0  0  0  0  0
  140.4000   71.8950  224.3980 N   0  0  0  0  0  0  0  0  0  0  0  0
  139.5340   74.1650  223.1130 H   0  0  0  0  0  0  0  0  0  0  0  0
  139.4433   73.7277  220.0724 H   0  0  0  0  0  0  0  0  0  0  0  0
  138.4617   74.9666  220.8854 H   0  0  0  0  0  0  0  0  0  0  0  0
  140.2137   76.7183  217.7869 H   0  0  0  0  0  0  0  0  0  0  0  0
  138.9724   76.3398  219.0350 H   0  0  0  0  0  0  0  0  0  0  0  0
  139.7836   78.8602  218.5728 H   0  0  0  0  0  0  0  0  0  0  0  0
  139.3714   78.2868  220.2258 H   0  0  0  0  0  0  0  0  0  0  0  0
  141.5727   79.5555  219.9598 H   0  0  0  0  0  0  0  0  0  0  0  0
  141.6284   77.9205  220.7779 H   0  0  0  0  0  0  0  0  0  0  0  0
  142.0615   77.8747  217.8950 H   0  0  0  0  0  0  0  0  0  0  0  0
  143.3157   78.7696  218.9023 H   0  0  0  0  0  0  0  0  0  0  0  0
  144.0587   76.5768  218.5859 H   0  0  0  0  0  0  0  0  0  0  0  0
  143.4901   76.7922  220.3023 H   0  0  0  0  0  0  0  0  0  0  0  0
  142.1944   75.2465  218.0491 H   0  0  0  0  0  0  0  0  0  0  0  0
  145.1580   72.6912  221.3201 H   0  0  0  0  0  0  0  0  0  0  0  0
  142.8455   71.3130  221.0202 H   0  0  0  0  0  0  0  0  0  0  0  0
  141.2440   72.9140  219.7800 H   0  0  0  0  0  0  0  0  0  0  0  0
  139.0488   69.7561  222.1799 H   0  0  0  0  0  0  0  0  0  0  0  0
  139.2363   68.1830  224.1120 H   0  0  0  0  0  0  0  0  0  0  0  0
  139.8650   67.8059  226.3256 H   0  0  0  0  0  0  0  0  0  0  0  0
  141.5507   70.9709  228.6630 H   0  0  0  0  0  0  0  0  0  0  0  0
  141.3736   72.5522  226.7531 H   0  0  0  0  0  0  0  0  0  0  0  0
  1  2  2  0
  2  3  1  0
  3  4  1  0
  4  5  1  0
  5  6  2  0
  5  7  1  0
  7  8  1  0
  8  9  1  0
  9 10  1  0
 10 11  1  0
 11 12  1  0
 12 13  1  0
 13 14  1  0
 14 15  2  0
 15 16  1  0
 16 17  2  0
 17 18  1  0
  2 19  1  0
 19 20  2  0
 20 21  1  0
 21 22  2  0
 22 23  1  0
 23 24  2  0
 24 25  1  0
 24 26  1  0
 26 27  2  0
 27 28  1  0
 28 29  2  0
 13  7  1  0
 18 14  1  0
 29 19  1  0
 28 22  1  0
  3 30  1  0
  4 31  1  0
  4 32  1  0
  8 33  1  0
  8 34  1  0
  9 35  1  0
  9 36  1  0
 10 37  1  0
 10 38  1  0
 11 39  1  0
 11 40  1  0
 12 41  1  0
 12 42  1  0
 13 43  1  6
 16 44  1  0
 17 45  1  0
 18 46  1  0
 20 47  1  0
 21 48  1  0
 23 49  1  0
 26 50  1  0
 27 51  1  0
M  END
>  <smiles>  (44) 
O=C(NCC(=O)N1CCCCC[C@H]1c1ncc[nH]1)c1ccc2cc(Cl)ccc2n1

>  <score_type>  (44) 
oracle

>  <origin>  (44) 
autodockgpu

>  <m_score__min__energy>  (44) 
-6.0300000000000002

>  <m_primary>  (44) 
energy

>  <rmsd>  (44) 
3.2508448309809834

>  <m_score__min__rmsd>  (44) 
3.2508448309809834

>  <meeko>  (44) 
{"free_energy": -4.92, "intermolecular_energy": -8.21, "internal_energy": -2.77, "cluster_size": 5, "cluster_id": 6, "rank_in_cluster": 3}

>  <energy>  (44) 
-3.99

>  <cluster_rmsd>  (44) 
0.0

>  <cluster>  (44) 
16

$$$$

     RDKit          3D

 51 54  0  0  0  0  0  0  0  0999 V2000
  136.1990   77.4730  222.8930 O   0  0  0  0  0  0  0  0  0  0  0  0
  136.7320   76.3710  223.1850 C   0  0  0  0  0  0  0  0  0  0  0  0
  138.1250   76.2420  222.8930 N   0  0  0  0  0  0  0  0  0  0  0  0
  138.7540   77.4200  222.2870 C   0  0  0  0  0  0  0  0  0  0  0  0
  140.2270   77.2010  222.3440 C   0  0  0  0  0  0  0  0  0  0  0  0
  140.6730   76.0420  222.5770 O   0  0  0  0  0  0  0  0  0  0  0  0
  141.1010   78.3070  222.1340 N   0  0  0  0  0  0  0  0  0  0  0  0
  141.7430   78.8980  223.3080 C   0  0  0  0  0  0  0  0  0  0  0  0
  141.0120   80.1730  223.7190 C   0  0  0  0  0  0  0  0  0  0  0  0
  141.4870   81.3290  222.8650 C   0  0  0  0  0  0  0  0  0  0  0  0
  141.2130   81.1530  221.4060 C   0  0  0  0  0  0  0  0  0  0  0  0
  141.9860   80.0640  220.7410 C   0  0  0  0  0  0  0  0  0  0  0  0
  141.2630   78.7360  220.7630 C   0  0  1  0  0  0  0  0  0  0  0  0
  141.9370   77.7420  219.9240 C   0  0  0  0  0  0  0  0  0  0  0  0
  142.2340   77.9010  218.6260 N   0  0  0  0  0  0  0  0  0  0  0  0
  142.8430   76.8150  218.1560 C   0  0  0  0  0  0  0  0  0  0  0  0
  142.9450   75.9070  219.2020 C   0  0  0  0  0  0  0  0  0  0  0  0
  142.3770   76.5220  220.2560 N   0  0  0  0  0  0  0  0  0  0  0  0
  135.9900   75.2680  223.7910 C   0  0  0  0  0  0  0  0  0  0  0  0
  135.1180   75.5790  224.8260 C   0  0  0  0  0  0  0  0  0  0  0  0
  134.3690   74.6050  225.4680 C   0  0  0  0  0  0  0  0  0  0  0  0
  134.5300   73.3120  225.0270 C   0  0  0  0  0  0  0  0  0  0  0  0
  133.7840   72.3380  225.6630 C   0  0  0  0  0  0  0  0  0  0  0  0
  133.9140   71.0240  225.2520 C   0  0  0  0  0  0  0  0  0  0  0  0
  132.9600   69.8220  226.0750 Cl  0  0  0  0  0  0  0  0  0  0  0  0
  134.7790   70.7310  224.2280 C   0  0  0  0  0  0  0  0  0  0  0  0
  135.5380   71.7010  223.5770 C   0  0  0  0  0  0  0  0  0  0  0  0
  135.4060   73.0160  223.9890 C   0  0  0  0  0  0  0  0  0  0  0  0
  136.1280   73.9870  223.3780 N   0  0  0  0  0  0  0  0  0  0  0  0
  138.6570   75.3680  223.0990 H   0  0  0  0  0  0  0  0  0  0  0  0
  138.4276   77.5277  221.2421 H   0  0  0  0  0  0  0  0  0  0  0  0
  138.4711   78.3376  222.8237 H   0  0  0  0  0  0  0  0  0  0  0  0
  141.7145   78.1782  224.1393 H   0  0  0  0  0  0  0  0  0  0  0  0
  142.7864   79.1445  223.0620 H   0  0  0  0  0  0  0  0  0  0  0  0
  139.9296   80.0354  223.5795 H   0  0  0  0  0  0  0  0  0  0  0  0
  141.2226   80.3898  224.7767 H   0  0  0  0  0  0  0  0  0  0  0  0
  140.9792   82.2435  223.2055 H   0  0  0  0  0  0  0  0  0  0  0  0
  142.5793   81.3861  222.9815 H   0  0  0  0  0  0  0  0  0  0  0  0
  140.1421   80.9328  221.2851 H   0  0  0  0  0  0  0  0  0  0  0  0
  141.5267   82.0894  220.9215 H   0  0  0  0  0  0  0  0  0  0  0  0
  142.1657   80.3492  219.6939 H   0  0  0  0  0  0  0  0  0  0  0  0
  142.9271   79.9385  221.2965 H   0  0  0  0  0  0  0  0  0  0  0  0
  140.2609   78.8537  220.3249 H   0  0  0  0  0  0  0  0  0  0  0  0
  143.2004   76.6640  217.1267 H   0  0  0  0  0  0  0  0  0  0  0  0
  143.3930   74.9027  219.1749 H   0  0  0  0  0  0  0  0  0  0  0  0
  142.3050   76.0760  221.2010 H   0  0  0  0  0  0  0  0  0  0  0  0
  135.0188   76.6270  225.1452 H   0  0  0  0  0  0  0  0  0  0  0  0
  133.6804   74.8537  226.2890 H   0  0  0  0  0  0  0  0  0  0  0  0
  133.0989   72.6032  226.4817 H   0  0  0  0  0  0  0  0  0  0  0  0
  134.8776   69.6836  223.9068 H   0  0  0  0  0  0  0  0  0  0  0  0
  136.2222   71.4299  222.7595 H   0  0  0  0  0  0  0  0  0  0  0  0
  1  2  2  0
  2  3  1  0
  3  4  1  0
  4  5  1  0
  5  6  2  0
  5  7  1  0
  7  8  1  0
  8  9  1  0
  9 10  1  0
 10 11  1  0
 11 12  1  0
 12 13  1  0
 13 14  1  0
 14 15  2  0
 15 16  1  0
 16 17  2  0
 17 18  1  0
  2 19  1  0
 19 20  2  0
 20 21  1  0
 21 22  2  0
 22 23  1  0
 23 24  2  0
 24 25  1  0
 24 26  1  0
 26 27  2  0
 27 28  1  0
 28 29  2  0
 13  7  1  0
 18 14  1  0
 29 19  1  0
 28 22  1  0
  3 30  1  0
  4 31  1  0
  4 32  1  0
  8 33  1  0
  8 34  1  0
  9 35  1  0
  9 36  1  0
 10 37  1  0
 10 38  1  0
 11 39  1  0
 11 40  1  0
 12 41  1  0
 12 42  1  0
 13 43  1  6
 16 44  1  0
 17 45  1  0
 18 46  1  0
 20 47  1  0
 21 48  1  0
 23 49  1  0
 26 50  1  0
 27 51  1  0
M  END
>  <smiles>  (45) 
O=C(NCC(=O)N1CCCCC[C@H]1c1ncc[nH]1)c1ccc2cc(Cl)ccc2n1

>  <score_type>  (45) 
oracle

>  <origin>  (45) 
autodockgpu

>  <m_score__min__energy>  (45) 
-6.0300000000000002

>  <m_primary>  (45) 
energy

>  <rmsd>  (45) 
5.99436586850906

>  <m_score__min__rmsd>  (45) 
5.99436586850906

>  <meeko>  (45) 
{"free_energy": -4.82, "intermolecular_energy": -8.1, "internal_energy": -2.69, "cluster_size": 3, "cluster_id": 7, "rank_in_cluster": 2}

>  <energy>  (45) 
-3.94

>  <cluster_rmsd>  (45) 
1.58

>  <cluster>  (45) 
16

$$$$

     RDKit          3D

 51 54  0  0  0  0  0  0  0  0999 V2000
  139.7460   71.9220  220.8100 O   0  0  0  0  0  0  0  0  0  0  0  0
  139.7590   72.3680  221.9860 C   0  0  0  0  0  0  0  0  0  0  0  0
  139.6180   73.7820  222.1310 N   0  0  0  0  0  0  0  0  0  0  0  0
  139.4740   74.5330  220.8790 C   0  0  0  0  0  0  0  0  0  0  0  0
  140.5400   75.5750  220.8760 C   0  0  0  0  0  0  0  0  0  0  0  0
  141.1000   75.8940  221.9630 O   0  0  0  0  0  0  0  0  0  0  0  0
  140.9050   76.1880  219.6420 N   0  0  0  0  0  0  0  0  0  0  0  0
  140.0410   77.2530  219.1310 C   0  0  0  0  0  0  0  0  0  0  0  0
  140.3970   78.5800  219.7960 C   0  0  0  0  0  0  0  0  0  0  0  0
  141.8480   78.9110  219.5270 C   0  0  0  0  0  0  0  0  0  0  0  0
  142.4600   78.0940  218.4330 C   0  0  0  0  0  0  0  0  0  0  0  0
  143.1010   76.8170  218.8720 C   0  0  0  0  0  0  0  0  0  0  0  0
  142.1070   75.6870  219.0150 C   0  0  1  0  0  0  0  0  0  0  0  0
  142.6910   74.5420  219.7200 C   0  0  0  0  0  0  0  0  0  0  0  0
  143.9180   74.5130  220.2600 N   0  0  0  0  0  0  0  0  0  0  0  0
  144.1430   73.3290  220.8260 C   0  0  0  0  0  0  0  0  0  0  0  0
  143.0050   72.5540  220.6430 C   0  0  0  0  0  0  0  0  0  0  0  0
  142.1510   73.3410  219.9620 N   0  0  0  0  0  0  0  0  0  0  0  0
  139.9090   71.5080  223.1580 C   0  0  0  0  0  0  0  0  0  0  0  0
  139.4880   70.1900  223.0400 C   0  0  0  0  0  0  0  0  0  0  0  0
  139.5860   69.2940  224.0920 C   0  0  0  0  0  0  0  0  0  0  0  0
  140.1240   69.7740  225.2640 C   0  0  0  0  0  0  0  0  0  0  0  0
  140.2260   68.8850  226.3160 C   0  0  0  0  0  0  0  0  0  0  0  0
  140.7610   69.3240  227.5120 C   0  0  0  0  0  0  0  0  0  0  0  0
  140.8730   68.1770  228.8180 Cl  0  0  0  0  0  0  0  0  0  0  0  0
  141.1730   70.6290  227.6160 C   0  0  0  0  0  0  0  0  0  0  0  0
  141.0780   71.5380  226.5650 C   0  0  0  0  0  0  0  0  0  0  0  0
  140.5430   71.0960  225.3680 C   0  0  0  0  0  0  0  0  0  0  0  0
  140.4350   71.9530  224.3220 N   0  0  0  0  0  0  0  0  0  0  0  0
  139.6150   74.2480  223.0660 H   0  0  0  0  0  0  0  0  0  0  0  0
  139.5995   73.8605  220.0176 H   0  0  0  0  0  0  0  0  0  0  0  0
  138.4759   74.9896  220.8055 H   0  0  0  0  0  0  0  0  0  0  0  0
  140.1781   77.3426  218.0433 H   0  0  0  0  0  0  0  0  0  0  0  0
  138.9930   77.0064  219.3565 H   0  0  0  0  0  0  0  0  0  0  0  0
  139.7582   79.3769  219.3874 H   0  0  0  0  0  0  0  0  0  0  0  0
  140.2367   78.4986  220.8812 H   0  0  0  0  0  0  0  0  0  0  0  0
  141.9155   79.9725  219.2466 H   0  0  0  0  0  0  0  0  0  0  0  0
  142.4051   78.6830  220.4477 H   0  0  0  0  0  0  0  0  0  0  0  0
  141.6685   77.8462  217.7104 H   0  0  0  0  0  0  0  0  0  0  0  0
  143.2670   78.7094  218.0087 H   0  0  0  0  0  0  0  0  0  0  0  0
  143.8577   76.5285  218.1276 H   0  0  0  0  0  0  0  0  0  0  0  0
  143.5506   76.9924  219.8605 H   0  0  0  0  0  0  0  0  0  0  0  0
  141.8348   75.3069  218.0193 H   0  0  0  0  0  0  0  0  0  0  0  0
  145.0629   73.0207  221.3443 H   0  0  0  0  0  0  0  0  0  0  0  0
  142.8377   71.5208  220.9813 H   0  0  0  0  0  0  0  0  0  0  0  0
  141.1950   73.0260  219.6760 H   0  0  0  0  0  0  0  0  0  0  0  0
  139.0647   69.8477  222.0841 H   0  0  0  0  0  0  0  0  0  0  0  0
  139.2505   68.2509  223.9952 H   0  0  0  0  0  0  0  0  0  0  0  0
  139.8869   67.8446  226.2036 H   0  0  0  0  0  0  0  0  0  0  0  0
  141.5968   70.9721  228.5713 H   0  0  0  0  0  0  0  0  0  0  0  0
  141.4185   72.5773  226.6832 H   0  0  0  0  0  0  0  0  0  0  0  0
  1  2  2  0
  2  3  1  0
  3  4  1  0
  4  5  1  0
  5  6  2  0
  5  7  1  0
  7  8  1  0
  8  9  1  0
  9 10  1  0
 10 11  1  0
 11 12  1  0
 12 13  1  0
 13 14  1  0
 14 15  2  0
 15 16  1  0
 16 17  2  0
 17 18  1  0
  2 19  1  0
 19 20  2  0
 20 21  1  0
 21 22  2  0
 22 23  1  0
 23 24  2  0
 24 25  1  0
 24 26  1  0
 26 27  2  0
 27 28  1  0
 28 29  2  0
 13  7  1  0
 18 14  1  0
 29 19  1  0
 28 22  1  0
  3 30  1  0
  4 31  1  0
  4 32  1  0
  8 33  1  0
  8 34  1  0
  9 35  1  0
  9 36  1  0
 10 37  1  0
 10 38  1  0
 11 39  1  0
 11 40  1  0
 12 41  1  0
 12 42  1  0
 13 43  1  6
 16 44  1  0
 17 45  1  0
 18 46  1  0
 20 47  1  0
 21 48  1  0
 23 49  1  0
 26 50  1  0
 27 51  1  0
M  END
>  <smiles>  (46) 
O=C(NCC(=O)N1CCCCC[C@H]1c1ncc[nH]1)c1ccc2cc(Cl)ccc2n1

>  <score_type>  (46) 
oracle

>  <origin>  (46) 
autodockgpu

>  <m_score__min__energy>  (46) 
-6.0300000000000002

>  <m_primary>  (46) 
energy

>  <rmsd>  (46) 
3.2517980837127323

>  <m_score__min__rmsd>  (46) 
3.2517980837127323

>  <meeko>  (46) 
{"free_energy": -4.96, "intermolecular_energy": -8.24, "internal_energy": -2.82, "cluster_size": 5, "cluster_id": 6, "rank_in_cluster": 2}

>  <energy>  (46) 
-3.93

>  <cluster_rmsd>  (46) 
1.36

>  <cluster>  (46) 
16

$$$$

     RDKit          3D

 51 54  0  0  0  0  0  0  0  0999 V2000
  137.0600   74.1850  221.9900 O   0  0  0  0  0  0  0  0  0  0  0  0
  136.9800   75.3610  222.4300 C   0  0  0  0  0  0  0  0  0  0  0  0
  135.6770   75.8140  222.8020 N   0  0  0  0  0  0  0  0  0  0  0  0
  134.5960   74.8390  222.6210 C   0  0  0  0  0  0  0  0  0  0  0  0
  133.6520   75.0260  223.7590 C   0  0  0  0  0  0  0  0  0  0  0  0
  133.2260   76.1850  224.0290 O   0  0  0  0  0  0  0  0  0  0  0  0
  133.2490   73.8900  224.5190 N   0  0  0  0  0  0  0  0  0  0  0  0
  131.9070   73.3570  224.2860 C   0  0  0  0  0  0  0  0  0  0  0  0
  130.8980   74.0660  225.1870 C   0  0  0  0  0  0  0  0  0  0  0  0
  131.0900   73.6130  226.6180 C   0  0  0  0  0  0  0  0  0  0  0  0
  132.4610   73.8780  227.1550 C   0  0  0  0  0  0  0  0  0  0  0  0
  133.5150   72.9220  226.7110 C   0  0  0  0  0  0  0  0  0  0  0  0
  134.2240   73.3740  225.4550 C   0  0  1  0  0  0  0  0  0  0  0  0
  135.0550   72.3080  224.8910 C   0  0  0  0  0  0  0  0  0  0  0  0
  134.7990   70.9950  224.9920 N   0  0  0  0  0  0  0  0  0  0  0  0
  135.7460   70.2930  224.3730 C   0  0  0  0  0  0  0  0  0  0  0  0
  136.6600   71.1960  223.8460 C   0  0  0  0  0  0  0  0  0  0  0  0
  136.1920   72.4100  224.1910 N   0  0  0  0  0  0  0  0  0  0  0  0
  138.1420   76.2380  222.5630 C   0  0  0  0  0  0  0  0  0  0  0  0
  139.3790   75.7120  222.2140 C   0  0  0  0  0  0  0  0  0  0  0  0
  140.5430   76.4610  222.3050 C   0  0  0  0  0  0  0  0  0  0  0  0
  140.4110   77.7540  222.7570 C   0  0  0  0  0  0  0  0  0  0  0  0
  141.5680   78.5040  222.8490 C   0  0  0  0  0  0  0  0  0  0  0  0
  141.4830   79.8080  223.2980 C   0  0  0  0  0  0  0  0  0  0  0  0
  142.9600   80.7250  223.4020 Cl  0  0  0  0  0  0  0  0  0  0  0  0
  140.2540   80.3150  223.6400 C   0  0  0  0  0  0  0  0  0  0  0  0
  139.0790   79.5710  223.5530 C   0  0  0  0  0  0  0  0  0  0  0  0
  139.1660   78.2660  223.1020 C   0  0  0  0  0  0  0  0  0  0  0  0
  138.0430   77.5120  223.0050 N   0  0  0  0  0  0  0  0  0  0  0  0
  135.5090   76.7730  223.1780 H   0  0  0  0  0  0  0  0  0  0  0  0
  134.0792   75.0194  221.6668 H   0  0  0  0  0  0  0  0  0  0  0  0
  134.9902   73.8123  222.6000 H   0  0  0  0  0  0  0  0  0  0  0  0
  131.6298   73.5161  223.2334 H   0  0  0  0  0  0  0  0  0  0  0  0
  131.9016   72.2812  224.5155 H   0  0  0  0  0  0  0  0  0  0  0  0
  131.0511   75.1534  225.1235 H   0  0  0  0  0  0  0  0  0  0  0  0
  129.8777   73.8183  224.8589 H   0  0  0  0  0  0  0  0  0  0  0  0
  130.3614   74.1418  227.2502 H   0  0  0  0  0  0  0  0  0  0  0  0
  130.9451   72.5227  226.6317 H   0  0  0  0  0  0  0  0  0  0  0  0
  132.7615   74.8871  226.8365 H   0  0  0  0  0  0  0  0  0  0  0  0
  132.3873   73.7639  228.2466 H   0  0  0  0  0  0  0  0  0  0  0  0
  134.2575   72.8187  227.5160 H   0  0  0  0  0  0  0  0  0  0  0  0
  133.0210   71.9652  226.4864 H   0  0  0  0  0  0  0  0  0  0  0  0
  134.9228   74.1877  225.6991 H   0  0  0  0  0  0  0  0  0  0  0  0
  135.7954   69.1970  224.2935 H   0  0  0  0  0  0  0  0  0  0  0  0
  137.5697   70.9684  223.2710 H   0  0  0  0  0  0  0  0  0  0  0  0
  136.6770   73.2990  223.9290 H   0  0  0  0  0  0  0  0  0  0  0  0
  139.4373   74.6736  221.8558 H   0  0  0  0  0  0  0  0  0  0  0  0
  141.5223   76.0424  222.0297 H   0  0  0  0  0  0  0  0  0  0  0  0
  142.5396   78.0705  222.5697 H   0  0  0  0  0  0  0  0  0  0  0  0
  140.1942   81.3533  223.9982 H   0  0  0  0  0  0  0  0  0  0  0  0
  138.1100   80.0088  223.8348 H   0  0  0  0  0  0  0  0  0  0  0  0
  1  2  2  0
  2  3  1  0
  3  4  1  0
  4  5  1  0
  5  6  2  0
  5  7  1  0
  7  8  1  0
  8  9  1  0
  9 10  1  0
 10 11  1  0
 11 12  1  0
 12 13  1  0
 13 14  1  0
 14 15  2  0
 15 16  1  0
 16 17  2  0
 17 18  1  0
  2 19  1  0
 19 20  2  0
 20 21  1  0
 21 22  2  0
 22 23  1  0
 23 24  2  0
 24 25  1  0
 24 26  1  0
 26 27  2  0
 27 28  1  0
 28 29  2  0
 13  7  1  0
 18 14  1  0
 29 19  1  0
 28 22  1  0
  3 30  1  0
  4 31  1  0
  4 32  1  0
  8 33  1  0
  8 34  1  0
  9 35  1  0
  9 36  1  0
 10 37  1  0
 10 38  1  0
 11 39  1  0
 11 40  1  0
 12 41  1  0
 12 42  1  0
 13 43  1  1
 16 44  1  0
 17 45  1  0
 18 46  1  0
 20 47  1  0
 21 48  1  0
 23 49  1  0
 26 50  1  0
 27 51  1  0
M  END
>  <smiles>  (47) 
O=C(NCC(=O)N1CCCCC[C@H]1c1ncc[nH]1)c1ccc2cc(Cl)ccc2n1

>  <score_type>  (47) 
oracle

>  <origin>  (47) 
autodockgpu

>  <m_score__min__energy>  (47) 
-6.0300000000000002

>  <m_primary>  (47) 
energy

>  <rmsd>  (47) 
9.171522787016062

>  <m_score__min__rmsd>  (47) 
9.171522787016062

>  <meeko>  (47) 
{"free_energy": -3.85, "intermolecular_energy": -7.13, "internal_energy": -2.74, "cluster_size": 1, "cluster_id": 18, "rank_in_cluster": 1}

>  <energy>  (47) 
-3.98

>  <cluster_rmsd>  (47) 
0.0

>  <cluster>  (47) 
17

$$$$

     RDKit          3D

 51 54  0  0  0  0  0  0  0  0999 V2000
  140.4120   73.7080  221.7660 O   0  0  0  0  0  0  0  0  0  0  0  0
  140.3360   72.4530  221.7400 C   0  0  0  0  0  0  0  0  0  0  0  0
  140.2890   71.8450  220.4480 N   0  0  0  0  0  0  0  0  0  0  0  0
  140.3360   72.7740  219.3130 C   0  0  0  0  0  0  0  0  0  0  0  0
  141.7300   72.7430  218.7880 C   0  0  0  0  0  0  0  0  0  0  0  0
  141.9230   72.6320  217.5440 O   0  0  0  0  0  0  0  0  0  0  0  0
  142.8180   72.8420  219.7030 N   0  0  0  0  0  0  0  0  0  0  0  0
  143.5270   71.6110  220.0510 C   0  0  0  0  0  0  0  0  0  0  0  0
  144.7980   71.4850  219.2150 C   0  0  0  0  0  0  0  0  0  0  0  0
  145.8910   72.3380  219.8210 C   0  0  0  0  0  0  0  0  0  0  0  0
  145.5610   73.7960  219.8670 C   0  0  0  0  0  0  0  0  0  0  0  0
  144.4860   74.1690  220.8300 C   0  0  0  0  0  0  0  0  0  0  0  0
  143.1110   74.1670  220.2010 C   0  0  1  0  0  0  0  0  0  0  0  0
  142.9850   75.2080  219.1780 C   0  0  0  0  0  0  0  0  0  0  0  0
  142.6660   76.4890  219.4150 N   0  0  0  0  0  0  0  0  0  0  0  0
  142.6340   77.1740  218.2740 C   0  0  0  0  0  0  0  0  0  0  0  0
  142.9470   76.2930  217.2470 C   0  0  0  0  0  0  0  0  0  0  0  0
  143.1510   75.1080  217.8530 N   0  0  0  0  0  0  0  0  0  0  0  0
  140.2980   71.6360  222.9510 C   0  0  0  0  0  0  0  0  0  0  0  0
  139.7450   70.3660  222.8460 C   0  0  0  0  0  0  0  0  0  0  0  0
  139.6610   69.5130  223.9350 C   0  0  0  0  0  0  0  0  0  0  0  0
  140.1530   69.9870  225.1300 C   0  0  0  0  0  0  0  0  0  0  0  0
  140.0720   69.1400  226.2180 C   0  0  0  0  0  0  0  0  0  0  0  0
  140.5550   69.5740  227.4380 C   0  0  0  0  0  0  0  0  0  0  0  0
  140.4370   68.4820  228.7900 Cl  0  0  0  0  0  0  0  0  0  0  0  0
  141.0980   70.8320  227.5290 C   0  0  0  0  0  0  0  0  0  0  0  0
  141.1880   71.6970  226.4400 C   0  0  0  0  0  0  0  0  0  0  0  0
  140.7040   71.2600  225.2200 C   0  0  0  0  0  0  0  0  0  0  0  0
  140.7740   72.0750  224.1380 N   0  0  0  0  0  0  0  0  0  0  0  0
  140.2270   70.8110  220.3220 H   0  0  0  0  0  0  0  0  0  0  0  0
  139.6302   72.4539  218.5323 H   0  0  0  0  0  0  0  0  0  0  0  0
  140.0540   73.7909  219.6236 H   0  0  0  0  0  0  0  0  0  0  0  0
  143.7938   71.6337  221.1179 H   0  0  0  0  0  0  0  0  0  0  0  0
  142.8745   70.7492  219.8473 H   0  0  0  0  0  0  0  0  0  0  0  0
  145.1216   70.4338  219.1970 H   0  0  0  0  0  0  0  0  0  0  0  0
  144.5955   71.8257  218.1889 H   0  0  0  0  0  0  0  0  0  0  0  0
  146.0728   71.9906  220.8488 H   0  0  0  0  0  0  0  0  0  0  0  0
  146.7768   72.2294  219.1779 H   0  0  0  0  0  0  0  0  0  0  0  0
  146.4735   74.3437  220.1454 H   0  0  0  0  0  0  0  0  0  0  0  0
  145.1824   74.0570  218.8677 H   0  0  0  0  0  0  0  0  0  0  0  0
  144.4934   73.4489  221.6615 H   0  0  0  0  0  0  0  0  0  0  0  0
  144.6911   75.1929  221.1758 H   0  0  0  0  0  0  0  0  0  0  0  0
  142.3571   74.4157  220.9624 H   0  0  0  0  0  0  0  0  0  0  0  0
  142.4018   78.2436  218.1645 H   0  0  0  0  0  0  0  0  0  0  0  0
  143.0138   76.5151  216.1717 H   0  0  0  0  0  0  0  0  0  0  0  0
  143.4060   74.2400  217.3280 H   0  0  0  0  0  0  0  0  0  0  0  0
  139.3631   70.0280  221.8713 H   0  0  0  0  0  0  0  0  0  0  0  0
  139.2231   68.5076  223.8487 H   0  0  0  0  0  0  0  0  0  0  0  0
  139.6308   68.1376  226.1153 H   0  0  0  0  0  0  0  0  0  0  0  0
  141.4784   71.1717  228.5036 H   0  0  0  0  0  0  0  0  0  0  0  0
  141.6310   72.6981  226.5474 H   0  0  0  0  0  0  0  0  0  0  0  0
  1  2  2  0
  2  3  1  0
  3  4  1  0
  4  5  1  0
  5  6  2  0
  5  7  1  0
  7  8  1  0
  8  9  1  0
  9 10  1  0
 10 11  1  0
 11 12  1  0
 12 13  1  0
 13 14  1  0
 14 15  2  0
 15 16  1  0
 16 17  2  0
 17 18  1  0
  2 19  1  0
 19 20  2  0
 20 21  1  0
 21 22  2  0
 22 23  1  0
 23 24  2  0
 24 25  1  0
 24 26  1  0
 26 27  2  0
 27 28  1  0
 28 29  2  0
 13  7  1  0
 18 14  1  0
 29 19  1  0
 28 22  1  0
  3 30  1  0
  4 31  1  0
  4 32  1  0
  8 33  1  0
  8 34  1  0
  9 35  1  0
  9 36  1  0
 10 37  1  0
 10 38  1  0
 11 39  1  0
 11 40  1  0
 12 41  1  0
 12 42  1  0
 13 43  1  1
 16 44  1  0
 17 45  1  0
 18 46  1  0
 20 47  1  0
 21 48  1  0
 23 49  1  0
 26 50  1  0
 27 51  1  0
M  END
>  <smiles>  (48) 
O=C(NCC(=O)N1CCCCC[C@H]1c1ncc[nH]1)c1ccc2cc(Cl)ccc2n1

>  <score_type>  (48) 
oracle

>  <origin>  (48) 
autodockgpu

>  <m_score__min__energy>  (48) 
-6.0300000000000002

>  <m_primary>  (48) 
energy

>  <rmsd>  (48) 
4.125008872061368

>  <m_score__min__rmsd>  (48) 
4.125008872061368

>  <meeko>  (48) 
{"free_energy": -4.72, "intermolecular_energy": -8.0, "internal_energy": -2.53, "cluster_size": 2, "cluster_id": 9, "rank_in_cluster": 1}

>  <energy>  (48) 
-3.85

>  <cluster_rmsd>  (48) 
0.0

>  <cluster>  (48) 
18

$$$$

     RDKit          3D

 51 54  0  0  0  0  0  0  0  0999 V2000
  140.3020   72.4460  220.8430 O   0  0  0  0  0  0  0  0  0  0  0  0
  139.8550   72.7250  221.9850 C   0  0  0  0  0  0  0  0  0  0  0  0
  139.2450   74.0080  222.1320 N   0  0  0  0  0  0  0  0  0  0  0  0
  139.2190   74.8370  220.9220 C   0  0  0  0  0  0  0  0  0  0  0  0
  138.9320   76.2320  221.3600 C   0  0  0  0  0  0  0  0  0  0  0  0
  137.9400   76.4560  222.1100 O   0  0  0  0  0  0  0  0  0  0  0  0
  139.7860   77.2850  220.9210 N   0  0  0  0  0  0  0  0  0  0  0  0
  139.2460   78.2420  219.9560 C   0  0  0  0  0  0  0  0  0  0  0  0
  139.3780   77.6880  218.5390 C   0  0  0  0  0  0  0  0  0  0  0  0
  140.8400   77.4720  218.2130 C   0  0  0  0  0  0  0  0  0  0  0  0
  141.7760   78.0850  219.2050 C   0  0  0  0  0  0  0  0  0  0  0  0
  142.1320   77.2220  220.3660 C   0  0  0  0  0  0  0  0  0  0  0  0
  141.1180   77.2990  221.4850 C   0  0  1  0  0  0  0  0  0  0  0  0
  141.3630   78.4510  222.3560 C   0  0  0  0  0  0  0  0  0  0  0  0
  140.4510   79.0180  223.1600 N   0  0  0  0  0  0  0  0  0  0  0  0
  140.9910   80.0420  223.8180 C   0  0  0  0  0  0  0  0  0  0  0  0
  142.3180   80.1420  223.4200 C   0  0  0  0  0  0  0  0  0  0  0  0
  142.4920   79.1490  222.5280 N   0  0  0  0  0  0  0  0  0  0  0  0
  139.9420   71.8050  223.1170 C   0  0  0  0  0  0  0  0  0  0  0  0
  139.5050   70.5020  222.9140 C   0  0  0  0  0  0  0  0  0  0  0  0
  139.5450   69.5530  223.9230 C   0  0  0  0  0  0  0  0  0  0  0  0
  140.0410   69.9640  225.1390 C   0  0  0  0  0  0  0  0  0  0  0  0
  140.0840   69.0210  226.1480 C   0  0  0  0  0  0  0  0  0  0  0  0
  140.5750   69.3900  227.3860 C   0  0  0  0  0  0  0  0  0  0  0  0
  140.6140   68.1780  228.6350 Cl  0  0  0  0  0  0  0  0  0  0  0  0
  141.0030   70.6810  227.5730 C   0  0  0  0  0  0  0  0  0  0  0  0
  140.9670   71.6430  226.5660 C   0  0  0  0  0  0  0  0  0  0  0  0
  140.4750   71.2710  225.3270 C   0  0  0  0  0  0  0  0  0  0  0  0
  140.4250   72.1820  224.3230 N   0  0  0  0  0  0  0  0  0  0  0  0
  138.8430   74.3320  223.0400 H   0  0  0  0  0  0  0  0  0  0  0  0
  140.1928   74.7932  220.4123 H   0  0  0  0  0  0  0  0  0  0  0  0
  138.4542   74.4803  220.2164 H   0  0  0  0  0  0  0  0  0  0  0  0
  138.1841   78.4234  220.1785 H   0  0  0  0  0  0  0  0  0  0  0  0
  139.8093   79.1840  220.0287 H   0  0  0  0  0  0  0  0  0  0  0  0
  138.8418   76.7301  218.4689 H   0  0  0  0  0  0  0  0  0  0  0  0
  138.9462   78.4045  217.8247 H   0  0  0  0  0  0  0  0  0  0  0  0
  141.0314   76.3893  218.1785 H   0  0  0  0  0  0  0  0  0  0  0  0
  141.0292   77.9637  217.2474 H   0  0  0  0  0  0  0  0  0  0  0  0
  142.7058   78.3455  218.6781 H   0  0  0  0  0  0  0  0  0  0  0  0
  141.2469   78.9536  219.6241 H   0  0  0  0  0  0  0  0  0  0  0  0
  142.1975   76.1792  220.0220 H   0  0  0  0  0  0  0  0  0  0  0  0
  143.0926   77.5811  220.7638 H   0  0  0  0  0  0  0  0  0  0  0  0
  141.2187   76.4175  222.1352 H   0  0  0  0  0  0  0  0  0  0  0  0
  140.4794   80.6906  224.5444 H   0  0  0  0  0  0  0  0  0  0  0  0
  143.0651   80.8742  223.7601 H   0  0  0  0  0  0  0  0  0  0  0  0
  143.4060   78.9710  222.0500 H   0  0  0  0  0  0  0  0  0  0  0  0
  139.1167   70.2158  221.9254 H   0  0  0  0  0  0  0  0  0  0  0  0
  139.1975   68.5222  223.7600 H   0  0  0  0  0  0  0  0  0  0  0  0
  139.7333   67.9939  225.9689 H   0  0  0  0  0  0  0  0  0  0  0  0
  141.3914   70.9684  228.5612 H   0  0  0  0  0  0  0  0  0  0  0  0
  141.3194   72.6686  226.7503 H   0  0  0  0  0  0  0  0  0  0  0  0
  1  2  2  0
  2  3  1  0
  3  4  1  0
  4  5  1  0
  5  6  2  0
  5  7  1  0
  7  8  1  0
  8  9  1  0
  9 10  1  0
 10 11  1  0
 11 12  1  0
 12 13  1  0
 13 14  1  0
 14 15  2  0
 15 16  1  0
 16 17  2  0
 17 18  1  0
  2 19  1  0
 19 20  2  0
 20 21  1  0
 21 22  2  0
 22 23  1  0
 23 24  2  0
 24 25  1  0
 24 26  1  0
 26 27  2  0
 27 28  1  0
 28 29  2  0
 13  7  1  0
 18 14  1  0
 29 19  1  0
 28 22  1  0
  3 30  1  0
  4 31  1  0
  4 32  1  0
  8 33  1  0
  8 34  1  0
  9 35  1  0
  9 36  1  0
 10 37  1  0
 10 38  1  0
 11 39  1  0
 11 40  1  0
 12 41  1  0
 12 42  1  0
 13 43  1  1
 16 44  1  0
 17 45  1  0
 18 46  1  0
 20 47  1  0
 21 48  1  0
 23 49  1  0
 26 50  1  0
 27 51  1  0
M  END
>  <smiles>  (49) 
O=C(NCC(=O)N1CCCCC[C@H]1c1ncc[nH]1)c1ccc2cc(Cl)ccc2n1

>  <score_type>  (49) 
oracle

>  <origin>  (49) 
autodockgpu

>  <m_score__min__energy>  (49) 
-6.0300000000000002

>  <m_primary>  (49) 
energy

>  <rmsd>  (49) 
2.0987095372682356

>  <m_score__min__rmsd>  (49) 
2.0987095372682356

>  <meeko>  (49) 
{"free_energy": -6.03, "intermolecular_energy": -9.31, "internal_energy": -1.8, "cluster_size": 5, "cluster_id": 1, "rank_in_cluster": 1}

>  <energy>  (49) 
-3.84

>  <cluster_rmsd>  (49) 
0.0

>  <cluster>  (49) 
19

$$$$

     RDKit          3D

 51 54  0  0  0  0  0  0  0  0999 V2000
  138.2540   76.9890  223.0000 O   0  0  0  0  0  0  0  0  0  0  0  0
  138.9550   77.1760  221.9710 C   0  0  0  0  0  0  0  0  0  0  0  0
  138.7060   78.3800  221.2430 N   0  0  0  0  0  0  0  0  0  0  0  0
  137.6590   79.2460  221.7960 C   0  0  0  0  0  0  0  0  0  0  0  0
  138.2440   79.9230  222.9890 C   0  0  0  0  0  0  0  0  0  0  0  0
  137.4880   80.2590  223.9440 O   0  0  0  0  0  0  0  0  0  0  0  0
  139.6460   80.1770  223.0230 N   0  0  0  0  0  0  0  0  0  0  0  0
  140.4710   79.3190  223.8740 C   0  0  0  0  0  0  0  0  0  0  0  0
  141.6290   78.7400  223.0660 C   0  0  0  0  0  0  0  0  0  0  0  0
  142.8040   79.6930  223.1080 C   0  0  0  0  0  0  0  0  0  0  0  0
  142.5910   80.9470  222.3230 C   0  0  0  0  0  0  0  0  0  0  0  0
  141.4280   81.7780  222.7520 C   0  0  0  0  0  0  0  0  0  0  0  0
  140.1140   81.2710  222.2020 C   0  0  1  0  0  0  0  0  0  0  0  0
  140.2210   80.9220  220.7830 C   0  0  0  0  0  0  0  0  0  0  0  0
  140.9280   79.8920  220.2940 N   0  0  0  0  0  0  0  0  0  0  0  0
  140.8200   79.8490  218.9680 C   0  0  0  0  0  0  0  0  0  0  0  0
  140.0030   80.9040  218.5790 C   0  0  0  0  0  0  0  0  0  0  0  0
  139.6670   81.5260  219.7250 N   0  0  0  0  0  0  0  0  0  0  0  0
  139.9740   76.2300  221.5240 C   0  0  0  0  0  0  0  0  0  0  0  0
  141.0000   76.7260  220.7300 C   0  0  0  0  0  0  0  0  0  0  0  0
  142.0150   75.9110  220.2540 C   0  0  0  0  0  0  0  0  0  0  0  0
  141.9570   74.5820  220.6080 C   0  0  0  0  0  0  0  0  0  0  0  0
  142.9670   73.7660  220.1360 C   0  0  0  0  0  0  0  0  0  0  0  0
  142.9500   72.4240  220.4670 C   0  0  0  0  0  0  0  0  0  0  0  0
  144.2370   71.4230  219.8550 Cl  0  0  0  0  0  0  0  0  0  0  0  0
  141.9300   71.9470  221.2520 C   0  0  0  0  0  0  0  0  0  0  0  0
  140.9050   72.7570  221.7360 C   0  0  0  0  0  0  0  0  0  0  0  0
  140.9250   74.1010  221.4040 C   0  0  0  0  0  0  0  0  0  0  0  0
  139.9430   74.9190  221.8570 N   0  0  0  0  0  0  0  0  0  0  0  0
  139.2360   78.6260  220.3780 H   0  0  0  0  0  0  0  0  0  0  0  0
  137.3523   79.9932  221.0493 H   0  0  0  0  0  0  0  0  0  0  0  0
  136.7687   78.6616  222.0714 H   0  0  0  0  0  0  0  0  0  0  0  0
  140.8707   79.9116  224.7101 H   0  0  0  0  0  0  0  0  0  0  0  0
  139.8540   78.4950  224.2618 H   0  0  0  0  0  0  0  0  0  0  0  0
  141.9271   77.7721  223.4954 H   0  0  0  0  0  0  0  0  0  0  0  0
  141.3112   78.5977  222.0226 H   0  0  0  0  0  0  0  0  0  0  0  0
  142.9907   79.9676  224.1567 H   0  0  0  0  0  0  0  0  0  0  0  0
  143.6575   79.1701  222.6518 H   0  0  0  0  0  0  0  0  0  0  0  0
  143.4989   81.5617  222.4114 H   0  0  0  0  0  0  0  0  0  0  0  0
  142.3735   80.6279  221.2930 H   0  0  0  0  0  0  0  0  0  0  0  0
  141.3761   81.7701  223.8507 H   0  0  0  0  0  0  0  0  0  0  0  0
  141.5827   82.7938  222.3593 H   0  0  0  0  0  0  0  0  0  0  0  0
  139.3623   82.0729  222.2467 H   0  0  0  0  0  0  0  0  0  0  0  0
  141.2917   79.1123  218.3011 H   0  0  0  0  0  0  0  0  0  0  0  0
  139.6973   81.1725  217.5570 H   0  0  0  0  0  0  0  0  0  0  0  0
  139.0480   82.3690  219.7510 H   0  0  0  0  0  0  0  0  0  0  0  0
  141.0072   77.7952  220.4718 H   0  0  0  0  0  0  0  0  0  0  0  0
  142.8262   76.3063  219.6249 H   0  0  0  0  0  0  0  0  0  0  0  0
  143.7708   74.1771  219.5076 H   0  0  0  0  0  0  0  0  0  0  0  0
  141.9215   70.8778  221.5104 H   0  0  0  0  0  0  0  0  0  0  0  0
  140.1032   72.3409  222.3636 H   0  0  0  0  0  0  0  0  0  0  0  0
  1  2  2  0
  2  3  1  0
  3  4  1  0
  4  5  1  0
  5  6  2  0
  5  7  1  0
  7  8  1  0
  8  9  1  0
  9 10  1  0
 10 11  1  0
 11 12  1  0
 12 13  1  0
 13 14  1  0
 14 15  2  0
 15 16  1  0
 16 17  2  0
 17 18  1  0
  2 19  1  0
 19 20  2  0
 20 21  1  0
 21 22  2  0
 22 23  1  0
 23 24  2  0
 24 25  1  0
 24 26  1  0
 26 27  2  0
 27 28  1  0
 28 29  2  0
 13  7  1  0
 18 14  1  0
 29 19  1  0
 28 22  1  0
  3 30  1  0
  4 31  1  0
  4 32  1  0
  8 33  1  0
  8 34  1  0
  9 35  1  0
  9 36  1  0
 10 37  1  0
 10 38  1  0
 11 39  1  0
 11 40  1  0
 12 41  1  0
 12 42  1  0
 13 43  1  6
 16 44  1  0
 17 45  1  0
 18 46  1  0
 20 47  1  0
 21 48  1  0
 23 49  1  0
 26 50  1  0
 27 51  1  0
M  END
>  <smiles>  (50) 
O=C(NCC(=O)N1CCCCC[C@H]1c1ncc[nH]1)c1ccc2cc(Cl)ccc2n1

>  <score_type>  (50) 
oracle

>  <origin>  (50) 
autodockgpu

>  <m_score__min__energy>  (50) 
-6.0300000000000002

>  <m_primary>  (50) 
energy

>  <rmsd>  (50) 
6.740559959157127

>  <m_score__min__rmsd>  (50) 
6.740559959157127

>  <meeko>  (50) 
{"free_energy": -3.99, "intermolecular_energy": -7.27, "internal_energy": -2.85, "cluster_size": 3, "cluster_id": 16, "rank_in_cluster": 1}

>  <energy>  (50) 
-3.67

>  <cluster_rmsd>  (50) 
1.67

>  <cluster>  (50) 
19

$$$$
