
     RDKit          3D

 57 61  0  0  0  0  0  0  0  0999 V2000
  142.9000   74.1730  220.3530 O   0  0  0  0  0  0  0  0  0  0  0  0
  141.8240   73.9800  220.9760 C   0  0  0  0  0  0  0  0  0  0  0  0
  141.4120   72.5840  221.2110 C   0  0  0  0  0  0  0  0  0  0  0  0
  140.1310   72.5110  221.9530 C   0  0  0  0  0  0  0  0  0  0  0  0
  139.6070   71.1750  222.2530 C   0  0  0  0  0  0  0  0  0  0  0  0
  138.9220   70.4190  221.3430 C   0  0  0  0  0  0  0  0  0  0  0  0
  138.4190   69.1610  221.5980 C   0  0  0  0  0  0  0  0  0  0  0  0
  138.6100   68.6190  222.8460 C   0  0  0  0  0  0  0  0  0  0  0  0
  139.3030   69.3500  223.8100 C   0  0  0  0  0  0  0  0  0  0  0  0
  139.4700   68.7140  225.1130 C   0  0  0  0  0  0  0  0  0  0  0  0
  139.3220   67.4650  225.1560 O   0  0  0  0  0  0  0  0  0  0  0  0
  139.7860   69.4670  226.2770 N   0  0  0  0  0  0  0  0  0  0  0  0
  139.9900   70.9130  226.3930 C   0  0  0  0  0  0  0  0  0  0  0  0
  140.9420   71.0980  227.5330 C   0  0  0  0  0  0  0  0  0  0  0  0
  141.1020   69.7630  228.1780 C   0  0  0  0  0  0  0  0  0  0  0  0
  139.9700   68.9460  227.5970 C   0  0  0  0  0  0  0  0  0  0  0  0
  139.7940   70.6070  223.5190 C   0  0  0  0  0  0  0  0  0  0  0  0
  139.4670   73.5470  222.3420 N   0  0  0  0  0  0  0  0  0  0  0  0
  139.8790   74.8870  222.1060 C   0  0  0  0  0  0  0  0  0  0  0  0
  139.1590   75.9820  222.5270 C   0  0  0  0  0  0  0  0  0  0  0  0
  139.5980   77.2870  222.2760 C   0  0  0  0  0  0  0  0  0  0  0  0
  140.7720   77.5240  221.5950 C   0  0  0  0  0  0  0  0  0  0  0  0
  141.1690   78.8650  221.3700 N   0  0  0  0  0  0  0  0  0  0  0  0
  141.4260   79.6930  222.5240 C   0  0  0  0  0  0  0  0  0  0  0  0
  142.2280   80.8970  222.0400 C   0  0  0  0  0  0  0  0  0  0  0  0
  141.4590   81.7190  221.0390 C   0  0  0  0  0  0  0  0  0  0  0  0
  140.7600   80.8610  220.0360 C   0  0  0  0  0  0  0  0  0  0  0  0
  141.3320   79.4590  220.0620 C   0  0  0  0  0  0  0  0  0  0  0  0
  141.4880   76.4250  221.1780 C   0  0  0  0  0  0  0  0  0  0  0  0
  141.0530   75.1350  221.4270 C   0  0  0  0  0  0  0  0  0  0  0  0
  141.2921   72.0791  220.2411 H   0  0  0  0  0  0  0  0  0  0  0  0
  142.1886   72.0931  221.8159 H   0  0  0  0  0  0  0  0  0  0  0  0
  138.7615   70.8426  220.3406 H   0  0  0  0  0  0  0  0  0  0  0  0
  137.8769   68.6037  220.8198 H   0  0  0  0  0  0  0  0  0  0  0  0
  138.2199   67.6180  223.0823 H   0  0  0  0  0  0  0  0  0  0  0  0
  140.4211   71.3152  225.4643 H   0  0  0  0  0  0  0  0  0  0  0  0
  139.0422   71.4440  226.5655 H   0  0  0  0  0  0  0  0  0  0  0  0
  141.9127   71.4585  227.1617 H   0  0  0  0  0  0  0  0  0  0  0  0
  140.5618   71.8409  228.2497 H   0  0  0  0  0  0  0  0  0  0  0  0
  142.0762   69.3193  227.9247 H   0  0  0  0  0  0  0  0  0  0  0  0
  141.0709   69.8139  229.2764 H   0  0  0  0  0  0  0  0  0  0  0  0
  140.2403   67.8804  227.5592 H   0  0  0  0  0  0  0  0  0  0  0  0
  139.0542   69.0140  228.2026 H   0  0  0  0  0  0  0  0  0  0  0  0
  140.3390   71.1694  224.2914 H   0  0  0  0  0  0  0  0  0  0  0  0
  138.2168   75.8278  223.0733 H   0  0  0  0  0  0  0  0  0  0  0  0
  138.9958   78.1375  222.6282 H   0  0  0  0  0  0  0  0  0  0  0  0
  140.4767   80.0257  222.9690 H   0  0  0  0  0  0  0  0  0  0  0  0
  141.9815   79.1345  223.2918 H   0  0  0  0  0  0  0  0  0  0  0  0
  142.4756   81.5302  222.9047 H   0  0  0  0  0  0  0  0  0  0  0  0
  143.1383   80.5244  221.5475 H   0  0  0  0  0  0  0  0  0  0  0  0
  140.7111   82.3228  221.5738 H   0  0  0  0  0  0  0  0  0  0  0  0
  142.1738   82.3596  220.5017 H   0  0  0  0  0  0  0  0  0  0  0  0
  139.6873   80.8208  220.2761 H   0  0  0  0  0  0  0  0  0  0  0  0
  140.9032   81.2898  219.0332 H   0  0  0  0  0  0  0  0  0  0  0  0
  140.8086   78.8415  219.3172 H   0  0  0  0  0  0  0  0  0  0  0  0
  142.4056   79.5106  219.8282 H   0  0  0  0  0  0  0  0  0  0  0  0
  142.4311   76.5760  220.6323 H   0  0  0  0  0  0  0  0  0  0  0  0
  1  2  2  0
  2  3  1  0
  3  4  1  0
  4  5  1  0
  5  6  2  0
  6  7  1  0
  7  8  2  0
  8  9  1  0
  9 10  1  0
 10 11  2  0
 10 12  1  0
 12 13  1  0
 13 14  1  0
 14 15  1  0
 15 16  1  0
  9 17  2  0
  4 18  2  0
 18 19  1  0
 19 20  2  0
 20 21  1  0
 21 22  2  0
 22 23  1  0
 23 24  1  0
 24 25  1  0
 25 26  1  0
 26 27  1  0
 27 28  1  0
 22 29  1  0
 29 30  2  0
 30  2  1  0
 17  5  1  0
 30 19  1  0
 16 12  1  0
 28 23  1  0
  3 31  1  0
  3 32  1  0
  6 33  1  0
  7 34  1  0
  8 35  1  0
 13 36  1  0
 13 37  1  0
 14 38  1  0
 14 39  1  0
 15 40  1  0
 15 41  1  0
 16 42  1  0
 16 43  1  0
 17 44  1  0
 20 45  1  0
 21 46  1  0
 24 47  1  0
 24 48  1  0
 25 49  1  0
 25 50  1  0
 26 51  1  0
 26 52  1  0
 27 53  1  0
 27 54  1  0
 28 55  1  0
 28 56  1  0
 29 57  1  0
M  END
>  <smiles>  (1) 
O=C1CC(c2cccc(C(=O)N3CCCC3)c2)=Nc2ccc(N3CCCCC3)cc21

>  <score_type>  (1) 
oracle

>  <origin>  (1) 
autodockgpu

>  <m_score__min__energy>  (1) 
-8.9900000000000002

>  <m_primary>  (1) 
energy

>  <rmsd>  (1) 
5.834906453495026

>  <m_score__min__rmsd>  (1) 
5.834906453495026

>  <meeko>  (1) 
{"free_energy": -8.79, "intermolecular_energy": -9.68, "internal_energy": -0.84, "cluster_size": 49, "cluster_id": 1, "rank_in_cluster": 39}

>  <energy>  (1) 
-8.99

>  <cluster_rmsd>  (1) 
0.0

>  <cluster>  (1) 
1

$$$$

     RDKit          3D

 57 61  0  0  0  0  0  0  0  0999 V2000
  142.8950   74.8180  220.3380 O   0  0  0  0  0  0  0  0  0  0  0  0
  141.8540   74.4880  220.9630 C   0  0  0  0  0  0  0  0  0  0  0  0
  141.5810   73.0490  221.1250 C   0  0  0  0  0  0  0  0  0  0  0  0
  140.3270   72.8110  221.8770 C   0  0  0  0  0  0  0  0  0  0  0  0
  139.9390   71.4170  222.1080 C   0  0  0  0  0  0  0  0  0  0  0  0
  139.5790   70.5640  221.1020 C   0  0  0  0  0  0  0  0  0  0  0  0
  139.2090   69.2500  221.2910 C   0  0  0  0  0  0  0  0  0  0  0  0
  139.1980   68.7490  222.5700 C   0  0  0  0  0  0  0  0  0  0  0  0
  139.5580   69.5780  223.6310 C   0  0  0  0  0  0  0  0  0  0  0  0
  139.5250   68.9810  224.9630 C   0  0  0  0  0  0  0  0  0  0  0  0
  139.2160   67.7640  225.0300 O   0  0  0  0  0  0  0  0  0  0  0  0
  139.8270   69.7380  226.1290 N   0  0  0  0  0  0  0  0  0  0  0  0
  140.2030   71.1510  226.2190 C   0  0  0  0  0  0  0  0  0  0  0  0
  141.0630   71.2650  227.4390 C   0  0  0  0  0  0  0  0  0  0  0  0
  140.9930   69.9480  228.1360 C   0  0  0  0  0  0  0  0  0  0  0  0
  139.8240   69.2540  227.4750 C   0  0  0  0  0  0  0  0  0  0  0  0
  139.9230   70.8900  223.4050 C   0  0  0  0  0  0  0  0  0  0  0  0
  139.5730   73.7560  222.3310 N   0  0  0  0  0  0  0  0  0  0  0  0
  139.8510   75.1400  222.1650 C   0  0  0  0  0  0  0  0  0  0  0  0
  139.0360   76.1350  222.6550 C   0  0  0  0  0  0  0  0  0  0  0  0
  139.3430   77.4890  222.4720 C   0  0  0  0  0  0  0  0  0  0  0  0
  140.4770   77.8750  221.7910 C   0  0  0  0  0  0  0  0  0  0  0  0
  140.7400   79.2590  221.6360 N   0  0  0  0  0  0  0  0  0  0  0  0
  141.6710   79.6550  220.6070 C   0  0  0  0  0  0  0  0  0  0  0  0
  141.4540   81.1450  220.3590 C   0  0  0  0  0  0  0  0  0  0  0  0
  141.7380   81.9670  221.5880 C   0  0  0  0  0  0  0  0  0  0  0  0
  141.1640   81.3450  222.8180 C   0  0  0  0  0  0  0  0  0  0  0  0
  140.1370   80.2980  222.4400 C   0  0  0  0  0  0  0  0  0  0  0  0
  141.2880   76.8750  221.3040 C   0  0  0  0  0  0  0  0  0  0  0  0
  140.9830   75.5380  221.4860 C   0  0  0  0  0  0  0  0  0  0  0  0
  141.4929   72.5885  220.1299 H   0  0  0  0  0  0  0  0  0  0  0  0
  142.4114   72.6040  221.6929 H   0  0  0  0  0  0  0  0  0  0  0  0
  139.5851   70.9525  220.0729 H   0  0  0  0  0  0  0  0  0  0  0  0
  138.9287   68.6164  220.4366 H   0  0  0  0  0  0  0  0  0  0  0  0
  138.9080   67.7042  222.7549 H   0  0  0  0  0  0  0  0  0  0  0  0
  140.7649   71.4560  225.3239 H   0  0  0  0  0  0  0  0  0  0  0  0
  139.3192   71.8028  226.2832 H   0  0  0  0  0  0  0  0  0  0  0  0
  142.1013   71.4874  227.1517 H   0  0  0  0  0  0  0  0  0  0  0  0
  140.7164   72.0784  228.0934 H   0  0  0  0  0  0  0  0  0  0  0  0
  141.9218   69.3770  227.9898 H   0  0  0  0  0  0  0  0  0  0  0  0
  140.8692   70.0480  229.2244 H   0  0  0  0  0  0  0  0  0  0  0  0
  139.9593   68.1625  227.4949 H   0  0  0  0  0  0  0  0  0  0  0  0
  138.8735   69.4601  227.9888 H   0  0  0  0  0  0  0  0  0  0  0  0
  140.2048   71.5294  224.2546 H   0  0  0  0  0  0  0  0  0  0  0  0
  138.1226   75.8604  223.2029 H   0  0  0  0  0  0  0  0  0  0  0  0
  138.6681   78.2567  222.8784 H   0  0  0  0  0  0  0  0  0  0  0  0
  142.7032   79.4740  220.9414 H   0  0  0  0  0  0  0  0  0  0  0  0
  141.5083   79.0758  219.6861 H   0  0  0  0  0  0  0  0  0  0  0  0
  142.1239   81.4719  219.5501 H   0  0  0  0  0  0  0  0  0  0  0  0
  140.3990   81.2945  220.0857 H   0  0  0  0  0  0  0  0  0  0  0  0
  142.8273   82.0586  221.7108 H   0  0  0  0  0  0  0  0  0  0  0  0
  141.2700   82.9535  221.4543 H   0  0  0  0  0  0  0  0  0  0  0  0
  141.9707   80.8713  223.3967 H   0  0  0  0  0  0  0  0  0  0  0  0
  140.6780   82.1247  223.4229 H   0  0  0  0  0  0  0  0  0  0  0  0
  139.7225   79.8514  223.3558 H   0  0  0  0  0  0  0  0  0  0  0  0
  139.3390   80.7795  221.8558 H   0  0  0  0  0  0  0  0  0  0  0  0
  142.2024   77.1461  220.7559 H   0  0  0  0  0  0  0  0  0  0  0  0
  1  2  2  0
  2  3  1  0
  3  4  1  0
  4  5  1  0
  5  6  2  0
  6  7  1  0
  7  8  2  0
  8  9  1  0
  9 10  1  0
 10 11  2  0
 10 12  1  0
 12 13  1  0
 13 14  1  0
 14 15  1  0
 15 16  1  0
  9 17  2  0
  4 18  2  0
 18 19  1  0
 19 20  2  0
 20 21  1  0
 21 22  2  0
 22 23  1  0
 23 24  1  0
 24 25  1  0
 25 26  1  0
 26 27  1  0
 27 28  1  0
 22 29  1  0
 29 30  2  0
 30  2  1  0
 17  5  1  0
 30 19  1  0
 16 12  1  0
 28 23  1  0
  3 31  1  0
  3 32  1  0
  6 33  1  0
  7 34  1  0
  8 35  1  0
 13 36  1  0
 13 37  1  0
 14 38  1  0
 14 39  1  0
 15 40  1  0
 15 41  1  0
 16 42  1  0
 16 43  1  0
 17 44  1  0
 20 45  1  0
 21 46  1  0
 24 47  1  0
 24 48  1  0
 25 49  1  0
 25 50  1  0
 26 51  1  0
 26 52  1  0
 27 53  1  0
 27 54  1  0
 28 55  1  0
 28 56  1  0
 29 57  1  0
M  END
>  <smiles>  (2) 
O=C1CC(c2cccc(C(=O)N3CCCC3)c2)=Nc2ccc(N3CCCCC3)cc21

>  <score_type>  (2) 
oracle

>  <origin>  (2) 
autodockgpu

>  <m_score__min__energy>  (2) 
-8.9900000000000002

>  <m_primary>  (2) 
energy

>  <rmsd>  (2) 
6.164271592798731

>  <m_score__min__rmsd>  (2) 
6.164271592798731

>  <meeko>  (2) 
{"free_energy": -8.88, "intermolecular_energy": -9.78, "internal_energy": -0.76, "cluster_size": 49, "cluster_id": 1, "rank_in_cluster": 25}

>  <energy>  (2) 
-8.98

>  <cluster_rmsd>  (2) 
0.02

>  <cluster>  (2) 
1

$$$$

     RDKit          3D

 57 61  0  0  0  0  0  0  0  0999 V2000
  142.9000   74.6040  220.2300 O   0  0  0  0  0  0  0  0  0  0  0  0
  141.8540   74.3530  220.8840 C   0  0  0  0  0  0  0  0  0  0  0  0
  141.4890   72.9370  221.0720 C   0  0  0  0  0  0  0  0  0  0  0  0
  140.2410   72.7950  221.8560 C   0  0  0  0  0  0  0  0  0  0  0  0
  139.7650   71.4330  222.1160 C   0  0  0  0  0  0  0  0  0  0  0  0
  139.2260   70.6320  221.1480 C   0  0  0  0  0  0  0  0  0  0  0  0
  138.7710   69.3480  221.3650 C   0  0  0  0  0  0  0  0  0  0  0  0
  138.8590   68.8260  222.6320 C   0  0  0  0  0  0  0  0  0  0  0  0
  139.4010   69.6030  223.6550 C   0  0  0  0  0  0  0  0  0  0  0  0
  139.4640   68.9860  224.9760 C   0  0  0  0  0  0  0  0  0  0  0  0
  139.1990   67.7590  225.0410 O   0  0  0  0  0  0  0  0  0  0  0  0
  139.8100   69.7360  226.1350 N   0  0  0  0  0  0  0  0  0  0  0  0
  140.1440   71.1590  226.2270 C   0  0  0  0  0  0  0  0  0  0  0  0
  141.0700   71.2840  227.3960 C   0  0  0  0  0  0  0  0  0  0  0  0
  141.0830   69.9550  228.0750 C   0  0  0  0  0  0  0  0  0  0  0  0
  139.9010   69.2330  227.4710 C   0  0  0  0  0  0  0  0  0  0  0  0
  139.8470   70.8850  223.4020 C   0  0  0  0  0  0  0  0  0  0  0  0
  139.5640   73.7930  222.3160 N   0  0  0  0  0  0  0  0  0  0  0  0
  139.9300   75.1540  222.1240 C   0  0  0  0  0  0  0  0  0  0  0  0
  139.1960   76.2080  222.6200 C   0  0  0  0  0  0  0  0  0  0  0  0
  139.5890   77.5350  222.4100 C   0  0  0  0  0  0  0  0  0  0  0  0
  140.7300   77.8350  221.6970 C   0  0  0  0  0  0  0  0  0  0  0  0
  141.0810   79.1960  221.5170 N   0  0  0  0  0  0  0  0  0  0  0  0
  141.0200   80.0640  222.6690 C   0  0  0  0  0  0  0  0  0  0  0  0
  141.8310   81.3110  222.3310 C   0  0  0  0  0  0  0  0  0  0  0  0
  141.2560   82.0550  221.1560 C   0  0  0  0  0  0  0  0  0  0  0  0
  140.8540   81.1290  220.0540 C   0  0  0  0  0  0  0  0  0  0  0  0
  141.4950   79.7720  220.2580 C   0  0  0  0  0  0  0  0  0  0  0  0
  141.4590   76.7770  221.2060 C   0  0  0  0  0  0  0  0  0  0  0  0
  141.0690   75.4650  221.4130 C   0  0  0  0  0  0  0  0  0  0  0  0
  141.3459   72.4713  220.0858 H   0  0  0  0  0  0  0  0  0  0  0  0
  142.3011   72.4431  221.6257 H   0  0  0  0  0  0  0  0  0  0  0  0
  139.1501   71.0384  220.1286 H   0  0  0  0  0  0  0  0  0  0  0  0
  138.3469   68.7552  220.5411 H   0  0  0  0  0  0  0  0  0  0  0  0
  138.5054   67.8049  222.8379 H   0  0  0  0  0  0  0  0  0  0  0  0
  140.6418   71.4963  225.3059 H   0  0  0  0  0  0  0  0  0  0  0  0
  139.2445   71.7793  226.3540 H   0  0  0  0  0  0  0  0  0  0  0  0
  142.0820   71.5443  227.0522 H   0  0  0  0  0  0  0  0  0  0  0  0
  140.7370   72.0764  228.0824 H   0  0  0  0  0  0  0  0  0  0  0  0
  142.0196   69.4171  227.8666 H   0  0  0  0  0  0  0  0  0  0  0  0
  141.0195   70.0351  229.1702 H   0  0  0  0  0  0  0  0  0  0  0  0
  140.0722   68.1464  227.4652 H   0  0  0  0  0  0  0  0  0  0  0  0
  138.9758   69.4006  228.0419 H   0  0  0  0  0  0  0  0  0  0  0  0
  140.2722   71.4835  224.2211 H   0  0  0  0  0  0  0  0  0  0  0  0
  138.2804   76.0027  223.1940 H   0  0  0  0  0  0  0  0  0  0  0  0
  138.9773   78.3518  222.8207 H   0  0  0  0  0  0  0  0  0  0  0  0
  139.9760   80.3382  222.8806 H   0  0  0  0  0  0  0  0  0  0  0  0
  141.4244   79.5623  223.5605 H   0  0  0  0  0  0  0  0  0  0  0  0
  141.8376   81.9784  223.2054 H   0  0  0  0  0  0  0  0  0  0  0  0
  142.8501   80.9926  222.0663 H   0  0  0  0  0  0  0  0  0  0  0  0
  140.3710   82.6170  221.4892 H   0  0  0  0  0  0  0  0  0  0  0  0
  142.0316   82.7315  220.7676 H   0  0  0  0  0  0  0  0  0  0  0  0
  139.7596   81.0183  220.0522 H   0  0  0  0  0  0  0  0  0  0  0  0
  141.1884   81.5454  219.0924 H   0  0  0  0  0  0  0  0  0  0  0  0
  141.1934   79.1033  219.4383 H   0  0  0  0  0  0  0  0  0  0  0  0
  142.5881   79.8949  220.2675 H   0  0  0  0  0  0  0  0  0  0  0  0
  142.3764   76.9788  220.6336 H   0  0  0  0  0  0  0  0  0  0  0  0
  1  2  2  0
  2  3  1  0
  3  4  1  0
  4  5  1  0
  5  6  2  0
  6  7  1  0
  7  8  2  0
  8  9  1  0
  9 10  1  0
 10 11  2  0
 10 12  1  0
 12 13  1  0
 13 14  1  0
 14 15  1  0
 15 16  1  0
  9 17  2  0
  4 18  2  0
 18 19  1  0
 19 20  2  0
 20 21  1  0
 21 22  2  0
 22 23  1  0
 23 24  1  0
 24 25  1  0
 25 26  1  0
 26 27  1  0
 27 28  1  0
 22 29  1  0
 29 30  2  0
 30  2  1  0
 17  5  1  0
 30 19  1  0
 16 12  1  0
 28 23  1  0
  3 31  1  0
  3 32  1  0
  6 33  1  0
  7 34  1  0
  8 35  1  0
 13 36  1  0
 13 37  1  0
 14 38  1  0
 14 39  1  0
 15 40  1  0
 15 41  1  0
 16 42  1  0
 16 43  1  0
 17 44  1  0
 20 45  1  0
 21 46  1  0
 24 47  1  0
 24 48  1  0
 25 49  1  0
 25 50  1  0
 26 51  1  0
 26 52  1  0
 27 53  1  0
 27 54  1  0
 28 55  1  0
 28 56  1  0
 29 57  1  0
M  END
>  <smiles>  (3) 
O=C1CC(c2cccc(C(=O)N3CCCC3)c2)=Nc2ccc(N3CCCCC3)cc21

>  <score_type>  (3) 
oracle

>  <origin>  (3) 
autodockgpu

>  <m_score__min__energy>  (3) 
-8.9900000000000002

>  <m_primary>  (3) 
energy

>  <rmsd>  (3) 
5.84621933607678

>  <m_score__min__rmsd>  (3) 
5.84621933607678

>  <meeko>  (3) 
{"free_energy": -8.98, "intermolecular_energy": -9.88, "internal_energy": -0.77, "cluster_size": 49, "cluster_id": 1, "rank_in_cluster": 3}

>  <energy>  (3) 
-8.98

>  <cluster_rmsd>  (3) 
0.05

>  <cluster>  (3) 
1

$$$$

     RDKit          3D

 57 61  0  0  0  0  0  0  0  0999 V2000
  142.8540   74.4750  220.3440 O   0  0  0  0  0  0  0  0  0  0  0  0
  141.7850   74.2660  220.9740 C   0  0  0  0  0  0  0  0  0  0  0  0
  141.3770   72.8660  221.1830 C   0  0  0  0  0  0  0  0  0  0  0  0
  140.1040   72.7740  221.9360 C   0  0  0  0  0  0  0  0  0  0  0  0
  139.5860   71.4310  222.2120 C   0  0  0  0  0  0  0  0  0  0  0  0
  138.9220   70.6790  221.2830 C   0  0  0  0  0  0  0  0  0  0  0  0
  138.4240   69.4150  221.5160 C   0  0  0  0  0  0  0  0  0  0  0  0
  138.5980   68.8600  222.7600 C   0  0  0  0  0  0  0  0  0  0  0  0
  139.2690   69.5860  223.7440 C   0  0  0  0  0  0  0  0  0  0  0  0
  139.4200   68.9370  225.0420 C   0  0  0  0  0  0  0  0  0  0  0  0
  139.2400   67.6930  225.0770 O   0  0  0  0  0  0  0  0  0  0  0  0
  139.7550   69.6740  226.2120 N   0  0  0  0  0  0  0  0  0  0  0  0
  139.9960   71.1130  226.3370 C   0  0  0  0  0  0  0  0  0  0  0  0
  140.9520   71.2660  227.4790 C   0  0  0  0  0  0  0  0  0  0  0  0
  141.0780   69.9220  228.1150 C   0  0  0  0  0  0  0  0  0  0  0  0
  139.9260   69.1390  227.5280 C   0  0  0  0  0  0  0  0  0  0  0  0
  139.7550   70.8500  223.4750 C   0  0  0  0  0  0  0  0  0  0  0  0
  139.4410   73.8000  222.3530 N   0  0  0  0  0  0  0  0  0  0  0  0
  139.8490   75.1450  222.1420 C   0  0  0  0  0  0  0  0  0  0  0  0
  139.1300   76.2290  222.5930 C   0  0  0  0  0  0  0  0  0  0  0  0
  139.5640   77.5410  222.3650 C   0  0  0  0  0  0  0  0  0  0  0  0
  140.7320   77.7940  221.6780 C   0  0  0  0  0  0  0  0  0  0  0  0
  141.1240   79.1410  221.4770 N   0  0  0  0  0  0  0  0  0  0  0  0
  140.9840   80.0540  222.5870 C   0  0  0  0  0  0  0  0  0  0  0  0
  141.8450   81.2730  222.2720 C   0  0  0  0  0  0  0  0  0  0  0  0
  141.3850   81.9810  221.0250 C   0  0  0  0  0  0  0  0  0  0  0  0
  141.0590   81.0200  219.9300 C   0  0  0  0  0  0  0  0  0  0  0  0
  141.6530   79.6610  220.2370 C   0  0  0  0  0  0  0  0  0  0  0  0
  141.4460   76.7060  221.2310 C   0  0  0  0  0  0  0  0  0  0  0  0
  141.0150   75.4110  221.4560 C   0  0  0  0  0  0  0  0  0  0  0  0
  141.2479   72.3821  220.2036 H   0  0  0  0  0  0  0  0  0  0  0  0
  142.1603   72.3639  221.7699 H   0  0  0  0  0  0  0  0  0  0  0  0
  138.7754   71.1118  220.2824 H   0  0  0  0  0  0  0  0  0  0  0  0
  137.8986   68.8629  220.7228 H   0  0  0  0  0  0  0  0  0  0  0  0
  138.2122   67.8533  222.9782 H   0  0  0  0  0  0  0  0  0  0  0  0
  140.4379   71.5097  225.4111 H   0  0  0  0  0  0  0  0  0  0  0  0
  139.0622   71.6673  226.5122 H   0  0  0  0  0  0  0  0  0  0  0  0
  141.9316   71.6046  227.1107 H   0  0  0  0  0  0  0  0  0  0  0  0
  140.5903   72.0132  228.2007 H   0  0  0  0  0  0  0  0  0  0  0  0
  142.0406   69.4553  227.8587 H   0  0  0  0  0  0  0  0  0  0  0  0
  141.0481   69.9656  229.2137 H   0  0  0  0  0  0  0  0  0  0  0  0
  140.1691   68.0672  227.4822 H   0  0  0  0  0  0  0  0  0  0  0  0
  139.0123   69.2263  228.1342 H   0  0  0  0  0  0  0  0  0  0  0  0
  140.2819   71.4080  224.2631 H   0  0  0  0  0  0  0  0  0  0  0  0
  138.1935   76.0609  223.1449 H   0  0  0  0  0  0  0  0  0  0  0  0
  138.9634   78.3828  222.7401 H   0  0  0  0  0  0  0  0  0  0  0  0
  139.9316   80.3536  222.6995 H   0  0  0  0  0  0  0  0  0  0  0  0
  141.3022   79.5807  223.5276 H   0  0  0  0  0  0  0  0  0  0  0  0
  141.7920   81.9736  223.1183 H   0  0  0  0  0  0  0  0  0  0  0  0
  142.8760   80.9273  222.1060 H   0  0  0  0  0  0  0  0  0  0  0  0
  140.4865   82.5701  221.2609 H   0  0  0  0  0  0  0  0  0  0  0  0
  142.2032   82.6294  220.6784 H   0  0  0  0  0  0  0  0  0  0  0  0
  139.9666   80.9278  219.8400 H   0  0  0  0  0  0  0  0  0  0  0  0
  141.4819   81.3930  218.9855 H   0  0  0  0  0  0  0  0  0  0  0  0
  141.4072   78.9665  219.4201 H   0  0  0  0  0  0  0  0  0  0  0  0
  142.7437   79.7654  220.3339 H   0  0  0  0  0  0  0  0  0  0  0  0
  142.3840   76.8703  220.6804 H   0  0  0  0  0  0  0  0  0  0  0  0
  1  2  2  0
  2  3  1  0
  3  4  1  0
  4  5  1  0
  5  6  2  0
  6  7  1  0
  7  8  2  0
  8  9  1  0
  9 10  1  0
 10 11  2  0
 10 12  1  0
 12 13  1  0
 13 14  1  0
 14 15  1  0
 15 16  1  0
  9 17  2  0
  4 18  2  0
 18 19  1  0
 19 20  2  0
 20 21  1  0
 21 22  2  0
 22 23  1  0
 23 24  1  0
 24 25  1  0
 25 26  1  0
 26 27  1  0
 27 28  1  0
 22 29  1  0
 29 30  2  0
 30  2  1  0
 17  5  1  0
 30 19  1  0
 16 12  1  0
 28 23  1  0
  3 31  1  0
  3 32  1  0
  6 33  1  0
  7 34  1  0
  8 35  1  0
 13 36  1  0
 13 37  1  0
 14 38  1  0
 14 39  1  0
 15 40  1  0
 15 41  1  0
 16 42  1  0
 16 43  1  0
 17 44  1  0
 20 45  1  0
 21 46  1  0
 24 47  1  0
 24 48  1  0
 25 49  1  0
 25 50  1  0
 26 51  1  0
 26 52  1  0
 27 53  1  0
 27 54  1  0
 28 55  1  0
 28 56  1  0
 29 57  1  0
M  END
>  <smiles>  (4) 
O=C1CC(c2cccc(C(=O)N3CCCC3)c2)=Nc2ccc(N3CCCCC3)cc21

>  <score_type>  (4) 
oracle

>  <origin>  (4) 
autodockgpu

>  <m_score__min__energy>  (4) 
-8.9900000000000002

>  <m_primary>  (4) 
energy

>  <rmsd>  (4) 
5.826497999678712

>  <m_score__min__rmsd>  (4) 
5.826497999678712

>  <meeko>  (4) 
{"free_energy": -8.89, "intermolecular_energy": -9.78, "internal_energy": -0.81, "cluster_size": 49, "cluster_id": 1, "rank_in_cluster": 24}

>  <energy>  (4) 
-8.98

>  <cluster_rmsd>  (4) 
0.03

>  <cluster>  (4) 
1

$$$$

     RDKit          3D

 57 61  0  0  0  0  0  0  0  0999 V2000
  141.6840   81.0390  223.8680 O   0  0  0  0  0  0  0  0  0  0  0  0
  141.0930   80.2250  223.1100 C   0  0  0  0  0  0  0  0  0  0  0  0
  141.9060   79.5080  222.1110 C   0  0  0  0  0  0  0  0  0  0  0  0
  141.0810   78.5890  221.2930 C   0  0  0  0  0  0  0  0  0  0  0  0
  141.7700   77.8130  220.2590 C   0  0  0  0  0  0  0  0  0  0  0  0
  142.2510   78.3660  219.1050 C   0  0  0  0  0  0  0  0  0  0  0  0
  142.9020   77.6590  218.1160 C   0  0  0  0  0  0  0  0  0  0  0  0
  143.0860   76.3090  218.2870 C   0  0  0  0  0  0  0  0  0  0  0  0
  142.6140   75.6970  219.4480 C   0  0  0  0  0  0  0  0  0  0  0  0
  142.8440   74.2600  219.5650 C   0  0  0  0  0  0  0  0  0  0  0  0
  141.9470   73.5050  219.1120 O   0  0  0  0  0  0  0  0  0  0  0  0
  144.0260   73.7400  220.1600 N   0  0  0  0  0  0  0  0  0  0  0  0
  145.1560   74.4790  220.7290 C   0  0  0  0  0  0  0  0  0  0  0  0
  146.3500   73.5930  220.5540 C   0  0  0  0  0  0  0  0  0  0  0  0
  145.8390   72.2770  220.0730 C   0  0  0  0  0  0  0  0  0  0  0  0
  144.3510   72.3560  220.3250 C   0  0  0  0  0  0  0  0  0  0  0  0
  141.9670   76.4360  220.4180 C   0  0  0  0  0  0  0  0  0  0  0  0
  139.8070   78.4410  221.4450 N   0  0  0  0  0  0  0  0  0  0  0  0
  139.0380   79.1420  222.4140 C   0  0  0  0  0  0  0  0  0  0  0  0
  137.6800   78.9730  222.5630 C   0  0  0  0  0  0  0  0  0  0  0  0
  136.9560   79.6810  223.5290 C   0  0  0  0  0  0  0  0  0  0  0  0
  137.5810   80.5770  224.3700 C   0  0  0  0  0  0  0  0  0  0  0  0
  136.7990   81.2660  225.3310 N   0  0  0  0  0  0  0  0  0  0  0  0
  135.3850   80.9780  225.3780 C   0  0  0  0  0  0  0  0  0  0  0  0
  134.8710   81.4880  226.7210 C   0  0  0  0  0  0  0  0  0  0  0  0
  135.0500   82.9760  226.8630 C   0  0  0  0  0  0  0  0  0  0  0  0
  136.3910   83.4240  226.3820 C   0  0  0  0  0  0  0  0  0  0  0  0
  137.3230   82.2360  226.2650 C   0  0  0  0  0  0  0  0  0  0  0  0
  138.9380   80.7410  224.2170 C   0  0  0  0  0  0  0  0  0  0  0  0
  139.6530   80.0400  223.2610 C   0  0  0  0  0  0  0  0  0  0  0  0
  142.3858   80.2427  221.4477 H   0  0  0  0  0  0  0  0  0  0  0  0
  142.6588   78.9101  222.6457 H   0  0  0  0  0  0  0  0  0  0  0  0
  142.1094   79.4465  218.9554 H   0  0  0  0  0  0  0  0  0  0  0  0
  143.2659   78.1655  217.2099 H   0  0  0  0  0  0  0  0  0  0  0  0
  143.6004   75.7163  217.5162 H   0  0  0  0  0  0  0  0  0  0  0  0
  145.3016   75.4288  220.1935 H   0  0  0  0  0  0  0  0  0  0  0  0
  144.9867   74.7273  221.7872 H   0  0  0  0  0  0  0  0  0  0  0  0
  147.0385   74.0262  219.8135 H   0  0  0  0  0  0  0  0  0  0  0  0
  146.9028   73.4820  221.4985 H   0  0  0  0  0  0  0  0  0  0  0  0
  146.0487   72.1428  219.0015 H   0  0  0  0  0  0  0  0  0  0  0  0
  146.3126   71.4244  220.5817 H   0  0  0  0  0  0  0  0  0  0  0  0
  143.8015   71.7395  219.5984 H   0  0  0  0  0  0  0  0  0  0  0  0
  144.0780   71.9811  221.3224 H   0  0  0  0  0  0  0  0  0  0  0  0
  141.6015   75.9366  221.3274 H   0  0  0  0  0  0  0  0  0  0  0  0
  137.1516   78.2650  221.9076 H   0  0  0  0  0  0  0  0  0  0  0  0
  135.8715   79.5201  223.6187 H   0  0  0  0  0  0  0  0  0  0  0  0
  134.8670   81.4924  224.5551 H   0  0  0  0  0  0  0  0  0  0  0  0
  135.2001   79.8990  225.2707 H   0  0  0  0  0  0  0  0  0  0  0  0
  133.8006   81.2490  226.8060 H   0  0  0  0  0  0  0  0  0  0  0  0
  135.4516   80.9977  227.5163 H   0  0  0  0  0  0  0  0  0  0  0  0
  134.2727   83.4855  226.2746 H   0  0  0  0  0  0  0  0  0  0  0  0
  134.9688   83.2288  227.9305 H   0  0  0  0  0  0  0  0  0  0  0  0
  136.2838   83.9013  225.3968 H   0  0  0  0  0  0  0  0  0  0  0  0
  136.8109   84.1428  227.1011 H   0  0  0  0  0  0  0  0  0  0  0  0
  138.3062   82.5816  225.9131 H   0  0  0  0  0  0  0  0  0  0  0  0
  137.4166   81.7612  227.2528 H   0  0  0  0  0  0  0  0  0  0  0  0
  139.4692   81.4478  224.8715 H   0  0  0  0  0  0  0  0  0  0  0  0
  1  2  2  0
  2  3  1  0
  3  4  1  0
  4  5  1  0
  5  6  2  0
  6  7  1  0
  7  8  2  0
  8  9  1  0
  9 10  1  0
 10 11  2  0
 10 12  1  0
 12 13  1  0
 13 14  1  0
 14 15  1  0
 15 16  1  0
  9 17  2  0
  4 18  2  0
 18 19  1  0
 19 20  2  0
 20 21  1  0
 21 22  2  0
 22 23  1  0
 23 24  1  0
 24 25  1  0
 25 26  1  0
 26 27  1  0
 27 28  1  0
 22 29  1  0
 29 30  2  0
 30  2  1  0
 17  5  1  0
 30 19  1  0
 16 12  1  0
 28 23  1  0
  3 31  1  0
  3 32  1  0
  6 33  1  0
  7 34  1  0
  8 35  1  0
 13 36  1  0
 13 37  1  0
 14 38  1  0
 14 39  1  0
 15 40  1  0
 15 41  1  0
 16 42  1  0
 16 43  1  0
 17 44  1  0
 20 45  1  0
 21 46  1  0
 24 47  1  0
 24 48  1  0
 25 49  1  0
 25 50  1  0
 26 51  1  0
 26 52  1  0
 27 53  1  0
 27 54  1  0
 28 55  1  0
 28 56  1  0
 29 57  1  0
M  END
>  <smiles>  (5) 
O=C1CC(c2cccc(C(=O)N3CCCC3)c2)=Nc2ccc(N3CCCCC3)cc21

>  <score_type>  (5) 
oracle

>  <origin>  (5) 
autodockgpu

>  <m_score__min__energy>  (5) 
-8.9900000000000002

>  <m_primary>  (5) 
energy

>  <rmsd>  (5) 
8.45364586485828

>  <m_score__min__rmsd>  (5) 
8.45364586485828

>  <meeko>  (5) 
{"free_energy": -7.61, "intermolecular_energy": -8.5, "internal_energy": -1.02, "cluster_size": 1, "cluster_id": 2, "rank_in_cluster": 1}

>  <energy>  (5) 
-8.98

>  <cluster_rmsd>  (5) 
0.03

>  <cluster>  (5) 
1

$$$$

     RDKit          3D

 57 61  0  0  0  0  0  0  0  0999 V2000
  142.8860   74.5430  220.2500 O   0  0  0  0  0  0  0  0  0  0  0  0
  141.8370   74.3090  220.9050 C   0  0  0  0  0  0  0  0  0  0  0  0
  141.4540   72.8990  221.1030 C   0  0  0  0  0  0  0  0  0  0  0  0
  140.2040   72.7780  221.8880 C   0  0  0  0  0  0  0  0  0  0  0  0
  139.7120   71.4230  222.1570 C   0  0  0  0  0  0  0  0  0  0  0  0
  139.1370   70.6330  221.2010 C   0  0  0  0  0  0  0  0  0  0  0  0
  138.6650   69.3580  221.4260 C   0  0  0  0  0  0  0  0  0  0  0  0
  138.7730   68.8320  222.6910 C   0  0  0  0  0  0  0  0  0  0  0  0
  139.3530   69.5980  223.7020 C   0  0  0  0  0  0  0  0  0  0  0  0
  139.4370   68.9780  225.0210 C   0  0  0  0  0  0  0  0  0  0  0  0
  139.1910   67.7460  225.0830 O   0  0  0  0  0  0  0  0  0  0  0  0
  139.7800   69.7290  226.1790 N   0  0  0  0  0  0  0  0  0  0  0  0
  140.0930   71.1570  226.2720 C   0  0  0  0  0  0  0  0  0  0  0  0
  141.0270   71.2920  227.4350 C   0  0  0  0  0  0  0  0  0  0  0  0
  141.0660   69.9610  228.1090 C   0  0  0  0  0  0  0  0  0  0  0  0
  139.8900   69.2230  227.5120 C   0  0  0  0  0  0  0  0  0  0  0  0
  139.8150   70.8720  223.4400 C   0  0  0  0  0  0  0  0  0  0  0  0
  139.5390   73.7880  222.3400 N   0  0  0  0  0  0  0  0  0  0  0  0
  139.9220   75.1420  222.1390 C   0  0  0  0  0  0  0  0  0  0  0  0
  139.2010   76.2090  222.6260 C   0  0  0  0  0  0  0  0  0  0  0  0
  139.6110   77.5300  222.4080 C   0  0  0  0  0  0  0  0  0  0  0  0
  140.7550   77.8100  221.6930 C   0  0  0  0  0  0  0  0  0  0  0  0
  141.1230   79.1660  221.5040 N   0  0  0  0  0  0  0  0  0  0  0  0
  141.0370   80.0500  222.6410 C   0  0  0  0  0  0  0  0  0  0  0  0
  141.8690   81.2860  222.3080 C   0  0  0  0  0  0  0  0  0  0  0  0
  141.3330   82.0170  221.1060 C   0  0  0  0  0  0  0  0  0  0  0  0
  140.9550   81.0790  220.0070 C   0  0  0  0  0  0  0  0  0  0  0  0
  141.5770   79.7190  220.2490 C   0  0  0  0  0  0  0  0  0  0  0  0
  141.4720   76.7390  221.2090 C   0  0  0  0  0  0  0  0  0  0  0  0
  141.0660   75.4340  221.4260 C   0  0  0  0  0  0  0  0  0  0  0  0
  141.3051   72.4283  220.1200 H   0  0  0  0  0  0  0  0  0  0  0  0
  142.2597   72.3989  221.6604 H   0  0  0  0  0  0  0  0  0  0  0  0
  139.0449   71.0424  220.1842 H   0  0  0  0  0  0  0  0  0  0  0  0
  138.2119   68.7743  220.6112 H   0  0  0  0  0  0  0  0  0  0  0  0
  138.4058   67.8172  222.9040 H   0  0  0  0  0  0  0  0  0  0  0  0
  140.5783   71.5043  225.3480 H   0  0  0  0  0  0  0  0  0  0  0  0
  139.1855   71.7637  226.4074 H   0  0  0  0  0  0  0  0  0  0  0  0
  142.0320   71.5691  227.0842 H   0  0  0  0  0  0  0  0  0  0  0  0
  140.6872   72.0766  228.1270 H   0  0  0  0  0  0  0  0  0  0  0  0
  142.0090   69.4383  227.8909 H   0  0  0  0  0  0  0  0  0  0  0  0
  141.0104   70.0362  229.2050 H   0  0  0  0  0  0  0  0  0  0  0  0
  140.0778   68.1392  227.5008 H   0  0  0  0  0  0  0  0  0  0  0  0
  138.9672   69.3745  228.0912 H   0  0  0  0  0  0  0  0  0  0  0  0
  140.2699   71.4619  224.2494 H   0  0  0  0  0  0  0  0  0  0  0  0
  138.2817   76.0194  223.1996 H   0  0  0  0  0  0  0  0  0  0  0  0
  139.0103   78.3572  222.8140 H   0  0  0  0  0  0  0  0  0  0  0  0
  139.9899   80.3360  222.8190 H   0  0  0  0  0  0  0  0  0  0  0  0
  141.4113   79.5577  223.5507 H   0  0  0  0  0  0  0  0  0  0  0  0
  141.8568   81.9662  223.1724 H   0  0  0  0  0  0  0  0  0  0  0  0
  142.8926   80.9557  222.0774 H   0  0  0  0  0  0  0  0  0  0  0  0
  140.4435   82.5904  221.4059 H   0  0  0  0  0  0  0  0  0  0  0  0
  142.1248   82.6816  220.7299 H   0  0  0  0  0  0  0  0  0  0  0  0
  139.8601   80.9782  219.9747 H   0  0  0  0  0  0  0  0  0  0  0  0
  141.3215   81.4783  219.0498 H   0  0  0  0  0  0  0  0  0  0  0  0
  141.2917   79.0408  219.4313 H   0  0  0  0  0  0  0  0  0  0  0  0
  142.6705   79.8319  220.2872 H   0  0  0  0  0  0  0  0  0  0  0  0
  142.3916   76.9255  220.6349 H   0  0  0  0  0  0  0  0  0  0  0  0
  1  2  2  0
  2  3  1  0
  3  4  1  0
  4  5  1  0
  5  6  2  0
  6  7  1  0
  7  8  2  0
  8  9  1  0
  9 10  1  0
 10 11  2  0
 10 12  1  0
 12 13  1  0
 13 14  1  0
 14 15  1  0
 15 16  1  0
  9 17  2  0
  4 18  2  0
 18 19  1  0
 19 20  2  0
 20 21  1  0
 21 22  2  0
 22 23  1  0
 23 24  1  0
 24 25  1  0
 25 26  1  0
 26 27  1  0
 27 28  1  0
 22 29  1  0
 29 30  2  0
 30  2  1  0
 17  5  1  0
 30 19  1  0
 16 12  1  0
 28 23  1  0
  3 31  1  0
  3 32  1  0
  6 33  1  0
  7 34  1  0
  8 35  1  0
 13 36  1  0
 13 37  1  0
 14 38  1  0
 14 39  1  0
 15 40  1  0
 15 41  1  0
 16 42  1  0
 16 43  1  0
 17 44  1  0
 20 45  1  0
 21 46  1  0
 24 47  1  0
 24 48  1  0
 25 49  1  0
 25 50  1  0
 26 51  1  0
 26 52  1  0
 27 53  1  0
 27 54  1  0
 28 55  1  0
 28 56  1  0
 29 57  1  0
M  END
>  <smiles>  (6) 
O=C1CC(c2cccc(C(=O)N3CCCC3)c2)=Nc2ccc(N3CCCCC3)cc21

>  <score_type>  (6) 
oracle

>  <origin>  (6) 
autodockgpu

>  <m_score__min__energy>  (6) 
-8.9900000000000002

>  <m_primary>  (6) 
energy

>  <rmsd>  (6) 
5.841168104432793

>  <m_score__min__rmsd>  (6) 
5.841168104432793

>  <meeko>  (6) 
{"free_energy": -8.97, "intermolecular_energy": -9.86, "internal_energy": -0.79, "cluster_size": 49, "cluster_id": 1, "rank_in_cluster": 13}

>  <energy>  (6) 
-8.98

>  <cluster_rmsd>  (6) 
0.04

>  <cluster>  (6) 
1

$$$$

     RDKit          3D

 57 61  0  0  0  0  0  0  0  0999 V2000
  142.9720   75.3810  219.8350 O   0  0  0  0  0  0  0  0  0  0  0  0
  141.9960   75.0820  220.5720 C   0  0  0  0  0  0  0  0  0  0  0  0
  141.6970   73.6520  220.7630 C   0  0  0  0  0  0  0  0  0  0  0  0
  140.5270   73.4520  221.6500 C   0  0  0  0  0  0  0  0  0  0  0  0
  140.1230   72.0690  221.9220 C   0  0  0  0  0  0  0  0  0  0  0  0
  140.1960   71.0710  220.9900 C   0  0  0  0  0  0  0  0  0  0  0  0
  139.8220   69.7650  221.2190 C   0  0  0  0  0  0  0  0  0  0  0  0
  139.3420   69.4270  222.4610 C   0  0  0  0  0  0  0  0  0  0  0  0
  139.2480   70.4090  223.4470 C   0  0  0  0  0  0  0  0  0  0  0  0
  138.7300   69.9820  224.7430 C   0  0  0  0  0  0  0  0  0  0  0  0
  137.4790   69.9550  224.8720 O   0  0  0  0  0  0  0  0  0  0  0  0
  139.5970   69.6110  225.8080 N   0  0  0  0  0  0  0  0  0  0  0  0
  141.0620   69.5860  225.8180 C   0  0  0  0  0  0  0  0  0  0  0  0
  141.4430   68.5200  226.7970 C   0  0  0  0  0  0  0  0  0  0  0  0
  140.1860   68.0970  227.4800 C   0  0  0  0  0  0  0  0  0  0  0  0
  139.1970   69.1790  227.1120 C   0  0  0  0  0  0  0  0  0  0  0  0
  139.6320   71.7080  223.1830 C   0  0  0  0  0  0  0  0  0  0  0  0
  139.8590   74.4180  222.1860 N   0  0  0  0  0  0  0  0  0  0  0  0
  140.1620   75.7930  221.9910 C   0  0  0  0  0  0  0  0  0  0  0  0
  139.4390   76.8120  222.5690 C   0  0  0  0  0  0  0  0  0  0  0  0
  139.7670   78.1560  222.3530 C   0  0  0  0  0  0  0  0  0  0  0  0
  140.8300   78.5080  221.5500 C   0  0  0  0  0  0  0  0  0  0  0  0
  141.1180   79.8840  221.3680 N   0  0  0  0  0  0  0  0  0  0  0  0
  140.6730   80.8040  222.3870 C   0  0  0  0  0  0  0  0  0  0  0  0
  141.4540   82.1000  222.1890 C   0  0  0  0  0  0  0  0  0  0  0  0
  141.1800   82.7220  220.8450 C   0  0  0  0  0  0  0  0  0  0  0  0
  141.1720   81.7050  219.7520 C   0  0  0  0  0  0  0  0  0  0  0  0
  141.8260   80.4250  220.2300 C   0  0  0  0  0  0  0  0  0  0  0  0
  141.5490   77.4850  220.9760 C   0  0  0  0  0  0  0  0  0  0  0  0
  141.2230   76.1570  221.1900 C   0  0  0  0  0  0  0  0  0  0  0  0
  141.4841   73.1981  219.7839 H   0  0  0  0  0  0  0  0  0  0  0  0
  142.5706   73.1783  221.2346 H   0  0  0  0  0  0  0  0  0  0  0  0
  140.5787   71.3280  219.9913 H   0  0  0  0  0  0  0  0  0  0  0  0
  139.9059   69.0090  220.4243 H   0  0  0  0  0  0  0  0  0  0  0  0
  139.0350   68.3927  222.6756 H   0  0  0  0  0  0  0  0  0  0  0  0
  141.4481   69.3430  224.8171 H   0  0  0  0  0  0  0  0  0  0  0  0
  141.4825   70.5631  226.0981 H   0  0  0  0  0  0  0  0  0  0  0  0
  141.8946   67.6660  226.2710 H   0  0  0  0  0  0  0  0  0  0  0  0
  142.1810   68.8937  227.5220 H   0  0  0  0  0  0  0  0  0  0  0  0
  139.8501   67.1166  227.1113 H   0  0  0  0  0  0  0  0  0  0  0  0
  140.3089   67.9835  228.5672 H   0  0  0  0  0  0  0  0  0  0  0  0
  138.1733   68.7772  227.0901 H   0  0  0  0  0  0  0  0  0  0  0  0
  139.1936   70.0037  227.8399 H   0  0  0  0  0  0  0  0  0  0  0  0
  139.5514   72.4694  223.9728 H   0  0  0  0  0  0  0  0  0  0  0  0
  138.5840   76.5647  223.2154 H   0  0  0  0  0  0  0  0  0  0  0  0
  139.1665   78.9434  222.8320 H   0  0  0  0  0  0  0  0  0  0  0  0
  139.5945   80.9927  222.2808 H   0  0  0  0  0  0  0  0  0  0  0  0
  140.8458   80.3909  223.3917 H   0  0  0  0  0  0  0  0  0  0  0  0
  141.1657   82.8125  222.9759 H   0  0  0  0  0  0  0  0  0  0  0  0
  142.5268   81.8626  222.2421 H   0  0  0  0  0  0  0  0  0  0  0  0
  140.1988   83.2182  220.8762 H   0  0  0  0  0  0  0  0  0  0  0  0
  141.9828   83.4436  220.6333 H   0  0  0  0  0  0  0  0  0  0  0  0
  140.1332   81.4952  219.4573 H   0  0  0  0  0  0  0  0  0  0  0  0
  141.7325   82.0968  218.8904 H   0  0  0  0  0  0  0  0  0  0  0  0
  141.8153   79.6874  219.4140 H   0  0  0  0  0  0  0  0  0  0  0  0
  142.8608   80.6470  220.5300 H   0  0  0  0  0  0  0  0  0  0  0  0
  142.4053   77.7289  220.3301 H   0  0  0  0  0  0  0  0  0  0  0  0
  1  2  2  0
  2  3  1  0
  3  4  1  0
  4  5  1  0
  5  6  2  0
  6  7  1  0
  7  8  2  0
  8  9  1  0
  9 10  1  0
 10 11  2  0
 10 12  1  0
 12 13  1  0
 13 14  1  0
 14 15  1  0
 15 16  1  0
  9 17  2  0
  4 18  2  0
 18 19  1  0
 19 20  2  0
 20 21  1  0
 21 22  2  0
 22 23  1  0
 23 24  1  0
 24 25  1  0
 25 26  1  0
 26 27  1  0
 27 28  1  0
 22 29  1  0
 29 30  2  0
 30  2  1  0
 17  5  1  0
 30 19  1  0
 16 12  1  0
 28 23  1  0
  3 31  1  0
  3 32  1  0
  6 33  1  0
  7 34  1  0
  8 35  1  0
 13 36  1  0
 13 37  1  0
 14 38  1  0
 14 39  1  0
 15 40  1  0
 15 41  1  0
 16 42  1  0
 16 43  1  0
 17 44  1  0
 20 45  1  0
 21 46  1  0
 24 47  1  0
 24 48  1  0
 25 49  1  0
 25 50  1  0
 26 51  1  0
 26 52  1  0
 27 53  1  0
 27 54  1  0
 28 55  1  0
 28 56  1  0
 29 57  1  0
M  END
>  <smiles>  (7) 
O=C1CC(c2cccc(C(=O)N3CCCC3)c2)=Nc2ccc(N3CCCCC3)cc21

>  <score_type>  (7) 
oracle

>  <origin>  (7) 
autodockgpu

>  <m_score__min__energy>  (7) 
-8.9900000000000002

>  <m_primary>  (7) 
energy

>  <rmsd>  (7) 
5.855222352529246

>  <m_score__min__rmsd>  (7) 
5.855222352529246

>  <meeko>  (7) 
{"free_energy": -7.91, "intermolecular_energy": -8.8, "internal_energy": -1.02, "cluster_size": 49, "cluster_id": 1, "rank_in_cluster": 49}

>  <energy>  (7) 
-8.98

>  <cluster_rmsd>  (7) 
0.03

>  <cluster>  (7) 
1

$$$$

     RDKit          3D

 57 61  0  0  0  0  0  0  0  0999 V2000
  142.9140   74.5430  220.2590 O   0  0  0  0  0  0  0  0  0  0  0  0
  141.8650   74.3000  220.9110 C   0  0  0  0  0  0  0  0  0  0  0  0
  141.4940   72.8870  221.1080 C   0  0  0  0  0  0  0  0  0  0  0  0
  140.2430   72.7540  221.8880 C   0  0  0  0  0  0  0  0  0  0  0  0
  139.7620   71.3960  222.1560 C   0  0  0  0  0  0  0  0  0  0  0  0
  139.2180   70.5920  221.1930 C   0  0  0  0  0  0  0  0  0  0  0  0
  138.7580   69.3120  221.4170 C   0  0  0  0  0  0  0  0  0  0  0  0
  138.8440   68.7960  222.6870 C   0  0  0  0  0  0  0  0  0  0  0  0
  139.3910   69.5770  223.7050 C   0  0  0  0  0  0  0  0  0  0  0  0
  139.4530   68.9670  225.0300 C   0  0  0  0  0  0  0  0  0  0  0  0
  139.1910   67.7390  225.1010 O   0  0  0  0  0  0  0  0  0  0  0  0
  139.7940   69.7230  226.1850 N   0  0  0  0  0  0  0  0  0  0  0  0
  140.1240   71.1480  226.2710 C   0  0  0  0  0  0  0  0  0  0  0  0
  141.0470   71.2810  227.4420 C   0  0  0  0  0  0  0  0  0  0  0  0
  141.0620   69.9560  228.1280 C   0  0  0  0  0  0  0  0  0  0  0  0
  139.8830   69.2270  227.5250 C   0  0  0  0  0  0  0  0  0  0  0  0
  139.8430   70.8550  223.4450 C   0  0  0  0  0  0  0  0  0  0  0  0
  139.5670   73.7590  222.3380 N   0  0  0  0  0  0  0  0  0  0  0  0
  139.9390   75.1160  222.1380 C   0  0  0  0  0  0  0  0  0  0  0  0
  139.2070   76.1760  222.6230 C   0  0  0  0  0  0  0  0  0  0  0  0
  139.6050   77.5010  222.4050 C   0  0  0  0  0  0  0  0  0  0  0  0
  140.7500   77.7910  221.6950 C   0  0  0  0  0  0  0  0  0  0  0  0
  141.1060   79.1500  221.5060 N   0  0  0  0  0  0  0  0  0  0  0  0
  141.0170   80.0320  222.6450 C   0  0  0  0  0  0  0  0  0  0  0  0
  141.8380   81.2750  222.3110 C   0  0  0  0  0  0  0  0  0  0  0  0
  141.2920   82.0040  221.1130 C   0  0  0  0  0  0  0  0  0  0  0  0
  140.9170   81.0650  220.0140 C   0  0  0  0  0  0  0  0  0  0  0  0
  141.5510   79.7100  220.2500 C   0  0  0  0  0  0  0  0  0  0  0  0
  141.4770   76.7270  221.2130 C   0  0  0  0  0  0  0  0  0  0  0  0
  141.0820   75.4190  221.4290 C   0  0  0  0  0  0  0  0  0  0  0  0
  141.3530   72.4148  220.1246 H   0  0  0  0  0  0  0  0  0  0  0  0
  142.3022   72.3948  221.6688 H   0  0  0  0  0  0  0  0  0  0  0  0
  139.1424   70.9933  220.1716 H   0  0  0  0  0  0  0  0  0  0  0  0
  138.3312   68.7167  220.5964 H   0  0  0  0  0  0  0  0  0  0  0  0
  138.4854   67.7779  222.8990 H   0  0  0  0  0  0  0  0  0  0  0  0
  140.6231   71.4822  225.3495 H   0  0  0  0  0  0  0  0  0  0  0  0
  139.2225   71.7665  226.3928 H   0  0  0  0  0  0  0  0  0  0  0  0
  142.0591   71.5421  227.0993 H   0  0  0  0  0  0  0  0  0  0  0  0
  140.7099   72.0759  228.1235 H   0  0  0  0  0  0  0  0  0  0  0  0
  142.0006   69.4196  227.9247 H   0  0  0  0  0  0  0  0  0  0  0  0
  140.9956   70.0419  229.2226 H   0  0  0  0  0  0  0  0  0  0  0  0
  140.0572   68.1409  227.5256 H   0  0  0  0  0  0  0  0  0  0  0  0
  138.9559   69.3949  228.0927 H   0  0  0  0  0  0  0  0  0  0  0  0
  140.2721   71.4559  224.2604 H   0  0  0  0  0  0  0  0  0  0  0  0
  138.2885   75.9779  223.1949 H   0  0  0  0  0  0  0  0  0  0  0  0
  138.9942   78.3229  222.8067 H   0  0  0  0  0  0  0  0  0  0  0  0
  139.9683   80.3094  222.8271 H   0  0  0  0  0  0  0  0  0  0  0  0
  141.3984   79.5414  223.5527 H   0  0  0  0  0  0  0  0  0  0  0  0
  141.8240   81.9534  223.1767 H   0  0  0  0  0  0  0  0  0  0  0  0
  142.8631   80.9529  222.0756 H   0  0  0  0  0  0  0  0  0  0  0  0
  140.3993   82.5701  221.4174 H   0  0  0  0  0  0  0  0  0  0  0  0
  142.0771   82.6755  220.7351 H   0  0  0  0  0  0  0  0  0  0  0  0
  139.8228   80.9552  219.9865 H   0  0  0  0  0  0  0  0  0  0  0  0
  141.2762   81.4692  219.0561 H   0  0  0  0  0  0  0  0  0  0  0  0
  141.2682   79.0315  219.4317 H   0  0  0  0  0  0  0  0  0  0  0  0
  142.6437   79.8317  220.2842 H   0  0  0  0  0  0  0  0  0  0  0  0
  142.3962   76.9215  220.6410 H   0  0  0  0  0  0  0  0  0  0  0  0
  1  2  2  0
  2  3  1  0
  3  4  1  0
  4  5  1  0
  5  6  2  0
  6  7  1  0
  7  8  2  0
  8  9  1  0
  9 10  1  0
 10 11  2  0
 10 12  1  0
 12 13  1  0
 13 14  1  0
 14 15  1  0
 15 16  1  0
  9 17  2  0
  4 18  2  0
 18 19  1  0
 19 20  2  0
 20 21  1  0
 21 22  2  0
 22 23  1  0
 23 24  1  0
 24 25  1  0
 25 26  1  0
 26 27  1  0
 27 28  1  0
 22 29  1  0
 29 30  2  0
 30  2  1  0
 17  5  1  0
 30 19  1  0
 16 12  1  0
 28 23  1  0
  3 31  1  0
  3 32  1  0
  6 33  1  0
  7 34  1  0
  8 35  1  0
 13 36  1  0
 13 37  1  0
 14 38  1  0
 14 39  1  0
 15 40  1  0
 15 41  1  0
 16 42  1  0
 16 43  1  0
 17 44  1  0
 20 45  1  0
 21 46  1  0
 24 47  1  0
 24 48  1  0
 25 49  1  0
 25 50  1  0
 26 51  1  0
 26 52  1  0
 27 53  1  0
 27 54  1  0
 28 55  1  0
 28 56  1  0
 29 57  1  0
M  END
>  <smiles>  (8) 
O=C1CC(c2cccc(C(=O)N3CCCC3)c2)=Nc2ccc(N3CCCCC3)cc21

>  <score_type>  (8) 
oracle

>  <origin>  (8) 
autodockgpu

>  <m_score__min__energy>  (8) 
-8.9900000000000002

>  <m_primary>  (8) 
energy

>  <rmsd>  (8) 
5.84248678879216

>  <m_score__min__rmsd>  (8) 
5.84248678879216

>  <meeko>  (8) 
{"free_energy": -8.98, "intermolecular_energy": -9.87, "internal_energy": -0.77, "cluster_size": 49, "cluster_id": 1, "rank_in_cluster": 8}

>  <energy>  (8) 
-8.98

>  <cluster_rmsd>  (8) 
0.03

>  <cluster>  (8) 
1

$$$$

     RDKit          3D

 57 61  0  0  0  0  0  0  0  0999 V2000
  142.8670   74.5510  220.2360 O   0  0  0  0  0  0  0  0  0  0  0  0
  141.8210   74.3130  220.8950 C   0  0  0  0  0  0  0  0  0  0  0  0
  141.4490   72.9010  221.1000 C   0  0  0  0  0  0  0  0  0  0  0  0
  140.2020   72.7740  221.8890 C   0  0  0  0  0  0  0  0  0  0  0  0
  139.7200   71.4170  222.1660 C   0  0  0  0  0  0  0  0  0  0  0  0
  139.1580   70.6150  221.2120 C   0  0  0  0  0  0  0  0  0  0  0  0
  138.6970   69.3370  221.4440 C   0  0  0  0  0  0  0  0  0  0  0  0
  138.8020   68.8220  222.7140 C   0  0  0  0  0  0  0  0  0  0  0  0
  139.3680   69.6010  223.7220 C   0  0  0  0  0  0  0  0  0  0  0  0
  139.4490   68.9920  225.0460 C   0  0  0  0  0  0  0  0  0  0  0  0
  139.1970   67.7620  225.1200 O   0  0  0  0  0  0  0  0  0  0  0  0
  139.7960   69.7510  226.1980 N   0  0  0  0  0  0  0  0  0  0  0  0
  140.1150   71.1790  226.2790 C   0  0  0  0  0  0  0  0  0  0  0  0
  141.0490   71.3190  227.4410 C   0  0  0  0  0  0  0  0  0  0  0  0
  141.0820   69.9950  228.1260 C   0  0  0  0  0  0  0  0  0  0  0  0
  139.9030   69.2560  227.5360 C   0  0  0  0  0  0  0  0  0  0  0  0
  139.8200   70.8770  223.4540 C   0  0  0  0  0  0  0  0  0  0  0  0
  139.5300   73.7810  222.3380 N   0  0  0  0  0  0  0  0  0  0  0  0
  139.9030   75.1370  222.1300 C   0  0  0  0  0  0  0  0  0  0  0  0
  139.1760   76.2010  222.6140 C   0  0  0  0  0  0  0  0  0  0  0  0
  139.5750   77.5240  222.3890 C   0  0  0  0  0  0  0  0  0  0  0  0
  140.7160   77.8090  221.6700 C   0  0  0  0  0  0  0  0  0  0  0  0
  141.0730   79.1670  221.4730 N   0  0  0  0  0  0  0  0  0  0  0  0
  141.0190   80.0480  222.6150 C   0  0  0  0  0  0  0  0  0  0  0  0
  141.8360   81.2870  222.2610 C   0  0  0  0  0  0  0  0  0  0  0  0
  141.2610   82.0200  221.0780 C   0  0  0  0  0  0  0  0  0  0  0  0
  140.8530   81.0840  219.9890 C   0  0  0  0  0  0  0  0  0  0  0  0
  141.4870   79.7250  220.2070 C   0  0  0  0  0  0  0  0  0  0  0  0
  141.4390   76.7420  221.1890 C   0  0  0  0  0  0  0  0  0  0  0  0
  141.0430   75.4350  221.4130 C   0  0  0  0  0  0  0  0  0  0  0  0
  141.3009   72.4250  220.1194 H   0  0  0  0  0  0  0  0  0  0  0  0
  142.2600   72.4093  221.6573 H   0  0  0  0  0  0  0  0  0  0  0  0
  139.0678   71.0162  220.1918 H   0  0  0  0  0  0  0  0  0  0  0  0
  138.2549   68.7425  220.6309 H   0  0  0  0  0  0  0  0  0  0  0  0
  138.4431   67.8055  222.9328 H   0  0  0  0  0  0  0  0  0  0  0  0
  140.6021   71.5166  225.3523 H   0  0  0  0  0  0  0  0  0  0  0  0
  139.2102   71.7909  226.4088 H   0  0  0  0  0  0  0  0  0  0  0  0
  142.0554   71.5885  227.0881 H   0  0  0  0  0  0  0  0  0  0  0  0
  140.7122   72.1108  228.1263 H   0  0  0  0  0  0  0  0  0  0  0  0
  142.0228   69.4664  227.9126 H   0  0  0  0  0  0  0  0  0  0  0  0
  141.0263   70.0805  229.2213 H   0  0  0  0  0  0  0  0  0  0  0  0
  140.0863   68.1714  227.5347 H   0  0  0  0  0  0  0  0  0  0  0  0
  138.9806   69.4158  228.1136 H   0  0  0  0  0  0  0  0  0  0  0  0
  140.2642   71.4771  224.2619 H   0  0  0  0  0  0  0  0  0  0  0  0
  138.2599   76.0072  223.1912 H   0  0  0  0  0  0  0  0  0  0  0  0
  138.9687   78.3486  222.7921 H   0  0  0  0  0  0  0  0  0  0  0  0
  139.9769   80.3301  222.8257 H   0  0  0  0  0  0  0  0  0  0  0  0
  141.4226   79.5543  223.5113 H   0  0  0  0  0  0  0  0  0  0  0  0
  141.8480   81.9645  223.1275 H   0  0  0  0  0  0  0  0  0  0  0  0
  142.8532   80.9609  221.9983 H   0  0  0  0  0  0  0  0  0  0  0  0
  140.3792   82.5895  221.4066 H   0  0  0  0  0  0  0  0  0  0  0  0
  142.0385   82.6886  220.6799 H   0  0  0  0  0  0  0  0  0  0  0  0
  139.7580   80.9793  219.9903 H   0  0  0  0  0  0  0  0  0  0  0  0
  141.1888   81.4875  219.0223 H   0  0  0  0  0  0  0  0  0  0  0  0
  141.1793   79.0485  219.3961 H   0  0  0  0  0  0  0  0  0  0  0  0
  142.5808   79.8412  220.2119 H   0  0  0  0  0  0  0  0  0  0  0  0
  142.3555   76.9326  220.6114 H   0  0  0  0  0  0  0  0  0  0  0  0
  1  2  2  0
  2  3  1  0
  3  4  1  0
  4  5  1  0
  5  6  2  0
  6  7  1  0
  7  8  2  0
  8  9  1  0
  9 10  1  0
 10 11  2  0
 10 12  1  0
 12 13  1  0
 13 14  1  0
 14 15  1  0
 15 16  1  0
  9 17  2  0
  4 18  2  0
 18 19  1  0
 19 20  2  0
 20 21  1  0
 21 22  2  0
 22 23  1  0
 23 24  1  0
 24 25  1  0
 25 26  1  0
 26 27  1  0
 27 28  1  0
 22 29  1  0
 29 30  2  0
 30  2  1  0
 17  5  1  0
 30 19  1  0
 16 12  1  0
 28 23  1  0
  3 31  1  0
  3 32  1  0
  6 33  1  0
  7 34  1  0
  8 35  1  0
 13 36  1  0
 13 37  1  0
 14 38  1  0
 14 39  1  0
 15 40  1  0
 15 41  1  0
 16 42  1  0
 16 43  1  0
 17 44  1  0
 20 45  1  0
 21 46  1  0
 24 47  1  0
 24 48  1  0
 25 49  1  0
 25 50  1  0
 26 51  1  0
 26 52  1  0
 27 53  1  0
 27 54  1  0
 28 55  1  0
 28 56  1  0
 29 57  1  0
M  END
>  <smiles>  (9) 
O=C1CC(c2cccc(C(=O)N3CCCC3)c2)=Nc2ccc(N3CCCCC3)cc21

>  <score_type>  (9) 
oracle

>  <origin>  (9) 
autodockgpu

>  <m_score__min__energy>  (9) 
-8.9900000000000002

>  <m_primary>  (9) 
energy

>  <rmsd>  (9) 
5.8300701464753555

>  <m_score__min__rmsd>  (9) 
5.8300701464753555

>  <meeko>  (9) 
{"free_energy": -8.98, "intermolecular_energy": -9.87, "internal_energy": -0.79, "cluster_size": 49, "cluster_id": 1, "rank_in_cluster": 4}

>  <energy>  (9) 
-8.97

>  <cluster_rmsd>  (9) 
0.06

>  <cluster>  (9) 
1

$$$$

     RDKit          3D

 57 61  0  0  0  0  0  0  0  0999 V2000
  142.8870   74.0380  220.3140 O   0  0  0  0  0  0  0  0  0  0  0  0
  141.8130   73.8650  220.9460 C   0  0  0  0  0  0  0  0  0  0  0  0
  141.3970   72.4780  221.2210 C   0  0  0  0  0  0  0  0  0  0  0  0
  140.1180   72.4290  221.9670 C   0  0  0  0  0  0  0  0  0  0  0  0
  139.5920   71.1030  222.3060 C   0  0  0  0  0  0  0  0  0  0  0  0
  138.9080   70.3210  221.4170 C   0  0  0  0  0  0  0  0  0  0  0  0
  138.4020   69.0730  221.7080 C   0  0  0  0  0  0  0  0  0  0  0  0
  138.5890   68.5670  222.9720 C   0  0  0  0  0  0  0  0  0  0  0  0
  139.2800   69.3260  223.9150 C   0  0  0  0  0  0  0  0  0  0  0  0
  139.4430   68.7280  225.2370 C   0  0  0  0  0  0  0  0  0  0  0  0
  139.2980   67.4820  225.3160 O   0  0  0  0  0  0  0  0  0  0  0  0
  139.7520   69.5160  226.3800 N   0  0  0  0  0  0  0  0  0  0  0  0
  139.9510   70.9660  226.4540 C   0  0  0  0  0  0  0  0  0  0  0  0
  140.8980   71.1870  227.5930 C   0  0  0  0  0  0  0  0  0  0  0  0
  141.0580   69.8710  228.2780 C   0  0  0  0  0  0  0  0  0  0  0  0
  139.9320   69.0350  227.7150 C   0  0  0  0  0  0  0  0  0  0  0  0
  139.7740   70.5730  223.5890 C   0  0  0  0  0  0  0  0  0  0  0  0
  139.4570   73.4770  222.3290 N   0  0  0  0  0  0  0  0  0  0  0  0
  139.8730   74.8090  222.0550 C   0  0  0  0  0  0  0  0  0  0  0  0
  139.1560   75.9170  222.4470 C   0  0  0  0  0  0  0  0  0  0  0  0
  139.5980   77.2140  222.1580 C   0  0  0  0  0  0  0  0  0  0  0  0
  140.7710   77.4280  221.4680 C   0  0  0  0  0  0  0  0  0  0  0  0
  141.1710   78.7620  221.2040 N   0  0  0  0  0  0  0  0  0  0  0  0
  141.2090   79.6830  222.3150 C   0  0  0  0  0  0  0  0  0  0  0  0
  142.0550   80.8750  221.8760 C   0  0  0  0  0  0  0  0  0  0  0  0
  141.4500   81.5900  220.6970 C   0  0  0  0  0  0  0  0  0  0  0  0
  140.9510   80.6340  219.6630 C   0  0  0  0  0  0  0  0  0  0  0  0
  141.5410   79.2590  219.8990 C   0  0  0  0  0  0  0  0  0  0  0  0
  141.4830   76.3160  221.0800 C   0  0  0  0  0  0  0  0  0  0  0  0
  141.0450   75.0350  221.3650 C   0  0  0  0  0  0  0  0  0  0  0  0
  141.2736   71.9465  220.2659 H   0  0  0  0  0  0  0  0  0  0  0  0
  142.1733   72.0024  221.8383 H   0  0  0  0  0  0  0  0  0  0  0  0
  138.7513   70.7145  220.4018 H   0  0  0  0  0  0  0  0  0  0  0  0
  137.8602   68.4943  220.9454 H   0  0  0  0  0  0  0  0  0  0  0  0
  138.1976   67.5737  223.2367 H   0  0  0  0  0  0  0  0  0  0  0  0
  140.3850   71.3420  225.5158 H   0  0  0  0  0  0  0  0  0  0  0  0
  139.0010   71.4991  226.6063 H   0  0  0  0  0  0  0  0  0  0  0  0
  141.8695   71.5387  227.2157 H   0  0  0  0  0  0  0  0  0  0  0  0
  140.5131   71.9498  228.2858 H   0  0  0  0  0  0  0  0  0  0  0  0
  142.0347   69.4227  228.0432 H   0  0  0  0  0  0  0  0  0  0  0  0
  141.0207   69.9537  229.3743 H   0  0  0  0  0  0  0  0  0  0  0  0
  140.2057   67.9696  227.7094 H   0  0  0  0  0  0  0  0  0  0  0  0
  139.0132   69.1187  228.3139 H   0  0  0  0  0  0  0  0  0  0  0  0
  140.3172   71.1573  224.3463 H   0  0  0  0  0  0  0  0  0  0  0  0
  138.2148   75.7804  222.9997 H   0  0  0  0  0  0  0  0  0  0  0  0
  138.9989   78.0758  222.4873 H   0  0  0  0  0  0  0  0  0  0  0  0
  140.1906   80.0143  222.5663 H   0  0  0  0  0  0  0  0  0  0  0  0
  141.6376   79.2044  223.2079 H   0  0  0  0  0  0  0  0  0  0  0  0
  142.1376   81.5808  222.7157 H   0  0  0  0  0  0  0  0  0  0  0  0
  143.0438   80.4985  221.5753 H   0  0  0  0  0  0  0  0  0  0  0  0
  140.6087   82.2058  221.0477 H   0  0  0  0  0  0  0  0  0  0  0  0
  142.2319   82.2124  220.2374 H   0  0  0  0  0  0  0  0  0  0  0  0
  139.8542   80.5744  219.7214 H   0  0  0  0  0  0  0  0  0  0  0  0
  141.2534   80.9900  218.6671 H   0  0  0  0  0  0  0  0  0  0  0  0
  141.1657   78.5681  219.1297 H   0  0  0  0  0  0  0  0  0  0  0  0
  142.6374   79.3305  219.8455 H   0  0  0  0  0  0  0  0  0  0  0  0
  142.4254   76.4493  220.5286 H   0  0  0  0  0  0  0  0  0  0  0  0
  1  2  2  0
  2  3  1  0
  3  4  1  0
  4  5  1  0
  5  6  2  0
  6  7  1  0
  7  8  2  0
  8  9  1  0
  9 10  1  0
 10 11  2  0
 10 12  1  0
 12 13  1  0
 13 14  1  0
 14 15  1  0
 15 16  1  0
  9 17  2  0
  4 18  2  0
 18 19  1  0
 19 20  2  0
 20 21  1  0
 21 22  2  0
 22 23  1  0
 23 24  1  0
 24 25  1  0
 25 26  1  0
 26 27  1  0
 27 28  1  0
 22 29  1  0
 29 30  2  0
 30  2  1  0
 17  5  1  0
 30 19  1  0
 16 12  1  0
 28 23  1  0
  3 31  1  0
  3 32  1  0
  6 33  1  0
  7 34  1  0
  8 35  1  0
 13 36  1  0
 13 37  1  0
 14 38  1  0
 14 39  1  0
 15 40  1  0
 15 41  1  0
 16 42  1  0
 16 43  1  0
 17 44  1  0
 20 45  1  0
 21 46  1  0
 24 47  1  0
 24 48  1  0
 25 49  1  0
 25 50  1  0
 26 51  1  0
 26 52  1  0
 27 53  1  0
 27 54  1  0
 28 55  1  0
 28 56  1  0
 29 57  1  0
M  END
>  <smiles>  (10) 
O=C1CC(c2cccc(C(=O)N3CCCC3)c2)=Nc2ccc(N3CCCCC3)cc21

>  <score_type>  (10) 
oracle

>  <origin>  (10) 
autodockgpu

>  <m_score__min__energy>  (10) 
-8.9900000000000002

>  <m_primary>  (10) 
energy

>  <rmsd>  (10) 
5.786140408664357

>  <m_score__min__rmsd>  (10) 
5.786140408664357

>  <meeko>  (10) 
{"free_energy": -8.78, "intermolecular_energy": -9.68, "internal_energy": -0.84, "cluster_size": 49, "cluster_id": 1, "rank_in_cluster": 40}

>  <energy>  (10) 
-8.97

>  <cluster_rmsd>  (10) 
0.04

>  <cluster>  (10) 
1

$$$$

     RDKit          3D

 57 61  0  0  0  0  0  0  0  0999 V2000
  142.7740   74.5050  220.6220 O   0  0  0  0  0  0  0  0  0  0  0  0
  141.6730   74.2260  221.1650 C   0  0  0  0  0  0  0  0  0  0  0  0
  141.3350   72.8010  221.3330 C   0  0  0  0  0  0  0  0  0  0  0  0
  140.0160   72.6250  221.9830 C   0  0  0  0  0  0  0  0  0  0  0  0
  139.5590   71.2510  222.2100 C   0  0  0  0  0  0  0  0  0  0  0  0
  138.9480   70.4980  221.2460 C   0  0  0  0  0  0  0  0  0  0  0  0
  138.5090   69.2040  221.4320 C   0  0  0  0  0  0  0  0  0  0  0  0
  138.6900   68.6200  222.6620 C   0  0  0  0  0  0  0  0  0  0  0  0
  139.3090   69.3470  223.6790 C   0  0  0  0  0  0  0  0  0  0  0  0
  139.4700   68.6650  224.9600 C   0  0  0  0  0  0  0  0  0  0  0  0
  139.3330   67.4150  224.9560 O   0  0  0  0  0  0  0  0  0  0  0  0
  139.7690   69.3790  226.1530 N   0  0  0  0  0  0  0  0  0  0  0  0
  139.9590   70.8210  226.3230 C   0  0  0  0  0  0  0  0  0  0  0  0
  140.8990   70.9740  227.4780 C   0  0  0  0  0  0  0  0  0  0  0  0
  141.0650   69.6170  228.0760 C   0  0  0  0  0  0  0  0  0  0  0  0
  139.9460   68.8120  227.4550 C   0  0  0  0  0  0  0  0  0  0  0  0
  139.7370   70.6400  223.4570 C   0  0  0  0  0  0  0  0  0  0  0  0
  139.2620   73.6060  222.3540 N   0  0  0  0  0  0  0  0  0  0  0  0
  139.6030   74.9750  222.1840 C   0  0  0  0  0  0  0  0  0  0  0  0
  138.7880   76.0090  222.5840 C   0  0  0  0  0  0  0  0  0  0  0  0
  139.1580   77.3470  222.4000 C   0  0  0  0  0  0  0  0  0  0  0  0
  140.3580   77.6770  221.8070 C   0  0  0  0  0  0  0  0  0  0  0  0
  140.6830   79.0470  221.6460 N   0  0  0  0  0  0  0  0  0  0  0  0
  141.4940   79.4160  220.5110 C   0  0  0  0  0  0  0  0  0  0  0  0
  141.3380   80.9230  220.3230 C   0  0  0  0  0  0  0  0  0  0  0  0
  141.8320   81.6920  221.5190 C   0  0  0  0  0  0  0  0  0  0  0  0
  141.3880   81.0710  222.8030 C   0  0  0  0  0  0  0  0  0  0  0  0
  140.2570   80.0970  222.5440 C   0  0  0  0  0  0  0  0  0  0  0  0
  141.1690   76.6380  221.4100 C   0  0  0  0  0  0  0  0  0  0  0  0
  140.8010   75.3170  221.5930 C   0  0  0  0  0  0  0  0  0  0  0  0
  141.3120   72.3208  220.3436 H   0  0  0  0  0  0  0  0  0  0  0  0
  142.0991   72.3404  221.9764 H   0  0  0  0  0  0  0  0  0  0  0  0
  138.7966   70.9546  220.2567 H   0  0  0  0  0  0  0  0  0  0  0  0
  138.0245   68.6517  220.6133 H   0  0  0  0  0  0  0  0  0  0  0  0
  138.3503   67.5896  222.8432 H   0  0  0  0  0  0  0  0  0  0  0  0
  140.3948   71.2600  225.4134 H   0  0  0  0  0  0  0  0  0  0  0  0
  139.0048   71.3368  226.5059 H   0  0  0  0  0  0  0  0  0  0  0  0
  141.8697   71.3562  227.1292 H   0  0  0  0  0  0  0  0  0  0  0  0
  140.5060   71.6876  228.2171 H   0  0  0  0  0  0  0  0  0  0  0  0
  142.0454   69.1912  227.8162 H   0  0  0  0  0  0  0  0  0  0  0  0
  141.0231   69.6276  229.1752 H   0  0  0  0  0  0  0  0  0  0  0  0
  140.2264   67.7509  227.3810 H   0  0  0  0  0  0  0  0  0  0  0  0
  139.0242   68.8501  228.0541 H   0  0  0  0  0  0  0  0  0  0  0  0
  140.2243   71.1978  224.2703 H   0  0  0  0  0  0  0  0  0  0  0  0
  137.8231   75.7792  223.0595 H   0  0  0  0  0  0  0  0  0  0  0  0
  138.4808   78.1470  222.7337 H   0  0  0  0  0  0  0  0  0  0  0  0
  142.5480   79.1662  220.7025 H   0  0  0  0  0  0  0  0  0  0  0  0
  141.1773   78.8726  219.6085 H   0  0  0  0  0  0  0  0  0  0  0  0
  141.9140   81.2325  219.4385 H   0  0  0  0  0  0  0  0  0  0  0  0
  140.2675   81.1416  220.1956 H   0  0  0  0  0  0  0  0  0  0  0  0
  142.9315   81.7158  221.4970 H   0  0  0  0  0  0  0  0  0  0  0  0
  141.4121   82.7075  221.4684 H   0  0  0  0  0  0  0  0  0  0  0  0
  142.2330   80.5348  223.2596 H   0  0  0  0  0  0  0  0  0  0  0  0
  141.0357   81.8606  223.4830 H   0  0  0  0  0  0  0  0  0  0  0  0
  139.9398   79.6500  223.4977 H   0  0  0  0  0  0  0  0  0  0  0  0
  139.4206   80.6410  222.0809 H   0  0  0  0  0  0  0  0  0  0  0  0
  142.1350   76.8640  220.9348 H   0  0  0  0  0  0  0  0  0  0  0  0
  1  2  2  0
  2  3  1  0
  3  4  1  0
  4  5  1  0
  5  6  2  0
  6  7  1  0
  7  8  2  0
  8  9  1  0
  9 10  1  0
 10 11  2  0
 10 12  1  0
 12 13  1  0
 13 14  1  0
 14 15  1  0
 15 16  1  0
  9 17  2  0
  4 18  2  0
 18 19  1  0
 19 20  2  0
 20 21  1  0
 21 22  2  0
 22 23  1  0
 23 24  1  0
 24 25  1  0
 25 26  1  0
 26 27  1  0
 27 28  1  0
 22 29  1  0
 29 30  2  0
 30  2  1  0
 17  5  1  0
 30 19  1  0
 16 12  1  0
 28 23  1  0
  3 31  1  0
  3 32  1  0
  6 33  1  0
  7 34  1  0
  8 35  1  0
 13 36  1  0
 13 37  1  0
 14 38  1  0
 14 39  1  0
 15 40  1  0
 15 41  1  0
 16 42  1  0
 16 43  1  0
 17 44  1  0
 20 45  1  0
 21 46  1  0
 24 47  1  0
 24 48  1  0
 25 49  1  0
 25 50  1  0
 26 51  1  0
 26 52  1  0
 27 53  1  0
 27 54  1  0
 28 55  1  0
 28 56  1  0
 29 57  1  0
M  END
>  <smiles>  (11) 
O=C1CC(c2cccc(C(=O)N3CCCC3)c2)=Nc2ccc(N3CCCCC3)cc21

>  <score_type>  (11) 
oracle

>  <origin>  (11) 
autodockgpu

>  <m_score__min__energy>  (11) 
-8.9900000000000002

>  <m_primary>  (11) 
energy

>  <rmsd>  (11) 
6.164776774575666

>  <m_score__min__rmsd>  (11) 
6.164776774575666

>  <meeko>  (11) 
{"free_energy": -8.7, "intermolecular_energy": -9.6, "internal_energy": -0.82, "cluster_size": 49, "cluster_id": 1, "rank_in_cluster": 44}

>  <energy>  (11) 
-8.97

>  <cluster_rmsd>  (11) 
0.08

>  <cluster>  (11) 
1

$$$$

     RDKit          3D

 57 61  0  0  0  0  0  0  0  0999 V2000
  142.9470   74.9490  220.2170 O   0  0  0  0  0  0  0  0  0  0  0  0
  141.9210   74.6520  220.8840 C   0  0  0  0  0  0  0  0  0  0  0  0
  141.6100   73.2220  221.0590 C   0  0  0  0  0  0  0  0  0  0  0  0
  140.3810   73.0240  221.8610 C   0  0  0  0  0  0  0  0  0  0  0  0
  139.9590   71.6430  222.1100 C   0  0  0  0  0  0  0  0  0  0  0  0
  139.6600   70.7610  221.1090 C   0  0  0  0  0  0  0  0  0  0  0  0
  139.2610   69.4570  221.3140 C   0  0  0  0  0  0  0  0  0  0  0  0
  139.1500   69.0000  222.6050 C   0  0  0  0  0  0  0  0  0  0  0  0
  139.4440   69.8620  223.6620 C   0  0  0  0  0  0  0  0  0  0  0  0
  139.3070   69.3110  225.0070 C   0  0  0  0  0  0  0  0  0  0  0  0
  138.8330   68.1490  225.0970 O   0  0  0  0  0  0  0  0  0  0  0  0
  139.6900   70.0510  226.1600 N   0  0  0  0  0  0  0  0  0  0  0  0
  140.2530   71.4020  226.2230 C   0  0  0  0  0  0  0  0  0  0  0  0
  141.1000   71.4300  227.4570 C   0  0  0  0  0  0  0  0  0  0  0  0
  140.8390   70.1540  228.1850 C   0  0  0  0  0  0  0  0  0  0  0  0
  139.5980   69.6090  227.5170 C   0  0  0  0  0  0  0  0  0  0  0  0
  139.8420   71.1610  223.4190 C   0  0  0  0  0  0  0  0  0  0  0  0
  139.6760   73.9920  222.3440 N   0  0  0  0  0  0  0  0  0  0  0  0
  139.9900   75.3670  222.1650 C   0  0  0  0  0  0  0  0  0  0  0  0
  139.2270   76.3880  222.6860 C   0  0  0  0  0  0  0  0  0  0  0  0
  139.5700   77.7310  222.4890 C   0  0  0  0  0  0  0  0  0  0  0  0
  140.6870   78.0810  221.7620 C   0  0  0  0  0  0  0  0  0  0  0  0
  140.9860   79.4560  221.5940 N   0  0  0  0  0  0  0  0  0  0  0  0
  141.0770   80.2730  222.7810 C   0  0  0  0  0  0  0  0  0  0  0  0
  141.8110   81.5510  222.3870 C   0  0  0  0  0  0  0  0  0  0  0  0
  141.0600   82.3300  221.3390 C   0  0  0  0  0  0  0  0  0  0  0  0
  140.5210   81.4430  220.2660 C   0  0  0  0  0  0  0  0  0  0  0  0
  141.2060   80.0930  220.3160 C   0  0  0  0  0  0  0  0  0  0  0  0
  141.4450   77.0560  221.2440 C   0  0  0  0  0  0  0  0  0  0  0  0
  141.1060   75.7290  221.4400 C   0  0  0  0  0  0  0  0  0  0  0  0
  141.4675   72.7642  220.0690 H   0  0  0  0  0  0  0  0  0  0  0  0
  142.4483   72.7512  221.5934 H   0  0  0  0  0  0  0  0  0  0  0  0
  139.7433   71.1152  220.0709 H   0  0  0  0  0  0  0  0  0  0  0  0
  139.0366   68.7973  220.4628 H   0  0  0  0  0  0  0  0  0  0  0  0
  138.8327   67.9656  222.8031 H   0  0  0  0  0  0  0  0  0  0  0  0
  140.8660   71.6041  225.3323 H   0  0  0  0  0  0  0  0  0  0  0  0
  139.4654   72.1693  226.2533 H   0  0  0  0  0  0  0  0  0  0  0  0
  142.1636   71.5008  227.1853 H   0  0  0  0  0  0  0  0  0  0  0  0
  140.8569   72.3003  228.0842 H   0  0  0  0  0  0  0  0  0  0  0  0
  141.6833   69.4580  228.0720 H   0  0  0  0  0  0  0  0  0  0  0  0
  140.7119   70.2990  229.2680 H   0  0  0  0  0  0  0  0  0  0  0  0
  139.5820   68.5102  227.5665 H   0  0  0  0  0  0  0  0  0  0  0  0
  138.6762   69.9573  228.0057 H   0  0  0  0  0  0  0  0  0  0  0  0
  140.0702   71.8261  224.2649 H   0  0  0  0  0  0  0  0  0  0  0  0
  138.3277   76.1429  223.2702 H   0  0  0  0  0  0  0  0  0  0  0  0
  138.9373   78.5199  222.9218 H   0  0  0  0  0  0  0  0  0  0  0  0
  140.0699   80.5146  223.1515 H   0  0  0  0  0  0  0  0  0  0  0  0
  141.6131   79.7433  223.5823 H   0  0  0  0  0  0  0  0  0  0  0  0
  141.9318   82.1815  223.2802 H   0  0  0  0  0  0  0  0  0  0  0  0
  142.7872   81.2676  221.9666 H   0  0  0  0  0  0  0  0  0  0  0  0
  140.2222   82.8564  221.8195 H   0  0  0  0  0  0  0  0  0  0  0  0
  141.7603   83.0399  220.8747 H   0  0  0  0  0  0  0  0  0  0  0  0
  139.4394   81.3082  220.4142 H   0  0  0  0  0  0  0  0  0  0  0  0
  140.7088   81.9068  219.2864 H   0  0  0  0  0  0  0  0  0  0  0  0
  140.8006   79.4526  219.5188 H   0  0  0  0  0  0  0  0  0  0  0  0
  142.2871   80.2394  220.1751 H   0  0  0  0  0  0  0  0  0  0  0  0
  142.3443   77.2981  220.6586 H   0  0  0  0  0  0  0  0  0  0  0  0
  1  2  2  0
  2  3  1  0
  3  4  1  0
  4  5  1  0
  5  6  2  0
  6  7  1  0
  7  8  2  0
  8  9  1  0
  9 10  1  0
 10 11  2  0
 10 12  1  0
 12 13  1  0
 13 14  1  0
 14 15  1  0
 15 16  1  0
  9 17  2  0
  4 18  2  0
 18 19  1  0
 19 20  2  0
 20 21  1  0
 21 22  2  0
 22 23  1  0
 23 24  1  0
 24 25  1  0
 25 26  1  0
 26 27  1  0
 27 28  1  0
 22 29  1  0
 29 30  2  0
 30  2  1  0
 17  5  1  0
 30 19  1  0
 16 12  1  0
 28 23  1  0
  3 31  1  0
  3 32  1  0
  6 33  1  0
  7 34  1  0
  8 35  1  0
 13 36  1  0
 13 37  1  0
 14 38  1  0
 14 39  1  0
 15 40  1  0
 15 41  1  0
 16 42  1  0
 16 43  1  0
 17 44  1  0
 20 45  1  0
 21 46  1  0
 24 47  1  0
 24 48  1  0
 25 49  1  0
 25 50  1  0
 26 51  1  0
 26 52  1  0
 27 53  1  0
 27 54  1  0
 28 55  1  0
 28 56  1  0
 29 57  1  0
M  END
>  <smiles>  (12) 
O=C1CC(c2cccc(C(=O)N3CCCC3)c2)=Nc2ccc(N3CCCCC3)cc21

>  <score_type>  (12) 
oracle

>  <origin>  (12) 
autodockgpu

>  <m_score__min__energy>  (12) 
-8.9900000000000002

>  <m_primary>  (12) 
energy

>  <rmsd>  (12) 
5.8740891650356675

>  <m_score__min__rmsd>  (12) 
5.8740891650356675

>  <meeko>  (12) 
{"free_energy": -8.88, "intermolecular_energy": -9.77, "internal_energy": -0.76, "cluster_size": 49, "cluster_id": 1, "rank_in_cluster": 28}

>  <energy>  (12) 
-8.97

>  <cluster_rmsd>  (12) 
0.04

>  <cluster>  (12) 
1

$$$$

     RDKit          3D

 57 61  0  0  0  0  0  0  0  0999 V2000
  142.8960   74.5690  220.2630 O   0  0  0  0  0  0  0  0  0  0  0  0
  141.8480   74.3250  220.9170 C   0  0  0  0  0  0  0  0  0  0  0  0
  141.4810   72.9110  221.1160 C   0  0  0  0  0  0  0  0  0  0  0  0
  140.2300   72.7770  221.8990 C   0  0  0  0  0  0  0  0  0  0  0  0
  139.7530   71.4180  222.1690 C   0  0  0  0  0  0  0  0  0  0  0  0
  139.2120   70.6100  221.2080 C   0  0  0  0  0  0  0  0  0  0  0  0
  138.7550   69.3300  221.4340 C   0  0  0  0  0  0  0  0  0  0  0  0
  138.8420   68.8170  222.7050 C   0  0  0  0  0  0  0  0  0  0  0  0
  139.3860   69.6010  223.7220 C   0  0  0  0  0  0  0  0  0  0  0  0
  139.4490   68.9940  225.0480 C   0  0  0  0  0  0  0  0  0  0  0  0
  139.1870   67.7660  225.1210 O   0  0  0  0  0  0  0  0  0  0  0  0
  139.7910   69.7530  226.2020 N   0  0  0  0  0  0  0  0  0  0  0  0
  140.1220   71.1780  226.2830 C   0  0  0  0  0  0  0  0  0  0  0  0
  141.0460   71.3130  227.4530 C   0  0  0  0  0  0  0  0  0  0  0  0
  141.0610   69.9890  228.1420 C   0  0  0  0  0  0  0  0  0  0  0  0
  139.8810   69.2600  227.5420 C   0  0  0  0  0  0  0  0  0  0  0  0
  139.8350   70.8800  223.4590 C   0  0  0  0  0  0  0  0  0  0  0  0
  139.5530   73.7800  222.3480 N   0  0  0  0  0  0  0  0  0  0  0  0
  139.9220   75.1390  222.1460 C   0  0  0  0  0  0  0  0  0  0  0  0
  139.1880   76.1980  222.6300 C   0  0  0  0  0  0  0  0  0  0  0  0
  139.5840   77.5230  222.4100 C   0  0  0  0  0  0  0  0  0  0  0  0
  140.7260   77.8150  221.6980 C   0  0  0  0  0  0  0  0  0  0  0  0
  141.0800   79.1740  221.5070 N   0  0  0  0  0  0  0  0  0  0  0  0
  141.0120   80.0530  222.6500 C   0  0  0  0  0  0  0  0  0  0  0  0
  141.8260   81.2960  222.3050 C   0  0  0  0  0  0  0  0  0  0  0  0
  141.2580   82.0290  221.1190 C   0  0  0  0  0  0  0  0  0  0  0  0
  140.8640   81.0930  220.0240 C   0  0  0  0  0  0  0  0  0  0  0  0
  141.5020   79.7370  220.2450 C   0  0  0  0  0  0  0  0  0  0  0  0
  141.4550   76.7520  221.2170 C   0  0  0  0  0  0  0  0  0  0  0  0
  141.0630   75.4430  221.4350 C   0  0  0  0  0  0  0  0  0  0  0  0
  141.3396   72.4372  220.1334 H   0  0  0  0  0  0  0  0  0  0  0  0
  142.2913   72.4208  221.6756 H   0  0  0  0  0  0  0  0  0  0  0  0
  139.1365   71.0086  220.1855 H   0  0  0  0  0  0  0  0  0  0  0  0
  138.3298   68.7321  220.6144 H   0  0  0  0  0  0  0  0  0  0  0  0
  138.4863   67.7983  222.9186 H   0  0  0  0  0  0  0  0  0  0  0  0
  140.6207   71.5090  225.3601 H   0  0  0  0  0  0  0  0  0  0  0  0
  139.2213   71.7980  226.4031 H   0  0  0  0  0  0  0  0  0  0  0  0
  142.0580   71.5729  227.1090 H   0  0  0  0  0  0  0  0  0  0  0  0
  140.7098   72.1095  228.1332 H   0  0  0  0  0  0  0  0  0  0  0  0
  141.9989   69.4515  227.9386 H   0  0  0  0  0  0  0  0  0  0  0  0
  140.9962   70.0771  229.2365 H   0  0  0  0  0  0  0  0  0  0  0  0
  140.0543   68.1737  227.5446 H   0  0  0  0  0  0  0  0  0  0  0  0
  138.9547   69.4299  228.1105 H   0  0  0  0  0  0  0  0  0  0  0  0
  140.2625   71.4837  224.2731 H   0  0  0  0  0  0  0  0  0  0  0  0
  138.2699   75.9991  223.2024 H   0  0  0  0  0  0  0  0  0  0  0  0
  138.9728   78.3442  222.8126 H   0  0  0  0  0  0  0  0  0  0  0  0
  139.9668   80.3299  222.8521 H   0  0  0  0  0  0  0  0  0  0  0  0
  141.4101   79.5598  223.5490 H   0  0  0  0  0  0  0  0  0  0  0  0
  141.8279   81.9718  223.1729 H   0  0  0  0  0  0  0  0  0  0  0  0
  142.8466   80.9746  222.0497 H   0  0  0  0  0  0  0  0  0  0  0  0
  140.3706   82.5935  221.4412 H   0  0  0  0  0  0  0  0  0  0  0  0
  142.0356   82.7024  220.7293 H   0  0  0  0  0  0  0  0  0  0  0  0
  139.7695   80.9833  220.0152 H   0  0  0  0  0  0  0  0  0  0  0  0
  141.2066   81.5000  219.0612 H   0  0  0  0  0  0  0  0  0  0  0  0
  141.2042   79.0607  219.4302 H   0  0  0  0  0  0  0  0  0  0  0  0
  142.5952   79.8585  220.2596 H   0  0  0  0  0  0  0  0  0  0  0  0
  142.3734   76.9478  220.6442 H   0  0  0  0  0  0  0  0  0  0  0  0
  1  2  2  0
  2  3  1  0
  3  4  1  0
  4  5  1  0
  5  6  2  0
  6  7  1  0
  7  8  2  0
  8  9  1  0
  9 10  1  0
 10 11  2  0
 10 12  1  0
 12 13  1  0
 13 14  1  0
 14 15  1  0
 15 16  1  0
  9 17  2  0
  4 18  2  0
 18 19  1  0
 19 20  2  0
 20 21  1  0
 21 22  2  0
 22 23  1  0
 23 24  1  0
 24 25  1  0
 25 26  1  0
 26 27  1  0
 27 28  1  0
 22 29  1  0
 29 30  2  0
 30  2  1  0
 17  5  1  0
 30 19  1  0
 16 12  1  0
 28 23  1  0
  3 31  1  0
  3 32  1  0
  6 33  1  0
  7 34  1  0
  8 35  1  0
 13 36  1  0
 13 37  1  0
 14 38  1  0
 14 39  1  0
 15 40  1  0
 15 41  1  0
 16 42  1  0
 16 43  1  0
 17 44  1  0
 20 45  1  0
 21 46  1  0
 24 47  1  0
 24 48  1  0
 25 49  1  0
 25 50  1  0
 26 51  1  0
 26 52  1  0
 27 53  1  0
 27 54  1  0
 28 55  1  0
 28 56  1  0
 29 57  1  0
M  END
>  <smiles>  (13) 
O=C1CC(c2cccc(C(=O)N3CCCC3)c2)=Nc2ccc(N3CCCCC3)cc21

>  <score_type>  (13) 
oracle

>  <origin>  (13) 
autodockgpu

>  <m_score__min__energy>  (13) 
-8.9900000000000002

>  <m_primary>  (13) 
energy

>  <rmsd>  (13) 
5.839328017490137

>  <m_score__min__rmsd>  (13) 
5.839328017490137

>  <meeko>  (13) 
{"free_energy": -8.99, "intermolecular_energy": -9.88, "internal_energy": -0.77, "cluster_size": 49, "cluster_id": 1, "rank_in_cluster": 1}

>  <energy>  (13) 
-8.97

>  <cluster_rmsd>  (13) 
0.05

>  <cluster>  (13) 
1

$$$$

     RDKit          3D

 57 61  0  0  0  0  0  0  0  0999 V2000
  142.9170   74.8410  220.3960 O   0  0  0  0  0  0  0  0  0  0  0  0
  141.8650   74.5100  221.0020 C   0  0  0  0  0  0  0  0  0  0  0  0
  141.5880   73.0700  221.1550 C   0  0  0  0  0  0  0  0  0  0  0  0
  140.3210   72.8320  221.8850 C   0  0  0  0  0  0  0  0  0  0  0  0
  139.9280   71.4370  222.1050 C   0  0  0  0  0  0  0  0  0  0  0  0
  139.6240   70.5760  221.0870 C   0  0  0  0  0  0  0  0  0  0  0  0
  139.2510   69.2610  221.2660 C   0  0  0  0  0  0  0  0  0  0  0  0
  139.1750   68.7690  222.5460 C   0  0  0  0  0  0  0  0  0  0  0  0
  139.4760   69.6070  223.6190 C   0  0  0  0  0  0  0  0  0  0  0  0
  139.3750   69.0190  224.9520 C   0  0  0  0  0  0  0  0  0  0  0  0
  138.9620   67.8330  225.0170 O   0  0  0  0  0  0  0  0  0  0  0  0
  139.7280   69.7500  226.1200 N   0  0  0  0  0  0  0  0  0  0  0  0
  140.2230   71.1260  226.2120 C   0  0  0  0  0  0  0  0  0  0  0  0
  141.0750   71.1680  227.4420 C   0  0  0  0  0  0  0  0  0  0  0  0
  140.8840   69.8640  228.1410 C   0  0  0  0  0  0  0  0  0  0  0  0
  139.6680   69.2720  227.4670 C   0  0  0  0  0  0  0  0  0  0  0  0
  139.8460   70.9190  223.4040 C   0  0  0  0  0  0  0  0  0  0  0  0
  139.5610   73.7760  222.3300 N   0  0  0  0  0  0  0  0  0  0  0  0
  139.8430   75.1600  222.1730 C   0  0  0  0  0  0  0  0  0  0  0  0
  139.0210   76.1550  222.6530 C   0  0  0  0  0  0  0  0  0  0  0  0
  139.3330   77.5090  222.4790 C   0  0  0  0  0  0  0  0  0  0  0  0
  140.4790   77.8950  221.8180 C   0  0  0  0  0  0  0  0  0  0  0  0
  140.7450   79.2800  221.6720 N   0  0  0  0  0  0  0  0  0  0  0  0
  141.4430   79.7080  220.4830 C   0  0  0  0  0  0  0  0  0  0  0  0
  141.2240   81.2120  220.3550 C   0  0  0  0  0  0  0  0  0  0  0  0
  141.7950   81.9650  221.5280 C   0  0  0  0  0  0  0  0  0  0  0  0
  141.4830   81.2930  222.8250 C   0  0  0  0  0  0  0  0  0  0  0  0
  140.3650   80.2890  222.6340 C   0  0  0  0  0  0  0  0  0  0  0  0
  141.2960   76.8960  221.3420 C   0  0  0  0  0  0  0  0  0  0  0  0
  140.9870   75.5580  221.5140 C   0  0  0  0  0  0  0  0  0  0  0  0
  141.5163   72.6125  220.1572 H   0  0  0  0  0  0  0  0  0  0  0  0
  142.4082   72.6220  221.7351 H   0  0  0  0  0  0  0  0  0  0  0  0
  139.6808   70.9580  220.0570 H   0  0  0  0  0  0  0  0  0  0  0  0
  139.0194   68.6199  220.4027 H   0  0  0  0  0  0  0  0  0  0  0  0
  138.8796   67.7243  222.7229 H   0  0  0  0  0  0  0  0  0  0  0  0
  140.8196   71.3793  225.3232 H   0  0  0  0  0  0  0  0  0  0  0  0
  139.3981   71.8518  226.2643 H   0  0  0  0  0  0  0  0  0  0  0  0
  142.1319   71.2992  227.1667 H   0  0  0  0  0  0  0  0  0  0  0  0
  140.7916   72.0098  228.0909 H   0  0  0  0  0  0  0  0  0  0  0  0
  141.7619   69.2148  228.0072 H   0  0  0  0  0  0  0  0  0  0  0  0
  140.7567   69.9771  229.2277 H   0  0  0  0  0  0  0  0  0  0  0  0
  139.7085   68.1730  227.4904 H   0  0  0  0  0  0  0  0  0  0  0  0
  138.7329   69.5612  227.9690 H   0  0  0  0  0  0  0  0  0  0  0  0
  140.0793   71.5656  224.2627 H   0  0  0  0  0  0  0  0  0  0  0  0
  138.0984   75.8800  223.1852 H   0  0  0  0  0  0  0  0  0  0  0  0
  138.6526   78.2767  222.8762 H   0  0  0  0  0  0  0  0  0  0  0  0
  142.5170   79.4891  220.5759 H   0  0  0  0  0  0  0  0  0  0  0  0
  141.0666   79.1793  219.5949 H   0  0  0  0  0  0  0  0  0  0  0  0
  141.7115   81.5652  219.4344 H   0  0  0  0  0  0  0  0  0  0  0  0
  140.1401   81.3973  220.3261 H   0  0  0  0  0  0  0  0  0  0  0  0
  142.8872   82.0274  221.4132 H   0  0  0  0  0  0  0  0  0  0  0  0
  141.3408   82.9667  221.5445 H   0  0  0  0  0  0  0  0  0  0  0  0
  142.3807   80.7730  223.1908 H   0  0  0  0  0  0  0  0  0  0  0  0
  141.1659   82.0508  223.5566 H   0  0  0  0  0  0  0  0  0  0  0  0
  140.1453   79.8053  223.5972 H   0  0  0  0  0  0  0  0  0  0  0  0
  139.4750   80.8168  222.2608 H   0  0  0  0  0  0  0  0  0  0  0  0
  142.2198   77.1679  220.8103 H   0  0  0  0  0  0  0  0  0  0  0  0
  1  2  2  0
  2  3  1  0
  3  4  1  0
  4  5  1  0
  5  6  2  0
  6  7  1  0
  7  8  2  0
  8  9  1  0
  9 10  1  0
 10 11  2  0
 10 12  1  0
 12 13  1  0
 13 14  1  0
 14 15  1  0
 15 16  1  0
  9 17  2  0
  4 18  2  0
 18 19  1  0
 19 20  2  0
 20 21  1  0
 21 22  2  0
 22 23  1  0
 23 24  1  0
 24 25  1  0
 25 26  1  0
 26 27  1  0
 27 28  1  0
 22 29  1  0
 29 30  2  0
 30  2  1  0
 17  5  1  0
 30 19  1  0
 16 12  1  0
 28 23  1  0
  3 31  1  0
  3 32  1  0
  6 33  1  0
  7 34  1  0
  8 35  1  0
 13 36  1  0
 13 37  1  0
 14 38  1  0
 14 39  1  0
 15 40  1  0
 15 41  1  0
 16 42  1  0
 16 43  1  0
 17 44  1  0
 20 45  1  0
 21 46  1  0
 24 47  1  0
 24 48  1  0
 25 49  1  0
 25 50  1  0
 26 51  1  0
 26 52  1  0
 27 53  1  0
 27 54  1  0
 28 55  1  0
 28 56  1  0
 29 57  1  0
M  END
>  <smiles>  (14) 
O=C1CC(c2cccc(C(=O)N3CCCC3)c2)=Nc2ccc(N3CCCCC3)cc21

>  <score_type>  (14) 
oracle

>  <origin>  (14) 
autodockgpu

>  <m_score__min__energy>  (14) 
-8.9900000000000002

>  <m_primary>  (14) 
energy

>  <rmsd>  (14) 
6.177077354365344

>  <m_score__min__rmsd>  (14) 
6.177077354365344

>  <meeko>  (14) 
{"free_energy": -8.85, "intermolecular_energy": -9.74, "internal_energy": -0.76, "cluster_size": 49, "cluster_id": 1, "rank_in_cluster": 33}

>  <energy>  (14) 
-8.96

>  <cluster_rmsd>  (14) 
0.08

>  <cluster>  (14) 
1

$$$$

     RDKit          3D

 57 61  0  0  0  0  0  0  0  0999 V2000
  142.8710   74.9590  220.1800 O   0  0  0  0  0  0  0  0  0  0  0  0
  141.8520   74.6640  220.8580 C   0  0  0  0  0  0  0  0  0  0  0  0
  141.5400   73.2340  221.0360 C   0  0  0  0  0  0  0  0  0  0  0  0
  140.3190   73.0390  221.8510 C   0  0  0  0  0  0  0  0  0  0  0  0
  139.8980   71.6580  222.1050 C   0  0  0  0  0  0  0  0  0  0  0  0
  139.5790   70.7790  221.1070 C   0  0  0  0  0  0  0  0  0  0  0  0
  139.1800   69.4760  221.3170 C   0  0  0  0  0  0  0  0  0  0  0  0
  139.0900   69.0170  222.6090 C   0  0  0  0  0  0  0  0  0  0  0  0
  139.4050   69.8750  223.6620 C   0  0  0  0  0  0  0  0  0  0  0  0
  139.2890   69.3220  225.0080 C   0  0  0  0  0  0  0  0  0  0  0  0
  138.8320   68.1540  225.1020 O   0  0  0  0  0  0  0  0  0  0  0  0
  139.6750   70.0660  226.1570 N   0  0  0  0  0  0  0  0  0  0  0  0
  140.2210   71.4240  226.2160 C   0  0  0  0  0  0  0  0  0  0  0  0
  141.0810   71.4630  227.4400 C   0  0  0  0  0  0  0  0  0  0  0  0
  140.8450   70.1830  228.1700 C   0  0  0  0  0  0  0  0  0  0  0  0
  139.6040   69.6220  227.5150 C   0  0  0  0  0  0  0  0  0  0  0  0
  139.8020   71.1740  223.4150 C   0  0  0  0  0  0  0  0  0  0  0  0
  139.6210   74.0080  222.3420 N   0  0  0  0  0  0  0  0  0  0  0  0
  139.9360   75.3820  222.1600 C   0  0  0  0  0  0  0  0  0  0  0  0
  139.1800   76.4040  222.6890 C   0  0  0  0  0  0  0  0  0  0  0  0
  139.5220   77.7470  222.4880 C   0  0  0  0  0  0  0  0  0  0  0  0
  140.6330   78.0940  221.7490 C   0  0  0  0  0  0  0  0  0  0  0  0
  140.9320   79.4690  221.5790 N   0  0  0  0  0  0  0  0  0  0  0  0
  140.6690   80.3560  222.6860 C   0  0  0  0  0  0  0  0  0  0  0  0
  141.4510   81.6400  222.4250 C   0  0  0  0  0  0  0  0  0  0  0  0
  141.0030   82.3250  221.1610 C   0  0  0  0  0  0  0  0  0  0  0  0
  140.8050   81.3550  220.0430 C   0  0  0  0  0  0  0  0  0  0  0  0
  141.4830   80.0400  220.3710 C   0  0  0  0  0  0  0  0  0  0  0  0
  141.3840   77.0680  221.2240 C   0  0  0  0  0  0  0  0  0  0  0  0
  141.0440   75.7420  221.4230 C   0  0  0  0  0  0  0  0  0  0  0  0
  141.3860   72.7766  220.0475 H   0  0  0  0  0  0  0  0  0  0  0  0
  142.3829   72.7610  221.5611 H   0  0  0  0  0  0  0  0  0  0  0  0
  139.6451   71.1350  220.0683 H   0  0  0  0  0  0  0  0  0  0  0  0
  138.9390   68.8183  220.4688 H   0  0  0  0  0  0  0  0  0  0  0  0
  138.7727   67.9832  222.8105 H   0  0  0  0  0  0  0  0  0  0  0  0
  140.8214   71.6351  225.3188 H   0  0  0  0  0  0  0  0  0  0  0  0
  139.4234   72.1804  226.2565 H   0  0  0  0  0  0  0  0  0  0  0  0
  142.1404   71.5481  227.1565 H   0  0  0  0  0  0  0  0  0  0  0  0
  140.8335   72.3298  228.0704 H   0  0  0  0  0  0  0  0  0  0  0  0
  141.6972   69.4984  228.0473 H   0  0  0  0  0  0  0  0  0  0  0  0
  140.7279   70.3255  229.2544 H   0  0  0  0  0  0  0  0  0  0  0  0
  139.6031   68.5231  227.5638 H   0  0  0  0  0  0  0  0  0  0  0  0
  138.6831   69.9580  228.0141 H   0  0  0  0  0  0  0  0  0  0  0  0
  140.0459   71.8370  224.2582 H   0  0  0  0  0  0  0  0  0  0  0  0
  138.2870   76.1599  223.2831 H   0  0  0  0  0  0  0  0  0  0  0  0
  138.8947   78.5371  222.9264 H   0  0  0  0  0  0  0  0  0  0  0  0
  139.5928   80.5750  222.7470 H   0  0  0  0  0  0  0  0  0  0  0  0
  140.9747   79.8970  223.6378 H   0  0  0  0  0  0  0  0  0  0  0  0
  141.3021   82.3253  223.2725 H   0  0  0  0  0  0  0  0  0  0  0  0
  142.5123   81.3746  222.3104 H   0  0  0  0  0  0  0  0  0  0  0  0
  140.0523   82.8432  221.3550 H   0  0  0  0  0  0  0  0  0  0  0  0
  141.7875   83.0355  220.8614 H   0  0  0  0  0  0  0  0  0  0  0  0
  139.7285   81.1831  219.8964 H   0  0  0  0  0  0  0  0  0  0  0  0
  141.2455   81.7688  219.1239 H   0  0  0  0  0  0  0  0  0  0  0  0
  141.3315   79.3379  219.5379 H   0  0  0  0  0  0  0  0  0  0  0  0
  142.5566   80.2240  220.5243 H   0  0  0  0  0  0  0  0  0  0  0  0
  142.2784   77.3083  220.6304 H   0  0  0  0  0  0  0  0  0  0  0  0
  1  2  2  0
  2  3  1  0
  3  4  1  0
  4  5  1  0
  5  6  2  0
  6  7  1  0
  7  8  2  0
  8  9  1  0
  9 10  1  0
 10 11  2  0
 10 12  1  0
 12 13  1  0
 13 14  1  0
 14 15  1  0
 15 16  1  0
  9 17  2  0
  4 18  2  0
 18 19  1  0
 19 20  2  0
 20 21  1  0
 21 22  2  0
 22 23  1  0
 23 24  1  0
 24 25  1  0
 25 26  1  0
 26 27  1  0
 27 28  1  0
 22 29  1  0
 29 30  2  0
 30  2  1  0
 17  5  1  0
 30 19  1  0
 16 12  1  0
 28 23  1  0
  3 31  1  0
  3 32  1  0
  6 33  1  0
  7 34  1  0
  8 35  1  0
 13 36  1  0
 13 37  1  0
 14 38  1  0
 14 39  1  0
 15 40  1  0
 15 41  1  0
 16 42  1  0
 16 43  1  0
 17 44  1  0
 20 45  1  0
 21 46  1  0
 24 47  1  0
 24 48  1  0
 25 49  1  0
 25 50  1  0
 26 51  1  0
 26 52  1  0
 27 53  1  0
 27 54  1  0
 28 55  1  0
 28 56  1  0
 29 57  1  0
M  END
>  <smiles>  (15) 
O=C1CC(c2cccc(C(=O)N3CCCC3)c2)=Nc2ccc(N3CCCCC3)cc21

>  <score_type>  (15) 
oracle

>  <origin>  (15) 
autodockgpu

>  <m_score__min__energy>  (15) 
-8.9900000000000002

>  <m_primary>  (15) 
energy

>  <rmsd>  (15) 
5.850075994353052

>  <m_score__min__rmsd>  (15) 
5.850075994353052

>  <meeko>  (15) 
{"free_energy": -8.87, "intermolecular_energy": -9.77, "internal_energy": -0.76, "cluster_size": 49, "cluster_id": 1, "rank_in_cluster": 31}

>  <energy>  (15) 
-8.96

>  <cluster_rmsd>  (15) 
0.06

>  <cluster>  (15) 
1

$$$$

     RDKit          3D

 57 61  0  0  0  0  0  0  0  0999 V2000
  142.9190   74.8610  220.4040 O   0  0  0  0  0  0  0  0  0  0  0  0
  141.8670   74.5290  221.0100 C   0  0  0  0  0  0  0  0  0  0  0  0
  141.5920   73.0890  221.1620 C   0  0  0  0  0  0  0  0  0  0  0  0
  140.3250   72.8490  221.8910 C   0  0  0  0  0  0  0  0  0  0  0  0
  139.9330   71.4540  222.1110 C   0  0  0  0  0  0  0  0  0  0  0  0
  139.5780   70.6080  221.0960 C   0  0  0  0  0  0  0  0  0  0  0  0
  139.2050   69.2930  221.2740 C   0  0  0  0  0  0  0  0  0  0  0  0
  139.1830   68.7840  222.5500 C   0  0  0  0  0  0  0  0  0  0  0  0
  139.5360   69.6070  223.6200 C   0  0  0  0  0  0  0  0  0  0  0  0
  139.4900   69.0020  224.9470 C   0  0  0  0  0  0  0  0  0  0  0  0
  139.1630   67.7890  225.0050 O   0  0  0  0  0  0  0  0  0  0  0  0
  139.8020   69.7460  226.1180 N   0  0  0  0  0  0  0  0  0  0  0  0
  140.1980   71.1530  226.2190 C   0  0  0  0  0  0  0  0  0  0  0  0
  141.0580   71.2460  227.4410 C   0  0  0  0  0  0  0  0  0  0  0  0
  140.9670   69.9250  228.1300 C   0  0  0  0  0  0  0  0  0  0  0  0
  139.7890   69.2540  227.4620 C   0  0  0  0  0  0  0  0  0  0  0  0
  139.9050   70.9190  223.4040 C   0  0  0  0  0  0  0  0  0  0  0  0
  139.5630   73.7920  222.3360 N   0  0  0  0  0  0  0  0  0  0  0  0
  139.8440   75.1770  222.1800 C   0  0  0  0  0  0  0  0  0  0  0  0
  139.0210   76.1710  222.6590 C   0  0  0  0  0  0  0  0  0  0  0  0
  139.3320   77.5250  222.4860 C   0  0  0  0  0  0  0  0  0  0  0  0
  140.4780   77.9130  221.8260 C   0  0  0  0  0  0  0  0  0  0  0  0
  140.7430   79.2970  221.6810 N   0  0  0  0  0  0  0  0  0  0  0  0
  141.4750   79.7220  220.5110 C   0  0  0  0  0  0  0  0  0  0  0  0
  141.2540   81.2250  220.3690 C   0  0  0  0  0  0  0  0  0  0  0  0
  141.7860   81.9860  221.5540 C   0  0  0  0  0  0  0  0  0  0  0  0
  141.4380   81.3200  222.8450 C   0  0  0  0  0  0  0  0  0  0  0  0
  140.3300   80.3100  222.6250 C   0  0  0  0  0  0  0  0  0  0  0  0
  141.2960   76.9140  221.3500 C   0  0  0  0  0  0  0  0  0  0  0  0
  140.9880   75.5760  221.5220 C   0  0  0  0  0  0  0  0  0  0  0  0
  141.5215   72.6319  220.1640 H   0  0  0  0  0  0  0  0  0  0  0  0
  142.4125   72.6418  221.7423 H   0  0  0  0  0  0  0  0  0  0  0  0
  139.5911   71.0035  220.0696 H   0  0  0  0  0  0  0  0  0  0  0  0
  138.9310   68.6650  220.4135 H   0  0  0  0  0  0  0  0  0  0  0  0
  138.8901   67.7384  222.7262 H   0  0  0  0  0  0  0  0  0  0  0  0
  140.7654   71.4566  225.3269 H   0  0  0  0  0  0  0  0  0  0  0  0
  139.3234   71.8167  226.2870 H   0  0  0  0  0  0  0  0  0  0  0  0
  142.0999   71.4544  227.1565 H   0  0  0  0  0  0  0  0  0  0  0  0
  140.7228   72.0604  228.1001 H   0  0  0  0  0  0  0  0  0  0  0  0
  141.8872   69.3409  227.9818 H   0  0  0  0  0  0  0  0  0  0  0  0
  140.8431   70.0194  229.2189 H   0  0  0  0  0  0  0  0  0  0  0  0
  139.9071   68.1604  227.4755 H   0  0  0  0  0  0  0  0  0  0  0  0
  138.8408   69.4725  227.9751 H   0  0  0  0  0  0  0  0  0  0  0  0
  140.1809   71.5529  224.2596 H   0  0  0  0  0  0  0  0  0  0  0  0
  138.0979   75.8952  223.1898 H   0  0  0  0  0  0  0  0  0  0  0  0
  138.6506   78.2917  222.8833 H   0  0  0  0  0  0  0  0  0  0  0  0
  142.5466   79.5079  220.6372 H   0  0  0  0  0  0  0  0  0  0  0  0
  141.1276   79.1874  219.6146 H   0  0  0  0  0  0  0  0  0  0  0  0
  141.7676   81.5756  219.4617 H   0  0  0  0  0  0  0  0  0  0  0  0
  140.1707   81.4055  220.3069 H   0  0  0  0  0  0  0  0  0  0  0  0
  142.8809   82.0523  221.4718 H   0  0  0  0  0  0  0  0  0  0  0  0
  141.3271   82.9857  221.5514 H   0  0  0  0  0  0  0  0  0  0  0  0
  142.3263   80.8058  223.2407 H   0  0  0  0  0  0  0  0  0  0  0  0
  141.0963   82.0802  223.5628 H   0  0  0  0  0  0  0  0  0  0  0  0
  140.0825   79.8308  223.5837 H   0  0  0  0  0  0  0  0  0  0  0  0
  139.4501   80.8323  222.2212 H   0  0  0  0  0  0  0  0  0  0  0  0
  142.2197   77.1865  220.8184 H   0  0  0  0  0  0  0  0  0  0  0  0
  1  2  2  0
  2  3  1  0
  3  4  1  0
  4  5  1  0
  5  6  2  0
  6  7  1  0
  7  8  2  0
  8  9  1  0
  9 10  1  0
 10 11  2  0
 10 12  1  0
 12 13  1  0
 13 14  1  0
 14 15  1  0
 15 16  1  0
  9 17  2  0
  4 18  2  0
 18 19  1  0
 19 20  2  0
 20 21  1  0
 21 22  2  0
 22 23  1  0
 23 24  1  0
 24 25  1  0
 25 26  1  0
 26 27  1  0
 27 28  1  0
 22 29  1  0
 29 30  2  0
 30  2  1  0
 17  5  1  0
 30 19  1  0
 16 12  1  0
 28 23  1  0
  3 31  1  0
  3 32  1  0
  6 33  1  0
  7 34  1  0
  8 35  1  0
 13 36  1  0
 13 37  1  0
 14 38  1  0
 14 39  1  0
 15 40  1  0
 15 41  1  0
 16 42  1  0
 16 43  1  0
 17 44  1  0
 20 45  1  0
 21 46  1  0
 24 47  1  0
 24 48  1  0
 25 49  1  0
 25 50  1  0
 26 51  1  0
 26 52  1  0
 27 53  1  0
 27 54  1  0
 28 55  1  0
 28 56  1  0
 29 57  1  0
M  END
>  <smiles>  (16) 
O=C1CC(c2cccc(C(=O)N3CCCC3)c2)=Nc2ccc(N3CCCCC3)cc21

>  <score_type>  (16) 
oracle

>  <origin>  (16) 
autodockgpu

>  <m_score__min__energy>  (16) 
-8.9900000000000002

>  <m_primary>  (16) 
energy

>  <rmsd>  (16) 
6.179355369848767

>  <m_score__min__rmsd>  (16) 
6.179355369848767

>  <meeko>  (16) 
{"free_energy": -8.9, "intermolecular_energy": -9.79, "internal_energy": -0.76, "cluster_size": 49, "cluster_id": 1, "rank_in_cluster": 19}

>  <energy>  (16) 
-8.95

>  <cluster_rmsd>  (16) 
0.08

>  <cluster>  (16) 
1

$$$$

     RDKit          3D

 57 61  0  0  0  0  0  0  0  0999 V2000
  142.9070   73.9820  220.5350 O   0  0  0  0  0  0  0  0  0  0  0  0
  141.7910   73.8350  221.0970 C   0  0  0  0  0  0  0  0  0  0  0  0
  141.3460   72.4600  221.3870 C   0  0  0  0  0  0  0  0  0  0  0  0
  140.0190   72.4420  222.0460 C   0  0  0  0  0  0  0  0  0  0  0  0
  139.4600   71.1320  222.3890 C   0  0  0  0  0  0  0  0  0  0  0  0
  138.6410   70.4260  221.5520 C   0  0  0  0  0  0  0  0  0  0  0  0
  138.1010   69.1930  221.8490 C   0  0  0  0  0  0  0  0  0  0  0  0
  138.3970   68.6220  223.0630 C   0  0  0  0  0  0  0  0  0  0  0  0
  139.2290   69.3020  223.9530 C   0  0  0  0  0  0  0  0  0  0  0  0
  139.5020   68.6380  225.2240 C   0  0  0  0  0  0  0  0  0  0  0  0
  139.4390   67.3820  225.2310 O   0  0  0  0  0  0  0  0  0  0  0  0
  139.8250   69.3750  226.3970 N   0  0  0  0  0  0  0  0  0  0  0  0
  139.9390   70.8270  226.5520 C   0  0  0  0  0  0  0  0  0  0  0  0
  140.9330   71.0400  227.6510 C   0  0  0  0  0  0  0  0  0  0  0  0
  141.2120   69.6990  228.2420 C   0  0  0  0  0  0  0  0  0  0  0  0
  140.1090   68.8270  227.6880 C   0  0  0  0  0  0  0  0  0  0  0  0
  139.7520   70.5360  223.6220 C   0  0  0  0  0  0  0  0  0  0  0  0
  139.3440   73.5060  222.3290 N   0  0  0  0  0  0  0  0  0  0  0  0
  139.7880   74.8250  222.0420 C   0  0  0  0  0  0  0  0  0  0  0  0
  139.0550   75.9500  222.3490 C   0  0  0  0  0  0  0  0  0  0  0  0
  139.5260   77.2340  222.0510 C   0  0  0  0  0  0  0  0  0  0  0  0
  140.7460   77.4190  221.4360 C   0  0  0  0  0  0  0  0  0  0  0  0
  141.1730   78.7410  221.1580 N   0  0  0  0  0  0  0  0  0  0  0  0
  141.2190   79.6770  222.2560 C   0  0  0  0  0  0  0  0  0  0  0  0
  142.0910   80.8460  221.8090 C   0  0  0  0  0  0  0  0  0  0  0  0
  141.5110   81.5570  220.6150 C   0  0  0  0  0  0  0  0  0  0  0  0
  141.0030   80.5970  219.5900 C   0  0  0  0  0  0  0  0  0  0  0  0
  141.5650   79.2140  219.8500 C   0  0  0  0  0  0  0  0  0  0  0  0
  141.4730   76.2910  221.1320 C   0  0  0  0  0  0  0  0  0  0  0  0
  141.0070   75.0230  221.4270 C   0  0  0  0  0  0  0  0  0  0  0  0
  141.2830   71.8989  220.4429 H   0  0  0  0  0  0  0  0  0  0  0  0
  142.0750   72.0001  222.0704 H   0  0  0  0  0  0  0  0  0  0  0  0
  138.3968   70.8718  220.5765 H   0  0  0  0  0  0  0  0  0  0  0  0
  137.4475   68.6776  221.1298 H   0  0  0  0  0  0  0  0  0  0  0  0
  137.9824   67.6389  223.3306 H   0  0  0  0  0  0  0  0  0  0  0  0
  140.2957   71.2856  225.6180 H   0  0  0  0  0  0  0  0  0  0  0  0
  138.9683   71.2877  226.7875 H   0  0  0  0  0  0  0  0  0  0  0  0
  141.8583   71.4759  227.2462 H   0  0  0  0  0  0  0  0  0  0  0  0
  140.5415   71.7333  228.4099 H   0  0  0  0  0  0  0  0  0  0  0  0
  142.1993   69.3296  227.9278 H   0  0  0  0  0  0  0  0  0  0  0  0
  141.2323   69.7136  229.3417 H   0  0  0  0  0  0  0  0  0  0  0  0
  140.4464   67.7837  227.6007 H   0  0  0  0  0  0  0  0  0  0  0  0
  139.2222   68.8148  228.3387 H   0  0  0  0  0  0  0  0  0  0  0  0
  140.4064   71.0577  224.3359 H   0  0  0  0  0  0  0  0  0  0  0  0
  138.0770   75.8368  222.8396 H   0  0  0  0  0  0  0  0  0  0  0  0
  138.9130   78.1094  222.3116 H   0  0  0  0  0  0  0  0  0  0  0  0
  140.2050   80.0312  222.4933 H   0  0  0  0  0  0  0  0  0  0  0  0
  141.6307   79.2029  223.1591 H   0  0  0  0  0  0  0  0  0  0  0  0
  142.1796   81.5613  222.6400 H   0  0  0  0  0  0  0  0  0  0  0  0
  143.0748   80.4463  221.5221 H   0  0  0  0  0  0  0  0  0  0  0  0
  140.6789   82.1939  220.9496 H   0  0  0  0  0  0  0  0  0  0  0  0
  142.3089   82.1581  220.1544 H   0  0  0  0  0  0  0  0  0  0  0  0
  139.9048   80.5589  219.6395 H   0  0  0  0  0  0  0  0  0  0  0  0
  141.3206   80.9335  218.5921 H   0  0  0  0  0  0  0  0  0  0  0  0
  141.1844   78.5201  219.0861 H   0  0  0  0  0  0  0  0  0  0  0  0
  142.6630   79.2645  219.8066 H   0  0  0  0  0  0  0  0  0  0  0  0
  142.4512   76.4009  220.6411 H   0  0  0  0  0  0  0  0  0  0  0  0
  1  2  2  0
  2  3  1  0
  3  4  1  0
  4  5  1  0
  5  6  2  0
  6  7  1  0
  7  8  2  0
  8  9  1  0
  9 10  1  0
 10 11  2  0
 10 12  1  0
 12 13  1  0
 13 14  1  0
 14 15  1  0
 15 16  1  0
  9 17  2  0
  4 18  2  0
 18 19  1  0
 19 20  2  0
 20 21  1  0
 21 22  2  0
 22 23  1  0
 23 24  1  0
 24 25  1  0
 25 26  1  0
 26 27  1  0
 27 28  1  0
 22 29  1  0
 29 30  2  0
 30  2  1  0
 17  5  1  0
 30 19  1  0
 16 12  1  0
 28 23  1  0
  3 31  1  0
  3 32  1  0
  6 33  1  0
  7 34  1  0
  8 35  1  0
 13 36  1  0
 13 37  1  0
 14 38  1  0
 14 39  1  0
 15 40  1  0
 15 41  1  0
 16 42  1  0
 16 43  1  0
 17 44  1  0
 20 45  1  0
 21 46  1  0
 24 47  1  0
 24 48  1  0
 25 49  1  0
 25 50  1  0
 26 51  1  0
 26 52  1  0
 27 53  1  0
 27 54  1  0
 28 55  1  0
 28 56  1  0
 29 57  1  0
M  END
>  <smiles>  (17) 
O=C1CC(c2cccc(C(=O)N3CCCC3)c2)=Nc2ccc(N3CCCCC3)cc21

>  <score_type>  (17) 
oracle

>  <origin>  (17) 
autodockgpu

>  <m_score__min__energy>  (17) 
-8.9900000000000002

>  <m_primary>  (17) 
energy

>  <rmsd>  (17) 
5.769300274970561

>  <m_score__min__rmsd>  (17) 
5.769300274970561

>  <meeko>  (17) 
{"free_energy": -8.63, "intermolecular_energy": -9.52, "internal_energy": -0.89, "cluster_size": 49, "cluster_id": 1, "rank_in_cluster": 46}

>  <energy>  (17) 
-8.94

>  <cluster_rmsd>  (17) 
0.07

>  <cluster>  (17) 
1

$$$$

     RDKit          3D

 57 61  0  0  0  0  0  0  0  0999 V2000
  142.8940   74.5290  220.2790 O   0  0  0  0  0  0  0  0  0  0  0  0
  141.8360   74.3050  220.9230 C   0  0  0  0  0  0  0  0  0  0  0  0
  141.4470   72.8990  221.1320 C   0  0  0  0  0  0  0  0  0  0  0  0
  140.1870   72.7890  221.9020 C   0  0  0  0  0  0  0  0  0  0  0  0
  139.6880   71.4400  222.1810 C   0  0  0  0  0  0  0  0  0  0  0  0
  139.0950   70.6520  221.2330 C   0  0  0  0  0  0  0  0  0  0  0  0
  138.6160   69.3800  221.4670 C   0  0  0  0  0  0  0  0  0  0  0  0
  138.7360   68.8560  222.7320 C   0  0  0  0  0  0  0  0  0  0  0  0
  139.3340   69.6200  223.7340 C   0  0  0  0  0  0  0  0  0  0  0  0
  139.4290   69.0030  225.0530 C   0  0  0  0  0  0  0  0  0  0  0  0
  139.1970   67.7680  225.1170 O   0  0  0  0  0  0  0  0  0  0  0  0
  139.7680   69.7580  226.2090 N   0  0  0  0  0  0  0  0  0  0  0  0
  140.0650   71.1900  226.3000 C   0  0  0  0  0  0  0  0  0  0  0  0
  141.0000   71.3370  227.4590 C   0  0  0  0  0  0  0  0  0  0  0  0
  141.0570   70.0080  228.1350 C   0  0  0  0  0  0  0  0  0  0  0  0
  139.8870   69.2550  227.5430 C   0  0  0  0  0  0  0  0  0  0  0  0
  139.8020   70.8910  223.4630 C   0  0  0  0  0  0  0  0  0  0  0  0
  139.5180   73.8060  222.3340 N   0  0  0  0  0  0  0  0  0  0  0  0
  139.9080   75.1570  222.1220 C   0  0  0  0  0  0  0  0  0  0  0  0
  139.1830   76.2310  222.5880 C   0  0  0  0  0  0  0  0  0  0  0  0
  139.5990   77.5490  222.3600 C   0  0  0  0  0  0  0  0  0  0  0  0
  140.7540   77.8180  221.6570 C   0  0  0  0  0  0  0  0  0  0  0  0
  141.1280   79.1700  221.4570 N   0  0  0  0  0  0  0  0  0  0  0  0
  141.0280   80.0690  222.5830 C   0  0  0  0  0  0  0  0  0  0  0  0
  141.8670   81.2980  222.2470 C   0  0  0  0  0  0  0  0  0  0  0  0
  141.3500   82.0170  221.0290 C   0  0  0  0  0  0  0  0  0  0  0  0
  140.9840   81.0670  219.9360 C   0  0  0  0  0  0  0  0  0  0  0  0
  141.6000   79.7080  220.2020 C   0  0  0  0  0  0  0  0  0  0  0  0
  141.4730   76.7400  221.1950 C   0  0  0  0  0  0  0  0  0  0  0  0
  141.0610   75.4390  221.4210 C   0  0  0  0  0  0  0  0  0  0  0  0
  141.3096   72.4176  220.1525 H   0  0  0  0  0  0  0  0  0  0  0  0
  142.2443   72.4038  221.7057 H   0  0  0  0  0  0  0  0  0  0  0  0
  138.9934   71.0600  220.2165 H   0  0  0  0  0  0  0  0  0  0  0  0
  138.1484   68.7978  220.6593 H   0  0  0  0  0  0  0  0  0  0  0  0
  138.3642   67.8444  222.9519 H   0  0  0  0  0  0  0  0  0  0  0  0
  140.5435   71.5420  225.3742 H   0  0  0  0  0  0  0  0  0  0  0  0
  139.1509   71.7862  226.4378 H   0  0  0  0  0  0  0  0  0  0  0  0
  142.0006   71.6253  227.1047 H   0  0  0  0  0  0  0  0  0  0  0  0
  140.6527   72.1184  228.1510 H   0  0  0  0  0  0  0  0  0  0  0  0
  142.0052   69.4960  227.9144 H   0  0  0  0  0  0  0  0  0  0  0  0
  141.0045   70.0844  229.2311 H   0  0  0  0  0  0  0  0  0  0  0  0
  140.0869   68.1734  227.5332 H   0  0  0  0  0  0  0  0  0  0  0  0
  138.9641   69.3965  228.1247 H   0  0  0  0  0  0  0  0  0  0  0  0
  140.2705   71.4794  224.2657 H   0  0  0  0  0  0  0  0  0  0  0  0
  138.2562   76.0498  223.1521 H   0  0  0  0  0  0  0  0  0  0  0  0
  138.9947   78.3823  222.7479 H   0  0  0  0  0  0  0  0  0  0  0  0
  139.9791   80.3595  222.7427 H   0  0  0  0  0  0  0  0  0  0  0  0
  141.3882   79.5871  223.5039 H   0  0  0  0  0  0  0  0  0  0  0  0
  141.8448   81.9883  223.1032 H   0  0  0  0  0  0  0  0  0  0  0  0
  142.8925   80.9619  222.0339 H   0  0  0  0  0  0  0  0  0  0  0  0
  140.4584   82.5968  221.3098 H   0  0  0  0  0  0  0  0  0  0  0  0
  142.1490   82.6747  220.6562 H   0  0  0  0  0  0  0  0  0  0  0  0
  139.8894   80.9682  219.8908 H   0  0  0  0  0  0  0  0  0  0  0  0
  141.3637   81.4543  218.9790 H   0  0  0  0  0  0  0  0  0  0  0  0
  141.3244   79.0211  219.3882 H   0  0  0  0  0  0  0  0  0  0  0  0
  142.6931   79.8193  220.2538 H   0  0  0  0  0  0  0  0  0  0  0  0
  142.4004   76.9174  220.6307 H   0  0  0  0  0  0  0  0  0  0  0  0
  1  2  2  0
  2  3  1  0
  3  4  1  0
  4  5  1  0
  5  6  2  0
  6  7  1  0
  7  8  2  0
  8  9  1  0
  9 10  1  0
 10 11  2  0
 10 12  1  0
 12 13  1  0
 13 14  1  0
 14 15  1  0
 15 16  1  0
  9 17  2  0
  4 18  2  0
 18 19  1  0
 19 20  2  0
 20 21  1  0
 21 22  2  0
 22 23  1  0
 23 24  1  0
 24 25  1  0
 25 26  1  0
 26 27  1  0
 27 28  1  0
 22 29  1  0
 29 30  2  0
 30  2  1  0
 17  5  1  0
 30 19  1  0
 16 12  1  0
 28 23  1  0
  3 31  1  0
  3 32  1  0
  6 33  1  0
  7 34  1  0
  8 35  1  0
 13 36  1  0
 13 37  1  0
 14 38  1  0
 14 39  1  0
 15 40  1  0
 15 41  1  0
 16 42  1  0
 16 43  1  0
 17 44  1  0
 20 45  1  0
 21 46  1  0
 24 47  1  0
 24 48  1  0
 25 49  1  0
 25 50  1  0
 26 51  1  0
 26 52  1  0
 27 53  1  0
 27 54  1  0
 28 55  1  0
 28 56  1  0
 29 57  1  0
M  END
>  <smiles>  (18) 
O=C1CC(c2cccc(C(=O)N3CCCC3)c2)=Nc2ccc(N3CCCCC3)cc21

>  <score_type>  (18) 
oracle

>  <origin>  (18) 
autodockgpu

>  <m_score__min__energy>  (18) 
-8.9900000000000002

>  <m_primary>  (18) 
energy

>  <rmsd>  (18) 
5.827291508315554

>  <m_score__min__rmsd>  (18) 
5.827291508315554

>  <meeko>  (18) 
{"free_energy": -8.94, "intermolecular_energy": -9.84, "internal_energy": -0.79, "cluster_size": 49, "cluster_id": 1, "rank_in_cluster": 17}

>  <energy>  (18) 
-8.9

>  <cluster_rmsd>  (18) 
0.33

>  <cluster>  (18) 
1

$$$$

     RDKit          3D

 57 61  0  0  0  0  0  0  0  0999 V2000
  136.4490   75.6920  221.7620 O   0  0  0  0  0  0  0  0  0  0  0  0
  137.5490   75.0900  221.8710 C   0  0  0  0  0  0  0  0  0  0  0  0
  137.5160   73.6220  222.0000 C   0  0  0  0  0  0  0  0  0  0  0  0
  138.8780   73.0530  222.1200 C   0  0  0  0  0  0  0  0  0  0  0  0
  138.9850   71.5970  222.2550 C   0  0  0  0  0  0  0  0  0  0  0  0
  138.9990   70.7460  221.1840 C   0  0  0  0  0  0  0  0  0  0  0  0
  139.0990   69.3750  221.2830 C   0  0  0  0  0  0  0  0  0  0  0  0
  139.1910   68.8110  222.5320 C   0  0  0  0  0  0  0  0  0  0  0  0
  139.1810   69.6360  223.6560 C   0  0  0  0  0  0  0  0  0  0  0  0
  139.2830   68.9710  224.9510 C   0  0  0  0  0  0  0  0  0  0  0  0
  138.9840   67.7500  224.9860 O   0  0  0  0  0  0  0  0  0  0  0  0
  139.7010   69.6690  226.1180 N   0  0  0  0  0  0  0  0  0  0  0  0
  140.0820   71.0780  226.2440 C   0  0  0  0  0  0  0  0  0  0  0  0
  141.0620   71.1340  227.3740 C   0  0  0  0  0  0  0  0  0  0  0  0
  141.0640   69.7830  228.0060 C   0  0  0  0  0  0  0  0  0  0  0  0
  139.8350   69.1170  227.4310 C   0  0  0  0  0  0  0  0  0  0  0  0
  139.0810   71.0060  223.5200 C   0  0  0  0  0  0  0  0  0  0  0  0
  139.9560   73.7630  222.1090 N   0  0  0  0  0  0  0  0  0  0  0  0
  139.9700   75.1790  221.9850 C   0  0  0  0  0  0  0  0  0  0  0  0
  141.1290   75.9220  221.9770 C   0  0  0  0  0  0  0  0  0  0  0  0
  141.1030   77.3170  221.8510 C   0  0  0  0  0  0  0  0  0  0  0  0
  139.9110   77.9980  221.7320 C   0  0  0  0  0  0  0  0  0  0  0  0
  139.9440   79.4090  221.6070 N   0  0  0  0  0  0  0  0  0  0  0  0
  141.2340   80.0410  221.4620 C   0  0  0  0  0  0  0  0  0  0  0  0
  140.9830   81.4470  220.9250 C   0  0  0  0  0  0  0  0  0  0  0  0
  140.1620   82.2750  221.8780 C   0  0  0  0  0  0  0  0  0  0  0  0
  139.0190   81.5000  222.4450 C   0  0  0  0  0  0  0  0  0  0  0  0
  138.7730   80.2560  221.6160 C   0  0  0  0  0  0  0  0  0  0  0  0
  138.7560   77.2490  221.7400 C   0  0  0  0  0  0  0  0  0  0  0  0
  138.7840   75.8710  221.8630 C   0  0  0  0  0  0  0  0  0  0  0  0
  136.9379   73.3557  222.8971 H   0  0  0  0  0  0  0  0  0  0  0  0
  137.0496   73.2081  221.0939 H   0  0  0  0  0  0  0  0  0  0  0  0
  138.9256   71.1847  220.1779 H   0  0  0  0  0  0  0  0  0  0  0  0
  139.1050   68.7457  220.3808 H   0  0  0  0  0  0  0  0  0  0  0  0
  139.2717   67.7197  222.6444 H   0  0  0  0  0  0  0  0  0  0  0  0
  140.5489   71.4336  225.3136 H   0  0  0  0  0  0  0  0  0  0  0  0
  139.2083   71.7191  226.4326 H   0  0  0  0  0  0  0  0  0  0  0  0
  142.0654   71.3764  226.9941 H   0  0  0  0  0  0  0  0  0  0  0  0
  140.7838   71.9110  228.1013 H   0  0  0  0  0  0  0  0  0  0  0  0
  141.9738   69.2258  227.7380 H   0  0  0  0  0  0  0  0  0  0  0  0
  141.0507   69.8264  229.1051 H   0  0  0  0  0  0  0  0  0  0  0  0
  139.9726   68.0268  227.3809 H   0  0  0  0  0  0  0  0  0  0  0  0
  138.9412   69.2912  228.0480 H   0  0  0  0  0  0  0  0  0  0  0  0
  139.0767   71.6416  224.4177 H   0  0  0  0  0  0  0  0  0  0  0  0
  142.0973   75.4087  222.0717 H   0  0  0  0  0  0  0  0  0  0  0  0
  142.0493   77.8777  221.8470 H   0  0  0  0  0  0  0  0  0  0  0  0
  141.7408   80.0937  222.4369 H   0  0  0  0  0  0  0  0  0  0  0  0
  141.8775   79.4682  220.7781 H   0  0  0  0  0  0  0  0  0  0  0  0
  141.9510   81.9444  220.7651 H   0  0  0  0  0  0  0  0  0  0  0  0
  140.4226   81.3565  219.9828 H   0  0  0  0  0  0  0  0  0  0  0  0
  140.8070   82.6124  222.7027 H   0  0  0  0  0  0  0  0  0  0  0  0
  139.7516   83.1300  221.3208 H   0  0  0  0  0  0  0  0  0  0  0  0
  139.2546   81.2078  223.4790 H   0  0  0  0  0  0  0  0  0  0  0  0
  138.1156   82.1274  222.4307 H   0  0  0  0  0  0  0  0  0  0  0  0
  137.9270   79.6982  222.0440 H   0  0  0  0  0  0  0  0  0  0  0  0
  138.5469   80.5582  220.5828 H   0  0  0  0  0  0  0  0  0  0  0  0
  137.7859   77.7590  221.6462 H   0  0  0  0  0  0  0  0  0  0  0  0
  1  2  2  0
  2  3  1  0
  3  4  1  0
  4  5  1  0
  5  6  2  0
  6  7  1  0
  7  8  2  0
  8  9  1  0
  9 10  1  0
 10 11  2  0
 10 12  1  0
 12 13  1  0
 13 14  1  0
 14 15  1  0
 15 16  1  0
  9 17  2  0
  4 18  2  0
 18 19  1  0
 19 20  2  0
 20 21  1  0
 21 22  2  0
 22 23  1  0
 23 24  1  0
 24 25  1  0
 25 26  1  0
 26 27  1  0
 27 28  1  0
 22 29  1  0
 29 30  2  0
 30  2  1  0
 17  5  1  0
 30 19  1  0
 16 12  1  0
 28 23  1  0
  3 31  1  0
  3 32  1  0
  6 33  1  0
  7 34  1  0
  8 35  1  0
 13 36  1  0
 13 37  1  0
 14 38  1  0
 14 39  1  0
 15 40  1  0
 15 41  1  0
 16 42  1  0
 16 43  1  0
 17 44  1  0
 20 45  1  0
 21 46  1  0
 24 47  1  0
 24 48  1  0
 25 49  1  0
 25 50  1  0
 26 51  1  0
 26 52  1  0
 27 53  1  0
 27 54  1  0
 28 55  1  0
 28 56  1  0
 29 57  1  0
M  END
>  <smiles>  (19) 
O=C1CC(c2cccc(C(=O)N3CCCC3)c2)=Nc2ccc(N3CCCCC3)cc21

>  <score_type>  (19) 
oracle

>  <origin>  (19) 
autodockgpu

>  <m_score__min__energy>  (19) 
-8.9900000000000002

>  <m_primary>  (19) 
energy

>  <rmsd>  (19) 
6.303593677031567

>  <m_score__min__rmsd>  (19) 
6.303593677031567

>  <meeko>  (19) 
{"free_energy": -8.04, "intermolecular_energy": -8.93, "internal_energy": -0.83, "cluster_size": 49, "cluster_id": 1, "rank_in_cluster": 48}

>  <energy>  (19) 
-8.9

>  <cluster_rmsd>  (19) 
0.32

>  <cluster>  (19) 
1

$$$$

     RDKit          3D

 57 61  0  0  0  0  0  0  0  0999 V2000
  142.8520   75.0460  220.3050 O   0  0  0  0  0  0  0  0  0  0  0  0
  141.8230   74.7100  220.9470 C   0  0  0  0  0  0  0  0  0  0  0  0
  141.5560   73.2690  221.1030 C   0  0  0  0  0  0  0  0  0  0  0  0
  140.3170   73.0240  221.8770 C   0  0  0  0  0  0  0  0  0  0  0  0
  139.9360   71.6270  222.1050 C   0  0  0  0  0  0  0  0  0  0  0  0
  139.6930   70.7430  221.0910 C   0  0  0  0  0  0  0  0  0  0  0  0
  139.3330   69.4250  221.2770 C   0  0  0  0  0  0  0  0  0  0  0  0
  139.2050   68.9550  222.5610 C   0  0  0  0  0  0  0  0  0  0  0  0
  139.4420   69.8170  223.6310 C   0  0  0  0  0  0  0  0  0  0  0  0
  139.2880   69.2520  224.9680 C   0  0  0  0  0  0  0  0  0  0  0  0
  138.8060   68.0920  225.0400 O   0  0  0  0  0  0  0  0  0  0  0  0
  139.6660   69.9750  226.1330 N   0  0  0  0  0  0  0  0  0  0  0  0
  140.2370   71.3220  226.2180 C   0  0  0  0  0  0  0  0  0  0  0  0
  141.0730   71.3300  227.4590 C   0  0  0  0  0  0  0  0  0  0  0  0
  140.7970   70.0470  228.1700 C   0  0  0  0  0  0  0  0  0  0  0  0
  139.5580   69.5180  227.4840 C   0  0  0  0  0  0  0  0  0  0  0  0
  139.8010   71.1310  223.4080 C   0  0  0  0  0  0  0  0  0  0  0  0
  139.5700   73.9630  222.3530 N   0  0  0  0  0  0  0  0  0  0  0  0
  139.8420   75.3490  222.1920 C   0  0  0  0  0  0  0  0  0  0  0  0
  139.0350   76.3400  222.7050 C   0  0  0  0  0  0  0  0  0  0  0  0
  139.3370   77.6950  222.5260 C   0  0  0  0  0  0  0  0  0  0  0  0
  140.4570   78.0880  221.8260 C   0  0  0  0  0  0  0  0  0  0  0  0
  140.7140   79.4740  221.6770 N   0  0  0  0  0  0  0  0  0  0  0  0
  141.3820   79.9070  220.4720 C   0  0  0  0  0  0  0  0  0  0  0  0
  141.1540   81.4110  220.3530 C   0  0  0  0  0  0  0  0  0  0  0  0
  141.7500   82.1630  221.5130 C   0  0  0  0  0  0  0  0  0  0  0  0
  141.4710   81.4880  222.8160 C   0  0  0  0  0  0  0  0  0  0  0  0
  140.3530   80.4790  222.6490 C   0  0  0  0  0  0  0  0  0  0  0  0
  141.2600   77.0930  221.3170 C   0  0  0  0  0  0  0  0  0  0  0  0
  140.9610   75.7540  221.4950 C   0  0  0  0  0  0  0  0  0  0  0  0
  141.4496   72.8158  220.1063 H   0  0  0  0  0  0  0  0  0  0  0  0
  142.3979   72.8207  221.6509 H   0  0  0  0  0  0  0  0  0  0  0  0
  139.7912   71.1074  220.0578 H   0  0  0  0  0  0  0  0  0  0  0  0
  139.1523   68.7647  220.4160 H   0  0  0  0  0  0  0  0  0  0  0  0
  138.9183   67.9088  222.7435 H   0  0  0  0  0  0  0  0  0  0  0  0
  140.8590   71.5313  225.3352 H   0  0  0  0  0  0  0  0  0  0  0  0
  139.4537   72.0936  226.2513 H   0  0  0  0  0  0  0  0  0  0  0  0
  142.1394   71.3967  227.1974 H   0  0  0  0  0  0  0  0  0  0  0  0
  140.8303   72.1947  228.0942 H   0  0  0  0  0  0  0  0  0  0  0  0
  141.6377   69.3467  228.0566 H   0  0  0  0  0  0  0  0  0  0  0  0
  140.6611   70.1801  229.2534 H   0  0  0  0  0  0  0  0  0  0  0  0
  139.5340   68.4189  227.5207 H   0  0  0  0  0  0  0  0  0  0  0  0
  138.6339   69.8670  227.9681 H   0  0  0  0  0  0  0  0  0  0  0  0
  139.9834   71.7970  224.2643 H   0  0  0  0  0  0  0  0  0  0  0  0
  138.1325   76.0604  223.2683 H   0  0  0  0  0  0  0  0  0  0  0  0
  138.6692   78.4588  222.9512 H   0  0  0  0  0  0  0  0  0  0  0  0
  142.4587   79.6920  220.5386 H   0  0  0  0  0  0  0  0  0  0  0  0
  140.9867   79.3786  219.5919 H   0  0  0  0  0  0  0  0  0  0  0  0
  141.6177   81.7683  219.4217 H   0  0  0  0  0  0  0  0  0  0  0  0
  140.0690   81.5921  220.3509 H   0  0  0  0  0  0  0  0  0  0  0  0
  142.8390   82.2288  221.3725 H   0  0  0  0  0  0  0  0  0  0  0  0
  141.2931   83.1632  221.5422 H   0  0  0  0  0  0  0  0  0  0  0  0
  142.3791   80.9716  223.1603 H   0  0  0  0  0  0  0  0  0  0  0  0
  141.1676   82.2434  223.5558 H   0  0  0  0  0  0  0  0  0  0  0  0
  140.1581   79.9925  223.6161 H   0  0  0  0  0  0  0  0  0  0  0  0
  139.4524   81.0037  222.2976 H   0  0  0  0  0  0  0  0  0  0  0  0
  142.1634   77.3696  220.7537 H   0  0  0  0  0  0  0  0  0  0  0  0
  1  2  2  0
  2  3  1  0
  3  4  1  0
  4  5  1  0
  5  6  2  0
  6  7  1  0
  7  8  2  0
  8  9  1  0
  9 10  1  0
 10 11  2  0
 10 12  1  0
 12 13  1  0
 13 14  1  0
 14 15  1  0
 15 16  1  0
  9 17  2  0
  4 18  2  0
 18 19  1  0
 19 20  2  0
 20 21  1  0
 21 22  2  0
 22 23  1  0
 23 24  1  0
 24 25  1  0
 25 26  1  0
 26 27  1  0
 27 28  1  0
 22 29  1  0
 29 30  2  0
 30  2  1  0
 17  5  1  0
 30 19  1  0
 16 12  1  0
 28 23  1  0
  3 31  1  0
  3 32  1  0
  6 33  1  0
  7 34  1  0
  8 35  1  0
 13 36  1  0
 13 37  1  0
 14 38  1  0
 14 39  1  0
 15 40  1  0
 15 41  1  0
 16 42  1  0
 16 43  1  0
 17 44  1  0
 20 45  1  0
 21 46  1  0
 24 47  1  0
 24 48  1  0
 25 49  1  0
 25 50  1  0
 26 51  1  0
 26 52  1  0
 27 53  1  0
 27 54  1  0
 28 55  1  0
 28 56  1  0
 29 57  1  0
M  END
>  <smiles>  (20) 
O=C1CC(c2cccc(C(=O)N3CCCC3)c2)=Nc2ccc(N3CCCCC3)cc21

>  <score_type>  (20) 
oracle

>  <origin>  (20) 
autodockgpu

>  <m_score__min__energy>  (20) 
-8.9900000000000002

>  <m_primary>  (20) 
energy

>  <rmsd>  (20) 
6.177765081851443

>  <m_score__min__rmsd>  (20) 
6.177765081851443

>  <meeko>  (20) 
{"free_energy": -8.79, "intermolecular_energy": -9.68, "internal_energy": -0.78, "cluster_size": 49, "cluster_id": 1, "rank_in_cluster": 38}

>  <energy>  (20) 
-8.9

>  <cluster_rmsd>  (20) 
0.33

>  <cluster>  (20) 
1

$$$$

     RDKit          3D

 57 61  0  0  0  0  0  0  0  0999 V2000
  142.9010   74.8650  220.4590 O   0  0  0  0  0  0  0  0  0  0  0  0
  141.8460   74.5260  221.0550 C   0  0  0  0  0  0  0  0  0  0  0  0
  141.5790   73.0840  221.2060 C   0  0  0  0  0  0  0  0  0  0  0  0
  140.3080   72.8360  221.9240 C   0  0  0  0  0  0  0  0  0  0  0  0
  139.9240   71.4380  222.1410 C   0  0  0  0  0  0  0  0  0  0  0  0
  139.5640   70.5950  221.1260 C   0  0  0  0  0  0  0  0  0  0  0  0
  139.1980   69.2780  221.3020 C   0  0  0  0  0  0  0  0  0  0  0  0
  139.1890   68.7630  222.5760 C   0  0  0  0  0  0  0  0  0  0  0  0
  139.5490   69.5830  223.6460 C   0  0  0  0  0  0  0  0  0  0  0  0
  139.5180   68.9720  224.9710 C   0  0  0  0  0  0  0  0  0  0  0  0
  139.2030   67.7560  225.0270 O   0  0  0  0  0  0  0  0  0  0  0  0
  139.8310   69.7150  226.1430 N   0  0  0  0  0  0  0  0  0  0  0  0
  140.2140   71.1250  226.2470 C   0  0  0  0  0  0  0  0  0  0  0  0
  141.0810   71.2210  227.4640 C   0  0  0  0  0  0  0  0  0  0  0  0
  141.0070   69.8970  228.1480 C   0  0  0  0  0  0  0  0  0  0  0  0
  139.8310   69.2170  227.4850 C   0  0  0  0  0  0  0  0  0  0  0  0
  139.9100   70.8980  223.4330 C   0  0  0  0  0  0  0  0  0  0  0  0
  139.5350   73.7730  222.3610 N   0  0  0  0  0  0  0  0  0  0  0  0
  139.8080   75.1600  222.2060 C   0  0  0  0  0  0  0  0  0  0  0  0
  138.9730   76.1480  222.6770 C   0  0  0  0  0  0  0  0  0  0  0  0
  139.2750   77.5050  222.5050 C   0  0  0  0  0  0  0  0  0  0  0  0
  140.4250   77.9000  221.8550 C   0  0  0  0  0  0  0  0  0  0  0  0
  140.6810   79.2870  221.7110 N   0  0  0  0  0  0  0  0  0  0  0  0
  141.2910   79.7320  220.4810 C   0  0  0  0  0  0  0  0  0  0  0  0
  141.0650   81.2390  220.3920 C   0  0  0  0  0  0  0  0  0  0  0  0
  141.7210   81.9740  221.5310 C   0  0  0  0  0  0  0  0  0  0  0  0
  141.5040   81.2830  222.8370 C   0  0  0  0  0  0  0  0  0  0  0  0
  140.3740   80.2810  222.7130 C   0  0  0  0  0  0  0  0  0  0  0  0
  141.2550   76.9070  221.3880 C   0  0  0  0  0  0  0  0  0  0  0  0
  140.9550   75.5670  221.5580 C   0  0  0  0  0  0  0  0  0  0  0  0
  141.5201   72.6257  220.2078 H   0  0  0  0  0  0  0  0  0  0  0  0
  142.3974   72.6428  221.7939 H   0  0  0  0  0  0  0  0  0  0  0  0
  139.5667   70.9947  220.1012 H   0  0  0  0  0  0  0  0  0  0  0  0
  138.9191   68.6525  220.4412 H   0  0  0  0  0  0  0  0  0  0  0  0
  138.9011   67.7158  222.7504 H   0  0  0  0  0  0  0  0  0  0  0  0
  140.7727   71.4376  225.3525 H   0  0  0  0  0  0  0  0  0  0  0  0
  139.3337   71.7801  226.3231 H   0  0  0  0  0  0  0  0  0  0  0  0
  142.1191   71.4404  227.1737 H   0  0  0  0  0  0  0  0  0  0  0  0
  140.7423   72.0294  228.1286 H   0  0  0  0  0  0  0  0  0  0  0  0
  141.9318   69.3223  227.9915 H   0  0  0  0  0  0  0  0  0  0  0  0
  140.8892   69.9861  229.2380 H   0  0  0  0  0  0  0  0  0  0  0  0
  139.9597   68.1246  227.4931 H   0  0  0  0  0  0  0  0  0  0  0  0
  138.8840   69.4237  228.0051 H   0  0  0  0  0  0  0  0  0  0  0  0
  140.1902   71.5298  224.2888 H   0  0  0  0  0  0  0  0  0  0  0  0
  138.0476   75.8654  223.2003 H   0  0  0  0  0  0  0  0  0  0  0  0
  138.5841   78.2672  222.8945 H   0  0  0  0  0  0  0  0  0  0  0  0
  142.3686   79.5114  220.4921 H   0  0  0  0  0  0  0  0  0  0  0  0
  140.8504   79.2166  219.6148 H   0  0  0  0  0  0  0  0  0  0  0  0
  141.4844   81.6060  219.4436 H   0  0  0  0  0  0  0  0  0  0  0  0
  139.9821   81.4248  220.4453 H   0  0  0  0  0  0  0  0  0  0  0  0
  142.8020   82.0379  221.3376 H   0  0  0  0  0  0  0  0  0  0  0  0
  141.2703   82.9753  221.5957 H   0  0  0  0  0  0  0  0  0  0  0  0
  142.4256   80.7581  223.1287 H   0  0  0  0  0  0  0  0  0  0  0  0
  141.2416   82.0298  223.6009 H   0  0  0  0  0  0  0  0  0  0  0  0
  140.2252   79.7827  223.6823 H   0  0  0  0  0  0  0  0  0  0  0  0
  139.4596   80.8142  222.4138 H   0  0  0  0  0  0  0  0  0  0  0  0
  142.1819   77.1859  220.8655 H   0  0  0  0  0  0  0  0  0  0  0  0
  1  2  2  0
  2  3  1  0
  3  4  1  0
  4  5  1  0
  5  6  2  0
  6  7  1  0
  7  8  2  0
  8  9  1  0
  9 10  1  0
 10 11  2  0
 10 12  1  0
 12 13  1  0
 13 14  1  0
 14 15  1  0
 15 16  1  0
  9 17  2  0
  4 18  2  0
 18 19  1  0
 19 20  2  0
 20 21  1  0
 21 22  2  0
 22 23  1  0
 23 24  1  0
 24 25  1  0
 25 26  1  0
 26 27  1  0
 27 28  1  0
 22 29  1  0
 29 30  2  0
 30  2  1  0
 17  5  1  0
 30 19  1  0
 16 12  1  0
 28 23  1  0
  3 31  1  0
  3 32  1  0
  6 33  1  0
  7 34  1  0
  8 35  1  0
 13 36  1  0
 13 37  1  0
 14 38  1  0
 14 39  1  0
 15 40  1  0
 15 41  1  0
 16 42  1  0
 16 43  1  0
 17 44  1  0
 20 45  1  0
 21 46  1  0
 24 47  1  0
 24 48  1  0
 25 49  1  0
 25 50  1  0
 26 51  1  0
 26 52  1  0
 27 53  1  0
 27 54  1  0
 28 55  1  0
 28 56  1  0
 29 57  1  0
M  END
>  <smiles>  (21) 
O=C1CC(c2cccc(C(=O)N3CCCC3)c2)=Nc2ccc(N3CCCCC3)cc21

>  <score_type>  (21) 
oracle

>  <origin>  (21) 
autodockgpu

>  <m_score__min__energy>  (21) 
-8.9900000000000002

>  <m_primary>  (21) 
energy

>  <rmsd>  (21) 
6.180891360842224

>  <m_score__min__rmsd>  (21) 
6.180891360842224

>  <meeko>  (21) 
{"free_energy": -8.9, "intermolecular_energy": -9.79, "internal_energy": -0.76, "cluster_size": 49, "cluster_id": 1, "rank_in_cluster": 21}

>  <energy>  (21) 
-8.9

>  <cluster_rmsd>  (21) 
0.32

>  <cluster>  (21) 
1

$$$$

     RDKit          3D

 57 61  0  0  0  0  0  0  0  0999 V2000
  142.8470   75.1440  220.3430 O   0  0  0  0  0  0  0  0  0  0  0  0
  141.8230   74.7670  220.9700 C   0  0  0  0  0  0  0  0  0  0  0  0
  141.6050   73.3160  221.1160 C   0  0  0  0  0  0  0  0  0  0  0  0
  140.3670   73.0230  221.8730 C   0  0  0  0  0  0  0  0  0  0  0  0
  140.0330   71.6120  222.0890 C   0  0  0  0  0  0  0  0  0  0  0  0
  139.8660   70.7190  221.0680 C   0  0  0  0  0  0  0  0  0  0  0  0
  139.5510   69.3880  221.2420 C   0  0  0  0  0  0  0  0  0  0  0  0
  139.3910   68.9130  222.5210 C   0  0  0  0  0  0  0  0  0  0  0  0
  139.5510   69.7850  223.5980 C   0  0  0  0  0  0  0  0  0  0  0  0
  139.3670   69.2150  224.9290 C   0  0  0  0  0  0  0  0  0  0  0  0
  138.8570   68.0670  224.9870 O   0  0  0  0  0  0  0  0  0  0  0  0
  139.7470   69.9210  226.1030 N   0  0  0  0  0  0  0  0  0  0  0  0
  140.3500   71.2530  226.2050 C   0  0  0  0  0  0  0  0  0  0  0  0
  141.1700   71.2330  227.4570 C   0  0  0  0  0  0  0  0  0  0  0  0
  140.8540   69.9520  228.1550 C   0  0  0  0  0  0  0  0  0  0  0  0
  139.6120   69.4570  227.4500 C   0  0  0  0  0  0  0  0  0  0  0  0
  139.8660   71.1120  223.3860 C   0  0  0  0  0  0  0  0  0  0  0  0
  139.5820   73.9330  222.3450 N   0  0  0  0  0  0  0  0  0  0  0  0
  139.8060   75.3280  222.1960 C   0  0  0  0  0  0  0  0  0  0  0  0
  138.9590   76.2860  222.7040 C   0  0  0  0  0  0  0  0  0  0  0  0
  139.2140   77.6530  222.5370 C   0  0  0  0  0  0  0  0  0  0  0  0
  140.3280   78.0890  221.8530 C   0  0  0  0  0  0  0  0  0  0  0  0
  140.5370   79.4840  221.7140 N   0  0  0  0  0  0  0  0  0  0  0  0
  141.0660   79.9620  220.4590 C   0  0  0  0  0  0  0  0  0  0  0  0
  140.7940   81.4630  220.4030 C   0  0  0  0  0  0  0  0  0  0  0  0
  141.4900   82.2020  221.5150 C   0  0  0  0  0  0  0  0  0  0  0  0
  141.3640   81.4890  222.8210 C   0  0  0  0  0  0  0  0  0  0  0  0
  140.2570   80.4570  222.7450 C   0  0  0  0  0  0  0  0  0  0  0  0
  141.1710   77.1270  221.3470 C   0  0  0  0  0  0  0  0  0  0  0  0
  140.9180   75.7760  221.5140 C   0  0  0  0  0  0  0  0  0  0  0  0
  141.5269   72.8646  220.1159 H   0  0  0  0  0  0  0  0  0  0  0  0
  142.4555   72.8952  221.6724 H   0  0  0  0  0  0  0  0  0  0  0  0
  139.9912   71.0866  220.0388 H   0  0  0  0  0  0  0  0  0  0  0  0
  139.4304   68.7211  220.3756 H   0  0  0  0  0  0  0  0  0  0  0  0
  139.1394   67.8562  222.6940 H   0  0  0  0  0  0  0  0  0  0  0  0
  140.9885   71.4526  225.3318 H   0  0  0  0  0  0  0  0  0  0  0  0
  139.5853   72.0432  226.2338 H   0  0  0  0  0  0  0  0  0  0  0  0
  142.2410   71.2760  227.2097 H   0  0  0  0  0  0  0  0  0  0  0  0
  140.9399   72.0990  228.0951 H   0  0  0  0  0  0  0  0  0  0  0  0
  141.6792   69.2327  228.0473 H   0  0  0  0  0  0  0  0  0  0  0  0
  140.7070   70.0813  229.2374 H   0  0  0  0  0  0  0  0  0  0  0  0
  139.5621   68.3585  227.4783 H   0  0  0  0  0  0  0  0  0  0  0  0
  138.6905   69.8242  227.9253 H   0  0  0  0  0  0  0  0  0  0  0  0
  139.9874   71.7854  224.2472 H   0  0  0  0  0  0  0  0  0  0  0  0
  138.0603   75.9708  223.2543 H   0  0  0  0  0  0  0  0  0  0  0  0
  138.5143   78.3899  222.9583 H   0  0  0  0  0  0  0  0  0  0  0  0
  142.1483   79.7720  220.4083 H   0  0  0  0  0  0  0  0  0  0  0  0
  140.5926   79.4453  219.6111 H   0  0  0  0  0  0  0  0  0  0  0  0
  141.1512   81.8533  219.4386 H   0  0  0  0  0  0  0  0  0  0  0  0
  139.7109   81.6175  220.5169 H   0  0  0  0  0  0  0  0  0  0  0  0
  142.5566   82.2994  221.2643 H   0  0  0  0  0  0  0  0  0  0  0  0
  141.0154   83.1890  221.6180 H   0  0  0  0  0  0  0  0  0  0  0  0
  142.3144   80.9868  223.0548 H   0  0  0  0  0  0  0  0  0  0  0  0
  141.1232   82.2186  223.6082 H   0  0  0  0  0  0  0  0  0  0  0  0
  140.1750   79.9431  223.7141 H   0  0  0  0  0  0  0  0  0  0  0  0
  139.3131   80.9674  222.5032 H   0  0  0  0  0  0  0  0  0  0  0  0
  142.0699   77.4393  220.7951 H   0  0  0  0  0  0  0  0  0  0  0  0
  1  2  2  0
  2  3  1  0
  3  4  1  0
  4  5  1  0
  5  6  2  0
  6  7  1  0
  7  8  2  0
  8  9  1  0
  9 10  1  0
 10 11  2  0
 10 12  1  0
 12 13  1  0
 13 14  1  0
 14 15  1  0
 15 16  1  0
  9 17  2  0
  4 18  2  0
 18 19  1  0
 19 20  2  0
 20 21  1  0
 21 22  2  0
 22 23  1  0
 23 24  1  0
 24 25  1  0
 25 26  1  0
 26 27  1  0
 27 28  1  0
 22 29  1  0
 29 30  2  0
 30  2  1  0
 17  5  1  0
 30 19  1  0
 16 12  1  0
 28 23  1  0
  3 31  1  0
  3 32  1  0
  6 33  1  0
  7 34  1  0
  8 35  1  0
 13 36  1  0
 13 37  1  0
 14 38  1  0
 14 39  1  0
 15 40  1  0
 15 41  1  0
 16 42  1  0
 16 43  1  0
 17 44  1  0
 20 45  1  0
 21 46  1  0
 24 47  1  0
 24 48  1  0
 25 49  1  0
 25 50  1  0
 26 51  1  0
 26 52  1  0
 27 53  1  0
 27 54  1  0
 28 55  1  0
 28 56  1  0
 29 57  1  0
M  END
>  <smiles>  (22) 
O=C1CC(c2cccc(C(=O)N3CCCC3)c2)=Nc2ccc(N3CCCCC3)cc21

>  <score_type>  (22) 
oracle

>  <origin>  (22) 
autodockgpu

>  <m_score__min__energy>  (22) 
-8.9900000000000002

>  <m_primary>  (22) 
energy

>  <rmsd>  (22) 
6.175862664644138

>  <m_score__min__rmsd>  (22) 
6.175862664644138

>  <meeko>  (22) 
{"free_energy": -8.72, "intermolecular_energy": -9.62, "internal_energy": -0.79, "cluster_size": 49, "cluster_id": 1, "rank_in_cluster": 43}

>  <energy>  (22) 
-8.89

>  <cluster_rmsd>  (22) 
0.32

>  <cluster>  (22) 
1

$$$$

     RDKit          3D

 57 61  0  0  0  0  0  0  0  0999 V2000
  142.9070   74.8190  220.4760 O   0  0  0  0  0  0  0  0  0  0  0  0
  141.8400   74.5000  221.0620 C   0  0  0  0  0  0  0  0  0  0  0  0
  141.5470   73.0630  221.2140 C   0  0  0  0  0  0  0  0  0  0  0  0
  140.2640   72.8380  221.9190 C   0  0  0  0  0  0  0  0  0  0  0  0
  139.8540   71.4480  222.1360 C   0  0  0  0  0  0  0  0  0  0  0  0
  139.4290   70.6280  221.1280 C   0  0  0  0  0  0  0  0  0  0  0  0
  139.0370   69.3180  221.3040 C   0  0  0  0  0  0  0  0  0  0  0  0
  139.0710   68.7870  222.5700 C   0  0  0  0  0  0  0  0  0  0  0  0
  139.4980   69.5830  223.6330 C   0  0  0  0  0  0  0  0  0  0  0  0
  139.5100   68.9550  224.9510 C   0  0  0  0  0  0  0  0  0  0  0  0
  139.2270   67.7310  224.9970 O   0  0  0  0  0  0  0  0  0  0  0  0
  139.8270   69.6920  226.1260 N   0  0  0  0  0  0  0  0  0  0  0  0
  140.1760   71.1100  226.2400 C   0  0  0  0  0  0  0  0  0  0  0  0
  141.0640   71.2140  227.4400 C   0  0  0  0  0  0  0  0  0  0  0  0
  141.0380   69.8810  228.1090 C   0  0  0  0  0  0  0  0  0  0  0  0
  139.8670   69.1780  227.4610 C   0  0  0  0  0  0  0  0  0  0  0  0
  139.8830   70.8910  223.4200 C   0  0  0  0  0  0  0  0  0  0  0  0
  139.5030   73.7900  222.3450 N   0  0  0  0  0  0  0  0  0  0  0  0
  139.8000   75.1720  222.1890 C   0  0  0  0  0  0  0  0  0  0  0  0
  138.9770   76.1750  222.6480 C   0  0  0  0  0  0  0  0  0  0  0  0
  139.3040   77.5260  222.4760 C   0  0  0  0  0  0  0  0  0  0  0  0
  140.4670   77.9000  221.8380 C   0  0  0  0  0  0  0  0  0  0  0  0
  140.7480   79.2810  221.6920 N   0  0  0  0  0  0  0  0  0  0  0  0
  141.5080   79.6940  220.5360 C   0  0  0  0  0  0  0  0  0  0  0  0
  141.3050   81.1990  220.3840 C   0  0  0  0  0  0  0  0  0  0  0  0
  141.8200   81.9590  221.5770 C   0  0  0  0  0  0  0  0  0  0  0  0
  141.4380   81.3020  222.8620 C   0  0  0  0  0  0  0  0  0  0  0  0
  140.3260   80.3020  222.6230 C   0  0  0  0  0  0  0  0  0  0  0  0
  141.2850   76.8920  221.3820 C   0  0  0  0  0  0  0  0  0  0  0  0
  140.9610   75.5580  221.5520 C   0  0  0  0  0  0  0  0  0  0  0  0
  141.4912   72.6029  220.2164 H   0  0  0  0  0  0  0  0  0  0  0  0
  142.3514   72.6100  221.8121 H   0  0  0  0  0  0  0  0  0  0  0  0
  139.3977   71.0408  220.1089 H   0  0  0  0  0  0  0  0  0  0  0  0
  138.7042   68.7113  220.4489 H   0  0  0  0  0  0  0  0  0  0  0  0
  138.7647   67.7449  222.7440 H   0  0  0  0  0  0  0  0  0  0  0  0
  140.7085   71.4475  225.3386 H   0  0  0  0  0  0  0  0  0  0  0  0
  139.2809   71.7412  226.3418 H   0  0  0  0  0  0  0  0  0  0  0  0
  142.0900   71.4636  227.1319 H   0  0  0  0  0  0  0  0  0  0  0  0
  140.7179   72.0054  228.1211 H   0  0  0  0  0  0  0  0  0  0  0  0
  141.9741   69.3326  227.9275 H   0  0  0  0  0  0  0  0  0  0  0  0
  140.9396   69.9543  229.2021 H   0  0  0  0  0  0  0  0  0  0  0  0
  140.0245   68.0894  227.4528 H   0  0  0  0  0  0  0  0  0  0  0  0
  138.9256   69.3531  228.0023 H   0  0  0  0  0  0  0  0  0  0  0  0
  140.2170   71.5039  224.2702 H   0  0  0  0  0  0  0  0  0  0  0  0
  138.0412   75.9096  223.1616 H   0  0  0  0  0  0  0  0  0  0  0  0
  138.6219   78.3007  222.8561 H   0  0  0  0  0  0  0  0  0  0  0  0
  142.5745   79.4697  220.6850 H   0  0  0  0  0  0  0  0  0  0  0  0
  141.1738   79.1594  219.6346 H   0  0  0  0  0  0  0  0  0  0  0  0
  141.8407   81.5411  219.4863 H   0  0  0  0  0  0  0  0  0  0  0  0
  140.2251   81.3901  220.2988 H   0  0  0  0  0  0  0  0  0  0  0  0
  142.9171   82.0134  221.5176 H   0  0  0  0  0  0  0  0  0  0  0  0
  141.3721   82.9635  221.5610 H   0  0  0  0  0  0  0  0  0  0  0  0
  142.3127   80.7812  223.2788 H   0  0  0  0  0  0  0  0  0  0  0  0
  141.0879   82.0686  223.5689 H   0  0  0  0  0  0  0  0  0  0  0  0
  140.0541   79.8293  223.5783 H   0  0  0  0  0  0  0  0  0  0  0  0
  139.4601   80.8312  222.1986 H   0  0  0  0  0  0  0  0  0  0  0  0
  142.2218   77.1540  220.8685 H   0  0  0  0  0  0  0  0  0  0  0  0
  1  2  2  0
  2  3  1  0
  3  4  1  0
  4  5  1  0
  5  6  2  0
  6  7  1  0
  7  8  2  0
  8  9  1  0
  9 10  1  0
 10 11  2  0
 10 12  1  0
 12 13  1  0
 13 14  1  0
 14 15  1  0
 15 16  1  0
  9 17  2  0
  4 18  2  0
 18 19  1  0
 19 20  2  0
 20 21  1  0
 21 22  2  0
 22 23  1  0
 23 24  1  0
 24 25  1  0
 25 26  1  0
 26 27  1  0
 27 28  1  0
 22 29  1  0
 29 30  2  0
 30  2  1  0
 17  5  1  0
 30 19  1  0
 16 12  1  0
 28 23  1  0
  3 31  1  0
  3 32  1  0
  6 33  1  0
  7 34  1  0
  8 35  1  0
 13 36  1  0
 13 37  1  0
 14 38  1  0
 14 39  1  0
 15 40  1  0
 15 41  1  0
 16 42  1  0
 16 43  1  0
 17 44  1  0
 20 45  1  0
 21 46  1  0
 24 47  1  0
 24 48  1  0
 25 49  1  0
 25 50  1  0
 26 51  1  0
 26 52  1  0
 27 53  1  0
 27 54  1  0
 28 55  1  0
 28 56  1  0
 29 57  1  0
M  END
>  <smiles>  (23) 
O=C1CC(c2cccc(C(=O)N3CCCC3)c2)=Nc2ccc(N3CCCCC3)cc21

>  <score_type>  (23) 
oracle

>  <origin>  (23) 
autodockgpu

>  <m_score__min__energy>  (23) 
-8.9900000000000002

>  <m_primary>  (23) 
energy

>  <rmsd>  (23) 
6.181803411521486

>  <m_score__min__rmsd>  (23) 
6.181803411521486

>  <meeko>  (23) 
{"free_energy": -8.89, "intermolecular_energy": -9.79, "internal_energy": -0.76, "cluster_size": 49, "cluster_id": 1, "rank_in_cluster": 22}

>  <energy>  (23) 
-8.89

>  <cluster_rmsd>  (23) 
0.31

>  <cluster>  (23) 
1

$$$$

     RDKit          3D

 57 61  0  0  0  0  0  0  0  0999 V2000
  142.8930   74.8400  220.4390 O   0  0  0  0  0  0  0  0  0  0  0  0
  141.8380   74.5050  221.0380 C   0  0  0  0  0  0  0  0  0  0  0  0
  141.5660   73.0640  221.1910 C   0  0  0  0  0  0  0  0  0  0  0  0
  140.2950   72.8210  221.9120 C   0  0  0  0  0  0  0  0  0  0  0  0
  139.9070   71.4250  222.1320 C   0  0  0  0  0  0  0  0  0  0  0  0
  139.5380   70.5830  221.1190 C   0  0  0  0  0  0  0  0  0  0  0  0
  139.1680   69.2670  221.2970 C   0  0  0  0  0  0  0  0  0  0  0  0
  139.1650   68.7530  222.5710 C   0  0  0  0  0  0  0  0  0  0  0  0
  139.5340   69.5710  223.6390 C   0  0  0  0  0  0  0  0  0  0  0  0
  139.5080   68.9600  224.9640 C   0  0  0  0  0  0  0  0  0  0  0  0
  139.1980   67.7430  225.0210 O   0  0  0  0  0  0  0  0  0  0  0  0
  139.8210   69.7050  226.1350 N   0  0  0  0  0  0  0  0  0  0  0  0
  140.1990   71.1160  226.2380 C   0  0  0  0  0  0  0  0  0  0  0  0
  141.0690   71.2160  227.4520 C   0  0  0  0  0  0  0  0  0  0  0  0
  141.0010   69.8920  228.1370 C   0  0  0  0  0  0  0  0  0  0  0  0
  139.8260   69.2070  227.4770 C   0  0  0  0  0  0  0  0  0  0  0  0
  139.8990   70.8850  223.4230 C   0  0  0  0  0  0  0  0  0  0  0  0
  139.5270   73.7620  222.3490 N   0  0  0  0  0  0  0  0  0  0  0  0
  139.8030   75.1470  222.1920 C   0  0  0  0  0  0  0  0  0  0  0  0
  138.9730   76.1390  222.6640 C   0  0  0  0  0  0  0  0  0  0  0  0
  139.2790   77.4940  222.4900 C   0  0  0  0  0  0  0  0  0  0  0  0
  140.4280   77.8850  221.8380 C   0  0  0  0  0  0  0  0  0  0  0  0
  140.6890   79.2700  221.6910 N   0  0  0  0  0  0  0  0  0  0  0  0
  141.4220   79.6960  220.5230 C   0  0  0  0  0  0  0  0  0  0  0  0
  141.1970   81.1980  220.3780 C   0  0  0  0  0  0  0  0  0  0  0  0
  141.7230   81.9630  221.5640 C   0  0  0  0  0  0  0  0  0  0  0  0
  141.3740   81.2970  222.8540 C   0  0  0  0  0  0  0  0  0  0  0  0
  140.2700   80.2830  222.6330 C   0  0  0  0  0  0  0  0  0  0  0  0
  141.2540   76.8890  221.3690 C   0  0  0  0  0  0  0  0  0  0  0  0
  140.9500   75.5500  221.5420 C   0  0  0  0  0  0  0  0  0  0  0  0
  141.5035   72.6049  220.1933 H   0  0  0  0  0  0  0  0  0  0  0  0
  142.3839   72.6206  221.7779 H   0  0  0  0  0  0  0  0  0  0  0  0
  139.5364   70.9826  220.0942 H   0  0  0  0  0  0  0  0  0  0  0  0
  138.8816   68.6424  220.4380 H   0  0  0  0  0  0  0  0  0  0  0  0
  138.8745   67.7068  222.7472 H   0  0  0  0  0  0  0  0  0  0  0  0
  140.7539   71.4306  225.3418 H   0  0  0  0  0  0  0  0  0  0  0  0
  139.3162   71.7675  226.3170 H   0  0  0  0  0  0  0  0  0  0  0  0
  142.1055   71.4385  227.1586 H   0  0  0  0  0  0  0  0  0  0  0  0
  140.7299   72.0240  228.1170 H   0  0  0  0  0  0  0  0  0  0  0  0
  141.9276   69.3206  227.9790 H   0  0  0  0  0  0  0  0  0  0  0  0
  140.8849   69.9815  229.2272 H   0  0  0  0  0  0  0  0  0  0  0  0
  139.9592   68.1151  227.4849 H   0  0  0  0  0  0  0  0  0  0  0  0
  138.8794   69.4097  227.9993 H   0  0  0  0  0  0  0  0  0  0  0  0
  140.1873   71.5156  224.2769 H   0  0  0  0  0  0  0  0  0  0  0  0
  138.0480   75.8604  223.1900 H   0  0  0  0  0  0  0  0  0  0  0  0
  138.5911   78.2586  222.8801 H   0  0  0  0  0  0  0  0  0  0  0  0
  142.4939   79.4854  220.6521 H   0  0  0  0  0  0  0  0  0  0  0  0
  141.0780   79.1593  219.6265 H   0  0  0  0  0  0  0  0  0  0  0  0
  141.7125   81.5487  219.4718 H   0  0  0  0  0  0  0  0  0  0  0  0
  140.1133   81.3750  220.3122 H   0  0  0  0  0  0  0  0  0  0  0  0
  142.8179   82.0336  221.4848 H   0  0  0  0  0  0  0  0  0  0  0  0
  141.2605   82.9610  221.5589 H   0  0  0  0  0  0  0  0  0  0  0  0
  142.2631   80.7862  223.2522 H   0  0  0  0  0  0  0  0  0  0  0  0
  141.0276   82.0569  223.5700 H   0  0  0  0  0  0  0  0  0  0  0  0
  140.0220   79.8043  223.5918 H   0  0  0  0  0  0  0  0  0  0  0  0
  139.3891   80.8016  222.2267 H   0  0  0  0  0  0  0  0  0  0  0  0
  142.1800   77.1644  220.8429 H   0  0  0  0  0  0  0  0  0  0  0  0
  1  2  2  0
  2  3  1  0
  3  4  1  0
  4  5  1  0
  5  6  2  0
  6  7  1  0
  7  8  2  0
  8  9  1  0
  9 10  1  0
 10 11  2  0
 10 12  1  0
 12 13  1  0
 13 14  1  0
 14 15  1  0
 15 16  1  0
  9 17  2  0
  4 18  2  0
 18 19  1  0
 19 20  2  0
 20 21  1  0
 21 22  2  0
 22 23  1  0
 23 24  1  0
 24 25  1  0
 25 26  1  0
 26 27  1  0
 27 28  1  0
 22 29  1  0
 29 30  2  0
 30  2  1  0
 17  5  1  0
 30 19  1  0
 16 12  1  0
 28 23  1  0
  3 31  1  0
  3 32  1  0
  6 33  1  0
  7 34  1  0
  8 35  1  0
 13 36  1  0
 13 37  1  0
 14 38  1  0
 14 39  1  0
 15 40  1  0
 15 41  1  0
 16 42  1  0
 16 43  1  0
 17 44  1  0
 20 45  1  0
 21 46  1  0
 24 47  1  0
 24 48  1  0
 25 49  1  0
 25 50  1  0
 26 51  1  0
 26 52  1  0
 27 53  1  0
 27 54  1  0
 28 55  1  0
 28 56  1  0
 29 57  1  0
M  END
>  <smiles>  (24) 
O=C1CC(c2cccc(C(=O)N3CCCC3)c2)=Nc2ccc(N3CCCCC3)cc21

>  <score_type>  (24) 
oracle

>  <origin>  (24) 
autodockgpu

>  <m_score__min__energy>  (24) 
-8.9900000000000002

>  <m_primary>  (24) 
energy

>  <rmsd>  (24) 
6.177310772747846

>  <m_score__min__rmsd>  (24) 
6.177310772747846

>  <meeko>  (24) 
{"free_energy": -8.9, "intermolecular_energy": -9.8, "internal_energy": -0.76, "cluster_size": 49, "cluster_id": 1, "rank_in_cluster": 18}

>  <energy>  (24) 
-8.89

>  <cluster_rmsd>  (24) 
0.14

>  <cluster>  (24) 
1

$$$$

     RDKit          3D

 57 61  0  0  0  0  0  0  0  0999 V2000
  142.9360   74.9810  220.1610 O   0  0  0  0  0  0  0  0  0  0  0  0
  141.9200   74.6800  220.8410 C   0  0  0  0  0  0  0  0  0  0  0  0
  141.6110   73.2490  221.0110 C   0  0  0  0  0  0  0  0  0  0  0  0
  140.3930   73.0470  221.8290 C   0  0  0  0  0  0  0  0  0  0  0  0
  139.9730   71.6640  222.0750 C   0  0  0  0  0  0  0  0  0  0  0  0
  139.6820   70.7810  221.0720 C   0  0  0  0  0  0  0  0  0  0  0  0
  139.2860   69.4770  221.2750 C   0  0  0  0  0  0  0  0  0  0  0  0
  139.1700   69.0190  222.5650 C   0  0  0  0  0  0  0  0  0  0  0  0
  139.4560   69.8800  223.6240 C   0  0  0  0  0  0  0  0  0  0  0  0
  139.3140   69.3280  224.9670 C   0  0  0  0  0  0  0  0  0  0  0  0
  138.8360   68.1680  225.0550 O   0  0  0  0  0  0  0  0  0  0  0  0
  139.6980   70.0650  226.1220 N   0  0  0  0  0  0  0  0  0  0  0  0
  140.2660   71.4130  226.1890 C   0  0  0  0  0  0  0  0  0  0  0  0
  141.1110   71.4370  227.4240 C   0  0  0  0  0  0  0  0  0  0  0  0
  140.8430   70.1610  228.1500 C   0  0  0  0  0  0  0  0  0  0  0  0
  139.6010   69.6210  227.4790 C   0  0  0  0  0  0  0  0  0  0  0  0
  139.8510   71.1810  223.3840 C   0  0  0  0  0  0  0  0  0  0  0  0
  139.6950   74.0120  222.3290 N   0  0  0  0  0  0  0  0  0  0  0  0
  140.0080   75.3880  222.1540 C   0  0  0  0  0  0  0  0  0  0  0  0
  139.2530   76.4050  222.6930 C   0  0  0  0  0  0  0  0  0  0  0  0
  139.5930   77.7500  222.4990 C   0  0  0  0  0  0  0  0  0  0  0  0
  140.7000   78.1030  221.7590 C   0  0  0  0  0  0  0  0  0  0  0  0
  140.9980   79.4790  221.5960 N   0  0  0  0  0  0  0  0  0  0  0  0
  140.7080   80.3640  222.6990 C   0  0  0  0  0  0  0  0  0  0  0  0
  141.4900   81.6510  222.4550 C   0  0  0  0  0  0  0  0  0  0  0  0
  141.0650   82.3360  221.1830 C   0  0  0  0  0  0  0  0  0  0  0  0
  140.8950   81.3660  220.0600 C   0  0  0  0  0  0  0  0  0  0  0  0
  141.5710   80.0540  220.4000 C   0  0  0  0  0  0  0  0  0  0  0  0
  141.4510   77.0810  221.2240 C   0  0  0  0  0  0  0  0  0  0  0  0
  141.1140   75.7530  221.4160 C   0  0  0  0  0  0  0  0  0  0  0  0
  141.4543   72.7976  220.0202 H   0  0  0  0  0  0  0  0  0  0  0  0
  142.4565   72.7741  221.5302 H   0  0  0  0  0  0  0  0  0  0  0  0
  139.7699   71.1353  220.0344 H   0  0  0  0  0  0  0  0  0  0  0  0
  139.0674   68.8170  220.4226 H   0  0  0  0  0  0  0  0  0  0  0  0
  138.8547   67.9835  222.7606 H   0  0  0  0  0  0  0  0  0  0  0  0
  140.8813   71.6143  225.2997 H   0  0  0  0  0  0  0  0  0  0  0  0
  139.4808   72.1827  226.2200 H   0  0  0  0  0  0  0  0  0  0  0  0
  142.1753   71.5037  227.1542 H   0  0  0  0  0  0  0  0  0  0  0  0
  140.8709   72.3079  228.0515 H   0  0  0  0  0  0  0  0  0  0  0  0
  141.6848   69.4618  228.0381 H   0  0  0  0  0  0  0  0  0  0  0  0
  140.7139   70.3057  229.2328 H   0  0  0  0  0  0  0  0  0  0  0  0
  139.5809   68.5222  227.5270 H   0  0  0  0  0  0  0  0  0  0  0  0
  138.6793   69.9715  227.9664 H   0  0  0  0  0  0  0  0  0  0  0  0
  140.0726   71.8465  224.2314 H   0  0  0  0  0  0  0  0  0  0  0  0
  138.3629   76.1560  223.2893 H   0  0  0  0  0  0  0  0  0  0  0  0
  138.9662   78.5366  222.9445 H   0  0  0  0  0  0  0  0  0  0  0  0
  139.6298   80.5786  222.7379 H   0  0  0  0  0  0  0  0  0  0  0  0
  140.9954   79.9053  223.6566 H   0  0  0  0  0  0  0  0  0  0  0  0
  141.3215   82.3347  223.3001 H   0  0  0  0  0  0  0  0  0  0  0  0
  142.5544   81.3896  222.3612 H   0  0  0  0  0  0  0  0  0  0  0  0
  140.1080   82.8494  221.3578 H   0  0  0  0  0  0  0  0  0  0  0  0
  141.8518   83.0510  220.9007 H   0  0  0  0  0  0  0  0  0  0  0  0
  139.8225   81.1897  219.8905 H   0  0  0  0  0  0  0  0  0  0  0  0
  141.3535   81.7828  219.1511 H   0  0  0  0  0  0  0  0  0  0  0  0
  141.4392   79.3524  219.5631 H   0  0  0  0  0  0  0  0  0  0  0  0
  142.6405   80.2422  220.5754 H   0  0  0  0  0  0  0  0  0  0  0  0
  142.3425   77.3266  220.6282 H   0  0  0  0  0  0  0  0  0  0  0  0
  1  2  2  0
  2  3  1  0
  3  4  1  0
  4  5  1  0
  5  6  2  0
  6  7  1  0
  7  8  2  0
  8  9  1  0
  9 10  1  0
 10 11  2  0
 10 12  1  0
 12 13  1  0
 13 14  1  0
 14 15  1  0
 15 16  1  0
  9 17  2  0
  4 18  2  0
 18 19  1  0
 19 20  2  0
 20 21  1  0
 21 22  2  0
 22 23  1  0
 23 24  1  0
 24 25  1  0
 25 26  1  0
 26 27  1  0
 27 28  1  0
 22 29  1  0
 29 30  2  0
 30  2  1  0
 17  5  1  0
 30 19  1  0
 16 12  1  0
 28 23  1  0
  3 31  1  0
  3 32  1  0
  6 33  1  0
  7 34  1  0
  8 35  1  0
 13 36  1  0
 13 37  1  0
 14 38  1  0
 14 39  1  0
 15 40  1  0
 15 41  1  0
 16 42  1  0
 16 43  1  0
 17 44  1  0
 20 45  1  0
 21 46  1  0
 24 47  1  0
 24 48  1  0
 25 49  1  0
 25 50  1  0
 26 51  1  0
 26 52  1  0
 27 53  1  0
 27 54  1  0
 28 55  1  0
 28 56  1  0
 29 57  1  0
M  END
>  <smiles>  (25) 
O=C1CC(c2cccc(C(=O)N3CCCC3)c2)=Nc2ccc(N3CCCCC3)cc21

>  <score_type>  (25) 
oracle

>  <origin>  (25) 
autodockgpu

>  <m_score__min__energy>  (25) 
-8.9900000000000002

>  <m_primary>  (25) 
energy

>  <rmsd>  (25) 
5.862589298570386

>  <m_score__min__rmsd>  (25) 
5.862589298570386

>  <meeko>  (25) 
{"free_energy": -8.88, "intermolecular_energy": -9.77, "internal_energy": -0.78, "cluster_size": 49, "cluster_id": 1, "rank_in_cluster": 26}

>  <energy>  (25) 
-8.88

>  <cluster_rmsd>  (25) 
0.36

>  <cluster>  (25) 
1

$$$$

     RDKit          3D

 57 61  0  0  0  0  0  0  0  0999 V2000
  142.9190   74.9380  220.1940 O   0  0  0  0  0  0  0  0  0  0  0  0
  141.8940   74.6500  220.8660 C   0  0  0  0  0  0  0  0  0  0  0  0
  141.5670   73.2230  221.0360 C   0  0  0  0  0  0  0  0  0  0  0  0
  140.3400   73.0360  221.8440 C   0  0  0  0  0  0  0  0  0  0  0  0
  139.9030   71.6590  222.0890 C   0  0  0  0  0  0  0  0  0  0  0  0
  139.5650   70.7920  221.0870 C   0  0  0  0  0  0  0  0  0  0  0  0
  139.1500   69.4930  221.2890 C   0  0  0  0  0  0  0  0  0  0  0  0
  139.0660   69.0240  222.5770 C   0  0  0  0  0  0  0  0  0  0  0  0
  139.4000   69.8680  223.6350 C   0  0  0  0  0  0  0  0  0  0  0  0
  139.2880   69.3050  224.9770 C   0  0  0  0  0  0  0  0  0  0  0  0
  138.8300   68.1370  225.0640 O   0  0  0  0  0  0  0  0  0  0  0  0
  139.6800   70.0400  226.1300 N   0  0  0  0  0  0  0  0  0  0  0  0
  140.2290   71.3970  226.1980 C   0  0  0  0  0  0  0  0  0  0  0  0
  141.0930   71.4240  227.4190 C   0  0  0  0  0  0  0  0  0  0  0  0
  140.8580   70.1400  228.1400 C   0  0  0  0  0  0  0  0  0  0  0  0
  139.6130   69.5850  227.4850 C   0  0  0  0  0  0  0  0  0  0  0  0
  139.8120   71.1640  223.3960 C   0  0  0  0  0  0  0  0  0  0  0  0
  139.6490   74.0100  222.3360 N   0  0  0  0  0  0  0  0  0  0  0  0
  139.9790   75.3820  222.1610 C   0  0  0  0  0  0  0  0  0  0  0  0
  139.2310   76.4090  222.6910 C   0  0  0  0  0  0  0  0  0  0  0  0
  139.5880   77.7490  222.4980 C   0  0  0  0  0  0  0  0  0  0  0  0
  140.7060   78.0890  221.7660 C   0  0  0  0  0  0  0  0  0  0  0  0
  141.0210   79.4610  221.6040 N   0  0  0  0  0  0  0  0  0  0  0  0
  140.7600   80.3460  222.7140 C   0  0  0  0  0  0  0  0  0  0  0  0
  141.5570   81.6230  222.4620 C   0  0  0  0  0  0  0  0  0  0  0  0
  141.1230   82.3170  221.1990 C   0  0  0  0  0  0  0  0  0  0  0  0
  140.9220   81.3540  220.0760 C   0  0  0  0  0  0  0  0  0  0  0  0
  141.5840   80.0310  220.4010 C   0  0  0  0  0  0  0  0  0  0  0  0
  141.4490   77.0570  221.2400 C   0  0  0  0  0  0  0  0  0  0  0  0
  141.0950   75.7330  221.4320 C   0  0  0  0  0  0  0  0  0  0  0  0
  141.4136   72.7716  220.0447 H   0  0  0  0  0  0  0  0  0  0  0  0
  142.4026   72.7396  221.5634 H   0  0  0  0  0  0  0  0  0  0  0  0
  139.6285   71.1553  220.0507 H   0  0  0  0  0  0  0  0  0  0  0  0
  138.8918   68.8464  220.4373 H   0  0  0  0  0  0  0  0  0  0  0  0
  138.7383   67.9922  222.7719 H   0  0  0  0  0  0  0  0  0  0  0  0
  140.8267   71.6142  225.3005 H   0  0  0  0  0  0  0  0  0  0  0  0
  139.4331   72.1547  226.2472 H   0  0  0  0  0  0  0  0  0  0  0  0
  142.1516   71.5094  227.1323 H   0  0  0  0  0  0  0  0  0  0  0  0
  140.8486   72.2860  228.0571 H   0  0  0  0  0  0  0  0  0  0  0  0
  141.7088   69.4551  228.0093 H   0  0  0  0  0  0  0  0  0  0  0  0
  140.7450   70.2748  229.2258 H   0  0  0  0  0  0  0  0  0  0  0  0
  139.6111   68.4857  227.5251 H   0  0  0  0  0  0  0  0  0  0  0  0
  138.6942   69.9177  227.9901 H   0  0  0  0  0  0  0  0  0  0  0  0
  140.0721   71.8160  224.2429 H   0  0  0  0  0  0  0  0  0  0  0  0
  138.3325   76.1715  223.2794 H   0  0  0  0  0  0  0  0  0  0  0  0
  138.9666   78.5433  222.9374 H   0  0  0  0  0  0  0  0  0  0  0  0
  139.6857   80.5757  222.7697 H   0  0  0  0  0  0  0  0  0  0  0  0
  141.0548   79.8801  223.6659 H   0  0  0  0  0  0  0  0  0  0  0  0
  141.4108   82.3066  223.3113 H   0  0  0  0  0  0  0  0  0  0  0  0
  142.6161   81.3470  222.3519 H   0  0  0  0  0  0  0  0  0  0  0  0
  140.1763   82.8436  221.3898 H   0  0  0  0  0  0  0  0  0  0  0  0
  141.9161   83.0210  220.9068 H   0  0  0  0  0  0  0  0  0  0  0  0
  139.8446   81.1938  219.9223 H   0  0  0  0  0  0  0  0  0  0  0  0
  141.3727   81.7675  219.1617 H   0  0  0  0  0  0  0  0  0  0  0  0
  141.4288   79.3342  219.5641 H   0  0  0  0  0  0  0  0  0  0  0  0
  142.6589   80.2025  220.5599 H   0  0  0  0  0  0  0  0  0  0  0  0
  142.3483   77.2907  220.6512 H   0  0  0  0  0  0  0  0  0  0  0  0
  1  2  2  0
  2  3  1  0
  3  4  1  0
  4  5  1  0
  5  6  2  0
  6  7  1  0
  7  8  2  0
  8  9  1  0
  9 10  1  0
 10 11  2  0
 10 12  1  0
 12 13  1  0
 13 14  1  0
 14 15  1  0
 15 16  1  0
  9 17  2  0
  4 18  2  0
 18 19  1  0
 19 20  2  0
 20 21  1  0
 21 22  2  0
 22 23  1  0
 23 24  1  0
 24 25  1  0
 25 26  1  0
 26 27  1  0
 27 28  1  0
 22 29  1  0
 29 30  2  0
 30  2  1  0
 17  5  1  0
 30 19  1  0
 16 12  1  0
 28 23  1  0
  3 31  1  0
  3 32  1  0
  6 33  1  0
  7 34  1  0
  8 35  1  0
 13 36  1  0
 13 37  1  0
 14 38  1  0
 14 39  1  0
 15 40  1  0
 15 41  1  0
 16 42  1  0
 16 43  1  0
 17 44  1  0
 20 45  1  0
 21 46  1  0
 24 47  1  0
 24 48  1  0
 25 49  1  0
 25 50  1  0
 26 51  1  0
 26 52  1  0
 27 53  1  0
 27 54  1  0
 28 55  1  0
 28 56  1  0
 29 57  1  0
M  END
>  <smiles>  (26) 
O=C1CC(c2cccc(C(=O)N3CCCC3)c2)=Nc2ccc(N3CCCCC3)cc21

>  <score_type>  (26) 
oracle

>  <origin>  (26) 
autodockgpu

>  <m_score__min__energy>  (26) 
-8.9900000000000002

>  <m_primary>  (26) 
energy

>  <rmsd>  (26) 
5.8640825246297705

>  <m_score__min__rmsd>  (26) 
5.8640825246297705

>  <meeko>  (26) 
{"free_energy": -8.9, "intermolecular_energy": -9.79, "internal_energy": -0.76, "cluster_size": 49, "cluster_id": 1, "rank_in_cluster": 20}

>  <energy>  (26) 
-8.88

>  <cluster_rmsd>  (26) 
0.37

>  <cluster>  (26) 
1

$$$$

     RDKit          3D

 57 61  0  0  0  0  0  0  0  0999 V2000
  142.7910   74.7600  220.5570 O   0  0  0  0  0  0  0  0  0  0  0  0
  141.7060   74.4580  221.1180 C   0  0  0  0  0  0  0  0  0  0  0  0
  141.3890   73.0270  221.2680 C   0  0  0  0  0  0  0  0  0  0  0  0
  140.0850   72.8230  221.9420 C   0  0  0  0  0  0  0  0  0  0  0  0
  139.6500   71.4400  222.1540 C   0  0  0  0  0  0  0  0  0  0  0  0
  139.1250   70.6600  221.1610 C   0  0  0  0  0  0  0  0  0  0  0  0
  138.7080   69.3580  221.3330 C   0  0  0  0  0  0  0  0  0  0  0  0
  138.8210   68.7910  222.5790 C   0  0  0  0  0  0  0  0  0  0  0  0
  139.3510   69.5450  223.6260 C   0  0  0  0  0  0  0  0  0  0  0  0
  139.4430   68.8810  224.9230 C   0  0  0  0  0  0  0  0  0  0  0  0
  139.2070   67.6460  224.9450 O   0  0  0  0  0  0  0  0  0  0  0  0
  139.7840   69.5950  226.1050 N   0  0  0  0  0  0  0  0  0  0  0  0
  140.0860   71.0220  226.2470 C   0  0  0  0  0  0  0  0  0  0  0  0
  141.0210   71.1240  227.4100 C   0  0  0  0  0  0  0  0  0  0  0  0
  141.0730   69.7720  228.0390 C   0  0  0  0  0  0  0  0  0  0  0  0
  139.9010   69.0450  227.4210 C   0  0  0  0  0  0  0  0  0  0  0  0
  139.7590   70.8470  223.4180 C   0  0  0  0  0  0  0  0  0  0  0  0
  139.3280   73.7880  222.3460 N   0  0  0  0  0  0  0  0  0  0  0  0
  139.6490   75.1640  222.1920 C   0  0  0  0  0  0  0  0  0  0  0  0
  138.8290   76.1810  222.6270 C   0  0  0  0  0  0  0  0  0  0  0  0
  139.1800   77.5260  222.4580 C   0  0  0  0  0  0  0  0  0  0  0  0
  140.3630   77.8810  221.8470 C   0  0  0  0  0  0  0  0  0  0  0  0
  140.6680   79.2580  221.7030 N   0  0  0  0  0  0  0  0  0  0  0  0
  141.4470   79.6570  220.5560 C   0  0  0  0  0  0  0  0  0  0  0  0
  141.2700   81.1640  220.3990 C   0  0  0  0  0  0  0  0  0  0  0  0
  141.7820   81.9180  221.5970 C   0  0  0  0  0  0  0  0  0  0  0  0
  141.3750   81.2690  222.8790 C   0  0  0  0  0  0  0  0  0  0  0  0
  140.2500   80.2860  222.6290 C   0  0  0  0  0  0  0  0  0  0  0  0
  141.1780   76.8600  221.4150 C   0  0  0  0  0  0  0  0  0  0  0  0
  140.8300   75.5310  221.5830 C   0  0  0  0  0  0  0  0  0  0  0  0
  141.3515   72.5636  220.2711 H   0  0  0  0  0  0  0  0  0  0  0  0
  142.1717   72.5652  221.8878 H   0  0  0  0  0  0  0  0  0  0  0  0
  139.0292   71.1014  220.1580 H   0  0  0  0  0  0  0  0  0  0  0  0
  138.2935   68.7849  220.4905 H   0  0  0  0  0  0  0  0  0  0  0  0
  138.4971   67.7537  222.7493 H   0  0  0  0  0  0  0  0  0  0  0  0
  140.5659   71.4052  225.3343 H   0  0  0  0  0  0  0  0  0  0  0  0
  139.1740   71.6162  226.4059 H   0  0  0  0  0  0  0  0  0  0  0  0
  142.0228   71.4207  227.0660 H   0  0  0  0  0  0  0  0  0  0  0  0
  140.6764   71.8817  228.1291 H   0  0  0  0  0  0  0  0  0  0  0  0
  142.0194   69.2645  227.8008 H   0  0  0  0  0  0  0  0  0  0  0  0
  141.0205   69.8100  229.1371 H   0  0  0  0  0  0  0  0  0  0  0  0
  140.0970   67.9636  227.3733 H   0  0  0  0  0  0  0  0  0  0  0  0
  138.9786   69.1695  228.0072 H   0  0  0  0  0  0  0  0  0  0  0  0
  140.1750   71.4262  224.2556 H   0  0  0  0  0  0  0  0  0  0  0  0
  137.8770   75.9313  223.1182 H   0  0  0  0  0  0  0  0  0  0  0  0
  138.5003   78.3120  222.8188 H   0  0  0  0  0  0  0  0  0  0  0  0
  142.5081   79.4161  220.7176 H   0  0  0  0  0  0  0  0  0  0  0  0
  141.1144   79.1264  219.6517 H   0  0  0  0  0  0  0  0  0  0  0  0
  141.8223   81.4958  219.5075 H   0  0  0  0  0  0  0  0  0  0  0  0
  140.1944   81.3720  220.2999 H   0  0  0  0  0  0  0  0  0  0  0  0
  142.8804   81.9559  221.5506 H   0  0  0  0  0  0  0  0  0  0  0  0
  141.3491   82.9290  221.5742 H   0  0  0  0  0  0  0  0  0  0  0  0
  142.2366   80.7352  223.3064 H   0  0  0  0  0  0  0  0  0  0  0  0
  141.0290   82.0422  223.5807 H   0  0  0  0  0  0  0  0  0  0  0  0
  139.9605   79.8183  223.5816 H   0  0  0  0  0  0  0  0  0  0  0  0
  139.3962   80.8274  222.1955 H   0  0  0  0  0  0  0  0  0  0  0  0
  142.1307   77.1064  220.9234 H   0  0  0  0  0  0  0  0  0  0  0  0
  1  2  2  0
  2  3  1  0
  3  4  1  0
  4  5  1  0
  5  6  2  0
  6  7  1  0
  7  8  2  0
  8  9  1  0
  9 10  1  0
 10 11  2  0
 10 12  1  0
 12 13  1  0
 13 14  1  0
 14 15  1  0
 15 16  1  0
  9 17  2  0
  4 18  2  0
 18 19  1  0
 19 20  2  0
 20 21  1  0
 21 22  2  0
 22 23  1  0
 23 24  1  0
 24 25  1  0
 25 26  1  0
 26 27  1  0
 27 28  1  0
 22 29  1  0
 29 30  2  0
 30  2  1  0
 17  5  1  0
 30 19  1  0
 16 12  1  0
 28 23  1  0
  3 31  1  0
  3 32  1  0
  6 33  1  0
  7 34  1  0
  8 35  1  0
 13 36  1  0
 13 37  1  0
 14 38  1  0
 14 39  1  0
 15 40  1  0
 15 41  1  0
 16 42  1  0
 16 43  1  0
 17 44  1  0
 20 45  1  0
 21 46  1  0
 24 47  1  0
 24 48  1  0
 25 49  1  0
 25 50  1  0
 26 51  1  0
 26 52  1  0
 27 53  1  0
 27 54  1  0
 28 55  1  0
 28 56  1  0
 29 57  1  0
M  END
>  <smiles>  (27) 
O=C1CC(c2cccc(C(=O)N3CCCC3)c2)=Nc2ccc(N3CCCCC3)cc21

>  <score_type>  (27) 
oracle

>  <origin>  (27) 
autodockgpu

>  <m_score__min__energy>  (27) 
-8.9900000000000002

>  <m_primary>  (27) 
energy

>  <rmsd>  (27) 
6.176688273194474

>  <m_score__min__rmsd>  (27) 
6.176688273194474

>  <meeko>  (27) 
{"free_energy": -8.83, "intermolecular_energy": -9.72, "internal_energy": -0.77, "cluster_size": 49, "cluster_id": 1, "rank_in_cluster": 35}

>  <energy>  (27) 
-8.88

>  <cluster_rmsd>  (27) 
0.31

>  <cluster>  (27) 
1

$$$$

     RDKit          3D

 57 61  0  0  0  0  0  0  0  0999 V2000
  142.8660   74.5370  220.2630 O   0  0  0  0  0  0  0  0  0  0  0  0
  141.8130   74.3110  220.9140 C   0  0  0  0  0  0  0  0  0  0  0  0
  141.4250   72.9030  221.1180 C   0  0  0  0  0  0  0  0  0  0  0  0
  140.1700   72.7900  221.8970 C   0  0  0  0  0  0  0  0  0  0  0  0
  139.6720   71.4390  222.1710 C   0  0  0  0  0  0  0  0  0  0  0  0
  139.0740   70.6560  221.2230 C   0  0  0  0  0  0  0  0  0  0  0  0
  138.5970   69.3830  221.4540 C   0  0  0  0  0  0  0  0  0  0  0  0
  138.7230   68.8540  222.7150 C   0  0  0  0  0  0  0  0  0  0  0  0
  139.3260   69.6130  223.7180 C   0  0  0  0  0  0  0  0  0  0  0  0
  139.4270   68.9890  225.0340 C   0  0  0  0  0  0  0  0  0  0  0  0
  139.1980   67.7540  225.0930 O   0  0  0  0  0  0  0  0  0  0  0  0
  139.7700   69.7400  226.1920 N   0  0  0  0  0  0  0  0  0  0  0  0
  140.0650   71.1720  226.2890 C   0  0  0  0  0  0  0  0  0  0  0  0
  141.0060   71.3140  227.4450 C   0  0  0  0  0  0  0  0  0  0  0  0
  141.0670   69.9820  228.1140 C   0  0  0  0  0  0  0  0  0  0  0  0
  139.8960   69.2310  227.5230 C   0  0  0  0  0  0  0  0  0  0  0  0
  139.7930   70.8840  223.4510 C   0  0  0  0  0  0  0  0  0  0  0  0
  139.5050   73.8050  222.3390 N   0  0  0  0  0  0  0  0  0  0  0  0
  139.8940   75.1570  222.1320 C   0  0  0  0  0  0  0  0  0  0  0  0
  139.1730   76.2290  222.6090 C   0  0  0  0  0  0  0  0  0  0  0  0
  139.5880   77.5470  222.3850 C   0  0  0  0  0  0  0  0  0  0  0  0
  140.7380   77.8200  221.6750 C   0  0  0  0  0  0  0  0  0  0  0  0
  141.1110   79.1730  221.4790 N   0  0  0  0  0  0  0  0  0  0  0  0
  140.9390   80.0840  222.5860 C   0  0  0  0  0  0  0  0  0  0  0  0
  141.7850   81.3170  222.2830 C   0  0  0  0  0  0  0  0  0  0  0  0
  141.3330   82.0160  221.0290 C   0  0  0  0  0  0  0  0  0  0  0  0
  141.0390   81.0490  219.9290 C   0  0  0  0  0  0  0  0  0  0  0  0
  141.6500   79.7000  220.2470 C   0  0  0  0  0  0  0  0  0  0  0  0
  141.4530   76.7440  221.2020 C   0  0  0  0  0  0  0  0  0  0  0  0
  141.0420   75.4420  221.4240 C   0  0  0  0  0  0  0  0  0  0  0  0
  141.2802   72.4270  220.1370 H   0  0  0  0  0  0  0  0  0  0  0  0
  142.2263   72.4039  221.6827 H   0  0  0  0  0  0  0  0  0  0  0  0
  138.9663   71.0688  220.2091 H   0  0  0  0  0  0  0  0  0  0  0  0
  138.1259   68.8040  220.6460 H   0  0  0  0  0  0  0  0  0  0  0  0
  138.3520   67.8415  222.9320 H   0  0  0  0  0  0  0  0  0  0  0  0
  140.5385   71.5297  225.3628 H   0  0  0  0  0  0  0  0  0  0  0  0
  139.1507   71.7661  226.4342 H   0  0  0  0  0  0  0  0  0  0  0  0
  142.0048   71.6047  227.0874 H   0  0  0  0  0  0  0  0  0  0  0  0
  140.6615   72.0917  228.1425 H   0  0  0  0  0  0  0  0  0  0  0  0
  142.0149   69.4721  227.8872 H   0  0  0  0  0  0  0  0  0  0  0  0
  141.0186   70.0529  229.2106 H   0  0  0  0  0  0  0  0  0  0  0  0
  140.0973   68.1497  227.5070 H   0  0  0  0  0  0  0  0  0  0  0  0
  138.9755   69.3689  228.1093 H   0  0  0  0  0  0  0  0  0  0  0  0
  140.2662   71.4684  224.2538 H   0  0  0  0  0  0  0  0  0  0  0  0
  138.2502   76.0454  223.1789 H   0  0  0  0  0  0  0  0  0  0  0  0
  138.9869   78.3784  222.7818 H   0  0  0  0  0  0  0  0  0  0  0  0
  139.8802   80.3664  222.6821 H   0  0  0  0  0  0  0  0  0  0  0  0
  141.2503   79.6165  223.5318 H   0  0  0  0  0  0  0  0  0  0  0  0
  141.7075   82.0173  223.1277 H   0  0  0  0  0  0  0  0  0  0  0  0
  142.8239   80.9881  222.1333 H   0  0  0  0  0  0  0  0  0  0  0  0
  140.4216   82.5907  221.2507 H   0  0  0  0  0  0  0  0  0  0  0  0
  142.1461   82.6769  220.6944 H   0  0  0  0  0  0  0  0  0  0  0  0
  139.9497   80.9393  219.8221 H   0  0  0  0  0  0  0  0  0  0  0  0
  141.4701   81.4281  218.9907 H   0  0  0  0  0  0  0  0  0  0  0  0
  141.4279   79.0008  219.4274 H   0  0  0  0  0  0  0  0  0  0  0  0
  142.7373   79.8221  220.3604 H   0  0  0  0  0  0  0  0  0  0  0  0
  142.3764   76.9239  220.6319 H   0  0  0  0  0  0  0  0  0  0  0  0
  1  2  2  0
  2  3  1  0
  3  4  1  0
  4  5  1  0
  5  6  2  0
  6  7  1  0
  7  8  2  0
  8  9  1  0
  9 10  1  0
 10 11  2  0
 10 12  1  0
 12 13  1  0
 13 14  1  0
 14 15  1  0
 15 16  1  0
  9 17  2  0
  4 18  2  0
 18 19  1  0
 19 20  2  0
 20 21  1  0
 21 22  2  0
 22 23  1  0
 23 24  1  0
 24 25  1  0
 25 26  1  0
 26 27  1  0
 27 28  1  0
 22 29  1  0
 29 30  2  0
 30  2  1  0
 17  5  1  0
 30 19  1  0
 16 12  1  0
 28 23  1  0
  3 31  1  0
  3 32  1  0
  6 33  1  0
  7 34  1  0
  8 35  1  0
 13 36  1  0
 13 37  1  0
 14 38  1  0
 14 39  1  0
 15 40  1  0
 15 41  1  0
 16 42  1  0
 16 43  1  0
 17 44  1  0
 20 45  1  0
 21 46  1  0
 24 47  1  0
 24 48  1  0
 25 49  1  0
 25 50  1  0
 26 51  1  0
 26 52  1  0
 27 53  1  0
 27 54  1  0
 28 55  1  0
 28 56  1  0
 29 57  1  0
M  END
>  <smiles>  (28) 
O=C1CC(c2cccc(C(=O)N3CCCC3)c2)=Nc2ccc(N3CCCCC3)cc21

>  <score_type>  (28) 
oracle

>  <origin>  (28) 
autodockgpu

>  <m_score__min__energy>  (28) 
-8.9900000000000002

>  <m_primary>  (28) 
energy

>  <rmsd>  (28) 
5.828813535639255

>  <m_score__min__rmsd>  (28) 
5.828813535639255

>  <meeko>  (28) 
{"free_energy": -8.95, "intermolecular_energy": -9.85, "internal_energy": -0.8, "cluster_size": 49, "cluster_id": 1, "rank_in_cluster": 16}

>  <energy>  (28) 
-8.88

>  <cluster_rmsd>  (28) 
0.35

>  <cluster>  (28) 
1

$$$$

     RDKit          3D

 57 61  0  0  0  0  0  0  0  0999 V2000
  142.8820   74.6350  220.1920 O   0  0  0  0  0  0  0  0  0  0  0  0
  141.8490   74.3700  220.8610 C   0  0  0  0  0  0  0  0  0  0  0  0
  141.5010   72.9490  221.0450 C   0  0  0  0  0  0  0  0  0  0  0  0
  140.2660   72.7890  221.8480 C   0  0  0  0  0  0  0  0  0  0  0  0
  139.8090   71.4210  222.1060 C   0  0  0  0  0  0  0  0  0  0  0  0
  139.3140   70.6010  221.1300 C   0  0  0  0  0  0  0  0  0  0  0  0
  138.8770   69.3120  221.3450 C   0  0  0  0  0  0  0  0  0  0  0  0
  138.9350   68.8020  222.6190 C   0  0  0  0  0  0  0  0  0  0  0  0
  139.4320   69.5980  223.6500 C   0  0  0  0  0  0  0  0  0  0  0  0
  139.4670   68.9940  224.9790 C   0  0  0  0  0  0  0  0  0  0  0  0
  139.1730   67.7740  225.0530 O   0  0  0  0  0  0  0  0  0  0  0  0
  139.8180   69.7480  226.1330 N   0  0  0  0  0  0  0  0  0  0  0  0
  140.1840   71.1640  226.2140 C   0  0  0  0  0  0  0  0  0  0  0  0
  141.1000   71.2800  227.3920 C   0  0  0  0  0  0  0  0  0  0  0  0
  141.0750   69.9590  228.0850 C   0  0  0  0  0  0  0  0  0  0  0  0
  139.8830   69.2580  227.4750 C   0  0  0  0  0  0  0  0  0  0  0  0
  139.8620   70.8860  223.3990 C   0  0  0  0  0  0  0  0  0  0  0  0
  139.5870   73.7780  222.3240 N   0  0  0  0  0  0  0  0  0  0  0  0
  139.9370   75.1430  222.1360 C   0  0  0  0  0  0  0  0  0  0  0  0
  139.2000   76.1870  222.6500 C   0  0  0  0  0  0  0  0  0  0  0  0
  139.5770   77.5190  222.4430 C   0  0  0  0  0  0  0  0  0  0  0  0
  140.7040   77.8350  221.7150 C   0  0  0  0  0  0  0  0  0  0  0  0
  141.0380   79.2010  221.5380 N   0  0  0  0  0  0  0  0  0  0  0  0
  140.9820   80.0610  222.6960 C   0  0  0  0  0  0  0  0  0  0  0  0
  141.7760   81.3190  222.3550 C   0  0  0  0  0  0  0  0  0  0  0  0
  141.1790   82.0630  221.1910 C   0  0  0  0  0  0  0  0  0  0  0  0
  140.7740   81.1390  220.0890 C   0  0  0  0  0  0  0  0  0  0  0  0
  141.4310   79.7870  220.2770 C   0  0  0  0  0  0  0  0  0  0  0  0
  141.4350   76.7870  221.2050 C   0  0  0  0  0  0  0  0  0  0  0  0
  141.0620   75.4710  221.4090 C   0  0  0  0  0  0  0  0  0  0  0  0
  141.3471   72.4885  220.0579 H   0  0  0  0  0  0  0  0  0  0  0  0
  142.3265   72.4596  221.5826 H   0  0  0  0  0  0  0  0  0  0  0  0
  139.2611   70.9967  220.1050 H   0  0  0  0  0  0  0  0  0  0  0  0
  138.4899   68.7043  220.5139 H   0  0  0  0  0  0  0  0  0  0  0  0
  138.5930   67.7767  222.8236 H   0  0  0  0  0  0  0  0  0  0  0  0
  140.6995   71.4799  225.2950 H   0  0  0  0  0  0  0  0  0  0  0  0
  139.2978   71.8062  226.3246 H   0  0  0  0  0  0  0  0  0  0  0  0
  142.1214   71.5131  227.0567 H   0  0  0  0  0  0  0  0  0  0  0  0
  140.7778   72.0872  228.0663 H   0  0  0  0  0  0  0  0  0  0  0  0
  142.0011   69.3975  227.8928 H   0  0  0  0  0  0  0  0  0  0  0  0
  141.0015   70.0522  229.1786 H   0  0  0  0  0  0  0  0  0  0  0  0
  140.0289   68.1678  227.4827 H   0  0  0  0  0  0  0  0  0  0  0  0
  138.9558   69.4535  228.0337 H   0  0  0  0  0  0  0  0  0  0  0  0
  140.2510   71.4994  224.2251 H   0  0  0  0  0  0  0  0  0  0  0  0
  138.2951   75.9691  223.2362 H   0  0  0  0  0  0  0  0  0  0  0  0
  138.9637   78.3270  222.8684 H   0  0  0  0  0  0  0  0  0  0  0  0
  139.9378   80.3228  222.9222 H   0  0  0  0  0  0  0  0  0  0  0  0
  141.4024   79.5584  223.5795 H   0  0  0  0  0  0  0  0  0  0  0  0
  141.7860   81.9817  223.2329 H   0  0  0  0  0  0  0  0  0  0  0  0
  142.7952   81.0130  222.0765 H   0  0  0  0  0  0  0  0  0  0  0  0
  140.2920   82.6135  221.5378 H   0  0  0  0  0  0  0  0  0  0  0  0
  141.9426   82.7499  220.7971 H   0  0  0  0  0  0  0  0  0  0  0  0
  139.6808   81.0171  220.0994 H   0  0  0  0  0  0  0  0  0  0  0  0
  141.0935   81.5643  219.1262 H   0  0  0  0  0  0  0  0  0  0  0  0
  141.1256   79.1197  219.4576 H   0  0  0  0  0  0  0  0  0  0  0  0
  142.5229   79.9199  220.2729 H   0  0  0  0  0  0  0  0  0  0  0  0
  142.3408   77.0017  220.6190 H   0  0  0  0  0  0  0  0  0  0  0  0
  1  2  2  0
  2  3  1  0
  3  4  1  0
  4  5  1  0
  5  6  2  0
  6  7  1  0
  7  8  2  0
  8  9  1  0
  9 10  1  0
 10 11  2  0
 10 12  1  0
 12 13  1  0
 13 14  1  0
 14 15  1  0
 15 16  1  0
  9 17  2  0
  4 18  2  0
 18 19  1  0
 19 20  2  0
 20 21  1  0
 21 22  2  0
 22 23  1  0
 23 24  1  0
 24 25  1  0
 25 26  1  0
 26 27  1  0
 27 28  1  0
 22 29  1  0
 29 30  2  0
 30  2  1  0
 17  5  1  0
 30 19  1  0
 16 12  1  0
 28 23  1  0
  3 31  1  0
  3 32  1  0
  6 33  1  0
  7 34  1  0
  8 35  1  0
 13 36  1  0
 13 37  1  0
 14 38  1  0
 14 39  1  0
 15 40  1  0
 15 41  1  0
 16 42  1  0
 16 43  1  0
 17 44  1  0
 20 45  1  0
 21 46  1  0
 24 47  1  0
 24 48  1  0
 25 49  1  0
 25 50  1  0
 26 51  1  0
 26 52  1  0
 27 53  1  0
 27 54  1  0
 28 55  1  0
 28 56  1  0
 29 57  1  0
M  END
>  <smiles>  (29) 
O=C1CC(c2cccc(C(=O)N3CCCC3)c2)=Nc2ccc(N3CCCCC3)cc21

>  <score_type>  (29) 
oracle

>  <origin>  (29) 
autodockgpu

>  <m_score__min__energy>  (29) 
-8.9900000000000002

>  <m_primary>  (29) 
energy

>  <rmsd>  (29) 
5.849362204660548

>  <m_score__min__rmsd>  (29) 
5.849362204660548

>  <meeko>  (29) 
{"free_energy": -8.96, "intermolecular_energy": -9.85, "internal_energy": -0.78, "cluster_size": 49, "cluster_id": 1, "rank_in_cluster": 14}

>  <energy>  (29) 
-8.87

>  <cluster_rmsd>  (29) 
0.34

>  <cluster>  (29) 
1

$$$$

     RDKit          3D

 57 61  0  0  0  0  0  0  0  0999 V2000
  142.8820   74.5700  220.2550 O   0  0  0  0  0  0  0  0  0  0  0  0
  141.8310   74.3320  220.9050 C   0  0  0  0  0  0  0  0  0  0  0  0
  141.4530   72.9210  221.1020 C   0  0  0  0  0  0  0  0  0  0  0  0
  140.2000   72.7950  221.8810 C   0  0  0  0  0  0  0  0  0  0  0  0
  139.7120   71.4390  222.1490 C   0  0  0  0  0  0  0  0  0  0  0  0
  139.1410   70.6470  221.1910 C   0  0  0  0  0  0  0  0  0  0  0  0
  138.6740   69.3700  221.4150 C   0  0  0  0  0  0  0  0  0  0  0  0
  138.7810   68.8440  222.6800 C   0  0  0  0  0  0  0  0  0  0  0  0
  139.3570   69.6110  223.6920 C   0  0  0  0  0  0  0  0  0  0  0  0
  139.4400   68.9910  225.0110 C   0  0  0  0  0  0  0  0  0  0  0  0
  139.1990   67.7580  225.0720 O   0  0  0  0  0  0  0  0  0  0  0  0
  139.7790   69.7420  226.1700 N   0  0  0  0  0  0  0  0  0  0  0  0
  140.0870   71.1720  226.2650 C   0  0  0  0  0  0  0  0  0  0  0  0
  141.0180   71.3090  227.4290 C   0  0  0  0  0  0  0  0  0  0  0  0
  141.0610   69.9790  228.1030 C   0  0  0  0  0  0  0  0  0  0  0  0
  139.8880   69.2370  227.5030 C   0  0  0  0  0  0  0  0  0  0  0  0
  139.8140   70.8870  223.4320 C   0  0  0  0  0  0  0  0  0  0  0  0
  139.5280   73.8030  222.3290 N   0  0  0  0  0  0  0  0  0  0  0  0
  139.9070   75.1580  222.1290 C   0  0  0  0  0  0  0  0  0  0  0  0
  139.1790   76.2220  222.6120 C   0  0  0  0  0  0  0  0  0  0  0  0
  139.5840   77.5450  222.3950 C   0  0  0  0  0  0  0  0  0  0  0  0
  140.7310   77.8290  221.6860 C   0  0  0  0  0  0  0  0  0  0  0  0
  141.0950   79.1860  221.4970 N   0  0  0  0  0  0  0  0  0  0  0  0
  141.0460   80.0610  222.6450 C   0  0  0  0  0  0  0  0  0  0  0  0
  141.8680   81.2980  222.2970 C   0  0  0  0  0  0  0  0  0  0  0  0
  141.2950   82.0410  221.1200 C   0  0  0  0  0  0  0  0  0  0  0  0
  140.8810   81.1140  220.0250 C   0  0  0  0  0  0  0  0  0  0  0  0
  141.5090   79.7510  220.2330 C   0  0  0  0  0  0  0  0  0  0  0  0
  141.4550   76.7610  221.2060 C   0  0  0  0  0  0  0  0  0  0  0  0
  141.0530   75.4550  221.4220 C   0  0  0  0  0  0  0  0  0  0  0  0
  141.3107   72.4491  220.1186 H   0  0  0  0  0  0  0  0  0  0  0  0
  142.2582   72.4248  221.6636 H   0  0  0  0  0  0  0  0  0  0  0  0
  139.0485   71.0566  220.1743 H   0  0  0  0  0  0  0  0  0  0  0  0
  138.2253   68.7845  220.5990 H   0  0  0  0  0  0  0  0  0  0  0  0
  138.4160   67.8282  222.8921 H   0  0  0  0  0  0  0  0  0  0  0  0
  140.5726   71.5219  225.3421 H   0  0  0  0  0  0  0  0  0  0  0  0
  139.1771   71.7754  226.3995 H   0  0  0  0  0  0  0  0  0  0  0  0
  142.0227   71.5896  227.0798 H   0  0  0  0  0  0  0  0  0  0  0  0
  140.6737   72.0919  228.1207 H   0  0  0  0  0  0  0  0  0  0  0  0
  142.0062   69.4596  227.8866 H   0  0  0  0  0  0  0  0  0  0  0  0
  141.0036   70.0537  229.1990 H   0  0  0  0  0  0  0  0  0  0  0  0
  140.0792   68.1538  227.4925 H   0  0  0  0  0  0  0  0  0  0  0  0
  138.9635   69.3861  228.0802 H   0  0  0  0  0  0  0  0  0  0  0  0
  140.2642   71.4781  224.2431 H   0  0  0  0  0  0  0  0  0  0  0  0
  138.2580   76.0286  223.1815 H   0  0  0  0  0  0  0  0  0  0  0  0
  138.9773   78.3700  222.7966 H   0  0  0  0  0  0  0  0  0  0  0  0
  140.0054   80.3465  222.8585 H   0  0  0  0  0  0  0  0  0  0  0  0
  141.4482   79.5604  223.5381 H   0  0  0  0  0  0  0  0  0  0  0  0
  141.8848   81.9701  223.1676 H   0  0  0  0  0  0  0  0  0  0  0  0
  142.8830   80.9684  222.0302 H   0  0  0  0  0  0  0  0  0  0  0  0
  140.4163   82.6124  221.4536 H   0  0  0  0  0  0  0  0  0  0  0  0
  142.0752   82.7084  220.7252 H   0  0  0  0  0  0  0  0  0  0  0  0
  139.7855   81.0142  220.0272 H   0  0  0  0  0  0  0  0  0  0  0  0
  141.2171   81.5224  219.0605 H   0  0  0  0  0  0  0  0  0  0  0  0
  141.1965   79.0812  219.4183 H   0  0  0  0  0  0  0  0  0  0  0  0
  142.6033   79.8624  220.2366 H   0  0  0  0  0  0  0  0  0  0  0  0
  142.3766   76.9509  220.6362 H   0  0  0  0  0  0  0  0  0  0  0  0
  1  2  2  0
  2  3  1  0
  3  4  1  0
  4  5  1  0
  5  6  2  0
  6  7  1  0
  7  8  2  0
  8  9  1  0
  9 10  1  0
 10 11  2  0
 10 12  1  0
 12 13  1  0
 13 14  1  0
 14 15  1  0
 15 16  1  0
  9 17  2  0
  4 18  2  0
 18 19  1  0
 19 20  2  0
 20 21  1  0
 21 22  2  0
 22 23  1  0
 23 24  1  0
 24 25  1  0
 25 26  1  0
 26 27  1  0
 27 28  1  0
 22 29  1  0
 29 30  2  0
 30  2  1  0
 17  5  1  0
 30 19  1  0
 16 12  1  0
 28 23  1  0
  3 31  1  0
  3 32  1  0
  6 33  1  0
  7 34  1  0
  8 35  1  0
 13 36  1  0
 13 37  1  0
 14 38  1  0
 14 39  1  0
 15 40  1  0
 15 41  1  0
 16 42  1  0
 16 43  1  0
 17 44  1  0
 20 45  1  0
 21 46  1  0
 24 47  1  0
 24 48  1  0
 25 49  1  0
 25 50  1  0
 26 51  1  0
 26 52  1  0
 27 53  1  0
 27 54  1  0
 28 55  1  0
 28 56  1  0
 29 57  1  0
M  END
>  <smiles>  (30) 
O=C1CC(c2cccc(C(=O)N3CCCC3)c2)=Nc2ccc(N3CCCCC3)cc21

>  <score_type>  (30) 
oracle

>  <origin>  (30) 
autodockgpu

>  <m_score__min__energy>  (30) 
-8.9900000000000002

>  <m_primary>  (30) 
energy

>  <rmsd>  (30) 
5.839189435888984

>  <m_score__min__rmsd>  (30) 
5.839189435888984

>  <meeko>  (30) 
{"free_energy": -8.97, "intermolecular_energy": -9.86, "internal_energy": -0.79, "cluster_size": 49, "cluster_id": 1, "rank_in_cluster": 12}

>  <energy>  (30) 
-8.87

>  <cluster_rmsd>  (30) 
0.35

>  <cluster>  (30) 
1

$$$$

     RDKit          3D

 57 61  0  0  0  0  0  0  0  0999 V2000
  142.8790   74.5660  220.2340 O   0  0  0  0  0  0  0  0  0  0  0  0
  141.8340   74.3260  220.8940 C   0  0  0  0  0  0  0  0  0  0  0  0
  141.4620   72.9140  221.0960 C   0  0  0  0  0  0  0  0  0  0  0  0
  140.2160   72.7850  221.8860 C   0  0  0  0  0  0  0  0  0  0  0  0
  139.7350   71.4280  222.1590 C   0  0  0  0  0  0  0  0  0  0  0  0
  139.1780   70.6250  221.2030 C   0  0  0  0  0  0  0  0  0  0  0  0
  138.7160   69.3470  221.4320 C   0  0  0  0  0  0  0  0  0  0  0  0
  138.8170   68.8300  222.7010 C   0  0  0  0  0  0  0  0  0  0  0  0
  139.3780   69.6090  223.7130 C   0  0  0  0  0  0  0  0  0  0  0  0
  139.4540   68.9990  225.0360 C   0  0  0  0  0  0  0  0  0  0  0  0
  139.1980   67.7700  225.1080 O   0  0  0  0  0  0  0  0  0  0  0  0
  139.8010   69.7560  226.1890 N   0  0  0  0  0  0  0  0  0  0  0  0
  140.1260   71.1820  226.2720 C   0  0  0  0  0  0  0  0  0  0  0  0
  141.0590   71.3180  227.4350 C   0  0  0  0  0  0  0  0  0  0  0  0
  141.0850   69.9930  228.1200 C   0  0  0  0  0  0  0  0  0  0  0  0
  139.9040   69.2600  227.5270 C   0  0  0  0  0  0  0  0  0  0  0  0
  139.8300   70.8860  223.4470 C   0  0  0  0  0  0  0  0  0  0  0  0
  139.5460   73.7910  222.3390 N   0  0  0  0  0  0  0  0  0  0  0  0
  139.9180   75.1480  222.1350 C   0  0  0  0  0  0  0  0  0  0  0  0
  139.1920   76.2100  222.6230 C   0  0  0  0  0  0  0  0  0  0  0  0
  139.5910   77.5340  222.4010 C   0  0  0  0  0  0  0  0  0  0  0  0
  140.7310   77.8210  221.6820 C   0  0  0  0  0  0  0  0  0  0  0  0
  141.0890   79.1790  221.4890 N   0  0  0  0  0  0  0  0  0  0  0  0
  141.0360   80.0560  222.6330 C   0  0  0  0  0  0  0  0  0  0  0  0
  141.8530   81.2960  222.2820 C   0  0  0  0  0  0  0  0  0  0  0  0
  141.2770   82.0330  221.1020 C   0  0  0  0  0  0  0  0  0  0  0  0
  140.8660   81.1000  220.0100 C   0  0  0  0  0  0  0  0  0  0  0  0
  141.5000   79.7410  220.2230 C   0  0  0  0  0  0  0  0  0  0  0  0
  141.4530   76.7550  221.1970 C   0  0  0  0  0  0  0  0  0  0  0  0
  141.0570   75.4470  221.4170 C   0  0  0  0  0  0  0  0  0  0  0  0
  141.3127   72.4405  220.1144 H   0  0  0  0  0  0  0  0  0  0  0  0
  142.2735   72.4210  221.6513 H   0  0  0  0  0  0  0  0  0  0  0  0
  139.0928   71.0260  220.1822 H   0  0  0  0  0  0  0  0  0  0  0  0
  138.2761   68.7538  220.6168 H   0  0  0  0  0  0  0  0  0  0  0  0
  138.4592   67.8124  222.9166 H   0  0  0  0  0  0  0  0  0  0  0  0
  140.6156   71.5183  225.3462 H   0  0  0  0  0  0  0  0  0  0  0  0
  139.2234   71.7972  226.4016 H   0  0  0  0  0  0  0  0  0  0  0  0
  142.0671   71.5830  227.0835 H   0  0  0  0  0  0  0  0  0  0  0  0
  140.7251   72.1113  228.1199 H   0  0  0  0  0  0  0  0  0  0  0  0
  142.0239   69.4603  227.9083 H   0  0  0  0  0  0  0  0  0  0  0  0
  141.0278   70.0781  229.2152 H   0  0  0  0  0  0  0  0  0  0  0  0
  140.0826   68.1746  227.5253 H   0  0  0  0  0  0  0  0  0  0  0  0
  138.9814   69.4240  228.1030 H   0  0  0  0  0  0  0  0  0  0  0  0
  140.2705   71.4857  224.2572 H   0  0  0  0  0  0  0  0  0  0  0  0
  138.2768   76.0146  223.2011 H   0  0  0  0  0  0  0  0  0  0  0  0
  138.9850   78.3575  222.8068 H   0  0  0  0  0  0  0  0  0  0  0  0
  139.9941   80.3376  222.8453 H   0  0  0  0  0  0  0  0  0  0  0  0
  141.4401   79.5596  223.5276 H   0  0  0  0  0  0  0  0  0  0  0  0
  141.8662   81.9707  223.1507 H   0  0  0  0  0  0  0  0  0  0  0  0
  142.8697   80.9703  222.0171 H   0  0  0  0  0  0  0  0  0  0  0  0
  140.3963   82.6025  221.4336 H   0  0  0  0  0  0  0  0  0  0  0  0
  142.0547   82.7019  220.7047 H   0  0  0  0  0  0  0  0  0  0  0  0
  139.7710   80.9955  220.0132 H   0  0  0  0  0  0  0  0  0  0  0  0
  141.1995   81.5063  219.0437 H   0  0  0  0  0  0  0  0  0  0  0  0
  141.1903   79.0667  219.4110 H   0  0  0  0  0  0  0  0  0  0  0  0
  142.5938   79.8574  220.2259 H   0  0  0  0  0  0  0  0  0  0  0  0
  142.3691   76.9472  220.6192 H   0  0  0  0  0  0  0  0  0  0  0  0
  1  2  2  0
  2  3  1  0
  3  4  1  0
  4  5  1  0
  5  6  2  0
  6  7  1  0
  7  8  2  0
  8  9  1  0
  9 10  1  0
 10 11  2  0
 10 12  1  0
 12 13  1  0
 13 14  1  0
 14 15  1  0
 15 16  1  0
  9 17  2  0
  4 18  2  0
 18 19  1  0
 19 20  2  0
 20 21  1  0
 21 22  2  0
 22 23  1  0
 23 24  1  0
 24 25  1  0
 25 26  1  0
 26 27  1  0
 27 28  1  0
 22 29  1  0
 29 30  2  0
 30  2  1  0
 17  5  1  0
 30 19  1  0
 16 12  1  0
 28 23  1  0
  3 31  1  0
  3 32  1  0
  6 33  1  0
  7 34  1  0
  8 35  1  0
 13 36  1  0
 13 37  1  0
 14 38  1  0
 14 39  1  0
 15 40  1  0
 15 41  1  0
 16 42  1  0
 16 43  1  0
 17 44  1  0
 20 45  1  0
 21 46  1  0
 24 47  1  0
 24 48  1  0
 25 49  1  0
 25 50  1  0
 26 51  1  0
 26 52  1  0
 27 53  1  0
 27 54  1  0
 28 55  1  0
 28 56  1  0
 29 57  1  0
M  END
>  <smiles>  (31) 
O=C1CC(c2cccc(C(=O)N3CCCC3)c2)=Nc2ccc(N3CCCCC3)cc21

>  <score_type>  (31) 
oracle

>  <origin>  (31) 
autodockgpu

>  <m_score__min__energy>  (31) 
-8.9900000000000002

>  <m_primary>  (31) 
energy

>  <rmsd>  (31) 
5.835749393644422

>  <m_score__min__rmsd>  (31) 
5.835749393644422

>  <meeko>  (31) 
{"free_energy": -8.98, "intermolecular_energy": -9.88, "internal_energy": -0.79, "cluster_size": 49, "cluster_id": 1, "rank_in_cluster": 2}

>  <energy>  (31) 
-8.87

>  <cluster_rmsd>  (31) 
0.35

>  <cluster>  (31) 
1

$$$$

     RDKit          3D

 57 61  0  0  0  0  0  0  0  0999 V2000
  142.8640   74.5490  220.2000 O   0  0  0  0  0  0  0  0  0  0  0  0
  141.8250   74.3060  220.8670 C   0  0  0  0  0  0  0  0  0  0  0  0
  141.4530   72.8930  221.0640 C   0  0  0  0  0  0  0  0  0  0  0  0
  140.2130   72.7600  221.8630 C   0  0  0  0  0  0  0  0  0  0  0  0
  139.7330   71.4020  222.1330 C   0  0  0  0  0  0  0  0  0  0  0  0
  139.1770   70.6020  221.1730 C   0  0  0  0  0  0  0  0  0  0  0  0
  138.7170   69.3220  221.3990 C   0  0  0  0  0  0  0  0  0  0  0  0
  138.8170   68.8020  222.6670 C   0  0  0  0  0  0  0  0  0  0  0  0
  139.3770   69.5790  223.6810 C   0  0  0  0  0  0  0  0  0  0  0  0
  139.4530   68.9650  225.0030 C   0  0  0  0  0  0  0  0  0  0  0  0
  139.1980   67.7360  225.0720 O   0  0  0  0  0  0  0  0  0  0  0  0
  139.8000   69.7200  226.1580 N   0  0  0  0  0  0  0  0  0  0  0  0
  140.1230   71.1460  226.2450 C   0  0  0  0  0  0  0  0  0  0  0  0
  141.0550   71.2800  227.4090 C   0  0  0  0  0  0  0  0  0  0  0  0
  141.0830   69.9530  228.0900 C   0  0  0  0  0  0  0  0  0  0  0  0
  139.9020   69.2200  227.4950 C   0  0  0  0  0  0  0  0  0  0  0  0
  139.8280   70.8570  223.4190 C   0  0  0  0  0  0  0  0  0  0  0  0
  139.5480   73.7640  222.3270 N   0  0  0  0  0  0  0  0  0  0  0  0
  139.9200   75.1220  222.1270 C   0  0  0  0  0  0  0  0  0  0  0  0
  139.1980   76.1820  222.6280 C   0  0  0  0  0  0  0  0  0  0  0  0
  139.5970   77.5060  222.4100 C   0  0  0  0  0  0  0  0  0  0  0  0
  140.7310   77.7970  221.6830 C   0  0  0  0  0  0  0  0  0  0  0  0
  141.0880   79.1550  221.4940 N   0  0  0  0  0  0  0  0  0  0  0  0
  140.9310   80.0530  222.6140 C   0  0  0  0  0  0  0  0  0  0  0  0
  141.7600   81.2970  222.3080 C   0  0  0  0  0  0  0  0  0  0  0  0
  141.2760   82.0050  221.0710 C   0  0  0  0  0  0  0  0  0  0  0  0
  140.9690   81.0470  219.9660 C   0  0  0  0  0  0  0  0  0  0  0  0
  141.5980   79.7000  220.2570 C   0  0  0  0  0  0  0  0  0  0  0  0
  141.4480   76.7330  221.1860 C   0  0  0  0  0  0  0  0  0  0  0  0
  141.0530   75.4240  221.4020 C   0  0  0  0  0  0  0  0  0  0  0  0
  141.2957   72.4253  220.0809 H   0  0  0  0  0  0  0  0  0  0  0  0
  142.2683   72.3964  221.6104 H   0  0  0  0  0  0  0  0  0  0  0  0
  139.0912   71.0064  220.1536 H   0  0  0  0  0  0  0  0  0  0  0  0
  138.2794   68.7298  220.5818 H   0  0  0  0  0  0  0  0  0  0  0  0
  138.4593   67.7839  222.8801 H   0  0  0  0  0  0  0  0  0  0  0  0
  140.6128   71.4854  225.3204 H   0  0  0  0  0  0  0  0  0  0  0  0
  139.2195   71.7597  226.3756 H   0  0  0  0  0  0  0  0  0  0  0  0
  142.0628   71.5479  227.0589 H   0  0  0  0  0  0  0  0  0  0  0  0
  140.7191   72.0706  228.0961 H   0  0  0  0  0  0  0  0  0  0  0  0
  142.0224   69.4221  227.8762 H   0  0  0  0  0  0  0  0  0  0  0  0
  141.0262   70.0347  229.1855 H   0  0  0  0  0  0  0  0  0  0  0  0
  140.0812   68.1347  227.4906 H   0  0  0  0  0  0  0  0  0  0  0  0
  138.9789   69.3812  228.0711 H   0  0  0  0  0  0  0  0  0  0  0  0
  140.2676   71.4548  224.2310 H   0  0  0  0  0  0  0  0  0  0  0  0
  138.2874   75.9841  223.2125 H   0  0  0  0  0  0  0  0  0  0  0  0
  138.9954   78.3277  222.8259 H   0  0  0  0  0  0  0  0  0  0  0  0
  139.8720   80.3250  222.7346 H   0  0  0  0  0  0  0  0  0  0  0  0
  141.2659   79.5780  223.5479 H   0  0  0  0  0  0  0  0  0  0  0  0
  141.6933   81.9874  223.1617 H   0  0  0  0  0  0  0  0  0  0  0  0
  142.7988   80.9796  222.1342 H   0  0  0  0  0  0  0  0  0  0  0  0
  140.3638   82.5682  221.3173 H   0  0  0  0  0  0  0  0  0  0  0  0
  142.0760   82.6774  220.7275 H   0  0  0  0  0  0  0  0  0  0  0  0
  139.8788   80.9286  219.8792 H   0  0  0  0  0  0  0  0  0  0  0  0
  141.3783   81.4401  219.0237 H   0  0  0  0  0  0  0  0  0  0  0  0
  141.3657   79.0077  219.4344 H   0  0  0  0  0  0  0  0  0  0  0  0
  142.6863   79.8305  220.3500 H   0  0  0  0  0  0  0  0  0  0  0  0
  142.3593   76.9277  220.6015 H   0  0  0  0  0  0  0  0  0  0  0  0
  1  2  2  0
  2  3  1  0
  3  4  1  0
  4  5  1  0
  5  6  2  0
  6  7  1  0
  7  8  2  0
  8  9  1  0
  9 10  1  0
 10 11  2  0
 10 12  1  0
 12 13  1  0
 13 14  1  0
 14 15  1  0
 15 16  1  0
  9 17  2  0
  4 18  2  0
 18 19  1  0
 19 20  2  0
 20 21  1  0
 21 22  2  0
 22 23  1  0
 23 24  1  0
 24 25  1  0
 25 26  1  0
 26 27  1  0
 27 28  1  0
 22 29  1  0
 29 30  2  0
 30  2  1  0
 17  5  1  0
 30 19  1  0
 16 12  1  0
 28 23  1  0
  3 31  1  0
  3 32  1  0
  6 33  1  0
  7 34  1  0
  8 35  1  0
 13 36  1  0
 13 37  1  0
 14 38  1  0
 14 39  1  0
 15 40  1  0
 15 41  1  0
 16 42  1  0
 16 43  1  0
 17 44  1  0
 20 45  1  0
 21 46  1  0
 24 47  1  0
 24 48  1  0
 25 49  1  0
 25 50  1  0
 26 51  1  0
 26 52  1  0
 27 53  1  0
 27 54  1  0
 28 55  1  0
 28 56  1  0
 29 57  1  0
M  END
>  <smiles>  (32) 
O=C1CC(c2cccc(C(=O)N3CCCC3)c2)=Nc2ccc(N3CCCCC3)cc21

>  <score_type>  (32) 
oracle

>  <origin>  (32) 
autodockgpu

>  <m_score__min__energy>  (32) 
-8.9900000000000002

>  <m_primary>  (32) 
energy

>  <rmsd>  (32) 
5.835274936465717

>  <m_score__min__rmsd>  (32) 
5.835274936465717

>  <meeko>  (32) 
{"free_energy": -8.97, "intermolecular_energy": -9.87, "internal_energy": -0.79, "cluster_size": 49, "cluster_id": 1, "rank_in_cluster": 9}

>  <energy>  (32) 
-8.85

>  <cluster_rmsd>  (32) 
0.32

>  <cluster>  (32) 
1

$$$$

     RDKit          3D

 57 61  0  0  0  0  0  0  0  0999 V2000
  142.8690   74.5460  220.2230 O   0  0  0  0  0  0  0  0  0  0  0  0
  141.8310   74.3020  220.8910 C   0  0  0  0  0  0  0  0  0  0  0  0
  141.4610   72.8890  221.0890 C   0  0  0  0  0  0  0  0  0  0  0  0
  140.2230   72.7550  221.8910 C   0  0  0  0  0  0  0  0  0  0  0  0
  139.7440   71.3970  222.1610 C   0  0  0  0  0  0  0  0  0  0  0  0
  139.1940   70.5930  221.2020 C   0  0  0  0  0  0  0  0  0  0  0  0
  138.7360   69.3130  221.4290 C   0  0  0  0  0  0  0  0  0  0  0  0
  138.8310   68.7960  222.6980 C   0  0  0  0  0  0  0  0  0  0  0  0
  139.3850   69.5770  223.7130 C   0  0  0  0  0  0  0  0  0  0  0  0
  139.4570   68.9660  225.0370 C   0  0  0  0  0  0  0  0  0  0  0  0
  139.2010   67.7370  225.1080 O   0  0  0  0  0  0  0  0  0  0  0  0
  139.8000   69.7240  226.1910 N   0  0  0  0  0  0  0  0  0  0  0  0
  140.1230   71.1500  226.2750 C   0  0  0  0  0  0  0  0  0  0  0  0
  141.0520   71.2870  227.4420 C   0  0  0  0  0  0  0  0  0  0  0  0
  141.0770   69.9620  228.1270 C   0  0  0  0  0  0  0  0  0  0  0  0
  139.8980   69.2280  227.5290 C   0  0  0  0  0  0  0  0  0  0  0  0
  139.8350   70.8550  223.4500 C   0  0  0  0  0  0  0  0  0  0  0  0
  139.5570   73.7590  222.3550 N   0  0  0  0  0  0  0  0  0  0  0  0
  139.9280   75.1170  222.1540 C   0  0  0  0  0  0  0  0  0  0  0  0
  139.2060   76.1760  222.6560 C   0  0  0  0  0  0  0  0  0  0  0  0
  139.6030   77.5010  222.4370 C   0  0  0  0  0  0  0  0  0  0  0  0
  140.7360   77.7920  221.7080 C   0  0  0  0  0  0  0  0  0  0  0  0
  141.0910   79.1510  221.5180 N   0  0  0  0  0  0  0  0  0  0  0  0
  140.9530   80.0450  222.6430 C   0  0  0  0  0  0  0  0  0  0  0  0
  141.7780   81.2890  222.3280 C   0  0  0  0  0  0  0  0  0  0  0  0
  141.2750   82.0020  221.1010 C   0  0  0  0  0  0  0  0  0  0  0  0
  140.9490   81.0480  219.9990 C   0  0  0  0  0  0  0  0  0  0  0  0
  141.5810   79.7000  220.2750 C   0  0  0  0  0  0  0  0  0  0  0  0
  141.4530   76.7290  221.2100 C   0  0  0  0  0  0  0  0  0  0  0  0
  141.0590   75.4200  221.4270 C   0  0  0  0  0  0  0  0  0  0  0  0
  141.3018   72.4210  220.1064 H   0  0  0  0  0  0  0  0  0  0  0  0
  142.2781   72.3932  221.6335 H   0  0  0  0  0  0  0  0  0  0  0  0
  139.1114   70.9943  220.1811 H   0  0  0  0  0  0  0  0  0  0  0  0
  138.3035   68.7180  220.6111 H   0  0  0  0  0  0  0  0  0  0  0  0
  138.4743   67.7776  222.9117 H   0  0  0  0  0  0  0  0  0  0  0  0
  140.6157   71.4868  225.3509 H   0  0  0  0  0  0  0  0  0  0  0  0
  139.2193   71.7643  226.4011 H   0  0  0  0  0  0  0  0  0  0  0  0
  142.0611   71.5532  227.0942 H   0  0  0  0  0  0  0  0  0  0  0  0
  140.7146   72.0799  228.1257 H   0  0  0  0  0  0  0  0  0  0  0  0
  142.0171   69.4302  227.9186 H   0  0  0  0  0  0  0  0  0  0  0  0
  141.0160   70.0466  229.2220 H   0  0  0  0  0  0  0  0  0  0  0  0
  140.0771   68.1427  227.5279 H   0  0  0  0  0  0  0  0  0  0  0  0
  138.9730   69.3915  228.1015 H   0  0  0  0  0  0  0  0  0  0  0  0
  140.2705   71.4555  224.2623 H   0  0  0  0  0  0  0  0  0  0  0  0
  138.2968   75.9771  223.2423 H   0  0  0  0  0  0  0  0  0  0  0  0
  139.0012   78.3223  222.8533 H   0  0  0  0  0  0  0  0  0  0  0  0
  139.8963   80.3176  222.7815 H   0  0  0  0  0  0  0  0  0  0  0  0
  141.3025   79.5665  223.5698 H   0  0  0  0  0  0  0  0  0  0  0  0
  141.7257   81.9765  223.1851 H   0  0  0  0  0  0  0  0  0  0  0  0
  142.8135   80.9711  222.1364 H   0  0  0  0  0  0  0  0  0  0  0  0
  140.3677   82.5658  221.3637 H   0  0  0  0  0  0  0  0  0  0  0  0
  142.0700   82.6746  220.7466 H   0  0  0  0  0  0  0  0  0  0  0  0
  139.8574   80.9309  219.9299 H   0  0  0  0  0  0  0  0  0  0  0  0
  141.3433   81.4437  219.0514 H   0  0  0  0  0  0  0  0  0  0  0  0
  141.3345   79.0108  219.4539 H   0  0  0  0  0  0  0  0  0  0  0  0
  142.6707   79.8293  220.3508 H   0  0  0  0  0  0  0  0  0  0  0  0
  142.3632   76.9243  220.6241 H   0  0  0  0  0  0  0  0  0  0  0  0
  1  2  2  0
  2  3  1  0
  3  4  1  0
  4  5  1  0
  5  6  2  0
  6  7  1  0
  7  8  2  0
  8  9  1  0
  9 10  1  0
 10 11  2  0
 10 12  1  0
 12 13  1  0
 13 14  1  0
 14 15  1  0
 15 16  1  0
  9 17  2  0
  4 18  2  0
 18 19  1  0
 19 20  2  0
 20 21  1  0
 21 22  2  0
 22 23  1  0
 23 24  1  0
 24 25  1  0
 25 26  1  0
 26 27  1  0
 27 28  1  0
 22 29  1  0
 29 30  2  0
 30  2  1  0
 17  5  1  0
 30 19  1  0
 16 12  1  0
 28 23  1  0
  3 31  1  0
  3 32  1  0
  6 33  1  0
  7 34  1  0
  8 35  1  0
 13 36  1  0
 13 37  1  0
 14 38  1  0
 14 39  1  0
 15 40  1  0
 15 41  1  0
 16 42  1  0
 16 43  1  0
 17 44  1  0
 20 45  1  0
 21 46  1  0
 24 47  1  0
 24 48  1  0
 25 49  1  0
 25 50  1  0
 26 51  1  0
 26 52  1  0
 27 53  1  0
 27 54  1  0
 28 55  1  0
 28 56  1  0
 29 57  1  0
M  END
>  <smiles>  (33) 
O=C1CC(c2cccc(C(=O)N3CCCC3)c2)=Nc2ccc(N3CCCCC3)cc21

>  <score_type>  (33) 
oracle

>  <origin>  (33) 
autodockgpu

>  <m_score__min__energy>  (33) 
-8.9900000000000002

>  <m_primary>  (33) 
energy

>  <rmsd>  (33) 
5.840613516891962

>  <m_score__min__rmsd>  (33) 
5.840613516891962

>  <meeko>  (33) 
{"free_energy": -8.98, "intermolecular_energy": -9.87, "internal_energy": -0.79, "cluster_size": 49, "cluster_id": 1, "rank_in_cluster": 6}

>  <energy>  (33) 
-8.85

>  <cluster_rmsd>  (33) 
0.32

>  <cluster>  (33) 
1

$$$$

     RDKit          3D

 57 61  0  0  0  0  0  0  0  0999 V2000
  142.9080   74.9550  220.0470 O   0  0  0  0  0  0  0  0  0  0  0  0
  141.9100   74.6520  220.7520 C   0  0  0  0  0  0  0  0  0  0  0  0
  141.6070   73.2200  220.9280 C   0  0  0  0  0  0  0  0  0  0  0  0
  140.4110   73.0160  221.7770 C   0  0  0  0  0  0  0  0  0  0  0  0
  140.0000   71.6320  222.0320 C   0  0  0  0  0  0  0  0  0  0  0  0
  139.7310   70.7360  221.0350 C   0  0  0  0  0  0  0  0  0  0  0  0
  139.3430   69.4300  221.2460 C   0  0  0  0  0  0  0  0  0  0  0  0
  139.2130   68.9850  222.5390 C   0  0  0  0  0  0  0  0  0  0  0  0
  139.4750   69.8610  223.5930 C   0  0  0  0  0  0  0  0  0  0  0  0
  139.3180   69.3220  224.9400 C   0  0  0  0  0  0  0  0  0  0  0  0
  138.8320   68.1660  225.0340 O   0  0  0  0  0  0  0  0  0  0  0  0
  139.6960   70.0670  226.0910 N   0  0  0  0  0  0  0  0  0  0  0  0
  140.2730   71.4130  226.1500 C   0  0  0  0  0  0  0  0  0  0  0  0
  141.1070   71.4420  227.3930 C   0  0  0  0  0  0  0  0  0  0  0  0
  140.8250   70.1750  228.1280 C   0  0  0  0  0  0  0  0  0  0  0  0
  139.5850   69.6370  227.4510 C   0  0  0  0  0  0  0  0  0  0  0  0
  139.8630   71.1620  223.3440 C   0  0  0  0  0  0  0  0  0  0  0  0
  139.7250   73.9790  222.2950 N   0  0  0  0  0  0  0  0  0  0  0  0
  140.0310   75.3550  222.1140 C   0  0  0  0  0  0  0  0  0  0  0  0
  139.2880   76.3720  222.6730 C   0  0  0  0  0  0  0  0  0  0  0  0
  139.6220   77.7170  222.4720 C   0  0  0  0  0  0  0  0  0  0  0  0
  140.7090   78.0730  221.7040 C   0  0  0  0  0  0  0  0  0  0  0  0
  141.0010   79.4490  221.5350 N   0  0  0  0  0  0  0  0  0  0  0  0
  140.6790   80.3420  222.6230 C   0  0  0  0  0  0  0  0  0  0  0  0
  141.4580   81.6330  222.3850 C   0  0  0  0  0  0  0  0  0  0  0  0
  141.0570   82.3020  221.0970 C   0  0  0  0  0  0  0  0  0  0  0  0
  140.9190   81.3210  219.9800 C   0  0  0  0  0  0  0  0  0  0  0  0
  141.5960   80.0170  220.3470 C   0  0  0  0  0  0  0  0  0  0  0  0
  141.4470   77.0520  221.1490 C   0  0  0  0  0  0  0  0  0  0  0  0
  141.1170   75.7230  221.3480 C   0  0  0  0  0  0  0  0  0  0  0  0
  141.4251   72.7697  219.9410 H   0  0  0  0  0  0  0  0  0  0  0  0
  142.4662   72.7451  221.4243 H   0  0  0  0  0  0  0  0  0  0  0  0
  139.8308   71.0801  219.9950 H   0  0  0  0  0  0  0  0  0  0  0  0
  139.1420   68.7592  220.3977 H   0  0  0  0  0  0  0  0  0  0  0  0
  138.9054   67.9485  222.7415 H   0  0  0  0  0  0  0  0  0  0  0  0
  140.8977   71.6017  225.2645 H   0  0  0  0  0  0  0  0  0  0  0  0
  139.4932   72.1887  226.1660 H   0  0  0  0  0  0  0  0  0  0  0  0
  142.1741   71.4996  227.1323 H   0  0  0  0  0  0  0  0  0  0  0  0
  140.8662   72.3198  228.0107 H   0  0  0  0  0  0  0  0  0  0  0  0
  141.6632   69.4695  228.0296 H   0  0  0  0  0  0  0  0  0  0  0  0
  140.6878   70.3301  229.2083 H   0  0  0  0  0  0  0  0  0  0  0  0
  139.5571   68.5389  227.5093 H   0  0  0  0  0  0  0  0  0  0  0  0
  138.6617   69.9988  227.9270 H   0  0  0  0  0  0  0  0  0  0  0  0
  140.0673   71.8384  224.1871 H   0  0  0  0  0  0  0  0  0  0  0  0
  138.4130   76.1217  223.2909 H   0  0  0  0  0  0  0  0  0  0  0  0
  139.0063   78.5023  222.9349 H   0  0  0  0  0  0  0  0  0  0  0  0
  139.5987   80.5491  222.6348 H   0  0  0  0  0  0  0  0  0  0  0  0
  140.9470   79.8942  223.5913 H   0  0  0  0  0  0  0  0  0  0  0  0
  141.2652   82.3235  223.2193 H   0  0  0  0  0  0  0  0  0  0  0  0
  142.5262   81.3790  222.3188 H   0  0  0  0  0  0  0  0  0  0  0  0
  140.0927   82.8101  221.2453 H   0  0  0  0  0  0  0  0  0  0  0  0
  141.8454   83.0194  220.8254 H   0  0  0  0  0  0  0  0  0  0  0  0
  139.8518   81.1357  219.7881 H   0  0  0  0  0  0  0  0  0  0  0  0
  141.3951   81.7328  219.0779 H   0  0  0  0  0  0  0  0  0  0  0  0
  141.4874   79.3069  219.5140 H   0  0  0  0  0  0  0  0  0  0  0  0
  142.6600   80.2143  220.5442 H   0  0  0  0  0  0  0  0  0  0  0  0
  142.3226   77.2993  220.5307 H   0  0  0  0  0  0  0  0  0  0  0  0
  1  2  2  0
  2  3  1  0
  3  4  1  0
  4  5  1  0
  5  6  2  0
  6  7  1  0
  7  8  2  0
  8  9  1  0
  9 10  1  0
 10 11  2  0
 10 12  1  0
 12 13  1  0
 13 14  1  0
 14 15  1  0
 15 16  1  0
  9 17  2  0
  4 18  2  0
 18 19  1  0
 19 20  2  0
 20 21  1  0
 21 22  2  0
 22 23  1  0
 23 24  1  0
 24 25  1  0
 25 26  1  0
 26 27  1  0
 27 28  1  0
 22 29  1  0
 29 30  2  0
 30  2  1  0
 17  5  1  0
 30 19  1  0
 16 12  1  0
 28 23  1  0
  3 31  1  0
  3 32  1  0
  6 33  1  0
  7 34  1  0
  8 35  1  0
 13 36  1  0
 13 37  1  0
 14 38  1  0
 14 39  1  0
 15 40  1  0
 15 41  1  0
 16 42  1  0
 16 43  1  0
 17 44  1  0
 20 45  1  0
 21 46  1  0
 24 47  1  0
 24 48  1  0
 25 49  1  0
 25 50  1  0
 26 51  1  0
 26 52  1  0
 27 53  1  0
 27 54  1  0
 28 55  1  0
 28 56  1  0
 29 57  1  0
M  END
>  <smiles>  (34) 
O=C1CC(c2cccc(C(=O)N3CCCC3)c2)=Nc2ccc(N3CCCCC3)cc21

>  <score_type>  (34) 
oracle

>  <origin>  (34) 
autodockgpu

>  <m_score__min__energy>  (34) 
-8.9900000000000002

>  <m_primary>  (34) 
energy

>  <rmsd>  (34) 
5.847892616148641

>  <m_score__min__rmsd>  (34) 
5.847892616148641

>  <meeko>  (34) 
{"free_energy": -8.84, "intermolecular_energy": -9.73, "internal_energy": -0.78, "cluster_size": 49, "cluster_id": 1, "rank_in_cluster": 34}

>  <energy>  (34) 
-8.84

>  <cluster_rmsd>  (34) 
0.37

>  <cluster>  (34) 
1

$$$$

     RDKit          3D

 57 61  0  0  0  0  0  0  0  0999 V2000
  143.0150   74.7820  219.9180 O   0  0  0  0  0  0  0  0  0  0  0  0
  142.0140   74.5140  220.6320 C   0  0  0  0  0  0  0  0  0  0  0  0
  141.6800   73.0930  220.8340 C   0  0  0  0  0  0  0  0  0  0  0  0
  140.4820   72.9290  221.6900 C   0  0  0  0  0  0  0  0  0  0  0  0
  140.0420   71.5590  221.9710 C   0  0  0  0  0  0  0  0  0  0  0  0
  139.7350   70.6570  220.9910 C   0  0  0  0  0  0  0  0  0  0  0  0
  139.3190   69.3640  221.2260 C   0  0  0  0  0  0  0  0  0  0  0  0
  139.1990   68.9400  222.5270 C   0  0  0  0  0  0  0  0  0  0  0  0
  139.5000   69.8230  223.5640 C   0  0  0  0  0  0  0  0  0  0  0  0
  139.3520   69.3060  224.9210 C   0  0  0  0  0  0  0  0  0  0  0  0
  138.8730   68.1490  225.0370 O   0  0  0  0  0  0  0  0  0  0  0  0
  139.7320   70.0730  226.0580 N   0  0  0  0  0  0  0  0  0  0  0  0
  140.3010   71.4220  226.0910 C   0  0  0  0  0  0  0  0  0  0  0  0
  141.1410   71.4780  227.3290 C   0  0  0  0  0  0  0  0  0  0  0  0
  140.8690   70.2220  228.0870 C   0  0  0  0  0  0  0  0  0  0  0  0
  139.6290   69.6650  227.4250 C   0  0  0  0  0  0  0  0  0  0  0  0
  139.9150   71.1110  223.2910 C   0  0  0  0  0  0  0  0  0  0  0  0
  139.8190   73.9160  222.1930 N   0  0  0  0  0  0  0  0  0  0  0  0
  140.1550   75.2820  221.9870 C   0  0  0  0  0  0  0  0  0  0  0  0
  139.4370   76.3240  222.5300 C   0  0  0  0  0  0  0  0  0  0  0  0
  139.7980   77.6580  222.3040 C   0  0  0  0  0  0  0  0  0  0  0  0
  140.8910   77.9760  221.5270 C   0  0  0  0  0  0  0  0  0  0  0  0
  141.2120   79.3430  221.3330 N   0  0  0  0  0  0  0  0  0  0  0  0
  140.9920   80.2480  222.4360 C   0  0  0  0  0  0  0  0  0  0  0  0
  141.7910   81.5130  222.1400 C   0  0  0  0  0  0  0  0  0  0  0  0
  141.3250   82.1920  220.8800 C   0  0  0  0  0  0  0  0  0  0  0  0
  141.0810   81.2130  219.7790 C   0  0  0  0  0  0  0  0  0  0  0  0
  141.7420   79.8900  220.1050 C   0  0  0  0  0  0  0  0  0  0  0  0
  141.6040   76.9300  220.9880 C   0  0  0  0  0  0  0  0  0  0  0  0
  141.2460   75.6130  221.2110 C   0  0  0  0  0  0  0  0  0  0  0  0
  141.4853   72.6298  219.8555 H   0  0  0  0  0  0  0  0  0  0  0  0
  142.5301   72.6086  221.3367 H   0  0  0  0  0  0  0  0  0  0  0  0
  139.8260   70.9848  219.9449 H   0  0  0  0  0  0  0  0  0  0  0  0
  139.0883   68.6869  220.3904 H   0  0  0  0  0  0  0  0  0  0  0  0
  138.8689   67.9144  222.7488 H   0  0  0  0  0  0  0  0  0  0  0  0
  140.9202   71.5989  225.1992 H   0  0  0  0  0  0  0  0  0  0  0  0
  139.5166   72.1931  226.0978 H   0  0  0  0  0  0  0  0  0  0  0  0
  142.2065   71.5369  227.0621 H   0  0  0  0  0  0  0  0  0  0  0  0
  140.8989   72.3653  227.9324 H   0  0  0  0  0  0  0  0  0  0  0  0
  141.7107   69.5196  227.9972 H   0  0  0  0  0  0  0  0  0  0  0  0
  140.7353   70.3953  229.1650 H   0  0  0  0  0  0  0  0  0  0  0  0
  139.6080   68.5679  227.5017 H   0  0  0  0  0  0  0  0  0  0  0  0
  138.7054   70.0286  227.8991 H   0  0  0  0  0  0  0  0  0  0  0  0
  140.1488   71.7938  224.1212 H   0  0  0  0  0  0  0  0  0  0  0  0
  138.5596   76.1034  223.1557 H   0  0  0  0  0  0  0  0  0  0  0  0
  139.2001   78.4645  222.7535 H   0  0  0  0  0  0  0  0  0  0  0  0
  139.9218   80.4880  222.5202 H   0  0  0  0  0  0  0  0  0  0  0  0
  141.3116   79.7947  223.3859 H   0  0  0  0  0  0  0  0  0  0  0  0
  141.6765   82.2107  222.9827 H   0  0  0  0  0  0  0  0  0  0  0  0
  142.8437   81.2255  222.0018 H   0  0  0  0  0  0  0  0  0  0  0  0
  140.3894   82.7306  221.0911 H   0  0  0  0  0  0  0  0  0  0  0  0
  142.1150   82.8840  220.5528 H   0  0  0  0  0  0  0  0  0  0  0  0
  139.9981   81.0597  219.6614 H   0  0  0  0  0  0  0  0  0  0  0  0
  141.5060   81.6079  218.8445 H   0  0  0  0  0  0  0  0  0  0  0  0
  141.5561   79.1816  219.2843 H   0  0  0  0  0  0  0  0  0  0  0  0
  142.8224   80.0556  220.2289 H   0  0  0  0  0  0  0  0  0  0  0  0
  142.4826   77.1472  220.3628 H   0  0  0  0  0  0  0  0  0  0  0  0
  1  2  2  0
  2  3  1  0
  3  4  1  0
  4  5  1  0
  5  6  2  0
  6  7  1  0
  7  8  2  0
  8  9  1  0
  9 10  1  0
 10 11  2  0
 10 12  1  0
 12 13  1  0
 13 14  1  0
 14 15  1  0
 15 16  1  0
  9 17  2  0
  4 18  2  0
 18 19  1  0
 19 20  2  0
 20 21  1  0
 21 22  2  0
 22 23  1  0
 23 24  1  0
 24 25  1  0
 25 26  1  0
 26 27  1  0
 27 28  1  0
 22 29  1  0
 29 30  2  0
 30  2  1  0
 17  5  1  0
 30 19  1  0
 16 12  1  0
 28 23  1  0
  3 31  1  0
  3 32  1  0
  6 33  1  0
  7 34  1  0
  8 35  1  0
 13 36  1  0
 13 37  1  0
 14 38  1  0
 14 39  1  0
 15 40  1  0
 15 41  1  0
 16 42  1  0
 16 43  1  0
 17 44  1  0
 20 45  1  0
 21 46  1  0
 24 47  1  0
 24 48  1  0
 25 49  1  0
 25 50  1  0
 26 51  1  0
 26 52  1  0
 27 53  1  0
 27 54  1  0
 28 55  1  0
 28 56  1  0
 29 57  1  0
M  END
>  <smiles>  (35) 
O=C1CC(c2cccc(C(=O)N3CCCC3)c2)=Nc2ccc(N3CCCCC3)cc21

>  <score_type>  (35) 
oracle

>  <origin>  (35) 
autodockgpu

>  <m_score__min__energy>  (35) 
-8.9900000000000002

>  <m_primary>  (35) 
energy

>  <rmsd>  (35) 
5.823494454426638

>  <m_score__min__rmsd>  (35) 
5.823494454426638

>  <meeko>  (35) 
{"free_energy": -8.81, "intermolecular_energy": -9.7, "internal_energy": -0.76, "cluster_size": 49, "cluster_id": 1, "rank_in_cluster": 37}

>  <energy>  (35) 
-8.83

>  <cluster_rmsd>  (35) 
0.35

>  <cluster>  (35) 
1

$$$$

     RDKit          3D

 57 61  0  0  0  0  0  0  0  0999 V2000
  142.9350   74.9150  220.2450 O   0  0  0  0  0  0  0  0  0  0  0  0
  141.8990   74.6310  220.9010 C   0  0  0  0  0  0  0  0  0  0  0  0
  141.5700   73.2050  221.0750 C   0  0  0  0  0  0  0  0  0  0  0  0
  140.3290   73.0230  221.8640 C   0  0  0  0  0  0  0  0  0  0  0  0
  139.8890   71.6470  222.1110 C   0  0  0  0  0  0  0  0  0  0  0  0
  139.5320   70.7860  221.1110 C   0  0  0  0  0  0  0  0  0  0  0  0
  139.1140   69.4880  221.3150 C   0  0  0  0  0  0  0  0  0  0  0  0
  139.0470   69.0150  222.6030 C   0  0  0  0  0  0  0  0  0  0  0  0
  139.4010   69.8540  223.6590 C   0  0  0  0  0  0  0  0  0  0  0  0
  139.3070   69.2870  225.0000 C   0  0  0  0  0  0  0  0  0  0  0  0
  138.8600   68.1150  225.0890 O   0  0  0  0  0  0  0  0  0  0  0  0
  139.7040   70.0230  226.1520 N   0  0  0  0  0  0  0  0  0  0  0  0
  140.2410   71.3840  226.2160 C   0  0  0  0  0  0  0  0  0  0  0  0
  141.1170   71.4170  227.4300 C   0  0  0  0  0  0  0  0  0  0  0  0
  140.9000   70.1280  228.1500 C   0  0  0  0  0  0  0  0  0  0  0  0
  139.6540   69.5650  227.5060 C   0  0  0  0  0  0  0  0  0  0  0  0
  139.8150   71.1490  223.4170 C   0  0  0  0  0  0  0  0  0  0  0  0
  139.6300   74.0000  222.3360 N   0  0  0  0  0  0  0  0  0  0  0  0
  139.9610   75.3710  222.1580 C   0  0  0  0  0  0  0  0  0  0  0  0
  139.2040   76.4010  222.6670 C   0  0  0  0  0  0  0  0  0  0  0  0
  139.5630   77.7400  222.4700 C   0  0  0  0  0  0  0  0  0  0  0  0
  140.6930   78.0750  221.7560 C   0  0  0  0  0  0  0  0  0  0  0  0
  141.0090   79.4470  221.5890 N   0  0  0  0  0  0  0  0  0  0  0  0
  141.0140   80.2830  222.7650 C   0  0  0  0  0  0  0  0  0  0  0  0
  141.7800   81.5530  222.4060 C   0  0  0  0  0  0  0  0  0  0  0  0
  141.1130   82.3160  221.2930 C   0  0  0  0  0  0  0  0  0  0  0  0
  140.6520   81.4130  220.1970 C   0  0  0  0  0  0  0  0  0  0  0  0
  141.3260   80.0620  220.3200 C   0  0  0  0  0  0  0  0  0  0  0  0
  141.4460   77.0410  221.2500 C   0  0  0  0  0  0  0  0  0  0  0  0
  141.0890   75.7180  221.4450 C   0  0  0  0  0  0  0  0  0  0  0  0
  141.4334   72.7469  220.0843 H   0  0  0  0  0  0  0  0  0  0  0  0
  142.3968   72.7255  221.6194 H   0  0  0  0  0  0  0  0  0  0  0  0
  139.5815   71.1529  220.0752 H   0  0  0  0  0  0  0  0  0  0  0  0
  138.8402   68.8454  220.4652 H   0  0  0  0  0  0  0  0  0  0  0  0
  138.7172   67.9842  222.7994 H   0  0  0  0  0  0  0  0  0  0  0  0
  140.8282   71.6075  225.3131 H   0  0  0  0  0  0  0  0  0  0  0  0
  139.4390   72.1347  226.2734 H   0  0  0  0  0  0  0  0  0  0  0  0
  142.1720   71.5129  227.1338 H   0  0  0  0  0  0  0  0  0  0  0  0
  140.8712   72.2755  228.0723 H   0  0  0  0  0  0  0  0  0  0  0  0
  141.7552   69.4507  228.0087 H   0  0  0  0  0  0  0  0  0  0  0  0
  140.7968   70.2585  229.2373 H   0  0  0  0  0  0  0  0  0  0  0  0
  139.6611   68.4657  227.5438 H   0  0  0  0  0  0  0  0  0  0  0  0
  138.7376   69.8896  228.0206 H   0  0  0  0  0  0  0  0  0  0  0  0
  140.0902   71.7977  224.2617 H   0  0  0  0  0  0  0  0  0  0  0  0
  138.2958   76.1672  223.2420 H   0  0  0  0  0  0  0  0  0  0  0  0
  138.9331   78.5370  222.8918 H   0  0  0  0  0  0  0  0  0  0  0  0
  139.9829   80.5330  223.0552 H   0  0  0  0  0  0  0  0  0  0  0  0
  141.4870   79.7655  223.6126 H   0  0  0  0  0  0  0  0  0  0  0  0
  141.8358   82.1979  223.2954 H   0  0  0  0  0  0  0  0  0  0  0  0
  142.7838   81.2602  222.0644 H   0  0  0  0  0  0  0  0  0  0  0  0
  140.2437   82.8526  221.7009 H   0  0  0  0  0  0  0  0  0  0  0  0
  141.8490   83.0161  220.8709 H   0  0  0  0  0  0  0  0  0  0  0  0
  139.5618   81.2837  220.2660 H   0  0  0  0  0  0  0  0  0  0  0  0
  140.9143   81.8601  219.2268 H   0  0  0  0  0  0  0  0  0  0  0  0
  140.9784   79.4095  219.5056 H   0  0  0  0  0  0  0  0  0  0  0  0
  142.4151   80.2029  220.2574 H   0  0  0  0  0  0  0  0  0  0  0  0
  142.3553   77.2715  220.6756 H   0  0  0  0  0  0  0  0  0  0  0  0
  1  2  2  0
  2  3  1  0
  3  4  1  0
  4  5  1  0
  5  6  2  0
  6  7  1  0
  7  8  2  0
  8  9  1  0
  9 10  1  0
 10 11  2  0
 10 12  1  0
 12 13  1  0
 13 14  1  0
 14 15  1  0
 15 16  1  0
  9 17  2  0
  4 18  2  0
 18 19  1  0
 19 20  2  0
 20 21  1  0
 21 22  2  0
 22 23  1  0
 23 24  1  0
 24 25  1  0
 25 26  1  0
 26 27  1  0
 27 28  1  0
 22 29  1  0
 29 30  2  0
 30  2  1  0
 17  5  1  0
 30 19  1  0
 16 12  1  0
 28 23  1  0
  3 31  1  0
  3 32  1  0
  6 33  1  0
  7 34  1  0
  8 35  1  0
 13 36  1  0
 13 37  1  0
 14 38  1  0
 14 39  1  0
 15 40  1  0
 15 41  1  0
 16 42  1  0
 16 43  1  0
 17 44  1  0
 20 45  1  0
 21 46  1  0
 24 47  1  0
 24 48  1  0
 25 49  1  0
 25 50  1  0
 26 51  1  0
 26 52  1  0
 27 53  1  0
 27 54  1  0
 28 55  1  0
 28 56  1  0
 29 57  1  0
M  END
>  <smiles>  (36) 
O=C1CC(c2cccc(C(=O)N3CCCC3)c2)=Nc2ccc(N3CCCCC3)cc21

>  <score_type>  (36) 
oracle

>  <origin>  (36) 
autodockgpu

>  <m_score__min__energy>  (36) 
-8.9900000000000002

>  <m_primary>  (36) 
energy

>  <rmsd>  (36) 
5.868147547382901

>  <m_score__min__rmsd>  (36) 
5.868147547382901

>  <meeko>  (36) 
{"free_energy": -8.89, "intermolecular_energy": -9.79, "internal_energy": -0.76, "cluster_size": 49, "cluster_id": 1, "rank_in_cluster": 23}

>  <energy>  (36) 
-8.82

>  <cluster_rmsd>  (36) 
0.38

>  <cluster>  (36) 
1

$$$$

     RDKit          3D

 57 61  0  0  0  0  0  0  0  0999 V2000
  142.8970   74.6320  220.2360 O   0  0  0  0  0  0  0  0  0  0  0  0
  141.8610   74.3700  220.9010 C   0  0  0  0  0  0  0  0  0  0  0  0
  141.5130   72.9500  221.0940 C   0  0  0  0  0  0  0  0  0  0  0  0
  140.2750   72.7950  221.8920 C   0  0  0  0  0  0  0  0  0  0  0  0
  139.8170   71.4280  222.1580 C   0  0  0  0  0  0  0  0  0  0  0  0
  139.3190   70.6050  221.1860 C   0  0  0  0  0  0  0  0  0  0  0  0
  138.8810   69.3170  221.4070 C   0  0  0  0  0  0  0  0  0  0  0  0
  138.9430   68.8120  222.6840 C   0  0  0  0  0  0  0  0  0  0  0  0
  139.4430   69.6120  223.7100 C   0  0  0  0  0  0  0  0  0  0  0  0
  139.4810   69.0140  225.0410 C   0  0  0  0  0  0  0  0  0  0  0  0
  139.1950   67.7920  225.1200 O   0  0  0  0  0  0  0  0  0  0  0  0
  139.8250   69.7750  226.1930 N   0  0  0  0  0  0  0  0  0  0  0  0
  140.1810   71.1940  226.2680 C   0  0  0  0  0  0  0  0  0  0  0  0
  141.0950   71.3200  227.4470 C   0  0  0  0  0  0  0  0  0  0  0  0
  141.0790   70.0020  228.1450 C   0  0  0  0  0  0  0  0  0  0  0  0
  139.8920   69.2900  227.5370 C   0  0  0  0  0  0  0  0  0  0  0  0
  139.8740   70.8990  223.4520 C   0  0  0  0  0  0  0  0  0  0  0  0
  139.5930   73.7860  222.3590 N   0  0  0  0  0  0  0  0  0  0  0  0
  139.9430   75.1500  222.1640 C   0  0  0  0  0  0  0  0  0  0  0  0
  139.2040   76.1970  222.6680 C   0  0  0  0  0  0  0  0  0  0  0  0
  139.5810   77.5290  222.4540 C   0  0  0  0  0  0  0  0  0  0  0  0
  140.7110   77.8400  221.7280 C   0  0  0  0  0  0  0  0  0  0  0  0
  141.0450   79.2050  221.5440 N   0  0  0  0  0  0  0  0  0  0  0  0
  140.9830   80.0730  222.6960 C   0  0  0  0  0  0  0  0  0  0  0  0
  141.7780   81.3280  222.3510 C   0  0  0  0  0  0  0  0  0  0  0  0
  141.1860   82.0650  221.1780 C   0  0  0  0  0  0  0  0  0  0  0  0
  140.7870   81.1340  220.0810 C   0  0  0  0  0  0  0  0  0  0  0  0
  141.4440   79.7830  220.2820 C   0  0  0  0  0  0  0  0  0  0  0  0
  141.4450   76.7890  221.2280 C   0  0  0  0  0  0  0  0  0  0  0  0
  141.0710   75.4740  221.4400 C   0  0  0  0  0  0  0  0  0  0  0  0
  141.3640   72.4821  220.1097 H   0  0  0  0  0  0  0  0  0  0  0  0
  142.3363   72.4653  221.6391 H   0  0  0  0  0  0  0  0  0  0  0  0
  139.2644   70.9970  220.1597 H   0  0  0  0  0  0  0  0  0  0  0  0
  138.4903   68.7065  220.5796 H   0  0  0  0  0  0  0  0  0  0  0  0
  138.6017   67.7876  222.8939 H   0  0  0  0  0  0  0  0  0  0  0  0
  140.6954   71.5096  225.3483 H   0  0  0  0  0  0  0  0  0  0  0  0
  139.2906   71.8311  226.3743 H   0  0  0  0  0  0  0  0  0  0  0  0
  142.1151   71.5591  227.1119 H   0  0  0  0  0  0  0  0  0  0  0  0
  140.7658   72.1270  228.1181 H   0  0  0  0  0  0  0  0  0  0  0  0
  142.0092   69.4463  227.9555 H   0  0  0  0  0  0  0  0  0  0  0  0
  141.0043   70.0990  229.2382 H   0  0  0  0  0  0  0  0  0  0  0  0
  140.0456   68.2008  227.5488 H   0  0  0  0  0  0  0  0  0  0  0  0
  138.9630   69.4806  228.0943 H   0  0  0  0  0  0  0  0  0  0  0  0
  140.2668   71.5154  224.2740 H   0  0  0  0  0  0  0  0  0  0  0  0
  138.2969   75.9824  223.2520 H   0  0  0  0  0  0  0  0  0  0  0  0
  138.9658   78.3396  222.8717 H   0  0  0  0  0  0  0  0  0  0  0  0
  139.9377   80.3362  222.9151 H   0  0  0  0  0  0  0  0  0  0  0  0
  141.3991   79.5764  223.5850 H   0  0  0  0  0  0  0  0  0  0  0  0
  141.7836   81.9965  223.2246 H   0  0  0  0  0  0  0  0  0  0  0  0
  142.7986   81.0204  222.0796 H   0  0  0  0  0  0  0  0  0  0  0  0
  140.2972   82.6176  221.5167 H   0  0  0  0  0  0  0  0  0  0  0  0
  141.9512   82.7496  220.7834 H   0  0  0  0  0  0  0  0  0  0  0  0
  139.6938   81.0118  220.0867 H   0  0  0  0  0  0  0  0  0  0  0  0
  141.1109   81.5528  219.1168 H   0  0  0  0  0  0  0  0  0  0  0  0
  141.1435   79.1101  219.4654 H   0  0  0  0  0  0  0  0  0  0  0  0
  142.5358   79.9169  220.2833 H   0  0  0  0  0  0  0  0  0  0  0  0
  142.3532   76.9999  220.6443 H   0  0  0  0  0  0  0  0  0  0  0  0
  1  2  2  0
  2  3  1  0
  3  4  1  0
  4  5  1  0
  5  6  2  0
  6  7  1  0
  7  8  2  0
  8  9  1  0
  9 10  1  0
 10 11  2  0
 10 12  1  0
 12 13  1  0
 13 14  1  0
 14 15  1  0
 15 16  1  0
  9 17  2  0
  4 18  2  0
 18 19  1  0
 19 20  2  0
 20 21  1  0
 21 22  2  0
 22 23  1  0
 23 24  1  0
 24 25  1  0
 25 26  1  0
 26 27  1  0
 27 28  1  0
 22 29  1  0
 29 30  2  0
 30  2  1  0
 17  5  1  0
 30 19  1  0
 16 12  1  0
 28 23  1  0
  3 31  1  0
  3 32  1  0
  6 33  1  0
  7 34  1  0
  8 35  1  0
 13 36  1  0
 13 37  1  0
 14 38  1  0
 14 39  1  0
 15 40  1  0
 15 41  1  0
 16 42  1  0
 16 43  1  0
 17 44  1  0
 20 45  1  0
 21 46  1  0
 24 47  1  0
 24 48  1  0
 25 49  1  0
 25 50  1  0
 26 51  1  0
 26 52  1  0
 27 53  1  0
 27 54  1  0
 28 55  1  0
 28 56  1  0
 29 57  1  0
M  END
>  <smiles>  (37) 
O=C1CC(c2cccc(C(=O)N3CCCC3)c2)=Nc2ccc(N3CCCCC3)cc21

>  <score_type>  (37) 
oracle

>  <origin>  (37) 
autodockgpu

>  <m_score__min__energy>  (37) 
-8.9900000000000002

>  <m_primary>  (37) 
energy

>  <rmsd>  (37) 
5.848421171077418

>  <m_score__min__rmsd>  (37) 
5.848421171077418

>  <meeko>  (37) 
{"free_energy": -8.96, "intermolecular_energy": -9.85, "internal_energy": -0.78, "cluster_size": 49, "cluster_id": 1, "rank_in_cluster": 15}

>  <energy>  (37) 
-8.81

>  <cluster_rmsd>  (37) 
0.37

>  <cluster>  (37) 
1

$$$$

     RDKit          3D

 57 61  0  0  0  0  0  0  0  0999 V2000
  142.8460   75.1220  220.3280 O   0  0  0  0  0  0  0  0  0  0  0  0
  141.8150   74.7660  220.9570 C   0  0  0  0  0  0  0  0  0  0  0  0
  141.5760   73.3200  221.1140 C   0  0  0  0  0  0  0  0  0  0  0  0
  140.3310   73.0520  221.8720 C   0  0  0  0  0  0  0  0  0  0  0  0
  139.9760   71.6480  222.0990 C   0  0  0  0  0  0  0  0  0  0  0  0
  139.7730   70.7550  221.0840 C   0  0  0  0  0  0  0  0  0  0  0  0
  139.4370   69.4310  221.2690 C   0  0  0  0  0  0  0  0  0  0  0  0
  139.2940   68.9630  222.5520 C   0  0  0  0  0  0  0  0  0  0  0  0
  139.4910   69.8350  223.6230 C   0  0  0  0  0  0  0  0  0  0  0  0
  139.3230   69.2720  224.9590 C   0  0  0  0  0  0  0  0  0  0  0  0
  138.8350   68.1140  225.0280 O   0  0  0  0  0  0  0  0  0  0  0  0
  139.6930   69.9950  226.1260 N   0  0  0  0  0  0  0  0  0  0  0  0
  140.2690   71.3390  226.2150 C   0  0  0  0  0  0  0  0  0  0  0  0
  141.0940   71.3450  227.4640 C   0  0  0  0  0  0  0  0  0  0  0  0
  140.8060   70.0650  228.1740 C   0  0  0  0  0  0  0  0  0  0  0  0
  139.5710   69.5400  227.4770 C   0  0  0  0  0  0  0  0  0  0  0  0
  139.8260   71.1550  223.4010 C   0  0  0  0  0  0  0  0  0  0  0  0
  139.5590   73.9770  222.3350 N   0  0  0  0  0  0  0  0  0  0  0  0
  139.8050   75.3680  222.1740 C   0  0  0  0  0  0  0  0  0  0  0  0
  138.9710   76.3430  222.6730 C   0  0  0  0  0  0  0  0  0  0  0  0
  139.2470   77.7040  222.4940 C   0  0  0  0  0  0  0  0  0  0  0  0
  140.3690   78.1180  221.8080 C   0  0  0  0  0  0  0  0  0  0  0  0
  140.5990   79.5080  221.6580 N   0  0  0  0  0  0  0  0  0  0  0  0
  141.1430   79.9670  220.4020 C   0  0  0  0  0  0  0  0  0  0  0  0
  140.8930   81.4710  220.3320 C   0  0  0  0  0  0  0  0  0  0  0  0
  141.5930   82.2100  221.4410 C   0  0  0  0  0  0  0  0  0  0  0  0
  141.4480   81.5110  222.7530 C   0  0  0  0  0  0  0  0  0  0  0  0
  140.3270   80.4940  222.6780 C   0  0  0  0  0  0  0  0  0  0  0  0
  141.1990   77.1380  221.3130 C   0  0  0  0  0  0  0  0  0  0  0  0
  140.9250   75.7940  221.4900 C   0  0  0  0  0  0  0  0  0  0  0  0
  141.4929   72.8616  220.1175 H   0  0  0  0  0  0  0  0  0  0  0  0
  142.4194   72.8907  221.6748 H   0  0  0  0  0  0  0  0  0  0  0  0
  139.8852   71.1170  220.0513 H   0  0  0  0  0  0  0  0  0  0  0  0
  139.2867   68.7638  220.4075 H   0  0  0  0  0  0  0  0  0  0  0  0
  139.0269   67.9115  222.7334 H   0  0  0  0  0  0  0  0  0  0  0  0
  140.9000   71.5446  225.3377 H   0  0  0  0  0  0  0  0  0  0  0  0
  139.4887   72.1139  226.2404 H   0  0  0  0  0  0  0  0  0  0  0  0
  142.1630   71.4066  227.2120 H   0  0  0  0  0  0  0  0  0  0  0  0
  140.8493   72.2116  228.0957 H   0  0  0  0  0  0  0  0  0  0  0  0
  141.6447   69.3610  228.0696 H   0  0  0  0  0  0  0  0  0  0  0  0
  140.6604   70.2004  229.2559 H   0  0  0  0  0  0  0  0  0  0  0  0
  139.5423   68.4410  227.5147 H   0  0  0  0  0  0  0  0  0  0  0  0
  138.6440   69.8933  227.9522 H   0  0  0  0  0  0  0  0  0  0  0  0
  139.9771   71.8284  224.2575 H   0  0  0  0  0  0  0  0  0  0  0  0
  138.0671   76.0460  223.2250 H   0  0  0  0  0  0  0  0  0  0  0  0
  138.5576   78.4549  222.9073 H   0  0  0  0  0  0  0  0  0  0  0  0
  142.2227   79.7609  220.3598 H   0  0  0  0  0  0  0  0  0  0  0  0
  140.6680   79.4497  219.5554 H   0  0  0  0  0  0  0  0  0  0  0  0
  141.2610   81.8478  219.3663 H   0  0  0  0  0  0  0  0  0  0  0  0
  139.8116   81.6415  220.4390 H   0  0  0  0  0  0  0  0  0  0  0  0
  142.6625   82.2890  221.1962 H   0  0  0  0  0  0  0  0  0  0  0  0
  141.1329   83.2050  221.5317 H   0  0  0  0  0  0  0  0  0  0  0  0
  142.3895   80.9978  222.9982 H   0  0  0  0  0  0  0  0  0  0  0  0
  141.2123   82.2510  223.5320 H   0  0  0  0  0  0  0  0  0  0  0  0
  140.2312   79.9899  223.6510 H   0  0  0  0  0  0  0  0  0  0  0  0
  139.3925   81.0161  222.4247 H   0  0  0  0  0  0  0  0  0  0  0  0
  142.1046   77.4316  220.7618 H   0  0  0  0  0  0  0  0  0  0  0  0
  1  2  2  0
  2  3  1  0
  3  4  1  0
  4  5  1  0
  5  6  2  0
  6  7  1  0
  7  8  2  0
  8  9  1  0
  9 10  1  0
 10 11  2  0
 10 12  1  0
 12 13  1  0
 13 14  1  0
 14 15  1  0
 15 16  1  0
  9 17  2  0
  4 18  2  0
 18 19  1  0
 19 20  2  0
 20 21  1  0
 21 22  2  0
 22 23  1  0
 23 24  1  0
 24 25  1  0
 25 26  1  0
 26 27  1  0
 27 28  1  0
 22 29  1  0
 29 30  2  0
 30  2  1  0
 17  5  1  0
 30 19  1  0
 16 12  1  0
 28 23  1  0
  3 31  1  0
  3 32  1  0
  6 33  1  0
  7 34  1  0
  8 35  1  0
 13 36  1  0
 13 37  1  0
 14 38  1  0
 14 39  1  0
 15 40  1  0
 15 41  1  0
 16 42  1  0
 16 43  1  0
 17 44  1  0
 20 45  1  0
 21 46  1  0
 24 47  1  0
 24 48  1  0
 25 49  1  0
 25 50  1  0
 26 51  1  0
 26 52  1  0
 27 53  1  0
 27 54  1  0
 28 55  1  0
 28 56  1  0
 29 57  1  0
M  END
>  <smiles>  (38) 
O=C1CC(c2cccc(C(=O)N3CCCC3)c2)=Nc2ccc(N3CCCCC3)cc21

>  <score_type>  (38) 
oracle

>  <origin>  (38) 
autodockgpu

>  <m_score__min__energy>  (38) 
-8.9900000000000002

>  <m_primary>  (38) 
energy

>  <rmsd>  (38) 
6.164798485767827

>  <m_score__min__rmsd>  (38) 
6.164798485767827

>  <meeko>  (38) 
{"free_energy": -8.77, "intermolecular_energy": -9.66, "internal_energy": -0.78, "cluster_size": 49, "cluster_id": 1, "rank_in_cluster": 41}

>  <energy>  (38) 
-8.79

>  <cluster_rmsd>  (38) 
0.41

>  <cluster>  (38) 
1

$$$$

     RDKit          3D

 57 61  0  0  0  0  0  0  0  0999 V2000
  142.9190   74.9090  220.1490 O   0  0  0  0  0  0  0  0  0  0  0  0
  141.9070   74.6130  220.8350 C   0  0  0  0  0  0  0  0  0  0  0  0
  141.5930   73.1830  221.0070 C   0  0  0  0  0  0  0  0  0  0  0  0
  140.3790   72.9860  221.8340 C   0  0  0  0  0  0  0  0  0  0  0  0
  139.9560   71.6050  222.0820 C   0  0  0  0  0  0  0  0  0  0  0  0
  139.6510   70.7250  221.0810 C   0  0  0  0  0  0  0  0  0  0  0  0
  139.2500   69.4220  221.2860 C   0  0  0  0  0  0  0  0  0  0  0  0
  139.1450   68.9630  222.5770 C   0  0  0  0  0  0  0  0  0  0  0  0
  139.4450   69.8220  223.6340 C   0  0  0  0  0  0  0  0  0  0  0  0
  139.3130   69.2690  224.9780 C   0  0  0  0  0  0  0  0  0  0  0  0
  138.8390   68.1070  225.0680 O   0  0  0  0  0  0  0  0  0  0  0  0
  139.7010   70.0070  226.1310 N   0  0  0  0  0  0  0  0  0  0  0  0
  140.2660   71.3570  226.1940 C   0  0  0  0  0  0  0  0  0  0  0  0
  141.1180   71.3830  227.4240 C   0  0  0  0  0  0  0  0  0  0  0  0
  140.8590   70.1060  228.1520 C   0  0  0  0  0  0  0  0  0  0  0  0
  139.6140   69.5620  227.4880 C   0  0  0  0  0  0  0  0  0  0  0  0
  139.8440   71.1210  223.3910 C   0  0  0  0  0  0  0  0  0  0  0  0
  139.6900   73.9540  222.3380 N   0  0  0  0  0  0  0  0  0  0  0  0
  140.0070   75.3280  222.1620 C   0  0  0  0  0  0  0  0  0  0  0  0
  139.2600   76.3490  222.7060 C   0  0  0  0  0  0  0  0  0  0  0  0
  139.6050   77.6920  222.5100 C   0  0  0  0  0  0  0  0  0  0  0  0
  140.7080   78.0410  221.7620 C   0  0  0  0  0  0  0  0  0  0  0  0
  141.0110   79.4160  221.5970 N   0  0  0  0  0  0  0  0  0  0  0  0
  140.7380   80.3010  222.7050 C   0  0  0  0  0  0  0  0  0  0  0  0
  141.5240   81.5840  222.4540 C   0  0  0  0  0  0  0  0  0  0  0  0
  141.0880   82.2720  221.1880 C   0  0  0  0  0  0  0  0  0  0  0  0
  140.8990   81.3050  220.0660 C   0  0  0  0  0  0  0  0  0  0  0  0
  141.5720   79.9890  220.3960 C   0  0  0  0  0  0  0  0  0  0  0  0
  141.4510   77.0160  221.2220 C   0  0  0  0  0  0  0  0  0  0  0  0
  141.1090   75.6890  221.4160 C   0  0  0  0  0  0  0  0  0  0  0  0
  141.4276   72.7324  220.0173 H   0  0  0  0  0  0  0  0  0  0  0  0
  142.4400   72.7044  221.5203 H   0  0  0  0  0  0  0  0  0  0  0  0
  139.7309   71.0803  220.0430 H   0  0  0  0  0  0  0  0  0  0  0  0
  139.0192   68.7643  220.4350 H   0  0  0  0  0  0  0  0  0  0  0  0
  138.8276   67.9285  222.7747 H   0  0  0  0  0  0  0  0  0  0  0  0
  140.8755   71.5596  225.3010 H   0  0  0  0  0  0  0  0  0  0  0  0
  139.4792   72.1249  226.2291 H   0  0  0  0  0  0  0  0  0  0  0  0
  142.1805   71.4532  227.1478 H   0  0  0  0  0  0  0  0  0  0  0  0
  140.8782   72.2529  228.0532 H   0  0  0  0  0  0  0  0  0  0  0  0
  141.7024   69.4096  228.0349 H   0  0  0  0  0  0  0  0  0  0  0  0
  140.7364   70.2500  229.2356 H   0  0  0  0  0  0  0  0  0  0  0  0
  139.5979   68.4631  227.5354 H   0  0  0  0  0  0  0  0  0  0  0  0
  138.6942   69.9092  227.9813 H   0  0  0  0  0  0  0  0  0  0  0  0
  140.0770   71.7845  224.2369 H   0  0  0  0  0  0  0  0  0  0  0  0
  138.3725   76.1042  223.3079 H   0  0  0  0  0  0  0  0  0  0  0  0
  138.9852   78.4811  222.9606 H   0  0  0  0  0  0  0  0  0  0  0  0
  139.6615   80.5212  222.7564 H   0  0  0  0  0  0  0  0  0  0  0  0
  141.0336   79.8393  223.6587 H   0  0  0  0  0  0  0  0  0  0  0  0
  141.3686   82.2676  223.3017 H   0  0  0  0  0  0  0  0  0  0  0  0
  142.5860   81.3175  222.3483 H   0  0  0  0  0  0  0  0  0  0  0  0
  140.1361   82.7907  221.3747 H   0  0  0  0  0  0  0  0  0  0  0  0
  141.8759   82.9823  220.8971 H   0  0  0  0  0  0  0  0  0  0  0  0
  139.8236   81.1347  219.9094 H   0  0  0  0  0  0  0  0  0  0  0  0
  141.3485   81.7207  219.1521 H   0  0  0  0  0  0  0  0  0  0  0  0
  141.4263   79.2892  219.5599 H   0  0  0  0  0  0  0  0  0  0  0  0
  142.6446   80.1712  220.5586 H   0  0  0  0  0  0  0  0  0  0  0  0
  142.3398   77.2577  220.6206 H   0  0  0  0  0  0  0  0  0  0  0  0
  1  2  2  0
  2  3  1  0
  3  4  1  0
  4  5  1  0
  5  6  2  0
  6  7  1  0
  7  8  2  0
  8  9  1  0
  9 10  1  0
 10 11  2  0
 10 12  1  0
 12 13  1  0
 13 14  1  0
 14 15  1  0
 15 16  1  0
  9 17  2  0
  4 18  2  0
 18 19  1  0
 19 20  2  0
 20 21  1  0
 21 22  2  0
 22 23  1  0
 23 24  1  0
 24 25  1  0
 25 26  1  0
 26 27  1  0
 27 28  1  0
 22 29  1  0
 29 30  2  0
 30  2  1  0
 17  5  1  0
 30 19  1  0
 16 12  1  0
 28 23  1  0
  3 31  1  0
  3 32  1  0
  6 33  1  0
  7 34  1  0
  8 35  1  0
 13 36  1  0
 13 37  1  0
 14 38  1  0
 14 39  1  0
 15 40  1  0
 15 41  1  0
 16 42  1  0
 16 43  1  0
 17 44  1  0
 20 45  1  0
 21 46  1  0
 24 47  1  0
 24 48  1  0
 25 49  1  0
 25 50  1  0
 26 51  1  0
 26 52  1  0
 27 53  1  0
 27 54  1  0
 28 55  1  0
 28 56  1  0
 29 57  1  0
M  END
>  <smiles>  (39) 
O=C1CC(c2cccc(C(=O)N3CCCC3)c2)=Nc2ccc(N3CCCCC3)cc21

>  <score_type>  (39) 
oracle

>  <origin>  (39) 
autodockgpu

>  <m_score__min__energy>  (39) 
-8.9900000000000002

>  <m_primary>  (39) 
energy

>  <rmsd>  (39) 
5.861291508146348

>  <m_score__min__rmsd>  (39) 
5.861291508146348

>  <meeko>  (39) 
{"free_energy": -8.88, "intermolecular_energy": -9.77, "internal_energy": -0.76, "cluster_size": 49, "cluster_id": 1, "rank_in_cluster": 27}

>  <energy>  (39) 
-8.79

>  <cluster_rmsd>  (39) 
0.34

>  <cluster>  (39) 
1

$$$$

     RDKit          3D

 57 61  0  0  0  0  0  0  0  0999 V2000
  142.7710   74.5200  220.6210 O   0  0  0  0  0  0  0  0  0  0  0  0
  141.6680   74.2440  221.1610 C   0  0  0  0  0  0  0  0  0  0  0  0
  141.3290   72.8210  221.3370 C   0  0  0  0  0  0  0  0  0  0  0  0
  140.0070   72.6490  221.9830 C   0  0  0  0  0  0  0  0  0  0  0  0
  139.5490   71.2770  222.2170 C   0  0  0  0  0  0  0  0  0  0  0  0
  138.9410   70.5180  221.2560 C   0  0  0  0  0  0  0  0  0  0  0  0
  138.5000   69.2260  221.4480 C   0  0  0  0  0  0  0  0  0  0  0  0
  138.6770   68.6490  222.6820 C   0  0  0  0  0  0  0  0  0  0  0  0
  139.2930   69.3810  223.6960 C   0  0  0  0  0  0  0  0  0  0  0  0
  139.4500   68.7070  224.9820 C   0  0  0  0  0  0  0  0  0  0  0  0
  139.3100   67.4580  224.9860 O   0  0  0  0  0  0  0  0  0  0  0  0
  139.7470   69.4280  226.1720 N   0  0  0  0  0  0  0  0  0  0  0  0
  139.9390   70.8710  226.3330 C   0  0  0  0  0  0  0  0  0  0  0  0
  140.8770   71.0280  227.4890 C   0  0  0  0  0  0  0  0  0  0  0  0
  141.0390   69.6750  228.0960 C   0  0  0  0  0  0  0  0  0  0  0  0
  139.9200   68.8690  227.4770 C   0  0  0  0  0  0  0  0  0  0  0  0
  139.7220   70.6730  223.4680 C   0  0  0  0  0  0  0  0  0  0  0  0
  139.2530   73.6320  222.3460 N   0  0  0  0  0  0  0  0  0  0  0  0
  139.5950   75.0010  222.1690 C   0  0  0  0  0  0  0  0  0  0  0  0
  138.7790   76.0380  222.5600 C   0  0  0  0  0  0  0  0  0  0  0  0
  139.1510   77.3740  222.3690 C   0  0  0  0  0  0  0  0  0  0  0  0
  140.3530   77.7000  221.7780 C   0  0  0  0  0  0  0  0  0  0  0  0
  140.6790   79.0690  221.6110 N   0  0  0  0  0  0  0  0  0  0  0  0
  141.5470   79.4230  220.5130 C   0  0  0  0  0  0  0  0  0  0  0  0
  141.3940   80.9250  220.2910 C   0  0  0  0  0  0  0  0  0  0  0  0
  141.8200   81.7180  221.4970 C   0  0  0  0  0  0  0  0  0  0  0  0
  141.3120   81.1170  222.7660 C   0  0  0  0  0  0  0  0  0  0  0  0
  140.2010   80.1310  222.4650 C   0  0  0  0  0  0  0  0  0  0  0  0
  141.1650   76.6580  221.3900 C   0  0  0  0  0  0  0  0  0  0  0  0
  140.7960   75.3380  221.5800 C   0  0  0  0  0  0  0  0  0  0  0  0
  141.3099   72.3344  220.3507 H   0  0  0  0  0  0  0  0  0  0  0  0
  142.0903   72.3647  221.9868 H   0  0  0  0  0  0  0  0  0  0  0  0
  138.7939   70.9683  220.2632 H   0  0  0  0  0  0  0  0  0  0  0  0
  138.0171   68.6695  220.6312 H   0  0  0  0  0  0  0  0  0  0  0  0
  138.3361   67.6198  222.8682 H   0  0  0  0  0  0  0  0  0  0  0  0
  140.3775   71.3037  225.4217 H   0  0  0  0  0  0  0  0  0  0  0  0
  138.9856   71.3903  226.5101 H   0  0  0  0  0  0  0  0  0  0  0  0
  141.8493   71.4058  227.1398 H   0  0  0  0  0  0  0  0  0  0  0  0
  140.4837   71.7466  228.2231 H   0  0  0  0  0  0  0  0  0  0  0  0
  142.0192   69.2455  227.8414 H   0  0  0  0  0  0  0  0  0  0  0  0
  140.9947   69.6924  229.1950 H   0  0  0  0  0  0  0  0  0  0  0  0
  140.1984   67.8069  227.4100 H   0  0  0  0  0  0  0  0  0  0  0  0
  138.9969   68.9129  228.0737 H   0  0  0  0  0  0  0  0  0  0  0  0
  140.2062   71.2354  224.2800 H   0  0  0  0  0  0  0  0  0  0  0  0
  137.8122   75.8119  223.0335 H   0  0  0  0  0  0  0  0  0  0  0  0
  138.4733   78.1765  222.6957 H   0  0  0  0  0  0  0  0  0  0  0  0
  142.5907   79.1824  220.7636 H   0  0  0  0  0  0  0  0  0  0  0  0
  141.2805   78.8624  219.6049 H   0  0  0  0  0  0  0  0  0  0  0  0
  142.0145   81.2224  219.4328 H   0  0  0  0  0  0  0  0  0  0  0  0
  140.3305   81.1348  220.1039 H   0  0  0  0  0  0  0  0  0  0  0  0
  142.9190   81.7482  221.5327 H   0  0  0  0  0  0  0  0  0  0  0  0
  141.3984   82.7299  221.4061 H   0  0  0  0  0  0  0  0  0  0  0  0
  142.1345   80.5943  223.2762 H   0  0  0  0  0  0  0  0  0  0  0  0
  140.9198   81.9162  223.4121 H   0  0  0  0  0  0  0  0  0  0  0  0
  139.8360   79.6991  223.4085 H   0  0  0  0  0  0  0  0  0  0  0  0
  139.3875   80.6614  221.9484 H   0  0  0  0  0  0  0  0  0  0  0  0
  142.1326   76.8807  220.9165 H   0  0  0  0  0  0  0  0  0  0  0  0
  1  2  2  0
  2  3  1  0
  3  4  1  0
  4  5  1  0
  5  6  2  0
  6  7  1  0
  7  8  2  0
  8  9  1  0
  9 10  1  0
 10 11  2  0
 10 12  1  0
 12 13  1  0
 13 14  1  0
 14 15  1  0
 15 16  1  0
  9 17  2  0
  4 18  2  0
 18 19  1  0
 19 20  2  0
 20 21  1  0
 21 22  2  0
 22 23  1  0
 23 24  1  0
 24 25  1  0
 25 26  1  0
 26 27  1  0
 27 28  1  0
 22 29  1  0
 29 30  2  0
 30  2  1  0
 17  5  1  0
 30 19  1  0
 16 12  1  0
 28 23  1  0
  3 31  1  0
  3 32  1  0
  6 33  1  0
  7 34  1  0
  8 35  1  0
 13 36  1  0
 13 37  1  0
 14 38  1  0
 14 39  1  0
 15 40  1  0
 15 41  1  0
 16 42  1  0
 16 43  1  0
 17 44  1  0
 20 45  1  0
 21 46  1  0
 24 47  1  0
 24 48  1  0
 25 49  1  0
 25 50  1  0
 26 51  1  0
 26 52  1  0
 27 53  1  0
 27 54  1  0
 28 55  1  0
 28 56  1  0
 29 57  1  0
M  END
>  <smiles>  (40) 
O=C1CC(c2cccc(C(=O)N3CCCC3)c2)=Nc2ccc(N3CCCCC3)cc21

>  <score_type>  (40) 
oracle

>  <origin>  (40) 
autodockgpu

>  <m_score__min__energy>  (40) 
-8.9900000000000002

>  <m_primary>  (40) 
energy

>  <rmsd>  (40) 
6.153074580140982

>  <m_score__min__rmsd>  (40) 
6.153074580140982

>  <meeko>  (40) 
{"free_energy": -8.69, "intermolecular_energy": -9.59, "internal_energy": -0.82, "cluster_size": 49, "cluster_id": 1, "rank_in_cluster": 45}

>  <energy>  (40) 
-8.78

>  <cluster_rmsd>  (40) 
0.43

>  <cluster>  (40) 
1

$$$$

     RDKit          3D

 57 61  0  0  0  0  0  0  0  0999 V2000
  136.4240   75.7960  221.7500 O   0  0  0  0  0  0  0  0  0  0  0  0
  137.5240   75.2040  221.9050 C   0  0  0  0  0  0  0  0  0  0  0  0
  137.5050   73.7310  221.9720 C   0  0  0  0  0  0  0  0  0  0  0  0
  138.8650   73.1750  222.1570 C   0  0  0  0  0  0  0  0  0  0  0  0
  138.9860   71.7160  222.2390 C   0  0  0  0  0  0  0  0  0  0  0  0
  139.0000   70.9040  221.1390 C   0  0  0  0  0  0  0  0  0  0  0  0
  139.1120   69.5310  221.1870 C   0  0  0  0  0  0  0  0  0  0  0  0
  139.2160   68.9240  222.4150 C   0  0  0  0  0  0  0  0  0  0  0  0
  139.2070   69.7080  223.5680 C   0  0  0  0  0  0  0  0  0  0  0  0
  139.3220   68.9990  224.8380 C   0  0  0  0  0  0  0  0  0  0  0  0
  139.0590   67.7690  224.8250 O   0  0  0  0  0  0  0  0  0  0  0  0
  139.7150   69.6640  226.0330 N   0  0  0  0  0  0  0  0  0  0  0  0
  140.0540   71.0780  226.2130 C   0  0  0  0  0  0  0  0  0  0  0  0
  141.0260   71.1200  227.3500 C   0  0  0  0  0  0  0  0  0  0  0  0
  141.0650   69.7460  227.9310 C   0  0  0  0  0  0  0  0  0  0  0  0
  139.8590   69.0670  227.3250 C   0  0  0  0  0  0  0  0  0  0  0  0
  139.0940   71.0810  223.4820 C   0  0  0  0  0  0  0  0  0  0  0  0
  139.9300   73.8980  222.2460 N   0  0  0  0  0  0  0  0  0  0  0  0
  139.9310   75.3180  222.1800 C   0  0  0  0  0  0  0  0  0  0  0  0
  141.0770   76.0760  222.2780 C   0  0  0  0  0  0  0  0  0  0  0  0
  141.0370   77.4740  222.2080 C   0  0  0  0  0  0  0  0  0  0  0  0
  139.8450   78.1440  222.0390 C   0  0  0  0  0  0  0  0  0  0  0  0
  139.8640   79.5600  221.9740 N   0  0  0  0  0  0  0  0  0  0  0  0
  139.4530   80.1810  220.7380 C   0  0  0  0  0  0  0  0  0  0  0  0
  139.1510   81.6430  221.0530 C   0  0  0  0  0  0  0  0  0  0  0  0
  140.3670   82.3720  221.5600 C   0  0  0  0  0  0  0  0  0  0  0  0
  141.1290   81.5580  222.5530 C   0  0  0  0  0  0  0  0  0  0  0  0
  140.2680   80.4200  223.0620 C   0  0  0  0  0  0  0  0  0  0  0  0
  138.7040   77.3810  221.9410 C   0  0  0  0  0  0  0  0  0  0  0  0
  138.7440   75.9990  222.0100 C   0  0  0  0  0  0  0  0  0  0  0  0
  136.8745   73.4205  222.8182 H   0  0  0  0  0  0  0  0  0  0  0  0
  137.1040   73.3490  221.0216 H   0  0  0  0  0  0  0  0  0  0  0  0
  138.9163   71.3780  220.1499 H   0  0  0  0  0  0  0  0  0  0  0  0
  139.1180   68.9347  220.2627 H   0  0  0  0  0  0  0  0  0  0  0  0
  139.3055   67.8301  222.4879 H   0  0  0  0  0  0  0  0  0  0  0  0
  140.5150   71.4812  225.2993 H   0  0  0  0  0  0  0  0  0  0  0  0
  139.1611   71.6864  226.4196 H   0  0  0  0  0  0  0  0  0  0  0  0
  142.0237   71.4061  226.9856 H   0  0  0  0  0  0  0  0  0  0  0  0
  140.7212   71.8603  228.1043 H   0  0  0  0  0  0  0  0  0  0  0  0
  141.9919   69.2261  227.6470 H   0  0  0  0  0  0  0  0  0  0  0  0
  141.0458   69.7474  229.0308 H   0  0  0  0  0  0  0  0  0  0  0  0
  140.0286   67.9839  227.2348 H   0  0  0  0  0  0  0  0  0  0  0  0
  138.9577   69.1918  227.9431 H   0  0  0  0  0  0  0  0  0  0  0  0
  139.0887   71.6840  224.4020 H   0  0  0  0  0  0  0  0  0  0  0  0
  142.0451   75.5719  222.4143 H   0  0  0  0  0  0  0  0  0  0  0  0
  141.9726   78.0467  222.2893 H   0  0  0  0  0  0  0  0  0  0  0  0
  140.2608   80.1137  219.9944 H   0  0  0  0  0  0  0  0  0  0  0  0
  138.5680   79.6781  220.3210 H   0  0  0  0  0  0  0  0  0  0  0  0
  138.7961   82.1380  220.1370 H   0  0  0  0  0  0  0  0  0  0  0  0
  138.3845   81.6701  221.8415 H   0  0  0  0  0  0  0  0  0  0  0  0
  141.0247   82.6019  220.7088 H   0  0  0  0  0  0  0  0  0  0  0  0
  140.0298   83.2921  222.0597 H   0  0  0  0  0  0  0  0  0  0  0  0
  142.0291   81.1468  222.0726 H   0  0  0  0  0  0  0  0  0  0  0  0
  141.4168   82.1988  223.3995 H   0  0  0  0  0  0  0  0  0  0  0  0
  140.8420   79.8319  223.7932 H   0  0  0  0  0  0  0  0  0  0  0  0
  139.3677   80.8409  223.5335 H   0  0  0  0  0  0  0  0  0  0  0  0
  137.7346   77.8825  221.8042 H   0  0  0  0  0  0  0  0  0  0  0  0
  1  2  2  0
  2  3  1  0
  3  4  1  0
  4  5  1  0
  5  6  2  0
  6  7  1  0
  7  8  2  0
  8  9  1  0
  9 10  1  0
 10 11  2  0
 10 12  1  0
 12 13  1  0
 13 14  1  0
 14 15  1  0
 15 16  1  0
  9 17  2  0
  4 18  2  0
 18 19  1  0
 19 20  2  0
 20 21  1  0
 21 22  2  0
 22 23  1  0
 23 24  1  0
 24 25  1  0
 25 26  1  0
 26 27  1  0
 27 28  1  0
 22 29  1  0
 29 30  2  0
 30  2  1  0
 17  5  1  0
 30 19  1  0
 16 12  1  0
 28 23  1  0
  3 31  1  0
  3 32  1  0
  6 33  1  0
  7 34  1  0
  8 35  1  0
 13 36  1  0
 13 37  1  0
 14 38  1  0
 14 39  1  0
 15 40  1  0
 15 41  1  0
 16 42  1  0
 16 43  1  0
 17 44  1  0
 20 45  1  0
 21 46  1  0
 24 47  1  0
 24 48  1  0
 25 49  1  0
 25 50  1  0
 26 51  1  0
 26 52  1  0
 27 53  1  0
 27 54  1  0
 28 55  1  0
 28 56  1  0
 29 57  1  0
M  END
>  <smiles>  (41) 
O=C1CC(c2cccc(C(=O)N3CCCC3)c2)=Nc2ccc(N3CCCCC3)cc21

>  <score_type>  (41) 
oracle

>  <origin>  (41) 
autodockgpu

>  <m_score__min__energy>  (41) 
-8.9900000000000002

>  <m_primary>  (41) 
energy

>  <rmsd>  (41) 
6.446925875422645

>  <m_score__min__rmsd>  (41) 
6.446925875422645

>  <meeko>  (41) 
{"free_energy": -8.07, "intermolecular_energy": -8.96, "internal_energy": -0.82, "cluster_size": 49, "cluster_id": 1, "rank_in_cluster": 47}

>  <energy>  (41) 
-8.77

>  <cluster_rmsd>  (41) 
0.44

>  <cluster>  (41) 
1

$$$$

     RDKit          3D

 57 61  0  0  0  0  0  0  0  0999 V2000
  142.8730   74.5790  220.2470 O   0  0  0  0  0  0  0  0  0  0  0  0
  141.8280   74.3330  220.9040 C   0  0  0  0  0  0  0  0  0  0  0  0
  141.4650   72.9190  221.1070 C   0  0  0  0  0  0  0  0  0  0  0  0
  140.2170   72.7830  221.8940 C   0  0  0  0  0  0  0  0  0  0  0  0
  139.7440   71.4230  222.1680 C   0  0  0  0  0  0  0  0  0  0  0  0
  139.2030   70.6120  221.2080 C   0  0  0  0  0  0  0  0  0  0  0  0
  138.7500   69.3310  221.4380 C   0  0  0  0  0  0  0  0  0  0  0  0
  138.8410   68.8210  222.7100 C   0  0  0  0  0  0  0  0  0  0  0  0
  139.3850   69.6080  223.7250 C   0  0  0  0  0  0  0  0  0  0  0  0
  139.4520   69.0040  225.0520 C   0  0  0  0  0  0  0  0  0  0  0  0
  139.1880   67.7760  225.1290 O   0  0  0  0  0  0  0  0  0  0  0  0
  139.8000   69.7640  226.2020 N   0  0  0  0  0  0  0  0  0  0  0  0
  140.1330   71.1890  226.2800 C   0  0  0  0  0  0  0  0  0  0  0  0
  141.0620   71.3250  227.4460 C   0  0  0  0  0  0  0  0  0  0  0  0
  141.0780   70.0030  228.1370 C   0  0  0  0  0  0  0  0  0  0  0  0
  139.8940   69.2740  227.5430 C   0  0  0  0  0  0  0  0  0  0  0  0
  139.8290   70.8880  223.4590 C   0  0  0  0  0  0  0  0  0  0  0  0
  139.5390   73.7850  222.3430 N   0  0  0  0  0  0  0  0  0  0  0  0
  139.9030   75.1440  222.1380 C   0  0  0  0  0  0  0  0  0  0  0  0
  139.1680   76.2020  222.6230 C   0  0  0  0  0  0  0  0  0  0  0  0
  139.5590   77.5280  222.4000 C   0  0  0  0  0  0  0  0  0  0  0  0
  140.6990   77.8220  221.6830 C   0  0  0  0  0  0  0  0  0  0  0  0
  141.0480   79.1820  221.4890 N   0  0  0  0  0  0  0  0  0  0  0  0
  140.9970   80.0590  222.6350 C   0  0  0  0  0  0  0  0  0  0  0  0
  141.8050   81.3030  222.2800 C   0  0  0  0  0  0  0  0  0  0  0  0
  141.2190   82.0370  221.1030 C   0  0  0  0  0  0  0  0  0  0  0  0
  140.8090   81.1030  220.0130 C   0  0  0  0  0  0  0  0  0  0  0  0
  141.4510   79.7470  220.2220 C   0  0  0  0  0  0  0  0  0  0  0  0
  141.4300   76.7600  221.2020 C   0  0  0  0  0  0  0  0  0  0  0  0
  141.0420   75.4500  221.4230 C   0  0  0  0  0  0  0  0  0  0  0  0
  141.3217   72.4430  220.1257 H   0  0  0  0  0  0  0  0  0  0  0  0
  142.2782   72.4321  221.6653 H   0  0  0  0  0  0  0  0  0  0  0  0
  139.1245   71.0087  220.1850 H   0  0  0  0  0  0  0  0  0  0  0  0
  138.3248   68.7300  220.6207 H   0  0  0  0  0  0  0  0  0  0  0  0
  138.4883   67.8018  222.9262 H   0  0  0  0  0  0  0  0  0  0  0  0
  140.6283   71.5183  225.3546 H   0  0  0  0  0  0  0  0  0  0  0  0
  139.2334   71.8099  226.4033 H   0  0  0  0  0  0  0  0  0  0  0  0
  142.0729   71.5829  227.0974 H   0  0  0  0  0  0  0  0  0  0  0  0
  140.7297   72.1232  228.1260 H   0  0  0  0  0  0  0  0  0  0  0  0
  142.0144   69.4639  227.9308 H   0  0  0  0  0  0  0  0  0  0  0  0
  141.0177   70.0933  229.2316 H   0  0  0  0  0  0  0  0  0  0  0  0
  140.0655   68.1875  227.5477 H   0  0  0  0  0  0  0  0  0  0  0  0
  138.9701   69.4466  228.1145 H   0  0  0  0  0  0  0  0  0  0  0  0
  140.2548   71.4950  224.2715 H   0  0  0  0  0  0  0  0  0  0  0  0
  138.2526   76.0013  223.1989 H   0  0  0  0  0  0  0  0  0  0  0  0
  138.9467   78.3480  222.8034 H   0  0  0  0  0  0  0  0  0  0  0  0
  139.9548   80.3349  222.8536 H   0  0  0  0  0  0  0  0  0  0  0  0
  141.4090   79.5643  223.5269 H   0  0  0  0  0  0  0  0  0  0  0  0
  141.8189   81.9777  223.1487 H   0  0  0  0  0  0  0  0  0  0  0  0
  142.8221   80.9829  222.0098 H   0  0  0  0  0  0  0  0  0  0  0  0
  140.3363   82.6008  221.4390 H   0  0  0  0  0  0  0  0  0  0  0  0
  141.9908   82.7107  220.7025 H   0  0  0  0  0  0  0  0  0  0  0  0
  139.7146   80.9927  220.0207 H   0  0  0  0  0  0  0  0  0  0  0  0
  141.1367   81.5118  219.0458 H   0  0  0  0  0  0  0  0  0  0  0  0
  141.1415   79.0719  219.4106 H   0  0  0  0  0  0  0  0  0  0  0  0
  142.5442   79.8689  220.2204 H   0  0  0  0  0  0  0  0  0  0  0  0
  142.3466   76.9574  220.6268 H   0  0  0  0  0  0  0  0  0  0  0  0
  1  2  2  0
  2  3  1  0
  3  4  1  0
  4  5  1  0
  5  6  2  0
  6  7  1  0
  7  8  2  0
  8  9  1  0
  9 10  1  0
 10 11  2  0
 10 12  1  0
 12 13  1  0
 13 14  1  0
 14 15  1  0
 15 16  1  0
  9 17  2  0
  4 18  2  0
 18 19  1  0
 19 20  2  0
 20 21  1  0
 21 22  2  0
 22 23  1  0
 23 24  1  0
 24 25  1  0
 25 26  1  0
 26 27  1  0
 27 28  1  0
 22 29  1  0
 29 30  2  0
 30  2  1  0
 17  5  1  0
 30 19  1  0
 16 12  1  0
 28 23  1  0
  3 31  1  0
  3 32  1  0
  6 33  1  0
  7 34  1  0
  8 35  1  0
 13 36  1  0
 13 37  1  0
 14 38  1  0
 14 39  1  0
 15 40  1  0
 15 41  1  0
 16 42  1  0
 16 43  1  0
 17 44  1  0
 20 45  1  0
 21 46  1  0
 24 47  1  0
 24 48  1  0
 25 49  1  0
 25 50  1  0
 26 51  1  0
 26 52  1  0
 27 53  1  0
 27 54  1  0
 28 55  1  0
 28 56  1  0
 29 57  1  0
M  END
>  <smiles>  (42) 
O=C1CC(c2cccc(C(=O)N3CCCC3)c2)=Nc2ccc(N3CCCCC3)cc21

>  <score_type>  (42) 
oracle

>  <origin>  (42) 
autodockgpu

>  <m_score__min__energy>  (42) 
-8.9900000000000002

>  <m_primary>  (42) 
energy

>  <rmsd>  (42) 
5.832730402370572

>  <m_score__min__rmsd>  (42) 
5.832730402370572

>  <meeko>  (42) 
{"free_energy": -8.98, "intermolecular_energy": -9.87, "internal_energy": -0.77, "cluster_size": 49, "cluster_id": 1, "rank_in_cluster": 5}

>  <energy>  (42) 
-8.75

>  <cluster_rmsd>  (42) 
0.37

>  <cluster>  (42) 
1

$$$$

     RDKit          3D

 57 61  0  0  0  0  0  0  0  0999 V2000
  142.9500   74.9510  220.1670 O   0  0  0  0  0  0  0  0  0  0  0  0
  141.9300   74.6500  220.8410 C   0  0  0  0  0  0  0  0  0  0  0  0
  141.6210   73.2190  221.0100 C   0  0  0  0  0  0  0  0  0  0  0  0
  140.3990   73.0160  221.8220 C   0  0  0  0  0  0  0  0  0  0  0  0
  139.9790   71.6330  222.0670 C   0  0  0  0  0  0  0  0  0  0  0  0
  139.6910   70.7510  221.0630 C   0  0  0  0  0  0  0  0  0  0  0  0
  139.2940   69.4460  221.2640 C   0  0  0  0  0  0  0  0  0  0  0  0
  139.1750   68.9880  222.5530 C   0  0  0  0  0  0  0  0  0  0  0  0
  139.4580   69.8490  223.6130 C   0  0  0  0  0  0  0  0  0  0  0  0
  139.3120   69.2970  224.9560 C   0  0  0  0  0  0  0  0  0  0  0  0
  138.8290   68.1390  225.0430 O   0  0  0  0  0  0  0  0  0  0  0  0
  139.6980   70.0310  226.1120 N   0  0  0  0  0  0  0  0  0  0  0  0
  140.2720   71.3770  226.1800 C   0  0  0  0  0  0  0  0  0  0  0  0
  141.1150   71.3960  227.4170 C   0  0  0  0  0  0  0  0  0  0  0  0
  140.8420   70.1210  228.1410 C   0  0  0  0  0  0  0  0  0  0  0  0
  139.5980   69.5870  227.4680 C   0  0  0  0  0  0  0  0  0  0  0  0
  139.8530   71.1500  223.3750 C   0  0  0  0  0  0  0  0  0  0  0  0
  139.6980   73.9810  222.3170 N   0  0  0  0  0  0  0  0  0  0  0  0
  140.0100   75.3570  222.1440 C   0  0  0  0  0  0  0  0  0  0  0  0
  139.2520   76.3750  222.6780 C   0  0  0  0  0  0  0  0  0  0  0  0
  139.5920   77.7190  222.4850 C   0  0  0  0  0  0  0  0  0  0  0  0
  140.7030   78.0730  221.7500 C   0  0  0  0  0  0  0  0  0  0  0  0
  141.0010   79.4490  221.5890 N   0  0  0  0  0  0  0  0  0  0  0  0
  141.0950   80.2610  222.7790 C   0  0  0  0  0  0  0  0  0  0  0  0
  141.8260   81.5410  222.3880 C   0  0  0  0  0  0  0  0  0  0  0  0
  141.0720   82.3250  221.3470 C   0  0  0  0  0  0  0  0  0  0  0  0
  140.5290   81.4420  220.2720 C   0  0  0  0  0  0  0  0  0  0  0  0
  141.2150   80.0930  220.3130 C   0  0  0  0  0  0  0  0  0  0  0  0
  141.4570   77.0510  221.2200 C   0  0  0  0  0  0  0  0  0  0  0  0
  141.1200   75.7230  221.4110 C   0  0  0  0  0  0  0  0  0  0  0  0
  141.4696   72.7672  220.0185 H   0  0  0  0  0  0  0  0  0  0  0  0
  142.4642   72.7450  221.5338 H   0  0  0  0  0  0  0  0  0  0  0  0
  139.7820   71.1060  220.0259 H   0  0  0  0  0  0  0  0  0  0  0  0
  139.0774   68.7864  220.4107 H   0  0  0  0  0  0  0  0  0  0  0  0
  138.8596   67.9523  222.7476 H   0  0  0  0  0  0  0  0  0  0  0  0
  140.8898   71.5758  225.2918 H   0  0  0  0  0  0  0  0  0  0  0  0
  139.4905   72.1506  226.2094 H   0  0  0  0  0  0  0  0  0  0  0  0
  142.1800   71.4593  227.1491 H   0  0  0  0  0  0  0  0  0  0  0  0
  140.8763   72.2668  228.0453 H   0  0  0  0  0  0  0  0  0  0  0  0
  141.6811   69.4186  228.0288 H   0  0  0  0  0  0  0  0  0  0  0  0
  140.7130   70.2645  229.2239 H   0  0  0  0  0  0  0  0  0  0  0  0
  139.5729   68.4883  227.5153 H   0  0  0  0  0  0  0  0  0  0  0  0
  138.6775   69.9417  227.9546 H   0  0  0  0  0  0  0  0  0  0  0  0
  140.0714   71.8153  224.2233 H   0  0  0  0  0  0  0  0  0  0  0  0
  138.3588   76.1263  223.2698 H   0  0  0  0  0  0  0  0  0  0  0  0
  138.9625   78.5053  222.9270 H   0  0  0  0  0  0  0  0  0  0  0  0
  140.0888   80.4999  223.1539 H   0  0  0  0  0  0  0  0  0  0  0  0
  141.6343   79.7286  223.5763 H   0  0  0  0  0  0  0  0  0  0  0  0
  141.9497   82.1672  223.2838 H   0  0  0  0  0  0  0  0  0  0  0  0
  142.8003   81.2595  221.9620 H   0  0  0  0  0  0  0  0  0  0  0  0
  140.2360   82.8496  221.8328 H   0  0  0  0  0  0  0  0  0  0  0  0
  141.7705   83.0373  220.8836 H   0  0  0  0  0  0  0  0  0  0  0  0
  139.4482   81.3056  220.4242 H   0  0  0  0  0  0  0  0  0  0  0  0
  140.7123   81.9103  219.2937 H   0  0  0  0  0  0  0  0  0  0  0  0
  140.8070   79.4561  219.5143 H   0  0  0  0  0  0  0  0  0  0  0  0
  142.2954   80.2414  220.1688 H   0  0  0  0  0  0  0  0  0  0  0  0
  142.3515   77.2966  220.6288 H   0  0  0  0  0  0  0  0  0  0  0  0
  1  2  2  0
  2  3  1  0
  3  4  1  0
  4  5  1  0
  5  6  2  0
  6  7  1  0
  7  8  2  0
  8  9  1  0
  9 10  1  0
 10 11  2  0
 10 12  1  0
 12 13  1  0
 13 14  1  0
 14 15  1  0
 15 16  1  0
  9 17  2  0
  4 18  2  0
 18 19  1  0
 19 20  2  0
 20 21  1  0
 21 22  2  0
 22 23  1  0
 23 24  1  0
 24 25  1  0
 25 26  1  0
 26 27  1  0
 27 28  1  0
 22 29  1  0
 29 30  2  0
 30  2  1  0
 17  5  1  0
 30 19  1  0
 16 12  1  0
 28 23  1  0
  3 31  1  0
  3 32  1  0
  6 33  1  0
  7 34  1  0
  8 35  1  0
 13 36  1  0
 13 37  1  0
 14 38  1  0
 14 39  1  0
 15 40  1  0
 15 41  1  0
 16 42  1  0
 16 43  1  0
 17 44  1  0
 20 45  1  0
 21 46  1  0
 24 47  1  0
 24 48  1  0
 25 49  1  0
 25 50  1  0
 26 51  1  0
 26 52  1  0
 27 53  1  0
 27 54  1  0
 28 55  1  0
 28 56  1  0
 29 57  1  0
M  END
>  <smiles>  (43) 
O=C1CC(c2cccc(C(=O)N3CCCC3)c2)=Nc2ccc(N3CCCCC3)cc21

>  <score_type>  (43) 
oracle

>  <origin>  (43) 
autodockgpu

>  <m_score__min__energy>  (43) 
-8.9900000000000002

>  <m_primary>  (43) 
energy

>  <rmsd>  (43) 
5.876567091381473

>  <m_score__min__rmsd>  (43) 
5.876567091381473

>  <meeko>  (43) 
{"free_energy": -8.87, "intermolecular_energy": -9.77, "internal_energy": -0.77, "cluster_size": 49, "cluster_id": 1, "rank_in_cluster": 30}

>  <energy>  (43) 
-8.72

>  <cluster_rmsd>  (43) 
0.47

>  <cluster>  (43) 
1

$$$$

     RDKit          3D

 57 61  0  0  0  0  0  0  0  0999 V2000
  142.8810   74.6020  220.2210 O   0  0  0  0  0  0  0  0  0  0  0  0
  141.8380   74.3630  220.8840 C   0  0  0  0  0  0  0  0  0  0  0  0
  141.4560   72.9510  221.0710 C   0  0  0  0  0  0  0  0  0  0  0  0
  140.2140   72.8220  221.8670 C   0  0  0  0  0  0  0  0  0  0  0  0
  139.7230   71.4660  222.1270 C   0  0  0  0  0  0  0  0  0  0  0  0
  139.1500   70.6810  221.1650 C   0  0  0  0  0  0  0  0  0  0  0  0
  138.6800   69.4030  221.3820 C   0  0  0  0  0  0  0  0  0  0  0  0
  138.7880   68.8690  222.6430 C   0  0  0  0  0  0  0  0  0  0  0  0
  139.3650   69.6300  223.6600 C   0  0  0  0  0  0  0  0  0  0  0  0
  139.4480   69.0020  224.9750 C   0  0  0  0  0  0  0  0  0  0  0  0
  139.2010   67.7700  225.0300 O   0  0  0  0  0  0  0  0  0  0  0  0
  139.7930   69.7450  226.1370 N   0  0  0  0  0  0  0  0  0  0  0  0
  140.1070   71.1720  226.2400 C   0  0  0  0  0  0  0  0  0  0  0  0
  141.0410   71.2990  227.4030 C   0  0  0  0  0  0  0  0  0  0  0  0
  141.0790   69.9640  228.0690 C   0  0  0  0  0  0  0  0  0  0  0  0
  139.9020   69.2310  227.4680 C   0  0  0  0  0  0  0  0  0  0  0  0
  139.8250   70.9070  223.4070 C   0  0  0  0  0  0  0  0  0  0  0  0
  139.5540   73.8280  222.3360 N   0  0  0  0  0  0  0  0  0  0  0  0
  139.9360   75.1840  222.1450 C   0  0  0  0  0  0  0  0  0  0  0  0
  139.2200   76.2460  222.6500 C   0  0  0  0  0  0  0  0  0  0  0  0
  139.6290   77.5690  222.4420 C   0  0  0  0  0  0  0  0  0  0  0  0
  140.7670   77.8560  221.7190 C   0  0  0  0  0  0  0  0  0  0  0  0
  141.1340   79.2130  221.5400 N   0  0  0  0  0  0  0  0  0  0  0  0
  140.9950   80.1010  222.6690 C   0  0  0  0  0  0  0  0  0  0  0  0
  141.8320   81.3410  222.3670 C   0  0  0  0  0  0  0  0  0  0  0  0
  141.3420   82.0650  221.1410 C   0  0  0  0  0  0  0  0  0  0  0  0
  141.0150   81.1210  220.0310 C   0  0  0  0  0  0  0  0  0  0  0  0
  141.6360   79.7660  220.3030 C   0  0  0  0  0  0  0  0  0  0  0  0
  141.4780   76.7900  221.2170 C   0  0  0  0  0  0  0  0  0  0  0  0
  141.0730   75.4830  221.4240 C   0  0  0  0  0  0  0  0  0  0  0  0
  141.2970   72.4908  220.0846 H   0  0  0  0  0  0  0  0  0  0  0  0
  142.2670   72.4448  221.6152 H   0  0  0  0  0  0  0  0  0  0  0  0
  139.0579   71.0967  220.1507 H   0  0  0  0  0  0  0  0  0  0  0  0
  138.2284   68.8237  220.5632 H   0  0  0  0  0  0  0  0  0  0  0  0
  138.4233   67.8518  222.8488 H   0  0  0  0  0  0  0  0  0  0  0  0
  140.5922   71.5253  225.3182 H   0  0  0  0  0  0  0  0  0  0  0  0
  139.1997   71.7780  226.3802 H   0  0  0  0  0  0  0  0  0  0  0  0
  142.0462   71.5773  227.0535 H   0  0  0  0  0  0  0  0  0  0  0  0
  140.7020   72.0798  228.0998 H   0  0  0  0  0  0  0  0  0  0  0  0
  142.0213   69.4416  227.8473 H   0  0  0  0  0  0  0  0  0  0  0  0
  141.0241   70.0326  229.1655 H   0  0  0  0  0  0  0  0  0  0  0  0
  140.0881   68.1470  227.4509 H   0  0  0  0  0  0  0  0  0  0  0  0
  138.9793   69.3805  228.0480 H   0  0  0  0  0  0  0  0  0  0  0  0
  140.2772   71.4926  224.2210 H   0  0  0  0  0  0  0  0  0  0  0  0
  138.3059   76.0508  223.2300 H   0  0  0  0  0  0  0  0  0  0  0  0
  139.0327   78.3923  222.8622 H   0  0  0  0  0  0  0  0  0  0  0  0
  139.9395   80.3808  222.8018 H   0  0  0  0  0  0  0  0  0  0  0  0
  141.3343   79.6144  223.5953 H   0  0  0  0  0  0  0  0  0  0  0  0
  141.7794   82.0238  223.2279 H   0  0  0  0  0  0  0  0  0  0  0  0
  142.8664   81.0166  222.1804 H   0  0  0  0  0  0  0  0  0  0  0  0
  140.4377   82.6344  221.4018 H   0  0  0  0  0  0  0  0  0  0  0  0
  142.1449   82.7329  220.7955 H   0  0  0  0  0  0  0  0  0  0  0  0
  139.9230   81.0125  219.9549 H   0  0  0  0  0  0  0  0  0  0  0  0
  141.4170   81.5196  219.0879 H   0  0  0  0  0  0  0  0  0  0  0  0
  141.3898   79.0835  219.4762 H   0  0  0  0  0  0  0  0  0  0  0  0
  142.7261   79.8870  220.3864 H   0  0  0  0  0  0  0  0  0  0  0  0
  142.3921   76.9818  220.6360 H   0  0  0  0  0  0  0  0  0  0  0  0
  1  2  2  0
  2  3  1  0
  3  4  1  0
  4  5  1  0
  5  6  2  0
  6  7  1  0
  7  8  2  0
  8  9  1  0
  9 10  1  0
 10 11  2  0
 10 12  1  0
 12 13  1  0
 13 14  1  0
 14 15  1  0
 15 16  1  0
  9 17  2  0
  4 18  2  0
 18 19  1  0
 19 20  2  0
 20 21  1  0
 21 22  2  0
 22 23  1  0
 23 24  1  0
 24 25  1  0
 25 26  1  0
 26 27  1  0
 27 28  1  0
 22 29  1  0
 29 30  2  0
 30  2  1  0
 17  5  1  0
 30 19  1  0
 16 12  1  0
 28 23  1  0
  3 31  1  0
  3 32  1  0
  6 33  1  0
  7 34  1  0
  8 35  1  0
 13 36  1  0
 13 37  1  0
 14 38  1  0
 14 39  1  0
 15 40  1  0
 15 41  1  0
 16 42  1  0
 16 43  1  0
 17 44  1  0
 20 45  1  0
 21 46  1  0
 24 47  1  0
 24 48  1  0
 25 49  1  0
 25 50  1  0
 26 51  1  0
 26 52  1  0
 27 53  1  0
 27 54  1  0
 28 55  1  0
 28 56  1  0
 29 57  1  0
M  END
>  <smiles>  (44) 
O=C1CC(c2cccc(C(=O)N3CCCC3)c2)=Nc2ccc(N3CCCCC3)cc21

>  <score_type>  (44) 
oracle

>  <origin>  (44) 
autodockgpu

>  <m_score__min__energy>  (44) 
-8.9900000000000002

>  <m_primary>  (44) 
energy

>  <rmsd>  (44) 
5.850896539737606

>  <m_score__min__rmsd>  (44) 
5.850896539737606

>  <meeko>  (44) 
{"free_energy": -8.97, "intermolecular_energy": -9.86, "internal_energy": -0.79, "cluster_size": 49, "cluster_id": 1, "rank_in_cluster": 11}

>  <energy>  (44) 
-8.7

>  <cluster_rmsd>  (44) 
0.42

>  <cluster>  (44) 
1

$$$$

     RDKit          3D

 57 61  0  0  0  0  0  0  0  0999 V2000
  142.9470   74.9250  220.1820 O   0  0  0  0  0  0  0  0  0  0  0  0
  141.9230   74.6270  220.8500 C   0  0  0  0  0  0  0  0  0  0  0  0
  141.6150   73.1960  221.0270 C   0  0  0  0  0  0  0  0  0  0  0  0
  140.3870   72.9970  221.8310 C   0  0  0  0  0  0  0  0  0  0  0  0
  139.9680   71.6150  222.0820 C   0  0  0  0  0  0  0  0  0  0  0  0
  139.6800   70.7280  221.0820 C   0  0  0  0  0  0  0  0  0  0  0  0
  139.2830   69.4240  221.2900 C   0  0  0  0  0  0  0  0  0  0  0  0
  139.1650   68.9720  222.5820 C   0  0  0  0  0  0  0  0  0  0  0  0
  139.4480   69.8380  223.6370 C   0  0  0  0  0  0  0  0  0  0  0  0
  139.3030   69.2920  224.9830 C   0  0  0  0  0  0  0  0  0  0  0  0
  138.8250   68.1320  225.0750 O   0  0  0  0  0  0  0  0  0  0  0  0
  139.6840   70.0330  226.1350 N   0  0  0  0  0  0  0  0  0  0  0  0
  140.2520   71.3820  226.1980 C   0  0  0  0  0  0  0  0  0  0  0  0
  141.0940   71.4110  227.4350 C   0  0  0  0  0  0  0  0  0  0  0  0
  140.8250   70.1380  228.1650 C   0  0  0  0  0  0  0  0  0  0  0  0
  139.5850   69.5960  227.4940 C   0  0  0  0  0  0  0  0  0  0  0  0
  139.8430   71.1380  223.3930 C   0  0  0  0  0  0  0  0  0  0  0  0
  139.6810   73.9640  222.3140 N   0  0  0  0  0  0  0  0  0  0  0  0
  139.9920   75.3390  222.1330 C   0  0  0  0  0  0  0  0  0  0  0  0
  139.2280   76.3590  222.6540 C   0  0  0  0  0  0  0  0  0  0  0  0
  139.5670   77.7030  222.4550 C   0  0  0  0  0  0  0  0  0  0  0  0
  140.6830   78.0540  221.7260 C   0  0  0  0  0  0  0  0  0  0  0  0
  140.9790   79.4290  221.5570 N   0  0  0  0  0  0  0  0  0  0  0  0
  141.0790   80.2460  222.7430 C   0  0  0  0  0  0  0  0  0  0  0  0
  141.8080   81.5250  222.3430 C   0  0  0  0  0  0  0  0  0  0  0  0
  141.0480   82.3040  221.3030 C   0  0  0  0  0  0  0  0  0  0  0  0
  140.5000   81.4170  220.2340 C   0  0  0  0  0  0  0  0  0  0  0  0
  141.1870   80.0670  220.2770 C   0  0  0  0  0  0  0  0  0  0  0  0
  141.4430   77.0300  221.2090 C   0  0  0  0  0  0  0  0  0  0  0  0
  141.1060   75.7020  221.4070 C   0  0  0  0  0  0  0  0  0  0  0  0
  141.4721   72.7368  220.0377 H   0  0  0  0  0  0  0  0  0  0  0  0
  142.4549   72.7272  221.5606 H   0  0  0  0  0  0  0  0  0  0  0  0
  139.7710   71.0778  220.0431 H   0  0  0  0  0  0  0  0  0  0  0  0
  139.0656   68.7603  220.4402 H   0  0  0  0  0  0  0  0  0  0  0  0
  138.8503   67.9371  222.7819 H   0  0  0  0  0  0  0  0  0  0  0  0
  140.8694   71.5798  225.3094 H   0  0  0  0  0  0  0  0  0  0  0  0
  139.4667   72.1518  226.2240 H   0  0  0  0  0  0  0  0  0  0  0  0
  142.1589   71.4772  227.1675 H   0  0  0  0  0  0  0  0  0  0  0  0
  140.8519   72.2842  228.0587 H   0  0  0  0  0  0  0  0  0  0  0  0
  141.6670   69.4385  228.0571 H   0  0  0  0  0  0  0  0  0  0  0  0
  140.6940   70.2864  229.2470 H   0  0  0  0  0  0  0  0  0  0  0  0
  139.5643   68.4975  227.5473 H   0  0  0  0  0  0  0  0  0  0  0  0
  138.6627   69.9500  227.9778 H   0  0  0  0  0  0  0  0  0  0  0  0
  140.0622   71.8072  224.2381 H   0  0  0  0  0  0  0  0  0  0  0  0
  138.3305   76.1124  223.2402 H   0  0  0  0  0  0  0  0  0  0  0  0
  138.9328   78.4910  222.8872 H   0  0  0  0  0  0  0  0  0  0  0  0
  140.0747   80.4863  223.1220 H   0  0  0  0  0  0  0  0  0  0  0  0
  141.6226   79.7169  223.5396 H   0  0  0  0  0  0  0  0  0  0  0  0
  141.9362   82.1550  223.2356 H   0  0  0  0  0  0  0  0  0  0  0  0
  142.7804   81.2423  221.9133 H   0  0  0  0  0  0  0  0  0  0  0  0
  140.2142   82.8297  221.7912 H   0  0  0  0  0  0  0  0  0  0  0  0
  141.7437   83.0148  220.8332 H   0  0  0  0  0  0  0  0  0  0  0  0
  139.4199   81.2811  220.3918 H   0  0  0  0  0  0  0  0  0  0  0  0
  140.6786   81.8816  219.2530 H   0  0  0  0  0  0  0  0  0  0  0  0
  140.7751   79.4267  219.4831 H   0  0  0  0  0  0  0  0  0  0  0  0
  142.2666   80.2144  220.1264 H   0  0  0  0  0  0  0  0  0  0  0  0
  142.3417   77.2730  220.6231 H   0  0  0  0  0  0  0  0  0  0  0  0
  1  2  2  0
  2  3  1  0
  3  4  1  0
  4  5  1  0
  5  6  2  0
  6  7  1  0
  7  8  2  0
  8  9  1  0
  9 10  1  0
 10 11  2  0
 10 12  1  0
 12 13  1  0
 13 14  1  0
 14 15  1  0
 15 16  1  0
  9 17  2  0
  4 18  2  0
 18 19  1  0
 19 20  2  0
 20 21  1  0
 21 22  2  0
 22 23  1  0
 23 24  1  0
 24 25  1  0
 25 26  1  0
 26 27  1  0
 27 28  1  0
 22 29  1  0
 29 30  2  0
 30  2  1  0
 17  5  1  0
 30 19  1  0
 16 12  1  0
 28 23  1  0
  3 31  1  0
  3 32  1  0
  6 33  1  0
  7 34  1  0
  8 35  1  0
 13 36  1  0
 13 37  1  0
 14 38  1  0
 14 39  1  0
 15 40  1  0
 15 41  1  0
 16 42  1  0
 16 43  1  0
 17 44  1  0
 20 45  1  0
 21 46  1  0
 24 47  1  0
 24 48  1  0
 25 49  1  0
 25 50  1  0
 26 51  1  0
 26 52  1  0
 27 53  1  0
 27 54  1  0
 28 55  1  0
 28 56  1  0
 29 57  1  0
M  END
>  <smiles>  (45) 
O=C1CC(c2cccc(C(=O)N3CCCC3)c2)=Nc2ccc(N3CCCCC3)cc21

>  <score_type>  (45) 
oracle

>  <origin>  (45) 
autodockgpu

>  <m_score__min__energy>  (45) 
-8.9900000000000002

>  <m_primary>  (45) 
energy

>  <rmsd>  (45) 
5.865288775313177

>  <m_score__min__rmsd>  (45) 
5.865288775313177

>  <meeko>  (45) 
{"free_energy": -8.87, "intermolecular_energy": -9.77, "internal_energy": -0.77, "cluster_size": 49, "cluster_id": 1, "rank_in_cluster": 29}

>  <energy>  (45) 
-8.69

>  <cluster_rmsd>  (45) 
0.41

>  <cluster>  (45) 
1

$$$$

     RDKit          3D

 57 61  0  0  0  0  0  0  0  0999 V2000
  142.8880   74.5850  220.2330 O   0  0  0  0  0  0  0  0  0  0  0  0
  141.8460   74.3400  220.8950 C   0  0  0  0  0  0  0  0  0  0  0  0
  141.4760   72.9260  221.0890 C   0  0  0  0  0  0  0  0  0  0  0  0
  140.2330   72.7910  221.8830 C   0  0  0  0  0  0  0  0  0  0  0  0
  139.7540   71.4310  222.1490 C   0  0  0  0  0  0  0  0  0  0  0  0
  139.2140   70.6260  221.1850 C   0  0  0  0  0  0  0  0  0  0  0  0
  138.7550   69.3460  221.4080 C   0  0  0  0  0  0  0  0  0  0  0  0
  138.8400   68.8300  222.6780 C   0  0  0  0  0  0  0  0  0  0  0  0
  139.3840   69.6110  223.6970 C   0  0  0  0  0  0  0  0  0  0  0  0
  139.4440   69.0010  225.0220 C   0  0  0  0  0  0  0  0  0  0  0  0
  139.1840   67.7730  225.0920 O   0  0  0  0  0  0  0  0  0  0  0  0
  139.7830   69.7570  226.1780 N   0  0  0  0  0  0  0  0  0  0  0  0
  140.1110   71.1830  226.2640 C   0  0  0  0  0  0  0  0  0  0  0  0
  141.0330   71.3160  227.4360 C   0  0  0  0  0  0  0  0  0  0  0  0
  141.0480   69.9910  228.1220 C   0  0  0  0  0  0  0  0  0  0  0  0
  139.8710   69.2620  227.5170 C   0  0  0  0  0  0  0  0  0  0  0  0
  139.8330   70.8900  223.4380 C   0  0  0  0  0  0  0  0  0  0  0  0
  139.5630   73.7930  222.3440 N   0  0  0  0  0  0  0  0  0  0  0  0
  139.9330   75.1510  222.1460 C   0  0  0  0  0  0  0  0  0  0  0  0
  139.2070   76.2100  222.6440 C   0  0  0  0  0  0  0  0  0  0  0  0
  139.6050   77.5350  222.4290 C   0  0  0  0  0  0  0  0  0  0  0  0
  140.7410   77.8280  221.7070 C   0  0  0  0  0  0  0  0  0  0  0  0
  141.0970   79.1880  221.5210 N   0  0  0  0  0  0  0  0  0  0  0  0
  140.9850   80.0730  222.6560 C   0  0  0  0  0  0  0  0  0  0  0  0
  141.8070   81.3170  222.3330 C   0  0  0  0  0  0  0  0  0  0  0  0
  141.2800   82.0410  221.1230 C   0  0  0  0  0  0  0  0  0  0  0  0
  140.9280   81.0980  220.0200 C   0  0  0  0  0  0  0  0  0  0  0  0
  141.5620   79.7450  220.2720 C   0  0  0  0  0  0  0  0  0  0  0  0
  141.4630   76.7660  221.2130 C   0  0  0  0  0  0  0  0  0  0  0  0
  141.0690   75.4570  221.4260 C   0  0  0  0  0  0  0  0  0  0  0  0
  141.3233   72.4588  220.1049 H   0  0  0  0  0  0  0  0  0  0  0  0
  142.2900   72.4298  221.6378 H   0  0  0  0  0  0  0  0  0  0  0  0
  139.1411   71.0268  220.1632 H   0  0  0  0  0  0  0  0  0  0  0  0
  138.3298   68.7504  220.5867 H   0  0  0  0  0  0  0  0  0  0  0  0
  138.4827   67.8113  222.8890 H   0  0  0  0  0  0  0  0  0  0  0  0
  140.6105   71.5180  225.3430 H   0  0  0  0  0  0  0  0  0  0  0  0
  139.2089   71.8008  226.3846 H   0  0  0  0  0  0  0  0  0  0  0  0
  142.0453   71.5775  227.0942 H   0  0  0  0  0  0  0  0  0  0  0  0
  140.6949   72.1106  228.1174 H   0  0  0  0  0  0  0  0  0  0  0  0
  141.9873   69.4553  227.9201 H   0  0  0  0  0  0  0  0  0  0  0  0
  140.9800   70.0765  229.2166 H   0  0  0  0  0  0  0  0  0  0  0  0
  140.0459   68.1760  227.5178 H   0  0  0  0  0  0  0  0  0  0  0  0
  138.9431   69.4300  228.0834 H   0  0  0  0  0  0  0  0  0  0  0  0
  140.2583   71.4920  224.2545 H   0  0  0  0  0  0  0  0  0  0  0  0
  138.2938   76.0104  223.2238 H   0  0  0  0  0  0  0  0  0  0  0  0
  139.0007   78.3554  222.8434 H   0  0  0  0  0  0  0  0  0  0  0  0
  139.9323   80.3474  222.8189 H   0  0  0  0  0  0  0  0  0  0  0  0
  141.3520   79.5862  223.5716 H   0  0  0  0  0  0  0  0  0  0  0  0
  141.7754   81.9979  223.1963 H   0  0  0  0  0  0  0  0  0  0  0  0
  142.8371   80.9975  222.1166 H   0  0  0  0  0  0  0  0  0  0  0  0
  140.3801   82.6048  221.4098 H   0  0  0  0  0  0  0  0  0  0  0  0
  142.0695   82.7141  220.7574 H   0  0  0  0  0  0  0  0  0  0  0  0
  139.8349   80.9848  219.9726 H   0  0  0  0  0  0  0  0  0  0  0  0
  141.3033   81.5006  219.0676 H   0  0  0  0  0  0  0  0  0  0  0  0
  141.2957   79.0629  219.4511 H   0  0  0  0  0  0  0  0  0  0  0  0
  142.6535   79.8703  220.3252 H   0  0  0  0  0  0  0  0  0  0  0  0
  142.3772   76.9628  220.6337 H   0  0  0  0  0  0  0  0  0  0  0  0
  1  2  2  0
  2  3  1  0
  3  4  1  0
  4  5  1  0
  5  6  2  0
  6  7  1  0
  7  8  2  0
  8  9  1  0
  9 10  1  0
 10 11  2  0
 10 12  1  0
 12 13  1  0
 13 14  1  0
 14 15  1  0
 15 16  1  0
  9 17  2  0
  4 18  2  0
 18 19  1  0
 19 20  2  0
 20 21  1  0
 21 22  2  0
 22 23  1  0
 23 24  1  0
 24 25  1  0
 25 26  1  0
 26 27  1  0
 27 28  1  0
 22 29  1  0
 29 30  2  0
 30  2  1  0
 17  5  1  0
 30 19  1  0
 16 12  1  0
 28 23  1  0
  3 31  1  0
  3 32  1  0
  6 33  1  0
  7 34  1  0
  8 35  1  0
 13 36  1  0
 13 37  1  0
 14 38  1  0
 14 39  1  0
 15 40  1  0
 15 41  1  0
 16 42  1  0
 16 43  1  0
 17 44  1  0
 20 45  1  0
 21 46  1  0
 24 47  1  0
 24 48  1  0
 25 49  1  0
 25 50  1  0
 26 51  1  0
 26 52  1  0
 27 53  1  0
 27 54  1  0
 28 55  1  0
 28 56  1  0
 29 57  1  0
M  END
>  <smiles>  (46) 
O=C1CC(c2cccc(C(=O)N3CCCC3)c2)=Nc2ccc(N3CCCCC3)cc21

>  <score_type>  (46) 
oracle

>  <origin>  (46) 
autodockgpu

>  <m_score__min__energy>  (46) 
-8.9900000000000002

>  <m_primary>  (46) 
energy

>  <rmsd>  (46) 
5.843518336253449

>  <m_score__min__rmsd>  (46) 
5.843518336253449

>  <meeko>  (46) 
{"free_energy": -8.98, "intermolecular_energy": -9.87, "internal_energy": -0.77, "cluster_size": 49, "cluster_id": 1, "rank_in_cluster": 7}

>  <energy>  (46) 
-8.63

>  <cluster_rmsd>  (46) 
0.53

>  <cluster>  (46) 
1

$$$$

     RDKit          3D

 57 61  0  0  0  0  0  0  0  0999 V2000
  142.8750   74.5600  220.2300 O   0  0  0  0  0  0  0  0  0  0  0  0
  141.8370   74.3130  220.8970 C   0  0  0  0  0  0  0  0  0  0  0  0
  141.4690   72.8990  221.0900 C   0  0  0  0  0  0  0  0  0  0  0  0
  140.2300   72.7610  221.8900 C   0  0  0  0  0  0  0  0  0  0  0  0
  139.7530   71.4010  222.1560 C   0  0  0  0  0  0  0  0  0  0  0  0
  139.2100   70.5980  221.1920 C   0  0  0  0  0  0  0  0  0  0  0  0
  138.7530   69.3160  221.4140 C   0  0  0  0  0  0  0  0  0  0  0  0
  138.8420   68.7980  222.6840 C   0  0  0  0  0  0  0  0  0  0  0  0
  139.3890   69.5780  223.7020 C   0  0  0  0  0  0  0  0  0  0  0  0
  139.4540   68.9660  225.0260 C   0  0  0  0  0  0  0  0  0  0  0  0
  139.1960   67.7370  225.0940 O   0  0  0  0  0  0  0  0  0  0  0  0
  139.7940   69.7210  226.1820 N   0  0  0  0  0  0  0  0  0  0  0  0
  140.1200   71.1470  226.2700 C   0  0  0  0  0  0  0  0  0  0  0  0
  141.0440   71.2800  227.4400 C   0  0  0  0  0  0  0  0  0  0  0  0
  141.0640   69.9540  228.1230 C   0  0  0  0  0  0  0  0  0  0  0  0
  139.8870   69.2230  227.5200 C   0  0  0  0  0  0  0  0  0  0  0  0
  139.8370   70.8580  223.4440 C   0  0  0  0  0  0  0  0  0  0  0  0
  139.5630   73.7630  222.3580 N   0  0  0  0  0  0  0  0  0  0  0  0
  139.9320   75.1220  222.1620 C   0  0  0  0  0  0  0  0  0  0  0  0
  139.2080   76.1790  222.6660 C   0  0  0  0  0  0  0  0  0  0  0  0
  139.6040   77.5050  222.4520 C   0  0  0  0  0  0  0  0  0  0  0  0
  140.7370   77.8000  221.7250 C   0  0  0  0  0  0  0  0  0  0  0  0
  141.0910   79.1600  221.5400 N   0  0  0  0  0  0  0  0  0  0  0  0
  140.9760   80.0440  222.6750 C   0  0  0  0  0  0  0  0  0  0  0  0
  141.7980   81.2890  222.3550 C   0  0  0  0  0  0  0  0  0  0  0  0
  141.2720   82.0130  221.1440 C   0  0  0  0  0  0  0  0  0  0  0  0
  140.9220   81.0700  220.0400 C   0  0  0  0  0  0  0  0  0  0  0  0
  141.5580   79.7180  220.2920 C   0  0  0  0  0  0  0  0  0  0  0  0
  141.4560   76.7390  221.2240 C   0  0  0  0  0  0  0  0  0  0  0  0
  141.0630   75.4290  221.4360 C   0  0  0  0  0  0  0  0  0  0  0  0
  141.3118   72.4338  220.1057 H   0  0  0  0  0  0  0  0  0  0  0  0
  142.2861   72.4025  221.6339 H   0  0  0  0  0  0  0  0  0  0  0  0
  139.1325   71.0013  220.1715 H   0  0  0  0  0  0  0  0  0  0  0  0
  138.3267   68.7211  220.5928 H   0  0  0  0  0  0  0  0  0  0  0  0
  138.4855   67.7790  222.8950 H   0  0  0  0  0  0  0  0  0  0  0  0
  140.6170   71.4843  225.3485 H   0  0  0  0  0  0  0  0  0  0  0  0
  139.2170   71.7629  226.3938 H   0  0  0  0  0  0  0  0  0  0  0  0
  142.0549   71.5449  227.0966 H   0  0  0  0  0  0  0  0  0  0  0  0
  140.7053   72.0723  228.1238 H   0  0  0  0  0  0  0  0  0  0  0  0
  142.0040   69.4210  227.9174 H   0  0  0  0  0  0  0  0  0  0  0  0
  140.9987   70.0373  229.2179 H   0  0  0  0  0  0  0  0  0  0  0  0
  140.0648   68.1375  227.5180 H   0  0  0  0  0  0  0  0  0  0  0  0
  138.9603   69.3871  228.0895 H   0  0  0  0  0  0  0  0  0  0  0  0
  140.2651   71.4586  224.2600 H   0  0  0  0  0  0  0  0  0  0  0  0
  138.2979   75.9773  223.2500 H   0  0  0  0  0  0  0  0  0  0  0  0
  139.0011   78.3242  222.8708 H   0  0  0  0  0  0  0  0  0  0  0  0
  139.9228   80.3176  222.8357 H   0  0  0  0  0  0  0  0  0  0  0  0
  141.3414   79.5568  223.5910 H   0  0  0  0  0  0  0  0  0  0  0  0
  141.7640   81.9693  223.2187 H   0  0  0  0  0  0  0  0  0  0  0  0
  142.8291   80.9711  222.1410 H   0  0  0  0  0  0  0  0  0  0  0  0
  140.3713   82.5761  221.4297 H   0  0  0  0  0  0  0  0  0  0  0  0
  142.0617   82.6865  220.7796 H   0  0  0  0  0  0  0  0  0  0  0  0
  139.8291   80.9551  219.9918 H   0  0  0  0  0  0  0  0  0  0  0  0
  141.2971   81.4736  219.0879 H   0  0  0  0  0  0  0  0  0  0  0  0
  141.2945   79.0359  219.4702 H   0  0  0  0  0  0  0  0  0  0  0  0
  142.6493   79.8447  220.3470 H   0  0  0  0  0  0  0  0  0  0  0  0
  142.3667   76.9372  220.6398 H   0  0  0  0  0  0  0  0  0  0  0  0
  1  2  2  0
  2  3  1  0
  3  4  1  0
  4  5  1  0
  5  6  2  0
  6  7  1  0
  7  8  2  0
  8  9  1  0
  9 10  1  0
 10 11  2  0
 10 12  1  0
 12 13  1  0
 13 14  1  0
 14 15  1  0
 15 16  1  0
  9 17  2  0
  4 18  2  0
 18 19  1  0
 19 20  2  0
 20 21  1  0
 21 22  2  0
 22 23  1  0
 23 24  1  0
 24 25  1  0
 25 26  1  0
 26 27  1  0
 27 28  1  0
 22 29  1  0
 29 30  2  0
 30  2  1  0
 17  5  1  0
 30 19  1  0
 16 12  1  0
 28 23  1  0
  3 31  1  0
  3 32  1  0
  6 33  1  0
  7 34  1  0
  8 35  1  0
 13 36  1  0
 13 37  1  0
 14 38  1  0
 14 39  1  0
 15 40  1  0
 15 41  1  0
 16 42  1  0
 16 43  1  0
 17 44  1  0
 20 45  1  0
 21 46  1  0
 24 47  1  0
 24 48  1  0
 25 49  1  0
 25 50  1  0
 26 51  1  0
 26 52  1  0
 27 53  1  0
 27 54  1  0
 28 55  1  0
 28 56  1  0
 29 57  1  0
M  END
>  <smiles>  (47) 
O=C1CC(c2cccc(C(=O)N3CCCC3)c2)=Nc2ccc(N3CCCCC3)cc21

>  <score_type>  (47) 
oracle

>  <origin>  (47) 
autodockgpu

>  <m_score__min__energy>  (47) 
-8.9900000000000002

>  <m_primary>  (47) 
energy

>  <rmsd>  (47) 
5.847492831282075

>  <m_score__min__rmsd>  (47) 
5.847492831282075

>  <meeko>  (47) 
{"free_energy": -8.97, "intermolecular_energy": -9.87, "internal_energy": -0.77, "cluster_size": 49, "cluster_id": 1, "rank_in_cluster": 10}

>  <energy>  (47) 
-8.07

>  <cluster_rmsd>  (47) 
1.71

>  <cluster>  (47) 
1

$$$$

     RDKit          3D

 57 61  0  0  0  0  0  0  0  0999 V2000
  142.7620   74.6840  220.5440 O   0  0  0  0  0  0  0  0  0  0  0  0
  141.6730   74.3940  221.1050 C   0  0  0  0  0  0  0  0  0  0  0  0
  141.3450   72.9660  221.2650 C   0  0  0  0  0  0  0  0  0  0  0  0
  140.0390   72.7780  221.9390 C   0  0  0  0  0  0  0  0  0  0  0  0
  139.5930   71.3990  222.1600 C   0  0  0  0  0  0  0  0  0  0  0  0
  139.0400   70.6250  221.1780 C   0  0  0  0  0  0  0  0  0  0  0  0
  138.6120   69.3280  221.3590 C   0  0  0  0  0  0  0  0  0  0  0  0
  138.7440   68.7600  222.6030 C   0  0  0  0  0  0  0  0  0  0  0  0
  139.3020   69.5080  223.6390 C   0  0  0  0  0  0  0  0  0  0  0  0
  139.4130   68.8440  224.9340 C   0  0  0  0  0  0  0  0  0  0  0  0
  139.2260   67.6000  224.9500 O   0  0  0  0  0  0  0  0  0  0  0  0
  139.7170   69.5670  226.1210 N   0  0  0  0  0  0  0  0  0  0  0  0
  139.9610   71.0040  226.2690 C   0  0  0  0  0  0  0  0  0  0  0  0
  140.8850   71.1390  227.4390 C   0  0  0  0  0  0  0  0  0  0  0  0
  140.9860   69.7880  228.0640 C   0  0  0  0  0  0  0  0  0  0  0  0
  139.8480   69.0170  227.4350 C   0  0  0  0  0  0  0  0  0  0  0  0
  139.7210   70.8060  223.4220 C   0  0  0  0  0  0  0  0  0  0  0  0
  139.2890   73.7510  222.3340 N   0  0  0  0  0  0  0  0  0  0  0  0
  139.6200   75.1240  222.1710 C   0  0  0  0  0  0  0  0  0  0  0  0
  138.8080   76.1500  222.5980 C   0  0  0  0  0  0  0  0  0  0  0  0
  139.1700   77.4910  222.4200 C   0  0  0  0  0  0  0  0  0  0  0  0
  140.3560   77.8320  221.8080 C   0  0  0  0  0  0  0  0  0  0  0  0
  140.6710   79.2060  221.6550 N   0  0  0  0  0  0  0  0  0  0  0  0
  141.5320   79.5790  220.5570 C   0  0  0  0  0  0  0  0  0  0  0  0
  141.3680   81.0820  220.3540 C   0  0  0  0  0  0  0  0  0  0  0  0
  141.7930   81.8640  221.5680 C   0  0  0  0  0  0  0  0  0  0  0  0
  141.2940   81.2440  222.8310 C   0  0  0  0  0  0  0  0  0  0  0  0
  140.1890   80.2550  222.5230 C   0  0  0  0  0  0  0  0  0  0  0  0
  141.1630   76.8020  221.3840 C   0  0  0  0  0  0  0  0  0  0  0  0
  140.8050   75.4770  221.5610 C   0  0  0  0  0  0  0  0  0  0  0  0
  141.3049   72.4956  220.2715 H   0  0  0  0  0  0  0  0  0  0  0  0
  142.1236   72.5022  221.8884 H   0  0  0  0  0  0  0  0  0  0  0  0
  138.9294   71.0672  220.1769 H   0  0  0  0  0  0  0  0  0  0  0  0
  138.1740   68.7594  220.5254 H   0  0  0  0  0  0  0  0  0  0  0  0
  138.4130   67.7260  222.7798 H   0  0  0  0  0  0  0  0  0  0  0  0
  140.4307   71.4089  225.3605 H   0  0  0  0  0  0  0  0  0  0  0  0
  139.0252   71.5611  226.4240 H   0  0  0  0  0  0  0  0  0  0  0  0
  141.8765   71.4759  227.1021 H   0  0  0  0  0  0  0  0  0  0  0  0
  140.5067   71.8803  228.1583 H   0  0  0  0  0  0  0  0  0  0  0  0
  141.9535   69.3193  227.8311 H   0  0  0  0  0  0  0  0  0  0  0  0
  140.9241   69.8202  229.1618 H   0  0  0  0  0  0  0  0  0  0  0  0
  140.0878   67.9446  227.3842 H   0  0  0  0  0  0  0  0  0  0  0  0
  138.9176   69.1020  228.0156 H   0  0  0  0  0  0  0  0  0  0  0  0
  140.1605   71.3808  224.2505 H   0  0  0  0  0  0  0  0  0  0  0  0
  137.8535   75.9113  223.0900 H   0  0  0  0  0  0  0  0  0  0  0  0
  138.4963   78.2850  222.7747 H   0  0  0  0  0  0  0  0  0  0  0  0
  142.5784   79.3424  220.7999 H   0  0  0  0  0  0  0  0  0  0  0  0
  141.2652   79.0275  219.6434 H   0  0  0  0  0  0  0  0  0  0  0  0
  141.9832   81.3940  219.4972 H   0  0  0  0  0  0  0  0  0  0  0  0
  140.3023   81.2865  220.1737 H   0  0  0  0  0  0  0  0  0  0  0  0
  142.8919   81.9018  221.6001 H   0  0  0  0  0  0  0  0  0  0  0  0
  141.3641   82.8740  221.4908 H   0  0  0  0  0  0  0  0  0  0  0  0
  142.1220   80.7205  223.3314 H   0  0  0  0  0  0  0  0  0  0  0  0
  140.8989   82.0327  223.4881 H   0  0  0  0  0  0  0  0  0  0  0  0
  139.8303   79.8099  223.4628 H   0  0  0  0  0  0  0  0  0  0  0  0
  139.3701   80.7859  222.0156 H   0  0  0  0  0  0  0  0  0  0  0  0
  142.1179   77.0376  220.8914 H   0  0  0  0  0  0  0  0  0  0  0  0
  1  2  2  0
  2  3  1  0
  3  4  1  0
  4  5  1  0
  5  6  2  0
  6  7  1  0
  7  8  2  0
  8  9  1  0
  9 10  1  0
 10 11  2  0
 10 12  1  0
 12 13  1  0
 13 14  1  0
 14 15  1  0
 15 16  1  0
  9 17  2  0
  4 18  2  0
 18 19  1  0
 19 20  2  0
 20 21  1  0
 21 22  2  0
 22 23  1  0
 23 24  1  0
 24 25  1  0
 25 26  1  0
 26 27  1  0
 27 28  1  0
 22 29  1  0
 29 30  2  0
 30  2  1  0
 17  5  1  0
 30 19  1  0
 16 12  1  0
 28 23  1  0
  3 31  1  0
  3 32  1  0
  6 33  1  0
  7 34  1  0
  8 35  1  0
 13 36  1  0
 13 37  1  0
 14 38  1  0
 14 39  1  0
 15 40  1  0
 15 41  1  0
 16 42  1  0
 16 43  1  0
 17 44  1  0
 20 45  1  0
 21 46  1  0
 24 47  1  0
 24 48  1  0
 25 49  1  0
 25 50  1  0
 26 51  1  0
 26 52  1  0
 27 53  1  0
 27 54  1  0
 28 55  1  0
 28 56  1  0
 29 57  1  0
M  END
>  <smiles>  (48) 
O=C1CC(c2cccc(C(=O)N3CCCC3)c2)=Nc2ccc(N3CCCCC3)cc21

>  <score_type>  (48) 
oracle

>  <origin>  (48) 
autodockgpu

>  <m_score__min__energy>  (48) 
-8.9900000000000002

>  <m_primary>  (48) 
energy

>  <rmsd>  (48) 
6.162961189765642

>  <m_score__min__rmsd>  (48) 
6.162961189765642

>  <meeko>  (48) 
{"free_energy": -8.75, "intermolecular_energy": -9.64, "internal_energy": -0.79, "cluster_size": 49, "cluster_id": 1, "rank_in_cluster": 42}

>  <energy>  (48) 
-8.04

>  <cluster_rmsd>  (48) 
1.74

>  <cluster>  (48) 
1

$$$$

     RDKit          3D

 57 61  0  0  0  0  0  0  0  0999 V2000
  142.9200   74.9750  220.1150 O   0  0  0  0  0  0  0  0  0  0  0  0
  141.9140   74.6750  220.8100 C   0  0  0  0  0  0  0  0  0  0  0  0
  141.6070   73.2440  220.9860 C   0  0  0  0  0  0  0  0  0  0  0  0
  140.4000   73.0430  221.8220 C   0  0  0  0  0  0  0  0  0  0  0  0
  139.9850   71.6610  222.0760 C   0  0  0  0  0  0  0  0  0  0  0  0
  139.7230   70.7640  221.0780 C   0  0  0  0  0  0  0  0  0  0  0  0
  139.3300   69.4590  221.2880 C   0  0  0  0  0  0  0  0  0  0  0  0
  139.1880   69.0170  222.5810 C   0  0  0  0  0  0  0  0  0  0  0  0
  139.4430   69.8930  223.6350 C   0  0  0  0  0  0  0  0  0  0  0  0
  139.2730   69.3580  224.9820 C   0  0  0  0  0  0  0  0  0  0  0  0
  138.7620   68.2120  225.0750 O   0  0  0  0  0  0  0  0  0  0  0  0
  139.6660   70.0940  226.1340 N   0  0  0  0  0  0  0  0  0  0  0  0
  140.2710   71.4270  226.1940 C   0  0  0  0  0  0  0  0  0  0  0  0
  141.1040   71.4380  227.4380 C   0  0  0  0  0  0  0  0  0  0  0  0
  140.7940   70.1760  228.1720 C   0  0  0  0  0  0  0  0  0  0  0  0
  139.5440   69.6650  227.4930 C   0  0  0  0  0  0  0  0  0  0  0  0
  139.8350   71.1940  223.3870 C   0  0  0  0  0  0  0  0  0  0  0  0
  139.7100   74.0090  222.3300 N   0  0  0  0  0  0  0  0  0  0  0  0
  140.0210   75.3850  222.1490 C   0  0  0  0  0  0  0  0  0  0  0  0
  139.2740   76.4030  222.6970 C   0  0  0  0  0  0  0  0  0  0  0  0
  139.6110   77.7470  222.4960 C   0  0  0  0  0  0  0  0  0  0  0  0
  140.7080   78.1000  221.7400 C   0  0  0  0  0  0  0  0  0  0  0  0
  141.0030   79.4760  221.5710 N   0  0  0  0  0  0  0  0  0  0  0  0
  140.7280   80.3620  222.6760 C   0  0  0  0  0  0  0  0  0  0  0  0
  141.5070   81.6490  222.4200 C   0  0  0  0  0  0  0  0  0  0  0  0
  141.0650   82.3310  221.1530 C   0  0  0  0  0  0  0  0  0  0  0  0
  140.8790   81.3600  220.0340 C   0  0  0  0  0  0  0  0  0  0  0  0
  141.5600   80.0480  220.3670 C   0  0  0  0  0  0  0  0  0  0  0  0
  141.4500   77.0770  221.1960 C   0  0  0  0  0  0  0  0  0  0  0  0
  141.1160   75.7490  221.3950 C   0  0  0  0  0  0  0  0  0  0  0  0
  141.4361   72.7916  219.9980 H   0  0  0  0  0  0  0  0  0  0  0  0
  142.4597   72.7695  221.4937 H   0  0  0  0  0  0  0  0  0  0  0  0
  139.8330   71.1061  220.0383 H   0  0  0  0  0  0  0  0  0  0  0  0
  139.1346   68.7870  220.4393 H   0  0  0  0  0  0  0  0  0  0  0  0
  138.8760   67.9816  222.7827 H   0  0  0  0  0  0  0  0  0  0  0  0
  140.9006   71.6027  225.3092 H   0  0  0  0  0  0  0  0  0  0  0  0
  139.5078   72.2190  226.2093 H   0  0  0  0  0  0  0  0  0  0  0  0
  142.1724   71.4732  227.1787 H   0  0  0  0  0  0  0  0  0  0  0  0
  140.8813   72.3204  228.0559 H   0  0  0  0  0  0  0  0  0  0  0  0
  141.6172   69.4529  228.0742 H   0  0  0  0  0  0  0  0  0  0  0  0
  140.6587   70.3332  229.2523 H   0  0  0  0  0  0  0  0  0  0  0  0
  139.4929   68.5677  227.5500 H   0  0  0  0  0  0  0  0  0  0  0  0
  138.6278   70.0455  227.9682 H   0  0  0  0  0  0  0  0  0  0  0  0
  140.0319   71.8719  224.2306 H   0  0  0  0  0  0  0  0  0  0  0  0
  138.3925   76.1551  223.3065 H   0  0  0  0  0  0  0  0  0  0  0  0
  138.9901   78.5340  222.9488 H   0  0  0  0  0  0  0  0  0  0  0  0
  139.6505   80.5768  222.7290 H   0  0  0  0  0  0  0  0  0  0  0  0
  141.0281   79.9045  223.6303 H   0  0  0  0  0  0  0  0  0  0  0  0
  141.3495   82.3341  223.2660 H   0  0  0  0  0  0  0  0  0  0  0  0
  142.5702   81.3880  222.3132 H   0  0  0  0  0  0  0  0  0  0  0  0
  140.1107   82.8451  221.3401 H   0  0  0  0  0  0  0  0  0  0  0  0
  141.8487   83.0446  220.8586 H   0  0  0  0  0  0  0  0  0  0  0  0
  139.8042   81.1836  219.8798 H   0  0  0  0  0  0  0  0  0  0  0  0
  141.3244   81.7754  219.1180 H   0  0  0  0  0  0  0  0  0  0  0  0
  141.4169   79.3449  219.5333 H   0  0  0  0  0  0  0  0  0  0  0  0
  142.6319   80.2360  220.5273 H   0  0  0  0  0  0  0  0  0  0  0  0
  142.3325   77.3214  220.5865 H   0  0  0  0  0  0  0  0  0  0  0  0
  1  2  2  0
  2  3  1  0
  3  4  1  0
  4  5  1  0
  5  6  2  0
  6  7  1  0
  7  8  2  0
  8  9  1  0
  9 10  1  0
 10 11  2  0
 10 12  1  0
 12 13  1  0
 13 14  1  0
 14 15  1  0
 15 16  1  0
  9 17  2  0
  4 18  2  0
 18 19  1  0
 19 20  2  0
 20 21  1  0
 21 22  2  0
 22 23  1  0
 23 24  1  0
 24 25  1  0
 25 26  1  0
 26 27  1  0
 27 28  1  0
 22 29  1  0
 29 30  2  0
 30  2  1  0
 17  5  1  0
 30 19  1  0
 16 12  1  0
 28 23  1  0
  3 31  1  0
  3 32  1  0
  6 33  1  0
  7 34  1  0
  8 35  1  0
 13 36  1  0
 13 37  1  0
 14 38  1  0
 14 39  1  0
 15 40  1  0
 15 41  1  0
 16 42  1  0
 16 43  1  0
 17 44  1  0
 20 45  1  0
 21 46  1  0
 24 47  1  0
 24 48  1  0
 25 49  1  0
 25 50  1  0
 26 51  1  0
 26 52  1  0
 27 53  1  0
 27 54  1  0
 28 55  1  0
 28 56  1  0
 29 57  1  0
M  END
>  <smiles>  (49) 
O=C1CC(c2cccc(C(=O)N3CCCC3)c2)=Nc2ccc(N3CCCCC3)cc21

>  <score_type>  (49) 
oracle

>  <origin>  (49) 
autodockgpu

>  <m_score__min__energy>  (49) 
-8.9900000000000002

>  <m_primary>  (49) 
energy

>  <rmsd>  (49) 
5.856244018867191

>  <m_score__min__rmsd>  (49) 
5.856244018867191

>  <meeko>  (49) 
{"free_energy": -8.82, "intermolecular_energy": -9.71, "internal_energy": -0.78, "cluster_size": 49, "cluster_id": 1, "rank_in_cluster": 36}

>  <energy>  (49) 
-7.91

>  <cluster_rmsd>  (49) 
1.06

>  <cluster>  (49) 
1

$$$$

     RDKit          3D

 57 61  0  0  0  0  0  0  0  0999 V2000
  142.8320   74.8400  220.4570 O   0  0  0  0  0  0  0  0  0  0  0  0
  141.7590   74.5320  221.0390 C   0  0  0  0  0  0  0  0  0  0  0  0
  141.4500   73.0990  221.1910 C   0  0  0  0  0  0  0  0  0  0  0  0
  140.1620   72.8890  221.8920 C   0  0  0  0  0  0  0  0  0  0  0  0
  139.7360   71.5030  222.1080 C   0  0  0  0  0  0  0  0  0  0  0  0
  139.2560   70.7040  221.1080 C   0  0  0  0  0  0  0  0  0  0  0  0
  138.8480   69.3990  221.2830 C   0  0  0  0  0  0  0  0  0  0  0  0
  138.9230   68.8510  222.5410 C   0  0  0  0  0  0  0  0  0  0  0  0
  139.4070   69.6250  223.5950 C   0  0  0  0  0  0  0  0  0  0  0  0
  139.4600   68.9800  224.9030 C   0  0  0  0  0  0  0  0  0  0  0  0
  139.1930   67.7520  224.9400 O   0  0  0  0  0  0  0  0  0  0  0  0
  139.7990   69.7040  226.0800 N   0  0  0  0  0  0  0  0  0  0  0  0
  140.1350   71.1250  226.2040 C   0  0  0  0  0  0  0  0  0  0  0  0
  141.0530   71.2230  227.3820 C   0  0  0  0  0  0  0  0  0  0  0  0
  141.0600   69.8810  228.0330 C   0  0  0  0  0  0  0  0  0  0  0  0
  139.8800   69.1730  227.4060 C   0  0  0  0  0  0  0  0  0  0  0  0
  139.8070   70.9290  223.3830 C   0  0  0  0  0  0  0  0  0  0  0  0
  139.4110   73.8490  222.3160 N   0  0  0  0  0  0  0  0  0  0  0  0
  139.7240   75.2270  222.1600 C   0  0  0  0  0  0  0  0  0  0  0  0
  138.9110   76.2400  222.6170 C   0  0  0  0  0  0  0  0  0  0  0  0
  139.2540   77.5870  222.4460 C   0  0  0  0  0  0  0  0  0  0  0  0
  140.4220   77.9480  221.8110 C   0  0  0  0  0  0  0  0  0  0  0  0
  140.7190   79.3260  221.6660 N   0  0  0  0  0  0  0  0  0  0  0  0
  141.4660   79.7330  220.4990 C   0  0  0  0  0  0  0  0  0  0  0  0
  141.2810   81.2410  220.3560 C   0  0  0  0  0  0  0  0  0  0  0  0
  141.8240   81.9900  221.5430 C   0  0  0  0  0  0  0  0  0  0  0  0
  141.4550   81.3330  222.8320 C   0  0  0  0  0  0  0  0  0  0  0  0
  140.3260   80.3480  222.6080 C   0  0  0  0  0  0  0  0  0  0  0  0
  141.2310   76.9310  221.3570 C   0  0  0  0  0  0  0  0  0  0  0  0
  140.8910   75.6000  221.5270 C   0  0  0  0  0  0  0  0  0  0  0  0
  141.3925   72.6387  220.1936 H   0  0  0  0  0  0  0  0  0  0  0  0
  142.2474   72.6375  221.7920 H   0  0  0  0  0  0  0  0  0  0  0  0
  139.1910   71.1309  220.0963 H   0  0  0  0  0  0  0  0  0  0  0  0
  138.4708   68.8093  220.4345 H   0  0  0  0  0  0  0  0  0  0  0  0
  138.6045   67.8125  222.7147 H   0  0  0  0  0  0  0  0  0  0  0  0
  140.6399   71.4805  225.2937 H   0  0  0  0  0  0  0  0  0  0  0  0
  139.2359   71.7446  226.3374 H   0  0  0  0  0  0  0  0  0  0  0  0
  142.0677   71.4889  227.0508 H   0  0  0  0  0  0  0  0  0  0  0  0
  140.7156   72.0009  228.0828 H   0  0  0  0  0  0  0  0  0  0  0  0
  141.9972   69.3462  227.8194 H   0  0  0  0  0  0  0  0  0  0  0  0
  140.9897   69.9383  229.1293 H   0  0  0  0  0  0  0  0  0  0  0  0
  140.0495   68.0865  227.3788 H   0  0  0  0  0  0  0  0  0  0  0  0
  138.9512   69.3300  227.9741 H   0  0  0  0  0  0  0  0  0  0  0  0
  140.1863   71.5247  224.2264 H   0  0  0  0  0  0  0  0  0  0  0  0
  137.9707   75.9855  223.1280 H   0  0  0  0  0  0  0  0  0  0  0  0
  138.5799   78.3694  222.8248 H   0  0  0  0  0  0  0  0  0  0  0  0
  142.5316   79.4936  220.6299 H   0  0  0  0  0  0  0  0  0  0  0  0
  141.1102   79.2064  219.6012 H   0  0  0  0  0  0  0  0  0  0  0  0
  141.8074   81.5793  219.4513 H   0  0  0  0  0  0  0  0  0  0  0  0
  140.2025   81.4464  220.2886 H   0  0  0  0  0  0  0  0  0  0  0  0
  142.9205   82.0315  221.4661 H   0  0  0  0  0  0  0  0  0  0  0  0
  141.3877   82.9997  221.5378 H   0  0  0  0  0  0  0  0  0  0  0  0
  142.3297   80.7994  223.2322 H   0  0  0  0  0  0  0  0  0  0  0  0
  141.1267   82.1014  223.5474 H   0  0  0  0  0  0  0  0  0  0  0  0
  140.0644   79.8747  223.5659 H   0  0  0  0  0  0  0  0  0  0  0  0
  139.4597   80.8899  222.2007 H   0  0  0  0  0  0  0  0  0  0  0  0
  142.1720   77.1825  220.8459 H   0  0  0  0  0  0  0  0  0  0  0  0
  1  2  2  0
  2  3  1  0
  3  4  1  0
  4  5  1  0
  5  6  2  0
  6  7  1  0
  7  8  2  0
  8  9  1  0
  9 10  1  0
 10 11  2  0
 10 12  1  0
 12 13  1  0
 13 14  1  0
 14 15  1  0
 15 16  1  0
  9 17  2  0
  4 18  2  0
 18 19  1  0
 19 20  2  0
 20 21  1  0
 21 22  2  0
 22 23  1  0
 23 24  1  0
 24 25  1  0
 25 26  1  0
 26 27  1  0
 27 28  1  0
 22 29  1  0
 29 30  2  0
 30  2  1  0
 17  5  1  0
 30 19  1  0
 16 12  1  0
 28 23  1  0
  3 31  1  0
  3 32  1  0
  6 33  1  0
  7 34  1  0
  8 35  1  0
 13 36  1  0
 13 37  1  0
 14 38  1  0
 14 39  1  0
 15 40  1  0
 15 41  1  0
 16 42  1  0
 16 43  1  0
 17 44  1  0
 20 45  1  0
 21 46  1  0
 24 47  1  0
 24 48  1  0
 25 49  1  0
 25 50  1  0
 26 51  1  0
 26 52  1  0
 27 53  1  0
 27 54  1  0
 28 55  1  0
 28 56  1  0
 29 57  1  0
M  END
>  <smiles>  (50) 
O=C1CC(c2cccc(C(=O)N3CCCC3)c2)=Nc2ccc(N3CCCCC3)cc21

>  <score_type>  (50) 
oracle

>  <origin>  (50) 
autodockgpu

>  <m_score__min__energy>  (50) 
-8.9900000000000002

>  <m_primary>  (50) 
energy

>  <rmsd>  (50) 
6.17182573069957

>  <m_score__min__rmsd>  (50) 
6.17182573069957

>  <meeko>  (50) 
{"free_energy": -8.85, "intermolecular_energy": -9.75, "internal_energy": -0.78, "cluster_size": 49, "cluster_id": 1, "rank_in_cluster": 32}

>  <energy>  (50) 
-7.61

>  <cluster_rmsd>  (50) 
0.0

>  <cluster>  (50) 
2

$$$$
