
     RDKit          3D

 52 55  0  0  0  0  0  0  0  0999 V2000
  141.3730   72.4830  221.9370 O   0  0  0  0  0  0  0  0  0  0  0  0
  140.3300   72.4560  222.6360 C   0  0  0  0  0  0  0  0  0  0  0  0
  139.2880   73.3740  222.3320 N   0  0  0  0  0  0  0  0  0  0  0  0
  139.2870   74.3350  221.3020 C   0  0  0  0  0  0  0  0  0  0  0  0
  140.5010   75.1120  221.1260 C   0  0  0  0  0  0  0  0  0  0  0  0
  140.7470   75.8680  222.1800 O   0  0  0  0  0  0  0  0  0  0  0  0
  141.4350   75.2340  220.1110 N   0  0  0  0  0  0  0  0  0  0  0  0
  141.8010   74.5280  218.9160 C   0  0  0  0  0  0  0  0  0  0  0  0
  143.3300   74.4800  219.0620 C   0  0  2  0  0  0  0  0  0  0  0  0
  143.6260   73.8640  220.2440 O   0  0  0  0  0  0  0  0  0  0  0  0
  143.5580   75.9860  219.2630 C   0  0  0  0  0  0  0  0  0  0  0  0
  142.4080   76.3850  220.1160 C   0  0  1  0  0  0  0  0  0  0  0  0
  141.6080   77.5270  219.5420 C   0  0  0  0  0  0  0  0  0  0  0  0
  140.8670   78.2760  220.4090 O   0  0  0  0  0  0  0  0  0  0  0  0
  141.2690   79.0070  221.4570 C   0  0  0  0  0  0  0  0  0  0  0  0
  142.2030   80.0110  221.4960 C   0  0  0  0  0  0  0  0  0  0  0  0
  142.5160   80.6880  222.6720 C   0  0  0  0  0  0  0  0  0  0  0  0
  141.8890   80.3620  223.8410 C   0  0  0  0  0  0  0  0  0  0  0  0
  140.9750   79.3800  223.8130 N   0  0  0  0  0  0  0  0  0  0  0  0
  140.6620   78.7230  222.7020 C   0  0  0  0  0  0  0  0  0  0  0  0
  140.1940   71.5040  223.7350 C   0  0  0  0  0  0  0  0  0  0  0  0
  139.5670   70.2980  223.5070 C   0  0  0  0  0  0  0  0  0  0  0  0
  139.3960   69.3430  224.4860 C   0  0  0  0  0  0  0  0  0  0  0  0
  139.8900   69.6460  225.7410 C   0  0  0  0  0  0  0  0  0  0  0  0
  139.7300   68.7000  226.7470 C   0  0  0  0  0  0  0  0  0  0  0  0
  140.2180   68.9910  227.9990 C   0  0  0  0  0  0  0  0  0  0  0  0
  140.8510   70.2040  228.2330 C   0  0  0  0  0  0  0  0  0  0  0  0
  141.0150   71.1520  227.2430 C   0  0  0  0  0  0  0  0  0  0  0  0
  140.5270   70.8640  225.9840 C   0  0  0  0  0  0  0  0  0  0  0  0
  140.6560   71.7460  224.9770 N   0  0  0  0  0  0  0  0  0  0  0  0
  138.4370   73.3080  222.9580 H   0  0  0  0  0  0  0  0  0  0  0  0
  139.0898   73.8084  220.3566 H   0  0  0  0  0  0  0  0  0  0  0  0
  138.5188   75.0663  221.5935 H   0  0  0  0  0  0  0  0  0  0  0  0
  141.3652   73.5182  218.8936 H   0  0  0  0  0  0  0  0  0  0  0  0
  141.4483   74.9971  217.9856 H   0  0  0  0  0  0  0  0  0  0  0  0
  143.8913   73.9806  218.2585 H   0  0  0  0  0  0  0  0  0  0  0  0
  142.8140   73.5670  220.7110 H   0  0  0  0  0  0  0  0  0  0  0  0
  144.5139   76.1770  219.7728 H   0  0  0  0  0  0  0  0  0  0  0  0
  143.6134   76.5469  218.3183 H   0  0  0  0  0  0  0  0  0  0  0  0
  142.8199   76.6662  221.0964 H   0  0  0  0  0  0  0  0  0  0  0  0
  142.3146   78.2054  219.0415 H   0  0  0  0  0  0  0  0  0  0  0  0
  140.8687   77.0478  218.8834 H   0  0  0  0  0  0  0  0  0  0  0  0
  142.7220   80.2906  220.5673 H   0  0  0  0  0  0  0  0  0  0  0  0
  143.2708   81.4881  222.6595 H   0  0  0  0  0  0  0  0  0  0  0  0
  142.1262   80.8887  224.7771 H   0  0  0  0  0  0  0  0  0  0  0  0
  139.9026   77.9287  222.7523 H   0  0  0  0  0  0  0  0  0  0  0  0
  139.1854   70.0879  222.4969 H   0  0  0  0  0  0  0  0  0  0  0  0
  138.8917   68.3876  224.2790 H   0  0  0  0  0  0  0  0  0  0  0  0
  139.2259   67.7431  226.5465 H   0  0  0  0  0  0  0  0  0  0  0  0
  140.1068   68.2623  228.8155 H   0  0  0  0  0  0  0  0  0  0  0  0
  141.2350   70.4171  229.2415 H   0  0  0  0  0  0  0  0  0  0  0  0
  141.5190   72.1074  227.4508 H   0  0  0  0  0  0  0  0  0  0  0  0
  1  2  2  0
  2  3  1  0
  3  4  1  0
  4  5  1  0
  5  6  2  0
  5  7  1  0
  7  8  1  0
  8  9  1  0
  9 10  1  0
  9 11  1  0
 11 12  1  0
 12 13  1  0
 13 14  1  0
 14 15  1  0
 15 16  2  0
 16 17  1  0
 17 18  2  0
 18 19  1  0
 19 20  2  0
  2 21  1  0
 21 22  2  0
 22 23  1  0
 23 24  2  0
 24 25  1  0
 25 26  2  0
 26 27  1  0
 27 28  2  0
 28 29  1  0
 29 30  2  0
 12  7  1  0
 20 15  1  0
 30 21  1  0
 29 24  1  0
  3 31  1  0
  4 32  1  0
  4 33  1  0
  8 34  1  0
  8 35  1  0
  9 36  1  6
 10 37  1  0
 11 38  1  0
 11 39  1  0
 12 40  1  1
 13 41  1  0
 13 42  1  0
 16 43  1  0
 17 44  1  0
 18 45  1  0
 20 46  1  0
 22 47  1  0
 23 48  1  0
 25 49  1  0
 26 50  1  0
 27 51  1  0
 28 52  1  0
M  END
>  <smiles>  (1) 
O=C(NCC(=O)N1C[C@H](O)C[C@H]1COc1cccnc1)c1ccc2ccccc2n1

>  <score_type>  (1) 
oracle

>  <origin>  (1) 
autodockgpu

>  <m_score__min__energy>  (1) 
-8.4399999999999995

>  <m_primary>  (1) 
energy

>  <rmsd>  (1) 
1.9730736594440832

>  <m_score__min__rmsd>  (1) 
1.9730736594440832

>  <meeko>  (1) 
{"free_energy": -7.94, "intermolecular_energy": -10.33, "internal_energy": -2.18, "cluster_size": 30, "cluster_id": 1, "rank_in_cluster": 14}

>  <energy>  (1) 
-8.44

>  <cluster_rmsd>  (1) 
0.0

>  <cluster>  (1) 
1

$$$$

     RDKit          3D

 52 55  0  0  0  0  0  0  0  0999 V2000
  141.0560   72.0800  222.0400 O   0  0  0  0  0  0  0  0  0  0  0  0
  140.0430   72.0040  222.7760 C   0  0  0  0  0  0  0  0  0  0  0  0
  138.9350   72.8490  222.4930 N   0  0  0  0  0  0  0  0  0  0  0  0
  138.8380   73.7870  221.4450 C   0  0  0  0  0  0  0  0  0  0  0  0
  139.9490   74.7080  221.2820 C   0  0  0  0  0  0  0  0  0  0  0  0
  140.0340   75.5470  222.2970 O   0  0  0  0  0  0  0  0  0  0  0  0
  140.9160   74.8970  220.3090 N   0  0  0  0  0  0  0  0  0  0  0  0
  141.2480   74.3520  219.0230 C   0  0  0  0  0  0  0  0  0  0  0  0
  142.7630   74.1420  219.1780 C   0  0  2  0  0  0  0  0  0  0  0  0
  142.9720   73.3270  220.2540 O   0  0  0  0  0  0  0  0  0  0  0  0
  143.1190   75.5720  219.6120 C   0  0  0  0  0  0  0  0  0  0  0  0
  141.9880   75.9400  220.5040 C   0  0  1  0  0  0  0  0  0  0  0  0
  141.3070   77.2240  220.1040 C   0  0  0  0  0  0  0  0  0  0  0  0
  141.9300   78.3940  220.4280 O   0  0  0  0  0  0  0  0  0  0  0  0
  141.8980   79.0830  221.5770 C   0  0  0  0  0  0  0  0  0  0  0  0
  141.6230   78.6290  222.8430 C   0  0  0  0  0  0  0  0  0  0  0  0
  141.6310   79.4730  223.9500 C   0  0  0  0  0  0  0  0  0  0  0  0
  141.9170   80.8000  223.8030 C   0  0  0  0  0  0  0  0  0  0  0  0
  142.1860   81.2530  222.5690 N   0  0  0  0  0  0  0  0  0  0  0  0
  142.1840   80.4650  221.4990 C   0  0  0  0  0  0  0  0  0  0  0  0
  140.0040   71.0690  223.8960 C   0  0  0  0  0  0  0  0  0  0  0  0
  139.4020   69.8400  223.7280 C   0  0  0  0  0  0  0  0  0  0  0  0
  139.3210   68.8980  224.7320 C   0  0  0  0  0  0  0  0  0  0  0  0
  139.8820   69.2400  225.9490 C   0  0  0  0  0  0  0  0  0  0  0  0
  139.8150   68.3080  226.9770 C   0  0  0  0  0  0  0  0  0  0  0  0
  140.3700   68.6360  228.1920 C   0  0  0  0  0  0  0  0  0  0  0  0
  140.9780   69.8720  228.3660 C   0  0  0  0  0  0  0  0  0  0  0  0
  141.0500   70.8060  227.3520 C   0  0  0  0  0  0  0  0  0  0  0  0
  140.4950   70.4800  226.1310 C   0  0  0  0  0  0  0  0  0  0  0  0
  140.5340   71.3470  225.1040 N   0  0  0  0  0  0  0  0  0  0  0  0
  138.1120   72.7430  223.1500 H   0  0  0  0  0  0  0  0  0  0  0  0
  138.7315   73.2253  220.5052 H   0  0  0  0  0  0  0  0  0  0  0  0
  137.9770   74.4200  221.7058 H   0  0  0  0  0  0  0  0  0  0  0  0
  140.7249   73.4020  218.8392 H   0  0  0  0  0  0  0  0  0  0  0  0
  140.9623   74.9884  218.1725 H   0  0  0  0  0  0  0  0  0  0  0  0
  143.2986   73.7223  218.3137 H   0  0  0  0  0  0  0  0  0  0  0  0
  142.1340   73.1280  220.7260 H   0  0  0  0  0  0  0  0  0  0  0  0
  144.0750   75.5941  220.1556 H   0  0  0  0  0  0  0  0  0  0  0  0
  143.2476   76.2633  218.7661 H   0  0  0  0  0  0  0  0  0  0  0  0
  142.3986   76.0292  221.5206 H   0  0  0  0  0  0  0  0  0  0  0  0
  141.1863   77.2065  219.0108 H   0  0  0  0  0  0  0  0  0  0  0  0
  140.3700   77.2360  220.6801 H   0  0  0  0  0  0  0  0  0  0  0  0
  141.3888   77.5640  222.9874 H   0  0  0  0  0  0  0  0  0  0  0  0
  141.4058   79.0689  224.9480 H   0  0  0  0  0  0  0  0  0  0  0  0
  141.9266   81.4771  224.6699 H   0  0  0  0  0  0  0  0  0  0  0  0
  142.4133   80.9042  220.5169 H   0  0  0  0  0  0  0  0  0  0  0  0
  138.9659   69.5996  222.7472 H   0  0  0  0  0  0  0  0  0  0  0  0
  138.8349   67.9241  224.5729 H   0  0  0  0  0  0  0  0  0  0  0  0
  139.3304   67.3325  226.8232 H   0  0  0  0  0  0  0  0  0  0  0  0
  140.3322   67.9193  229.0256 H   0  0  0  0  0  0  0  0  0  0  0  0
  141.4171   70.1152  229.3448 H   0  0  0  0  0  0  0  0  0  0  0  0
  141.5349   71.7803  227.5122 H   0  0  0  0  0  0  0  0  0  0  0  0
  1  2  2  0
  2  3  1  0
  3  4  1  0
  4  5  1  0
  5  6  2  0
  5  7  1  0
  7  8  1  0
  8  9  1  0
  9 10  1  0
  9 11  1  0
 11 12  1  0
 12 13  1  0
 13 14  1  0
 14 15  1  0
 15 16  2  0
 16 17  1  0
 17 18  2  0
 18 19  1  0
 19 20  2  0
  2 21  1  0
 21 22  2  0
 22 23  1  0
 23 24  2  0
 24 25  1  0
 25 26  2  0
 26 27  1  0
 27 28  2  0
 28 29  1  0
 29 30  2  0
 12  7  1  0
 20 15  1  0
 30 21  1  0
 29 24  1  0
  3 31  1  0
  4 32  1  0
  4 33  1  0
  8 34  1  0
  8 35  1  0
  9 36  1  6
 10 37  1  0
 11 38  1  0
 11 39  1  0
 12 40  1  1
 13 41  1  0
 13 42  1  0
 16 43  1  0
 17 44  1  0
 18 45  1  0
 20 46  1  0
 22 47  1  0
 23 48  1  0
 25 49  1  0
 26 50  1  0
 27 51  1  0
 28 52  1  0
M  END
>  <smiles>  (2) 
O=C(NCC(=O)N1C[C@H](O)C[C@H]1COc1cccnc1)c1ccc2ccccc2n1

>  <score_type>  (2) 
oracle

>  <origin>  (2) 
autodockgpu

>  <m_score__min__energy>  (2) 
-8.4399999999999995

>  <m_primary>  (2) 
energy

>  <rmsd>  (2) 
1.7770651332381011

>  <m_score__min__rmsd>  (2) 
1.7770651332381011

>  <meeko>  (2) 
{"free_energy": -7.84, "intermolecular_energy": -10.23, "internal_energy": -2.1, "cluster_size": 30, "cluster_id": 1, "rank_in_cluster": 16}

>  <energy>  (2) 
-8.42

>  <cluster_rmsd>  (2) 
0.09

>  <cluster>  (2) 
1

$$$$

     RDKit          3D

 52 55  0  0  0  0  0  0  0  0999 V2000
  140.7240   71.5510  221.3540 O   0  0  0  0  0  0  0  0  0  0  0  0
  140.2890   72.1290  222.3800 C   0  0  0  0  0  0  0  0  0  0  0  0
  139.9110   73.4950  222.2780 N   0  0  0  0  0  0  0  0  0  0  0  0
  139.9640   74.3000  221.1220 C   0  0  0  0  0  0  0  0  0  0  0  0
  141.2710   74.5020  220.5210 C   0  0  0  0  0  0  0  0  0  0  0  0
  142.2220   73.9150  221.2240 O   0  0  0  0  0  0  0  0  0  0  0  0
  141.7280   75.1690  219.3980 N   0  0  0  0  0  0  0  0  0  0  0  0
  141.6780   75.0040  217.9720 C   0  0  0  0  0  0  0  0  0  0  0  0
  143.1430   75.2750  217.5950 C   0  0  2  0  0  0  0  0  0  0  0  0
  143.9290   74.3920  218.2800 O   0  0  0  0  0  0  0  0  0  0  0  0
  143.2780   76.6390  218.2880 C   0  0  0  0  0  0  0  0  0  0  0  0
  142.5090   76.4510  219.5460 C   0  0  1  0  0  0  0  0  0  0  0  0
  141.4400   77.4930  219.7530 C   0  0  0  0  0  0  0  0  0  0  0  0
  140.9690   77.6700  221.0210 O   0  0  0  0  0  0  0  0  0  0  0  0
  141.3880   78.5160  221.9710 C   0  0  0  0  0  0  0  0  0  0  0  0
  141.3870   78.3470  223.3330 C   0  0  0  0  0  0  0  0  0  0  0  0
  141.8620   79.3260  224.2020 C   0  0  0  0  0  0  0  0  0  0  0  0
  142.3500   80.5030  223.7120 C   0  0  0  0  0  0  0  0  0  0  0  0
  142.3530   80.6790  222.3820 N   0  0  0  0  0  0  0  0  0  0  0  0
  141.9050   79.7580  221.5360 C   0  0  0  0  0  0  0  0  0  0  0  0
  140.1740   71.4110  223.6460 C   0  0  0  0  0  0  0  0  0  0  0  0
  139.5420   70.1860  223.6720 C   0  0  0  0  0  0  0  0  0  0  0  0
  139.3900   69.4430  224.8230 C   0  0  0  0  0  0  0  0  0  0  0  0
  139.9090   69.9850  225.9840 C   0  0  0  0  0  0  0  0  0  0  0  0
  139.7700   69.2560  227.1590 C   0  0  0  0  0  0  0  0  0  0  0  0
  140.2840   69.7840  228.3200 C   0  0  0  0  0  0  0  0  0  0  0  0
  140.9220   71.0170  228.2980 C   0  0  0  0  0  0  0  0  0  0  0  0
  141.0660   71.7510  227.1390 C   0  0  0  0  0  0  0  0  0  0  0  0
  140.5530   71.2240  225.9710 C   0  0  0  0  0  0  0  0  0  0  0  0
  140.6620   71.8900  224.8080 N   0  0  0  0  0  0  0  0  0  0  0  0
  139.5570   73.9290  223.1760 H   0  0  0  0  0  0  0  0  0  0  0  0
  139.3177   73.8348  220.3632 H   0  0  0  0  0  0  0  0  0  0  0  0
  139.6433   75.2987  221.4532 H   0  0  0  0  0  0  0  0  0  0  0  0
  141.3709   73.9851  217.6936 H   0  0  0  0  0  0  0  0  0  0  0  0
  140.9509   75.6554  217.4650 H   0  0  0  0  0  0  0  0  0  0  0  0
  143.4015   75.2167  216.5274 H   0  0  0  0  0  0  0  0  0  0  0  0
  143.5330   74.1510  219.1470 H   0  0  0  0  0  0  0  0  0  0  0  0
  144.3319   76.8726  218.4997 H   0  0  0  0  0  0  0  0  0  0  0  0
  142.9102   77.4753  217.6754 H   0  0  0  0  0  0  0  0  0  0  0  0
  143.2350   76.4837  220.3717 H   0  0  0  0  0  0  0  0  0  0  0  0
  141.8499   78.4567  219.4165 H   0  0  0  0  0  0  0  0  0  0  0  0
  140.5752   77.1239  219.1822 H   0  0  0  0  0  0  0  0  0  0  0  0
  140.9981   77.4072  223.7520 H   0  0  0  0  0  0  0  0  0  0  0  0
  141.8439   79.1502  225.2877 H   0  0  0  0  0  0  0  0  0  0  0  0
  142.7295   81.2838  224.3875 H   0  0  0  0  0  0  0  0  0  0  0  0
  141.9375   79.9695  220.4570 H   0  0  0  0  0  0  0  0  0  0  0  0
  139.1405   69.7829  222.7306 H   0  0  0  0  0  0  0  0  0  0  0  0
  138.8812   68.4677  224.8180 H   0  0  0  0  0  0  0  0  0  0  0  0
  139.2614   68.2807  227.1603 H   0  0  0  0  0  0  0  0  0  0  0  0
  140.1898   69.2299  229.2656 H   0  0  0  0  0  0  0  0  0  0  0  0
  141.3265   71.4225  229.2371 H   0  0  0  0  0  0  0  0  0  0  0  0
  141.5742   72.7266  227.1454 H   0  0  0  0  0  0  0  0  0  0  0  0
  1  2  2  0
  2  3  1  0
  3  4  1  0
  4  5  1  0
  5  6  2  0
  5  7  1  0
  7  8  1  0
  8  9  1  0
  9 10  1  0
  9 11  1  0
 11 12  1  0
 12 13  1  0
 13 14  1  0
 14 15  1  0
 15 16  2  0
 16 17  1  0
 17 18  2  0
 18 19  1  0
 19 20  2  0
  2 21  1  0
 21 22  2  0
 22 23  1  0
 23 24  2  0
 24 25  1  0
 25 26  2  0
 26 27  1  0
 27 28  2  0
 28 29  1  0
 29 30  2  0
 12  7  1  0
 20 15  1  0
 30 21  1  0
 29 24  1  0
  3 31  1  0
  4 32  1  0
  4 33  1  0
  8 34  1  0
  8 35  1  0
  9 36  1  6
 10 37  1  0
 11 38  1  0
 11 39  1  0
 12 40  1  1
 13 41  1  0
 13 42  1  0
 16 43  1  0
 17 44  1  0
 18 45  1  0
 20 46  1  0
 22 47  1  0
 23 48  1  0
 25 49  1  0
 26 50  1  0
 27 51  1  0
 28 52  1  0
M  END
>  <smiles>  (3) 
O=C(NCC(=O)N1C[C@H](O)C[C@H]1COc1cccnc1)c1ccc2ccccc2n1

>  <score_type>  (3) 
oracle

>  <origin>  (3) 
autodockgpu

>  <m_score__min__energy>  (3) 
-8.4399999999999995

>  <m_primary>  (3) 
energy

>  <rmsd>  (3) 
1.855231557763147

>  <m_score__min__rmsd>  (3) 
1.855231557763147

>  <meeko>  (3) 
{"free_energy": -7.72, "intermolecular_energy": -10.11, "internal_energy": -1.74, "cluster_size": 30, "cluster_id": 1, "rank_in_cluster": 18}

>  <energy>  (3) 
-8.3

>  <cluster_rmsd>  (3) 
1.06

>  <cluster>  (3) 
1

$$$$

     RDKit          3D

 52 55  0  0  0  0  0  0  0  0999 V2000
  138.3300   75.3240  222.3250 O   0  0  0  0  0  0  0  0  0  0  0  0
  139.4850   75.7810  222.1470 C   0  0  0  0  0  0  0  0  0  0  0  0
  140.4780   74.9200  221.6050 N   0  0  0  0  0  0  0  0  0  0  0  0
  140.3080   73.5730  221.2280 C   0  0  0  0  0  0  0  0  0  0  0  0
  139.8200   72.6610  222.2470 C   0  0  0  0  0  0  0  0  0  0  0  0
  140.7020   72.5010  223.2160 O   0  0  0  0  0  0  0  0  0  0  0  0
  138.6550   71.9320  222.4180 N   0  0  0  0  0  0  0  0  0  0  0  0
  137.4820   71.6130  221.6540 C   0  0  0  0  0  0  0  0  0  0  0  0
  136.3780   71.8710  222.6920 C   0  0  2  0  0  0  0  0  0  0  0  0
  136.4890   73.1630  223.1180 O   0  0  0  0  0  0  0  0  0  0  0  0
  136.9380   70.9730  223.8050 C   0  0  0  0  0  0  0  0  0  0  0  0
  138.4030   71.2040  223.7140 C   0  0  1  0  0  0  0  0  0  0  0  0
  139.1990   69.9320  223.5650 C   0  0  0  0  0  0  0  0  0  0  0  0
  139.9620   69.5380  224.6250 O   0  0  0  0  0  0  0  0  0  0  0  0
  140.1820   70.1610  225.7910 C   0  0  0  0  0  0  0  0  0  0  0  0
  139.6740   69.8650  227.0310 C   0  0  0  0  0  0  0  0  0  0  0  0
  139.9990   70.6110  228.1620 C   0  0  0  0  0  0  0  0  0  0  0  0
  140.8470   71.6750  228.0630 C   0  0  0  0  0  0  0  0  0  0  0  0
  141.3480   71.9730  226.8550 N   0  0  0  0  0  0  0  0  0  0  0  0
  141.0510   71.2750  225.7640 C   0  0  0  0  0  0  0  0  0  0  0  0
  139.7990   77.1660  222.4880 C   0  0  0  0  0  0  0  0  0  0  0  0
  138.7700   78.0530  222.7180 C   0  0  0  0  0  0  0  0  0  0  0  0
  138.9770   79.3760  223.0460 C   0  0  0  0  0  0  0  0  0  0  0  0
  140.2920   79.7940  223.1380 C   0  0  0  0  0  0  0  0  0  0  0  0
  140.5290   81.1230  223.4670 C   0  0  0  0  0  0  0  0  0  0  0  0
  141.8330   81.5490  223.5620 C   0  0  0  0  0  0  0  0  0  0  0  0
  142.8720   80.6590  223.3310 C   0  0  0  0  0  0  0  0  0  0  0  0
  142.6500   79.3370  223.0040 C   0  0  0  0  0  0  0  0  0  0  0  0
  141.3430   78.9040  222.9080 C   0  0  0  0  0  0  0  0  0  0  0  0
  141.0610   77.6280  222.5920 N   0  0  0  0  0  0  0  0  0  0  0  0
  141.4330   75.3590  221.4820 H   0  0  0  0  0  0  0  0  0  0  0  0
  139.5935   73.5498  220.3919 H   0  0  0  0  0  0  0  0  0  0  0  0
  141.3188   73.2145  220.9834 H   0  0  0  0  0  0  0  0  0  0  0  0
  137.3771   72.2727  220.7801 H   0  0  0  0  0  0  0  0  0  0  0  0
  137.4784   70.5978  221.2305 H   0  0  0  0  0  0  0  0  0  0  0  0
  135.3405   71.6981  222.3698 H   0  0  0  0  0  0  0  0  0  0  0  0
  137.4130   73.4910  223.0460 H   0  0  0  0  0  0  0  0  0  0  0  0
  136.5504   71.2747  224.7892 H   0  0  0  0  0  0  0  0  0  0  0  0
  136.6576   69.9154  223.6915 H   0  0  0  0  0  0  0  0  0  0  0  0
  138.7006   71.7321  224.6319 H   0  0  0  0  0  0  0  0  0  0  0  0
  138.4870   69.1210  223.3521 H   0  0  0  0  0  0  0  0  0  0  0  0
  139.9219   70.1463  222.7641 H   0  0  0  0  0  0  0  0  0  0  0  0
  138.9882   69.0113  227.1354 H   0  0  0  0  0  0  0  0  0  0  0  0
  139.5702   70.3410  229.1383 H   0  0  0  0  0  0  0  0  0  0  0  0
  141.1123   72.2714  228.9484 H   0  0  0  0  0  0  0  0  0  0  0  0
  141.4979   71.5753  224.8048 H   0  0  0  0  0  0  0  0  0  0  0  0
  137.7353   77.6886  222.6361 H   0  0  0  0  0  0  0  0  0  0  0  0
  138.1382   80.0646  223.2255 H   0  0  0  0  0  0  0  0  0  0  0  0
  139.6946   81.8168  223.6469 H   0  0  0  0  0  0  0  0  0  0  0  0
  142.0523   82.5953  223.8211 H   0  0  0  0  0  0  0  0  0  0  0  0
  143.9081   81.0196  223.4113 H   0  0  0  0  0  0  0  0  0  0  0  0
  143.4894   78.6489  222.8252 H   0  0  0  0  0  0  0  0  0  0  0  0
  1  2  2  0
  2  3  1  0
  3  4  1  0
  4  5  1  0
  5  6  2  0
  5  7  1  0
  7  8  1  0
  8  9  1  0
  9 10  1  0
  9 11  1  0
 11 12  1  0
 12 13  1  0
 13 14  1  0
 14 15  1  0
 15 16  2  0
 16 17  1  0
 17 18  2  0
 18 19  1  0
 19 20  2  0
  2 21  1  0
 21 22  2  0
 22 23  1  0
 23 24  2  0
 24 25  1  0
 25 26  2  0
 26 27  1  0
 27 28  2  0
 28 29  1  0
 29 30  2  0
 12  7  1  0
 20 15  1  0
 30 21  1  0
 29 24  1  0
  3 31  1  0
  4 32  1  0
  4 33  1  0
  8 34  1  0
  8 35  1  0
  9 36  1  6
 10 37  1  0
 11 38  1  0
 11 39  1  0
 12 40  1  1
 13 41  1  0
 13 42  1  0
 16 43  1  0
 17 44  1  0
 18 45  1  0
 20 46  1  0
 22 47  1  0
 23 48  1  0
 25 49  1  0
 26 50  1  0
 27 51  1  0
 28 52  1  0
M  END
>  <smiles>  (4) 
O=C(NCC(=O)N1C[C@H](O)C[C@H]1COc1cccnc1)c1ccc2ccccc2n1

>  <score_type>  (4) 
oracle

>  <origin>  (4) 
autodockgpu

>  <m_score__min__energy>  (4) 
-8.4399999999999995

>  <m_primary>  (4) 
energy

>  <rmsd>  (4) 
8.26606166526974

>  <m_score__min__rmsd>  (4) 
8.26606166526974

>  <meeko>  (4) 
{"free_energy": -7.97, "intermolecular_energy": -10.35, "internal_energy": -2.44, "cluster_size": 4, "cluster_id": 2, "rank_in_cluster": 2}

>  <energy>  (4) 
-8.25

>  <cluster_rmsd>  (4) 
0.71

>  <cluster>  (4) 
1

$$$$

     RDKit          3D

 52 55  0  0  0  0  0  0  0  0999 V2000
  140.7980   71.6950  221.3930 O   0  0  0  0  0  0  0  0  0  0  0  0
  140.2920   72.2040  222.4230 C   0  0  0  0  0  0  0  0  0  0  0  0
  139.8010   73.5360  222.3490 N   0  0  0  0  0  0  0  0  0  0  0  0
  139.8110   74.3750  221.2160 C   0  0  0  0  0  0  0  0  0  0  0  0
  139.7910   75.8070  221.4580 C   0  0  0  0  0  0  0  0  0  0  0  0
  138.6830   76.1770  222.0740 O   0  0  0  0  0  0  0  0  0  0  0  0
  140.6610   76.8490  221.1840 N   0  0  0  0  0  0  0  0  0  0  0  0
  141.4210   77.8180  221.9210 C   0  0  0  0  0  0  0  0  0  0  0  0
  141.1040   79.0990  221.1330 C   0  0  2  0  0  0  0  0  0  0  0  0
  139.7490   79.2690  221.1260 O   0  0  0  0  0  0  0  0  0  0  0  0
  141.5060   78.5820  219.7440 C   0  0  0  0  0  0  0  0  0  0  0  0
  141.0170   77.1780  219.7560 C   0  0  1  0  0  0  0  0  0  0  0  0
  142.0860   76.1710  219.4180 C   0  0  0  0  0  0  0  0  0  0  0  0
  142.7030   75.5330  220.4550 O   0  0  0  0  0  0  0  0  0  0  0  0
  143.5110   74.4650  220.4340 C   0  0  0  0  0  0  0  0  0  0  0  0
  143.1770   73.1360  220.3720 C   0  0  0  0  0  0  0  0  0  0  0  0
  144.1390   72.1290  220.3560 C   0  0  0  0  0  0  0  0  0  0  0  0
  145.4660   72.4450  220.4030 C   0  0  0  0  0  0  0  0  0  0  0  0
  145.8030   73.7420  220.4650 N   0  0  0  0  0  0  0  0  0  0  0  0
  144.9010   74.7180  220.4820 C   0  0  0  0  0  0  0  0  0  0  0  0
  140.2110   71.4440  223.6670 C   0  0  0  0  0  0  0  0  0  0  0  0
  139.6320   70.1920  223.6550 C   0  0  0  0  0  0  0  0  0  0  0  0
  139.5140   69.4080  224.7830 C   0  0  0  0  0  0  0  0  0  0  0  0
  140.0120   69.9360  225.9600 C   0  0  0  0  0  0  0  0  0  0  0  0
  139.9070   69.1650  227.1110 C   0  0  0  0  0  0  0  0  0  0  0  0
  140.3990   69.6790  228.2880 C   0  0  0  0  0  0  0  0  0  0  0  0
  140.9840   70.9380  228.3040 C   0  0  0  0  0  0  0  0  0  0  0  0
  141.0940   71.7130  227.1670 C   0  0  0  0  0  0  0  0  0  0  0  0
  140.6010   71.2010  225.9840 C   0  0  0  0  0  0  0  0  0  0  0  0
  140.6790   71.9070  224.8420 N   0  0  0  0  0  0  0  0  0  0  0  0
  139.3910   73.9130  223.2490 H   0  0  0  0  0  0  0  0  0  0  0  0
  140.7216   74.1477  220.6423 H   0  0  0  0  0  0  0  0  0  0  0  0
  138.8682   74.1598  220.6918 H   0  0  0  0  0  0  0  0  0  0  0  0
  141.0800   77.8905  222.9643 H   0  0  0  0  0  0  0  0  0  0  0  0
  142.4937   77.5881  222.0008 H   0  0  0  0  0  0  0  0  0  0  0  0
  141.5708   80.0302  221.4865 H   0  0  0  0  0  0  0  0  0  0  0  0
  139.2780   78.4510  221.4000 H   0  0  0  0  0  0  0  0  0  0  0  0
  141.0175   79.1641  218.9487 H   0  0  0  0  0  0  0  0  0  0  0  0
  142.5850   78.6638  219.5463 H   0  0  0  0  0  0  0  0  0  0  0  0
  140.1968   77.1188  219.0254 H   0  0  0  0  0  0  0  0  0  0  0  0
  141.6231   75.3993  218.7853 H   0  0  0  0  0  0  0  0  0  0  0  0
  142.8822   76.7589  218.9380 H   0  0  0  0  0  0  0  0  0  0  0  0
  142.1139   72.8563  220.3336 H   0  0  0  0  0  0  0  0  0  0  0  0
  143.8282   71.0750  220.3053 H   0  0  0  0  0  0  0  0  0  0  0  0
  146.2361   71.6596  220.3904 H   0  0  0  0  0  0  0  0  0  0  0  0
  145.2486   75.7603  220.5353 H   0  0  0  0  0  0  0  0  0  0  0  0
  139.2467   69.8012  222.7017 H   0  0  0  0  0  0  0  0  0  0  0  0
  139.0472   68.4126  224.7484 H   0  0  0  0  0  0  0  0  0  0  0  0
  139.4421   68.1685  227.0817 H   0  0  0  0  0  0  0  0  0  0  0  0
  140.3291   69.0929  229.2162 H   0  0  0  0  0  0  0  0  0  0  0  0
  141.3730   71.3312  229.2548 H   0  0  0  0  0  0  0  0  0  0  0  0
  141.5605   72.7085  227.2028 H   0  0  0  0  0  0  0  0  0  0  0  0
  1  2  2  0
  2  3  1  0
  3  4  1  0
  4  5  1  0
  5  6  2  0
  5  7  1  0
  7  8  1  0
  8  9  1  0
  9 10  1  0
  9 11  1  0
 11 12  1  0
 12 13  1  0
 13 14  1  0
 14 15  1  0
 15 16  2  0
 16 17  1  0
 17 18  2  0
 18 19  1  0
 19 20  2  0
  2 21  1  0
 21 22  2  0
 22 23  1  0
 23 24  2  0
 24 25  1  0
 25 26  2  0
 26 27  1  0
 27 28  2  0
 28 29  1  0
 29 30  2  0
 12  7  1  0
 20 15  1  0
 30 21  1  0
 29 24  1  0
  3 31  1  0
  4 32  1  0
  4 33  1  0
  8 34  1  0
  8 35  1  0
  9 36  1  1
 10 37  1  0
 11 38  1  0
 11 39  1  0
 12 40  1  6
 13 41  1  0
 13 42  1  0
 16 43  1  0
 17 44  1  0
 18 45  1  0
 20 46  1  0
 22 47  1  0
 23 48  1  0
 25 49  1  0
 26 50  1  0
 27 51  1  0
 28 52  1  0
M  END
>  <smiles>  (5) 
O=C(NCC(=O)N1C[C@H](O)C[C@H]1COc1cccnc1)c1ccc2ccccc2n1

>  <score_type>  (5) 
oracle

>  <origin>  (5) 
autodockgpu

>  <m_score__min__energy>  (5) 
-8.4399999999999995

>  <m_primary>  (5) 
energy

>  <rmsd>  (5) 
2.550495394520396

>  <m_score__min__rmsd>  (5) 
2.550495394520396

>  <meeko>  (5) 
{"free_energy": -7.34, "intermolecular_energy": -9.73, "internal_energy": -2.26, "cluster_size": 9, "cluster_id": 3, "rank_in_cluster": 8}

>  <energy>  (5) 
-8.24

>  <cluster_rmsd>  (5) 
0.75

>  <cluster>  (5) 
1

$$$$

     RDKit          3D

 52 55  0  0  0  0  0  0  0  0999 V2000
  139.6100   70.8430  221.2900 O   0  0  0  0  0  0  0  0  0  0  0  0
  139.6570   71.5300  222.3390 C   0  0  0  0  0  0  0  0  0  0  0  0
  139.5630   72.9440  222.2280 N   0  0  0  0  0  0  0  0  0  0  0  0
  139.4130   73.6870  221.0390 C   0  0  0  0  0  0  0  0  0  0  0  0
  139.6890   75.1110  221.1140 C   0  0  0  0  0  0  0  0  0  0  0  0
  139.9480   75.4880  222.3520 O   0  0  0  0  0  0  0  0  0  0  0  0
  139.7320   76.1400  220.1880 N   0  0  0  0  0  0  0  0  0  0  0  0
  138.9400   77.2840  219.8370 C   0  0  0  0  0  0  0  0  0  0  0  0
  138.8920   77.1490  218.3070 C   0  0  2  0  0  0  0  0  0  0  0  0
  138.3600   75.9280  218.0040 O   0  0  0  0  0  0  0  0  0  0  0  0
  140.4070   77.0580  218.0690 C   0  0  0  0  0  0  0  0  0  0  0  0
  140.8740   76.2260  219.2080 C   0  0  1  0  0  0  0  0  0  0  0  0
  141.9770   76.8730  220.0070 C   0  0  0  0  0  0  0  0  0  0  0  0
  141.8450   78.1980  220.3050 O   0  0  0  0  0  0  0  0  0  0  0  0
  141.8230   78.8000  221.5020 C   0  0  0  0  0  0  0  0  0  0  0  0
  141.4810   78.2740  222.7220 C   0  0  0  0  0  0  0  0  0  0  0  0
  141.5100   79.0320  223.8900 C   0  0  0  0  0  0  0  0  0  0  0  0
  141.8840   80.3440  223.8500 C   0  0  0  0  0  0  0  0  0  0  0  0
  142.2190   80.8680  222.6610 N   0  0  0  0  0  0  0  0  0  0  0  0
  142.1980   80.1630  221.5360 C   0  0  0  0  0  0  0  0  0  0  0  0
  139.8030   70.8890  223.6430 C   0  0  0  0  0  0  0  0  0  0  0  0
  139.4180   69.5740  223.7950 C   0  0  0  0  0  0  0  0  0  0  0  0
  139.5210   68.8930  224.9890 C   0  0  0  0  0  0  0  0  0  0  0  0
  140.0410   69.5960  226.0600 C   0  0  0  0  0  0  0  0  0  0  0  0
  140.1560   68.9330  227.2760 C   0  0  0  0  0  0  0  0  0  0  0  0
  140.6720   69.6220  228.3480 C   0  0  0  0  0  0  0  0  0  0  0  0
  141.0630   70.9460  228.2000 C   0  0  0  0  0  0  0  0  0  0  0  0
  140.9520   71.6160  226.9980 C   0  0  0  0  0  0  0  0  0  0  0  0
  140.4350   70.9280  225.9190 C   0  0  0  0  0  0  0  0  0  0  0  0
  140.3030   71.5250  224.7210 N   0  0  0  0  0  0  0  0  0  0  0  0
  139.6130   73.4700  223.1450 H   0  0  0  0  0  0  0  0  0  0  0  0
  140.0932   73.2558  220.2898 H   0  0  0  0  0  0  0  0  0  0  0  0
  138.3441   73.6151  220.7893 H   0  0  0  0  0  0  0  0  0  0  0  0
  137.9342   77.2300  220.2791 H   0  0  0  0  0  0  0  0  0  0  0  0
  139.3439   78.2424  220.1952 H   0  0  0  0  0  0  0  0  0  0  0  0
  138.3329   77.9195  217.7559 H   0  0  0  0  0  0  0  0  0  0  0  0
  137.9000   75.5310  218.7770 H   0  0  0  0  0  0  0  0  0  0  0  0
  140.6278   76.5717  217.1073 H   0  0  0  0  0  0  0  0  0  0  0  0
  140.8982   78.0410  218.0197 H   0  0  0  0  0  0  0  0  0  0  0  0
  141.2224   75.2723  218.7849 H   0  0  0  0  0  0  0  0  0  0  0  0
  142.0578   76.3277  220.9589 H   0  0  0  0  0  0  0  0  0  0  0  0
  142.8628   76.8188  219.3570 H   0  0  0  0  0  0  0  0  0  0  0  0
  141.1739   77.2193  222.7796 H   0  0  0  0  0  0  0  0  0  0  0  0
  141.2303   78.5713  224.8489 H   0  0  0  0  0  0  0  0  0  0  0  0
  141.9100   80.9537  224.7652 H   0  0  0  0  0  0  0  0  0  0  0  0
  142.4829   80.6576  220.5956 H   0  0  0  0  0  0  0  0  0  0  0  0
  139.0094   69.0433  222.9224 H   0  0  0  0  0  0  0  0  0  0  0  0
  139.2055   67.8436  225.0849 H   0  0  0  0  0  0  0  0  0  0  0  0
  139.8422   67.8837  227.3782 H   0  0  0  0  0  0  0  0  0  0  0  0
  140.7751   69.1241  229.3234 H   0  0  0  0  0  0  0  0  0  0  0  0
  141.4750   71.4790  229.0696 H   0  0  0  0  0  0  0  0  0  0  0  0
  141.2660   72.6660  226.9032 H   0  0  0  0  0  0  0  0  0  0  0  0
  1  2  2  0
  2  3  1  0
  3  4  1  0
  4  5  1  0
  5  6  2  0
  5  7  1  0
  7  8  1  0
  8  9  1  0
  9 10  1  0
  9 11  1  0
 11 12  1  0
 12 13  1  0
 13 14  1  0
 14 15  1  0
 15 16  2  0
 16 17  1  0
 17 18  2  0
 18 19  1  0
 19 20  2  0
  2 21  1  0
 21 22  2  0
 22 23  1  0
 23 24  2  0
 24 25  1  0
 25 26  2  0
 26 27  1  0
 27 28  2  0
 28 29  1  0
 29 30  2  0
 12  7  1  0
 20 15  1  0
 30 21  1  0
 29 24  1  0
  3 31  1  0
  4 32  1  0
  4 33  1  0
  8 34  1  0
  8 35  1  0
  9 36  1  6
 10 37  1  0
 11 38  1  0
 11 39  1  0
 12 40  1  6
 13 41  1  0
 13 42  1  0
 16 43  1  0
 17 44  1  0
 18 45  1  0
 20 46  1  0
 22 47  1  0
 23 48  1  0
 25 49  1  0
 26 50  1  0
 27 51  1  0
 28 52  1  0
M  END
>  <smiles>  (6) 
O=C(NCC(=O)N1C[C@H](O)C[C@H]1COc1cccnc1)c1ccc2ccccc2n1

>  <score_type>  (6) 
oracle

>  <origin>  (6) 
autodockgpu

>  <m_score__min__energy>  (6) 
-8.4399999999999995

>  <m_primary>  (6) 
energy

>  <rmsd>  (6) 
1.4747869235749191

>  <m_score__min__rmsd>  (6) 
1.4747869235749191

>  <meeko>  (6) 
{"free_energy": -7.32, "intermolecular_energy": -9.7, "internal_energy": -2.27, "cluster_size": 30, "cluster_id": 1, "rank_in_cluster": 24}

>  <energy>  (6) 
-8.23

>  <cluster_rmsd>  (6) 
0.74

>  <cluster>  (6) 
1

$$$$

     RDKit          3D

 52 55  0  0  0  0  0  0  0  0999 V2000
  139.3920   74.7220  222.3490 O   0  0  0  0  0  0  0  0  0  0  0  0
  140.5350   75.0490  221.9460 C   0  0  0  0  0  0  0  0  0  0  0  0
  141.4480   74.0200  221.5890 N   0  0  0  0  0  0  0  0  0  0  0  0
  141.2090   72.6310  221.6320 C   0  0  0  0  0  0  0  0  0  0  0  0
  139.8970   72.1760  221.2070 C   0  0  0  0  0  0  0  0  0  0  0  0
  139.7820   72.1970  219.8920 O   0  0  0  0  0  0  0  0  0  0  0  0
  138.7610   71.7390  221.8670 N   0  0  0  0  0  0  0  0  0  0  0  0
  137.3920   71.4500  221.5460 C   0  0  0  0  0  0  0  0  0  0  0  0
  136.6650   72.1630  222.6970 C   0  0  2  0  0  0  0  0  0  0  0  0
  137.0270   73.4790  222.6780 O   0  0  0  0  0  0  0  0  0  0  0  0
  137.4250   71.4970  223.8540 C   0  0  0  0  0  0  0  0  0  0  0  0
  138.8190   71.4290  223.3410 C   0  0  1  0  0  0  0  0  0  0  0  0
  139.4030   70.0390  223.3870 C   0  0  0  0  0  0  0  0  0  0  0  0
  140.2900   69.7610  224.3860 O   0  0  0  0  0  0  0  0  0  0  0  0
  140.4010   70.3150  225.6010 C   0  0  0  0  0  0  0  0  0  0  0  0
  139.9050   69.8660  226.7990 C   0  0  0  0  0  0  0  0  0  0  0  0
  140.1070   70.5570  227.9900 C   0  0  0  0  0  0  0  0  0  0  0  0
  140.8170   71.7220  227.9980 C   0  0  0  0  0  0  0  0  0  0  0  0
  141.3050   72.1710  226.8320 N   0  0  0  0  0  0  0  0  0  0  0  0
  141.1240   71.5270  225.6840 C   0  0  0  0  0  0  0  0  0  0  0  0
  140.9150   76.4560  221.8450 C   0  0  0  0  0  0  0  0  0  0  0  0
  141.0660   77.0250  220.5990 C   0  0  0  0  0  0  0  0  0  0  0  0
  141.4230   78.3440  220.4140 C   0  0  0  0  0  0  0  0  0  0  0  0
  141.6290   79.0970  221.5550 C   0  0  0  0  0  0  0  0  0  0  0  0
  141.9890   80.4300  221.3960 C   0  0  0  0  0  0  0  0  0  0  0  0
  142.1960   81.1890  222.5240 C   0  0  0  0  0  0  0  0  0  0  0  0
  142.0430   80.6190  223.7810 C   0  0  0  0  0  0  0  0  0  0  0  0
  141.6870   79.2970  223.9520 C   0  0  0  0  0  0  0  0  0  0  0  0
  141.4780   78.5320  222.8220 C   0  0  0  0  0  0  0  0  0  0  0  0
  141.1280   77.2370  222.9220 N   0  0  0  0  0  0  0  0  0  0  0  0
  142.3960   74.3560  221.2610 H   0  0  0  0  0  0  0  0  0  0  0  0
  141.9546   72.1455  220.9852 H   0  0  0  0  0  0  0  0  0  0  0  0
  141.2746   72.3619  222.6966 H   0  0  0  0  0  0  0  0  0  0  0  0
  137.1091   71.8682  220.5687 H   0  0  0  0  0  0  0  0  0  0  0  0
  137.1628   70.3776  221.4597 H   0  0  0  0  0  0  0  0  0  0  0  0
  135.5666   72.1037  222.7057 H   0  0  0  0  0  0  0  0  0  0  0  0
  137.9930   73.5930  222.8200 H   0  0  0  0  0  0  0  0  0  0  0  0
  137.3689   72.1073  224.7675 H   0  0  0  0  0  0  0  0  0  0  0  0
  137.0167   70.5145  224.1331 H   0  0  0  0  0  0  0  0  0  0  0  0
  139.4207   72.1138  223.9566 H   0  0  0  0  0  0  0  0  0  0  0  0
  138.5653   69.3327  223.4842 H   0  0  0  0  0  0  0  0  0  0  0  0
  139.9883   69.9501  222.4599 H   0  0  0  0  0  0  0  0  0  0  0  0
  139.3288   68.9292  226.8186 H   0  0  0  0  0  0  0  0  0  0  0  0
  139.6923   70.1621  228.9292 H   0  0  0  0  0  0  0  0  0  0  0  0
  140.9843   72.2767  228.9330 H   0  0  0  0  0  0  0  0  0  0  0  0
  141.5524   71.9525  224.7645 H   0  0  0  0  0  0  0  0  0  0  0  0
  140.8939   76.3984  219.7115 H   0  0  0  0  0  0  0  0  0  0  0  0
  141.5382   78.7755  219.4088 H   0  0  0  0  0  0  0  0  0  0  0  0
  142.1054   80.8669  220.3932 H   0  0  0  0  0  0  0  0  0  0  0  0
  142.4826   82.2469  222.4306 H   0  0  0  0  0  0  0  0  0  0  0  0
  142.2114   81.2430  224.6711 H   0  0  0  0  0  0  0  0  0  0  0  0
  141.5732   78.8659  224.9576 H   0  0  0  0  0  0  0  0  0  0  0  0
  1  2  2  0
  2  3  1  0
  3  4  1  0
  4  5  1  0
  5  6  2  0
  5  7  1  0
  7  8  1  0
  8  9  1  0
  9 10  1  0
  9 11  1  0
 11 12  1  0
 12 13  1  0
 13 14  1  0
 14 15  1  0
 15 16  2  0
 16 17  1  0
 17 18  2  0
 18 19  1  0
 19 20  2  0
  2 21  1  0
 21 22  2  0
 22 23  1  0
 23 24  2  0
 24 25  1  0
 25 26  2  0
 26 27  1  0
 27 28  2  0
 28 29  1  0
 29 30  2  0
 12  7  1  0
 20 15  1  0
 30 21  1  0
 29 24  1  0
  3 31  1  0
  4 32  1  0
  4 33  1  0
  8 34  1  0
  8 35  1  0
  9 36  1  1
 10 37  1  0
 11 38  1  0
 11 39  1  0
 12 40  1  1
 13 41  1  0
 13 42  1  0
 16 43  1  0
 17 44  1  0
 18 45  1  0
 20 46  1  0
 22 47  1  0
 23 48  1  0
 25 49  1  0
 26 50  1  0
 27 51  1  0
 28 52  1  0
M  END
>  <smiles>  (7) 
O=C(NCC(=O)N1C[C@H](O)C[C@H]1COc1cccnc1)c1ccc2ccccc2n1

>  <score_type>  (7) 
oracle

>  <origin>  (7) 
autodockgpu

>  <m_score__min__energy>  (7) 
-8.4399999999999995

>  <m_primary>  (7) 
energy

>  <rmsd>  (7) 
8.110737016564126

>  <m_score__min__rmsd>  (7) 
8.110737016564126

>  <meeko>  (7) 
{"free_energy": -7.45, "intermolecular_energy": -9.84, "internal_energy": -2.19, "cluster_size": 30, "cluster_id": 1, "rank_in_cluster": 23}

>  <energy>  (7) 
-8.2

>  <cluster_rmsd>  (7) 
1.18

>  <cluster>  (7) 
1

$$$$

     RDKit          3D

 52 55  0  0  0  0  0  0  0  0999 V2000
  141.3760   71.7480  221.4250 O   0  0  0  0  0  0  0  0  0  0  0  0
  140.7330   72.2750  222.3660 C   0  0  0  0  0  0  0  0  0  0  0  0
  140.3590   73.6420  222.2490 N   0  0  0  0  0  0  0  0  0  0  0  0
  140.6290   74.4980  221.1620 C   0  0  0  0  0  0  0  0  0  0  0  0
  140.7860   75.9100  221.4610 C   0  0  0  0  0  0  0  0  0  0  0  0
  140.4960   76.1720  222.7220 O   0  0  0  0  0  0  0  0  0  0  0  0
  141.1600   77.0210  220.7240 N   0  0  0  0  0  0  0  0  0  0  0  0
  141.3660   78.4240  220.9510 C   0  0  0  0  0  0  0  0  0  0  0  0
  140.6200   79.0260  219.7500 C   0  0  2  0  0  0  0  0  0  0  0  0
  139.3270   78.5900  219.7900 O   0  0  0  0  0  0  0  0  0  0  0  0
  141.3370   78.2290  218.6500 C   0  0  0  0  0  0  0  0  0  0  0  0
  141.4830   76.8810  219.2580 C   0  0  1  0  0  0  0  0  0  0  0  0
  142.9040   76.3770  219.2570 C   0  0  0  0  0  0  0  0  0  0  0  0
  143.0980   75.0370  219.0920 O   0  0  0  0  0  0  0  0  0  0  0  0
  144.0780   74.2560  219.5670 C   0  0  0  0  0  0  0  0  0  0  0  0
  144.5140   74.1170  220.8610 C   0  0  0  0  0  0  0  0  0  0  0  0
  145.5530   73.2550  221.2030 C   0  0  0  0  0  0  0  0  0  0  0  0
  146.1770   72.5130  220.2430 C   0  0  0  0  0  0  0  0  0  0  0  0
  145.7590   72.6430  218.9750 N   0  0  0  0  0  0  0  0  0  0  0  0
  144.7700   73.4590  218.6270 C   0  0  0  0  0  0  0  0  0  0  0  0
  140.3800   71.5010  223.5520 C   0  0  0  0  0  0  0  0  0  0  0  0
  139.6530   70.3380  223.4060 C   0  0  0  0  0  0  0  0  0  0  0  0
  139.2780   69.5470  224.4710 C   0  0  0  0  0  0  0  0  0  0  0  0
  139.6660   69.9740  225.7270 C   0  0  0  0  0  0  0  0  0  0  0  0
  139.3010   69.1950  226.8180 C   0  0  0  0  0  0  0  0  0  0  0  0
  139.6820   69.6090  228.0730 C   0  0  0  0  0  0  0  0  0  0  0  0
  140.4150   70.7780  228.2250 C   0  0  0  0  0  0  0  0  0  0  0  0
  140.7830   71.5610  227.1500 C   0  0  0  0  0  0  0  0  0  0  0  0
  140.4030   71.1490  225.8880 C   0  0  0  0  0  0  0  0  0  0  0  0
  140.7320   71.8670  224.8000 N   0  0  0  0  0  0  0  0  0  0  0  0
  139.8240   74.0320  223.0740 H   0  0  0  0  0  0  0  0  0  0  0  0
  141.5609   74.1526  220.6905 H   0  0  0  0  0  0  0  0  0  0  0  0
  139.7368   74.4381  220.5214 H   0  0  0  0  0  0  0  0  0  0  0  0
  140.9246   78.7483  221.9050 H   0  0  0  0  0  0  0  0  0  0  0  0
  142.4223   78.7218  221.0252 H   0  0  0  0  0  0  0  0  0  0  0  0
  140.6154   80.1227  219.6655 H   0  0  0  0  0  0  0  0  0  0  0  0
  139.1780   77.8380  219.1750 H   0  0  0  0  0  0  0  0  0  0  0  0
  140.7306   78.1860  217.7333 H   0  0  0  0  0  0  0  0  0  0  0  0
  142.2957   78.6744  218.3457 H   0  0  0  0  0  0  0  0  0  0  0  0
  140.8386   76.2000  218.6826 H   0  0  0  0  0  0  0  0  0  0  0  0
  143.4345   76.8894  218.4409 H   0  0  0  0  0  0  0  0  0  0  0  0
  143.2773   76.5910  220.2693 H   0  0  0  0  0  0  0  0  0  0  0  0
  144.0274   74.7051  221.6530 H   0  0  0  0  0  0  0  0  0  0  0  0
  145.8722   73.1719  222.2524 H   0  0  0  0  0  0  0  0  0  0  0  0
  146.9985   71.8285  220.5011 H   0  0  0  0  0  0  0  0  0  0  0  0
  144.4789   73.5165  217.5678 H   0  0  0  0  0  0  0  0  0  0  0  0
  139.3587   70.0272  222.3927 H   0  0  0  0  0  0  0  0  0  0  0  0
  138.6991   68.6226  224.3284 H   0  0  0  0  0  0  0  0  0  0  0  0
  138.7216   68.2700  226.6814 H   0  0  0  0  0  0  0  0  0  0  0  0
  139.4060   69.0140  228.9560 H   0  0  0  0  0  0  0  0  0  0  0  0
  140.7126   71.0908  229.2367 H   0  0  0  0  0  0  0  0  0  0  0  0
  141.3616   72.4854  227.2940 H   0  0  0  0  0  0  0  0  0  0  0  0
  1  2  2  0
  2  3  1  0
  3  4  1  0
  4  5  1  0
  5  6  2  0
  5  7  1  0
  7  8  1  0
  8  9  1  0
  9 10  1  0
  9 11  1  0
 11 12  1  0
 12 13  1  0
 13 14  1  0
 14 15  1  0
 15 16  2  0
 16 17  1  0
 17 18  2  0
 18 19  1  0
 19 20  2  0
  2 21  1  0
 21 22  2  0
 22 23  1  0
 23 24  2  0
 24 25  1  0
 25 26  2  0
 26 27  1  0
 27 28  2  0
 28 29  1  0
 29 30  2  0
 12  7  1  0
 20 15  1  0
 30 21  1  0
 29 24  1  0
  3 31  1  0
  4 32  1  0
  4 33  1  0
  8 34  1  0
  8 35  1  0
  9 36  1  6
 10 37  1  0
 11 38  1  0
 11 39  1  0
 12 40  1  6
 13 41  1  0
 13 42  1  0
 16 43  1  0
 17 44  1  0
 18 45  1  0
 20 46  1  0
 22 47  1  0
 23 48  1  0
 25 49  1  0
 26 50  1  0
 27 51  1  0
 28 52  1  0
M  END
>  <smiles>  (8) 
O=C(NCC(=O)N1C[C@H](O)C[C@H]1COc1cccnc1)c1ccc2ccccc2n1

>  <score_type>  (8) 
oracle

>  <origin>  (8) 
autodockgpu

>  <m_score__min__energy>  (8) 
-8.4399999999999995

>  <m_primary>  (8) 
energy

>  <rmsd>  (8) 
2.4785798681261544

>  <m_score__min__rmsd>  (8) 
2.4785798681261544

>  <meeko>  (8) 
{"free_energy": -7.72, "intermolecular_energy": -10.11, "internal_energy": -2.06, "cluster_size": 9, "cluster_id": 3, "rank_in_cluster": 2}

>  <energy>  (8) 
-8.07

>  <cluster_rmsd>  (8) 
0.72

>  <cluster>  (8) 
1

$$$$

     RDKit          3D

 52 55  0  0  0  0  0  0  0  0999 V2000
  138.3730   72.3370  222.3200 O   0  0  0  0  0  0  0  0  0  0  0  0
  139.4940   71.8830  222.6550 C   0  0  0  0  0  0  0  0  0  0  0  0
  140.6150   72.1740  221.8300 N   0  0  0  0  0  0  0  0  0  0  0  0
  140.6140   72.9400  220.6470 C   0  0  0  0  0  0  0  0  0  0  0  0
  140.9120   74.3550  220.7800 C   0  0  0  0  0  0  0  0  0  0  0  0
  140.7730   74.7630  222.0280 O   0  0  0  0  0  0  0  0  0  0  0  0
  141.2960   75.3520  219.8990 N   0  0  0  0  0  0  0  0  0  0  0  0
  141.4250   75.5210  218.4790 C   0  0  0  0  0  0  0  0  0  0  0  0
  142.8080   76.1860  218.3880 C   0  0  2  0  0  0  0  0  0  0  0  0
  143.7170   75.3600  218.9850 O   0  0  0  0  0  0  0  0  0  0  0  0
  142.5360   77.3430  219.3610 C   0  0  0  0  0  0  0  0  0  0  0  0
  141.7200   76.7000  220.4240 C   0  0  1  0  0  0  0  0  0  0  0  0
  140.4120   77.4060  220.6800 C   0  0  0  0  0  0  0  0  0  0  0  0
  140.2680   78.0530  221.8730 O   0  0  0  0  0  0  0  0  0  0  0  0
  140.9710   79.0780  222.3730 C   0  0  0  0  0  0  0  0  0  0  0  0
  141.1050   80.3510  221.8760 C   0  0  0  0  0  0  0  0  0  0  0  0
  141.8760   81.3180  222.5150 C   0  0  0  0  0  0  0  0  0  0  0  0
  142.5330   81.0200  223.6740 C   0  0  0  0  0  0  0  0  0  0  0  0
  142.4090   79.7780  224.1670 N   0  0  0  0  0  0  0  0  0  0  0  0
  141.6780   78.8410  223.5730 C   0  0  0  0  0  0  0  0  0  0  0  0
  139.6420   71.0770  223.8630 C   0  0  0  0  0  0  0  0  0  0  0  0
  139.1710   69.7810  223.8700 C   0  0  0  0  0  0  0  0  0  0  0  0
  139.2690   68.9510  224.9660 C   0  0  0  0  0  0  0  0  0  0  0  0
  139.8740   69.4800  226.0920 C   0  0  0  0  0  0  0  0  0  0  0  0
  139.9860   68.6640  227.2110 C   0  0  0  0  0  0  0  0  0  0  0  0
  140.5860   69.1800  228.3360 C   0  0  0  0  0  0  0  0  0  0  0  0
  141.0610   70.4840  228.3330 C   0  0  0  0  0  0  0  0  0  0  0  0
  140.9560   71.3040  227.2290 C   0  0  0  0  0  0  0  0  0  0  0  0
  140.3550   70.7900  226.0970 C   0  0  0  0  0  0  0  0  0  0  0  0
  140.2220   71.5390  224.9880 N   0  0  0  0  0  0  0  0  0  0  0  0
  141.5320   71.7610  222.1590 H   0  0  0  0  0  0  0  0  0  0  0  0
  141.3630   72.5050  219.9689 H   0  0  0  0  0  0  0  0  0  0  0  0
  139.5780   72.8986  220.2796 H   0  0  0  0  0  0  0  0  0  0  0  0
  141.4059   74.5547  217.9537 H   0  0  0  0  0  0  0  0  0  0  0  0
  140.6122   76.0991  218.0152 H   0  0  0  0  0  0  0  0  0  0  0  0
  143.1740   76.4390  217.3820 H   0  0  0  0  0  0  0  0  0  0  0  0
  144.5360   75.2740  218.4490 H   0  0  0  0  0  0  0  0  0  0  0  0
  143.4747   77.7439  219.7710 H   0  0  0  0  0  0  0  0  0  0  0  0
  142.0340   78.1994  218.8871 H   0  0  0  0  0  0  0  0  0  0  0  0
  142.3328   76.6934  221.3375 H   0  0  0  0  0  0  0  0  0  0  0  0
  140.2786   78.1518  219.8825 H   0  0  0  0  0  0  0  0  0  0  0  0
  139.6604   76.6032  220.7041 H   0  0  0  0  0  0  0  0  0  0  0  0
  140.5863   80.6152  220.9427 H   0  0  0  0  0  0  0  0  0  0  0  0
  141.9562   82.3269  222.0841 H   0  0  0  0  0  0  0  0  0  0  0  0
  143.1456   81.7752  224.1883 H   0  0  0  0  0  0  0  0  0  0  0  0
  141.6211   77.8433  224.0327 H   0  0  0  0  0  0  0  0  0  0  0  0
  138.6948   69.3913  222.9582 H   0  0  0  0  0  0  0  0  0  0  0  0
  138.8856   67.9202  224.9464 H   0  0  0  0  0  0  0  0  0  0  0  0
  139.6048   67.6323  227.1975 H   0  0  0  0  0  0  0  0  0  0  0  0
  140.6894   68.5591  229.2381 H   0  0  0  0  0  0  0  0  0  0  0  0
  141.5379   70.8773  229.2429 H   0  0  0  0  0  0  0  0  0  0  0  0
  141.3389   72.3350  227.2496 H   0  0  0  0  0  0  0  0  0  0  0  0
  1  2  2  0
  2  3  1  0
  3  4  1  0
  4  5  1  0
  5  6  2  0
  5  7  1  0
  7  8  1  0
  8  9  1  0
  9 10  1  0
  9 11  1  0
 11 12  1  0
 12 13  1  0
 13 14  1  0
 14 15  1  0
 15 16  2  0
 16 17  1  0
 17 18  2  0
 18 19  1  0
 19 20  2  0
  2 21  1  0
 21 22  2  0
 22 23  1  0
 23 24  2  0
 24 25  1  0
 25 26  2  0
 26 27  1  0
 27 28  2  0
 28 29  1  0
 29 30  2  0
 12  7  1  0
 20 15  1  0
 30 21  1  0
 29 24  1  0
  3 31  1  0
  4 32  1  0
  4 33  1  0
  8 34  1  0
  8 35  1  0
  9 36  1  6
 10 37  1  0
 11 38  1  0
 11 39  1  0
 12 40  1  1
 13 41  1  0
 13 42  1  0
 16 43  1  0
 17 44  1  0
 18 45  1  0
 20 46  1  0
 22 47  1  0
 23 48  1  0
 25 49  1  0
 26 50  1  0
 27 51  1  0
 28 52  1  0
M  END
>  <smiles>  (9) 
O=C(NCC(=O)N1C[C@H](O)C[C@H]1COc1cccnc1)c1ccc2ccccc2n1

>  <score_type>  (9) 
oracle

>  <origin>  (9) 
autodockgpu

>  <m_score__min__energy>  (9) 
-8.4399999999999995

>  <m_primary>  (9) 
energy

>  <rmsd>  (9) 
1.7692889964906955

>  <m_score__min__rmsd>  (9) 
1.7692889964906955

>  <meeko>  (9) 
{"free_energy": -8.05, "intermolecular_energy": -10.44, "internal_energy": -1.24, "cluster_size": 30, "cluster_id": 1, "rank_in_cluster": 10}

>  <energy>  (9) 
-8.06

>  <cluster_rmsd>  (9) 
1.24

>  <cluster>  (9) 
1

$$$$

     RDKit          3D

 52 55  0  0  0  0  0  0  0  0999 V2000
  138.5990   75.2700  222.0490 O   0  0  0  0  0  0  0  0  0  0  0  0
  139.7700   75.7110  222.1470 C   0  0  0  0  0  0  0  0  0  0  0  0
  140.8510   74.8230  221.8970 N   0  0  0  0  0  0  0  0  0  0  0  0
  140.7580   73.4640  221.5350 C   0  0  0  0  0  0  0  0  0  0  0  0
  140.0050   72.5970  222.4250 C   0  0  0  0  0  0  0  0  0  0  0  0
  140.7050   72.2830  223.4990 O   0  0  0  0  0  0  0  0  0  0  0  0
  138.7410   72.0340  222.3890 N   0  0  0  0  0  0  0  0  0  0  0  0
  137.6440   71.9480  221.4670 C   0  0  0  0  0  0  0  0  0  0  0  0
  136.4600   72.2830  222.3880 C   0  0  2  0  0  0  0  0  0  0  0  0
  136.6890   73.5090  222.9450 O   0  0  0  0  0  0  0  0  0  0  0  0
  136.7460   71.2310  223.4700 C   0  0  0  0  0  0  0  0  0  0  0  0
  138.2290   71.2530  223.5720 C   0  0  1  0  0  0  0  0  0  0  0  0
  138.8590   69.8940  223.3980 C   0  0  0  0  0  0  0  0  0  0  0  0
  138.8610   69.0580  224.4760 O   0  0  0  0  0  0  0  0  0  0  0  0
  139.5580   69.1460  225.6170 C   0  0  0  0  0  0  0  0  0  0  0  0
  139.9090   68.1450  226.4880 C   0  0  0  0  0  0  0  0  0  0  0  0
  140.6440   68.3940  227.6440 C   0  0  0  0  0  0  0  0  0  0  0  0
  141.0410   69.6640  227.9470 C   0  0  0  0  0  0  0  0  0  0  0  0
  140.7020   70.6490  227.1020 N   0  0  0  0  0  0  0  0  0  0  0  0
  140.0010   70.4340  225.9940 C   0  0  0  0  0  0  0  0  0  0  0  0
  140.0140   77.1050  222.5090 C   0  0  0  0  0  0  0  0  0  0  0  0
  138.9400   77.9430  222.7220 C   0  0  0  0  0  0  0  0  0  0  0  0
  139.0790   79.2710  223.0660 C   0  0  0  0  0  0  0  0  0  0  0  0
  140.3720   79.7460  223.1940 C   0  0  0  0  0  0  0  0  0  0  0  0
  140.5400   81.0810  223.5410 C   0  0  0  0  0  0  0  0  0  0  0  0
  141.8210   81.5640  223.6720 C   0  0  0  0  0  0  0  0  0  0  0  0
  142.9050   80.7230  223.4590 C   0  0  0  0  0  0  0  0  0  0  0  0
  142.7500   79.3960  223.1140 C   0  0  0  0  0  0  0  0  0  0  0  0
  141.4660   78.9070  222.9820 C   0  0  0  0  0  0  0  0  0  0  0  0
  141.2500   77.6220  222.6480 N   0  0  0  0  0  0  0  0  0  0  0  0
  141.8140   75.2500  222.0000 H   0  0  0  0  0  0  0  0  0  0  0  0
  140.2833   73.4158  220.5439 H   0  0  0  0  0  0  0  0  0  0  0  0
  141.7903   73.0860  221.5719 H   0  0  0  0  0  0  0  0  0  0  0  0
  137.7423   72.6809  220.6526 H   0  0  0  0  0  0  0  0  0  0  0  0
  137.5586   70.9793  220.9528 H   0  0  0  0  0  0  0  0  0  0  0  0
  135.4593   72.2877  221.9313 H   0  0  0  0  0  0  0  0  0  0  0  0
  137.6500   73.6880  223.0470 H   0  0  0  0  0  0  0  0  0  0  0  0
  136.2795   71.5101  224.4263 H   0  0  0  0  0  0  0  0  0  0  0  0
  136.3423   70.2371  223.2266 H   0  0  0  0  0  0  0  0  0  0  0  0
  138.4748   71.6602  224.5639 H   0  0  0  0  0  0  0  0  0  0  0  0
  138.3211   69.3831  222.5858 H   0  0  0  0  0  0  0  0  0  0  0  0
  139.9214   70.1007  223.2017 H   0  0  0  0  0  0  0  0  0  0  0  0
  139.5997   67.1130  226.2657 H   0  0  0  0  0  0  0  0  0  0  0  0
  140.9058   67.5634  228.3160 H   0  0  0  0  0  0  0  0  0  0  0  0
  141.6218   69.8737  228.8573 H   0  0  0  0  0  0  0  0  0  0  0  0
  139.7567   71.2893  225.3468 H   0  0  0  0  0  0  0  0  0  0  0  0
  137.9251   77.5331  222.6124 H   0  0  0  0  0  0  0  0  0  0  0  0
  138.2061   79.9198  223.2303 H   0  0  0  0  0  0  0  0  0  0  0  0
  139.6709   81.7346  223.7066 H   0  0  0  0  0  0  0  0  0  0  0  0
  141.9867   82.6165  223.9455 H   0  0  0  0  0  0  0  0  0  0  0  0
  143.9217   81.1282  223.5690 H   0  0  0  0  0  0  0  0  0  0  0  0
  143.6231   78.7476  222.9492 H   0  0  0  0  0  0  0  0  0  0  0  0
  1  2  2  0
  2  3  1  0
  3  4  1  0
  4  5  1  0
  5  6  2  0
  5  7  1  0
  7  8  1  0
  8  9  1  0
  9 10  1  0
  9 11  1  0
 11 12  1  0
 12 13  1  0
 13 14  1  0
 14 15  1  0
 15 16  2  0
 16 17  1  0
 17 18  2  0
 18 19  1  0
 19 20  2  0
  2 21  1  0
 21 22  2  0
 22 23  1  0
 23 24  2  0
 24 25  1  0
 25 26  2  0
 26 27  1  0
 27 28  2  0
 28 29  1  0
 29 30  2  0
 12  7  1  0
 20 15  1  0
 30 21  1  0
 29 24  1  0
  3 31  1  0
  4 32  1  0
  4 33  1  0
  8 34  1  0
  8 35  1  0
  9 36  1  6
 10 37  1  0
 11 38  1  0
 11 39  1  0
 12 40  1  1
 13 41  1  0
 13 42  1  0
 16 43  1  0
 17 44  1  0
 18 45  1  0
 20 46  1  0
 22 47  1  0
 23 48  1  0
 25 49  1  0
 26 50  1  0
 27 51  1  0
 28 52  1  0
M  END
>  <smiles>  (10) 
O=C(NCC(=O)N1C[C@H](O)C[C@H]1COc1cccnc1)c1ccc2ccccc2n1

>  <score_type>  (10) 
oracle

>  <origin>  (10) 
autodockgpu

>  <m_score__min__energy>  (10) 
-8.4399999999999995

>  <m_primary>  (10) 
energy

>  <rmsd>  (10) 
8.181556846979587

>  <m_score__min__rmsd>  (10) 
8.181556846979587

>  <meeko>  (10) 
{"free_energy": -7.76, "intermolecular_energy": -10.14, "internal_energy": -2.37, "cluster_size": 4, "cluster_id": 2, "rank_in_cluster": 3}

>  <energy>  (10) 
-8.05

>  <cluster_rmsd>  (10) 
1.18

>  <cluster>  (10) 
1

$$$$

     RDKit          3D

 52 55  0  0  0  0  0  0  0  0999 V2000
  140.5760   71.0960  221.3020 O   0  0  0  0  0  0  0  0  0  0  0  0
  140.2980   71.7670  222.3260 C   0  0  0  0  0  0  0  0  0  0  0  0
  140.1180   73.1700  222.1880 N   0  0  0  0  0  0  0  0  0  0  0  0
  140.2110   73.9180  220.9970 C   0  0  0  0  0  0  0  0  0  0  0  0
  140.4160   75.3490  221.1330 C   0  0  0  0  0  0  0  0  0  0  0  0
  140.2260   75.7480  222.3770 O   0  0  0  0  0  0  0  0  0  0  0  0
  140.7550   76.3670  220.2580 N   0  0  0  0  0  0  0  0  0  0  0  0
  140.9350   76.5340  218.8430 C   0  0  0  0  0  0  0  0  0  0  0  0
  142.2590   77.3140  218.8070 C   0  0  2  0  0  0  0  0  0  0  0  0
  143.2060   76.5740  219.4540 O   0  0  0  0  0  0  0  0  0  0  0  0
  141.8450   78.4520  219.7520 C   0  0  0  0  0  0  0  0  0  0  0  0
  141.0380   77.7510  220.7840 C   0  0  1  0  0  0  0  0  0  0  0  0
  139.6650   78.3450  220.9720 C   0  0  0  0  0  0  0  0  0  0  0  0
  139.5270   79.3310  221.9050 O   0  0  0  0  0  0  0  0  0  0  0  0
  140.4720   80.0480  222.5290 C   0  0  0  0  0  0  0  0  0  0  0  0
  140.8070   81.3670  222.3520 C   0  0  0  0  0  0  0  0  0  0  0  0
  141.8210   81.9780  223.0840 C   0  0  0  0  0  0  0  0  0  0  0  0
  142.5230   81.2680  224.0140 C   0  0  0  0  0  0  0  0  0  0  0  0
  142.2040   79.9770  224.1940 N   0  0  0  0  0  0  0  0  0  0  0  0
  141.2400   79.3740  223.5060 C   0  0  0  0  0  0  0  0  0  0  0  0
  140.1640   71.1180  223.6270 C   0  0  0  0  0  0  0  0  0  0  0  0
  139.5460   69.8880  223.7060 C   0  0  0  0  0  0  0  0  0  0  0  0
  139.3780   69.2070  224.8930 C   0  0  0  0  0  0  0  0  0  0  0  0
  139.8640   69.8190  226.0340 C   0  0  0  0  0  0  0  0  0  0  0  0
  139.7070   69.1520  227.2430 C   0  0  0  0  0  0  0  0  0  0  0  0
  140.1880   69.7510  228.3840 C   0  0  0  0  0  0  0  0  0  0  0  0
  140.8120   70.9890  228.3090 C   0  0  0  0  0  0  0  0  0  0  0  0
  140.9730   71.6600  227.1140 C   0  0  0  0  0  0  0  0  0  0  0  0
  140.4920   71.0630  225.9660 C   0  0  0  0  0  0  0  0  0  0  0  0
  140.6190   71.6670  224.7710 N   0  0  0  0  0  0  0  0  0  0  0  0
  139.8900   73.6820  223.0850 H   0  0  0  0  0  0  0  0  0  0  0  0
  141.0545   73.5153  220.4170 H   0  0  0  0  0  0  0  0  0  0  0  0
  139.2271   73.8142  220.5163 H   0  0  0  0  0  0  0  0  0  0  0  0
  141.0226   75.5651  218.3296 H   0  0  0  0  0  0  0  0  0  0  0  0
  140.0984   77.0362  218.3352 H   0  0  0  0  0  0  0  0  0  0  0  0
  142.6484   77.5891  217.8157 H   0  0  0  0  0  0  0  0  0  0  0  0
  143.8110   77.1400  219.9830 H   0  0  0  0  0  0  0  0  0  0  0  0
  142.7262   78.9348  220.1996 H   0  0  0  0  0  0  0  0  0  0  0  0
  141.2951   79.2586  219.2451 H   0  0  0  0  0  0  0  0  0  0  0  0
  141.6062   77.8046  221.7243 H   0  0  0  0  0  0  0  0  0  0  0  0
  139.3509   78.7616  220.0036 H   0  0  0  0  0  0  0  0  0  0  0  0
  139.0499   77.5146  221.3491 H   0  0  0  0  0  0  0  0  0  0  0  0
  140.2563   81.9606  221.6075 H   0  0  0  0  0  0  0  0  0  0  0  0
  142.0576   83.0384  222.9119 H   0  0  0  0  0  0  0  0  0  0  0  0
  143.3264   81.7398  224.5988 H   0  0  0  0  0  0  0  0  0  0  0  0
  141.0322   78.3121  223.7039 H   0  0  0  0  0  0  0  0  0  0  0  0
  139.1698   69.4291  222.7798 H   0  0  0  0  0  0  0  0  0  0  0  0
  138.8821   68.2258  224.9306 H   0  0  0  0  0  0  0  0  0  0  0  0
  139.2112   68.1710  227.2864 H   0  0  0  0  0  0  0  0  0  0  0  0
  140.0782   69.2488  229.3565 H   0  0  0  0  0  0  0  0  0  0  0  0
  141.1907   71.4504  229.2330 H   0  0  0  0  0  0  0  0  0  0  0  0
  141.4696   72.6409  227.0773 H   0  0  0  0  0  0  0  0  0  0  0  0
  1  2  2  0
  2  3  1  0
  3  4  1  0
  4  5  1  0
  5  6  2  0
  5  7  1  0
  7  8  1  0
  8  9  1  0
  9 10  1  0
  9 11  1  0
 11 12  1  0
 12 13  1  0
 13 14  1  0
 14 15  1  0
 15 16  2  0
 16 17  1  0
 17 18  2  0
 18 19  1  0
 19 20  2  0
  2 21  1  0
 21 22  2  0
 22 23  1  0
 23 24  2  0
 24 25  1  0
 25 26  2  0
 26 27  1  0
 27 28  2  0
 28 29  1  0
 29 30  2  0
 12  7  1  0
 20 15  1  0
 30 21  1  0
 29 24  1  0
  3 31  1  0
  4 32  1  0
  4 33  1  0
  8 34  1  0
  8 35  1  0
  9 36  1  6
 10 37  1  0
 11 38  1  0
 11 39  1  0
 12 40  1  1
 13 41  1  0
 13 42  1  0
 16 43  1  0
 17 44  1  0
 18 45  1  0
 20 46  1  0
 22 47  1  0
 23 48  1  0
 25 49  1  0
 26 50  1  0
 27 51  1  0
 28 52  1  0
M  END
>  <smiles>  (11) 
O=C(NCC(=O)N1C[C@H](O)C[C@H]1COc1cccnc1)c1ccc2ccccc2n1

>  <score_type>  (11) 
oracle

>  <origin>  (11) 
autodockgpu

>  <m_score__min__energy>  (11) 
-8.4399999999999995

>  <m_primary>  (11) 
energy

>  <rmsd>  (11) 
1.7243368166243083

>  <m_score__min__rmsd>  (11) 
1.7243368166243083

>  <meeko>  (11) 
{"free_energy": -8.2, "intermolecular_energy": -10.58, "internal_energy": -1.91, "cluster_size": 30, "cluster_id": 1, "rank_in_cluster": 7}

>  <energy>  (11) 
-7.99

>  <cluster_rmsd>  (11) 
1.94

>  <cluster>  (11) 
1

$$$$

     RDKit          3D

 52 55  0  0  0  0  0  0  0  0999 V2000
  140.1070   71.1050  221.2870 O   0  0  0  0  0  0  0  0  0  0  0  0
  139.9210   71.7480  222.3490 C   0  0  0  0  0  0  0  0  0  0  0  0
  139.7040   73.1500  222.2620 N   0  0  0  0  0  0  0  0  0  0  0  0
  139.6670   73.9250  221.0850 C   0  0  0  0  0  0  0  0  0  0  0  0
  140.4320   75.1600  221.0870 C   0  0  0  0  0  0  0  0  0  0  0  0
  140.6380   75.5990  222.3150 O   0  0  0  0  0  0  0  0  0  0  0  0
  140.9760   75.9640  220.1000 N   0  0  0  0  0  0  0  0  0  0  0  0
  141.3080   75.8560  218.7070 C   0  0  0  0  0  0  0  0  0  0  0  0
  142.7160   76.4740  218.6940 C   0  0  2  0  0  0  0  0  0  0  0  0
  143.4990   75.7650  219.5600 O   0  0  0  0  0  0  0  0  0  0  0  0
  142.3580   77.7990  219.3830 C   0  0  0  0  0  0  0  0  0  0  0  0
  141.3760   77.3830  220.4180 C   0  0  1  0  0  0  0  0  0  0  0  0
  140.0750   78.1410  220.3450 C   0  0  0  0  0  0  0  0  0  0  0  0
  139.8450   79.0900  221.2980 O   0  0  0  0  0  0  0  0  0  0  0  0
  140.6980   79.6380  222.1740 C   0  0  0  0  0  0  0  0  0  0  0  0
  141.3450   79.0450  223.2290 C   0  0  0  0  0  0  0  0  0  0  0  0
  142.2120   79.7520  224.0570 C   0  0  0  0  0  0  0  0  0  0  0  0
  142.4460   81.0790  223.8380 C   0  0  0  0  0  0  0  0  0  0  0  0
  141.8170   81.6680  222.8100 N   0  0  0  0  0  0  0  0  0  0  0  0
  140.9860   81.0120  222.0070 C   0  0  0  0  0  0  0  0  0  0  0  0
  139.9270   71.0690  223.6410 C   0  0  0  0  0  0  0  0  0  0  0  0
  139.3750   69.8090  223.7430 C   0  0  0  0  0  0  0  0  0  0  0  0
  139.3390   69.0980  224.9230 C   0  0  0  0  0  0  0  0  0  0  0  0
  139.8910   69.7100  226.0340 C   0  0  0  0  0  0  0  0  0  0  0  0
  139.8680   69.0140  227.2360 C   0  0  0  0  0  0  0  0  0  0  0  0
  140.4150   69.6130  228.3470 C   0  0  0  0  0  0  0  0  0  0  0  0
  140.9720   70.8800  228.2480 C   0  0  0  0  0  0  0  0  0  0  0  0
  141.0010   71.5820  227.0600 C   0  0  0  0  0  0  0  0  0  0  0  0
  140.4530   70.9840  225.9430 C   0  0  0  0  0  0  0  0  0  0  0  0
  140.4510   71.6160  224.7550 N   0  0  0  0  0  0  0  0  0  0  0  0
  139.5580   73.6380  223.1900 H   0  0  0  0  0  0  0  0  0  0  0  0
  140.0471   73.3000  220.2635 H   0  0  0  0  0  0  0  0  0  0  0  0
  138.6176   74.2379  220.9805 H   0  0  0  0  0  0  0  0  0  0  0  0
  141.3237   74.8073  218.3753 H   0  0  0  0  0  0  0  0  0  0  0  0
  140.5915   76.3444  218.0302 H   0  0  0  0  0  0  0  0  0  0  0  0
  143.2286   76.5258  217.7221 H   0  0  0  0  0  0  0  0  0  0  0  0
  143.3240   76.0150  220.4950 H   0  0  0  0  0  0  0  0  0  0  0  0
  143.2458   78.2583  219.8422 H   0  0  0  0  0  0  0  0  0  0  0  0
  141.9623   78.5553  218.6891 H   0  0  0  0  0  0  0  0  0  0  0  0
  141.8541   77.5447  221.3954 H   0  0  0  0  0  0  0  0  0  0  0  0
  140.0397   78.6416  219.3661 H   0  0  0  0  0  0  0  0  0  0  0  0
  139.2978   77.3809  220.5128 H   0  0  0  0  0  0  0  0  0  0  0  0
  141.1729   77.9767  223.4266 H   0  0  0  0  0  0  0  0  0  0  0  0
  142.7112   79.2389  224.8922 H   0  0  0  0  0  0  0  0  0  0  0  0
  143.1297   81.6481  224.4850 H   0  0  0  0  0  0  0  0  0  0  0  0
  140.5046   81.5579  221.1823 H   0  0  0  0  0  0  0  0  0  0  0  0
  138.9437   69.3506  222.8409 H   0  0  0  0  0  0  0  0  0  0  0  0
  138.8935   68.0938  224.9786 H   0  0  0  0  0  0  0  0  0  0  0  0
  139.4237   68.0096  227.2978 H   0  0  0  0  0  0  0  0  0  0  0  0
  140.4108   69.0878  229.3135 H   0  0  0  0  0  0  0  0  0  0  0  0
  141.4056   71.3410  229.1477 H   0  0  0  0  0  0  0  0  0  0  0  0
  141.4467   72.5862  227.0050 H   0  0  0  0  0  0  0  0  0  0  0  0
  1  2  2  0
  2  3  1  0
  3  4  1  0
  4  5  1  0
  5  6  2  0
  5  7  1  0
  7  8  1  0
  8  9  1  0
  9 10  1  0
  9 11  1  0
 11 12  1  0
 12 13  1  0
 13 14  1  0
 14 15  1  0
 15 16  2  0
 16 17  1  0
 17 18  2  0
 18 19  1  0
 19 20  2  0
  2 21  1  0
 21 22  2  0
 22 23  1  0
 23 24  2  0
 24 25  1  0
 25 26  2  0
 26 27  1  0
 27 28  2  0
 28 29  1  0
 29 30  2  0
 12  7  1  0
 20 15  1  0
 30 21  1  0
 29 24  1  0
  3 31  1  0
  4 32  1  0
  4 33  1  0
  8 34  1  0
  8 35  1  0
  9 36  1  6
 10 37  1  0
 11 38  1  0
 11 39  1  0
 12 40  1  1
 13 41  1  0
 13 42  1  0
 16 43  1  0
 17 44  1  0
 18 45  1  0
 20 46  1  0
 22 47  1  0
 23 48  1  0
 25 49  1  0
 26 50  1  0
 27 51  1  0
 28 52  1  0
M  END
>  <smiles>  (12) 
O=C(NCC(=O)N1C[C@H](O)C[C@H]1COc1cccnc1)c1ccc2ccccc2n1

>  <score_type>  (12) 
oracle

>  <origin>  (12) 
autodockgpu

>  <m_score__min__energy>  (12) 
-8.4399999999999995

>  <m_primary>  (12) 
energy

>  <rmsd>  (12) 
1.5298264848188055

>  <m_score__min__rmsd>  (12) 
1.5298264848188055

>  <meeko>  (12) 
{"free_energy": -8.24, "intermolecular_energy": -10.62, "internal_energy": -1.81, "cluster_size": 30, "cluster_id": 1, "rank_in_cluster": 5}

>  <energy>  (12) 
-7.99

>  <cluster_rmsd>  (12) 
1.18

>  <cluster>  (12) 
1

$$$$

     RDKit          3D

 52 55  0  0  0  0  0  0  0  0999 V2000
  138.6350   71.5640  221.6390 O   0  0  0  0  0  0  0  0  0  0  0  0
  139.5890   71.8930  222.3860 C   0  0  0  0  0  0  0  0  0  0  0  0
  140.4730   72.9150  221.9440 N   0  0  0  0  0  0  0  0  0  0  0  0
  140.3970   73.6270  220.7300 C   0  0  0  0  0  0  0  0  0  0  0  0
  141.5150   74.4960  220.4050 C   0  0  0  0  0  0  0  0  0  0  0  0
  142.5440   74.2770  221.2030 O   0  0  0  0  0  0  0  0  0  0  0  0
  141.7300   75.4880  219.4640 N   0  0  0  0  0  0  0  0  0  0  0  0
  141.4220   75.7230  218.0810 C   0  0  0  0  0  0  0  0  0  0  0  0
  142.7800   76.2170  217.5590 C   0  0  2  0  0  0  0  0  0  0  0  0
  143.7110   75.2520  217.8160 O   0  0  0  0  0  0  0  0  0  0  0  0
  142.9910   77.3400  218.5860 C   0  0  0  0  0  0  0  0  0  0  0  0
  142.4770   76.7410  219.8450 C   0  0  1  0  0  0  0  0  0  0  0  0
  141.4270   77.5850  220.5220 C   0  0  0  0  0  0  0  0  0  0  0  0
  141.6110   78.9370  220.5240 O   0  0  0  0  0  0  0  0  0  0  0  0
  141.7860   79.7680  221.5610 C   0  0  0  0  0  0  0  0  0  0  0  0
  141.5410   81.1160  221.6320 C   0  0  0  0  0  0  0  0  0  0  0  0
  141.7740   81.8510  222.7910 C   0  0  0  0  0  0  0  0  0  0  0  0
  142.2620   81.2380  223.9090 C   0  0  0  0  0  0  0  0  0  0  0  0
  142.5060   79.9200  223.8490 N   0  0  0  0  0  0  0  0  0  0  0  0
  142.2910   79.2010  222.7530 C   0  0  0  0  0  0  0  0  0  0  0  0
  139.7840   71.2400  223.6770 C   0  0  0  0  0  0  0  0  0  0  0  0
  139.4000   69.9250  223.8320 C   0  0  0  0  0  0  0  0  0  0  0  0
  139.5470   69.2340  225.0150 C   0  0  0  0  0  0  0  0  0  0  0  0
  140.1110   69.9250  226.0720 C   0  0  0  0  0  0  0  0  0  0  0  0
  140.2710   69.2510  227.2760 C   0  0  0  0  0  0  0  0  0  0  0  0
  140.8310   69.9280  228.3340 C   0  0  0  0  0  0  0  0  0  0  0  0
  141.2200   71.2520  228.1820 C   0  0  0  0  0  0  0  0  0  0  0  0
  141.0660   71.9330  226.9910 C   0  0  0  0  0  0  0  0  0  0  0  0
  140.5050   71.2560  225.9270 C   0  0  0  0  0  0  0  0  0  0  0  0
  140.3280   71.8640  224.7400 N   0  0  0  0  0  0  0  0  0  0  0  0
  141.2600   73.1460  222.6130 H   0  0  0  0  0  0  0  0  0  0  0  0
  140.3021   72.8905  219.9185 H   0  0  0  0  0  0  0  0  0  0  0  0
  139.5355   74.3008  220.8470 H   0  0  0  0  0  0  0  0  0  0  0  0
  141.1063   74.7989  217.5746 H   0  0  0  0  0  0  0  0  0  0  0  0
  140.5898   76.4227  217.9140 H   0  0  0  0  0  0  0  0  0  0  0  0
  142.8376   76.4820  216.4930 H   0  0  0  0  0  0  0  0  0  0  0  0
  144.6210   75.6230  217.8390 H   0  0  0  0  0  0  0  0  0  0  0  0
  144.0565   77.5979  218.6768 H   0  0  0  0  0  0  0  0  0  0  0  0
  142.4850   78.2779  218.3135 H   0  0  0  0  0  0  0  0  0  0  0  0
  143.3422   76.6062  220.5107 H   0  0  0  0  0  0  0  0  0  0  0  0
  140.4687   77.3835  220.0209 H   0  0  0  0  0  0  0  0  0  0  0  0
  141.4738   77.2941  221.5818 H   0  0  0  0  0  0  0  0  0  0  0  0
  141.1477   81.6328  220.7442 H   0  0  0  0  0  0  0  0  0  0  0  0
  141.5640   82.9307  222.8061 H   0  0  0  0  0  0  0  0  0  0  0  0
  142.4495   81.8075  224.8312 H   0  0  0  0  0  0  0  0  0  0  0  0
  142.5143   78.1241  222.7739 H   0  0  0  0  0  0  0  0  0  0  0  0
  138.9557   69.4033  222.9715 H   0  0  0  0  0  0  0  0  0  0  0  0
  139.2315   68.1849  225.1138 H   0  0  0  0  0  0  0  0  0  0  0  0
  139.9576   68.2018  227.3806 H   0  0  0  0  0  0  0  0  0  0  0  0
  140.9706   69.4208  229.3000 H   0  0  0  0  0  0  0  0  0  0  0  0
  141.6662   71.7764  229.0399 H   0  0  0  0  0  0  0  0  0  0  0  0
  141.3806   72.9825  226.8930 H   0  0  0  0  0  0  0  0  0  0  0  0
  1  2  2  0
  2  3  1  0
  3  4  1  0
  4  5  1  0
  5  6  2  0
  5  7  1  0
  7  8  1  0
  8  9  1  0
  9 10  1  0
  9 11  1  0
 11 12  1  0
 12 13  1  0
 13 14  1  0
 14 15  1  0
 15 16  2  0
 16 17  1  0
 17 18  2  0
 18 19  1  0
 19 20  2  0
  2 21  1  0
 21 22  2  0
 22 23  1  0
 23 24  2  0
 24 25  1  0
 25 26  2  0
 26 27  1  0
 27 28  2  0
 28 29  1  0
 29 30  2  0
 12  7  1  0
 20 15  1  0
 30 21  1  0
 29 24  1  0
  3 31  1  0
  4 32  1  0
  4 33  1  0
  8 34  1  0
  8 35  1  0
  9 36  1  6
 10 37  1  0
 11 38  1  0
 11 39  1  0
 12 40  1  1
 13 41  1  0
 13 42  1  0
 16 43  1  0
 17 44  1  0
 18 45  1  0
 20 46  1  0
 22 47  1  0
 23 48  1  0
 25 49  1  0
 26 50  1  0
 27 51  1  0
 28 52  1  0
M  END
>  <smiles>  (13) 
O=C(NCC(=O)N1C[C@H](O)C[C@H]1COc1cccnc1)c1ccc2ccccc2n1

>  <score_type>  (13) 
oracle

>  <origin>  (13) 
autodockgpu

>  <m_score__min__energy>  (13) 
-8.4399999999999995

>  <m_primary>  (13) 
energy

>  <rmsd>  (13) 
1.7914763430183607

>  <m_score__min__rmsd>  (13) 
1.7914763430183607

>  <meeko>  (13) 
{"free_energy": -7.59, "intermolecular_energy": -9.98, "internal_energy": -1.82, "cluster_size": 30, "cluster_id": 1, "rank_in_cluster": 20}

>  <energy>  (13) 
-7.97

>  <cluster_rmsd>  (13) 
1.93

>  <cluster>  (13) 
1

$$$$

     RDKit          3D

 52 55  0  0  0  0  0  0  0  0999 V2000
  140.3160   71.1860  221.2380 O   0  0  0  0  0  0  0  0  0  0  0  0
  140.1120   71.8580  222.2780 C   0  0  0  0  0  0  0  0  0  0  0  0
  139.9040   73.2590  222.1500 N   0  0  0  0  0  0  0  0  0  0  0  0
  139.8940   74.0020  220.9520 C   0  0  0  0  0  0  0  0  0  0  0  0
  140.6280   75.2550  220.9500 C   0  0  0  0  0  0  0  0  0  0  0  0
  140.4730   75.9080  222.0870 O   0  0  0  0  0  0  0  0  0  0  0  0
  141.4350   75.9050  220.0310 N   0  0  0  0  0  0  0  0  0  0  0  0
  142.5840   76.7650  220.0490 C   0  0  0  0  0  0  0  0  0  0  0  0
  142.1530   77.8500  219.0510 C   0  0  2  0  0  0  0  0  0  0  0  0
  140.9820   78.3950  219.4940 O   0  0  0  0  0  0  0  0  0  0  0  0
  141.8080   76.9170  217.8800 C   0  0  0  0  0  0  0  0  0  0  0  0
  141.1640   75.7600  218.5550 C   0  0  1  0  0  0  0  0  0  0  0  0
  141.8000   74.4380  218.2070 C   0  0  0  0  0  0  0  0  0  0  0  0
  142.3410   73.7110  219.2270 O   0  0  0  0  0  0  0  0  0  0  0  0
  143.6210   73.6040  219.6090 C   0  0  0  0  0  0  0  0  0  0  0  0
  144.1800   73.8910  220.8290 C   0  0  0  0  0  0  0  0  0  0  0  0
  145.5400   73.7260  221.0780 C   0  0  0  0  0  0  0  0  0  0  0  0
  146.3690   73.2680  220.0950 C   0  0  0  0  0  0  0  0  0  0  0  0
  145.8320   72.9860  218.8980 N   0  0  0  0  0  0  0  0  0  0  0  0
  144.5370   73.1360  218.6400 C   0  0  0  0  0  0  0  0  0  0  0  0
  140.0890   71.2140  223.5880 C   0  0  0  0  0  0  0  0  0  0  0  0
  139.5650   69.9440  223.7060 C   0  0  0  0  0  0  0  0  0  0  0  0
  139.5040   69.2640  224.9030 C   0  0  0  0  0  0  0  0  0  0  0  0
  140.0020   69.9190  226.0150 C   0  0  0  0  0  0  0  0  0  0  0  0
  139.9530   69.2550  227.2340 C   0  0  0  0  0  0  0  0  0  0  0  0
  140.4450   69.8970  228.3470 C   0  0  0  0  0  0  0  0  0  0  0  0
  140.9750   71.1750  228.2330 C   0  0  0  0  0  0  0  0  0  0  0  0
  141.0280   71.8450  227.0270 C   0  0  0  0  0  0  0  0  0  0  0  0
  140.5350   71.2040  225.9080 C   0  0  0  0  0  0  0  0  0  0  0  0
  140.5600   71.8040  224.7050 N   0  0  0  0  0  0  0  0  0  0  0  0
  139.7420   73.7720  223.0610 H   0  0  0  0  0  0  0  0  0  0  0  0
  140.3207   73.3656  220.1627 H   0  0  0  0  0  0  0  0  0  0  0  0
  138.8422   74.2855  220.7991 H   0  0  0  0  0  0  0  0  0  0  0  0
  142.7593   77.1841  221.0508 H   0  0  0  0  0  0  0  0  0  0  0  0
  143.5296   76.2641  219.7942 H   0  0  0  0  0  0  0  0  0  0  0  0
  142.8672   78.6650  218.8620 H   0  0  0  0  0  0  0  0  0  0  0  0
  140.6370   77.9220  220.2840 H   0  0  0  0  0  0  0  0  0  0  0  0
  141.1135   77.4026  217.1786 H   0  0  0  0  0  0  0  0  0  0  0  0
  142.6837   76.6353  217.2768 H   0  0  0  0  0  0  0  0  0  0  0  0
  140.1059   75.7622  218.2543 H   0  0  0  0  0  0  0  0  0  0  0  0
  141.0272   73.8154  217.7325 H   0  0  0  0  0  0  0  0  0  0  0  0
  142.6543   74.6986  217.5650 H   0  0  0  0  0  0  0  0  0  0  0  0
  143.5326   74.2635  221.6365 H   0  0  0  0  0  0  0  0  0  0  0  0
  145.9480   73.9657  222.0710 H   0  0  0  0  0  0  0  0  0  0  0  0
  147.4453   73.1341  220.2786 H   0  0  0  0  0  0  0  0  0  0  0  0
  144.1645   72.8868  217.6355 H   0  0  0  0  0  0  0  0  0  0  0  0
  139.1776   69.4506  222.8024 H   0  0  0  0  0  0  0  0  0  0  0  0
  139.0805   68.2511  224.9709 H   0  0  0  0  0  0  0  0  0  0  0  0
  139.5316   68.2416  227.3077 H   0  0  0  0  0  0  0  0  0  0  0  0
  140.4184   69.3978  229.3268 H   0  0  0  0  0  0  0  0  0  0  0  0
  141.3659   71.6706  229.1339 H   0  0  0  0  0  0  0  0  0  0  0  0
  141.4501   72.8586  226.9597 H   0  0  0  0  0  0  0  0  0  0  0  0
  1  2  2  0
  2  3  1  0
  3  4  1  0
  4  5  1  0
  5  6  2  0
  5  7  1  0
  7  8  1  0
  8  9  1  0
  9 10  1  0
  9 11  1  0
 11 12  1  0
 12 13  1  0
 13 14  1  0
 14 15  1  0
 15 16  2  0
 16 17  1  0
 17 18  2  0
 18 19  1  0
 19 20  2  0
  2 21  1  0
 21 22  2  0
 22 23  1  0
 23 24  2  0
 24 25  1  0
 25 26  2  0
 26 27  1  0
 27 28  2  0
 28 29  1  0
 29 30  2  0
 12  7  1  0
 20 15  1  0
 30 21  1  0
 29 24  1  0
  3 31  1  0
  4 32  1  0
  4 33  1  0
  8 34  1  0
  8 35  1  0
  9 36  1  6
 10 37  1  0
 11 38  1  0
 11 39  1  0
 12 40  1  1
 13 41  1  0
 13 42  1  0
 16 43  1  0
 17 44  1  0
 18 45  1  0
 20 46  1  0
 22 47  1  0
 23 48  1  0
 25 49  1  0
 26 50  1  0
 27 51  1  0
 28 52  1  0
M  END
>  <smiles>  (14) 
O=C(NCC(=O)N1C[C@H](O)C[C@H]1COc1cccnc1)c1ccc2ccccc2n1

>  <score_type>  (14) 
oracle

>  <origin>  (14) 
autodockgpu

>  <m_score__min__energy>  (14) 
-8.4399999999999995

>  <m_primary>  (14) 
energy

>  <rmsd>  (14) 
2.1872166898620105

>  <m_score__min__rmsd>  (14) 
2.1872166898620105

>  <meeko>  (14) 
{"free_energy": -7.62, "intermolecular_energy": -10.01, "internal_energy": -2.31, "cluster_size": 9, "cluster_id": 3, "rank_in_cluster": 4}

>  <energy>  (14) 
-7.94

>  <cluster_rmsd>  (14) 
0.96

>  <cluster>  (14) 
1

$$$$

     RDKit          3D

 52 55  0  0  0  0  0  0  0  0999 V2000
  139.4320   70.8610  221.4550 O   0  0  0  0  0  0  0  0  0  0  0  0
  139.5530   71.4910  222.5340 C   0  0  0  0  0  0  0  0  0  0  0  0
  139.5720   72.9120  222.4900 N   0  0  0  0  0  0  0  0  0  0  0  0
  139.4620   73.7200  221.3400 C   0  0  0  0  0  0  0  0  0  0  0  0
  140.3500   74.8660  221.2540 C   0  0  0  0  0  0  0  0  0  0  0  0
  140.2760   75.6160  222.3380 O   0  0  0  0  0  0  0  0  0  0  0  0
  141.2340   75.3370  220.2990 N   0  0  0  0  0  0  0  0  0  0  0  0
  141.8080   74.8770  219.0660 C   0  0  0  0  0  0  0  0  0  0  0  0
  143.2870   75.2390  219.2790 C   0  0  2  0  0  0  0  0  0  0  0  0
  143.7170   74.6170  220.4170 O   0  0  0  0  0  0  0  0  0  0  0  0
  143.0820   76.7220  219.6200 C   0  0  0  0  0  0  0  0  0  0  0  0
  141.8480   76.7060  220.4500 C   0  0  1  0  0  0  0  0  0  0  0  0
  140.7750   77.6330  219.9390 C   0  0  0  0  0  0  0  0  0  0  0  0
  140.5520   78.7840  220.6370 O   0  0  0  0  0  0  0  0  0  0  0  0
  141.1490   79.2320  221.7490 C   0  0  0  0  0  0  0  0  0  0  0  0
  141.1070   78.7080  223.0170 C   0  0  0  0  0  0  0  0  0  0  0  0
  141.7890   79.2900  224.0820 C   0  0  0  0  0  0  0  0  0  0  0  0
  142.5310   80.4190  223.8900 C   0  0  0  0  0  0  0  0  0  0  0  0
  142.5780   80.9400  222.6540 N   0  0  0  0  0  0  0  0  0  0  0  0
  141.9350   80.4000  221.6240 C   0  0  0  0  0  0  0  0  0  0  0  0
  139.6700   70.7790  223.8030 C   0  0  0  0  0  0  0  0  0  0  0  0
  139.1910   69.4900  223.8990 C   0  0  0  0  0  0  0  0  0  0  0  0
  139.2610   68.7460  225.0580 C   0  0  0  0  0  0  0  0  0  0  0  0
  139.8460   69.3570  226.1520 C   0  0  0  0  0  0  0  0  0  0  0  0
  139.9300   68.6290  227.3330 C   0  0  0  0  0  0  0  0  0  0  0  0
  140.5100   69.2260  228.4270 C   0  0  0  0  0  0  0  0  0  0  0  0
  140.9940   70.5240  228.3350 C   0  0  0  0  0  0  0  0  0  0  0  0
  140.9160   71.2570  227.1680 C   0  0  0  0  0  0  0  0  0  0  0  0
  140.3350   70.6610  226.0670 C   0  0  0  0  0  0  0  0  0  0  0  0
  140.2300   71.3230  224.9010 N   0  0  0  0  0  0  0  0  0  0  0  0
  139.6800   73.3870  223.4290 H   0  0  0  0  0  0  0  0  0  0  0  0
  139.6577   73.0818  220.4657 H   0  0  0  0  0  0  0  0  0  0  0  0
  138.4486   74.1456  221.3848 H   0  0  0  0  0  0  0  0  0  0  0  0
  141.6718   73.7932  218.9364 H   0  0  0  0  0  0  0  0  0  0  0  0
  141.3583   75.3175  218.1639 H   0  0  0  0  0  0  0  0  0  0  0  0
  143.9824   74.9939  218.4627 H   0  0  0  0  0  0  0  0  0  0  0  0
  143.3490   75.0410  221.2240 H   0  0  0  0  0  0  0  0  0  0  0  0
  143.9360   77.1188  220.1886 H   0  0  0  0  0  0  0  0  0  0  0  0
  142.9985   77.3641  218.7308 H   0  0  0  0  0  0  0  0  0  0  0  0
  142.1438   76.9944  221.4695 H   0  0  0  0  0  0  0  0  0  0  0  0
  141.0474   77.9180  218.9121 H   0  0  0  0  0  0  0  0  0  0  0  0
  139.8406   77.0607  220.0364 H   0  0  0  0  0  0  0  0  0  0  0  0
  140.5151   77.7985  223.1975 H   0  0  0  0  0  0  0  0  0  0  0  0
  141.7295   78.8377  225.0829 H   0  0  0  0  0  0  0  0  0  0  0  0
  143.0744   80.8881  224.7234 H   0  0  0  0  0  0  0  0  0  0  0  0
  142.0175   80.8798  220.6376 H   0  0  0  0  0  0  0  0  0  0  0  0
  138.7316   69.0336  223.0098 H   0  0  0  0  0  0  0  0  0  0  0  0
  138.8713   67.7186  225.1097 H   0  0  0  0  0  0  0  0  0  0  0  0
  139.5422   67.6012  227.3908 H   0  0  0  0  0  0  0  0  0  0  0  0
  140.5907   68.6751  229.3757 H   0  0  0  0  0  0  0  0  0  0  0  0
  141.4550   70.9836  229.2217 H   0  0  0  0  0  0  0  0  0  0  0  0
  141.3050   72.2847  227.1170 H   0  0  0  0  0  0  0  0  0  0  0  0
  1  2  2  0
  2  3  1  0
  3  4  1  0
  4  5  1  0
  5  6  2  0
  5  7  1  0
  7  8  1  0
  8  9  1  0
  9 10  1  0
  9 11  1  0
 11 12  1  0
 12 13  1  0
 13 14  1  0
 14 15  1  0
 15 16  2  0
 16 17  1  0
 17 18  2  0
 18 19  1  0
 19 20  2  0
  2 21  1  0
 21 22  2  0
 22 23  1  0
 23 24  2  0
 24 25  1  0
 25 26  2  0
 26 27  1  0
 27 28  2  0
 28 29  1  0
 29 30  2  0
 12  7  1  0
 20 15  1  0
 30 21  1  0
 29 24  1  0
  3 31  1  0
  4 32  1  0
  4 33  1  0
  8 34  1  0
  8 35  1  0
  9 36  1  6
 10 37  1  0
 11 38  1  0
 11 39  1  0
 12 40  1  1
 13 41  1  0
 13 42  1  0
 16 43  1  0
 17 44  1  0
 18 45  1  0
 20 46  1  0
 22 47  1  0
 23 48  1  0
 25 49  1  0
 26 50  1  0
 27 51  1  0
 28 52  1  0
M  END
>  <smiles>  (15) 
O=C(NCC(=O)N1C[C@H](O)C[C@H]1COc1cccnc1)c1ccc2ccccc2n1

>  <score_type>  (15) 
oracle

>  <origin>  (15) 
autodockgpu

>  <m_score__min__energy>  (15) 
-8.4399999999999995

>  <m_primary>  (15) 
energy

>  <rmsd>  (15) 
1.7185934051969092

>  <m_score__min__rmsd>  (15) 
1.7185934051969092

>  <meeko>  (15) 
{"free_energy": -8.44, "intermolecular_energy": -10.83, "internal_energy": -1.78, "cluster_size": 30, "cluster_id": 1, "rank_in_cluster": 1}

>  <energy>  (15) 
-7.86

>  <cluster_rmsd>  (15) 
1.01

>  <cluster>  (15) 
1

$$$$

     RDKit          3D

 52 55  0  0  0  0  0  0  0  0999 V2000
  138.4510   75.5380  222.4170 O   0  0  0  0  0  0  0  0  0  0  0  0
  139.6170   75.9660  222.2330 C   0  0  0  0  0  0  0  0  0  0  0  0
  140.5670   75.1010  221.6250 N   0  0  0  0  0  0  0  0  0  0  0  0
  140.3430   73.7800  221.1870 C   0  0  0  0  0  0  0  0  0  0  0  0
  139.8510   72.8340  222.1730 C   0  0  0  0  0  0  0  0  0  0  0  0
  140.7520   72.5990  223.1080 O   0  0  0  0  0  0  0  0  0  0  0  0
  138.6670   72.1350  222.3390 N   0  0  0  0  0  0  0  0  0  0  0  0
  137.4750   71.8730  221.5830 C   0  0  0  0  0  0  0  0  0  0  0  0
  136.3940   72.1320  222.6430 C   0  0  2  0  0  0  0  0  0  0  0  0
  136.5490   73.4070  223.1060 O   0  0  0  0  0  0  0  0  0  0  0  0
  136.9420   71.1860  223.7220 C   0  0  0  0  0  0  0  0  0  0  0  0
  138.4120   71.3770  223.6170 C   0  0  1  0  0  0  0  0  0  0  0  0
  139.1680   70.0870  223.4190 C   0  0  0  0  0  0  0  0  0  0  0  0
  140.0190   69.6970  224.4110 O   0  0  0  0  0  0  0  0  0  0  0  0
  140.2060   70.2290  225.6270 C   0  0  0  0  0  0  0  0  0  0  0  0
  139.6820   69.8270  226.8300 C   0  0  0  0  0  0  0  0  0  0  0  0
  139.9740   70.4860  228.0220 C   0  0  0  0  0  0  0  0  0  0  0  0
  140.8040   71.5690  228.0240 C   0  0  0  0  0  0  0  0  0  0  0  0
  141.3210   71.9700  226.8530 N   0  0  0  0  0  0  0  0  0  0  0  0
  141.0560   71.3560  225.7050 C   0  0  0  0  0  0  0  0  0  0  0  0
  139.9850   77.3210  222.6340 C   0  0  0  0  0  0  0  0  0  0  0  0
  138.9940   78.2130  222.9820 C   0  0  0  0  0  0  0  0  0  0  0  0
  139.2540   79.5100  223.3720 C   0  0  0  0  0  0  0  0  0  0  0  0
  140.5820   79.8950  223.4020 C   0  0  0  0  0  0  0  0  0  0  0  0
  140.8700   81.1970  223.7930 C   0  0  0  0  0  0  0  0  0  0  0  0
  142.1880   81.5900  223.8270 C   0  0  0  0  0  0  0  0  0  0  0  0
  143.1890   80.6940  223.4770 C   0  0  0  0  0  0  0  0  0  0  0  0
  142.9150   79.3990  223.0870 C   0  0  0  0  0  0  0  0  0  0  0  0
  141.5940   79.0000  223.0520 C   0  0  0  0  0  0  0  0  0  0  0  0
  141.2620   77.7500  222.6820 N   0  0  0  0  0  0  0  0  0  0  0  0
  141.5330   75.5140  221.5000 H   0  0  0  0  0  0  0  0  0  0  0  0
  139.6072   73.8212  220.3703 H   0  0  0  0  0  0  0  0  0  0  0  0
  141.3349   73.4023  220.8981 H   0  0  0  0  0  0  0  0  0  0  0  0
  137.3779   72.5610  220.7302 H   0  0  0  0  0  0  0  0  0  0  0  0
  137.4358   70.8713  221.1302 H   0  0  0  0  0  0  0  0  0  0  0  0
  135.3479   71.9989  222.3299 H   0  0  0  0  0  0  0  0  0  0  0  0
  137.4880   73.6950  223.0710 H   0  0  0  0  0  0  0  0  0  0  0  0
  136.5765   71.4701  224.7198 H   0  0  0  0  0  0  0  0  0  0  0  0
  136.6291   70.1407  223.5823 H   0  0  0  0  0  0  0  0  0  0  0  0
  138.7379   71.8687  224.5455 H   0  0  0  0  0  0  0  0  0  0  0  0
  138.4250   69.2864  223.2887 H   0  0  0  0  0  0  0  0  0  0  0  0
  139.8168   70.2730  222.5504 H   0  0  0  0  0  0  0  0  0  0  0  0
  139.0099   68.9565  226.8537 H   0  0  0  0  0  0  0  0  0  0  0  0
  139.5336   70.1318  228.9657 H   0  0  0  0  0  0  0  0  0  0  0  0
  141.0422   72.0978  228.9587 H   0  0  0  0  0  0  0  0  0  0  0  0
  141.5148   71.7386  224.7813 H   0  0  0  0  0  0  0  0  0  0  0  0
  137.9478   77.8751  222.9471 H   0  0  0  0  0  0  0  0  0  0  0  0
  138.4454   80.2038  223.6456 H   0  0  0  0  0  0  0  0  0  0  0  0
  140.0655   81.8949  224.0680 H   0  0  0  0  0  0  0  0  0  0  0  0
  142.4487   82.6143  224.1315 H   0  0  0  0  0  0  0  0  0  0  0  0
  144.2365   81.0278  223.5118 H   0  0  0  0  0  0  0  0  0  0  0  0
  143.7241   78.7062  222.8125 H   0  0  0  0  0  0  0  0  0  0  0  0
  1  2  2  0
  2  3  1  0
  3  4  1  0
  4  5  1  0
  5  6  2  0
  5  7  1  0
  7  8  1  0
  8  9  1  0
  9 10  1  0
  9 11  1  0
 11 12  1  0
 12 13  1  0
 13 14  1  0
 14 15  1  0
 15 16  2  0
 16 17  1  0
 17 18  2  0
 18 19  1  0
 19 20  2  0
  2 21  1  0
 21 22  2  0
 22 23  1  0
 23 24  2  0
 24 25  1  0
 25 26  2  0
 26 27  1  0
 27 28  2  0
 28 29  1  0
 29 30  2  0
 12  7  1  0
 20 15  1  0
 30 21  1  0
 29 24  1  0
  3 31  1  0
  4 32  1  0
  4 33  1  0
  8 34  1  0
  8 35  1  0
  9 36  1  6
 10 37  1  0
 11 38  1  0
 11 39  1  0
 12 40  1  1
 13 41  1  0
 13 42  1  0
 16 43  1  0
 17 44  1  0
 18 45  1  0
 20 46  1  0
 22 47  1  0
 23 48  1  0
 25 49  1  0
 26 50  1  0
 27 51  1  0
 28 52  1  0
M  END
>  <smiles>  (16) 
O=C(NCC(=O)N1C[C@H](O)C[C@H]1COc1cccnc1)c1ccc2ccccc2n1

>  <score_type>  (16) 
oracle

>  <origin>  (16) 
autodockgpu

>  <m_score__min__energy>  (16) 
-8.4399999999999995

>  <m_primary>  (16) 
energy

>  <rmsd>  (16) 
8.258432851913415

>  <m_score__min__rmsd>  (16) 
8.258432851913415

>  <meeko>  (16) 
{"free_energy": -8.01, "intermolecular_energy": -10.4, "internal_energy": -2.45, "cluster_size": 4, "cluster_id": 2, "rank_in_cluster": 1}

>  <energy>  (16) 
-7.84

>  <cluster_rmsd>  (16) 
0.91

>  <cluster>  (16) 
1

$$$$

     RDKit          3D

 52 55  0  0  0  0  0  0  0  0999 V2000
  139.7760   74.1300  221.9720 O   0  0  0  0  0  0  0  0  0  0  0  0
  140.1480   75.3280  221.9270 C   0  0  0  0  0  0  0  0  0  0  0  0
  141.4630   75.6110  221.4690 N   0  0  0  0  0  0  0  0  0  0  0  0
  142.4260   74.6750  221.0410 C   0  0  0  0  0  0  0  0  0  0  0  0
  143.1520   74.9880  219.8230 C   0  0  0  0  0  0  0  0  0  0  0  0
  144.3680   74.4760  219.8410 O   0  0  0  0  0  0  0  0  0  0  0  0
  142.8540   75.6990  218.6720 N   0  0  0  0  0  0  0  0  0  0  0  0
  142.2620   75.4400  217.3900 C   0  0  0  0  0  0  0  0  0  0  0  0
  143.2610   76.1470  216.4600 C   0  0  2  0  0  0  0  0  0  0  0  0
  144.4970   75.6090  216.6760 O   0  0  0  0  0  0  0  0  0  0  0  0
  143.2340   77.5210  217.1470 C   0  0  0  0  0  0  0  0  0  0  0  0
  143.1720   77.1700  218.5900 C   0  0  1  0  0  0  0  0  0  0  0  0
  142.0200   77.8210  219.3130 C   0  0  0  0  0  0  0  0  0  0  0  0
  142.1370   77.9900  220.6620 O   0  0  0  0  0  0  0  0  0  0  0  0
  142.0880   79.1170  221.3840 C   0  0  0  0  0  0  0  0  0  0  0  0
  142.5780   79.3530  222.6430 C   0  0  0  0  0  0  0  0  0  0  0  0
  142.4510   80.5910  223.2690 C   0  0  0  0  0  0  0  0  0  0  0  0
  141.8230   81.6220  222.6330 C   0  0  0  0  0  0  0  0  0  0  0  0
  141.3380   81.4010  221.4010 N   0  0  0  0  0  0  0  0  0  0  0  0
  141.4490   80.2280  220.7870 C   0  0  0  0  0  0  0  0  0  0  0  0
  139.2480   76.4030  222.3360 C   0  0  0  0  0  0  0  0  0  0  0  0
  137.8870   76.1850  222.3200 C   0  0  0  0  0  0  0  0  0  0  0  0
  136.9680   77.1440  222.6900 C   0  0  0  0  0  0  0  0  0  0  0  0
  137.4750   78.3670  223.0890 C   0  0  0  0  0  0  0  0  0  0  0  0
  136.5690   79.3510  223.4670 C   0  0  0  0  0  0  0  0  0  0  0  0
  137.0620   80.5720  223.8670 C   0  0  0  0  0  0  0  0  0  0  0  0
  138.4320   80.7940  223.8850 C   0  0  0  0  0  0  0  0  0  0  0  0
  139.3410   79.8260  223.5120 C   0  0  0  0  0  0  0  0  0  0  0  0
  138.8510   78.5990  223.1100 C   0  0  0  0  0  0  0  0  0  0  0  0
  139.6850   77.6140  222.7350 N   0  0  0  0  0  0  0  0  0  0  0  0
  141.7220   76.6380  221.4580 H   0  0  0  0  0  0  0  0  0  0  0  0
  143.1644   74.5653  221.8489 H   0  0  0  0  0  0  0  0  0  0  0  0
  141.8557   73.7637  220.8081 H   0  0  0  0  0  0  0  0  0  0  0  0
  142.2077   74.3616  217.1801 H   0  0  0  0  0  0  0  0  0  0  0  0
  141.2235   75.7886  217.2904 H   0  0  0  0  0  0  0  0  0  0  0  0
  143.0490   76.1111  215.3812 H   0  0  0  0  0  0  0  0  0  0  0  0
  144.6310   75.3740  217.6200 H   0  0  0  0  0  0  0  0  0  0  0  0
  144.1436   78.0957  216.9183 H   0  0  0  0  0  0  0  0  0  0  0  0
  142.3973   78.1547  216.8179 H   0  0  0  0  0  0  0  0  0  0  0  0
  144.1265   77.4851  219.0369 H   0  0  0  0  0  0  0  0  0  0  0  0
  141.8719   78.8160  218.8680 H   0  0  0  0  0  0  0  0  0  0  0  0
  141.1807   77.1207  219.1903 H   0  0  0  0  0  0  0  0  0  0  0  0
  143.0884   78.5375  223.1763 H   0  0  0  0  0  0  0  0  0  0  0  0
  142.8586   80.7380  224.2801 H   0  0  0  0  0  0  0  0  0  0  0  0
  141.7173   82.6049  223.1154 H   0  0  0  0  0  0  0  0  0  0  0  0
  141.0282   80.1171  219.7768 H   0  0  0  0  0  0  0  0  0  0  0  0
  137.5170   75.2006  221.9972 H   0  0  0  0  0  0  0  0  0  0  0  0
  135.8861   76.9461  222.6688 H   0  0  0  0  0  0  0  0  0  0  0  0
  135.4861   79.1588  223.4469 H   0  0  0  0  0  0  0  0  0  0  0  0
  136.3708   81.3714  224.1723 H   0  0  0  0  0  0  0  0  0  0  0  0
  138.8060   81.7767  224.2082 H   0  0  0  0  0  0  0  0  0  0  0  0
  140.4226   80.0251  223.5340 H   0  0  0  0  0  0  0  0  0  0  0  0
  1  2  2  0
  2  3  1  0
  3  4  1  0
  4  5  1  0
  5  6  2  0
  5  7  1  0
  7  8  1  0
  8  9  1  0
  9 10  1  0
  9 11  1  0
 11 12  1  0
 12 13  1  0
 13 14  1  0
 14 15  1  0
 15 16  2  0
 16 17  1  0
 17 18  2  0
 18 19  1  0
 19 20  2  0
  2 21  1  0
 21 22  2  0
 22 23  1  0
 23 24  2  0
 24 25  1  0
 25 26  2  0
 26 27  1  0
 27 28  2  0
 28 29  1  0
 29 30  2  0
 12  7  1  0
 20 15  1  0
 30 21  1  0
 29 24  1  0
  3 31  1  0
  4 32  1  0
  4 33  1  0
  8 34  1  0
  8 35  1  0
  9 36  1  6
 10 37  1  0
 11 38  1  0
 11 39  1  0
 12 40  1  1
 13 41  1  0
 13 42  1  0
 16 43  1  0
 17 44  1  0
 18 45  1  0
 20 46  1  0
 22 47  1  0
 23 48  1  0
 25 49  1  0
 26 50  1  0
 27 51  1  0
 28 52  1  0
M  END
>  <smiles>  (17) 
O=C(NCC(=O)N1C[C@H](O)C[C@H]1COc1cccnc1)c1ccc2ccccc2n1

>  <score_type>  (17) 
oracle

>  <origin>  (17) 
autodockgpu

>  <m_score__min__energy>  (17) 
-8.4399999999999995

>  <m_primary>  (17) 
energy

>  <rmsd>  (17) 
6.855878762267103

>  <m_score__min__rmsd>  (17) 
6.855878762267103

>  <meeko>  (17) 
{"free_energy": -6.04, "intermolecular_energy": -8.43, "internal_energy": -3.53, "cluster_size": 3, "cluster_id": 5, "rank_in_cluster": 2}

>  <energy>  (17) 
-7.79

>  <cluster_rmsd>  (17) 
1.99

>  <cluster>  (17) 
1

$$$$

     RDKit          3D

 52 55  0  0  0  0  0  0  0  0999 V2000
  138.4820   72.4680  222.3600 O   0  0  0  0  0  0  0  0  0  0  0  0
  139.0690   71.3610  222.4290 C   0  0  0  0  0  0  0  0  0  0  0  0
  139.3630   70.6730  221.2200 N   0  0  0  0  0  0  0  0  0  0  0  0
  139.0670   71.1070  219.9120 C   0  0  0  0  0  0  0  0  0  0  0  0
  139.7320   72.3140  219.4530 C   0  0  0  0  0  0  0  0  0  0  0  0
  139.4610   72.5610  218.1850 O   0  0  0  0  0  0  0  0  0  0  0  0
  140.5740   73.2410  220.0440 N   0  0  0  0  0  0  0  0  0  0  0  0
  141.4260   73.3160  221.1970 C   0  0  0  0  0  0  0  0  0  0  0  0
  141.0330   74.6900  221.7610 C   0  0  2  0  0  0  0  0  0  0  0  0
  139.6890   74.6830  222.0010 O   0  0  0  0  0  0  0  0  0  0  0  0
  141.2630   75.5050  220.4790 C   0  0  0  0  0  0  0  0  0  0  0  0
  140.7630   74.5970  219.4140 C   0  0  1  0  0  0  0  0  0  0  0  0
  141.7750   74.3430  218.3250 C   0  0  0  0  0  0  0  0  0  0  0  0
  143.0350   74.8340  218.5080 O   0  0  0  0  0  0  0  0  0  0  0  0
  144.0730   74.2880  219.1560 C   0  0  0  0  0  0  0  0  0  0  0  0
  144.4720   74.4800  220.4540 C   0  0  0  0  0  0  0  0  0  0  0  0
  145.5820   73.8330  220.9920 C   0  0  0  0  0  0  0  0  0  0  0  0
  146.3160   72.9750  220.2260 C   0  0  0  0  0  0  0  0  0  0  0  0
  145.9350   72.7810  218.9540 N   0  0  0  0  0  0  0  0  0  0  0  0
  144.8790   73.3880  218.4220 C   0  0  0  0  0  0  0  0  0  0  0  0
  139.4410   70.7950  223.7230 C   0  0  0  0  0  0  0  0  0  0  0  0
  139.2480   69.4490  223.9500 C   0  0  0  0  0  0  0  0  0  0  0  0
  139.5700   68.8340  225.1410 C   0  0  0  0  0  0  0  0  0  0  0  0
  140.1100   69.6370  226.1280 C   0  0  0  0  0  0  0  0  0  0  0  0
  140.4450   69.0420  227.3380 C   0  0  0  0  0  0  0  0  0  0  0  0
  140.9830   69.8310  228.3270 C   0  0  0  0  0  0  0  0  0  0  0  0
  141.1800   71.1870  228.1020 C   0  0  0  0  0  0  0  0  0  0  0  0
  140.8510   71.7900  226.9050 C   0  0  0  0  0  0  0  0  0  0  0  0
  140.3110   71.0010  225.9090 C   0  0  0  0  0  0  0  0  0  0  0  0
  139.9710   71.5300  224.7210 N   0  0  0  0  0  0  0  0  0  0  0  0
  139.8540   69.7440  221.3420 H   0  0  0  0  0  0  0  0  0  0  0  0
  139.3403   70.2946  219.2226 H   0  0  0  0  0  0  0  0  0  0  0  0
  137.9963   71.3588  219.9292 H   0  0  0  0  0  0  0  0  0  0  0  0
  141.2102   72.5087  221.9123 H   0  0  0  0  0  0  0  0  0  0  0  0
  142.4981   73.2051  220.9773 H   0  0  0  0  0  0  0  0  0  0  0  0
  141.5490   75.0189  222.6751 H   0  0  0  0  0  0  0  0  0  0  0  0
  139.4620   74.1310  222.7820 H   0  0  0  0  0  0  0  0  0  0  0  0
  140.6907   76.4442  220.4991 H   0  0  0  0  0  0  0  0  0  0  0  0
  142.3118   75.8047  220.3372 H   0  0  0  0  0  0  0  0  0  0  0  0
  139.8611   75.0645  218.9921 H   0  0  0  0  0  0  0  0  0  0  0  0
  141.8607   73.2532  218.2027 H   0  0  0  0  0  0  0  0  0  0  0  0
  141.3873   74.8859  217.4504 H   0  0  0  0  0  0  0  0  0  0  0  0
  143.8965   75.1676  221.0912 H   0  0  0  0  0  0  0  0  0  0  0  0
  145.8680   74.0145  222.0386 H   0  0  0  0  0  0  0  0  0  0  0  0
  147.1944   72.4574  220.6390 H   0  0  0  0  0  0  0  0  0  0  0  0
  144.6228   73.1825  217.3722 H   0  0  0  0  0  0  0  0  0  0  0  0
  138.8172   68.8375  223.1435 H   0  0  0  0  0  0  0  0  0  0  0  0
  139.4054   67.7578  225.2981 H   0  0  0  0  0  0  0  0  0  0  0  0
  140.2838   67.9661  227.5007 H   0  0  0  0  0  0  0  0  0  0  0  0
  141.2572   69.3884  229.2960 H   0  0  0  0  0  0  0  0  0  0  0  0
  141.6130   71.8014  228.9051 H   0  0  0  0  0  0  0  0  0  0  0  0
  141.0141   72.8666  226.7492 H   0  0  0  0  0  0  0  0  0  0  0  0
  1  2  2  0
  2  3  1  0
  3  4  1  0
  4  5  1  0
  5  6  2  0
  5  7  1  0
  7  8  1  0
  8  9  1  0
  9 10  1  0
  9 11  1  0
 11 12  1  0
 12 13  1  0
 13 14  1  0
 14 15  1  0
 15 16  2  0
 16 17  1  0
 17 18  2  0
 18 19  1  0
 19 20  2  0
  2 21  1  0
 21 22  2  0
 22 23  1  0
 23 24  2  0
 24 25  1  0
 25 26  2  0
 26 27  1  0
 27 28  2  0
 28 29  1  0
 29 30  2  0
 12  7  1  0
 20 15  1  0
 30 21  1  0
 29 24  1  0
  3 31  1  0
  4 32  1  0
  4 33  1  0
  8 34  1  0
  8 35  1  0
  9 36  1  1
 10 37  1  0
 11 38  1  0
 11 39  1  0
 12 40  1  6
 13 41  1  0
 13 42  1  0
 16 43  1  0
 17 44  1  0
 18 45  1  0
 20 46  1  0
 22 47  1  0
 23 48  1  0
 25 49  1  0
 26 50  1  0
 27 51  1  0
 28 52  1  0
M  END
>  <smiles>  (18) 
O=C(NCC(=O)N1C[C@H](O)C[C@H]1COc1cccnc1)c1ccc2ccccc2n1

>  <score_type>  (18) 
oracle

>  <origin>  (18) 
autodockgpu

>  <m_score__min__energy>  (18) 
-8.4399999999999995

>  <m_primary>  (18) 
energy

>  <rmsd>  (18) 
2.7264946183991854

>  <m_score__min__rmsd>  (18) 
2.7264946183991854

>  <meeko>  (18) 
{"free_energy": -7.34, "intermolecular_energy": -9.72, "internal_energy": -2.33, "cluster_size": 9, "cluster_id": 3, "rank_in_cluster": 9}

>  <energy>  (18) 
-7.72

>  <cluster_rmsd>  (18) 
1.04

>  <cluster>  (18) 
1

$$$$

     RDKit          3D

 52 55  0  0  0  0  0  0  0  0999 V2000
  139.8530   70.8550  221.3180 O   0  0  0  0  0  0  0  0  0  0  0  0
  139.7670   71.5100  222.3850 C   0  0  0  0  0  0  0  0  0  0  0  0
  139.6450   72.9240  222.3040 N   0  0  0  0  0  0  0  0  0  0  0  0
  139.6020   73.6990  221.1270 C   0  0  0  0  0  0  0  0  0  0  0  0
  140.2620   74.9920  221.1660 C   0  0  0  0  0  0  0  0  0  0  0  0
  140.1750   75.5420  222.3630 O   0  0  0  0  0  0  0  0  0  0  0  0
  140.9440   75.7600  220.2390 N   0  0  0  0  0  0  0  0  0  0  0  0
  141.3970   75.6310  218.8820 C   0  0  0  0  0  0  0  0  0  0  0  0
  142.8360   76.1590  219.0030 C   0  0  2  0  0  0  0  0  0  0  0  0
  143.4890   75.4030  219.9340 O   0  0  0  0  0  0  0  0  0  0  0  0
  142.4990   77.5050  219.6630 C   0  0  0  0  0  0  0  0  0  0  0  0
  141.4010   77.1510  220.6000 C   0  0  1  0  0  0  0  0  0  0  0  0
  140.1630   77.9890  220.4120 C   0  0  0  0  0  0  0  0  0  0  0  0
  139.8500   78.8830  221.3950 O   0  0  0  0  0  0  0  0  0  0  0  0
  140.6650   79.6250  222.1560 C   0  0  0  0  0  0  0  0  0  0  0  0
  140.9590   80.9620  222.0500 C   0  0  0  0  0  0  0  0  0  0  0  0
  141.8320   81.6000  222.9260 C   0  0  0  0  0  0  0  0  0  0  0  0
  142.4300   80.9000  223.9340 C   0  0  0  0  0  0  0  0  0  0  0  0
  142.1500   79.5930  224.0460 N   0  0  0  0  0  0  0  0  0  0  0  0
  141.3200   78.9650  223.2200 C   0  0  0  0  0  0  0  0  0  0  0  0
  139.7920   70.8330  223.6780 C   0  0  0  0  0  0  0  0  0  0  0  0
  139.2830   69.5560  223.7810 C   0  0  0  0  0  0  0  0  0  0  0  0
  139.2670   68.8450  224.9620 C   0  0  0  0  0  0  0  0  0  0  0  0
  139.7960   69.4760  226.0730 C   0  0  0  0  0  0  0  0  0  0  0  0
  139.7920   68.7810  227.2760 C   0  0  0  0  0  0  0  0  0  0  0  0
  140.3160   69.3990  228.3870 C   0  0  0  0  0  0  0  0  0  0  0  0
  140.8310   70.6850  228.2890 C   0  0  0  0  0  0  0  0  0  0  0  0
  140.8390   71.3850  227.1000 C   0  0  0  0  0  0  0  0  0  0  0  0
  140.3150   70.7690  225.9810 C   0  0  0  0  0  0  0  0  0  0  0  0
  140.2950   71.3990  224.7930 N   0  0  0  0  0  0  0  0  0  0  0  0
  139.5820   73.4220  223.2350 H   0  0  0  0  0  0  0  0  0  0  0  0
  140.0713   73.1107  220.3247 H   0  0  0  0  0  0  0  0  0  0  0  0
  138.5368   73.9259  220.9724 H   0  0  0  0  0  0  0  0  0  0  0  0
  141.3777   74.5833  218.5473 H   0  0  0  0  0  0  0  0  0  0  0  0
  140.7786   76.1635  218.1444 H   0  0  0  0  0  0  0  0  0  0  0  0
  143.4390   76.1777  218.0832 H   0  0  0  0  0  0  0  0  0  0  0  0
  143.2190   75.6410  220.8490 H   0  0  0  0  0  0  0  0  0  0  0  0
  143.3671   77.9081  220.2051 H   0  0  0  0  0  0  0  0  0  0  0  0
  142.2178   78.2846  218.9397 H   0  0  0  0  0  0  0  0  0  0  0  0
  141.7961   77.2821  221.6182 H   0  0  0  0  0  0  0  0  0  0  0  0
  140.2886   78.5569  219.4784 H   0  0  0  0  0  0  0  0  0  0  0  0
  139.3333   77.2668  220.4166 H   0  0  0  0  0  0  0  0  0  0  0  0
  140.4891   81.5480  221.2464 H   0  0  0  0  0  0  0  0  0  0  0  0
  142.0412   82.6732  222.8057 H   0  0  0  0  0  0  0  0  0  0  0  0
  143.1209   81.3932  224.6336 H   0  0  0  0  0  0  0  0  0  0  0  0
  141.1359   77.8910  223.3701 H   0  0  0  0  0  0  0  0  0  0  0  0
  138.8702   69.0820  222.8783 H   0  0  0  0  0  0  0  0  0  0  0  0
  138.8542   67.8269  225.0178 H   0  0  0  0  0  0  0  0  0  0  0  0
  139.3804   67.7628  227.3381 H   0  0  0  0  0  0  0  0  0  0  0  0
  140.3272   68.8745  229.3538 H   0  0  0  0  0  0  0  0  0  0  0  0
  141.2464   71.1614  229.1893 H   0  0  0  0  0  0  0  0  0  0  0  0
  141.2507   72.4036  227.0453 H   0  0  0  0  0  0  0  0  0  0  0  0
  1  2  2  0
  2  3  1  0
  3  4  1  0
  4  5  1  0
  5  6  2  0
  5  7  1  0
  7  8  1  0
  8  9  1  0
  9 10  1  0
  9 11  1  0
 11 12  1  0
 12 13  1  0
 13 14  1  0
 14 15  1  0
 15 16  2  0
 16 17  1  0
 17 18  2  0
 18 19  1  0
 19 20  2  0
  2 21  1  0
 21 22  2  0
 22 23  1  0
 23 24  2  0
 24 25  1  0
 25 26  2  0
 26 27  1  0
 27 28  2  0
 28 29  1  0
 29 30  2  0
 12  7  1  0
 20 15  1  0
 30 21  1  0
 29 24  1  0
  3 31  1  0
  4 32  1  0
  4 33  1  0
  8 34  1  0
  8 35  1  0
  9 36  1  6
 10 37  1  0
 11 38  1  0
 11 39  1  0
 12 40  1  1
 13 41  1  0
 13 42  1  0
 16 43  1  0
 17 44  1  0
 18 45  1  0
 20 46  1  0
 22 47  1  0
 23 48  1  0
 25 49  1  0
 26 50  1  0
 27 51  1  0
 28 52  1  0
M  END
>  <smiles>  (19) 
O=C(NCC(=O)N1C[C@H](O)C[C@H]1COc1cccnc1)c1ccc2ccccc2n1

>  <score_type>  (19) 
oracle

>  <origin>  (19) 
autodockgpu

>  <m_score__min__energy>  (19) 
-8.4399999999999995

>  <m_primary>  (19) 
energy

>  <rmsd>  (19) 
1.537567633684514

>  <m_score__min__rmsd>  (19) 
1.537567633684514

>  <meeko>  (19) 
{"free_energy": -8.25, "intermolecular_energy": -10.63, "internal_energy": -1.81, "cluster_size": 30, "cluster_id": 1, "rank_in_cluster": 4}

>  <energy>  (19) 
-7.68

>  <cluster_rmsd>  (19) 
1.72

>  <cluster>  (19) 
1

$$$$

     RDKit          3D

 52 55  0  0  0  0  0  0  0  0999 V2000
  140.6400   71.5640  221.3820 O   0  0  0  0  0  0  0  0  0  0  0  0
  140.1370   71.9790  222.4550 C   0  0  0  0  0  0  0  0  0  0  0  0
  139.6180   73.3020  222.4920 N   0  0  0  0  0  0  0  0  0  0  0  0
  139.5970   74.2280  221.4300 C   0  0  0  0  0  0  0  0  0  0  0  0
  140.7760   75.0600  221.2590 C   0  0  0  0  0  0  0  0  0  0  0  0
  140.9530   75.8630  222.2920 O   0  0  0  0  0  0  0  0  0  0  0  0
  141.7320   75.1950  220.2670 N   0  0  0  0  0  0  0  0  0  0  0  0
  142.3220   74.3780  219.2450 C   0  0  0  0  0  0  0  0  0  0  0  0
  143.8120   74.6970  219.4390 C   0  0  2  0  0  0  0  0  0  0  0  0
  144.1480   74.3910  220.7270 O   0  0  0  0  0  0  0  0  0  0  0  0
  143.7020   76.2260  219.3470 C   0  0  0  0  0  0  0  0  0  0  0  0
  142.4370   76.5130  220.0730 C   0  0  1  0  0  0  0  0  0  0  0  0
  141.4560   77.3220  219.2640 C   0  0  0  0  0  0  0  0  0  0  0  0
  140.8420   78.3720  219.8830 O   0  0  0  0  0  0  0  0  0  0  0  0
  141.2540   79.0970  220.9320 C   0  0  0  0  0  0  0  0  0  0  0  0
  141.4210   78.7030  222.2360 C   0  0  0  0  0  0  0  0  0  0  0  0
  141.8630   79.5800  223.2240 C   0  0  0  0  0  0  0  0  0  0  0  0
  142.1460   80.8790  222.9150 C   0  0  0  0  0  0  0  0  0  0  0  0
  141.9850   81.2740  221.6430 N   0  0  0  0  0  0  0  0  0  0  0  0
  141.5650   80.4540  220.6860 C   0  0  0  0  0  0  0  0  0  0  0  0
  140.0860   71.1200  223.6350 C   0  0  0  0  0  0  0  0  0  0  0  0
  139.5650   69.8490  223.5210 C   0  0  0  0  0  0  0  0  0  0  0  0
  139.4790   68.9740  224.5830 C   0  0  0  0  0  0  0  0  0  0  0  0
  139.9480   69.4300  225.8010 C   0  0  0  0  0  0  0  0  0  0  0  0
  139.8740   68.5670  226.8880 C   0  0  0  0  0  0  0  0  0  0  0  0
  140.3380   69.0100  228.1050 C   0  0  0  0  0  0  0  0  0  0  0  0
  140.8650   70.2890  228.2230 C   0  0  0  0  0  0  0  0  0  0  0  0
  140.9430   71.1550  227.1520 C   0  0  0  0  0  0  0  0  0  0  0  0
  140.4790   70.7140  225.9290 C   0  0  0  0  0  0  0  0  0  0  0  0
  140.5290   71.5110  224.8460 N   0  0  0  0  0  0  0  0  0  0  0  0
  139.2120   73.5970  223.4230 H   0  0  0  0  0  0  0  0  0  0  0  0
  139.4522   73.6616  220.4982 H   0  0  0  0  0  0  0  0  0  0  0  0
  138.7855   74.9284  221.6766 H   0  0  0  0  0  0  0  0  0  0  0  0
  142.1125   73.3108  219.4098 H   0  0  0  0  0  0  0  0  0  0  0  0
  141.9440   74.5763  218.2312 H   0  0  0  0  0  0  0  0  0  0  0  0
  144.5210   74.1945  218.7646 H   0  0  0  0  0  0  0  0  0  0  0  0
  143.5860   74.8740  221.3730 H   0  0  0  0  0  0  0  0  0  0  0  0
  144.5581   76.7143  219.8356 H   0  0  0  0  0  0  0  0  0  0  0  0
  143.7032   76.5998  218.3125 H   0  0  0  0  0  0  0  0  0  0  0  0
  142.7107   77.0557  220.9898 H   0  0  0  0  0  0  0  0  0  0  0  0
  141.9978   77.7232  218.3948 H   0  0  0  0  0  0  0  0  0  0  0  0
  140.6417   76.6208  219.0290 H   0  0  0  0  0  0  0  0  0  0  0  0
  141.1987   77.6611  222.5098 H   0  0  0  0  0  0  0  0  0  0  0  0
  141.9845   79.2241  224.2577 H   0  0  0  0  0  0  0  0  0  0  0  0
  142.4957   81.5812  223.6861 H   0  0  0  0  0  0  0  0  0  0  0  0
  141.4551   80.8455  219.6639 H   0  0  0  0  0  0  0  0  0  0  0  0
  139.2010   69.5175  222.5373 H   0  0  0  0  0  0  0  0  0  0  0  0
  139.0585   67.9642  224.4671 H   0  0  0  0  0  0  0  0  0  0  0  0
  139.4552   67.5558  226.7780 H   0  0  0  0  0  0  0  0  0  0  0  0
  140.2915   68.3509  228.9845 H   0  0  0  0  0  0  0  0  0  0  0  0
  141.2330   70.6233  229.2042 H   0  0  0  0  0  0  0  0  0  0  0  0
  141.3618   72.1654  227.2689 H   0  0  0  0  0  0  0  0  0  0  0  0
  1  2  2  0
  2  3  1  0
  3  4  1  0
  4  5  1  0
  5  6  2  0
  5  7  1  0
  7  8  1  0
  8  9  1  0
  9 10  1  0
  9 11  1  0
 11 12  1  0
 12 13  1  0
 13 14  1  0
 14 15  1  0
 15 16  2  0
 16 17  1  0
 17 18  2  0
 18 19  1  0
 19 20  2  0
  2 21  1  0
 21 22  2  0
 22 23  1  0
 23 24  2  0
 24 25  1  0
 25 26  2  0
 26 27  1  0
 27 28  2  0
 28 29  1  0
 29 30  2  0
 12  7  1  0
 20 15  1  0
 30 21  1  0
 29 24  1  0
  3 31  1  0
  4 32  1  0
  4 33  1  0
  8 34  1  0
  8 35  1  0
  9 36  1  6
 10 37  1  0
 11 38  1  0
 11 39  1  0
 12 40  1  1
 13 41  1  0
 13 42  1  0
 16 43  1  0
 17 44  1  0
 18 45  1  0
 20 46  1  0
 22 47  1  0
 23 48  1  0
 25 49  1  0
 26 50  1  0
 27 51  1  0
 28 52  1  0
M  END
>  <smiles>  (20) 
O=C(NCC(=O)N1C[C@H](O)C[C@H]1COc1cccnc1)c1ccc2ccccc2n1

>  <score_type>  (20) 
oracle

>  <origin>  (20) 
autodockgpu

>  <m_score__min__energy>  (20) 
-8.4399999999999995

>  <m_primary>  (20) 
energy

>  <rmsd>  (20) 
2.067434317571146

>  <m_score__min__rmsd>  (20) 
2.067434317571146

>  <meeko>  (20) 
{"free_energy": -8.07, "intermolecular_energy": -10.46, "internal_energy": -1.61, "cluster_size": 30, "cluster_id": 1, "rank_in_cluster": 8}

>  <energy>  (20) 
-7.59

>  <cluster_rmsd>  (20) 
1.32

>  <cluster>  (20) 
1

$$$$

     RDKit          3D

 52 55  0  0  0  0  0  0  0  0999 V2000
  137.2500   76.5040  222.1800 O   0  0  0  0  0  0  0  0  0  0  0  0
  138.4920   76.4970  222.3620 C   0  0  0  0  0  0  0  0  0  0  0  0
  139.1930   75.2710  222.1960 N   0  0  0  0  0  0  0  0  0  0  0  0
  138.6390   74.0260  221.8350 C   0  0  0  0  0  0  0  0  0  0  0  0
  139.4490   72.8480  222.0860 C   0  0  0  0  0  0  0  0  0  0  0  0
  140.6950   73.1720  222.3810 O   0  0  0  0  0  0  0  0  0  0  0  0
  139.2070   71.4850  222.0770 N   0  0  0  0  0  0  0  0  0  0  0  0
  139.9350   70.2800  221.7980 C   0  0  0  0  0  0  0  0  0  0  0  0
  138.9290   69.5290  220.9110 C   0  0  2  0  0  0  0  0  0  0  0  0
  138.6340   70.3210  219.8380 O   0  0  0  0  0  0  0  0  0  0  0  0
  137.7310   69.5950  221.8700 C   0  0  0  0  0  0  0  0  0  0  0  0
  137.8440   70.9590  222.4510 C   0  0  1  0  0  0  0  0  0  0  0  0
  137.8650   70.9640  223.9590 C   0  0  0  0  0  0  0  0  0  0  0  0
  139.0750   70.8200  224.5730 O   0  0  0  0  0  0  0  0  0  0  0  0
  139.5640   69.7720  225.2490 C   0  0  0  0  0  0  0  0  0  0  0  0
  140.6550   69.7190  226.0800 C   0  0  0  0  0  0  0  0  0  0  0  0
  141.0420   68.5450  226.7210 C   0  0  0  0  0  0  0  0  0  0  0  0
  140.3340   67.3930  226.5340 C   0  0  0  0  0  0  0  0  0  0  0  0
  139.2660   67.4340  225.7220 N   0  0  0  0  0  0  0  0  0  0  0  0
  138.8800   68.5440  225.1020 C   0  0  0  0  0  0  0  0  0  0  0  0
  139.1980   77.7190  222.7340 C   0  0  0  0  0  0  0  0  0  0  0  0
  138.4710   78.8270  223.1170 C   0  0  0  0  0  0  0  0  0  0  0  0
  139.0560   80.0200  223.4840 C   0  0  0  0  0  0  0  0  0  0  0  0
  140.4380   80.0680  223.4530 C   0  0  0  0  0  0  0  0  0  0  0  0
  141.0530   81.2590  223.8190 C   0  0  0  0  0  0  0  0  0  0  0  0
  142.4270   81.3190  223.7930 C   0  0  0  0  0  0  0  0  0  0  0  0
  143.1620   80.2060  223.4080 C   0  0  0  0  0  0  0  0  0  0  0  0
  142.5630   79.0180  223.0430 C   0  0  0  0  0  0  0  0  0  0  0  0
  141.1840   78.9540  223.0680 C   0  0  0  0  0  0  0  0  0  0  0  0
  140.5410   77.8240  222.7230 N   0  0  0  0  0  0  0  0  0  0  0  0
  140.2360   75.3260  222.3680 H   0  0  0  0  0  0  0  0  0  0  0  0
  137.6982   73.9070  222.3924 H   0  0  0  0  0  0  0  0  0  0  0  0
  138.5271   74.0688  220.7415 H   0  0  0  0  0  0  0  0  0  0  0  0
  140.8712   70.4890  221.2596 H   0  0  0  0  0  0  0  0  0  0  0  0
  140.2537   69.7250  222.6927 H   0  0  0  0  0  0  0  0  0  0  0  0
  139.2332   68.5389  220.5406 H   0  0  0  0  0  0  0  0  0  0  0  0
  139.0700   71.1990  219.9050 H   0  0  0  0  0  0  0  0  0  0  0  0
  136.7822   69.4738  221.3267 H   0  0  0  0  0  0  0  0  0  0  0  0
  137.7378   68.7983  222.6284 H   0  0  0  0  0  0  0  0  0  0  0  0
  136.9837   71.5367  222.0819 H   0  0  0  0  0  0  0  0  0  0  0  0
  137.4390   71.9222  224.2912 H   0  0  0  0  0  0  0  0  0  0  0  0
  137.2951   70.0693  224.2500 H   0  0  0  0  0  0  0  0  0  0  0  0
  141.2429   70.6339  226.2451 H   0  0  0  0  0  0  0  0  0  0  0  0
  141.9221   68.5459  227.3809 H   0  0  0  0  0  0  0  0  0  0  0  0
  140.6299   66.4589  227.0339 H   0  0  0  0  0  0  0  0  0  0  0  0
  137.9950   68.5057  224.4499 H   0  0  0  0  0  0  0  0  0  0  0  0
  137.3734   78.7552  223.1302 H   0  0  0  0  0  0  0  0  0  0  0  0
  138.4542   80.8898  223.7862 H   0  0  0  0  0  0  0  0  0  0  0  0
  140.4561   82.1319  224.1219 H   0  0  0  0  0  0  0  0  0  0  0  0
  142.9429   82.2481  224.0770 H   0  0  0  0  0  0  0  0  0  0  0  0
  144.2598   80.2736  223.3935 H   0  0  0  0  0  0  0  0  0  0  0  0
  143.1655   78.1485  222.7413 H   0  0  0  0  0  0  0  0  0  0  0  0
  1  2  2  0
  2  3  1  0
  3  4  1  0
  4  5  1  0
  5  6  2  0
  5  7  1  0
  7  8  1  0
  8  9  1  0
  9 10  1  0
  9 11  1  0
 11 12  1  0
 12 13  1  0
 13 14  1  0
 14 15  1  0
 15 16  2  0
 16 17  1  0
 17 18  2  0
 18 19  1  0
 19 20  2  0
  2 21  1  0
 21 22  2  0
 22 23  1  0
 23 24  2  0
 24 25  1  0
 25 26  2  0
 26 27  1  0
 27 28  2  0
 28 29  1  0
 29 30  2  0
 12  7  1  0
 20 15  1  0
 30 21  1  0
 29 24  1  0
  3 31  1  0
  4 32  1  0
  4 33  1  0
  8 34  1  0
  8 35  1  0
  9 36  1  6
 10 37  1  0
 11 38  1  0
 11 39  1  0
 12 40  1  1
 13 41  1  0
 13 42  1  0
 16 43  1  0
 17 44  1  0
 18 45  1  0
 20 46  1  0
 22 47  1  0
 23 48  1  0
 25 49  1  0
 26 50  1  0
 27 51  1  0
 28 52  1  0
M  END
>  <smiles>  (21) 
O=C(NCC(=O)N1C[C@H](O)C[C@H]1COc1cccnc1)c1ccc2ccccc2n1

>  <score_type>  (21) 
oracle

>  <origin>  (21) 
autodockgpu

>  <m_score__min__energy>  (21) 
-8.4399999999999995

>  <m_primary>  (21) 
energy

>  <rmsd>  (21) 
8.361118443449579

>  <m_score__min__rmsd>  (21) 
8.361118443449579

>  <meeko>  (21) 
{"free_energy": -7.25, "intermolecular_energy": -9.63, "internal_energy": -2.3, "cluster_size": 4, "cluster_id": 2, "rank_in_cluster": 4}

>  <energy>  (21) 
-7.53

>  <cluster_rmsd>  (21) 
1.96

>  <cluster>  (21) 
1

$$$$

     RDKit          3D

 52 55  0  0  0  0  0  0  0  0999 V2000
  138.4580   72.1060  222.6380 O   0  0  0  0  0  0  0  0  0  0  0  0
  139.6530   72.0120  223.0090 C   0  0  0  0  0  0  0  0  0  0  0  0
  140.6560   72.6480  222.2280 N   0  0  0  0  0  0  0  0  0  0  0  0
  140.4570   73.4000  221.0530 C   0  0  0  0  0  0  0  0  0  0  0  0
  141.4810   74.3730  220.7130 C   0  0  0  0  0  0  0  0  0  0  0  0
  142.6610   74.0170  221.1870 O   0  0  0  0  0  0  0  0  0  0  0  0
  141.4870   75.5700  220.0190 N   0  0  0  0  0  0  0  0  0  0  0  0
  141.3500   76.0090  218.6580 C   0  0  0  0  0  0  0  0  0  0  0  0
  142.5140   77.0060  218.5540 C   0  0  2  0  0  0  0  0  0  0  0  0
  143.6690   76.3460  218.8640 O   0  0  0  0  0  0  0  0  0  0  0  0
  142.1440   77.8720  219.7670 C   0  0  0  0  0  0  0  0  0  0  0  0
  141.6710   76.8710  220.7590 C   0  0  1  0  0  0  0  0  0  0  0  0
  140.2950   77.1680  221.2970 C   0  0  0  0  0  0  0  0  0  0  0  0
  140.2130   77.8140  222.4970 O   0  0  0  0  0  0  0  0  0  0  0  0
  140.8820   78.8910  222.9280 C   0  0  0  0  0  0  0  0  0  0  0  0
  142.2160   79.0100  223.2290 C   0  0  0  0  0  0  0  0  0  0  0  0
  142.7730   80.2080  223.6690 C   0  0  0  0  0  0  0  0  0  0  0  0
  141.9900   81.3170  223.8160 C   0  0  0  0  0  0  0  0  0  0  0  0
  140.6850   81.2100  223.5260 N   0  0  0  0  0  0  0  0  0  0  0  0
  140.1340   80.0770  223.1050 C   0  0  0  0  0  0  0  0  0  0  0  0
  140.0030   71.2660  224.2150 C   0  0  0  0  0  0  0  0  0  0  0  0
  140.7460   71.8850  225.1980 C   0  0  0  0  0  0  0  0  0  0  0  0
  141.1190   71.2560  226.3660 C   0  0  0  0  0  0  0  0  0  0  0  0
  140.7110   69.9440  226.5220 C   0  0  0  0  0  0  0  0  0  0  0  0
  141.0730   69.2870  227.6910 C   0  0  0  0  0  0  0  0  0  0  0  0
  140.6720   67.9820  227.8570 C   0  0  0  0  0  0  0  0  0  0  0  0
  139.9230   67.3550  226.8700 C   0  0  0  0  0  0  0  0  0  0  0  0
  139.5570   67.9970  225.7050 C   0  0  0  0  0  0  0  0  0  0  0  0
  139.9580   69.3070  225.5340 C   0  0  0  0  0  0  0  0  0  0  0  0
  139.6320   69.9870  224.4210 N   0  0  0  0  0  0  0  0  0  0  0  0
  141.6450   72.5300  222.5870 H   0  0  0  0  0  0  0  0  0  0  0  0
  140.3801   72.6921  220.2146 H   0  0  0  0  0  0  0  0  0  0  0  0
  139.5502   73.9930  221.2427 H   0  0  0  0  0  0  0  0  0  0  0  0
  141.4679   75.1750  217.9506 H   0  0  0  0  0  0  0  0  0  0  0  0
  140.3651   76.4345  218.4154 H   0  0  0  0  0  0  0  0  0  0  0  0
  142.6505   77.5126  217.5872 H   0  0  0  0  0  0  0  0  0  0  0  0
  143.5190   75.6520  219.5430 H   0  0  0  0  0  0  0  0  0  0  0  0
  143.0204   78.4193  220.1444 H   0  0  0  0  0  0  0  0  0  0  0  0
  141.3940   78.6431  219.5371 H   0  0  0  0  0  0  0  0  0  0  0  0
  142.4046   76.8631  221.5787 H   0  0  0  0  0  0  0  0  0  0  0  0
  139.7772   77.7899  220.5520 H   0  0  0  0  0  0  0  0  0  0  0  0
  139.8463   76.1803  221.4793 H   0  0  0  0  0  0  0  0  0  0  0  0
  142.8665   78.1298  223.1190 H   0  0  0  0  0  0  0  0  0  0  0  0
  143.8474   80.2612  223.8990 H   0  0  0  0  0  0  0  0  0  0  0  0
  142.4170   82.2699  224.1620 H   0  0  0  0  0  0  0  0  0  0  0  0
  139.0561   80.0613  222.8861 H   0  0  0  0  0  0  0  0  0  0  0  0
  141.0552   72.9291  225.0426 H   0  0  0  0  0  0  0  0  0  0  0  0
  141.7117   71.7718  227.1358 H   0  0  0  0  0  0  0  0  0  0  0  0
  141.6655   69.7976  228.4645 H   0  0  0  0  0  0  0  0  0  0  0  0
  140.9446   67.4349  228.7716 H   0  0  0  0  0  0  0  0  0  0  0  0
  139.6110   66.3112  227.0222 H   0  0  0  0  0  0  0  0  0  0  0  0
  138.9638   67.4809  224.9358 H   0  0  0  0  0  0  0  0  0  0  0  0
  1  2  2  0
  2  3  1  0
  3  4  1  0
  4  5  1  0
  5  6  2  0
  5  7  1  0
  7  8  1  0
  8  9  1  0
  9 10  1  0
  9 11  1  0
 11 12  1  0
 12 13  1  0
 13 14  1  0
 14 15  1  0
 15 16  2  0
 16 17  1  0
 17 18  2  0
 18 19  1  0
 19 20  2  0
  2 21  1  0
 21 22  2  0
 22 23  1  0
 23 24  2  0
 24 25  1  0
 25 26  2  0
 26 27  1  0
 27 28  2  0
 28 29  1  0
 29 30  2  0
 12  7  1  0
 20 15  1  0
 30 21  1  0
 29 24  1  0
  3 31  1  0
  4 32  1  0
  4 33  1  0
  8 34  1  0
  8 35  1  0
  9 36  1  6
 10 37  1  0
 11 38  1  0
 11 39  1  0
 12 40  1  1
 13 41  1  0
 13 42  1  0
 16 43  1  0
 17 44  1  0
 18 45  1  0
 20 46  1  0
 22 47  1  0
 23 48  1  0
 25 49  1  0
 26 50  1  0
 27 51  1  0
 28 52  1  0
M  END
>  <smiles>  (22) 
O=C(NCC(=O)N1C[C@H](O)C[C@H]1COc1cccnc1)c1ccc2ccccc2n1

>  <score_type>  (22) 
oracle

>  <origin>  (22) 
autodockgpu

>  <m_score__min__energy>  (22) 
-8.4399999999999995

>  <m_primary>  (22) 
energy

>  <rmsd>  (22) 
2.9136862727685866

>  <m_score__min__rmsd>  (22) 
2.9136862727685866

>  <meeko>  (22) 
{"free_energy": -7.25, "intermolecular_energy": -9.64, "internal_energy": -2.02, "cluster_size": 30, "cluster_id": 1, "rank_in_cluster": 27}

>  <energy>  (22) 
-7.46

>  <cluster_rmsd>  (22) 
1.52

>  <cluster>  (22) 
1

$$$$

     RDKit          3D

 52 55  0  0  0  0  0  0  0  0999 V2000
  139.3740   70.8440  221.4420 O   0  0  0  0  0  0  0  0  0  0  0  0
  139.5350   71.4660  222.5210 C   0  0  0  0  0  0  0  0  0  0  0  0
  139.5890   72.8860  222.4820 N   0  0  0  0  0  0  0  0  0  0  0  0
  139.4750   73.7020  221.3380 C   0  0  0  0  0  0  0  0  0  0  0  0
  140.3630   74.8480  221.2560 C   0  0  0  0  0  0  0  0  0  0  0  0
  140.2980   75.5880  222.3470 O   0  0  0  0  0  0  0  0  0  0  0  0
  141.2410   75.3270  220.2980 N   0  0  0  0  0  0  0  0  0  0  0  0
  141.8210   74.8690  219.0670 C   0  0  0  0  0  0  0  0  0  0  0  0
  143.2950   75.2500  219.2790 C   0  0  2  0  0  0  0  0  0  0  0  0
  143.7330   74.6390  220.4180 O   0  0  0  0  0  0  0  0  0  0  0  0
  143.0700   76.7330  219.6130 C   0  0  0  0  0  0  0  0  0  0  0  0
  141.8370   76.7040  220.4430 C   0  0  1  0  0  0  0  0  0  0  0  0
  140.7520   77.6140  219.9280 C   0  0  0  0  0  0  0  0  0  0  0  0
  140.6160   78.8340  220.5250 O   0  0  0  0  0  0  0  0  0  0  0  0
  141.1690   79.2910  221.6570 C   0  0  0  0  0  0  0  0  0  0  0  0
  141.2190   78.6930  222.8910 C   0  0  0  0  0  0  0  0  0  0  0  0
  141.8380   79.2970  223.9830 C   0  0  0  0  0  0  0  0  0  0  0  0
  142.4200   80.5240  223.8510 C   0  0  0  0  0  0  0  0  0  0  0  0
  142.3760   81.1180  222.6490 N   0  0  0  0  0  0  0  0  0  0  0  0
  141.7910   80.5590  221.5950 C   0  0  0  0  0  0  0  0  0  0  0  0
  139.6620   70.7460  223.7840 C   0  0  0  0  0  0  0  0  0  0  0  0
  139.1840   69.4560  223.8750 C   0  0  0  0  0  0  0  0  0  0  0  0
  139.2640   68.7040  225.0280 C   0  0  0  0  0  0  0  0  0  0  0  0
  139.8560   69.3080  226.1220 C   0  0  0  0  0  0  0  0  0  0  0  0
  139.9490   68.5720  227.2970 C   0  0  0  0  0  0  0  0  0  0  0  0
  140.5380   69.1620  228.3910 C   0  0  0  0  0  0  0  0  0  0  0  0
  141.0210   70.4600  228.3040 C   0  0  0  0  0  0  0  0  0  0  0  0
  140.9340   71.2010  227.1430 C   0  0  0  0  0  0  0  0  0  0  0  0
  140.3450   70.6130  226.0420 C   0  0  0  0  0  0  0  0  0  0  0  0
  140.2310   71.2830  224.8810 N   0  0  0  0  0  0  0  0  0  0  0  0
  139.7310   73.3540  223.4200 H   0  0  0  0  0  0  0  0  0  0  0  0
  139.6668   73.0697  220.4586 H   0  0  0  0  0  0  0  0  0  0  0  0
  138.4621   74.1279  221.3900 H   0  0  0  0  0  0  0  0  0  0  0  0
  141.6982   73.7831  218.9418 H   0  0  0  0  0  0  0  0  0  0  0  0
  141.3663   75.3001  218.1629 H   0  0  0  0  0  0  0  0  0  0  0  0
  143.9941   75.0098  218.4644 H   0  0  0  0  0  0  0  0  0  0  0  0
  143.3300   75.0370  221.2220 H   0  0  0  0  0  0  0  0  0  0  0  0
  143.9186   77.1441  220.1795 H   0  0  0  0  0  0  0  0  0  0  0  0
  142.9778   77.3697  218.7208 H   0  0  0  0  0  0  0  0  0  0  0  0
  142.1293   77.0004  221.4612 H   0  0  0  0  0  0  0  0  0  0  0  0
  140.9490   77.7899  218.8602 H   0  0  0  0  0  0  0  0  0  0  0  0
  139.8136   77.0860  220.1529 H   0  0  0  0  0  0  0  0  0  0  0  0
  140.7551   77.7043  223.0222 H   0  0  0  0  0  0  0  0  0  0  0  0
  141.8577   78.7829  224.9553 H   0  0  0  0  0  0  0  0  0  0  0  0
  142.9112   81.0121  224.7057 H   0  0  0  0  0  0  0  0  0  0  0  0
  141.7907   81.1030  220.6389 H   0  0  0  0  0  0  0  0  0  0  0  0
  138.7171   69.0058  222.9866 H   0  0  0  0  0  0  0  0  0  0  0  0
  138.8765   67.6756  225.0752 H   0  0  0  0  0  0  0  0  0  0  0  0
  139.5615   67.5439  227.3508 H   0  0  0  0  0  0  0  0  0  0  0  0
  140.6262   68.6047  229.3353 H   0  0  0  0  0  0  0  0  0  0  0  0
  141.4889   70.9135  229.1902 H   0  0  0  0  0  0  0  0  0  0  0  0
  141.3223   72.2291  227.0965 H   0  0  0  0  0  0  0  0  0  0  0  0
  1  2  2  0
  2  3  1  0
  3  4  1  0
  4  5  1  0
  5  6  2  0
  5  7  1  0
  7  8  1  0
  8  9  1  0
  9 10  1  0
  9 11  1  0
 11 12  1  0
 12 13  1  0
 13 14  1  0
 14 15  1  0
 15 16  2  0
 16 17  1  0
 17 18  2  0
 18 19  1  0
 19 20  2  0
  2 21  1  0
 21 22  2  0
 22 23  1  0
 23 24  2  0
 24 25  1  0
 25 26  2  0
 26 27  1  0
 27 28  2  0
 28 29  1  0
 29 30  2  0
 12  7  1  0
 20 15  1  0
 30 21  1  0
 29 24  1  0
  3 31  1  0
  4 32  1  0
  4 33  1  0
  8 34  1  0
  8 35  1  0
  9 36  1  6
 10 37  1  0
 11 38  1  0
 11 39  1  0
 12 40  1  1
 13 41  1  0
 13 42  1  0
 16 43  1  0
 17 44  1  0
 18 45  1  0
 20 46  1  0
 22 47  1  0
 23 48  1  0
 25 49  1  0
 26 50  1  0
 27 51  1  0
 28 52  1  0
M  END
>  <smiles>  (23) 
O=C(NCC(=O)N1C[C@H](O)C[C@H]1COc1cccnc1)c1ccc2ccccc2n1

>  <score_type>  (23) 
oracle

>  <origin>  (23) 
autodockgpu

>  <m_score__min__energy>  (23) 
-8.4399999999999995

>  <m_primary>  (23) 
energy

>  <rmsd>  (23) 
1.7135376305971979

>  <m_score__min__rmsd>  (23) 
1.7135376305971979

>  <meeko>  (23) 
{"free_energy": -8.42, "intermolecular_energy": -10.8, "internal_energy": -1.76, "cluster_size": 30, "cluster_id": 1, "rank_in_cluster": 2}

>  <energy>  (23) 
-7.45

>  <cluster_rmsd>  (23) 
1.91

>  <cluster>  (23) 
1

$$$$

     RDKit          3D

 52 55  0  0  0  0  0  0  0  0999 V2000
  141.6940   78.4890  217.3500 O   0  0  0  0  0  0  0  0  0  0  0  0
  142.0320   78.1760  218.5180 C   0  0  0  0  0  0  0  0  0  0  0  0
  142.5480   76.8720  218.7480 N   0  0  0  0  0  0  0  0  0  0  0  0
  142.7340   75.8590  217.7850 C   0  0  0  0  0  0  0  0  0  0  0  0
  143.6240   74.7680  218.1430 C   0  0  0  0  0  0  0  0  0  0  0  0
  144.1190   74.1780  217.0700 O   0  0  0  0  0  0  0  0  0  0  0  0
  144.0530   74.2190  219.3390 N   0  0  0  0  0  0  0  0  0  0  0  0
  145.0530   74.4910  220.3320 C   0  0  0  0  0  0  0  0  0  0  0  0
  145.6460   73.0890  220.5420 C   0  0  2  0  0  0  0  0  0  0  0  0
  146.0970   72.6330  219.3370 O   0  0  0  0  0  0  0  0  0  0  0  0
  144.3280   72.3590  220.8410 C   0  0  0  0  0  0  0  0  0  0  0  0
  143.3740   72.9930  219.8930 C   0  0  1  0  0  0  0  0  0  0  0  0
  142.1430   73.5440  220.5660 C   0  0  0  0  0  0  0  0  0  0  0  0
  142.1160   74.8820  220.8320 O   0  0  0  0  0  0  0  0  0  0  0  0
  141.0780   75.6600  221.1680 C   0  0  0  0  0  0  0  0  0  0  0  0
  140.8920   76.3980  222.3100 C   0  0  0  0  0  0  0  0  0  0  0  0
  139.7500   77.1670  222.5180 C   0  0  0  0  0  0  0  0  0  0  0  0
  138.7660   77.2060  221.5730 C   0  0  0  0  0  0  0  0  0  0  0  0
  138.9370   76.4870  220.4540 N   0  0  0  0  0  0  0  0  0  0  0  0
  140.0190   75.7470  220.2360 C   0  0  0  0  0  0  0  0  0  0  0  0
  141.8990   79.1330  219.6130 C   0  0  0  0  0  0  0  0  0  0  0  0
  141.4570   80.4100  219.3410 C   0  0  0  0  0  0  0  0  0  0  0  0
  141.3020   81.3750  220.3140 C   0  0  0  0  0  0  0  0  0  0  0  0
  141.6160   81.0050  221.6090 C   0  0  0  0  0  0  0  0  0  0  0  0
  141.4680   81.9590  222.6090 C   0  0  0  0  0  0  0  0  0  0  0  0
  141.7760   81.6020  223.9010 C   0  0  0  0  0  0  0  0  0  0  0  0
  142.2210   80.3170  224.1790 C   0  0  0  0  0  0  0  0  0  0  0  0
  142.3720   79.3620  223.1950 C   0  0  0  0  0  0  0  0  0  0  0  0
  142.0630   79.7150  221.8970 C   0  0  0  0  0  0  0  0  0  0  0  0
  142.1890   78.8290  220.8930 N   0  0  0  0  0  0  0  0  0  0  0  0
  142.8110   76.6650  219.7520 H   0  0  0  0  0  0  0  0  0  0  0  0
  141.7477   75.4247  217.5646 H   0  0  0  0  0  0  0  0  0  0  0  0
  143.2198   76.3581  216.9336 H   0  0  0  0  0  0  0  0  0  0  0  0
  145.8093   75.1981  219.9606 H   0  0  0  0  0  0  0  0  0  0  0  0
  144.6665   74.9619  221.2479 H   0  0  0  0  0  0  0  0  0  0  0  0
  146.4596   72.9972  221.2766 H   0  0  0  0  0  0  0  0  0  0  0  0
  145.6660   73.1000  218.5870 H   0  0  0  0  0  0  0  0  0  0  0  0
  144.4204   71.2802  220.6471 H   0  0  0  0  0  0  0  0  0  0  0  0
  144.0148   72.4414  221.8923 H   0  0  0  0  0  0  0  0  0  0  0  0
  143.0921   72.2228  219.1599 H   0  0  0  0  0  0  0  0  0  0  0  0
  141.2841   73.3198  219.9164 H   0  0  0  0  0  0  0  0  0  0  0  0
  142.1241   73.0614  221.5543 H   0  0  0  0  0  0  0  0  0  0  0  0
  141.6708   76.3815  223.0867 H   0  0  0  0  0  0  0  0  0  0  0  0
  139.6405   77.7452  223.4474 H   0  0  0  0  0  0  0  0  0  0  0  0
  137.8591   77.8097  221.7248 H   0  0  0  0  0  0  0  0  0  0  0  0
  140.0932   75.1813  219.2955 H   0  0  0  0  0  0  0  0  0  0  0  0
  141.2168   80.6714  218.2999 H   0  0  0  0  0  0  0  0  0  0  0  0
  140.9467   82.3876  220.0723 H   0  0  0  0  0  0  0  0  0  0  0  0
  141.1137   82.9733  222.3731 H   0  0  0  0  0  0  0  0  0  0  0  0
  141.6696   82.3350  224.7142 H   0  0  0  0  0  0  0  0  0  0  0  0
  142.4613   80.0512  225.2190 H   0  0  0  0  0  0  0  0  0  0  0  0
  142.7279   78.3498  223.4376 H   0  0  0  0  0  0  0  0  0  0  0  0
  1  2  2  0
  2  3  1  0
  3  4  1  0
  4  5  1  0
  5  6  2  0
  5  7  1  0
  7  8  1  0
  8  9  1  0
  9 10  1  0
  9 11  1  0
 11 12  1  0
 12 13  1  0
 13 14  1  0
 14 15  1  0
 15 16  2  0
 16 17  1  0
 17 18  2  0
 18 19  1  0
 19 20  2  0
  2 21  1  0
 21 22  2  0
 22 23  1  0
 23 24  2  0
 24 25  1  0
 25 26  2  0
 26 27  1  0
 27 28  2  0
 28 29  1  0
 29 30  2  0
 12  7  1  0
 20 15  1  0
 30 21  1  0
 29 24  1  0
  3 31  1  0
  4 32  1  0
  4 33  1  0
  8 34  1  0
  8 35  1  0
  9 36  1  1
 10 37  1  0
 11 38  1  0
 11 39  1  0
 12 40  1  6
 13 41  1  0
 13 42  1  0
 16 43  1  0
 17 44  1  0
 18 45  1  0
 20 46  1  0
 22 47  1  0
 23 48  1  0
 25 49  1  0
 26 50  1  0
 27 51  1  0
 28 52  1  0
M  END
>  <smiles>  (24) 
O=C(NCC(=O)N1C[C@H](O)C[C@H]1COc1cccnc1)c1ccc2ccccc2n1

>  <score_type>  (24) 
oracle

>  <origin>  (24) 
autodockgpu

>  <m_score__min__energy>  (24) 
-8.4399999999999995

>  <m_primary>  (24) 
energy

>  <rmsd>  (24) 
9.164897132401071

>  <m_score__min__rmsd>  (24) 
9.164897132401071

>  <meeko>  (24) 
{"free_energy": -5.79, "intermolecular_energy": -8.17, "internal_energy": -3.84, "cluster_size": 3, "cluster_id": 5, "rank_in_cluster": 3}

>  <energy>  (24) 
-7.32

>  <cluster_rmsd>  (24) 
1.53

>  <cluster>  (24) 
1

$$$$

     RDKit          3D

 52 55  0  0  0  0  0  0  0  0999 V2000
  140.6250   71.4930  221.3780 O   0  0  0  0  0  0  0  0  0  0  0  0
  140.2260   72.0530  222.4280 C   0  0  0  0  0  0  0  0  0  0  0  0
  139.8470   73.4220  222.3620 N   0  0  0  0  0  0  0  0  0  0  0  0
  139.8620   74.2460  221.2190 C   0  0  0  0  0  0  0  0  0  0  0  0
  139.6570   75.6680  221.4290 C   0  0  0  0  0  0  0  0  0  0  0  0
  138.3720   75.9730  221.4420 O   0  0  0  0  0  0  0  0  0  0  0  0
  140.4980   76.7520  221.6110 N   0  0  0  0  0  0  0  0  0  0  0  0
  141.0740   77.4750  222.7090 C   0  0  0  0  0  0  0  0  0  0  0  0
  140.8140   78.9260  222.2730 C   0  0  2  0  0  0  0  0  0  0  0  0
  139.4700   79.0790  222.0860 O   0  0  0  0  0  0  0  0  0  0  0  0
  141.4600   78.8340  220.8820 C   0  0  0  0  0  0  0  0  0  0  0  0
  141.0570   77.4820  220.4160 C   0  0  1  0  0  0  0  0  0  0  0  0
  142.2220   76.6250  219.9920 C   0  0  0  0  0  0  0  0  0  0  0  0
  142.1600   75.2920  220.2750 O   0  0  0  0  0  0  0  0  0  0  0  0
  143.1560   74.4130  220.4480 C   0  0  0  0  0  0  0  0  0  0  0  0
  143.0810   73.0580  220.6530 C   0  0  0  0  0  0  0  0  0  0  0  0
  144.2170   72.2690  220.8160 C   0  0  0  0  0  0  0  0  0  0  0  0
  145.4590   72.8340  220.7770 C   0  0  0  0  0  0  0  0  0  0  0  0
  145.5430   74.1580  220.5780 N   0  0  0  0  0  0  0  0  0  0  0  0
  144.4720   74.9290  220.4200 C   0  0  0  0  0  0  0  0  0  0  0  0
  140.1540   71.3150  223.6860 C   0  0  0  0  0  0  0  0  0  0  0  0
  139.6150   70.0460  223.6920 C   0  0  0  0  0  0  0  0  0  0  0  0
  139.5080   69.2810  224.8340 C   0  0  0  0  0  0  0  0  0  0  0  0
  139.9750   69.8470  226.0060 C   0  0  0  0  0  0  0  0  0  0  0  0
  139.8790   69.0960  227.1710 C   0  0  0  0  0  0  0  0  0  0  0  0
  140.3410   69.6480  228.3430 C   0  0  0  0  0  0  0  0  0  0  0  0
  140.8850   70.9250  228.3400 C   0  0  0  0  0  0  0  0  0  0  0  0
  140.9850   71.6810  227.1900 C   0  0  0  0  0  0  0  0  0  0  0  0
  140.5230   71.1300  226.0120 C   0  0  0  0  0  0  0  0  0  0  0  0
  140.5930   71.8160  224.8570 N   0  0  0  0  0  0  0  0  0  0  0  0
  139.5250   73.8410  223.2790 H   0  0  0  0  0  0  0  0  0  0  0  0
  140.8402   74.1201  220.7319 H   0  0  0  0  0  0  0  0  0  0  0  0
  138.9999   73.9185  220.6193 H   0  0  0  0  0  0  0  0  0  0  0  0
  140.5674   77.2410  223.6569 H   0  0  0  0  0  0  0  0  0  0  0  0
  142.1317   77.2416  222.9007 H   0  0  0  0  0  0  0  0  0  0  0  0
  141.1653   79.7199  222.9484 H   0  0  0  0  0  0  0  0  0  0  0  0
  139.0270   78.2180  221.9160 H   0  0  0  0  0  0  0  0  0  0  0  0
  141.0707   79.6153  220.2127 H   0  0  0  0  0  0  0  0  0  0  0  0
  142.5502   78.9797  220.8995 H   0  0  0  0  0  0  0  0  0  0  0  0
  140.3675   77.6282  219.5715 H   0  0  0  0  0  0  0  0  0  0  0  0
  142.3253   76.7257  218.9015 H   0  0  0  0  0  0  0  0  0  0  0  0
  143.0726   76.9971  220.5820 H   0  0  0  0  0  0  0  0  0  0  0  0
  142.0912   72.5795  220.6898 H   0  0  0  0  0  0  0  0  0  0  0  0
  144.1129   71.1858  220.9769 H   0  0  0  0  0  0  0  0  0  0  0  0
  146.3640   72.2219  220.9049 H   0  0  0  0  0  0  0  0  0  0  0  0
  144.6147   76.0081  220.2616 H   0  0  0  0  0  0  0  0  0  0  0  0
  139.2539   69.6247  222.7422 H   0  0  0  0  0  0  0  0  0  0  0  0
  139.0729   68.2709  224.8138 H   0  0  0  0  0  0  0  0  0  0  0  0
  139.4445   68.0856  227.1564 H   0  0  0  0  0  0  0  0  0  0  0  0
  140.2795   69.0780  229.2818 H   0  0  0  0  0  0  0  0  0  0  0  0
  141.2491   71.3491  229.2874 H   0  0  0  0  0  0  0  0  0  0  0  0
  141.4194   72.6914  227.2115 H   0  0  0  0  0  0  0  0  0  0  0  0
  1  2  2  0
  2  3  1  0
  3  4  1  0
  4  5  1  0
  5  6  2  0
  5  7  1  0
  7  8  1  0
  8  9  1  0
  9 10  1  0
  9 11  1  0
 11 12  1  0
 12 13  1  0
 13 14  1  0
 14 15  1  0
 15 16  2  0
 16 17  1  0
 17 18  2  0
 18 19  1  0
 19 20  2  0
  2 21  1  0
 21 22  2  0
 22 23  1  0
 23 24  2  0
 24 25  1  0
 25 26  2  0
 26 27  1  0
 27 28  2  0
 28 29  1  0
 29 30  2  0
 12  7  1  0
 20 15  1  0
 30 21  1  0
 29 24  1  0
  3 31  1  0
  4 32  1  0
  4 33  1  0
  8 34  1  0
  8 35  1  0
  9 36  1  1
 10 37  1  0
 11 38  1  0
 11 39  1  0
 12 40  1  6
 13 41  1  0
 13 42  1  0
 16 43  1  0
 17 44  1  0
 18 45  1  0
 20 46  1  0
 22 47  1  0
 23 48  1  0
 25 49  1  0
 26 50  1  0
 27 51  1  0
 28 52  1  0
M  END
>  <smiles>  (25) 
O=C(NCC(=O)N1C[C@H](O)C[C@H]1COc1cccnc1)c1ccc2ccccc2n1

>  <score_type>  (25) 
oracle

>  <origin>  (25) 
autodockgpu

>  <m_score__min__energy>  (25) 
-8.4399999999999995

>  <m_primary>  (25) 
energy

>  <rmsd>  (25) 
2.7655596857236318

>  <m_score__min__rmsd>  (25) 
2.7655596857236318

>  <meeko>  (25) 
{"free_energy": -7.7, "intermolecular_energy": -10.09, "internal_energy": -2.09, "cluster_size": 9, "cluster_id": 3, "rank_in_cluster": 3}

>  <energy>  (25) 
-7.28

>  <cluster_rmsd>  (25) 
1.62

>  <cluster>  (25) 
1

$$$$

     RDKit          3D

 52 55  0  0  0  0  0  0  0  0999 V2000
  139.5080   70.8090  221.7590 O   0  0  0  0  0  0  0  0  0  0  0  0
  140.0260   71.5390  222.6380 C   0  0  0  0  0  0  0  0  0  0  0  0
  140.4660   72.8390  222.2660 N   0  0  0  0  0  0  0  0  0  0  0  0
  140.3800   73.4220  220.9860 C   0  0  0  0  0  0  0  0  0  0  0  0
  141.0450   74.7000  220.7990 C   0  0  0  0  0  0  0  0  0  0  0  0
  141.1790   75.3460  221.9420 O   0  0  0  0  0  0  0  0  0  0  0  0
  141.5540   75.3760  219.7030 N   0  0  0  0  0  0  0  0  0  0  0  0
  141.7240   75.1420  218.2970 C   0  0  0  0  0  0  0  0  0  0  0  0
  143.1740   75.6090  218.0960 C   0  0  2  0  0  0  0  0  0  0  0  0
  143.9740   74.8830  218.9310 O   0  0  0  0  0  0  0  0  0  0  0  0
  143.0200   77.0070  218.7120 C   0  0  0  0  0  0  0  0  0  0  0  0
  142.1190   76.7640  219.8700 C   0  0  1  0  0  0  0  0  0  0  0  0
  140.8970   77.6450  219.8690 C   0  0  0  0  0  0  0  0  0  0  0  0
  141.0170   78.8910  220.4140 O   0  0  0  0  0  0  0  0  0  0  0  0
  141.4720   79.2480  221.6230 C   0  0  0  0  0  0  0  0  0  0  0  0
  141.3230   78.5990  222.8230 C   0  0  0  0  0  0  0  0  0  0  0  0
  141.8600   79.0980  224.0060 C   0  0  0  0  0  0  0  0  0  0  0  0
  142.5610   80.2690  224.0040 C   0  0  0  0  0  0  0  0  0  0  0  0
  142.7110   80.9120  222.8360 N   0  0  0  0  0  0  0  0  0  0  0  0
  142.2070   80.4530  221.6960 C   0  0  0  0  0  0  0  0  0  0  0  0
  140.1730   71.0630  224.0100 C   0  0  0  0  0  0  0  0  0  0  0  0
  140.7440   71.8910  224.9530 C   0  0  0  0  0  0  0  0  0  0  0  0
  140.9210   71.5210  226.2700 C   0  0  0  0  0  0  0  0  0  0  0  0
  140.4910   70.2550  226.6210 C   0  0  0  0  0  0  0  0  0  0  0  0
  140.6570   69.8580  227.9430 C   0  0  0  0  0  0  0  0  0  0  0  0
  140.2330   68.6000  228.3040 C   0  0  0  0  0  0  0  0  0  0  0  0
  139.6560   67.7640  227.3580 C   0  0  0  0  0  0  0  0  0  0  0  0
  139.4870   68.1470  226.0430 C   0  0  0  0  0  0  0  0  0  0  0  0
  139.9100   69.4080  225.6760 C   0  0  0  0  0  0  0  0  0  0  0  0
  139.7720   69.8400  224.4100 N   0  0  0  0  0  0  0  0  0  0  0  0
  140.8990   73.4050  223.0480 H   0  0  0  0  0  0  0  0  0  0  0  0
  140.8164   72.7123  220.2678 H   0  0  0  0  0  0  0  0  0  0  0  0
  139.3103   73.6314  220.8380 H   0  0  0  0  0  0  0  0  0  0  0  0
  141.6040   74.0775  218.0471 H   0  0  0  0  0  0  0  0  0  0  0  0
  140.9894   75.6557  217.6595 H   0  0  0  0  0  0  0  0  0  0  0  0
  143.5823   75.5423  217.0767 H   0  0  0  0  0  0  0  0  0  0  0  0
  144.9010   74.8490  218.6070 H   0  0  0  0  0  0  0  0  0  0  0  0
  143.9916   77.4025  219.0430 H   0  0  0  0  0  0  0  0  0  0  0  0
  142.6262   77.7518  218.0047 H   0  0  0  0  0  0  0  0  0  0  0  0
  142.7118   76.9401  220.7797 H   0  0  0  0  0  0  0  0  0  0  0  0
  140.5835   77.7721  218.8223 H   0  0  0  0  0  0  0  0  0  0  0  0
  140.1761   77.1245  220.5166 H   0  0  0  0  0  0  0  0  0  0  0  0
  140.7610   77.6538  222.8507 H   0  0  0  0  0  0  0  0  0  0  0  0
  141.7188   78.5461  224.9470 H   0  0  0  0  0  0  0  0  0  0  0  0
  142.9903   80.6736  224.9324 H   0  0  0  0  0  0  0  0  0  0  0  0
  142.3676   81.0321  220.7747 H   0  0  0  0  0  0  0  0  0  0  0  0
  141.0736   72.8929  224.6407 H   0  0  0  0  0  0  0  0  0  0  0  0
  141.3811   72.1991  227.0038 H   0  0  0  0  0  0  0  0  0  0  0  0
  141.1155   70.5323  228.6813 H   0  0  0  0  0  0  0  0  0  0  0  0
  140.3512   68.2566  229.3423 H   0  0  0  0  0  0  0  0  0  0  0  0
  139.3222   66.7624  227.6669 H   0  0  0  0  0  0  0  0  0  0  0  0
  139.0288   67.4674  225.3094 H   0  0  0  0  0  0  0  0  0  0  0  0
  1  2  2  0
  2  3  1  0
  3  4  1  0
  4  5  1  0
  5  6  2  0
  5  7  1  0
  7  8  1  0
  8  9  1  0
  9 10  1  0
  9 11  1  0
 11 12  1  0
 12 13  1  0
 13 14  1  0
 14 15  1  0
 15 16  2  0
 16 17  1  0
 17 18  2  0
 18 19  1  0
 19 20  2  0
  2 21  1  0
 21 22  2  0
 22 23  1  0
 23 24  2  0
 24 25  1  0
 25 26  2  0
 26 27  1  0
 27 28  2  0
 28 29  1  0
 29 30  2  0
 12  7  1  0
 20 15  1  0
 30 21  1  0
 29 24  1  0
  3 31  1  0
  4 32  1  0
  4 33  1  0
  8 34  1  0
  8 35  1  0
  9 36  1  6
 10 37  1  0
 11 38  1  0
 11 39  1  0
 12 40  1  1
 13 41  1  0
 13 42  1  0
 16 43  1  0
 17 44  1  0
 18 45  1  0
 20 46  1  0
 22 47  1  0
 23 48  1  0
 25 49  1  0
 26 50  1  0
 27 51  1  0
 28 52  1  0
M  END
>  <smiles>  (26) 
O=C(NCC(=O)N1C[C@H](O)C[C@H]1COc1cccnc1)c1ccc2ccccc2n1

>  <score_type>  (26) 
oracle

>  <origin>  (26) 
autodockgpu

>  <m_score__min__energy>  (26) 
-8.4399999999999995

>  <m_primary>  (26) 
energy

>  <rmsd>  (26) 
2.8452086858517567

>  <m_score__min__rmsd>  (26) 
2.8452086858517567

>  <meeko>  (26) 
{"free_energy": -7.86, "intermolecular_energy": -10.25, "internal_energy": -1.77, "cluster_size": 30, "cluster_id": 1, "rank_in_cluster": 15}

>  <energy>  (26) 
-7.27

>  <cluster_rmsd>  (26) 
1.47

>  <cluster>  (26) 
1

$$$$

     RDKit          3D

 52 55  0  0  0  0  0  0  0  0999 V2000
  139.2560   71.2820  221.3610 O   0  0  0  0  0  0  0  0  0  0  0  0
  138.7800   71.6400  222.4660 C   0  0  0  0  0  0  0  0  0  0  0  0
  137.7820   72.6520  222.4780 N   0  0  0  0  0  0  0  0  0  0  0  0
  137.2440   73.3170  221.3580 C   0  0  0  0  0  0  0  0  0  0  0  0
  137.8460   74.5890  220.9960 C   0  0  0  0  0  0  0  0  0  0  0  0
  136.9400   75.4430  220.5570 O   0  0  0  0  0  0  0  0  0  0  0  0
  139.1370   75.0880  221.0070 N   0  0  0  0  0  0  0  0  0  0  0  0
  140.3280   74.9660  220.2150 C   0  0  0  0  0  0  0  0  0  0  0  0
  141.3870   74.7580  221.3100 C   0  0  2  0  0  0  0  0  0  0  0  0
  141.0310   73.6620  222.0420 O   0  0  0  0  0  0  0  0  0  0  0  0
  141.0490   75.9980  222.1510 C   0  0  0  0  0  0  0  0  0  0  0  0
  139.5650   76.0500  222.0860 C   0  0  1  0  0  0  0  0  0  0  0  0
  139.0350   77.3770  221.6070 C   0  0  0  0  0  0  0  0  0  0  0  0
  139.3100   78.4770  222.3660 O   0  0  0  0  0  0  0  0  0  0  0  0
  140.4770   79.1090  222.5530 C   0  0  0  0  0  0  0  0  0  0  0  0
  141.2150   79.8350  221.6520 C   0  0  0  0  0  0  0  0  0  0  0  0
  142.4200   80.4410  221.9980 C   0  0  0  0  0  0  0  0  0  0  0  0
  142.9070   80.3270  223.2680 C   0  0  0  0  0  0  0  0  0  0  0  0
  142.1940   79.6190  224.1560 N   0  0  0  0  0  0  0  0  0  0  0  0
  141.0430   79.0320  223.8460 C   0  0  0  0  0  0  0  0  0  0  0  0
  139.2420   71.0280  223.7090 C   0  0  0  0  0  0  0  0  0  0  0  0
  139.0820   69.6710  223.8920 C   0  0  0  0  0  0  0  0  0  0  0  0
  139.4890   69.0140  225.0340 C   0  0  0  0  0  0  0  0  0  0  0  0
  140.0810   69.7860  226.0170 C   0  0  0  0  0  0  0  0  0  0  0  0
  140.5010   69.1480  227.1770 C   0  0  0  0  0  0  0  0  0  0  0  0
  141.0910   69.9060  228.1620 C   0  0  0  0  0  0  0  0  0  0  0  0
  141.2540   71.2720  227.9810 C   0  0  0  0  0  0  0  0  0  0  0  0
  140.8410   71.9180  226.8330 C   0  0  0  0  0  0  0  0  0  0  0  0
  140.2490   71.1600  225.8420 C   0  0  0  0  0  0  0  0  0  0  0  0
  139.8260   71.7310  224.7000 N   0  0  0  0  0  0  0  0  0  0  0  0
  137.4230   72.9150  223.4380 H   0  0  0  0  0  0  0  0  0  0  0  0
  137.3431   72.6445  220.4932 H   0  0  0  0  0  0  0  0  0  0  0  0
  136.2086   73.5598  221.6391 H   0  0  0  0  0  0  0  0  0  0  0  0
  140.2746   74.1029  219.5352 H   0  0  0  0  0  0  0  0  0  0  0  0
  140.5222   75.8224  219.5525 H   0  0  0  0  0  0  0  0  0  0  0  0
  142.4286   74.6335  220.9791 H   0  0  0  0  0  0  0  0  0  0  0  0
  140.3860   73.0970  221.5610 H   0  0  0  0  0  0  0  0  0  0  0  0
  141.3956   75.8790  223.1882 H   0  0  0  0  0  0  0  0  0  0  0  0
  141.5319   76.9158  221.7845 H   0  0  0  0  0  0  0  0  0  0  0  0
  139.1935   75.8376  223.0994 H   0  0  0  0  0  0  0  0  0  0  0  0
  139.4518   77.5558  220.6049 H   0  0  0  0  0  0  0  0  0  0  0  0
  137.9407   77.2735  221.6503 H   0  0  0  0  0  0  0  0  0  0  0  0
  140.8423   79.9417  220.6226 H   0  0  0  0  0  0  0  0  0  0  0  0
  142.9815   81.0137  221.2451 H   0  0  0  0  0  0  0  0  0  0  0  0
  143.8568   80.8021  223.5547 H   0  0  0  0  0  0  0  0  0  0  0  0
  140.5109   78.4652  224.6242 H   0  0  0  0  0  0  0  0  0  0  0  0
  138.6080   69.0856  223.0904 H   0  0  0  0  0  0  0  0  0  0  0  0
  139.3497   67.9298  225.1570 H   0  0  0  0  0  0  0  0  0  0  0  0
  140.3653   68.0639  227.3050 H   0  0  0  0  0  0  0  0  0  0  0  0
  141.4333   69.4294  229.0924 H   0  0  0  0  0  0  0  0  0  0  0  0
  141.7287   71.8606  228.7799 H   0  0  0  0  0  0  0  0  0  0  0  0
  140.9792   73.0025  226.7114 H   0  0  0  0  0  0  0  0  0  0  0  0
  1  2  2  0
  2  3  1  0
  3  4  1  0
  4  5  1  0
  5  6  2  0
  5  7  1  0
  7  8  1  0
  8  9  1  0
  9 10  1  0
  9 11  1  0
 11 12  1  0
 12 13  1  0
 13 14  1  0
 14 15  1  0
 15 16  2  0
 16 17  1  0
 17 18  2  0
 18 19  1  0
 19 20  2  0
  2 21  1  0
 21 22  2  0
 22 23  1  0
 23 24  2  0
 24 25  1  0
 25 26  2  0
 26 27  1  0
 27 28  2  0
 28 29  1  0
 29 30  2  0
 12  7  1  0
 20 15  1  0
 30 21  1  0
 29 24  1  0
  3 31  1  0
  4 32  1  0
  4 33  1  0
  8 34  1  0
  8 35  1  0
  9 36  1  6
 10 37  1  0
 11 38  1  0
 11 39  1  0
 12 40  1  1
 13 41  1  0
 13 42  1  0
 16 43  1  0
 17 44  1  0
 18 45  1  0
 20 46  1  0
 22 47  1  0
 23 48  1  0
 25 49  1  0
 26 50  1  0
 27 51  1  0
 28 52  1  0
M  END
>  <smiles>  (27) 
O=C(NCC(=O)N1C[C@H](O)C[C@H]1COc1cccnc1)c1ccc2ccccc2n1

>  <score_type>  (27) 
oracle

>  <origin>  (27) 
autodockgpu

>  <m_score__min__energy>  (27) 
-8.4399999999999995

>  <m_primary>  (27) 
energy

>  <rmsd>  (27) 
2.2215786548822565

>  <m_score__min__rmsd>  (27) 
2.2215786548822565

>  <meeko>  (27) 
{"free_energy": -7.46, "intermolecular_energy": -9.85, "internal_energy": -2.29, "cluster_size": 30, "cluster_id": 1, "rank_in_cluster": 22}

>  <energy>  (27) 
-7.25

>  <cluster_rmsd>  (27) 
1.36

>  <cluster>  (27) 
1

$$$$

     RDKit          3D

 52 55  0  0  0  0  0  0  0  0999 V2000
  140.7660   71.0550  221.5970 O   0  0  0  0  0  0  0  0  0  0  0  0
  140.3470   71.7110  222.5830 C   0  0  0  0  0  0  0  0  0  0  0  0
  139.9140   73.0480  222.3720 N   0  0  0  0  0  0  0  0  0  0  0  0
  139.8950   73.7430  221.1450 C   0  0  0  0  0  0  0  0  0  0  0  0
  140.4290   75.0940  221.1470 C   0  0  0  0  0  0  0  0  0  0  0  0
  140.3020   75.6620  222.3320 O   0  0  0  0  0  0  0  0  0  0  0  0
  141.0250   75.9020  220.1930 N   0  0  0  0  0  0  0  0  0  0  0  0
  141.9370   77.0100  220.1620 C   0  0  0  0  0  0  0  0  0  0  0  0
  141.2240   77.9460  219.1730 C   0  0  2  0  0  0  0  0  0  0  0  0
  139.9740   78.2050  219.6570 O   0  0  0  0  0  0  0  0  0  0  0  0
  141.0700   76.9400  218.0230 C   0  0  0  0  0  0  0  0  0  0  0  0
  140.7440   75.6740  218.7300 C   0  0  1  0  0  0  0  0  0  0  0  0
  141.6630   74.5350  218.3660 C   0  0  0  0  0  0  0  0  0  0  0  0
  143.0040   74.7860  218.3570 O   0  0  0  0  0  0  0  0  0  0  0  0
  143.9750   74.2350  219.0970 C   0  0  0  0  0  0  0  0  0  0  0  0
  144.2100   74.3670  220.4420 C   0  0  0  0  0  0  0  0  0  0  0  0
  145.2700   73.7240  221.0760 C   0  0  0  0  0  0  0  0  0  0  0  0
  146.1200   72.9310  220.3610 C   0  0  0  0  0  0  0  0  0  0  0  0
  145.9000   72.7960  219.0450 N   0  0  0  0  0  0  0  0  0  0  0  0
  144.8950   73.4010  218.4210 C   0  0  0  0  0  0  0  0  0  0  0  0
  140.3060   71.1110  223.9130 C   0  0  0  0  0  0  0  0  0  0  0  0
  140.6920   71.8620  225.0030 C   0  0  0  0  0  0  0  0  0  0  0  0
  140.6840   71.3740  226.2920 C   0  0  0  0  0  0  0  0  0  0  0  0
  140.2630   70.0680  226.4590 C   0  0  0  0  0  0  0  0  0  0  0  0
  140.2450   69.5530  227.7500 C   0  0  0  0  0  0  0  0  0  0  0  0
  139.8260   68.2550  227.9270 C   0  0  0  0  0  0  0  0  0  0  0  0
  139.4360   67.4950  226.8330 C   0  0  0  0  0  0  0  0  0  0  0  0
  139.4500   67.9960  225.5470 C   0  0  0  0  0  0  0  0  0  0  0  0
  139.8680   69.2980  225.3640 C   0  0  0  0  0  0  0  0  0  0  0  0
  139.9040   69.8440  224.1350 N   0  0  0  0  0  0  0  0  0  0  0  0
  139.5770   73.5520  223.2390 H   0  0  0  0  0  0  0  0  0  0  0  0
  140.4792   73.1557  220.4213 H   0  0  0  0  0  0  0  0  0  0  0  0
  138.8296   73.8559  220.8957 H   0  0  0  0  0  0  0  0  0  0  0  0
  142.0430   77.4744  221.1535 H   0  0  0  0  0  0  0  0  0  0  0  0
  142.9652   76.7443  219.8754 H   0  0  0  0  0  0  0  0  0  0  0  0
  141.7164   78.9042  218.9508 H   0  0  0  0  0  0  0  0  0  0  0  0
  139.7590   77.6360  220.4300 H   0  0  0  0  0  0  0  0  0  0  0  0
  140.2557   77.2356  217.3451 H   0  0  0  0  0  0  0  0  0  0  0  0
  141.9657   76.8650  217.3889 H   0  0  0  0  0  0  0  0  0  0  0  0
  139.7056   75.4205  218.4705 H   0  0  0  0  0  0  0  0  0  0  0  0
  141.4844   73.7241  219.0874 H   0  0  0  0  0  0  0  0  0  0  0  0
  141.4152   74.2979  217.3208 H   0  0  0  0  0  0  0  0  0  0  0  0
  143.5390   75.0017  221.0394 H   0  0  0  0  0  0  0  0  0  0  0  0
  145.4229   73.8557  222.1573 H   0  0  0  0  0  0  0  0  0  0  0  0
  146.9610   72.4175  220.8499 H   0  0  0  0  0  0  0  0  0  0  0  0
  144.7743   73.2473  217.3385 H   0  0  0  0  0  0  0  0  0  0  0  0
  141.0215   72.8982  224.8362 H   0  0  0  0  0  0  0  0  0  0  0  0
  140.9971   71.9932  227.1456 H   0  0  0  0  0  0  0  0  0  0  0  0
  140.5576   70.1673  228.6073 H   0  0  0  0  0  0  0  0  0  0  0  0
  139.8000   67.8188  228.9365 H   0  0  0  0  0  0  0  0  0  0  0  0
  139.1047   66.4589  226.9963 H   0  0  0  0  0  0  0  0  0  0  0  0
  139.1374   67.3760  224.6939 H   0  0  0  0  0  0  0  0  0  0  0  0
  1  2  2  0
  2  3  1  0
  3  4  1  0
  4  5  1  0
  5  6  2  0
  5  7  1  0
  7  8  1  0
  8  9  1  0
  9 10  1  0
  9 11  1  0
 11 12  1  0
 12 13  1  0
 13 14  1  0
 14 15  1  0
 15 16  2  0
 16 17  1  0
 17 18  2  0
 18 19  1  0
 19 20  2  0
  2 21  1  0
 21 22  2  0
 22 23  1  0
 23 24  2  0
 24 25  1  0
 25 26  2  0
 26 27  1  0
 27 28  2  0
 28 29  1  0
 29 30  2  0
 12  7  1  0
 20 15  1  0
 30 21  1  0
 29 24  1  0
  3 31  1  0
  4 32  1  0
  4 33  1  0
  8 34  1  0
  8 35  1  0
  9 36  1  6
 10 37  1  0
 11 38  1  0
 11 39  1  0
 12 40  1  1
 13 41  1  0
 13 42  1  0
 16 43  1  0
 17 44  1  0
 18 45  1  0
 20 46  1  0
 22 47  1  0
 23 48  1  0
 25 49  1  0
 26 50  1  0
 27 51  1  0
 28 52  1  0
M  END
>  <smiles>  (28) 
O=C(NCC(=O)N1C[C@H](O)C[C@H]1COc1cccnc1)c1ccc2ccccc2n1

>  <score_type>  (28) 
oracle

>  <origin>  (28) 
autodockgpu

>  <m_score__min__energy>  (28) 
-8.4399999999999995

>  <m_primary>  (28) 
energy

>  <rmsd>  (28) 
3.041009759532611

>  <m_score__min__rmsd>  (28) 
3.041009759532611

>  <meeko>  (28) 
{"free_energy": -7.54, "intermolecular_energy": -9.93, "internal_energy": -2.0, "cluster_size": 9, "cluster_id": 3, "rank_in_cluster": 6}

>  <energy>  (28) 
-7.14

>  <cluster_rmsd>  (28) 
1.71

>  <cluster>  (28) 
1

$$$$

     RDKit          3D

 52 55  0  0  0  0  0  0  0  0999 V2000
  141.3430   72.4350  222.0150 O   0  0  0  0  0  0  0  0  0  0  0  0
  140.2780   72.4310  222.6790 C   0  0  0  0  0  0  0  0  0  0  0  0
  139.2710   73.3790  222.3500 N   0  0  0  0  0  0  0  0  0  0  0  0
  139.3290   74.3480  221.3280 C   0  0  0  0  0  0  0  0  0  0  0  0
  140.1610   75.5130  221.5740 C   0  0  0  0  0  0  0  0  0  0  0  0
  141.4120   75.1700  221.8170 O   0  0  0  0  0  0  0  0  0  0  0  0
  139.9310   76.8780  221.6130 N   0  0  0  0  0  0  0  0  0  0  0  0
  140.3080   78.0390  220.8580 C   0  0  0  0  0  0  0  0  0  0  0  0
  140.6980   79.0070  221.9870 C   0  0  2  0  0  0  0  0  0  0  0  0
  141.6830   78.4200  222.7290 O   0  0  0  0  0  0  0  0  0  0  0  0
  139.3960   78.9040  222.7950 C   0  0  0  0  0  0  0  0  0  0  0  0
  139.0490   77.4630  222.6860 C   0  0  1  0  0  0  0  0  0  0  0  0
  137.6540   77.2240  222.1670 C   0  0  0  0  0  0  0  0  0  0  0  0
  136.6810   76.9390  223.0800 O   0  0  0  0  0  0  0  0  0  0  0  0
  136.2310   75.7480  223.4970 C   0  0  0  0  0  0  0  0  0  0  0  0
  135.4650   75.4570  224.5980 C   0  0  0  0  0  0  0  0  0  0  0  0
  135.0700   74.1570  224.9030 C   0  0  0  0  0  0  0  0  0  0  0  0
  135.4410   73.1180  224.0980 C   0  0  0  0  0  0  0  0  0  0  0  0
  136.1900   73.3930  223.0200 N   0  0  0  0  0  0  0  0  0  0  0  0
  136.5780   74.6250  222.7120 C   0  0  0  0  0  0  0  0  0  0  0  0
  140.0810   71.4740  223.7640 C   0  0  0  0  0  0  0  0  0  0  0  0
  139.3610   70.3230  223.5250 C   0  0  0  0  0  0  0  0  0  0  0  0
  139.1280   69.3680  224.4910 C   0  0  0  0  0  0  0  0  0  0  0  0
  139.6560   69.6120  225.7450 C   0  0  0  0  0  0  0  0  0  0  0  0
  139.4350   68.6650  226.7370 C   0  0  0  0  0  0  0  0  0  0  0  0
  139.9560   68.8970  227.9890 C   0  0  0  0  0  0  0  0  0  0  0  0
  140.6820   70.0550  228.2340 C   0  0  0  0  0  0  0  0  0  0  0  0
  140.9070   71.0030  227.2570 C   0  0  0  0  0  0  0  0  0  0  0  0
  140.3860   70.7740  226.0000 C   0  0  0  0  0  0  0  0  0  0  0  0
  140.5720   71.6600  225.0050 N   0  0  0  0  0  0  0  0  0  0  0  0
  138.3980   73.3300  222.9470 H   0  0  0  0  0  0  0  0  0  0  0  0
  139.7092   73.8533  220.4221 H   0  0  0  0  0  0  0  0  0  0  0  0
  138.3043   74.7395  221.2452 H   0  0  0  0  0  0  0  0  0  0  0  0
  141.1588   77.8299  220.1928 H   0  0  0  0  0  0  0  0  0  0  0  0
  139.5241   78.4177  220.1857 H   0  0  0  0  0  0  0  0  0  0  0  0
  141.0366   80.0102  221.6886 H   0  0  0  0  0  0  0  0  0  0  0  0
  141.8280   77.4840  222.4650 H   0  0  0  0  0  0  0  0  0  0  0  0
  139.5574   79.1937  223.8438 H   0  0  0  0  0  0  0  0  0  0  0  0
  138.6025   79.5704  222.4259 H   0  0  0  0  0  0  0  0  0  0  0  0
  139.1581   77.0304  223.6915 H   0  0  0  0  0  0  0  0  0  0  0  0
  137.3436   78.1309  221.6274 H   0  0  0  0  0  0  0  0  0  0  0  0
  137.7361   76.3150  221.5530 H   0  0  0  0  0  0  0  0  0  0  0  0
  135.1529   76.2774  225.2611 H   0  0  0  0  0  0  0  0  0  0  0  0
  134.4567   73.9661  225.7960 H   0  0  0  0  0  0  0  0  0  0  0  0
  135.1347   72.0866  224.3269 H   0  0  0  0  0  0  0  0  0  0  0  0
  137.1924   74.7773  221.8124 H   0  0  0  0  0  0  0  0  0  0  0  0
  138.9535   70.1592  222.5165 H   0  0  0  0  0  0  0  0  0  0  0  0
  138.5506   68.4570  224.2749 H   0  0  0  0  0  0  0  0  0  0  0  0
  138.8579   67.7525  226.5268 H   0  0  0  0  0  0  0  0  0  0  0  0
  139.7975   68.1657  228.7953 H   0  0  0  0  0  0  0  0  0  0  0  0
  141.0917   70.2223  229.2411 H   0  0  0  0  0  0  0  0  0  0  0  0
  141.4843   71.9139  227.4737 H   0  0  0  0  0  0  0  0  0  0  0  0
  1  2  2  0
  2  3  1  0
  3  4  1  0
  4  5  1  0
  5  6  2  0
  5  7  1  0
  7  8  1  0
  8  9  1  0
  9 10  1  0
  9 11  1  0
 11 12  1  0
 12 13  1  0
 13 14  1  0
 14 15  1  0
 15 16  2  0
 16 17  1  0
 17 18  2  0
 18 19  1  0
 19 20  2  0
  2 21  1  0
 21 22  2  0
 22 23  1  0
 23 24  2  0
 24 25  1  0
 25 26  2  0
 26 27  1  0
 27 28  2  0
 28 29  1  0
 29 30  2  0
 12  7  1  0
 20 15  1  0
 30 21  1  0
 29 24  1  0
  3 31  1  0
  4 32  1  0
  4 33  1  0
  8 34  1  0
  8 35  1  0
  9 36  1  6
 10 37  1  0
 11 38  1  0
 11 39  1  0
 12 40  1  1
 13 41  1  0
 13 42  1  0
 16 43  1  0
 17 44  1  0
 18 45  1  0
 20 46  1  0
 22 47  1  0
 23 48  1  0
 25 49  1  0
 26 50  1  0
 27 51  1  0
 28 52  1  0
M  END
>  <smiles>  (29) 
O=C(NCC(=O)N1C[C@H](O)C[C@H]1COc1cccnc1)c1ccc2ccccc2n1

>  <score_type>  (29) 
oracle

>  <origin>  (29) 
autodockgpu

>  <m_score__min__energy>  (29) 
-8.4399999999999995

>  <m_primary>  (29) 
energy

>  <rmsd>  (29) 
2.8651239796238683

>  <m_score__min__rmsd>  (29) 
2.8651239796238683

>  <meeko>  (29) 
{"free_energy": -7.52, "intermolecular_energy": -9.91, "internal_energy": -2.44, "cluster_size": 1, "cluster_id": 4, "rank_in_cluster": 1}

>  <energy>  (29) 
-7.08

>  <cluster_rmsd>  (29) 
1.62

>  <cluster>  (29) 
1

$$$$

     RDKit          3D

 52 55  0  0  0  0  0  0  0  0999 V2000
  140.6670   71.1620  221.2310 O   0  0  0  0  0  0  0  0  0  0  0  0
  140.3770   71.8570  222.2340 C   0  0  0  0  0  0  0  0  0  0  0  0
  140.1850   73.2550  222.0570 N   0  0  0  0  0  0  0  0  0  0  0  0
  140.2800   73.9710  220.8470 C   0  0  0  0  0  0  0  0  0  0  0  0
  140.9080   75.2790  220.9040 C   0  0  0  0  0  0  0  0  0  0  0  0
  141.0840   75.6760  222.1510 O   0  0  0  0  0  0  0  0  0  0  0  0
  141.3480   76.1850  219.9540 N   0  0  0  0  0  0  0  0  0  0  0  0
  141.0920   77.5510  219.5930 C   0  0  0  0  0  0  0  0  0  0  0  0
  140.9500   77.4280  218.0680 C   0  0  2  0  0  0  0  0  0  0  0  0
  139.9510   76.5350  217.8040 O   0  0  0  0  0  0  0  0  0  0  0  0
  142.2830   76.7140  217.8010 C   0  0  0  0  0  0  0  0  0  0  0  0
  142.3940   75.7770  218.9490 C   0  0  1  0  0  0  0  0  0  0  0  0
  143.6880   75.9170  219.7100 C   0  0  0  0  0  0  0  0  0  0  0  0
  144.0740   74.8710  220.4970 O   0  0  0  0  0  0  0  0  0  0  0  0
  144.3530   73.6070  220.1510 C   0  0  0  0  0  0  0  0  0  0  0  0
  143.6540   72.4630  220.4440 C   0  0  0  0  0  0  0  0  0  0  0  0
  144.0720   71.2080  220.0080 C   0  0  0  0  0  0  0  0  0  0  0  0
  145.2100   71.0810  219.2660 C   0  0  0  0  0  0  0  0  0  0  0  0
  145.9010   72.1940  218.9750 N   0  0  0  0  0  0  0  0  0  0  0  0
  145.5200   73.4000  219.3810 C   0  0  0  0  0  0  0  0  0  0  0  0
  140.2400   71.2430  223.5520 C   0  0  0  0  0  0  0  0  0  0  0  0
  139.6020   70.0260  223.6650 C   0  0  0  0  0  0  0  0  0  0  0  0
  139.4290   69.3770  224.8690 C   0  0  0  0  0  0  0  0  0  0  0  0
  139.9330   70.0080  225.9910 C   0  0  0  0  0  0  0  0  0  0  0  0
  139.7720   69.3740  227.2170 C   0  0  0  0  0  0  0  0  0  0  0  0
  140.2700   69.9920  228.3410 C   0  0  0  0  0  0  0  0  0  0  0  0
  140.9130   71.2170  228.2310 C   0  0  0  0  0  0  0  0  0  0  0  0
  141.0780   71.8560  227.0200 C   0  0  0  0  0  0  0  0  0  0  0  0
  140.5810   71.2390  225.8890 C   0  0  0  0  0  0  0  0  0  0  0  0
  140.7110   71.8110  224.6790 N   0  0  0  0  0  0  0  0  0  0  0  0
  139.9470   73.7890  222.9390 H   0  0  0  0  0  0  0  0  0  0  0  0
  140.8577   73.3557  220.1415 H   0  0  0  0  0  0  0  0  0  0  0  0
  139.2397   74.1658  220.5472 H   0  0  0  0  0  0  0  0  0  0  0  0
  140.1670   77.9250  220.0562 H   0  0  0  0  0  0  0  0  0  0  0  0
  141.8663   78.2601  219.9212 H   0  0  0  0  0  0  0  0  0  0  0  0
  140.7458   78.3541  217.5105 H   0  0  0  0  0  0  0  0  0  0  0  0
  139.5110   76.2290  218.6280 H   0  0  0  0  0  0  0  0  0  0  0  0
  142.2553   76.1684  216.8462 H   0  0  0  0  0  0  0  0  0  0  0  0
  143.1362   77.4035  217.7192 H   0  0  0  0  0  0  0  0  0  0  0  0
  142.3025   74.7597  218.5406 H   0  0  0  0  0  0  0  0  0  0  0  0
  144.4867   76.0867  218.9729 H   0  0  0  0  0  0  0  0  0  0  0  0
  143.5111   76.7449  220.4124 H   0  0  0  0  0  0  0  0  0  0  0  0
  142.7342   72.5396  221.0423 H   0  0  0  0  0  0  0  0  0  0  0  0
  143.4821   70.3153  220.2630 H   0  0  0  0  0  0  0  0  0  0  0  0
  145.5510   70.0953  218.9166 H   0  0  0  0  0  0  0  0  0  0  0  0
  146.1355   74.2698  219.1078 H   0  0  0  0  0  0  0  0  0  0  0  0
  139.2130   69.5509  222.7523 H   0  0  0  0  0  0  0  0  0  0  0  0
  138.9159   68.4062  224.9336 H   0  0  0  0  0  0  0  0  0  0  0  0
  139.2597   68.4031  227.2871 H   0  0  0  0  0  0  0  0  0  0  0  0
  140.1586   69.5154  229.3261 H   0  0  0  0  0  0  0  0  0  0  0  0
  141.3045   71.6948  229.1412 H   0  0  0  0  0  0  0  0  0  0  0  0
  141.5899   72.8276  226.9570 H   0  0  0  0  0  0  0  0  0  0  0  0
  1  2  2  0
  2  3  1  0
  3  4  1  0
  4  5  1  0
  5  6  2  0
  5  7  1  0
  7  8  1  0
  8  9  1  0
  9 10  1  0
  9 11  1  0
 11 12  1  0
 12 13  1  0
 13 14  1  0
 14 15  1  0
 15 16  2  0
 16 17  1  0
 17 18  2  0
 18 19  1  0
 19 20  2  0
  2 21  1  0
 21 22  2  0
 22 23  1  0
 23 24  2  0
 24 25  1  0
 25 26  2  0
 26 27  1  0
 27 28  2  0
 28 29  1  0
 29 30  2  0
 12  7  1  0
 20 15  1  0
 30 21  1  0
 29 24  1  0
  3 31  1  0
  4 32  1  0
  4 33  1  0
  8 34  1  0
  8 35  1  0
  9 36  1  6
 10 37  1  0
 11 38  1  0
 11 39  1  0
 12 40  1  6
 13 41  1  0
 13 42  1  0
 16 43  1  0
 17 44  1  0
 18 45  1  0
 20 46  1  0
 22 47  1  0
 23 48  1  0
 25 49  1  0
 26 50  1  0
 27 51  1  0
 28 52  1  0
M  END
>  <smiles>  (30) 
O=C(NCC(=O)N1C[C@H](O)C[C@H]1COc1cccnc1)c1ccc2ccccc2n1

>  <score_type>  (30) 
oracle

>  <origin>  (30) 
autodockgpu

>  <m_score__min__energy>  (30) 
-8.4399999999999995

>  <m_primary>  (30) 
energy

>  <rmsd>  (30) 
2.025089288010849

>  <m_score__min__rmsd>  (30) 
2.025089288010849

>  <meeko>  (30) 
{"free_energy": -7.4, "intermolecular_energy": -9.78, "internal_energy": -2.24, "cluster_size": 9, "cluster_id": 3, "rank_in_cluster": 7}

>  <energy>  (30) 
-6.84

>  <cluster_rmsd>  (30) 
1.67

>  <cluster>  (30) 
1

$$$$

     RDKit          3D

 52 55  0  0  0  0  0  0  0  0999 V2000
  139.4280   74.8330  222.3270 O   0  0  0  0  0  0  0  0  0  0  0  0
  140.4900   75.1640  221.7450 C   0  0  0  0  0  0  0  0  0  0  0  0
  141.2520   74.1530  221.0990 N   0  0  0  0  0  0  0  0  0  0  0  0
  140.9410   72.7800  221.0290 C   0  0  0  0  0  0  0  0  0  0  0  0
  140.2230   72.2100  222.1550 C   0  0  0  0  0  0  0  0  0  0  0  0
  140.9640   72.2090  223.2480 O   0  0  0  0  0  0  0  0  0  0  0  0
  138.9590   71.6720  222.3280 N   0  0  0  0  0  0  0  0  0  0  0  0
  137.8300   71.3340  221.5090 C   0  0  0  0  0  0  0  0  0  0  0  0
  136.6800   71.9310  222.3360 C   0  0  2  0  0  0  0  0  0  0  0  0
  136.9270   73.2630  222.5080 O   0  0  0  0  0  0  0  0  0  0  0  0
  137.0070   71.2320  223.6640 C   0  0  0  0  0  0  0  0  0  0  0  0
  138.4920   71.2690  223.7030 C   0  0  1  0  0  0  0  0  0  0  0  0
  139.1170   69.9120  223.9050 C   0  0  0  0  0  0  0  0  0  0  0  0
  140.2610   69.8490  224.6460 O   0  0  0  0  0  0  0  0  0  0  0  0
  140.4910   70.2860  225.8910 C   0  0  0  0  0  0  0  0  0  0  0  0
  140.2650   69.6440  227.0830 C   0  0  0  0  0  0  0  0  0  0  0  0
  140.5600   70.2320  228.3100 C   0  0  0  0  0  0  0  0  0  0  0  0
  141.0920   71.4880  228.3600 C   0  0  0  0  0  0  0  0  0  0  0  0
  141.3170   72.1250  227.2010 N   0  0  0  0  0  0  0  0  0  0  0  0
  141.0420   71.5810  226.0200 C   0  0  0  0  0  0  0  0  0  0  0  0
  140.9300   76.5560  221.7340 C   0  0  0  0  0  0  0  0  0  0  0  0
  141.2220   77.1610  220.5300 C   0  0  0  0  0  0  0  0  0  0  0  0
  141.6430   78.4700  220.4280 C   0  0  0  0  0  0  0  0  0  0  0  0
  141.7660   79.1750  221.6110 C   0  0  0  0  0  0  0  0  0  0  0  0
  142.1890   80.4970  221.5370 C   0  0  0  0  0  0  0  0  0  0  0  0
  142.3140   81.2080  222.7070 C   0  0  0  0  0  0  0  0  0  0  0  0
  142.0210   80.6030  223.9220 C   0  0  0  0  0  0  0  0  0  0  0  0
  141.6010   79.2920  224.0090 C   0  0  0  0  0  0  0  0  0  0  0  0
  141.4730   78.5740  222.8360 C   0  0  0  0  0  0  0  0  0  0  0  0
  141.0670   77.2920  222.8550 N   0  0  0  0  0  0  0  0  0  0  0  0
  142.1390   74.4920  220.6310 H   0  0  0  0  0  0  0  0  0  0  0  0
  140.3266   72.6240  220.1300 H   0  0  0  0  0  0  0  0  0  0  0  0
  141.9136   72.2662  221.0198 H   0  0  0  0  0  0  0  0  0  0  0  0
  137.8976   71.8004  220.5151 H   0  0  0  0  0  0  0  0  0  0  0  0
  137.7274   70.2592  221.2986 H   0  0  0  0  0  0  0  0  0  0  0  0
  135.6632   71.8135  221.9330 H   0  0  0  0  0  0  0  0  0  0  0  0
  137.8540   73.4270  222.7920 H   0  0  0  0  0  0  0  0  0  0  0  0
  136.5752   71.7784  224.5154 H   0  0  0  0  0  0  0  0  0  0  0  0
  136.5964   70.2137  223.7311 H   0  0  0  0  0  0  0  0  0  0  0  0
  138.7733   71.9419  224.5264 H   0  0  0  0  0  0  0  0  0  0  0  0
  138.3688   69.2750  224.3994 H   0  0  0  0  0  0  0  0  0  0  0  0
  139.4179   69.5894  222.8973 H   0  0  0  0  0  0  0  0  0  0  0  0
  139.8365   68.6310  227.0683 H   0  0  0  0  0  0  0  0  0  0  0  0
  140.3636   69.6824  229.2424 H   0  0  0  0  0  0  0  0  0  0  0  0
  141.3294   71.9641  229.3228 H   0  0  0  0  0  0  0  0  0  0  0  0
  141.2511   72.1605  225.1087 H   0  0  0  0  0  0  0  0  0  0  0  0
  141.1140   76.5717  219.6075 H   0  0  0  0  0  0  0  0  0  0  0  0
  141.8695   78.9301  219.4548 H   0  0  0  0  0  0  0  0  0  0  0  0
  142.4179   80.9625  220.5670 H   0  0  0  0  0  0  0  0  0  0  0  0
  142.6462   82.2563  222.6806 H   0  0  0  0  0  0  0  0  0  0  0  0
  142.1275   81.1892  224.8467 H   0  0  0  0  0  0  0  0  0  0  0  0
  141.3750   78.8325  224.9825 H   0  0  0  0  0  0  0  0  0  0  0  0
  1  2  2  0
  2  3  1  0
  3  4  1  0
  4  5  1  0
  5  6  2  0
  5  7  1  0
  7  8  1  0
  8  9  1  0
  9 10  1  0
  9 11  1  0
 11 12  1  0
 12 13  1  0
 13 14  1  0
 14 15  1  0
 15 16  2  0
 16 17  1  0
 17 18  2  0
 18 19  1  0
 19 20  2  0
  2 21  1  0
 21 22  2  0
 22 23  1  0
 23 24  2  0
 24 25  1  0
 25 26  2  0
 26 27  1  0
 27 28  2  0
 28 29  1  0
 29 30  2  0
 12  7  1  0
 20 15  1  0
 30 21  1  0
 29 24  1  0
  3 31  1  0
  4 32  1  0
  4 33  1  0
  8 34  1  0
  8 35  1  0
  9 36  1  6
 10 37  1  0
 11 38  1  0
 11 39  1  0
 12 40  1  1
 13 41  1  0
 13 42  1  0
 16 43  1  0
 17 44  1  0
 18 45  1  0
 20 46  1  0
 22 47  1  0
 23 48  1  0
 25 49  1  0
 26 50  1  0
 27 51  1  0
 28 52  1  0
M  END
>  <smiles>  (31) 
O=C(NCC(=O)N1C[C@H](O)C[C@H]1COc1cccnc1)c1ccc2ccccc2n1

>  <score_type>  (31) 
oracle

>  <origin>  (31) 
autodockgpu

>  <m_score__min__energy>  (31) 
-8.4399999999999995

>  <m_primary>  (31) 
energy

>  <rmsd>  (31) 
8.162830129906599

>  <m_score__min__rmsd>  (31) 
8.162830129906599

>  <meeko>  (31) 
{"free_energy": -7.99, "intermolecular_energy": -10.38, "internal_energy": -2.04, "cluster_size": 30, "cluster_id": 1, "rank_in_cluster": 11}

>  <energy>  (31) 
-8.01

>  <cluster_rmsd>  (31) 
0.0

>  <cluster>  (31) 
2

$$$$

     RDKit          3D

 52 55  0  0  0  0  0  0  0  0999 V2000
  140.7240   71.2650  221.3200 O   0  0  0  0  0  0  0  0  0  0  0  0
  140.3610   71.9150  222.3300 C   0  0  0  0  0  0  0  0  0  0  0  0
  140.1180   73.3090  222.1880 N   0  0  0  0  0  0  0  0  0  0  0  0
  140.2350   74.0670  221.0060 C   0  0  0  0  0  0  0  0  0  0  0  0
  140.6710   75.4450  221.1490 C   0  0  0  0  0  0  0  0  0  0  0  0
  140.4030   75.9130  222.3540 O   0  0  0  0  0  0  0  0  0  0  0  0
  141.2900   76.3580  220.3120 N   0  0  0  0  0  0  0  0  0  0  0  0
  141.2880   77.7790  220.1060 C   0  0  0  0  0  0  0  0  0  0  0  0
  141.1690   77.8530  218.5760 C   0  0  2  0  0  0  0  0  0  0  0  0
  140.0370   77.1860  218.2050 O   0  0  0  0  0  0  0  0  0  0  0  0
  142.3630   76.9460  218.2400 C   0  0  0  0  0  0  0  0  0  0  0  0
  142.2760   75.8840  219.2750 C   0  0  1  0  0  0  0  0  0  0  0  0
  143.5530   75.7070  220.0570 C   0  0  0  0  0  0  0  0  0  0  0  0
  143.7130   74.5420  220.7480 O   0  0  0  0  0  0  0  0  0  0  0  0
  144.1620   73.3550  220.3180 C   0  0  0  0  0  0  0  0  0  0  0  0
  143.5830   72.1180  220.4510 C   0  0  0  0  0  0  0  0  0  0  0  0
  144.1750   70.9640  219.9440 C   0  0  0  0  0  0  0  0  0  0  0  0
  145.3700   71.0350  219.2890 C   0  0  0  0  0  0  0  0  0  0  0  0
  145.9450   72.2390  219.1550 N   0  0  0  0  0  0  0  0  0  0  0  0
  145.3980   73.3520  219.6310 C   0  0  0  0  0  0  0  0  0  0  0  0
  140.1920   71.2530  223.6210 C   0  0  0  0  0  0  0  0  0  0  0  0
  139.5580   70.0300  223.6730 C   0  0  0  0  0  0  0  0  0  0  0  0
  139.3570   69.3370  224.8470 C   0  0  0  0  0  0  0  0  0  0  0  0
  139.8270   69.9290  226.0050 C   0  0  0  0  0  0  0  0  0  0  0  0
  139.6370   69.2500  227.2030 C   0  0  0  0  0  0  0  0  0  0  0  0
  140.1020   69.8290  228.3610 C   0  0  0  0  0  0  0  0  0  0  0  0
  140.7410   71.0600  228.3130 C   0  0  0  0  0  0  0  0  0  0  0  0
  140.9350   71.7440  227.1300 C   0  0  0  0  0  0  0  0  0  0  0  0
  140.4710   71.1660  225.9650 C   0  0  0  0  0  0  0  0  0  0  0  0
  140.6300   71.7820  224.7800 N   0  0  0  0  0  0  0  0  0  0  0  0
  139.8190   73.8040  223.0750 H   0  0  0  0  0  0  0  0  0  0  0  0
  140.9582   73.5557  220.3537 H   0  0  0  0  0  0  0  0  0  0  0  0
  139.2131   74.1301  220.6037 H   0  0  0  0  0  0  0  0  0  0  0  0
  140.4306   78.2579  220.6015 H   0  0  0  0  0  0  0  0  0  0  0  0
  142.1657   78.2983  220.5183 H   0  0  0  0  0  0  0  0  0  0  0  0
  141.1464   78.8565  218.1260 H   0  0  0  0  0  0  0  0  0  0  0  0
  139.5690   76.8040  218.9810 H   0  0  0  0  0  0  0  0  0  0  0  0
  142.2659   76.5224  217.2295 H   0  0  0  0  0  0  0  0  0  0  0  0
  143.3261   77.4774  218.2434 H   0  0  0  0  0  0  0  0  0  0  0  0
  142.0187   74.9505  218.7531 H   0  0  0  0  0  0  0  0  0  0  0  0
  144.3883   75.7853  219.3456 H   0  0  0  0  0  0  0  0  0  0  0  0
  143.5180   76.4884  220.8304 H   0  0  0  0  0  0  0  0  0  0  0  0
  142.6196   72.0353  220.9754 H   0  0  0  0  0  0  0  0  0  0  0  0
  143.6774   69.9914  220.0720 H   0  0  0  0  0  0  0  0  0  0  0  0
  145.8476   70.1311  218.8829 H   0  0  0  0  0  0  0  0  0  0  0  0
  145.9257   74.3061  219.4855 H   0  0  0  0  0  0  0  0  0  0  0  0
  139.1957   69.5867  222.7337 H   0  0  0  0  0  0  0  0  0  0  0  0
  138.8482   68.3618  224.8622 H   0  0  0  0  0  0  0  0  0  0  0  0
  139.1280   68.2751  227.2245 H   0  0  0  0  0  0  0  0  0  0  0  0
  139.9674   69.3163  229.3249 H   0  0  0  0  0  0  0  0  0  0  0  0
  141.1055   71.5060  229.2502 H   0  0  0  0  0  0  0  0  0  0  0  0
  141.4435   72.7193  227.1157 H   0  0  0  0  0  0  0  0  0  0  0  0
  1  2  2  0
  2  3  1  0
  3  4  1  0
  4  5  1  0
  5  6  2  0
  5  7  1  0
  7  8  1  0
  8  9  1  0
  9 10  1  0
  9 11  1  0
 11 12  1  0
 12 13  1  0
 13 14  1  0
 14 15  1  0
 15 16  2  0
 16 17  1  0
 17 18  2  0
 18 19  1  0
 19 20  2  0
  2 21  1  0
 21 22  2  0
 22 23  1  0
 23 24  2  0
 24 25  1  0
 25 26  2  0
 26 27  1  0
 27 28  2  0
 28 29  1  0
 29 30  2  0
 12  7  1  0
 20 15  1  0
 30 21  1  0
 29 24  1  0
  3 31  1  0
  4 32  1  0
  4 33  1  0
  8 34  1  0
  8 35  1  0
  9 36  1  6
 10 37  1  0
 11 38  1  0
 11 39  1  0
 12 40  1  6
 13 41  1  0
 13 42  1  0
 16 43  1  0
 17 44  1  0
 18 45  1  0
 20 46  1  0
 22 47  1  0
 23 48  1  0
 25 49  1  0
 26 50  1  0
 27 51  1  0
 28 52  1  0
M  END
>  <smiles>  (32) 
O=C(NCC(=O)N1C[C@H](O)C[C@H]1COc1cccnc1)c1ccc2ccccc2n1

>  <score_type>  (32) 
oracle

>  <origin>  (32) 
autodockgpu

>  <m_score__min__energy>  (32) 
-8.4399999999999995

>  <m_primary>  (32) 
energy

>  <rmsd>  (32) 
2.1206983669080413

>  <m_score__min__rmsd>  (32) 
2.1206983669080413

>  <meeko>  (32) 
{"free_energy": -7.58, "intermolecular_energy": -9.97, "internal_energy": -2.25, "cluster_size": 9, "cluster_id": 3, "rank_in_cluster": 5}

>  <energy>  (32) 
-7.97

>  <cluster_rmsd>  (32) 
0.27

>  <cluster>  (32) 
2

$$$$

     RDKit          3D

 52 55  0  0  0  0  0  0  0  0999 V2000
  138.8120   72.6170  221.6830 O   0  0  0  0  0  0  0  0  0  0  0  0
  139.8570   72.3320  222.3180 C   0  0  0  0  0  0  0  0  0  0  0  0
  141.1010   72.8120  221.8250 N   0  0  0  0  0  0  0  0  0  0  0  0
  141.3030   73.5990  220.6730 C   0  0  0  0  0  0  0  0  0  0  0  0
  141.3000   75.0400  220.8530 C   0  0  0  0  0  0  0  0  0  0  0  0
  142.4060   75.5870  220.3850 O   0  0  0  0  0  0  0  0  0  0  0  0
  140.4090   75.9470  221.4020 N   0  0  0  0  0  0  0  0  0  0  0  0
  139.9560   76.3290  222.7100 C   0  0  0  0  0  0  0  0  0  0  0  0
  138.4360   76.3740  222.4910 C   0  0  2  0  0  0  0  0  0  0  0  0
  138.0340   75.1470  222.0460 O   0  0  0  0  0  0  0  0  0  0  0  0
  138.4370   77.3200  221.2820 C   0  0  0  0  0  0  0  0  0  0  0  0
  139.6220   76.8690  220.5070 C   0  0  1  0  0  0  0  0  0  0  0  0
  140.5940   77.9800  220.2020 C   0  0  0  0  0  0  0  0  0  0  0  0
  141.6260   78.1710  221.0740 O   0  0  0  0  0  0  0  0  0  0  0  0
  141.7970   79.1340  221.9900 C   0  0  0  0  0  0  0  0  0  0  0  0
  142.9120   79.4230  222.7360 C   0  0  0  0  0  0  0  0  0  0  0  0
  142.9390   80.4680  223.6550 C   0  0  0  0  0  0  0  0  0  0  0  0
  141.8350   81.2470  223.8430 C   0  0  0  0  0  0  0  0  0  0  0  0
  140.7390   80.9730  223.1190 N   0  0  0  0  0  0  0  0  0  0  0  0
  140.6920   79.9810  222.2370 C   0  0  0  0  0  0  0  0  0  0  0  0
  139.7930   71.5270  223.5340 C   0  0  0  0  0  0  0  0  0  0  0  0
  139.0560   70.3620  223.5340 C   0  0  0  0  0  0  0  0  0  0  0  0
  138.9420   69.5440  224.6370 C   0  0  0  0  0  0  0  0  0  0  0  0
  139.6130   69.9440  225.7780 C   0  0  0  0  0  0  0  0  0  0  0  0
  139.5150   69.1370  226.9050 C   0  0  0  0  0  0  0  0  0  0  0  0
  140.1790   69.5250  228.0450 C   0  0  0  0  0  0  0  0  0  0  0  0
  140.9230   70.6970  228.0500 C   0  0  0  0  0  0  0  0  0  0  0  0
  141.0270   71.5070  226.9380 C   0  0  0  0  0  0  0  0  0  0  0  0
  140.3630   71.1210  225.7910 C   0  0  0  0  0  0  0  0  0  0  0  0
  140.4270   71.8680  224.6740 N   0  0  0  0  0  0  0  0  0  0  0  0
  141.9460   72.5360  222.3990 H   0  0  0  0  0  0  0  0  0  0  0  0
  142.2775   73.3194  220.2462 H   0  0  0  0  0  0  0  0  0  0  0  0
  140.4379   73.3889  220.0269 H   0  0  0  0  0  0  0  0  0  0  0  0
  140.2332   75.5816  223.4680 H   0  0  0  0  0  0  0  0  0  0  0  0
  140.3887   77.2687  223.0837 H   0  0  0  0  0  0  0  0  0  0  0  0
  137.8160   76.6516  223.3562 H   0  0  0  0  0  0  0  0  0  0  0  0
  138.2160   74.4430  222.7070 H   0  0  0  0  0  0  0  0  0  0  0  0
  137.5143   77.2104  220.6933 H   0  0  0  0  0  0  0  0  0  0  0  0
  138.4808   78.3827  221.5626 H   0  0  0  0  0  0  0  0  0  0  0  0
  139.2435   76.4301  219.5721 H   0  0  0  0  0  0  0  0  0  0  0  0
  141.0313   77.7733  219.2141 H   0  0  0  0  0  0  0  0  0  0  0  0
  139.9966   78.9013  220.2686 H   0  0  0  0  0  0  0  0  0  0  0  0
  143.8145   78.8083  222.6032 H   0  0  0  0  0  0  0  0  0  0  0  0
  143.8542   80.6665  224.2320 H   0  0  0  0  0  0  0  0  0  0  0  0
  141.8431   82.0753  224.5668 H   0  0  0  0  0  0  0  0  0  0  0  0
  139.7596   79.8122  221.6784 H   0  0  0  0  0  0  0  0  0  0  0  0
  138.5344   70.0718  222.6100 H   0  0  0  0  0  0  0  0  0  0  0  0
  138.3470   68.6191  224.6111 H   0  0  0  0  0  0  0  0  0  0  0  0
  138.9213   68.2112  226.8857 H   0  0  0  0  0  0  0  0  0  0  0  0
  140.1206   68.9067  228.9529 H   0  0  0  0  0  0  0  0  0  0  0  0
  141.4473   70.9897  228.9716 H   0  0  0  0  0  0  0  0  0  0  0  0
  141.6210   72.4324  226.9646 H   0  0  0  0  0  0  0  0  0  0  0  0
  1  2  2  0
  2  3  1  0
  3  4  1  0
  4  5  1  0
  5  6  2  0
  5  7  1  0
  7  8  1  0
  8  9  1  0
  9 10  1  0
  9 11  1  0
 11 12  1  0
 12 13  1  0
 13 14  1  0
 14 15  1  0
 15 16  2  0
 16 17  1  0
 17 18  2  0
 18 19  1  0
 19 20  2  0
  2 21  1  0
 21 22  2  0
 22 23  1  0
 23 24  2  0
 24 25  1  0
 25 26  2  0
 26 27  1  0
 27 28  2  0
 28 29  1  0
 29 30  2  0
 12  7  1  0
 20 15  1  0
 30 21  1  0
 29 24  1  0
  3 31  1  0
  4 32  1  0
  4 33  1  0
  8 34  1  0
  8 35  1  0
  9 36  1  1
 10 37  1  0
 11 38  1  0
 11 39  1  0
 12 40  1  6
 13 41  1  0
 13 42  1  0
 16 43  1  0
 17 44  1  0
 18 45  1  0
 20 46  1  0
 22 47  1  0
 23 48  1  0
 25 49  1  0
 26 50  1  0
 27 51  1  0
 28 52  1  0
M  END
>  <smiles>  (33) 
O=C(NCC(=O)N1C[C@H](O)C[C@H]1COc1cccnc1)c1ccc2ccccc2n1

>  <score_type>  (33) 
oracle

>  <origin>  (33) 
autodockgpu

>  <m_score__min__energy>  (33) 
-8.4399999999999995

>  <m_primary>  (33) 
energy

>  <rmsd>  (33) 
2.875415714585001

>  <m_score__min__rmsd>  (33) 
2.875415714585001

>  <meeko>  (33) 
{"free_energy": -7.27, "intermolecular_energy": -9.66, "internal_energy": -2.4, "cluster_size": 30, "cluster_id": 1, "rank_in_cluster": 26}

>  <energy>  (33) 
-7.76

>  <cluster_rmsd>  (33) 
0.74

>  <cluster>  (33) 
2

$$$$

     RDKit          3D

 52 55  0  0  0  0  0  0  0  0999 V2000
  139.4390   74.1500  221.9510 O   0  0  0  0  0  0  0  0  0  0  0  0
  140.5260   74.7260  221.7000 C   0  0  0  0  0  0  0  0  0  0  0  0
  140.6120   76.1300  221.9070 N   0  0  0  0  0  0  0  0  0  0  0  0
  139.5890   76.9750  222.3800 C   0  0  0  0  0  0  0  0  0  0  0  0
  139.9660   78.3340  222.7270 C   0  0  0  0  0  0  0  0  0  0  0  0
  138.9860   78.9630  223.3500 O   0  0  0  0  0  0  0  0  0  0  0  0
  141.1050   79.1000  222.5450 N   0  0  0  0  0  0  0  0  0  0  0  0
  142.4200   79.1970  223.1120 C   0  0  0  0  0  0  0  0  0  0  0  0
  142.5470   80.7170  223.2990 C   0  0  2  0  0  0  0  0  0  0  0  0
  141.5150   81.1350  224.0890 O   0  0  0  0  0  0  0  0  0  0  0  0
  142.2110   81.1240  221.8570 C   0  0  0  0  0  0  0  0  0  0  0  0
  141.1310   80.1720  221.4850 C   0  0  1  0  0  0  0  0  0  0  0  0
  141.4190   79.4090  220.2170 C   0  0  0  0  0  0  0  0  0  0  0  0
  141.8990   78.1380  220.3420 O   0  0  0  0  0  0  0  0  0  0  0  0
  142.0390   77.1880  219.4080 C   0  0  0  0  0  0  0  0  0  0  0  0
  141.0660   76.5370  218.6930 C   0  0  0  0  0  0  0  0  0  0  0  0
  141.3690   75.5640  217.7440 C   0  0  0  0  0  0  0  0  0  0  0  0
  142.6680   75.2250  217.4970 C   0  0  0  0  0  0  0  0  0  0  0  0
  143.6270   75.8550  218.1920 N   0  0  0  0  0  0  0  0  0  0  0  0
  143.3590   76.7860  219.1010 C   0  0  0  0  0  0  0  0  0  0  0  0
  141.6740   73.9690  221.2090 C   0  0  0  0  0  0  0  0  0  0  0  0
  141.4900   72.6740  220.7710 C   0  0  0  0  0  0  0  0  0  0  0  0
  142.5170   71.8900  220.2920 C   0  0  0  0  0  0  0  0  0  0  0  0
  143.7750   72.4630  220.2660 C   0  0  0  0  0  0  0  0  0  0  0  0
  144.8290   71.6930  219.7870 C   0  0  0  0  0  0  0  0  0  0  0  0
  146.0840   72.2530  219.7560 C   0  0  0  0  0  0  0  0  0  0  0  0
  146.2740   73.5560  220.1960 C   0  0  0  0  0  0  0  0  0  0  0  0
  145.2360   74.3310  220.6740 C   0  0  0  0  0  0  0  0  0  0  0  0
  143.9740   73.7720  220.7060 C   0  0  0  0  0  0  0  0  0  0  0  0
  142.9220   74.4760  221.1600 N   0  0  0  0  0  0  0  0  0  0  0  0
  141.5510   76.5590  221.6740 H   0  0  0  0  0  0  0  0  0  0  0  0
  138.8183   77.0337  221.5974 H   0  0  0  0  0  0  0  0  0  0  0  0
  139.2558   76.5202  223.3246 H   0  0  0  0  0  0  0  0  0  0  0  0
  142.4861   78.6649  224.0724 H   0  0  0  0  0  0  0  0  0  0  0  0
  143.2135   78.7479  222.4967 H   0  0  0  0  0  0  0  0  0  0  0  0
  143.4888   81.0892  223.7284 H   0  0  0  0  0  0  0  0  0  0  0  0
  140.7220   80.5640  223.9840 H   0  0  0  0  0  0  0  0  0  0  0  0
  141.8545   82.1637  221.8123 H   0  0  0  0  0  0  0  0  0  0  0  0
  143.0779   81.0824  221.1812 H   0  0  0  0  0  0  0  0  0  0  0  0
  140.2099   80.7623  221.3703 H   0  0  0  0  0  0  0  0  0  0  0  0
  140.4804   79.3521  219.6463 H   0  0  0  0  0  0  0  0  0  0  0  0
  142.2317   79.9690  219.7313 H   0  0  0  0  0  0  0  0  0  0  0  0
  140.0116   76.7920  218.8753 H   0  0  0  0  0  0  0  0  0  0  0  0
  140.5584   75.0666  217.1912 H   0  0  0  0  0  0  0  0  0  0  0  0
  142.9209   74.4580  216.7502 H   0  0  0  0  0  0  0  0  0  0  0  0
  144.1952   77.2616  219.6345 H   0  0  0  0  0  0  0  0  0  0  0  0
  140.4767   72.2475  220.8057 H   0  0  0  0  0  0  0  0  0  0  0  0
  142.3446   70.8597  219.9475 H   0  0  0  0  0  0  0  0  0  0  0  0
  144.6628   70.6619  219.4416 H   0  0  0  0  0  0  0  0  0  0  0  0
  146.9379   71.6687  219.3825 H   0  0  0  0  0  0  0  0  0  0  0  0
  147.2861   73.9857  220.1627 H   0  0  0  0  0  0  0  0  0  0  0  0
  145.4091   75.3612  221.0184 H   0  0  0  0  0  0  0  0  0  0  0  0
  1  2  2  0
  2  3  1  0
  3  4  1  0
  4  5  1  0
  5  6  2  0
  5  7  1  0
  7  8  1  0
  8  9  1  0
  9 10  1  0
  9 11  1  0
 11 12  1  0
 12 13  1  0
 13 14  1  0
 14 15  1  0
 15 16  2  0
 16 17  1  0
 17 18  2  0
 18 19  1  0
 19 20  2  0
  2 21  1  0
 21 22  2  0
 22 23  1  0
 23 24  2  0
 24 25  1  0
 25 26  2  0
 26 27  1  0
 27 28  2  0
 28 29  1  0
 29 30  2  0
 12  7  1  0
 20 15  1  0
 30 21  1  0
 29 24  1  0
  3 31  1  0
  4 32  1  0
  4 33  1  0
  8 34  1  0
  8 35  1  0
  9 36  1  1
 10 37  1  0
 11 38  1  0
 11 39  1  0
 12 40  1  6
 13 41  1  0
 13 42  1  0
 16 43  1  0
 17 44  1  0
 18 45  1  0
 20 46  1  0
 22 47  1  0
 23 48  1  0
 25 49  1  0
 26 50  1  0
 27 51  1  0
 28 52  1  0
M  END
>  <smiles>  (34) 
O=C(NCC(=O)N1C[C@H](O)C[C@H]1COc1cccnc1)c1ccc2ccccc2n1

>  <score_type>  (34) 
oracle

>  <origin>  (34) 
autodockgpu

>  <m_score__min__energy>  (34) 
-8.4399999999999995

>  <m_primary>  (34) 
energy

>  <rmsd>  (34) 
6.465485852939514

>  <m_score__min__rmsd>  (34) 
6.465485852939514

>  <meeko>  (34) 
{"free_energy": -5.54, "intermolecular_energy": -7.93, "internal_energy": -3.99, "cluster_size": 3, "cluster_id": 6, "rank_in_cluster": 3}

>  <energy>  (34) 
-7.25

>  <cluster_rmsd>  (34) 
1.91

>  <cluster>  (34) 
2

$$$$

     RDKit          3D

 52 55  0  0  0  0  0  0  0  0999 V2000
  139.3430   71.5700  221.4820 O   0  0  0  0  0  0  0  0  0  0  0  0
  138.8360   71.7830  222.6100 C   0  0  0  0  0  0  0  0  0  0  0  0
  137.7070   72.6430  222.6930 N   0  0  0  0  0  0  0  0  0  0  0  0
  137.0680   73.2990  221.6210 C   0  0  0  0  0  0  0  0  0  0  0  0
  137.5730   74.6120  221.2600 C   0  0  0  0  0  0  0  0  0  0  0  0
  136.5960   75.4200  220.8900 O   0  0  0  0  0  0  0  0  0  0  0  0
  138.8310   75.1880  221.2140 N   0  0  0  0  0  0  0  0  0  0  0  0
  139.9570   75.2060  220.3240 C   0  0  0  0  0  0  0  0  0  0  0  0
  141.1130   74.9740  221.3110 C   0  0  2  0  0  0  0  0  0  0  0  0
  140.8800   73.8010  221.9700 O   0  0  0  0  0  0  0  0  0  0  0  0
  140.7780   76.1170  222.2810 C   0  0  0  0  0  0  0  0  0  0  0  0
  139.2930   76.0820  222.3370 C   0  0  1  0  0  0  0  0  0  0  0  0
  138.6530   77.4090  222.0180 C   0  0  0  0  0  0  0  0  0  0  0  0
  139.0240   78.4850  222.7710 O   0  0  0  0  0  0  0  0  0  0  0  0
  140.2090   79.1050  222.8390 C   0  0  0  0  0  0  0  0  0  0  0  0
  141.0650   79.2090  223.9070 C   0  0  0  0  0  0  0  0  0  0  0  0
  142.2750   79.8920  223.8230 C   0  0  0  0  0  0  0  0  0  0  0  0
  142.6490   80.4890  222.6540 C   0  0  0  0  0  0  0  0  0  0  0  0
  141.8190   80.3940  221.6040 N   0  0  0  0  0  0  0  0  0  0  0  0
  140.6600   79.7470  221.6630 C   0  0  0  0  0  0  0  0  0  0  0  0
  139.3930   71.1610  223.8070 C   0  0  0  0  0  0  0  0  0  0  0  0
  140.3150   71.8570  224.5610 C   0  0  0  0  0  0  0  0  0  0  0  0
  140.8910   71.3450  225.7040 C   0  0  0  0  0  0  0  0  0  0  0  0
  140.5000   70.0730  226.0790 C   0  0  0  0  0  0  0  0  0  0  0  0
  141.0650   69.5340  227.2290 C   0  0  0  0  0  0  0  0  0  0  0  0
  140.6840   68.2690  227.6120 C   0  0  0  0  0  0  0  0  0  0  0  0
  139.7560   67.5660  226.8560 C   0  0  0  0  0  0  0  0  0  0  0  0
  139.1880   68.0900  225.7130 C   0  0  0  0  0  0  0  0  0  0  0  0
  139.5680   69.3590  225.3250 C   0  0  0  0  0  0  0  0  0  0  0  0
  139.0500   69.9250  224.2210 N   0  0  0  0  0  0  0  0  0  0  0  0
  137.3260   72.7890  223.6690 H   0  0  0  0  0  0  0  0  0  0  0  0
  137.1578   72.6532  220.7351 H   0  0  0  0  0  0  0  0  0  0  0  0
  136.0373   73.4722  221.9639 H   0  0  0  0  0  0  0  0  0  0  0  0
  139.8951   74.4005  219.5775 H   0  0  0  0  0  0  0  0  0  0  0  0
  140.0482   76.1246  219.7258 H   0  0  0  0  0  0  0  0  0  0  0  0
  142.1289   74.9420  220.8904 H   0  0  0  0  0  0  0  0  0  0  0  0
  140.2690   73.2180  221.4670 H   0  0  0  0  0  0  0  0  0  0  0  0
  141.2157   75.9345  223.2736 H   0  0  0  0  0  0  0  0  0  0  0  0
  141.1773   77.0902  221.9594 H   0  0  0  0  0  0  0  0  0  0  0  0
  139.0188   75.7639  223.3537 H   0  0  0  0  0  0  0  0  0  0  0  0
  138.8875   77.6442  220.9693 H   0  0  0  0  0  0  0  0  0  0  0  0
  137.5854   77.2659  222.2410 H   0  0  0  0  0  0  0  0  0  0  0  0
  140.7856   78.7371  224.8606 H   0  0  0  0  0  0  0  0  0  0  0  0
  142.9327   79.9508  224.7027 H   0  0  0  0  0  0  0  0  0  0  0  0
  143.6025   81.0319  222.5750 H   0  0  0  0  0  0  0  0  0  0  0  0
  140.0280   79.7095  220.7635 H   0  0  0  0  0  0  0  0  0  0  0  0
  140.6039   72.8671  224.2352 H   0  0  0  0  0  0  0  0  0  0  0  0
  141.6248   71.9196  226.2883 H   0  0  0  0  0  0  0  0  0  0  0  0
  141.7982   70.1046  227.8179 H   0  0  0  0  0  0  0  0  0  0  0  0
  141.1144   67.8148  228.5167 H   0  0  0  0  0  0  0  0  0  0  0  0
  139.4633   66.5562  227.1794 H   0  0  0  0  0  0  0  0  0  0  0  0
  138.4550   67.5142  225.1289 H   0  0  0  0  0  0  0  0  0  0  0  0
  1  2  2  0
  2  3  1  0
  3  4  1  0
  4  5  1  0
  5  6  2  0
  5  7  1  0
  7  8  1  0
  8  9  1  0
  9 10  1  0
  9 11  1  0
 11 12  1  0
 12 13  1  0
 13 14  1  0
 14 15  1  0
 15 16  2  0
 16 17  1  0
 17 18  2  0
 18 19  1  0
 19 20  2  0
  2 21  1  0
 21 22  2  0
 22 23  1  0
 23 24  2  0
 24 25  1  0
 25 26  2  0
 26 27  1  0
 27 28  2  0
 28 29  1  0
 29 30  2  0
 12  7  1  0
 20 15  1  0
 30 21  1  0
 29 24  1  0
  3 31  1  0
  4 32  1  0
  4 33  1  0
  8 34  1  0
  8 35  1  0
  9 36  1  6
 10 37  1  0
 11 38  1  0
 11 39  1  0
 12 40  1  1
 13 41  1  0
 13 42  1  0
 16 43  1  0
 17 44  1  0
 18 45  1  0
 20 46  1  0
 22 47  1  0
 23 48  1  0
 25 49  1  0
 26 50  1  0
 27 51  1  0
 28 52  1  0
M  END
>  <smiles>  (35) 
O=C(NCC(=O)N1C[C@H](O)C[C@H]1COc1cccnc1)c1ccc2ccccc2n1

>  <score_type>  (35) 
oracle

>  <origin>  (35) 
autodockgpu

>  <m_score__min__energy>  (35) 
-8.4399999999999995

>  <m_primary>  (35) 
energy

>  <rmsd>  (35) 
3.145426045785184

>  <m_score__min__rmsd>  (35) 
3.145426045785184

>  <meeko>  (35) 
{"free_energy": -7.68, "intermolecular_energy": -10.07, "internal_energy": -2.27, "cluster_size": 30, "cluster_id": 1, "rank_in_cluster": 19}

>  <energy>  (35) 
-7.74

>  <cluster_rmsd>  (35) 
0.0

>  <cluster>  (35) 
3

$$$$

     RDKit          3D

 52 55  0  0  0  0  0  0  0  0999 V2000
  138.1120   71.9050  221.1870 O   0  0  0  0  0  0  0  0  0  0  0  0
  137.8180   72.0990  222.3910 C   0  0  0  0  0  0  0  0  0  0  0  0
  137.0300   73.2360  222.7210 N   0  0  0  0  0  0  0  0  0  0  0  0
  136.5200   74.1960  221.8240 C   0  0  0  0  0  0  0  0  0  0  0  0
  137.4880   75.0310  221.1350 C   0  0  0  0  0  0  0  0  0  0  0  0
  136.8980   76.0170  220.4850 O   0  0  0  0  0  0  0  0  0  0  0  0
  138.8670   75.0160  221.0100 N   0  0  0  0  0  0  0  0  0  0  0  0
  139.8600   74.2460  220.3150 C   0  0  0  0  0  0  0  0  0  0  0  0
  140.8840   74.0110  221.4370 C   0  0  2  0  0  0  0  0  0  0  0  0
  140.2470   73.3860  222.4700 O   0  0  0  0  0  0  0  0  0  0  0  0
  141.0770   75.4800  221.8420 C   0  0  0  0  0  0  0  0  0  0  0  0
  139.7020   76.0360  221.7400 C   0  0  1  0  0  0  0  0  0  0  0  0
  139.6170   77.2580  220.8600 C   0  0  0  0  0  0  0  0  0  0  0  0
  140.6890   78.1010  220.8480 O   0  0  0  0  0  0  0  0  0  0  0  0
  141.2310   78.8010  221.8540 C   0  0  0  0  0  0  0  0  0  0  0  0
  141.2310   78.5150  223.1960 C   0  0  0  0  0  0  0  0  0  0  0  0
  141.8440   79.3460  224.1310 C   0  0  0  0  0  0  0  0  0  0  0  0
  142.4710   80.4890  223.7280 C   0  0  0  0  0  0  0  0  0  0  0  0
  142.4750   80.7780  222.4180 N   0  0  0  0  0  0  0  0  0  0  0  0
  141.8970   80.0000  221.5100 C   0  0  0  0  0  0  0  0  0  0  0  0
  138.2750   71.1780  223.4280 C   0  0  0  0  0  0  0  0  0  0  0  0
  137.4860   70.1000  223.7670 C   0  0  0  0  0  0  0  0  0  0  0  0
  137.8410   69.1820  224.7330 C   0  0  0  0  0  0  0  0  0  0  0  0
  139.0520   69.3880  225.3680 C   0  0  0  0  0  0  0  0  0  0  0  0
  139.4330   68.4780  226.3460 C   0  0  0  0  0  0  0  0  0  0  0  0
  140.6360   68.6720  226.9840 C   0  0  0  0  0  0  0  0  0  0  0  0
  141.4340   69.7560  226.6460 C   0  0  0  0  0  0  0  0  0  0  0  0
  141.0660   70.6680  225.6770 C   0  0  0  0  0  0  0  0  0  0  0  0
  139.8600   70.4760  225.0330 C   0  0  0  0  0  0  0  0  0  0  0  0
  139.4450   71.3290  224.0800 N   0  0  0  0  0  0  0  0  0  0  0  0
  136.8190   73.3500  223.7520 H   0  0  0  0  0  0  0  0  0  0  0  0
  135.9390   73.6603  221.0589 H   0  0  0  0  0  0  0  0  0  0  0  0
  135.9357   74.8889  222.4473 H   0  0  0  0  0  0  0  0  0  0  0  0
  139.4469   73.2982  219.9396 H   0  0  0  0  0  0  0  0  0  0  0  0
  140.2710   74.7365  219.4203 H   0  0  0  0  0  0  0  0  0  0  0  0
  141.7817   73.4304  221.1781 H   0  0  0  0  0  0  0  0  0  0  0  0
  139.9660   72.4760  222.2260 H   0  0  0  0  0  0  0  0  0  0  0  0
  141.4610   75.5600  222.8697 H   0  0  0  0  0  0  0  0  0  0  0  0
  141.8080   76.0111  221.2147 H   0  0  0  0  0  0  0  0  0  0  0  0
  139.3803   76.2823  222.7626 H   0  0  0  0  0  0  0  0  0  0  0  0
  139.4594   76.9107  219.8282 H   0  0  0  0  0  0  0  0  0  0  0  0
  138.7966   77.8539  221.2864 H   0  0  0  0  0  0  0  0  0  0  0  0
  140.7306   77.5996  223.5449 H   0  0  0  0  0  0  0  0  0  0  0  0
  141.8225   79.0798  225.1981 H   0  0  0  0  0  0  0  0  0  0  0  0
  142.9588   81.1539  224.4559 H   0  0  0  0  0  0  0  0  0  0  0  0
  141.9378   80.2991  220.4522 H   0  0  0  0  0  0  0  0  0  0  0  0
  136.5284   69.9656  223.2426 H   0  0  0  0  0  0  0  0  0  0  0  0
  137.1937   68.3292  224.9856 H   0  0  0  0  0  0  0  0  0  0  0  0
  138.7891   67.6241  226.6036 H   0  0  0  0  0  0  0  0  0  0  0  0
  140.9656   67.9679  227.7622 H   0  0  0  0  0  0  0  0  0  0  0  0
  142.3925   69.8932  227.1680 H   0  0  0  0  0  0  0  0  0  0  0  0
  141.7135   71.5210  225.4259 H   0  0  0  0  0  0  0  0  0  0  0  0
  1  2  2  0
  2  3  1  0
  3  4  1  0
  4  5  1  0
  5  6  2  0
  5  7  1  0
  7  8  1  0
  8  9  1  0
  9 10  1  0
  9 11  1  0
 11 12  1  0
 12 13  1  0
 13 14  1  0
 14 15  1  0
 15 16  2  0
 16 17  1  0
 17 18  2  0
 18 19  1  0
 19 20  2  0
  2 21  1  0
 21 22  2  0
 22 23  1  0
 23 24  2  0
 24 25  1  0
 25 26  2  0
 26 27  1  0
 27 28  2  0
 28 29  1  0
 29 30  2  0
 12  7  1  0
 20 15  1  0
 30 21  1  0
 29 24  1  0
  3 31  1  0
  4 32  1  0
  4 33  1  0
  8 34  1  0
  8 35  1  0
  9 36  1  6
 10 37  1  0
 11 38  1  0
 11 39  1  0
 12 40  1  1
 13 41  1  0
 13 42  1  0
 16 43  1  0
 17 44  1  0
 18 45  1  0
 20 46  1  0
 22 47  1  0
 23 48  1  0
 25 49  1  0
 26 50  1  0
 27 51  1  0
 28 52  1  0
M  END
>  <smiles>  (36) 
O=C(NCC(=O)N1C[C@H](O)C[C@H]1COc1cccnc1)c1ccc2ccccc2n1

>  <score_type>  (36) 
oracle

>  <origin>  (36) 
autodockgpu

>  <m_score__min__energy>  (36) 
-8.4399999999999995

>  <m_primary>  (36) 
energy

>  <rmsd>  (36) 
2.428588290143033

>  <m_score__min__rmsd>  (36) 
2.428588290143033

>  <meeko>  (36) 
{"free_energy": -6.84, "intermolecular_energy": -9.22, "internal_energy": -2.63, "cluster_size": 30, "cluster_id": 1, "rank_in_cluster": 30}

>  <energy>  (36) 
-7.72

>  <cluster_rmsd>  (36) 
0.69

>  <cluster>  (36) 
3

$$$$

     RDKit          3D

 52 55  0  0  0  0  0  0  0  0999 V2000
  140.4350   71.5530  221.1660 O   0  0  0  0  0  0  0  0  0  0  0  0
  140.0120   72.1020  222.2130 C   0  0  0  0  0  0  0  0  0  0  0  0
  139.5340   73.4380  222.1310 N   0  0  0  0  0  0  0  0  0  0  0  0
  139.4710   74.2400  220.9740 C   0  0  0  0  0  0  0  0  0  0  0  0
  140.3550   73.8840  219.8780 C   0  0  0  0  0  0  0  0  0  0  0  0
  139.6760   73.4610  218.8280 O   0  0  0  0  0  0  0  0  0  0  0  0
  141.7280   73.8860  219.7010 N   0  0  0  0  0  0  0  0  0  0  0  0
  142.7100   73.0970  219.0120 C   0  0  0  0  0  0  0  0  0  0  0  0
  143.7800   72.9420  220.1040 C   0  0  2  0  0  0  0  0  0  0  0  0
  143.1940   72.3630  221.1940 O   0  0  0  0  0  0  0  0  0  0  0  0
  143.9580   74.4340  220.4210 C   0  0  0  0  0  0  0  0  0  0  0  0
  142.5700   74.9600  220.3420 C   0  0  1  0  0  0  0  0  0  0  0  0
  142.4280   76.1290  219.4000 C   0  0  0  0  0  0  0  0  0  0  0  0
  141.5250   77.0970  219.7290 O   0  0  0  0  0  0  0  0  0  0  0  0
  141.4580   77.8550  220.8320 C   0  0  0  0  0  0  0  0  0  0  0  0
  141.8220   79.1680  220.9950 C   0  0  0  0  0  0  0  0  0  0  0  0
  141.6900   79.8280  222.2140 C   0  0  0  0  0  0  0  0  0  0  0  0
  141.1850   79.1740  223.3000 C   0  0  0  0  0  0  0  0  0  0  0  0
  140.8270   77.8890  223.1510 N   0  0  0  0  0  0  0  0  0  0  0  0
  140.9450   77.2410  221.9970 C   0  0  0  0  0  0  0  0  0  0  0  0
  140.0130   71.3830  223.4840 C   0  0  0  0  0  0  0  0  0  0  0  0
  139.4790   70.1130  223.5400 C   0  0  0  0  0  0  0  0  0  0  0  0
  139.4400   69.3640  224.6970 C   0  0  0  0  0  0  0  0  0  0  0  0
  139.9700   69.9490  225.8320 C   0  0  0  0  0  0  0  0  0  0  0  0
  139.9430   69.2160  227.0120 C   0  0  0  0  0  0  0  0  0  0  0  0
  140.4680   69.7870  228.1480 C   0  0  0  0  0  0  0  0  0  0  0  0
  141.0070   71.0650  228.0950 C   0  0  0  0  0  0  0  0  0  0  0  0
  141.0390   71.8040  226.9300 C   0  0  0  0  0  0  0  0  0  0  0  0
  140.5140   71.2340  225.7880 C   0  0  0  0  0  0  0  0  0  0  0  0
  140.5160   71.9020  224.6210 N   0  0  0  0  0  0  0  0  0  0  0  0
  139.1950   73.8490  223.0460 H   0  0  0  0  0  0  0  0  0  0  0  0
  138.4390   74.1969  220.5958 H   0  0  0  0  0  0  0  0  0  0  0  0
  139.8038   75.2371  221.2981 H   0  0  0  0  0  0  0  0  0  0  0  0
  142.3023   72.1227  218.7047 H   0  0  0  0  0  0  0  0  0  0  0  0
  143.0776   73.5454  218.0772 H   0  0  0  0  0  0  0  0  0  0  0  0
  144.6788   72.3643  219.8425 H   0  0  0  0  0  0  0  0  0  0  0  0
  142.2570   72.1240  221.0180 H   0  0  0  0  0  0  0  0  0  0  0  0
  144.3784   74.5770  221.4274 H   0  0  0  0  0  0  0  0  0  0  0  0
  144.6540   74.9425  219.7377 H   0  0  0  0  0  0  0  0  0  0  0  0
  142.2825   75.2576  221.3612 H   0  0  0  0  0  0  0  0  0  0  0  0
  143.4138   76.6108  219.3219 H   0  0  0  0  0  0  0  0  0  0  0  0
  142.0426   75.6918  218.4671 H   0  0  0  0  0  0  0  0  0  0  0  0
  142.2316   79.7172  220.1344 H   0  0  0  0  0  0  0  0  0  0  0  0
  141.9942   80.8814  222.3020 H   0  0  0  0  0  0  0  0  0  0  0  0
  141.0747   79.6844  224.2681 H   0  0  0  0  0  0  0  0  0  0  0  0
  140.6319   76.1877  221.9465 H   0  0  0  0  0  0  0  0  0  0  0  0
  139.0649   69.6771  222.6189 H   0  0  0  0  0  0  0  0  0  0  0  0
  139.0090   68.3521  224.7160 H   0  0  0  0  0  0  0  0  0  0  0  0
  139.5124   68.2041  227.0372 H   0  0  0  0  0  0  0  0  0  0  0  0
  140.4607   69.2314  229.0974 H   0  0  0  0  0  0  0  0  0  0  0  0
  141.4232   71.5041  229.0137 H   0  0  0  0  0  0  0  0  0  0  0  0
  141.4696   72.8161  226.9121 H   0  0  0  0  0  0  0  0  0  0  0  0
  1  2  2  0
  2  3  1  0
  3  4  1  0
  4  5  1  0
  5  6  2  0
  5  7  1  0
  7  8  1  0
  8  9  1  0
  9 10  1  0
  9 11  1  0
 11 12  1  0
 12 13  1  0
 13 14  1  0
 14 15  1  0
 15 16  2  0
 16 17  1  0
 17 18  2  0
 18 19  1  0
 19 20  2  0
  2 21  1  0
 21 22  2  0
 22 23  1  0
 23 24  2  0
 24 25  1  0
 25 26  2  0
 26 27  1  0
 27 28  2  0
 28 29  1  0
 29 30  2  0
 12  7  1  0
 20 15  1  0
 30 21  1  0
 29 24  1  0
  3 31  1  0
  4 32  1  0
  4 33  1  0
  8 34  1  0
  8 35  1  0
  9 36  1  6
 10 37  1  0
 11 38  1  0
 11 39  1  0
 12 40  1  1
 13 41  1  0
 13 42  1  0
 16 43  1  0
 17 44  1  0
 18 45  1  0
 20 46  1  0
 22 47  1  0
 23 48  1  0
 25 49  1  0
 26 50  1  0
 27 51  1  0
 28 52  1  0
M  END
>  <smiles>  (37) 
O=C(NCC(=O)N1C[C@H](O)C[C@H]1COc1cccnc1)c1ccc2ccccc2n1

>  <score_type>  (37) 
oracle

>  <origin>  (37) 
autodockgpu

>  <m_score__min__energy>  (37) 
-8.4399999999999995

>  <m_primary>  (37) 
energy

>  <rmsd>  (37) 
2.734732277975534

>  <m_score__min__rmsd>  (37) 
2.734732277975534

>  <meeko>  (37) 
{"free_energy": -7.08, "intermolecular_energy": -9.47, "internal_energy": -2.35, "cluster_size": 30, "cluster_id": 1, "rank_in_cluster": 29}

>  <energy>  (37) 
-7.7

>  <cluster_rmsd>  (37) 
1.32

>  <cluster>  (37) 
3

$$$$

     RDKit          3D

 52 55  0  0  0  0  0  0  0  0999 V2000
  139.5920   74.5800  222.3440 O   0  0  0  0  0  0  0  0  0  0  0  0
  140.6910   74.9620  221.8740 C   0  0  0  0  0  0  0  0  0  0  0  0
  141.6060   73.9790  221.4060 N   0  0  0  0  0  0  0  0  0  0  0  0
  141.4130   72.5830  221.4030 C   0  0  0  0  0  0  0  0  0  0  0  0
  140.1000   72.1020  221.0100 C   0  0  0  0  0  0  0  0  0  0  0  0
  139.9440   72.1390  219.7000 O   0  0  0  0  0  0  0  0  0  0  0  0
  138.9960   71.6280  221.6980 N   0  0  0  0  0  0  0  0  0  0  0  0
  137.6870   71.1260  221.3870 C   0  0  0  0  0  0  0  0  0  0  0  0
  136.8290   71.9030  222.3980 C   0  0  2  0  0  0  0  0  0  0  0  0
  137.0310   73.2370  222.1920 O   0  0  0  0  0  0  0  0  0  0  0  0
  137.6090   71.5130  223.6620 C   0  0  0  0  0  0  0  0  0  0  0  0
  139.0230   71.5450  223.2030 C   0  0  1  0  0  0  0  0  0  0  0  0
  139.7660   70.2610  223.4730 C   0  0  0  0  0  0  0  0  0  0  0  0
  139.8040   69.8130  224.7610 O   0  0  0  0  0  0  0  0  0  0  0  0
  140.2430   70.4360  225.8630 C   0  0  0  0  0  0  0  0  0  0  0  0
  140.9820   71.5880  225.9630 C   0  0  0  0  0  0  0  0  0  0  0  0
  141.3650   72.1190  227.1910 C   0  0  0  0  0  0  0  0  0  0  0  0
  141.0070   71.4960  228.3520 C   0  0  0  0  0  0  0  0  0  0  0  0
  140.2850   70.3690  228.2660 N   0  0  0  0  0  0  0  0  0  0  0  0
  139.9100   69.8450  227.1040 C   0  0  0  0  0  0  0  0  0  0  0  0
  141.0210   76.3830  221.8110 C   0  0  0  0  0  0  0  0  0  0  0  0
  141.2370   76.9700  220.5820 C   0  0  0  0  0  0  0  0  0  0  0  0
  141.5520   78.3040  220.4320 C   0  0  0  0  0  0  0  0  0  0  0  0
  141.6470   79.0530  221.5900 C   0  0  0  0  0  0  0  0  0  0  0  0
  141.9630   80.4010  221.4660 C   0  0  0  0  0  0  0  0  0  0  0  0
  142.0600   81.1560  222.6110 C   0  0  0  0  0  0  0  0  0  0  0  0
  141.8420   80.5690  223.8500 C   0  0  0  0  0  0  0  0  0  0  0  0
  141.5280   79.2320  223.9860 C   0  0  0  0  0  0  0  0  0  0  0  0
  141.4300   78.4700  222.8390 C   0  0  0  0  0  0  0  0  0  0  0  0
  141.1260   77.1620  222.9060 N   0  0  0  0  0  0  0  0  0  0  0  0
  142.5170   74.3610  221.0260 H   0  0  0  0  0  0  0  0  0  0  0  0
  142.1477   72.1474  220.7098 H   0  0  0  0  0  0  0  0  0  0  0  0
  141.5288   72.2752  222.4527 H   0  0  0  0  0  0  0  0  0  0  0  0
  137.4006   71.3585  220.3507 H   0  0  0  0  0  0  0  0  0  0  0  0
  137.5918   70.0323  221.4564 H   0  0  0  0  0  0  0  0  0  0  0  0
  135.7464   71.7087  222.3852 H   0  0  0  0  0  0  0  0  0  0  0  0
  137.7300   73.5950  222.7840 H   0  0  0  0  0  0  0  0  0  0  0  0
  137.4392   72.2383  224.4714 H   0  0  0  0  0  0  0  0  0  0  0  0
  137.3082   70.5387  224.0747 H   0  0  0  0  0  0  0  0  0  0  0  0
  139.5100   72.3817  223.7253 H   0  0  0  0  0  0  0  0  0  0  0  0
  139.2959   69.4744  222.8645 H   0  0  0  0  0  0  0  0  0  0  0  0
  140.8135   70.4864  223.2242 H   0  0  0  0  0  0  0  0  0  0  0  0
  141.2816   72.1091  225.0417 H   0  0  0  0  0  0  0  0  0  0  0  0
  141.9586   73.0444  227.2264 H   0  0  0  0  0  0  0  0  0  0  0  0
  141.3020   71.9063  229.3291 H   0  0  0  0  0  0  0  0  0  0  0  0
  139.3188   68.9174  227.1073 H   0  0  0  0  0  0  0  0  0  0  0  0
  141.1542   76.3456  219.6802 H   0  0  0  0  0  0  0  0  0  0  0  0
  141.7193   78.7499  219.4405 H   0  0  0  0  0  0  0  0  0  0  0  0
  142.1312   80.8522  220.4770 H   0  0  0  0  0  0  0  0  0  0  0  0
  142.3103   82.2251  222.5453 H   0  0  0  0  0  0  0  0  0  0  0  0
  141.9222   81.1906  224.7540 H   0  0  0  0  0  0  0  0  0  0  0  0
  141.3609   78.7871  224.9780 H   0  0  0  0  0  0  0  0  0  0  0  0
  1  2  2  0
  2  3  1  0
  3  4  1  0
  4  5  1  0
  5  6  2  0
  5  7  1  0
  7  8  1  0
  8  9  1  0
  9 10  1  0
  9 11  1  0
 11 12  1  0
 12 13  1  0
 13 14  1  0
 14 15  1  0
 15 16  2  0
 16 17  1  0
 17 18  2  0
 18 19  1  0
 19 20  2  0
  2 21  1  0
 21 22  2  0
 22 23  1  0
 23 24  2  0
 24 25  1  0
 25 26  2  0
 26 27  1  0
 27 28  2  0
 28 29  1  0
 29 30  2  0
 12  7  1  0
 20 15  1  0
 30 21  1  0
 29 24  1  0
  3 31  1  0
  4 32  1  0
  4 33  1  0
  8 34  1  0
  8 35  1  0
  9 36  1  1
 10 37  1  0
 11 38  1  0
 11 39  1  0
 12 40  1  1
 13 41  1  0
 13 42  1  0
 16 43  1  0
 17 44  1  0
 18 45  1  0
 20 46  1  0
 22 47  1  0
 23 48  1  0
 25 49  1  0
 26 50  1  0
 27 51  1  0
 28 52  1  0
M  END
>  <smiles>  (38) 
O=C(NCC(=O)N1C[C@H](O)C[C@H]1COc1cccnc1)c1ccc2ccccc2n1

>  <score_type>  (38) 
oracle

>  <origin>  (38) 
autodockgpu

>  <m_score__min__energy>  (38) 
-8.4399999999999995

>  <m_primary>  (38) 
energy

>  <rmsd>  (38) 
8.054856186916638

>  <m_score__min__rmsd>  (38) 
8.054856186916638

>  <meeko>  (38) 
{"free_energy": -7.53, "intermolecular_energy": -9.92, "internal_energy": -2.1, "cluster_size": 30, "cluster_id": 1, "rank_in_cluster": 21}

>  <energy>  (38) 
-7.62

>  <cluster_rmsd>  (38) 
0.93

>  <cluster>  (38) 
3

$$$$

     RDKit          3D

 52 55  0  0  0  0  0  0  0  0999 V2000
  139.4290   74.8870  222.3060 O   0  0  0  0  0  0  0  0  0  0  0  0
  140.4790   75.2230  221.7050 C   0  0  0  0  0  0  0  0  0  0  0  0
  141.2310   74.2150  221.0420 N   0  0  0  0  0  0  0  0  0  0  0  0
  140.9230   72.8420  220.9750 C   0  0  0  0  0  0  0  0  0  0  0  0
  140.2130   72.2710  222.1060 C   0  0  0  0  0  0  0  0  0  0  0  0
  140.9490   72.2980  223.2010 O   0  0  0  0  0  0  0  0  0  0  0  0
  138.9590   71.7110  222.2810 N   0  0  0  0  0  0  0  0  0  0  0  0
  137.7980   71.4380  221.4810 C   0  0  0  0  0  0  0  0  0  0  0  0
  136.6810   71.9510  222.4030 C   0  0  2  0  0  0  0  0  0  0  0  0
  136.9290   73.2640  222.6820 O   0  0  0  0  0  0  0  0  0  0  0  0
  137.0640   71.1400  223.6500 C   0  0  0  0  0  0  0  0  0  0  0  0
  138.5490   71.1840  223.6330 C   0  0  1  0  0  0  0  0  0  0  0  0
  139.1870   69.8200  223.6880 C   0  0  0  0  0  0  0  0  0  0  0  0
  139.5320   69.3340  224.9160 O   0  0  0  0  0  0  0  0  0  0  0  0
  139.9760   69.9930  225.9950 C   0  0  0  0  0  0  0  0  0  0  0  0
  139.6600   69.7910  227.3150 C   0  0  0  0  0  0  0  0  0  0  0  0
  140.2110   70.5620  228.3350 C   0  0  0  0  0  0  0  0  0  0  0  0
  141.0960   71.5590  228.0430 C   0  0  0  0  0  0  0  0  0  0  0  0
  141.4110   71.7650  226.7550 N   0  0  0  0  0  0  0  0  0  0  0  0
  140.8970   71.0410  225.7670 C   0  0  0  0  0  0  0  0  0  0  0  0
  140.9140   76.6170  221.6870 C   0  0  0  0  0  0  0  0  0  0  0  0
  141.1480   77.2340  220.4770 C   0  0  0  0  0  0  0  0  0  0  0  0
  141.5600   78.5450  220.3690 C   0  0  0  0  0  0  0  0  0  0  0  0
  141.7370   79.2390  221.5530 C   0  0  0  0  0  0  0  0  0  0  0  0
  142.1520   80.5630  221.4720 C   0  0  0  0  0  0  0  0  0  0  0  0
  142.3300   81.2630  222.6420 C   0  0  0  0  0  0  0  0  0  0  0  0
  142.0950   80.6440  223.8630 C   0  0  0  0  0  0  0  0  0  0  0  0
  141.6830   79.3310  223.9560 C   0  0  0  0  0  0  0  0  0  0  0  0
  141.5020   78.6250  222.7840 C   0  0  0  0  0  0  0  0  0  0  0  0
  141.1010   77.3410  222.8080 N   0  0  0  0  0  0  0  0  0  0  0  0
  142.1070   74.5570  220.5570 H   0  0  0  0  0  0  0  0  0  0  0  0
  140.3036   72.6839  220.0798 H   0  0  0  0  0  0  0  0  0  0  0  0
  141.8967   72.3305  220.9604 H   0  0  0  0  0  0  0  0  0  0  0  0
  137.8231   71.9908  220.5303 H   0  0  0  0  0  0  0  0  0  0  0  0
  137.6910   70.3852  221.1806 H   0  0  0  0  0  0  0  0  0  0  0  0
  135.6492   71.8619  222.0322 H   0  0  0  0  0  0  0  0  0  0  0  0
  137.8910   73.4390  222.7820 H   0  0  0  0  0  0  0  0  0  0  0  0
  136.6649   71.6061  224.5629 H   0  0  0  0  0  0  0  0  0  0  0  0
  136.6601   70.1168  223.6430 H   0  0  0  0  0  0  0  0  0  0  0  0
  138.8603   71.7830  224.5015 H   0  0  0  0  0  0  0  0  0  0  0  0
  138.4799   69.1073  223.2385 H   0  0  0  0  0  0  0  0  0  0  0  0
  140.1419   69.9359  223.1545 H   0  0  0  0  0  0  0  0  0  0  0  0
  138.9482   68.9939  227.5757 H   0  0  0  0  0  0  0  0  0  0  0  0
  139.9318   70.3667  229.3809 H   0  0  0  0  0  0  0  0  0  0  0  0
  141.5379   72.1754  228.8397 H   0  0  0  0  0  0  0  0  0  0  0  0
  141.1991   71.2652  224.7333 H   0  0  0  0  0  0  0  0  0  0  0  0
  140.9991   76.6533  219.5547 H   0  0  0  0  0  0  0  0  0  0  0  0
  141.7390   79.0157  219.3911 H   0  0  0  0  0  0  0  0  0  0  0  0
  142.3334   81.0387  220.4969 H   0  0  0  0  0  0  0  0  0  0  0  0
  142.6583   82.3124  222.6111 H   0  0  0  0  0  0  0  0  0  0  0  0
  142.2426   81.2209  224.7879 H   0  0  0  0  0  0  0  0  0  0  0  0
  141.5042   78.8609  224.9343 H   0  0  0  0  0  0  0  0  0  0  0  0
  1  2  2  0
  2  3  1  0
  3  4  1  0
  4  5  1  0
  5  6  2  0
  5  7  1  0
  7  8  1  0
  8  9  1  0
  9 10  1  0
  9 11  1  0
 11 12  1  0
 12 13  1  0
 13 14  1  0
 14 15  1  0
 15 16  2  0
 16 17  1  0
 17 18  2  0
 18 19  1  0
 19 20  2  0
  2 21  1  0
 21 22  2  0
 22 23  1  0
 23 24  2  0
 24 25  1  0
 25 26  2  0
 26 27  1  0
 27 28  2  0
 28 29  1  0
 29 30  2  0
 12  7  1  0
 20 15  1  0
 30 21  1  0
 29 24  1  0
  3 31  1  0
  4 32  1  0
  4 33  1  0
  8 34  1  0
  8 35  1  0
  9 36  1  6
 10 37  1  0
 11 38  1  0
 11 39  1  0
 12 40  1  1
 13 41  1  0
 13 42  1  0
 16 43  1  0
 17 44  1  0
 18 45  1  0
 20 46  1  0
 22 47  1  0
 23 48  1  0
 25 49  1  0
 26 50  1  0
 27 51  1  0
 28 52  1  0
M  END
>  <smiles>  (39) 
O=C(NCC(=O)N1C[C@H](O)C[C@H]1COc1cccnc1)c1ccc2ccccc2n1

>  <score_type>  (39) 
oracle

>  <origin>  (39) 
autodockgpu

>  <m_score__min__energy>  (39) 
-8.4399999999999995

>  <m_primary>  (39) 
energy

>  <rmsd>  (39) 
8.199079377480999

>  <m_score__min__rmsd>  (39) 
8.199079377480999

>  <meeko>  (39) 
{"free_energy": -7.97, "intermolecular_energy": -10.36, "internal_energy": -2.04, "cluster_size": 30, "cluster_id": 1, "rank_in_cluster": 13}

>  <energy>  (39) 
-7.58

>  <cluster_rmsd>  (39) 
1.05

>  <cluster>  (39) 
3

$$$$

     RDKit          3D

 52 55  0  0  0  0  0  0  0  0999 V2000
  138.2920   72.1520  222.4260 O   0  0  0  0  0  0  0  0  0  0  0  0
  139.4260   71.9320  222.9190 C   0  0  0  0  0  0  0  0  0  0  0  0
  140.5430   72.6310  222.3870 N   0  0  0  0  0  0  0  0  0  0  0  0
  140.5250   73.5760  221.3410 C   0  0  0  0  0  0  0  0  0  0  0  0
  140.2990   74.9630  221.7120 C   0  0  0  0  0  0  0  0  0  0  0  0
  141.4350   75.5840  221.9700 O   0  0  0  0  0  0  0  0  0  0  0  0
  139.1740   75.7570  221.8550 N   0  0  0  0  0  0  0  0  0  0  0  0
  138.4010   76.3170  222.9270 C   0  0  0  0  0  0  0  0  0  0  0  0
  136.9740   75.9850  222.4640 C   0  0  2  0  0  0  0  0  0  0  0  0
  136.8860   74.6320  222.2960 O   0  0  0  0  0  0  0  0  0  0  0  0
  137.0680   76.6120  221.0650 C   0  0  0  0  0  0  0  0  0  0  0  0
  138.4470   76.2630  220.6350 C   0  0  1  0  0  0  0  0  0  0  0  0
  139.2610   77.4590  220.2110 C   0  0  0  0  0  0  0  0  0  0  0  0
  139.3610   78.4970  221.0910 O   0  0  0  0  0  0  0  0  0  0  0  0
  140.4410   78.9640  221.7320 C   0  0  0  0  0  0  0  0  0  0  0  0
  141.4620   79.7390  221.2430 C   0  0  0  0  0  0  0  0  0  0  0  0
  142.5260   80.1520  222.0410 C   0  0  0  0  0  0  0  0  0  0  0  0
  142.5830   79.7890  223.3550 C   0  0  0  0  0  0  0  0  0  0  0  0
  141.5890   79.0300  223.8430 N   0  0  0  0  0  0  0  0  0  0  0  0
  140.5660   78.6250  223.0990 C   0  0  0  0  0  0  0  0  0  0  0  0
  139.5890   70.9800  224.0140 C   0  0  0  0  0  0  0  0  0  0  0  0
  139.1070   69.6960  223.8680 C   0  0  0  0  0  0  0  0  0  0  0  0
  139.2200   68.7360  224.8500 C   0  0  0  0  0  0  0  0  0  0  0  0
  139.8500   69.1160  226.0210 C   0  0  0  0  0  0  0  0  0  0  0  0
  139.9760   68.1650  227.0270 C   0  0  0  0  0  0  0  0  0  0  0  0
  140.6020   68.5320  228.1950 C   0  0  0  0  0  0  0  0  0  0  0  0
  141.0890   69.8230  228.3460 C   0  0  0  0  0  0  0  0  0  0  0  0
  140.9690   70.7760  227.3540 C   0  0  0  0  0  0  0  0  0  0  0  0
  140.3420   70.4120  226.1800 C   0  0  0  0  0  0  0  0  0  0  0  0
  140.1950   71.2940  225.1760 N   0  0  0  0  0  0  0  0  0  0  0  0
  141.4720   72.4010  222.8390 H   0  0  0  0  0  0  0  0  0  0  0  0
  141.4969   73.5232  220.8286 H   0  0  0  0  0  0  0  0  0  0  0  0
  139.6597   73.3004  220.7203 H   0  0  0  0  0  0  0  0  0  0  0  0
  138.6359   75.8365  223.8882 H   0  0  0  0  0  0  0  0  0  0  0  0
  138.5823   77.3871  223.1058 H   0  0  0  0  0  0  0  0  0  0  0  0
  136.1502   76.3108  223.1160 H   0  0  0  0  0  0  0  0  0  0  0  0
  137.6170   74.1610  222.7550 H   0  0  0  0  0  0  0  0  0  0  0  0
  136.3200   76.1772  220.3857 H   0  0  0  0  0  0  0  0  0  0  0  0
  136.8733   77.6946  221.0609 H   0  0  0  0  0  0  0  0  0  0  0  0
  138.3507   75.5546  219.7990 H   0  0  0  0  0  0  0  0  0  0  0  0
  140.2813   77.1055  220.0011 H   0  0  0  0  0  0  0  0  0  0  0  0
  138.7201   77.8744  219.3479 H   0  0  0  0  0  0  0  0  0  0  0  0
  141.4395   80.0441  220.1864 H   0  0  0  0  0  0  0  0  0  0  0  0
  143.3243   80.7739  221.6099 H   0  0  0  0  0  0  0  0  0  0  0  0
  143.4184   80.1087  223.9953 H   0  0  0  0  0  0  0  0  0  0  0  0
  139.7870   78.0027  223.5636 H   0  0  0  0  0  0  0  0  0  0  0  0
  138.6097   69.4260  222.9247 H   0  0  0  0  0  0  0  0  0  0  0  0
  138.8284   67.7177  224.7095 H   0  0  0  0  0  0  0  0  0  0  0  0
  139.5852   67.1456  226.8922 H   0  0  0  0  0  0  0  0  0  0  0  0
  140.7169   67.8022  229.0100 H   0  0  0  0  0  0  0  0  0  0  0  0
  141.5874   70.0962  229.2878 H   0  0  0  0  0  0  0  0  0  0  0  0
  141.3611   71.7940  227.4953 H   0  0  0  0  0  0  0  0  0  0  0  0
  1  2  2  0
  2  3  1  0
  3  4  1  0
  4  5  1  0
  5  6  2  0
  5  7  1  0
  7  8  1  0
  8  9  1  0
  9 10  1  0
  9 11  1  0
 11 12  1  0
 12 13  1  0
 13 14  1  0
 14 15  1  0
 15 16  2  0
 16 17  1  0
 17 18  2  0
 18 19  1  0
 19 20  2  0
  2 21  1  0
 21 22  2  0
 22 23  1  0
 23 24  2  0
 24 25  1  0
 25 26  2  0
 26 27  1  0
 27 28  2  0
 28 29  1  0
 29 30  2  0
 12  7  1  0
 20 15  1  0
 30 21  1  0
 29 24  1  0
  3 31  1  0
  4 32  1  0
  4 33  1  0
  8 34  1  0
  8 35  1  0
  9 36  1  1
 10 37  1  0
 11 38  1  0
 11 39  1  0
 12 40  1  6
 13 41  1  0
 13 42  1  0
 16 43  1  0
 17 44  1  0
 18 45  1  0
 20 46  1  0
 22 47  1  0
 23 48  1  0
 25 49  1  0
 26 50  1  0
 27 51  1  0
 28 52  1  0
M  END
>  <smiles>  (40) 
O=C(NCC(=O)N1C[C@H](O)C[C@H]1COc1cccnc1)c1ccc2ccccc2n1

>  <score_type>  (40) 
oracle

>  <origin>  (40) 
autodockgpu

>  <m_score__min__energy>  (40) 
-8.4399999999999995

>  <m_primary>  (40) 
energy

>  <rmsd>  (40) 
2.9936848020538602

>  <m_score__min__rmsd>  (40) 
2.9936848020538602

>  <meeko>  (40) 
{"free_energy": -7.14, "intermolecular_energy": -9.53, "internal_energy": -2.43, "cluster_size": 30, "cluster_id": 1, "rank_in_cluster": 28}

>  <energy>  (40) 
-7.54

>  <cluster_rmsd>  (40) 
0.99

>  <cluster>  (40) 
3

$$$$

     RDKit          3D

 52 55  0  0  0  0  0  0  0  0999 V2000
  140.0070   71.2550  221.3260 O   0  0  0  0  0  0  0  0  0  0  0  0
  139.8800   71.8750  222.4100 C   0  0  0  0  0  0  0  0  0  0  0  0
  139.6640   73.2790  222.3650 N   0  0  0  0  0  0  0  0  0  0  0  0
  139.5680   74.0800  221.2100 C   0  0  0  0  0  0  0  0  0  0  0  0
  139.5270   75.5180  221.4070 C   0  0  0  0  0  0  0  0  0  0  0  0
  139.6470   75.8330  222.6840 O   0  0  0  0  0  0  0  0  0  0  0  0
  139.3880   76.6090  220.5660 N   0  0  0  0  0  0  0  0  0  0  0  0
  138.5420   77.7640  220.4580 C   0  0  0  0  0  0  0  0  0  0  0  0
  138.1960   77.7330  218.9610 C   0  0  2  0  0  0  0  0  0  0  0  0
  137.6140   76.5290  218.6830 O   0  0  0  0  0  0  0  0  0  0  0  0
  139.6340   77.6800  218.4250 C   0  0  0  0  0  0  0  0  0  0  0  0
  140.3150   76.7770  219.3890 C   0  0  1  0  0  0  0  0  0  0  0  0
  141.5540   77.3830  220.0000 C   0  0  0  0  0  0  0  0  0  0  0  0
  141.5480   77.6070  221.3460 O   0  0  0  0  0  0  0  0  0  0  0  0
  141.7590   78.7460  222.0180 C   0  0  0  0  0  0  0  0  0  0  0  0
  141.9220   80.0170  221.5250 C   0  0  0  0  0  0  0  0  0  0  0  0
  142.1330   81.1130  222.3580 C   0  0  0  0  0  0  0  0  0  0  0  0
  142.1840   80.9490  223.7120 C   0  0  0  0  0  0  0  0  0  0  0  0
  142.0270   79.7110  224.2030 N   0  0  0  0  0  0  0  0  0  0  0  0
  141.8250   78.6520  223.4270 C   0  0  0  0  0  0  0  0  0  0  0  0
  139.9530   71.1680  223.6850 C   0  0  0  0  0  0  0  0  0  0  0  0
  139.5120   69.8630  223.7580 C   0  0  0  0  0  0  0  0  0  0  0  0
  139.5440   69.1230  224.9200 C   0  0  0  0  0  0  0  0  0  0  0  0
  140.0490   69.7530  226.0430 C   0  0  0  0  0  0  0  0  0  0  0  0
  140.0930   69.0280  227.2280 C   0  0  0  0  0  0  0  0  0  0  0  0
  140.5930   69.6450  228.3510 C   0  0  0  0  0  0  0  0  0  0  0  0
  141.0390   70.9580  228.2820 C   0  0  0  0  0  0  0  0  0  0  0  0
  140.9990   71.6880  227.1110 C   0  0  0  0  0  0  0  0  0  0  0  0
  140.4980   71.0730  225.9820 C   0  0  0  0  0  0  0  0  0  0  0  0
  140.4350   71.7300  224.8100 N   0  0  0  0  0  0  0  0  0  0  0  0
  139.5700   73.7470  223.3100 H   0  0  0  0  0  0  0  0  0  0  0  0
  140.4398   73.8564  220.5776 H   0  0  0  0  0  0  0  0  0  0  0  0
  138.5949   73.8246  220.7652 H   0  0  0  0  0  0  0  0  0  0  0  0
  137.6422   77.6658  221.0830 H   0  0  0  0  0  0  0  0  0  0  0  0
  139.0075   78.7012  220.7971 H   0  0  0  0  0  0  0  0  0  0  0  0
  137.5400   78.5320  218.5850 H   0  0  0  0  0  0  0  0  0  0  0  0
  137.3250   76.0680  219.5020 H   0  0  0  0  0  0  0  0  0  0  0  0
  139.6617   77.2649  217.4067 H   0  0  0  0  0  0  0  0  0  0  0  0
  140.1062   78.6706  218.3500 H   0  0  0  0  0  0  0  0  0  0  0  0
  140.5724   75.8592  218.8401 H   0  0  0  0  0  0  0  0  0  0  0  0
  142.3934   76.7062  219.7824 H   0  0  0  0  0  0  0  0  0  0  0  0
  141.6275   78.3840  219.5498 H   0  0  0  0  0  0  0  0  0  0  0  0
  141.8847   80.1747  220.4370 H   0  0  0  0  0  0  0  0  0  0  0  0
  142.2591   82.1153  221.9227 H   0  0  0  0  0  0  0  0  0  0  0  0
  142.3490   81.8068  224.3806 H   0  0  0  0  0  0  0  0  0  0  0  0
  141.7046   77.6654  223.8982 H   0  0  0  0  0  0  0  0  0  0  0  0
  139.1165   69.3912  222.8464 H   0  0  0  0  0  0  0  0  0  0  0  0
  139.1859   68.0834  224.9528 H   0  0  0  0  0  0  0  0  0  0  0  0
  139.7372   67.9878  227.2667 H   0  0  0  0  0  0  0  0  0  0  0  0
  140.6395   69.0979  229.3042 H   0  0  0  0  0  0  0  0  0  0  0  0
  141.4376   71.4325  229.1908 H   0  0  0  0  0  0  0  0  0  0  0  0
  141.3556   72.7281  227.0790 H   0  0  0  0  0  0  0  0  0  0  0  0
  1  2  2  0
  2  3  1  0
  3  4  1  0
  4  5  1  0
  5  6  2  0
  5  7  1  0
  7  8  1  0
  8  9  1  0
  9 10  1  0
  9 11  1  0
 11 12  1  0
 12 13  1  0
 13 14  1  0
 14 15  1  0
 15 16  2  0
 16 17  1  0
 17 18  2  0
 18 19  1  0
 19 20  2  0
  2 21  1  0
 21 22  2  0
 22 23  1  0
 23 24  2  0
 24 25  1  0
 25 26  2  0
 26 27  1  0
 27 28  2  0
 28 29  1  0
 29 30  2  0
 12  7  1  0
 20 15  1  0
 30 21  1  0
 29 24  1  0
  3 31  1  0
  4 32  1  0
  4 33  1  0
  8 34  1  0
  8 35  1  0
  9 36  1  6
 10 37  1  0
 11 38  1  0
 11 39  1  0
 12 40  1  6
 13 41  1  0
 13 42  1  0
 16 43  1  0
 17 44  1  0
 18 45  1  0
 20 46  1  0
 22 47  1  0
 23 48  1  0
 25 49  1  0
 26 50  1  0
 27 51  1  0
 28 52  1  0
M  END
>  <smiles>  (41) 
O=C(NCC(=O)N1C[C@H](O)C[C@H]1COc1cccnc1)c1ccc2ccccc2n1

>  <score_type>  (41) 
oracle

>  <origin>  (41) 
autodockgpu

>  <m_score__min__energy>  (41) 
-8.4399999999999995

>  <m_primary>  (41) 
energy

>  <rmsd>  (41) 
1.8389490915808682

>  <m_score__min__rmsd>  (41) 
1.8389490915808682

>  <meeko>  (41) 
{"free_energy": -7.28, "intermolecular_energy": -9.67, "internal_energy": -2.2, "cluster_size": 30, "cluster_id": 1, "rank_in_cluster": 25}

>  <energy>  (41) 
-7.4

>  <cluster_rmsd>  (41) 
1.09

>  <cluster>  (41) 
3

$$$$

     RDKit          3D

 52 55  0  0  0  0  0  0  0  0999 V2000
  139.5310   70.8690  221.2020 O   0  0  0  0  0  0  0  0  0  0  0  0
  140.0070   71.5140  222.1670 C   0  0  0  0  0  0  0  0  0  0  0  0
  140.5620   72.7980  221.9160 N   0  0  0  0  0  0  0  0  0  0  0  0
  140.6360   73.4540  220.6700 C   0  0  0  0  0  0  0  0  0  0  0  0
  141.1580   74.8090  220.6700 C   0  0  0  0  0  0  0  0  0  0  0  0
  141.3510   75.2520  221.8990 O   0  0  0  0  0  0  0  0  0  0  0  0
  141.4870   75.7210  219.6820 N   0  0  0  0  0  0  0  0  0  0  0  0
  141.3310   75.8460  218.2600 C   0  0  0  0  0  0  0  0  0  0  0  0
  142.7440   76.2900  217.8490 C   0  0  2  0  0  0  0  0  0  0  0  0
  143.6300   75.3450  218.2810 O   0  0  0  0  0  0  0  0  0  0  0  0
  142.8590   77.4910  218.8010 C   0  0  0  0  0  0  0  0  0  0  0  0
  142.2050   76.9970  220.0410 C   0  0  1  0  0  0  0  0  0  0  0  0
  141.1000   77.8980  220.5310 C   0  0  0  0  0  0  0  0  0  0  0  0
  141.0380   78.1470  221.8710 O   0  0  0  0  0  0  0  0  0  0  0  0
  141.5650   79.1610  222.5710 C   0  0  0  0  0  0  0  0  0  0  0  0
  142.8840   79.4160  222.8510 C   0  0  0  0  0  0  0  0  0  0  0  0
  143.2820   80.5230  223.5970 C   0  0  0  0  0  0  0  0  0  0  0  0
  142.3530   81.3980  224.0800 C   0  0  0  0  0  0  0  0  0  0  0  0
  141.0610   81.1560  223.8120 N   0  0  0  0  0  0  0  0  0  0  0  0
  140.6600   80.1070  223.1030 C   0  0  0  0  0  0  0  0  0  0  0  0
  139.9900   70.9560  223.5170 C   0  0  0  0  0  0  0  0  0  0  0  0
  139.3940   69.7320  223.7320 C   0  0  0  0  0  0  0  0  0  0  0  0
  139.3330   69.1330  224.9730 C   0  0  0  0  0  0  0  0  0  0  0  0
  139.9080   69.8240  226.0240 C   0  0  0  0  0  0  0  0  0  0  0  0
  139.8610   69.2430  227.2850 C   0  0  0  0  0  0  0  0  0  0  0  0
  140.4290   69.9210  228.3370 C   0  0  0  0  0  0  0  0  0  0  0  0
  141.0310   71.1540  228.1250 C   0  0  0  0  0  0  0  0  0  0  0  0
  141.0830   71.7420  226.8770 C   0  0  0  0  0  0  0  0  0  0  0  0
  140.5140   71.0640  225.8180 C   0  0  0  0  0  0  0  0  0  0  0  0
  140.5340   71.5840  224.5780 N   0  0  0  0  0  0  0  0  0  0  0  0
  140.9520   73.2920  222.7670 H   0  0  0  0  0  0  0  0  0  0  0  0
  141.2803   72.8499  220.0143 H   0  0  0  0  0  0  0  0  0  0  0  0
  139.5929   73.5490  220.3340 H   0  0  0  0  0  0  0  0  0  0  0  0
  141.0585   74.8859  217.7974 H   0  0  0  0  0  0  0  0  0  0  0  0
  140.5308   76.5342  217.9499 H   0  0  0  0  0  0  0  0  0  0  0  0
  142.9182   76.4676  216.7775 H   0  0  0  0  0  0  0  0  0  0  0  0
  144.5360   75.5110  217.9380 H   0  0  0  0  0  0  0  0  0  0  0  0
  143.9120   77.7501  218.9854 H   0  0  0  0  0  0  0  0  0  0  0  0
  142.3977   78.4065  218.4023 H   0  0  0  0  0  0  0  0  0  0  0  0
  142.9916   76.9116  220.8052 H   0  0  0  0  0  0  0  0  0  0  0  0
  141.2135   78.8659  220.0209 H   0  0  0  0  0  0  0  0  0  0  0  0
  140.1721   77.3525  220.3040 H   0  0  0  0  0  0  0  0  0  0  0  0
  143.6516   78.7240  222.4743 H   0  0  0  0  0  0  0  0  0  0  0  0
  144.3502   80.6926  223.7977 H   0  0  0  0  0  0  0  0  0  0  0  0
  142.6544   82.2753  224.6712 H   0  0  0  0  0  0  0  0  0  0  0  0
  139.5835   79.9695  222.9232 H   0  0  0  0  0  0  0  0  0  0  0  0
  138.9463   69.2086  222.8743 H   0  0  0  0  0  0  0  0  0  0  0  0
  138.8513   68.1550  225.1194 H   0  0  0  0  0  0  0  0  0  0  0  0
  139.3813   68.2650  227.4377 H   0  0  0  0  0  0  0  0  0  0  0  0
  140.4066   69.4866  229.3473 H   0  0  0  0  0  0  0  0  0  0  0  0
  141.4815   71.6798  228.9798 H   0  0  0  0  0  0  0  0  0  0  0  0
  141.5632   72.7208  226.7311 H   0  0  0  0  0  0  0  0  0  0  0  0
  1  2  2  0
  2  3  1  0
  3  4  1  0
  4  5  1  0
  5  6  2  0
  5  7  1  0
  7  8  1  0
  8  9  1  0
  9 10  1  0
  9 11  1  0
 11 12  1  0
 12 13  1  0
 13 14  1  0
 14 15  1  0
 15 16  2  0
 16 17  1  0
 17 18  2  0
 18 19  1  0
 19 20  2  0
  2 21  1  0
 21 22  2  0
 22 23  1  0
 23 24  2  0
 24 25  1  0
 25 26  2  0
 26 27  1  0
 27 28  2  0
 28 29  1  0
 29 30  2  0
 12  7  1  0
 20 15  1  0
 30 21  1  0
 29 24  1  0
  3 31  1  0
  4 32  1  0
  4 33  1  0
  8 34  1  0
  8 35  1  0
  9 36  1  6
 10 37  1  0
 11 38  1  0
 11 39  1  0
 12 40  1  1
 13 41  1  0
 13 42  1  0
 16 43  1  0
 17 44  1  0
 18 45  1  0
 20 46  1  0
 22 47  1  0
 23 48  1  0
 25 49  1  0
 26 50  1  0
 27 51  1  0
 28 52  1  0
M  END
>  <smiles>  (42) 
O=C(NCC(=O)N1C[C@H](O)C[C@H]1COc1cccnc1)c1ccc2ccccc2n1

>  <score_type>  (42) 
oracle

>  <origin>  (42) 
autodockgpu

>  <m_score__min__energy>  (42) 
-8.4399999999999995

>  <m_primary>  (42) 
energy

>  <rmsd>  (42) 
1.7285402704254025

>  <m_score__min__rmsd>  (42) 
1.7285402704254025

>  <meeko>  (42) 
{"free_energy": -8.06, "intermolecular_energy": -10.45, "internal_energy": -1.97, "cluster_size": 30, "cluster_id": 1, "rank_in_cluster": 9}

>  <energy>  (42) 
-7.34

>  <cluster_rmsd>  (42) 
1.16

>  <cluster>  (42) 
3

$$$$

     RDKit          3D

 52 55  0  0  0  0  0  0  0  0999 V2000
  140.9120   71.5530  221.4020 O   0  0  0  0  0  0  0  0  0  0  0  0
  140.3110   72.0580  222.3820 C   0  0  0  0  0  0  0  0  0  0  0  0
  139.7220   73.3420  222.2270 N   0  0  0  0  0  0  0  0  0  0  0  0
  139.7290   74.1370  221.0630 C   0  0  0  0  0  0  0  0  0  0  0  0
  140.9220   74.9260  220.8130 C   0  0  0  0  0  0  0  0  0  0  0  0
  141.5210   75.2660  221.9390 O   0  0  0  0  0  0  0  0  0  0  0  0
  141.5520   75.3950  219.6730 N   0  0  0  0  0  0  0  0  0  0  0  0
  141.6750   75.0110  218.2950 C   0  0  0  0  0  0  0  0  0  0  0  0
  143.1880   75.1740  218.0800 C   0  0  2  0  0  0  0  0  0  0  0  0
  143.8340   74.3860  218.9880 O   0  0  0  0  0  0  0  0  0  0  0  0
  143.3030   76.6250  218.5720 C   0  0  0  0  0  0  0  0  0  0  0  0
  142.3720   76.6590  219.7300 C   0  0  1  0  0  0  0  0  0  0  0  0
  141.3400   77.7540  219.6320 C   0  0  0  0  0  0  0  0  0  0  0  0
  141.6710   78.9790  220.1340 O   0  0  0  0  0  0  0  0  0  0  0  0
  141.8050   79.3650  221.4100 C   0  0  0  0  0  0  0  0  0  0  0  0
  142.2200   80.5780  221.9010 C   0  0  0  0  0  0  0  0  0  0  0  0
  142.3070   80.8330  223.2670 C   0  0  0  0  0  0  0  0  0  0  0  0
  141.9750   79.8660  224.1710 C   0  0  0  0  0  0  0  0  0  0  0  0
  141.5690   78.6760  223.7000 N   0  0  0  0  0  0  0  0  0  0  0  0
  141.4790   78.4120  222.4020 C   0  0  0  0  0  0  0  0  0  0  0  0
  140.2210   71.3400  223.6500 C   0  0  0  0  0  0  0  0  0  0  0  0
  139.6290   70.0950  223.6790 C   0  0  0  0  0  0  0  0  0  0  0  0
  139.5030   69.3490  224.8320 C   0  0  0  0  0  0  0  0  0  0  0  0
  140.0050   69.9100  225.9920 C   0  0  0  0  0  0  0  0  0  0  0  0
  139.8910   69.1790  227.1680 C   0  0  0  0  0  0  0  0  0  0  0  0
  140.3870   69.7270  228.3270 C   0  0  0  0  0  0  0  0  0  0  0  0
  140.9840   70.9800  228.3020 C   0  0  0  0  0  0  0  0  0  0  0  0
  141.1030   71.7160  227.1410 C   0  0  0  0  0  0  0  0  0  0  0  0
  140.6070   71.1690  225.9750 C   0  0  0  0  0  0  0  0  0  0  0  0
  140.6930   71.8370  224.8100 N   0  0  0  0  0  0  0  0  0  0  0  0
  139.2340   73.7170  223.0880 H   0  0  0  0  0  0  0  0  0  0  0  0
  139.5874   73.4669  220.2022 H   0  0  0  0  0  0  0  0  0  0  0  0
  138.9253   74.8727  221.2137 H   0  0  0  0  0  0  0  0  0  0  0  0
  141.3538   73.9712  218.1350 H   0  0  0  0  0  0  0  0  0  0  0  0
  141.0526   75.5975  217.6032 H   0  0  0  0  0  0  0  0  0  0  0  0
  143.5766   74.9416  217.0775 H   0  0  0  0  0  0  0  0  0  0  0  0
  144.8060   74.5280  218.9670 H   0  0  0  0  0  0  0  0  0  0  0  0
  144.3319   76.8562  218.8848 H   0  0  0  0  0  0  0  0  0  0  0  0
  143.0589   77.3666  217.7971 H   0  0  0  0  0  0  0  0  0  0  0  0
  142.9871   76.7970  220.6314 H   0  0  0  0  0  0  0  0  0  0  0  0
  141.1021   77.8880  218.5664 H   0  0  0  0  0  0  0  0  0  0  0  0
  140.5058   77.4097  220.2610 H   0  0  0  0  0  0  0  0  0  0  0  0
  142.4925   81.3740  221.1925 H   0  0  0  0  0  0  0  0  0  0  0  0
  142.6450   81.8187  223.6193 H   0  0  0  0  0  0  0  0  0  0  0  0
  142.0381   80.0557  225.2527 H   0  0  0  0  0  0  0  0  0  0  0  0
  141.1382   77.4148  222.0867 H   0  0  0  0  0  0  0  0  0  0  0  0
  139.2392   69.6775  222.7389 H   0  0  0  0  0  0  0  0  0  0  0  0
  139.0270   68.3573  224.8291 H   0  0  0  0  0  0  0  0  0  0  0  0
  139.4159   68.1869  227.1715 H   0  0  0  0  0  0  0  0  0  0  0  0
  140.3108   69.1727  229.2741 H   0  0  0  0  0  0  0  0  0  0  0  0
  141.3756   71.4006  229.2400 H   0  0  0  0  0  0  0  0  0  0  0  0
  141.5784   72.7079  227.1446 H   0  0  0  0  0  0  0  0  0  0  0  0
  1  2  2  0
  2  3  1  0
  3  4  1  0
  4  5  1  0
  5  6  2  0
  5  7  1  0
  7  8  1  0
  8  9  1  0
  9 10  1  0
  9 11  1  0
 11 12  1  0
 12 13  1  0
 13 14  1  0
 14 15  1  0
 15 16  2  0
 16 17  1  0
 17 18  2  0
 18 19  1  0
 19 20  2  0
  2 21  1  0
 21 22  2  0
 22 23  1  0
 23 24  2  0
 24 25  1  0
 25 26  2  0
 26 27  1  0
 27 28  2  0
 28 29  1  0
 29 30  2  0
 12  7  1  0
 20 15  1  0
 30 21  1  0
 29 24  1  0
  3 31  1  0
  4 32  1  0
  4 33  1  0
  8 34  1  0
  8 35  1  0
  9 36  1  6
 10 37  1  0
 11 38  1  0
 11 39  1  0
 12 40  1  1
 13 41  1  0
 13 42  1  0
 16 43  1  0
 17 44  1  0
 18 45  1  0
 20 46  1  0
 22 47  1  0
 23 48  1  0
 25 49  1  0
 26 50  1  0
 27 51  1  0
 28 52  1  0
M  END
>  <smiles>  (43) 
O=C(NCC(=O)N1C[C@H](O)C[C@H]1COc1cccnc1)c1ccc2ccccc2n1

>  <score_type>  (43) 
oracle

>  <origin>  (43) 
autodockgpu

>  <m_score__min__energy>  (43) 
-8.4399999999999995

>  <m_primary>  (43) 
energy

>  <rmsd>  (43) 
1.7816039416470182

>  <m_score__min__rmsd>  (43) 
1.7816039416470182

>  <meeko>  (43) 
{"free_energy": -8.3, "intermolecular_energy": -10.69, "internal_energy": -1.42, "cluster_size": 30, "cluster_id": 1, "rank_in_cluster": 3}

>  <energy>  (43) 
-7.34

>  <cluster_rmsd>  (43) 
1.65

>  <cluster>  (43) 
3

$$$$

     RDKit          3D

 52 55  0  0  0  0  0  0  0  0999 V2000
  139.3480   74.1140  221.8810 O   0  0  0  0  0  0  0  0  0  0  0  0
  140.4610   74.6700  221.7200 C   0  0  0  0  0  0  0  0  0  0  0  0
  140.5810   76.0500  222.0390 N   0  0  0  0  0  0  0  0  0  0  0  0
  139.5640   76.8910  222.5350 C   0  0  0  0  0  0  0  0  0  0  0  0
  139.9000   78.2920  222.7180 C   0  0  0  0  0  0  0  0  0  0  0  0
  138.8480   78.9950  223.0930 O   0  0  0  0  0  0  0  0  0  0  0  0
  141.0590   79.0370  222.5810 N   0  0  0  0  0  0  0  0  0  0  0  0
  142.3520   79.1100  223.2020 C   0  0  0  0  0  0  0  0  0  0  0  0
  142.4980   80.6280  223.3920 C   0  0  2  0  0  0  0  0  0  0  0  0
  141.4430   81.0680  224.1380 O   0  0  0  0  0  0  0  0  0  0  0  0
  142.2300   81.0380  221.9360 C   0  0  0  0  0  0  0  0  0  0  0  0
  141.1490   80.1050  221.5220 C   0  0  1  0  0  0  0  0  0  0  0  0
  141.4760   79.3340  220.2690 C   0  0  0  0  0  0  0  0  0  0  0  0
  141.7390   78.0010  220.3990 O   0  0  0  0  0  0  0  0  0  0  0  0
  142.0760   77.1070  219.4610 C   0  0  0  0  0  0  0  0  0  0  0  0
  143.3260   76.7700  219.0050 C   0  0  0  0  0  0  0  0  0  0  0  0
  143.5200   75.8090  218.0160 C   0  0  0  0  0  0  0  0  0  0  0  0
  142.4510   75.1650  217.4630 C   0  0  0  0  0  0  0  0  0  0  0  0
  141.2250   75.4880  217.9010 N   0  0  0  0  0  0  0  0  0  0  0  0
  141.0180   76.4020  218.8430 C   0  0  0  0  0  0  0  0  0  0  0  0
  141.6060   73.9150  221.2190 C   0  0  0  0  0  0  0  0  0  0  0  0
  141.4180   72.6230  220.7740 C   0  0  0  0  0  0  0  0  0  0  0  0
  142.4420   71.8400  220.2850 C   0  0  0  0  0  0  0  0  0  0  0  0
  143.7010   72.4130  220.2560 C   0  0  0  0  0  0  0  0  0  0  0  0
  144.7510   71.6450  219.7670 C   0  0  0  0  0  0  0  0  0  0  0  0
  146.0070   72.2040  219.7320 C   0  0  0  0  0  0  0  0  0  0  0  0
  146.2000   73.5040  220.1790 C   0  0  0  0  0  0  0  0  0  0  0  0
  145.1660   74.2760  220.6670 C   0  0  0  0  0  0  0  0  0  0  0  0
  143.9030   73.7190  220.7020 C   0  0  0  0  0  0  0  0  0  0  0  0
  142.8540   74.4210  221.1660 N   0  0  0  0  0  0  0  0  0  0  0  0
  141.5410   76.4650  221.8780 H   0  0  0  0  0  0  0  0  0  0  0  0
  138.7194   76.8411  221.8320 H   0  0  0  0  0  0  0  0  0  0  0  0
  139.3480   76.5139  223.5455 H   0  0  0  0  0  0  0  0  0  0  0  0
  142.3687   78.5785  224.1649 H   0  0  0  0  0  0  0  0  0  0  0  0
  143.1620   78.6448  222.6211 H   0  0  0  0  0  0  0  0  0  0  0  0
  143.4278   80.9835  223.8602 H   0  0  0  0  0  0  0  0  0  0  0  0
  140.6250   80.5560  223.9470 H   0  0  0  0  0  0  0  0  0  0  0  0
  141.8951   82.0840  221.8746 H   0  0  0  0  0  0  0  0  0  0  0  0
  143.1232   80.9792  221.2966 H   0  0  0  0  0  0  0  0  0  0  0  0
  140.2443   80.7116  221.3686 H   0  0  0  0  0  0  0  0  0  0  0  0
  140.6191   79.4356  219.5868 H   0  0  0  0  0  0  0  0  0  0  0  0
  142.4190   79.7715  219.9093 H   0  0  0  0  0  0  0  0  0  0  0  0
  144.2033   77.2756  219.4349 H   0  0  0  0  0  0  0  0  0  0  0  0
  144.5390   75.5679  217.6790 H   0  0  0  0  0  0  0  0  0  0  0  0
  142.5908   74.4038  216.6814 H   0  0  0  0  0  0  0  0  0  0  0  0
  139.9851   76.6181  219.1534 H   0  0  0  0  0  0  0  0  0  0  0  0
  140.4042   72.1977  220.8110 H   0  0  0  0  0  0  0  0  0  0  0  0
  142.2669   70.8118  219.9356 H   0  0  0  0  0  0  0  0  0  0  0  0
  144.5817   70.6161  219.4168 H   0  0  0  0  0  0  0  0  0  0  0  0
  146.8582   71.6213  219.3500 H   0  0  0  0  0  0  0  0  0  0  0  0
  147.2121   73.9333  220.1429 H   0  0  0  0  0  0  0  0  0  0  0  0
  145.3423   75.3037  221.0175 H   0  0  0  0  0  0  0  0  0  0  0  0
  1  2  2  0
  2  3  1  0
  3  4  1  0
  4  5  1  0
  5  6  2  0
  5  7  1  0
  7  8  1  0
  8  9  1  0
  9 10  1  0
  9 11  1  0
 11 12  1  0
 12 13  1  0
 13 14  1  0
 14 15  1  0
 15 16  2  0
 16 17  1  0
 17 18  2  0
 18 19  1  0
 19 20  2  0
  2 21  1  0
 21 22  2  0
 22 23  1  0
 23 24  2  0
 24 25  1  0
 25 26  2  0
 26 27  1  0
 27 28  2  0
 28 29  1  0
 29 30  2  0
 12  7  1  0
 20 15  1  0
 30 21  1  0
 29 24  1  0
  3 31  1  0
  4 32  1  0
  4 33  1  0
  8 34  1  0
  8 35  1  0
  9 36  1  1
 10 37  1  0
 11 38  1  0
 11 39  1  0
 12 40  1  6
 13 41  1  0
 13 42  1  0
 16 43  1  0
 17 44  1  0
 18 45  1  0
 20 46  1  0
 22 47  1  0
 23 48  1  0
 25 49  1  0
 26 50  1  0
 27 51  1  0
 28 52  1  0
M  END
>  <smiles>  (44) 
O=C(NCC(=O)N1C[C@H](O)C[C@H]1COc1cccnc1)c1ccc2ccccc2n1

>  <score_type>  (44) 
oracle

>  <origin>  (44) 
autodockgpu

>  <m_score__min__energy>  (44) 
-8.4399999999999995

>  <m_primary>  (44) 
energy

>  <rmsd>  (44) 
6.428768069348706

>  <m_score__min__rmsd>  (44) 
6.428768069348706

>  <meeko>  (44) 
{"free_energy": -5.54, "intermolecular_energy": -7.93, "internal_energy": -3.95, "cluster_size": 3, "cluster_id": 6, "rank_in_cluster": 2}

>  <energy>  (44) 
-7.52

>  <cluster_rmsd>  (44) 
0.0

>  <cluster>  (44) 
4

$$$$

     RDKit          3D

 52 55  0  0  0  0  0  0  0  0999 V2000
  140.0740   74.1940  222.0580 O   0  0  0  0  0  0  0  0  0  0  0  0
  140.8400   75.1490  221.7780 C   0  0  0  0  0  0  0  0  0  0  0  0
  142.0340   74.8700  221.0580 N   0  0  0  0  0  0  0  0  0  0  0  0
  142.4670   73.6090  220.6030 C   0  0  0  0  0  0  0  0  0  0  0  0
  143.6290   73.5870  219.7320 C   0  0  0  0  0  0  0  0  0  0  0  0
  144.7360   73.3510  220.4110 O   0  0  0  0  0  0  0  0  0  0  0  0
  143.8250   73.7630  218.3730 N   0  0  0  0  0  0  0  0  0  0  0  0
  143.8740   72.9450  217.1940 C   0  0  0  0  0  0  0  0  0  0  0  0
  145.1350   73.4950  216.5090 C   0  0  2  0  0  0  0  0  0  0  0  0
  146.1810   73.3680  217.3780 O   0  0  0  0  0  0  0  0  0  0  0  0
  144.7270   74.9760  216.5000 C   0  0  0  0  0  0  0  0  0  0  0  0
  144.0580   75.1450  217.8160 C   0  0  1  0  0  0  0  0  0  0  0  0
  142.6690   75.7210  217.7090 C   0  0  0  0  0  0  0  0  0  0  0  0
  142.1860   76.4060  218.7860 O   0  0  0  0  0  0  0  0  0  0  0  0
  141.8540   77.7000  218.8900 C   0  0  0  0  0  0  0  0  0  0  0  0
  142.6050   78.8070  218.5810 C   0  0  0  0  0  0  0  0  0  0  0  0
  142.1170   80.1010  218.7410 C   0  0  0  0  0  0  0  0  0  0  0  0
  140.8560   80.3070  219.2210 C   0  0  0  0  0  0  0  0  0  0  0  0
  140.1150   79.2310  219.5270 N   0  0  0  0  0  0  0  0  0  0  0  0
  140.5610   77.9880  219.3810 C   0  0  0  0  0  0  0  0  0  0  0  0
  140.5100   76.5120  222.1840 C   0  0  0  0  0  0  0  0  0  0  0  0
  139.1880   76.8660  222.3460 C   0  0  0  0  0  0  0  0  0  0  0  0
  138.7890   78.1290  222.7260 C   0  0  0  0  0  0  0  0  0  0  0  0
  139.7910   79.0560  222.9470 C   0  0  0  0  0  0  0  0  0  0  0  0
  139.4150   80.3370  223.3320 C   0  0  0  0  0  0  0  0  0  0  0  0
  140.4040   81.2670  223.5540 C   0  0  0  0  0  0  0  0  0  0  0  0
  141.7370   80.9150  223.3940 C   0  0  0  0  0  0  0  0  0  0  0  0
  142.1220   79.6460  223.0110 C   0  0  0  0  0  0  0  0  0  0  0  0
  141.1330   78.7090  222.7870 C   0  0  0  0  0  0  0  0  0  0  0  0
  141.4440   77.4560  222.4130 N   0  0  0  0  0  0  0  0  0  0  0  0
  142.6410   75.7130  220.8560 H   0  0  0  0  0  0  0  0  0  0  0  0
  142.7037   73.0000  221.4879 H   0  0  0  0  0  0  0  0  0  0  0  0
  141.6398   73.2277  219.9863 H   0  0  0  0  0  0  0  0  0  0  0  0
  143.9827   71.8797  217.4455 H   0  0  0  0  0  0  0  0  0  0  0  0
  142.9660   72.9869  216.5745 H   0  0  0  0  0  0  0  0  0  0  0  0
  145.4204   73.0377  215.5501 H   0  0  0  0  0  0  0  0  0  0  0  0
  145.9930   73.8040  218.2380 H   0  0  0  0  0  0  0  0  0  0  0  0
  145.6086   75.6287  216.4177 H   0  0  0  0  0  0  0  0  0  0  0  0
  144.0840   75.2439  215.6487 H   0  0  0  0  0  0  0  0  0  0  0  0
  144.6980   75.8079  218.4168 H   0  0  0  0  0  0  0  0  0  0  0  0
  142.6630   76.4094  216.8511 H   0  0  0  0  0  0  0  0  0  0  0  0
  142.0093   74.8458  217.6149 H   0  0  0  0  0  0  0  0  0  0  0  0
  143.6253   78.6670  218.1945 H   0  0  0  0  0  0  0  0  0  0  0  0
  142.7506   80.9613  218.4794 H   0  0  0  0  0  0  0  0  0  0  0  0
  140.4592   81.3244  219.3530 H   0  0  0  0  0  0  0  0  0  0  0  0
  139.8991   77.1524  219.6524 H   0  0  0  0  0  0  0  0  0  0  0  0
  138.4152   76.1048  222.1634 H   0  0  0  0  0  0  0  0  0  0  0  0
  137.7266   78.3869  222.8475 H   0  0  0  0  0  0  0  0  0  0  0  0
  138.3543   80.6006  223.4560 H   0  0  0  0  0  0  0  0  0  0  0  0
  140.1383   82.2901  223.8585 H   0  0  0  0  0  0  0  0  0  0  0  0
  142.5127   81.6728  223.5786 H   0  0  0  0  0  0  0  0  0  0  0  0
  143.1845   79.3890  222.8880 H   0  0  0  0  0  0  0  0  0  0  0  0
  1  2  2  0
  2  3  1  0
  3  4  1  0
  4  5  1  0
  5  6  2  0
  5  7  1  0
  7  8  1  0
  8  9  1  0
  9 10  1  0
  9 11  1  0
 11 12  1  0
 12 13  1  0
 13 14  1  0
 14 15  1  0
 15 16  2  0
 16 17  1  0
 17 18  2  0
 18 19  1  0
 19 20  2  0
  2 21  1  0
 21 22  2  0
 22 23  1  0
 23 24  2  0
 24 25  1  0
 25 26  2  0
 26 27  1  0
 27 28  2  0
 28 29  1  0
 29 30  2  0
 12  7  1  0
 20 15  1  0
 30 21  1  0
 29 24  1  0
  3 31  1  0
  4 32  1  0
  4 33  1  0
  8 34  1  0
  8 35  1  0
  9 36  1  6
 10 37  1  0
 11 38  1  0
 11 39  1  0
 12 40  1  1
 13 41  1  0
 13 42  1  0
 16 43  1  0
 17 44  1  0
 18 45  1  0
 20 46  1  0
 22 47  1  0
 23 48  1  0
 25 49  1  0
 26 50  1  0
 27 51  1  0
 28 52  1  0
M  END
>  <smiles>  (45) 
O=C(NCC(=O)N1C[C@H](O)C[C@H]1COc1cccnc1)c1ccc2ccccc2n1

>  <score_type>  (45) 
oracle

>  <origin>  (45) 
autodockgpu

>  <m_score__min__energy>  (45) 
-8.4399999999999995

>  <m_primary>  (45) 
energy

>  <rmsd>  (45) 
7.44738088296747

>  <m_score__min__rmsd>  (45) 
7.44738088296747

>  <meeko>  (45) 
{"free_energy": -6.06, "intermolecular_energy": -8.45, "internal_energy": -3.5, "cluster_size": 3, "cluster_id": 5, "rank_in_cluster": 1}

>  <energy>  (45) 
-6.06

>  <cluster_rmsd>  (45) 
0.0

>  <cluster>  (45) 
5

$$$$

     RDKit          3D

 52 55  0  0  0  0  0  0  0  0999 V2000
  140.6650   71.2160  221.3790 O   0  0  0  0  0  0  0  0  0  0  0  0
  140.1490   71.7660  222.3820 C   0  0  0  0  0  0  0  0  0  0  0  0
  139.6170   73.0760  222.2370 N   0  0  0  0  0  0  0  0  0  0  0  0
  139.5960   73.8500  221.0590 C   0  0  0  0  0  0  0  0  0  0  0  0
  140.7460   74.7010  220.8110 C   0  0  0  0  0  0  0  0  0  0  0  0
  141.8700   74.1090  221.1690 O   0  0  0  0  0  0  0  0  0  0  0  0
  140.9160   75.9750  220.2960 N   0  0  0  0  0  0  0  0  0  0  0  0
  140.9140   76.6070  219.0070 C   0  0  0  0  0  0  0  0  0  0  0  0
  142.1750   77.4800  219.1070 C   0  0  2  0  0  0  0  0  0  0  0  0
  143.2360   76.6650  219.3790 O   0  0  0  0  0  0  0  0  0  0  0  0
  141.8110   78.2060  220.4100 C   0  0  0  0  0  0  0  0  0  0  0  0
  141.1770   77.1350  221.2230 C   0  0  1  0  0  0  0  0  0  0  0  0
  139.8040   77.5010  221.7260 C   0  0  0  0  0  0  0  0  0  0  0  0
  139.7250   78.4280  222.7250 O   0  0  0  0  0  0  0  0  0  0  0  0
  140.5670   79.4250  223.0260 C   0  0  0  0  0  0  0  0  0  0  0  0
  140.5030   80.7450  222.6540 C   0  0  0  0  0  0  0  0  0  0  0  0
  141.4610   81.6740  223.0510 C   0  0  0  0  0  0  0  0  0  0  0  0
  142.5100   81.2880  223.8350 C   0  0  0  0  0  0  0  0  0  0  0  0
  142.5810   80.0000  224.2030 N   0  0  0  0  0  0  0  0  0  0  0  0
  141.6780   79.0980  223.8360 C   0  0  0  0  0  0  0  0  0  0  0  0
  140.0980   71.0740  223.6670 C   0  0  0  0  0  0  0  0  0  0  0  0
  139.5280   69.8210  223.7350 C   0  0  0  0  0  0  0  0  0  0  0  0
  139.4380   69.0980  224.9050 C   0  0  0  0  0  0  0  0  0  0  0  0
  139.9550   69.6920  226.0420 C   0  0  0  0  0  0  0  0  0  0  0  0
  139.8770   68.9850  227.2360 C   0  0  0  0  0  0  0  0  0  0  0  0
  140.3880   69.5660  228.3730 C   0  0  0  0  0  0  0  0  0  0  0  0
  140.9630   70.8280  228.3080 C   0  0  0  0  0  0  0  0  0  0  0  0
  141.0460   71.5400  227.1300 C   0  0  0  0  0  0  0  0  0  0  0  0
  140.5340   70.9610  225.9860 C   0  0  0  0  0  0  0  0  0  0  0  0
  140.5850   71.6040  224.8060 N   0  0  0  0  0  0  0  0  0  0  0  0
  139.2000   73.4900  223.1170 H   0  0  0  0  0  0  0  0  0  0  0  0
  139.5050   73.1583  220.2086 H   0  0  0  0  0  0  0  0  0  0  0  0
  138.7499   74.5414  221.1855 H   0  0  0  0  0  0  0  0  0  0  0  0
  140.9966   75.8693  218.1952 H   0  0  0  0  0  0  0  0  0  0  0  0
  139.9939   77.1639  218.7763 H   0  0  0  0  0  0  0  0  0  0  0  0
  142.4249   78.0968  218.2311 H   0  0  0  0  0  0  0  0  0  0  0  0
  142.9950   75.9580  220.0190 H   0  0  0  0  0  0  0  0  0  0  0  0
  142.7095   78.6005  220.9072 H   0  0  0  0  0  0  0  0  0  0  0  0
  141.1568   79.0764  220.2534 H   0  0  0  0  0  0  0  0  0  0  0  0
  141.8498   76.9366  222.0703 H   0  0  0  0  0  0  0  0  0  0  0  0
  139.2323   77.8894  220.8702 H   0  0  0  0  0  0  0  0  0  0  0  0
  139.4128   76.5746  222.1718 H   0  0  0  0  0  0  0  0  0  0  0  0
  139.6675   81.0796  222.0216 H   0  0  0  0  0  0  0  0  0  0  0  0
  141.3724   82.7229  222.7318 H   0  0  0  0  0  0  0  0  0  0  0  0
  143.2741   82.0116  224.1553 H   0  0  0  0  0  0  0  0  0  0  0  0
  141.7992   78.0585  224.1748 H   0  0  0  0  0  0  0  0  0  0  0  0
  139.1260   69.3772  222.8123 H   0  0  0  0  0  0  0  0  0  0  0  0
  138.9782   68.0991  224.9330 H   0  0  0  0  0  0  0  0  0  0  0  0
  139.4181   67.9859  227.2707 H   0  0  0  0  0  0  0  0  0  0  0  0
  140.3412   69.0312  229.3331 H   0  0  0  0  0  0  0  0  0  0  0  0
  141.3664   71.2755  229.2283 H   0  0  0  0  0  0  0  0  0  0  0  0
  141.5061   72.5388  227.1026 H   0  0  0  0  0  0  0  0  0  0  0  0
  1  2  2  0
  2  3  1  0
  3  4  1  0
  4  5  1  0
  5  6  2  0
  5  7  1  0
  7  8  1  0
  8  9  1  0
  9 10  1  0
  9 11  1  0
 11 12  1  0
 12 13  1  0
 13 14  1  0
 14 15  1  0
 15 16  2  0
 16 17  1  0
 17 18  2  0
 18 19  1  0
 19 20  2  0
  2 21  1  0
 21 22  2  0
 22 23  1  0
 23 24  2  0
 24 25  1  0
 25 26  2  0
 26 27  1  0
 27 28  2  0
 28 29  1  0
 29 30  2  0
 12  7  1  0
 20 15  1  0
 30 21  1  0
 29 24  1  0
  3 31  1  0
  4 32  1  0
  4 33  1  0
  8 34  1  0
  8 35  1  0
  9 36  1  6
 10 37  1  0
 11 38  1  0
 11 39  1  0
 12 40  1  1
 13 41  1  0
 13 42  1  0
 16 43  1  0
 17 44  1  0
 18 45  1  0
 20 46  1  0
 22 47  1  0
 23 48  1  0
 25 49  1  0
 26 50  1  0
 27 51  1  0
 28 52  1  0
M  END
>  <smiles>  (46) 
O=C(NCC(=O)N1C[C@H](O)C[C@H]1COc1cccnc1)c1ccc2ccccc2n1

>  <score_type>  (46) 
oracle

>  <origin>  (46) 
autodockgpu

>  <m_score__min__energy>  (46) 
-8.4399999999999995

>  <m_primary>  (46) 
energy

>  <rmsd>  (46) 
1.7116076202815294

>  <m_score__min__rmsd>  (46) 
1.7116076202815294

>  <meeko>  (46) 
{"free_energy": -7.99, "intermolecular_energy": -10.38, "internal_energy": -1.61, "cluster_size": 30, "cluster_id": 1, "rank_in_cluster": 12}

>  <energy>  (46) 
-6.04

>  <cluster_rmsd>  (46) 
1.71

>  <cluster>  (46) 
5

$$$$

     RDKit          3D

 52 55  0  0  0  0  0  0  0  0999 V2000
  139.4560   74.1760  221.9610 O   0  0  0  0  0  0  0  0  0  0  0  0
  140.5450   74.7480  221.7140 C   0  0  0  0  0  0  0  0  0  0  0  0
  140.6380   76.1500  221.9290 N   0  0  0  0  0  0  0  0  0  0  0  0
  139.6180   76.9980  222.4070 C   0  0  0  0  0  0  0  0  0  0  0  0
  140.0030   78.3510  222.7680 C   0  0  0  0  0  0  0  0  0  0  0  0
  139.0480   78.9600  223.4450 O   0  0  0  0  0  0  0  0  0  0  0  0
  141.1300   79.1270  222.5550 N   0  0  0  0  0  0  0  0  0  0  0  0
  142.4520   79.2500  223.1020 C   0  0  0  0  0  0  0  0  0  0  0  0
  142.5620   80.7750  223.2600 C   0  0  2  0  0  0  0  0  0  0  0  0
  141.5360   81.1950  224.0560 O   0  0  0  0  0  0  0  0  0  0  0  0
  142.2010   81.1510  221.8150 C   0  0  0  0  0  0  0  0  0  0  0  0
  141.1280   80.1800  221.4760 C   0  0  1  0  0  0  0  0  0  0  0  0
  141.4080   79.3970  220.2190 C   0  0  0  0  0  0  0  0  0  0  0  0
  141.9420   78.1490  220.3590 O   0  0  0  0  0  0  0  0  0  0  0  0
  142.1770   77.2160  219.4260 C   0  0  0  0  0  0  0  0  0  0  0  0
  143.3820   76.7670  218.9450 C   0  0  0  0  0  0  0  0  0  0  0  0
  143.4670   75.7810  217.9660 C   0  0  0  0  0  0  0  0  0  0  0  0
  142.3340   75.2250  217.4490 C   0  0  0  0  0  0  0  0  0  0  0  0
  141.1510   75.6580  217.9110 N   0  0  0  0  0  0  0  0  0  0  0  0
  141.0470   76.5970  218.8450 C   0  0  0  0  0  0  0  0  0  0  0  0
  141.6900   73.9880  221.2190 C   0  0  0  0  0  0  0  0  0  0  0  0
  141.5020   72.6930  220.7840 C   0  0  0  0  0  0  0  0  0  0  0  0
  142.5250   71.9060  220.3010 C   0  0  0  0  0  0  0  0  0  0  0  0
  143.7840   72.4780  220.2690 C   0  0  0  0  0  0  0  0  0  0  0  0
  144.8340   71.7050  219.7860 C   0  0  0  0  0  0  0  0  0  0  0  0
  146.0900   72.2630  219.7480 C   0  0  0  0  0  0  0  0  0  0  0  0
  146.2840   73.5670  220.1850 C   0  0  0  0  0  0  0  0  0  0  0  0
  145.2500   74.3430  220.6660 C   0  0  0  0  0  0  0  0  0  0  0  0
  143.9870   73.7870  220.7060 C   0  0  0  0  0  0  0  0  0  0  0  0
  142.9380   74.4930  221.1640 N   0  0  0  0  0  0  0  0  0  0  0  0
  141.5790   76.5770  221.6980 H   0  0  0  0  0  0  0  0  0  0  0  0
  138.8503   77.0692  221.6224 H   0  0  0  0  0  0  0  0  0  0  0  0
  139.2784   76.5366  223.3460 H   0  0  0  0  0  0  0  0  0  0  0  0
  142.5380   78.7361  224.0708 H   0  0  0  0  0  0  0  0  0  0  0  0
  143.2427   78.7995  222.4840 H   0  0  0  0  0  0  0  0  0  0  0  0
  143.5047   81.1666  223.6699 H   0  0  0  0  0  0  0  0  0  0  0  0
  140.7550   80.6020  223.9870 H   0  0  0  0  0  0  0  0  0  0  0  0
  141.8314   82.1854  221.7560 H   0  0  0  0  0  0  0  0  0  0  0  0
  143.0589   81.1069  221.1280 H   0  0  0  0  0  0  0  0  0  0  0  0
  140.1985   80.7574  221.3638 H   0  0  0  0  0  0  0  0  0  0  0  0
  140.4556   79.2890  219.6792 H   0  0  0  0  0  0  0  0  0  0  0  0
  142.1831   79.9759  219.6955 H   0  0  0  0  0  0  0  0  0  0  0  0
  144.3101   77.2003  219.3461 H   0  0  0  0  0  0  0  0  0  0  0  0
  144.4525   75.4488  217.6077 H   0  0  0  0  0  0  0  0  0  0  0  0
  142.3884   74.4444  216.6759 H   0  0  0  0  0  0  0  0  0  0  0  0
  140.0447   76.9040  219.1784 H   0  0  0  0  0  0  0  0  0  0  0  0
  140.4881   72.2683  220.8244 H   0  0  0  0  0  0  0  0  0  0  0  0
  142.3493   70.8756  219.9584 H   0  0  0  0  0  0  0  0  0  0  0  0
  144.6642   70.6737  219.4431 H   0  0  0  0  0  0  0  0  0  0  0  0
  146.9412   71.6767  219.3715 H   0  0  0  0  0  0  0  0  0  0  0  0
  147.2964   73.9954  220.1462 H   0  0  0  0  0  0  0  0  0  0  0  0
  145.4264   75.3737  221.0074 H   0  0  0  0  0  0  0  0  0  0  0  0
  1  2  2  0
  2  3  1  0
  3  4  1  0
  4  5  1  0
  5  6  2  0
  5  7  1  0
  7  8  1  0
  8  9  1  0
  9 10  1  0
  9 11  1  0
 11 12  1  0
 12 13  1  0
 13 14  1  0
 14 15  1  0
 15 16  2  0
 16 17  1  0
 17 18  2  0
 18 19  1  0
 19 20  2  0
  2 21  1  0
 21 22  2  0
 22 23  1  0
 23 24  2  0
 24 25  1  0
 25 26  2  0
 26 27  1  0
 27 28  2  0
 28 29  1  0
 29 30  2  0
 12  7  1  0
 20 15  1  0
 30 21  1  0
 29 24  1  0
  3 31  1  0
  4 32  1  0
  4 33  1  0
  8 34  1  0
  8 35  1  0
  9 36  1  1
 10 37  1  0
 11 38  1  0
 11 39  1  0
 12 40  1  6
 13 41  1  0
 13 42  1  0
 16 43  1  0
 17 44  1  0
 18 45  1  0
 20 46  1  0
 22 47  1  0
 23 48  1  0
 25 49  1  0
 26 50  1  0
 27 51  1  0
 28 52  1  0
M  END
>  <smiles>  (47) 
O=C(NCC(=O)N1C[C@H](O)C[C@H]1COc1cccnc1)c1ccc2ccccc2n1

>  <score_type>  (47) 
oracle

>  <origin>  (47) 
autodockgpu

>  <m_score__min__energy>  (47) 
-8.4399999999999995

>  <m_primary>  (47) 
energy

>  <rmsd>  (47) 
6.480868868692249

>  <m_score__min__rmsd>  (47) 
6.480868868692249

>  <meeko>  (47) 
{"free_energy": -5.64, "intermolecular_energy": -8.03, "internal_energy": -4.0, "cluster_size": 3, "cluster_id": 6, "rank_in_cluster": 1}

>  <energy>  (47) 
-5.79

>  <cluster_rmsd>  (47) 
1.68

>  <cluster>  (47) 
5

$$$$

     RDKit          3D

 52 55  0  0  0  0  0  0  0  0999 V2000
  140.4620   71.3670  221.2730 O   0  0  0  0  0  0  0  0  0  0  0  0
  140.1580   71.9910  222.3190 C   0  0  0  0  0  0  0  0  0  0  0  0
  139.8670   73.3790  222.2190 N   0  0  0  0  0  0  0  0  0  0  0  0
  139.8750   74.1580  221.0450 C   0  0  0  0  0  0  0  0  0  0  0  0
  140.2150   75.5630  221.1890 C   0  0  0  0  0  0  0  0  0  0  0  0
  140.2350   75.9260  222.4580 O   0  0  0  0  0  0  0  0  0  0  0  0
  140.5120   76.5840  220.3040 N   0  0  0  0  0  0  0  0  0  0  0  0
  140.4620   78.0190  220.2840 C   0  0  0  0  0  0  0  0  0  0  0  0
  139.8100   78.2700  218.9150 C   0  0  2  0  0  0  0  0  0  0  0  0
  138.6080   77.6220  218.8920 O   0  0  0  0  0  0  0  0  0  0  0  0
  140.7910   77.4420  218.0720 C   0  0  0  0  0  0  0  0  0  0  0  0
  141.0590   76.2620  218.9360 C   0  0  1  0  0  0  0  0  0  0  0  0
  142.5270   76.0290  219.1880 C   0  0  0  0  0  0  0  0  0  0  0  0
  143.0230   74.7860  218.9210 O   0  0  0  0  0  0  0  0  0  0  0  0
  144.0590   74.1470  219.4800 C   0  0  0  0  0  0  0  0  0  0  0  0
  144.4350   74.1120  220.8000 C   0  0  0  0  0  0  0  0  0  0  0  0
  145.5460   73.3940  221.2340 C   0  0  0  0  0  0  0  0  0  0  0  0
  146.3060   72.6950  220.3410 C   0  0  0  0  0  0  0  0  0  0  0  0
  145.9470   72.7240  219.0490 N   0  0  0  0  0  0  0  0  0  0  0  0
  144.8910   73.4020  218.6140 C   0  0  0  0  0  0  0  0  0  0  0  0
  140.1040   71.3050  223.6070 C   0  0  0  0  0  0  0  0  0  0  0  0
  139.5700   70.0360  223.6720 C   0  0  0  0  0  0  0  0  0  0  0  0
  139.4810   69.3170  224.8450 C   0  0  0  0  0  0  0  0  0  0  0  0
  139.9600   69.9320  225.9870 C   0  0  0  0  0  0  0  0  0  0  0  0
  139.8820   69.2290  227.1830 C   0  0  0  0  0  0  0  0  0  0  0  0
  140.3560   69.8310  228.3250 C   0  0  0  0  0  0  0  0  0  0  0  0
  140.8960   71.1090  228.2640 C   0  0  0  0  0  0  0  0  0  0  0  0
  140.9780   71.8170  227.0820 C   0  0  0  0  0  0  0  0  0  0  0  0
  140.5040   71.2160  225.9330 C   0  0  0  0  0  0  0  0  0  0  0  0
  140.5560   71.8550  224.7510 N   0  0  0  0  0  0  0  0  0  0  0  0
  139.6220   73.8520  223.1340 H   0  0  0  0  0  0  0  0  0  0  0  0
  140.6036   73.7093  220.3538 H   0  0  0  0  0  0  0  0  0  0  0  0
  138.8340   74.1506  220.6897 H   0  0  0  0  0  0  0  0  0  0  0  0
  139.8441   78.4133  221.1042 H   0  0  0  0  0  0  0  0  0  0  0  0
  141.4377   78.5089  220.4185 H   0  0  0  0  0  0  0  0  0  0  0  0
  139.6471   79.3186  218.6254 H   0  0  0  0  0  0  0  0  0  0  0  0
  138.3400   77.3200  219.7890 H   0  0  0  0  0  0  0  0  0  0  0  0
  140.3346   77.1385  217.1183 H   0  0  0  0  0  0  0  0  0  0  0  0
  141.7015   77.9949  217.7978 H   0  0  0  0  0  0  0  0  0  0  0  0
  140.6182   75.3896  218.4314 H   0  0  0  0  0  0  0  0  0  0  0  0
  143.0854   76.7465  218.5688 H   0  0  0  0  0  0  0  0  0  0  0  0
  142.6474   76.1511  220.2746 H   0  0  0  0  0  0  0  0  0  0  0  0
  143.8394   74.6690  221.5382 H   0  0  0  0  0  0  0  0  0  0  0  0
  145.8126   73.3899  222.3012 H   0  0  0  0  0  0  0  0  0  0  0  0
  147.1868   72.1248  220.6713 H   0  0  0  0  0  0  0  0  0  0  0  0
  144.6553   73.3829  217.5397 H   0  0  0  0  0  0  0  0  0  0  0  0
  139.1976   69.5756  222.7450 H   0  0  0  0  0  0  0  0  0  0  0  0
  139.0506   68.3050  224.8711 H   0  0  0  0  0  0  0  0  0  0  0  0
  139.4522   68.2170  227.2155 H   0  0  0  0  0  0  0  0  0  0  0  0
  140.3074   69.3000  229.2871 H   0  0  0  0  0  0  0  0  0  0  0  0
  141.2709   71.5725  229.1885 H   0  0  0  0  0  0  0  0  0  0  0  0
  141.4079   72.8292  227.0563 H   0  0  0  0  0  0  0  0  0  0  0  0
  1  2  2  0
  2  3  1  0
  3  4  1  0
  4  5  1  0
  5  6  2  0
  5  7  1  0
  7  8  1  0
  8  9  1  0
  9 10  1  0
  9 11  1  0
 11 12  1  0
 12 13  1  0
 13 14  1  0
 14 15  1  0
 15 16  2  0
 16 17  1  0
 17 18  2  0
 18 19  1  0
 19 20  2  0
  2 21  1  0
 21 22  2  0
 22 23  1  0
 23 24  2  0
 24 25  1  0
 25 26  2  0
 26 27  1  0
 27 28  2  0
 28 29  1  0
 29 30  2  0
 12  7  1  0
 20 15  1  0
 30 21  1  0
 29 24  1  0
  3 31  1  0
  4 32  1  0
  4 33  1  0
  8 34  1  0
  8 35  1  0
  9 36  1  6
 10 37  1  0
 11 38  1  0
 11 39  1  0
 12 40  1  6
 13 41  1  0
 13 42  1  0
 16 43  1  0
 17 44  1  0
 18 45  1  0
 20 46  1  0
 22 47  1  0
 23 48  1  0
 25 49  1  0
 26 50  1  0
 27 51  1  0
 28 52  1  0
M  END
>  <smiles>  (48) 
O=C(NCC(=O)N1C[C@H](O)C[C@H]1COc1cccnc1)c1ccc2ccccc2n1

>  <score_type>  (48) 
oracle

>  <origin>  (48) 
autodockgpu

>  <m_score__min__energy>  (48) 
-8.4399999999999995

>  <m_primary>  (48) 
energy

>  <rmsd>  (48) 
1.9820479551580923

>  <m_score__min__rmsd>  (48) 
1.9820479551580923

>  <meeko>  (48) 
{"free_energy": -7.74, "intermolecular_energy": -10.12, "internal_energy": -2.0, "cluster_size": 9, "cluster_id": 3, "rank_in_cluster": 1}

>  <energy>  (48) 
-5.64

>  <cluster_rmsd>  (48) 
0.0

>  <cluster>  (48) 
6

$$$$

     RDKit          3D

 52 55  0  0  0  0  0  0  0  0999 V2000
  139.6760   70.7200  221.3670 O   0  0  0  0  0  0  0  0  0  0  0  0
  139.6640   71.3820  222.4340 C   0  0  0  0  0  0  0  0  0  0  0  0
  139.5790   72.7980  222.3510 N   0  0  0  0  0  0  0  0  0  0  0  0
  139.4990   73.5700  221.1750 C   0  0  0  0  0  0  0  0  0  0  0  0
  140.0720   74.9040  221.2220 C   0  0  0  0  0  0  0  0  0  0  0  0
  139.9290   75.4480  222.4160 O   0  0  0  0  0  0  0  0  0  0  0  0
  140.7180   75.7150  220.3050 N   0  0  0  0  0  0  0  0  0  0  0  0
  141.1480   75.6350  218.9370 C   0  0  0  0  0  0  0  0  0  0  0  0
  142.5750   76.1950  219.0470 C   0  0  2  0  0  0  0  0  0  0  0  0
  143.2640   75.4290  219.9440 O   0  0  0  0  0  0  0  0  0  0  0  0
  142.2190   77.5130  219.7510 C   0  0  0  0  0  0  0  0  0  0  0  0
  141.1480   77.1050  220.6980 C   0  0  1  0  0  0  0  0  0  0  0  0
  139.8860   77.9180  220.5560 C   0  0  0  0  0  0  0  0  0  0  0  0
  139.7790   79.0530  221.3060 O   0  0  0  0  0  0  0  0  0  0  0  0
  140.6650   79.5970  222.1510 C   0  0  0  0  0  0  0  0  0  0  0  0
  141.3040   80.8090  222.0630 C   0  0  0  0  0  0  0  0  0  0  0  0
  142.2050   81.2430  223.0310 C   0  0  0  0  0  0  0  0  0  0  0  0
  142.4830   80.4610  224.1140 C   0  0  0  0  0  0  0  0  0  0  0  0
  141.8630   79.2740  224.2090 N   0  0  0  0  0  0  0  0  0  0  0  0
  141.0000   78.8410  223.2970 C   0  0  0  0  0  0  0  0  0  0  0  0
  139.7340   70.7090  223.7280 C   0  0  0  0  0  0  0  0  0  0  0  0
  139.2340   69.4300  223.8500 C   0  0  0  0  0  0  0  0  0  0  0  0
  139.2600   68.7230  225.0340 C   0  0  0  0  0  0  0  0  0  0  0  0
  139.8210   69.3600  226.1250 C   0  0  0  0  0  0  0  0  0  0  0  0
  139.8600   68.6690  227.3300 C   0  0  0  0  0  0  0  0  0  0  0  0
  140.4170   69.2930  228.4210 C   0  0  0  0  0  0  0  0  0  0  0  0
  140.9230   70.5800  228.3020 C   0  0  0  0  0  0  0  0  0  0  0  0
  140.8890   71.2770  227.1110 C   0  0  0  0  0  0  0  0  0  0  0  0
  140.3320   70.6540  226.0130 C   0  0  0  0  0  0  0  0  0  0  0  0
  140.2700   71.2800  224.8240 N   0  0  0  0  0  0  0  0  0  0  0  0
  139.5780   73.3010  223.2830 H   0  0  0  0  0  0  0  0  0  0  0  0
  140.0152   73.0149  220.3778 H   0  0  0  0  0  0  0  0  0  0  0  0
  138.4230   73.7268  221.0087 H   0  0  0  0  0  0  0  0  0  0  0  0
  141.1480   74.5969  218.5733 H   0  0  0  0  0  0  0  0  0  0  0  0
  140.5029   76.1720  218.2260 H   0  0  0  0  0  0  0  0  0  0  0  0
  143.1595   76.2548  218.1171 H   0  0  0  0  0  0  0  0  0  0  0  0
  142.9940   75.6220  220.8690 H   0  0  0  0  0  0  0  0  0  0  0  0
  143.0875   77.9219  220.2881 H   0  0  0  0  0  0  0  0  0  0  0  0
  141.9054   78.3058  219.0559 H   0  0  0  0  0  0  0  0  0  0  0  0
  141.5589   77.2161  221.7123 H   0  0  0  0  0  0  0  0  0  0  0  0
  139.8009   78.2122  219.4995 H   0  0  0  0  0  0  0  0  0  0  0  0
  139.0863   77.2605  220.9278 H   0  0  0  0  0  0  0  0  0  0  0  0
  141.0972   81.4581  221.1994 H   0  0  0  0  0  0  0  0  0  0  0  0
  142.6955   82.2216  222.9224 H   0  0  0  0  0  0  0  0  0  0  0  0
  143.1933   80.7929  224.8856 H   0  0  0  0  0  0  0  0  0  0  0  0
  140.5285   77.8574  223.4390 H   0  0  0  0  0  0  0  0  0  0  0  0
  138.7942   68.9515  222.9625 H   0  0  0  0  0  0  0  0  0  0  0  0
  138.8545   67.7030  225.1065 H   0  0  0  0  0  0  0  0  0  0  0  0
  139.4556   67.6491  227.4089 H   0  0  0  0  0  0  0  0  0  0  0  0
  140.4617   68.7721  229.3888 H   0  0  0  0  0  0  0  0  0  0  0  0
  141.3661   71.0608  229.1866 H   0  0  0  0  0  0  0  0  0  0  0  0
  141.2934   72.2975  227.0394 H   0  0  0  0  0  0  0  0  0  0  0  0
  1  2  2  0
  2  3  1  0
  3  4  1  0
  4  5  1  0
  5  6  2  0
  5  7  1  0
  7  8  1  0
  8  9  1  0
  9 10  1  0
  9 11  1  0
 11 12  1  0
 12 13  1  0
 13 14  1  0
 14 15  1  0
 15 16  2  0
 16 17  1  0
 17 18  2  0
 18 19  1  0
 19 20  2  0
  2 21  1  0
 21 22  2  0
 22 23  1  0
 23 24  2  0
 24 25  1  0
 25 26  2  0
 26 27  1  0
 27 28  2  0
 28 29  1  0
 29 30  2  0
 12  7  1  0
 20 15  1  0
 30 21  1  0
 29 24  1  0
  3 31  1  0
  4 32  1  0
  4 33  1  0
  8 34  1  0
  8 35  1  0
  9 36  1  6
 10 37  1  0
 11 38  1  0
 11 39  1  0
 12 40  1  1
 13 41  1  0
 13 42  1  0
 16 43  1  0
 17 44  1  0
 18 45  1  0
 20 46  1  0
 22 47  1  0
 23 48  1  0
 25 49  1  0
 26 50  1  0
 27 51  1  0
 28 52  1  0
M  END
>  <smiles>  (49) 
O=C(NCC(=O)N1C[C@H](O)C[C@H]1COc1cccnc1)c1ccc2ccccc2n1

>  <score_type>  (49) 
oracle

>  <origin>  (49) 
autodockgpu

>  <m_score__min__energy>  (49) 
-8.4399999999999995

>  <m_primary>  (49) 
energy

>  <rmsd>  (49) 
1.4487317591934445

>  <m_score__min__rmsd>  (49) 
1.4487317591934445

>  <meeko>  (49) 
{"free_energy": -8.23, "intermolecular_energy": -10.62, "internal_energy": -1.85, "cluster_size": 30, "cluster_id": 1, "rank_in_cluster": 6}

>  <energy>  (49) 
-5.54

>  <cluster_rmsd>  (49) 
0.16

>  <cluster>  (49) 
6

$$$$

     RDKit          3D

 52 55  0  0  0  0  0  0  0  0999 V2000
  138.4770   75.5400  222.3380 O   0  0  0  0  0  0  0  0  0  0  0  0
  139.6560   75.9540  222.2130 C   0  0  0  0  0  0  0  0  0  0  0  0
  140.6260   75.0780  221.6540 N   0  0  0  0  0  0  0  0  0  0  0  0
  140.4090   73.7590  221.2050 C   0  0  0  0  0  0  0  0  0  0  0  0
  139.8870   72.8120  222.1740 C   0  0  0  0  0  0  0  0  0  0  0  0
  140.7790   72.5330  223.1060 O   0  0  0  0  0  0  0  0  0  0  0  0
  138.6820   72.1460  222.3260 N   0  0  0  0  0  0  0  0  0  0  0  0
  137.5170   71.8680  221.5350 C   0  0  0  0  0  0  0  0  0  0  0  0
  136.3980   72.2050  222.5330 C   0  0  2  0  0  0  0  0  0  0  0  0
  136.5620   73.5000  222.9340 O   0  0  0  0  0  0  0  0  0  0  0  0
  136.8800   71.3070  223.6820 C   0  0  0  0  0  0  0  0  0  0  0  0
  138.3570   71.4630  223.6300 C   0  0  1  0  0  0  0  0  0  0  0  0
  139.0920   70.1500  223.5320 C   0  0  0  0  0  0  0  0  0  0  0  0
  139.0850   69.3400  224.6310 O   0  0  0  0  0  0  0  0  0  0  0  0
  139.6840   69.5130  225.8170 C   0  0  0  0  0  0  0  0  0  0  0  0
  139.7690   68.6390  226.8710 C   0  0  0  0  0  0  0  0  0  0  0  0
  140.4350   68.9640  228.0510 C   0  0  0  0  0  0  0  0  0  0  0  0
  141.0300   70.1840  228.1910 C   0  0  0  0  0  0  0  0  0  0  0  0
  140.9510   71.0460  227.1660 N   0  0  0  0  0  0  0  0  0  0  0  0
  140.3220   70.7560  226.0330 C   0  0  0  0  0  0  0  0  0  0  0  0
  140.0190   77.3040  222.6320 C   0  0  0  0  0  0  0  0  0  0  0  0
  139.0240   78.1880  222.9950 C   0  0  0  0  0  0  0  0  0  0  0  0
  139.2790   79.4800  223.4020 C   0  0  0  0  0  0  0  0  0  0  0  0
  140.6050   79.8700  223.4360 C   0  0  0  0  0  0  0  0  0  0  0  0
  140.8880   81.1680  223.8440 C   0  0  0  0  0  0  0  0  0  0  0  0
  142.2040   81.5670  223.8820 C   0  0  0  0  0  0  0  0  0  0  0  0
  143.2080   80.6800  223.5190 C   0  0  0  0  0  0  0  0  0  0  0  0
  142.9400   79.3890  223.1120 C   0  0  0  0  0  0  0  0  0  0  0  0
  141.6200   78.9850  223.0730 C   0  0  0  0  0  0  0  0  0  0  0  0
  141.2930   77.7390  222.6850 N   0  0  0  0  0  0  0  0  0  0  0  0
  141.6010   75.4800  221.5790 H   0  0  0  0  0  0  0  0  0  0  0  0
  139.6958   73.8059  220.3689 H   0  0  0  0  0  0  0  0  0  0  0  0
  141.4068   73.3784  220.9414 H   0  0  0  0  0  0  0  0  0  0  0  0
  137.4708   72.5112  220.6439 H   0  0  0  0  0  0  0  0  0  0  0  0
  137.4744   70.8444  221.1345 H   0  0  0  0  0  0  0  0  0  0  0  0
  135.3629   72.0764  222.1835 H   0  0  0  0  0  0  0  0  0  0  0  0
  137.5120   73.7280  223.0450 H   0  0  0  0  0  0  0  0  0  0  0  0
  136.4797   71.6507  224.6472 H   0  0  0  0  0  0  0  0  0  0  0  0
  136.5504   70.2622  223.5836 H   0  0  0  0  0  0  0  0  0  0  0  0
  138.6542   71.9971  224.5446 H   0  0  0  0  0  0  0  0  0  0  0  0
  138.6447   69.5832  222.7021 H   0  0  0  0  0  0  0  0  0  0  0  0
  140.1473   70.4291  223.3964 H   0  0  0  0  0  0  0  0  0  0  0  0
  139.2962   67.6498  226.7817 H   0  0  0  0  0  0  0  0  0  0  0  0
  140.4813   68.2343  228.8728 H   0  0  0  0  0  0  0  0  0  0  0  0
  141.5590   70.4529  229.1172 H   0  0  0  0  0  0  0  0  0  0  0  0
  140.2964   71.5107  225.2331 H   0  0  0  0  0  0  0  0  0  0  0  0
  137.9791   77.8461  222.9579 H   0  0  0  0  0  0  0  0  0  0  0  0
  138.4678   80.1667  223.6856 H   0  0  0  0  0  0  0  0  0  0  0  0
  140.0806   81.8585  224.1292 H   0  0  0  0  0  0  0  0  0  0  0  0
  142.4604   82.5884  224.1999 H   0  0  0  0  0  0  0  0  0  0  0  0
  144.2541   81.0181  223.5571 H   0  0  0  0  0  0  0  0  0  0  0  0
  143.7519   78.7035  222.8277 H   0  0  0  0  0  0  0  0  0  0  0  0
  1  2  2  0
  2  3  1  0
  3  4  1  0
  4  5  1  0
  5  6  2  0
  5  7  1  0
  7  8  1  0
  8  9  1  0
  9 10  1  0
  9 11  1  0
 11 12  1  0
 12 13  1  0
 13 14  1  0
 14 15  1  0
 15 16  2  0
 16 17  1  0
 17 18  2  0
 18 19  1  0
 19 20  2  0
  2 21  1  0
 21 22  2  0
 22 23  1  0
 23 24  2  0
 24 25  1  0
 25 26  2  0
 26 27  1  0
 27 28  2  0
 28 29  1  0
 29 30  2  0
 12  7  1  0
 20 15  1  0
 30 21  1  0
 29 24  1  0
  3 31  1  0
  4 32  1  0
  4 33  1  0
  8 34  1  0
  8 35  1  0
  9 36  1  6
 10 37  1  0
 11 38  1  0
 11 39  1  0
 12 40  1  1
 13 41  1  0
 13 42  1  0
 16 43  1  0
 17 44  1  0
 18 45  1  0
 20 46  1  0
 22 47  1  0
 23 48  1  0
 25 49  1  0
 26 50  1  0
 27 51  1  0
 28 52  1  0
M  END
>  <smiles>  (50) 
O=C(NCC(=O)N1C[C@H](O)C[C@H]1COc1cccnc1)c1ccc2ccccc2n1

>  <score_type>  (50) 
oracle

>  <origin>  (50) 
autodockgpu

>  <m_score__min__energy>  (50) 
-8.4399999999999995

>  <m_primary>  (50) 
energy

>  <rmsd>  (50) 
8.227465326449927

>  <m_score__min__rmsd>  (50) 
8.227465326449927

>  <meeko>  (50) 
{"free_energy": -7.79, "intermolecular_energy": -10.18, "internal_energy": -2.33, "cluster_size": 30, "cluster_id": 1, "rank_in_cluster": 17}

>  <energy>  (50) 
-5.54

>  <cluster_rmsd>  (50) 
0.49

>  <cluster>  (50) 
6

$$$$
