
     RDKit          3D

 55 58  0  0  0  0  0  0  0  0999 V2000
  139.4950   71.4930  221.0560 O   0  0  0  0  0  0  0  0  0  0  0  0
  140.0110   71.8580  222.1210 C   0  0  0  0  0  0  0  0  0  0  0  0
  140.6850   73.0940  222.1830 N   0  0  0  0  0  0  0  0  0  0  0  0
  140.7590   73.9080  221.0090 C   0  0  0  0  0  0  0  0  0  0  0  0
  140.8960   75.3670  221.4040 C   0  0  0  0  0  0  0  0  0  0  0  0
  140.1770   75.6960  222.3790 O   0  0  0  0  0  0  0  0  0  0  0  0
  141.7670   76.1950  220.6900 N   0  0  0  0  0  0  0  0  0  0  0  0
  143.0080   75.6570  220.0450 C   0  0  0  0  0  0  0  0  0  0  0  0
  142.7110   76.1150  218.6180 C   0  0  0  0  0  0  0  0  0  0  0  0
  142.1830   77.5150  218.8350 C   0  0  0  0  0  0  0  0  0  0  0  0
  141.8320   77.5790  220.3350 C   0  0  1  0  0  0  0  0  0  0  0  0
  140.6870   78.4620  220.6140 C   0  0  1  0  0  0  0  0  0  0  0  0
  139.4540   77.8740  220.5050 O   0  0  0  0  0  0  0  0  0  0  0  0
  140.7710   79.3600  221.7960 C   0  0  0  0  0  0  0  0  0  0  0  0
  142.0010   80.2310  221.6650 C   0  0  0  0  0  0  0  0  0  0  0  0
  142.9350   79.7690  222.7320 C   0  0  0  0  0  0  0  0  0  0  0  0
  142.0310   79.3480  223.8540 C   0  0  0  0  0  0  0  0  0  0  0  0
  140.9450   78.5880  223.0960 C   0  0  0  0  0  0  0  0  0  0  0  0
  139.9320   71.0150  223.3290 C   0  0  0  0  0  0  0  0  0  0  0  0
  139.2800   69.7950  223.2590 C   0  0  0  0  0  0  0  0  0  0  0  0
  139.2290   69.0390  224.4130 C   0  0  0  0  0  0  0  0  0  0  0  0
  139.8030   69.4880  225.5830 C   0  0  0  0  0  0  0  0  0  0  0  0
  139.7770   68.7690  226.7630 C   0  0  0  0  0  0  0  0  0  0  0  0
  140.3560   69.2250  227.9330 C   0  0  0  0  0  0  0  0  0  0  0  0
  140.3050   68.4740  229.0800 F   0  0  0  0  0  0  0  0  0  0  0  0
  140.9990   70.4550  227.9600 C   0  0  0  0  0  0  0  0  0  0  0  0
  141.0340   71.1930  226.7760 C   0  0  0  0  0  0  0  0  0  0  0  0
  140.4500   70.7170  225.6210 C   0  0  0  0  0  0  0  0  0  0  0  0
  140.4990   71.4540  224.4930 N   0  0  0  0  0  0  0  0  0  0  0  0
  141.1090   73.3640  223.1130 H   0  0  0  0  0  0  0  0  0  0  0  0
  141.6320   73.6079  220.4108 H   0  0  0  0  0  0  0  0  0  0  0  0
  139.8415   73.7762  220.4168 H   0  0  0  0  0  0  0  0  0  0  0  0
  143.9221   76.1160  220.4497 H   0  0  0  0  0  0  0  0  0  0  0  0
  143.1993   74.5823  220.1805 H   0  0  0  0  0  0  0  0  0  0  0  0
  143.6236   76.1237  218.0039 H   0  0  0  0  0  0  0  0  0  0  0  0
  142.0118   75.4580  218.0800 H   0  0  0  0  0  0  0  0  0  0  0  0
  142.9514   78.2614  218.5852 H   0  0  0  0  0  0  0  0  0  0  0  0
  141.3140   77.7332  218.1969 H   0  0  0  0  0  0  0  0  0  0  0  0
  142.5603   78.0800  220.9897 H   0  0  0  0  0  0  0  0  0  0  0  0
  140.7934   79.1498  219.7622 H   0  0  0  0  0  0  0  0  0  0  0  0
  139.2750   77.0980  221.0570 H   0  0  0  0  0  0  0  0  0  0  0  0
  139.8343   79.9360  221.8255 H   0  0  0  0  0  0  0  0  0  0  0  0
  142.4582   80.1031  220.6727 H   0  0  0  0  0  0  0  0  0  0  0  0
  141.7572   81.2983  221.7716 H   0  0  0  0  0  0  0  0  0  0  0  0
  143.5411   78.9212  222.3800 H   0  0  0  0  0  0  0  0  0  0  0  0
  143.6483   80.5496  223.0352 H   0  0  0  0  0  0  0  0  0  0  0  0
  142.5540   78.6960  224.5692 H   0  0  0  0  0  0  0  0  0  0  0  0
  141.6540   80.1814  224.4649 H   0  0  0  0  0  0  0  0  0  0  0  0
  141.2633   77.5546  222.8941 H   0  0  0  0  0  0  0  0  0  0  0  0
  140.0081   78.5187  223.6682 H   0  0  0  0  0  0  0  0  0  0  0  0
  138.8219   69.4431  222.3229 H   0  0  0  0  0  0  0  0  0  0  0  0
  138.7223   68.0628  224.3986 H   0  0  0  0  0  0  0  0  0  0  0  0
  139.2736   67.7910  226.7719 H   0  0  0  0  0  0  0  0  0  0  0  0
  141.4643   70.8344  228.8817 H   0  0  0  0  0  0  0  0  0  0  0  0
  141.5363   72.1716  226.7639 H   0  0  0  0  0  0  0  0  0  0  0  0
  1  2  2  0
  2  3  1  0
  3  4  1  0
  4  5  1  0
  5  6  2  0
  5  7  1  0
  7  8  1  0
  8  9  1  0
  9 10  1  0
 10 11  1  0
 11 12  1  0
 12 13  1  0
 12 14  1  0
 14 15  1  0
 15 16  1  0
 16 17  1  0
 17 18  1  0
  2 19  1  0
 19 20  2  0
 20 21  1  0
 21 22  2  0
 22 23  1  0
 23 24  2  0
 24 25  1  0
 24 26  1  0
 26 27  2  0
 27 28  1  0
 28 29  2  0
 11  7  1  0
 18 14  1  0
 29 19  1  0
 28 22  1  0
  3 30  1  0
  4 31  1  0
  4 32  1  0
  8 33  1  0
  8 34  1  0
  9 35  1  0
  9 36  1  0
 10 37  1  0
 10 38  1  0
 11 39  1  1
 12 40  1  6
 13 41  1  0
 14 42  1  0
 15 43  1  0
 15 44  1  0
 16 45  1  0
 16 46  1  0
 17 47  1  0
 17 48  1  0
 18 49  1  0
 18 50  1  0
 20 51  1  0
 21 52  1  0
 23 53  1  0
 26 54  1  0
 27 55  1  0
M  END
>  <smiles>  (1) 
O=C(NCC(=O)N1CCC[C@H]1[C@@H](O)C1CCCC1)c1ccc2cc(F)ccc2n1

>  <score_type>  (1) 
oracle

>  <origin>  (1) 
autodockgpu

>  <m_score__min__energy>  (1) 
-9.0600000000000005

>  <m_primary>  (1) 
energy

>  <rmsd>  (1) 
2.0924154826204506

>  <m_score__min__rmsd>  (1) 
2.0924154826204506

>  <meeko>  (1) 
{"free_energy": -7.6, "intermolecular_energy": -9.69, "internal_energy": -2.75, "cluster_size": 39, "cluster_id": 1, "rank_in_cluster": 37}

>  <energy>  (1) 
-9.06

>  <cluster_rmsd>  (1) 
0.0

>  <cluster>  (1) 
1

$$$$

     RDKit          3D

 55 58  0  0  0  0  0  0  0  0999 V2000
  138.5130   70.7040  221.6660 O   0  0  0  0  0  0  0  0  0  0  0  0
  138.9980   71.1990  222.6920 C   0  0  0  0  0  0  0  0  0  0  0  0
  139.2780   72.5800  222.7360 N   0  0  0  0  0  0  0  0  0  0  0  0
  138.9940   73.3860  221.5890 C   0  0  0  0  0  0  0  0  0  0  0  0
  139.7180   74.7140  221.7040 C   0  0  0  0  0  0  0  0  0  0  0  0
  140.9680   74.6050  221.7670 O   0  0  0  0  0  0  0  0  0  0  0  0
  138.9810   75.9010  221.7300 N   0  0  0  0  0  0  0  0  0  0  0  0
  137.5030   75.9120  221.4850 C   0  0  0  0  0  0  0  0  0  0  0  0
  137.0830   76.5810  222.7930 C   0  0  0  0  0  0  0  0  0  0  0  0
  138.1140   77.6770  222.9370 C   0  0  0  0  0  0  0  0  0  0  0  0
  139.2460   77.2870  221.9640 C   0  0  1  0  0  0  0  0  0  0  0  0
  140.5750   77.7110  222.4390 C   0  0  1  0  0  0  0  0  0  0  0  0
  141.6190   77.3980  221.6080 O   0  0  0  0  0  0  0  0  0  0  0  0
  140.7090   79.0760  223.0100 C   0  0  0  0  0  0  0  0  0  0  0  0
  141.2080   80.0130  221.9320 C   0  0  0  0  0  0  0  0  0  0  0  0
  142.5950   80.3860  222.3350 C   0  0  0  0  0  0  0  0  0  0  0  0
  142.5500   80.4000  223.8350 C   0  0  0  0  0  0  0  0  0  0  0  0
  141.7440   79.1360  224.1240 C   0  0  0  0  0  0  0  0  0  0  0  0
  139.2880   70.3640  223.8730 C   0  0  0  0  0  0  0  0  0  0  0  0
  138.9420   69.0230  223.8530 C   0  0  0  0  0  0  0  0  0  0  0  0
  139.2310   68.2790  224.9780 C   0  0  0  0  0  0  0  0  0  0  0  0
  139.8380   68.8540  226.0750 C   0  0  0  0  0  0  0  0  0  0  0  0
  140.1470   68.1500  227.2240 C   0  0  0  0  0  0  0  0  0  0  0  0
  140.7560   68.7340  228.3190 C   0  0  0  0  0  0  0  0  0  0  0  0
  141.0430   67.9940  229.4380 F   0  0  0  0  0  0  0  0  0  0  0  0
  141.0860   70.0820  228.2990 C   0  0  0  0  0  0  0  0  0  0  0  0
  140.7810   70.8050  227.1450 C   0  0  0  0  0  0  0  0  0  0  0  0
  140.1730   70.2020  226.0640 C   0  0  0  0  0  0  0  0  0  0  0  0
  139.8900   70.9280  224.9630 N   0  0  0  0  0  0  0  0  0  0  0  0
  139.6910   72.9580  223.6330 H   0  0  0  0  0  0  0  0  0  0  0  0
  139.3317   72.8630  220.6821 H   0  0  0  0  0  0  0  0  0  0  0  0
  137.9105   73.5663  221.5303 H   0  0  0  0  0  0  0  0  0  0  0  0
  137.2301   76.5104  220.6032 H   0  0  0  0  0  0  0  0  0  0  0  0
  137.0398   74.9383  221.2672 H   0  0  0  0  0  0  0  0  0  0  0  0
  136.0670   76.9963  222.7202 H   0  0  0  0  0  0  0  0  0  0  0  0
  137.0485   75.8921  223.6499 H   0  0  0  0  0  0  0  0  0  0  0  0
  137.6845   78.6512  222.6605 H   0  0  0  0  0  0  0  0  0  0  0  0
  138.4729   77.7747  223.9722 H   0  0  0  0  0  0  0  0  0  0  0  0
  139.2670   77.8117  220.9974 H   0  0  0  0  0  0  0  0  0  0  0  0
  140.6559   77.0585  223.3209 H   0  0  0  0  0  0  0  0  0  0  0  0
  142.0010   76.5110  221.6800 H   0  0  0  0  0  0  0  0  0  0  0  0
  139.7201   79.3556  223.4022 H   0  0  0  0  0  0  0  0  0  0  0  0
  141.2150   79.5061  220.9558 H   0  0  0  0  0  0  0  0  0  0  0  0
  140.5619   80.8975  221.8306 H   0  0  0  0  0  0  0  0  0  0  0  0
  143.3200   79.6421  221.9732 H   0  0  0  0  0  0  0  0  0  0  0  0
  142.9115   81.3514  221.9134 H   0  0  0  0  0  0  0  0  0  0  0  0
  143.5593   80.3414  224.2684 H   0  0  0  0  0  0  0  0  0  0  0  0
  142.1181   81.3165  224.2634 H   0  0  0  0  0  0  0  0  0  0  0  0
  142.3927   78.2480  224.0993 H   0  0  0  0  0  0  0  0  0  0  0  0
  141.2814   79.1559  225.1218 H   0  0  0  0  0  0  0  0  0  0  0  0
  138.4567   68.5699  222.9760 H   0  0  0  0  0  0  0  0  0  0  0  0
  138.9732   67.2099  225.0006 H   0  0  0  0  0  0  0  0  0  0  0  0
  139.8977   67.0796  227.2688 H   0  0  0  0  0  0  0  0  0  0  0  0
  141.5704   70.5630  229.1615 H   0  0  0  0  0  0  0  0  0  0  0  0
  141.0301   71.8753  227.0968 H   0  0  0  0  0  0  0  0  0  0  0  0
  1  2  2  0
  2  3  1  0
  3  4  1  0
  4  5  1  0
  5  6  2  0
  5  7  1  0
  7  8  1  0
  8  9  1  0
  9 10  1  0
 10 11  1  0
 11 12  1  0
 12 13  1  0
 12 14  1  0
 14 15  1  0
 15 16  1  0
 16 17  1  0
 17 18  1  0
  2 19  1  0
 19 20  2  0
 20 21  1  0
 21 22  2  0
 22 23  1  0
 23 24  2  0
 24 25  1  0
 24 26  1  0
 26 27  2  0
 27 28  1  0
 28 29  2  0
 11  7  1  0
 18 14  1  0
 29 19  1  0
 28 22  1  0
  3 30  1  0
  4 31  1  0
  4 32  1  0
  8 33  1  0
  8 34  1  0
  9 35  1  0
  9 36  1  0
 10 37  1  0
 10 38  1  0
 11 39  1  6
 12 40  1  1
 13 41  1  0
 14 42  1  0
 15 43  1  0
 15 44  1  0
 16 45  1  0
 16 46  1  0
 17 47  1  0
 17 48  1  0
 18 49  1  0
 18 50  1  0
 20 51  1  0
 21 52  1  0
 23 53  1  0
 26 54  1  0
 27 55  1  0
M  END
>  <smiles>  (2) 
O=C(NCC(=O)N1CCC[C@H]1[C@@H](O)C1CCCC1)c1ccc2cc(F)ccc2n1

>  <score_type>  (2) 
oracle

>  <origin>  (2) 
autodockgpu

>  <m_score__min__energy>  (2) 
-9.0600000000000005

>  <m_primary>  (2) 
energy

>  <rmsd>  (2) 
2.6824758702867224

>  <m_score__min__rmsd>  (2) 
2.6824758702867224

>  <meeko>  (2) 
{"free_energy": -8.66, "intermolecular_energy": -10.75, "internal_energy": -2.41, "cluster_size": 39, "cluster_id": 1, "rank_in_cluster": 3}

>  <energy>  (2) 
-8.72

>  <cluster_rmsd>  (2) 
1.24

>  <cluster>  (2) 
1

$$$$

     RDKit          3D

 55 58  0  0  0  0  0  0  0  0999 V2000
  141.2340   71.4540  221.3940 O   0  0  0  0  0  0  0  0  0  0  0  0
  140.6600   72.0230  222.3320 C   0  0  0  0  0  0  0  0  0  0  0  0
  140.3530   73.3940  222.2340 N   0  0  0  0  0  0  0  0  0  0  0  0
  140.7120   74.1070  221.0470 C   0  0  0  0  0  0  0  0  0  0  0  0
  140.8610   75.5840  221.3600 C   0  0  0  0  0  0  0  0  0  0  0  0
  140.2120   75.9550  222.3690 O   0  0  0  0  0  0  0  0  0  0  0  0
  141.6690   76.3830  220.5450 N   0  0  0  0  0  0  0  0  0  0  0  0
  142.4410   75.8060  219.3990 C   0  0  0  0  0  0  0  0  0  0  0  0
  141.8620   76.6910  218.2960 C   0  0  0  0  0  0  0  0  0  0  0  0
  141.8500   78.0530  218.9520 C   0  0  0  0  0  0  0  0  0  0  0  0
  142.0130   77.7690  220.4590 C   0  0  1  0  0  0  0  0  0  0  0  0
  141.3130   78.7530  221.3020 C   0  0  1  0  0  0  0  0  0  0  0  0
  139.9460   78.6610  221.2960 O   0  0  0  0  0  0  0  0  0  0  0  0
  141.8470   79.0080  222.6660 C   0  0  0  0  0  0  0  0  0  0  0  0
  140.7270   79.5240  223.5430 C   0  0  0  0  0  0  0  0  0  0  0  0
  141.0620   80.9500  223.8230 C   0  0  0  0  0  0  0  0  0  0  0  0
  142.5620   80.9720  223.8720 C   0  0  0  0  0  0  0  0  0  0  0  0
  142.9140   80.0930  222.6740 C   0  0  0  0  0  0  0  0  0  0  0  0
  140.2910   71.2840  223.5540 C   0  0  0  0  0  0  0  0  0  0  0  0
  139.5710   70.1060  223.4400 C   0  0  0  0  0  0  0  0  0  0  0  0
  139.2460   69.4480  224.6080 C   0  0  0  0  0  0  0  0  0  0  0  0
  139.6260   69.9490  225.8360 C   0  0  0  0  0  0  0  0  0  0  0  0
  139.3240   69.3270  227.0330 C   0  0  0  0  0  0  0  0  0  0  0  0
  139.7080   69.8350  228.2600 C   0  0  0  0  0  0  0  0  0  0  0  0
  139.3860   69.1810  229.4210 F   0  0  0  0  0  0  0  0  0  0  0  0
  140.4290   71.0190  228.3300 C   0  0  0  0  0  0  0  0  0  0  0  0
  140.7420   71.6580  227.1300 C   0  0  0  0  0  0  0  0  0  0  0  0
  140.3480   71.1330  225.9170 C   0  0  0  0  0  0  0  0  0  0  0  0
  140.6640   71.7750  224.7740 N   0  0  0  0  0  0  0  0  0  0  0  0
  139.8620   73.8370  223.0590 H   0  0  0  0  0  0  0  0  0  0  0  0
  141.6657   73.7174  220.6613 H   0  0  0  0  0  0  0  0  0  0  0  0
  139.9243   73.9736  220.2909 H   0  0  0  0  0  0  0  0  0  0  0  0
  143.5264   75.9407  219.5163 H   0  0  0  0  0  0  0  0  0  0  0  0
  142.3488   74.7202  219.2490 H   0  0  0  0  0  0  0  0  0  0  0  0
  142.5029   76.6846  217.4020 H   0  0  0  0  0  0  0  0  0  0  0  0
  140.8738   76.3636  217.9406 H   0  0  0  0  0  0  0  0  0  0  0  0
  142.6833   78.6682  218.5818 H   0  0  0  0  0  0  0  0  0  0  0  0
  140.9271   78.6100  218.7330 H   0  0  0  0  0  0  0  0  0  0  0  0
  143.0188   77.9116  220.8810 H   0  0  0  0  0  0  0  0  0  0  0  0
  141.5777   79.6669  220.7499 H   0  0  0  0  0  0  0  0  0  0  0  0
  139.5530   77.7900  221.4530 H   0  0  0  0  0  0  0  0  0  0  0  0
  142.2748   78.0597  223.0234 H   0  0  0  0  0  0  0  0  0  0  0  0
  139.7634   79.4519  223.0174 H   0  0  0  0  0  0  0  0  0  0  0  0
  140.6325   78.9384  224.4694 H   0  0  0  0  0  0  0  0  0  0  0  0
  140.6881   81.6035  223.0211 H   0  0  0  0  0  0  0  0  0  0  0  0
  140.6042   81.3158  224.7539 H   0  0  0  0  0  0  0  0  0  0  0  0
  142.9538   81.9927  223.7513 H   0  0  0  0  0  0  0  0  0  0  0  0
  142.9865   80.6246  224.8255 H   0  0  0  0  0  0  0  0  0  0  0  0
  142.8816   80.6761  221.7419 H   0  0  0  0  0  0  0  0  0  0  0  0
  143.9301   79.6778  222.7460 H   0  0  0  0  0  0  0  0  0  0  0  0
  139.2707   69.7114  222.4581 H   0  0  0  0  0  0  0  0  0  0  0  0
  138.6749   68.5091  224.5595 H   0  0  0  0  0  0  0  0  0  0  0  0
  138.7533   68.3869  227.0081 H   0  0  0  0  0  0  0  0  0  0  0  0
  140.7425   71.4386  229.2973 H   0  0  0  0  0  0  0  0  0  0  0  0
  141.3134   72.5977  227.1517 H   0  0  0  0  0  0  0  0  0  0  0  0
  1  2  2  0
  2  3  1  0
  3  4  1  0
  4  5  1  0
  5  6  2  0
  5  7  1  0
  7  8  1  0
  8  9  1  0
  9 10  1  0
 10 11  1  0
 11 12  1  0
 12 13  1  0
 12 14  1  0
 14 15  1  0
 15 16  1  0
 16 17  1  0
 17 18  1  0
  2 19  1  0
 19 20  2  0
 20 21  1  0
 21 22  2  0
 22 23  1  0
 23 24  2  0
 24 25  1  0
 24 26  1  0
 26 27  2  0
 27 28  1  0
 28 29  2  0
 11  7  1  0
 18 14  1  0
 29 19  1  0
 28 22  1  0
  3 30  1  0
  4 31  1  0
  4 32  1  0
  8 33  1  0
  8 34  1  0
  9 35  1  0
  9 36  1  0
 10 37  1  0
 10 38  1  0
 11 39  1  1
 12 40  1  6
 13 41  1  0
 14 42  1  0
 15 43  1  0
 15 44  1  0
 16 45  1  0
 16 46  1  0
 17 47  1  0
 17 48  1  0
 18 49  1  0
 18 50  1  0
 20 51  1  0
 21 52  1  0
 23 53  1  0
 26 54  1  0
 27 55  1  0
M  END
>  <smiles>  (3) 
O=C(NCC(=O)N1CCC[C@H]1[C@@H](O)C1CCCC1)c1ccc2cc(F)ccc2n1

>  <score_type>  (3) 
oracle

>  <origin>  (3) 
autodockgpu

>  <m_score__min__energy>  (3) 
-9.0600000000000005

>  <m_primary>  (3) 
energy

>  <rmsd>  (3) 
2.0138606995052406

>  <m_score__min__rmsd>  (3) 
2.0138606995052406

>  <meeko>  (3) 
{"free_energy": -8.2, "intermolecular_energy": -10.29, "internal_energy": -2.7, "cluster_size": 39, "cluster_id": 1, "rank_in_cluster": 30}

>  <energy>  (3) 
-8.66

>  <cluster_rmsd>  (3) 
1.17

>  <cluster>  (3) 
1

$$$$

     RDKit          3D

 55 58  0  0  0  0  0  0  0  0999 V2000
  140.2010   71.3300  220.9750 O   0  0  0  0  0  0  0  0  0  0  0  0
  139.9520   71.8770  222.0570 C   0  0  0  0  0  0  0  0  0  0  0  0
  139.7740   73.2740  222.1080 N   0  0  0  0  0  0  0  0  0  0  0  0
  139.8840   74.0360  220.9030 C   0  0  0  0  0  0  0  0  0  0  0  0
  140.4740   75.4000  221.2100 C   0  0  0  0  0  0  0  0  0  0  0  0
  140.4770   75.6860  222.4320 O   0  0  0  0  0  0  0  0  0  0  0  0
  140.9470   76.1970  220.1640 N   0  0  0  0  0  0  0  0  0  0  0  0
  140.4670   77.6030  219.9710 C   0  0  0  0  0  0  0  0  0  0  0  0
  141.8290   78.2930  220.0240 C   0  0  0  0  0  0  0  0  0  0  0  0
  142.6880   77.3720  219.1890 C   0  0  0  0  0  0  0  0  0  0  0  0
  141.8830   76.0600  219.0900 C   0  0  1  0  0  0  0  0  0  0  0  0
  142.7440   74.8680  219.0150 C   0  0  1  0  0  0  0  0  0  0  0  0
  143.7320   74.9190  218.0670 O   0  0  0  0  0  0  0  0  0  0  0  0
  143.2270   74.2760  220.2900 C   0  0  0  0  0  0  0  0  0  0  0  0
  144.6910   74.6150  220.4650 C   0  0  0  0  0  0  0  0  0  0  0  0
  145.4230   73.3240  220.3140 C   0  0  0  0  0  0  0  0  0  0  0  0
  144.4830   72.3010  220.8780 C   0  0  0  0  0  0  0  0  0  0  0  0
  143.1510   72.7550  220.2850 C   0  0  0  0  0  0  0  0  0  0  0  0
  139.8390   71.0870  223.2990 C   0  0  0  0  0  0  0  0  0  0  0  0
  139.2520   69.8330  223.2490 C   0  0  0  0  0  0  0  0  0  0  0  0
  139.1660   69.1290  224.4330 C   0  0  0  0  0  0  0  0  0  0  0  0
  139.6450   69.6600  225.6120 C   0  0  0  0  0  0  0  0  0  0  0  0
  139.5810   68.9940  226.8220 C   0  0  0  0  0  0  0  0  0  0  0  0
  140.0630   69.5320  228.0010 C   0  0  0  0  0  0  0  0  0  0  0  0
  139.9780   68.8330  229.1770 F   0  0  0  0  0  0  0  0  0  0  0  0
  140.6440   70.7930  228.0070 C   0  0  0  0  0  0  0  0  0  0  0  0
  140.7160   71.4770  226.7920 C   0  0  0  0  0  0  0  0  0  0  0  0
  140.2280   70.9200  225.6290 C   0  0  0  0  0  0  0  0  0  0  0  0
  140.3120   71.6070  224.4710 N   0  0  0  0  0  0  0  0  0  0  0  0
  139.5630   73.6970  223.0540 H   0  0  0  0  0  0  0  0  0  0  0  0
  140.5377   73.5064  220.1943 H   0  0  0  0  0  0  0  0  0  0  0  0
  138.8848   74.1634  220.4611 H   0  0  0  0  0  0  0  0  0  0  0  0
  139.9645   77.7439  219.0027 H   0  0  0  0  0  0  0  0  0  0  0  0
  139.7127   77.9614  220.6870 H   0  0  0  0  0  0  0  0  0  0  0  0
  141.7825   79.3009  219.5858 H   0  0  0  0  0  0  0  0  0  0  0  0
  142.2077   78.4432  221.0458 H   0  0  0  0  0  0  0  0  0  0  0  0
  142.8557   77.7996  218.1895 H   0  0  0  0  0  0  0  0  0  0  0  0
  143.6816   77.2156  219.6342 H   0  0  0  0  0  0  0  0  0  0  0  0
  141.3286   75.8926  218.1548 H   0  0  0  0  0  0  0  0  0  0  0  0
  141.9967   74.1413  218.6637 H   0  0  0  0  0  0  0  0  0  0  0  0
  144.4960   75.4890  218.2440 H   0  0  0  0  0  0  0  0  0  0  0  0
  142.5902   74.6803  221.0906 H   0  0  0  0  0  0  0  0  0  0  0  0
  145.0138   75.3316  219.6954 H   0  0  0  0  0  0  0  0  0  0  0  0
  144.8866   75.0818  221.4417 H   0  0  0  0  0  0  0  0  0  0  0  0
  145.6350   73.1172  219.2546 H   0  0  0  0  0  0  0  0  0  0  0  0
  146.3969   73.3291  220.8254 H   0  0  0  0  0  0  0  0  0  0  0  0
  144.7463   71.2861  220.5453 H   0  0  0  0  0  0  0  0  0  0  0  0
  144.4891   72.2424  221.9764 H   0  0  0  0  0  0  0  0  0  0  0  0
  143.0330   72.3754  219.2593 H   0  0  0  0  0  0  0  0  0  0  0  0
  142.2899   72.3784  220.8565 H   0  0  0  0  0  0  0  0  0  0  0  0
  138.8705   69.4160  222.3053 H   0  0  0  0  0  0  0  0  0  0  0  0
  138.7082   68.1288  224.4362 H   0  0  0  0  0  0  0  0  0  0  0  0
  139.1268   67.9925  226.8478 H   0  0  0  0  0  0  0  0  0  0  0  0
  141.0333   71.2369  228.9351 H   0  0  0  0  0  0  0  0  0  0  0  0
  141.1703   72.4784  226.7621 H   0  0  0  0  0  0  0  0  0  0  0  0
  1  2  2  0
  2  3  1  0
  3  4  1  0
  4  5  1  0
  5  6  2  0
  5  7  1  0
  7  8  1  0
  8  9  1  0
  9 10  1  0
 10 11  1  0
 11 12  1  0
 12 13  1  0
 12 14  1  0
 14 15  1  0
 15 16  1  0
 16 17  1  0
 17 18  1  0
  2 19  1  0
 19 20  2  0
 20 21  1  0
 21 22  2  0
 22 23  1  0
 23 24  2  0
 24 25  1  0
 24 26  1  0
 26 27  2  0
 27 28  1  0
 28 29  2  0
 11  7  1  0
 18 14  1  0
 29 19  1  0
 28 22  1  0
  3 30  1  0
  4 31  1  0
  4 32  1  0
  8 33  1  0
  8 34  1  0
  9 35  1  0
  9 36  1  0
 10 37  1  0
 10 38  1  0
 11 39  1  6
 12 40  1  6
 13 41  1  0
 14 42  1  0
 15 43  1  0
 15 44  1  0
 16 45  1  0
 16 46  1  0
 17 47  1  0
 17 48  1  0
 18 49  1  0
 18 50  1  0
 20 51  1  0
 21 52  1  0
 23 53  1  0
 26 54  1  0
 27 55  1  0
M  END
>  <smiles>  (4) 
O=C(NCC(=O)N1CCC[C@H]1[C@@H](O)C1CCCC1)c1ccc2cc(F)ccc2n1

>  <score_type>  (4) 
oracle

>  <origin>  (4) 
autodockgpu

>  <m_score__min__energy>  (4) 
-9.0600000000000005

>  <m_primary>  (4) 
energy

>  <rmsd>  (4) 
1.9695271532975007

>  <m_score__min__rmsd>  (4) 
1.9695271532975007

>  <meeko>  (4) 
{"free_energy": -7.83, "intermolecular_energy": -9.92, "internal_energy": -2.44, "cluster_size": 2, "cluster_id": 3, "rank_in_cluster": 2}

>  <energy>  (4) 
-8.66

>  <cluster_rmsd>  (4) 
0.95

>  <cluster>  (4) 
1

$$$$

     RDKit          3D

 55 58  0  0  0  0  0  0  0  0999 V2000
  139.9900   71.5600  220.9700 O   0  0  0  0  0  0  0  0  0  0  0  0
  139.8450   72.0430  222.1000 C   0  0  0  0  0  0  0  0  0  0  0  0
  139.6650   73.4320  222.2480 N   0  0  0  0  0  0  0  0  0  0  0  0
  139.6540   74.2620  221.0830 C   0  0  0  0  0  0  0  0  0  0  0  0
  140.0120   75.6860  221.4640 C   0  0  0  0  0  0  0  0  0  0  0  0
  139.2020   76.2150  222.2650 O   0  0  0  0  0  0  0  0  0  0  0  0
  141.1580   76.2770  220.9230 N   0  0  0  0  0  0  0  0  0  0  0  0
  142.3110   75.4520  220.4380 C   0  0  0  0  0  0  0  0  0  0  0  0
  142.3540   75.9840  219.0060 C   0  0  0  0  0  0  0  0  0  0  0  0
  142.1610   77.4690  219.2110 C   0  0  0  0  0  0  0  0  0  0  0  0
  141.6140   77.6040  220.6460 C   0  0  1  0  0  0  0  0  0  0  0  0
  140.6930   78.7440  220.7990 C   0  0  1  0  0  0  0  0  0  0  0  0
  139.4050   78.5130  220.3940 O   0  0  0  0  0  0  0  0  0  0  0  0
  140.7460   79.5180  222.0670 C   0  0  0  0  0  0  0  0  0  0  0  0
  141.6060   80.7450  221.8580 C   0  0  0  0  0  0  0  0  0  0  0  0
  142.8340   80.5190  222.6740 C   0  0  0  0  0  0  0  0  0  0  0  0
  142.3480   79.7370  223.8590 C   0  0  0  0  0  0  0  0  0  0  0  0
  141.4070   78.7350  223.1930 C   0  0  0  0  0  0  0  0  0  0  0  0
  139.8570   71.1830  223.3000 C   0  0  0  0  0  0  0  0  0  0  0  0
  139.3810   69.8860  223.2050 C   0  0  0  0  0  0  0  0  0  0  0  0
  139.4100   69.1170  224.3500 C   0  0  0  0  0  0  0  0  0  0  0  0
  139.8940   69.6260  225.5370 C   0  0  0  0  0  0  0  0  0  0  0  0
  139.9420   68.8960  226.7090 C   0  0  0  0  0  0  0  0  0  0  0  0
  140.4290   69.4140  227.8960 C   0  0  0  0  0  0  0  0  0  0  0  0
  140.4580   68.6500  229.0340 F   0  0  0  0  0  0  0  0  0  0  0  0
  140.8960   70.7200  227.9480 C   0  0  0  0  0  0  0  0  0  0  0  0
  140.8540   71.4700  226.7710 C   0  0  0  0  0  0  0  0  0  0  0  0
  140.3640   70.9320  225.5990 C   0  0  0  0  0  0  0  0  0  0  0  0
  140.3350   71.6820  224.4790 N   0  0  0  0  0  0  0  0  0  0  0  0
  139.5450   73.8000  223.2320 H   0  0  0  0  0  0  0  0  0  0  0  0
  140.3883   73.8825  220.3571 H   0  0  0  0  0  0  0  0  0  0  0  0
  138.6492   74.2471  220.6356 H   0  0  0  0  0  0  0  0  0  0  0  0
  143.2382   75.6637  220.9907 H   0  0  0  0  0  0  0  0  0  0  0  0
  142.2095   74.3623  220.5488 H   0  0  0  0  0  0  0  0  0  0  0  0
  143.3222   75.7697  218.5298 H   0  0  0  0  0  0  0  0  0  0  0  0
  141.6035   75.5286  218.3431 H   0  0  0  0  0  0  0  0  0  0  0  0
  143.1184   78.0012  219.1102 H   0  0  0  0  0  0  0  0  0  0  0  0
  141.4794   77.9046  218.4655 H   0  0  0  0  0  0  0  0  0  0  0  0
  142.3355   77.9001  221.4217 H   0  0  0  0  0  0  0  0  0  0  0  0
  141.1457   79.4266  220.0647 H   0  0  0  0  0  0  0  0  0  0  0  0
  138.9200   77.7930  220.8250 H   0  0  0  0  0  0  0  0  0  0  0  0
  139.7072   79.7586  222.3373 H   0  0  0  0  0  0  0  0  0  0  0  0
  141.8664   80.8547  220.7949 H   0  0  0  0  0  0  0  0  0  0  0  0
  141.0821   81.6646  222.1577 H   0  0  0  0  0  0  0  0  0  0  0  0
  143.5798   79.9437  222.1059 H   0  0  0  0  0  0  0  0  0  0  0  0
  143.3278   81.4587  222.9623 H   0  0  0  0  0  0  0  0  0  0  0  0
  143.1772   79.2296  224.3738 H   0  0  0  0  0  0  0  0  0  0  0  0
  141.8730   80.3505  224.6387 H   0  0  0  0  0  0  0  0  0  0  0  0
  141.9710   77.8799  222.7922 H   0  0  0  0  0  0  0  0  0  0  0  0
  140.6728   78.3197  223.8990 H   0  0  0  0  0  0  0  0  0  0  0  0
  138.9957   69.4855  222.2557 H   0  0  0  0  0  0  0  0  0  0  0  0
  139.0412   68.0812  224.3157 H   0  0  0  0  0  0  0  0  0  0  0  0
  139.5773   67.8583  226.6980 H   0  0  0  0  0  0  0  0  0  0  0  0
  141.2853   71.1489  228.8831 H   0  0  0  0  0  0  0  0  0  0  0  0
  141.2180   72.5080  226.7784 H   0  0  0  0  0  0  0  0  0  0  0  0
  1  2  2  0
  2  3  1  0
  3  4  1  0
  4  5  1  0
  5  6  2  0
  5  7  1  0
  7  8  1  0
  8  9  1  0
  9 10  1  0
 10 11  1  0
 11 12  1  0
 12 13  1  0
 12 14  1  0
 14 15  1  0
 15 16  1  0
 16 17  1  0
 17 18  1  0
  2 19  1  0
 19 20  2  0
 20 21  1  0
 21 22  2  0
 22 23  1  0
 23 24  2  0
 24 25  1  0
 24 26  1  0
 26 27  2  0
 27 28  1  0
 28 29  2  0
 11  7  1  0
 18 14  1  0
 29 19  1  0
 28 22  1  0
  3 30  1  0
  4 31  1  0
  4 32  1  0
  8 33  1  0
  8 34  1  0
  9 35  1  0
  9 36  1  0
 10 37  1  0
 10 38  1  0
 11 39  1  1
 12 40  1  6
 13 41  1  0
 14 42  1  0
 15 43  1  0
 15 44  1  0
 16 45  1  0
 16 46  1  0
 17 47  1  0
 17 48  1  0
 18 49  1  0
 18 50  1  0
 20 51  1  0
 21 52  1  0
 23 53  1  0
 26 54  1  0
 27 55  1  0
M  END
>  <smiles>  (5) 
O=C(NCC(=O)N1CCC[C@H]1[C@@H](O)C1CCCC1)c1ccc2cc(F)ccc2n1

>  <score_type>  (5) 
oracle

>  <origin>  (5) 
autodockgpu

>  <m_score__min__energy>  (5) 
-9.0600000000000005

>  <m_primary>  (5) 
energy

>  <rmsd>  (5) 
1.8502476785336017

>  <m_score__min__rmsd>  (5) 
1.8502476785336017

>  <meeko>  (5) 
{"free_energy": -7.97, "intermolecular_energy": -10.06, "internal_energy": -2.6, "cluster_size": 39, "cluster_id": 1, "rank_in_cluster": 36}

>  <energy>  (5) 
-8.65

>  <cluster_rmsd>  (5) 
0.96

>  <cluster>  (5) 
1

$$$$

     RDKit          3D

 55 58  0  0  0  0  0  0  0  0999 V2000
  135.0870   68.5040  224.7320 O   0  0  0  0  0  0  0  0  0  0  0  0
  135.4140   69.5460  224.1490 C   0  0  0  0  0  0  0  0  0  0  0  0
  136.2220   69.4770  222.9970 N   0  0  0  0  0  0  0  0  0  0  0  0
  136.6510   68.1980  222.5210 C   0  0  0  0  0  0  0  0  0  0  0  0
  138.1580   68.0780  222.6590 C   0  0  0  0  0  0  0  0  0  0  0  0
  138.5900   66.9130  222.4810 O   0  0  0  0  0  0  0  0  0  0  0  0
  138.9150   69.2140  222.9600 N   0  0  0  0  0  0  0  0  0  0  0  0
  139.1450   70.2940  221.9470 C   0  0  0  0  0  0  0  0  0  0  0  0
  138.5800   71.4580  222.7580 C   0  0  0  0  0  0  0  0  0  0  0  0
  139.1460   71.1950  224.1350 C   0  0  0  0  0  0  0  0  0  0  0  0
  139.6170   69.7270  224.0960 C   0  0  1  0  0  0  0  0  0  0  0  0
  139.4910   69.0550  225.4010 C   0  0  1  0  0  0  0  0  0  0  0  0
  139.1850   67.7200  225.3450 O   0  0  0  0  0  0  0  0  0  0  0  0
  140.5170   69.3460  226.4370 C   0  0  0  0  0  0  0  0  0  0  0  0
  139.8830   69.2240  227.8050 C   0  0  0  0  0  0  0  0  0  0  0  0
  139.8390   70.6120  228.3510 C   0  0  0  0  0  0  0  0  0  0  0  0
  141.0670   71.2660  227.7910 C   0  0  0  0  0  0  0  0  0  0  0  0
  141.0380   70.7740  226.3460 C   0  0  0  0  0  0  0  0  0  0  0  0
  134.9690   70.8630  224.6430 C   0  0  0  0  0  0  0  0  0  0  0  0
  135.5610   72.0090  224.1370 C   0  0  0  0  0  0  0  0  0  0  0  0
  135.1160   73.2190  224.6270 C   0  0  0  0  0  0  0  0  0  0  0  0
  134.1230   73.2780  225.5830 C   0  0  0  0  0  0  0  0  0  0  0  0
  133.6450   74.4650  226.1050 C   0  0  0  0  0  0  0  0  0  0  0  0
  132.6490   74.5160  227.0630 C   0  0  0  0  0  0  0  0  0  0  0  0
  132.2060   75.7190  227.5500 F   0  0  0  0  0  0  0  0  0  0  0  0
  132.0820   73.3430  227.5440 C   0  0  0  0  0  0  0  0  0  0  0  0
  132.5550   72.1370  227.0260 C   0  0  0  0  0  0  0  0  0  0  0  0
  133.5490   72.1100  226.0710 C   0  0  0  0  0  0  0  0  0  0  0  0
  133.9860   70.9280  225.5910 N   0  0  0  0  0  0  0  0  0  0  0  0
  136.4760   70.3920  222.5320 H   0  0  0  0  0  0  0  0  0  0  0  0
  136.1659   67.4069  223.1116 H   0  0  0  0  0  0  0  0  0  0  0  0
  136.3733   68.0924  221.4619 H   0  0  0  0  0  0  0  0  0  0  0  0
  140.2115   70.4268  221.7124 H   0  0  0  0  0  0  0  0  0  0  0  0
  138.6995   70.1320  220.9544 H   0  0  0  0  0  0  0  0  0  0  0  0
  138.9264   72.4243  222.3627 H   0  0  0  0  0  0  0  0  0  0  0  0
  137.4818   71.5179  222.7369 H   0  0  0  0  0  0  0  0  0  0  0  0
  139.9917   71.8676  224.3408 H   0  0  0  0  0  0  0  0  0  0  0  0
  138.4047   71.3714  224.9283 H   0  0  0  0  0  0  0  0  0  0  0  0
  140.6947   69.5594  223.9530 H   0  0  0  0  0  0  0  0  0  0  0  0
  138.5968   69.5764  225.7731 H   0  0  0  0  0  0  0  0  0  0  0  0
  139.3140   67.2650  224.5000 H   0  0  0  0  0  0  0  0  0  0  0  0
  141.3413   68.6352  226.2782 H   0  0  0  0  0  0  0  0  0  0  0  0
  138.8667   68.8115  227.7220 H   0  0  0  0  0  0  0  0  0  0  0  0
  140.4521   68.5468  228.4589 H   0  0  0  0  0  0  0  0  0  0  0  0
  138.9311   71.1347  228.0156 H   0  0  0  0  0  0  0  0  0  0  0  0
  139.8149   70.6319  229.4506 H   0  0  0  0  0  0  0  0  0  0  0  0
  140.9986   72.3626  227.8441 H   0  0  0  0  0  0  0  0  0  0  0  0
  141.9933   71.0205  228.3311 H   0  0  0  0  0  0  0  0  0  0  0  0
  140.3642   71.3952  225.7377 H   0  0  0  0  0  0  0  0  0  0  0  0
  142.0268   70.8276  225.8671 H   0  0  0  0  0  0  0  0  0  0  0  0
  136.3533   71.9559  223.3758 H   0  0  0  0  0  0  0  0  0  0  0  0
  135.5599   74.1520  224.2495 H   0  0  0  0  0  0  0  0  0  0  0  0
  134.0755   75.4102  225.7427 H   0  0  0  0  0  0  0  0  0  0  0  0
  131.2887   73.3640  228.3058 H   0  0  0  0  0  0  0  0  0  0  0  0
  132.1268   71.1900  227.3863 H   0  0  0  0  0  0  0  0  0  0  0  0
  1  2  2  0
  2  3  1  0
  3  4  1  0
  4  5  1  0
  5  6  2  0
  5  7  1  0
  7  8  1  0
  8  9  1  0
  9 10  1  0
 10 11  1  0
 11 12  1  0
 12 13  1  0
 12 14  1  0
 14 15  1  0
 15 16  1  0
 16 17  1  0
 17 18  1  0
  2 19  1  0
 19 20  2  0
 20 21  1  0
 21 22  2  0
 22 23  1  0
 23 24  2  0
 24 25  1  0
 24 26  1  0
 26 27  2  0
 27 28  1  0
 28 29  2  0
 11  7  1  0
 18 14  1  0
 29 19  1  0
 28 22  1  0
  3 30  1  0
  4 31  1  0
  4 32  1  0
  8 33  1  0
  8 34  1  0
  9 35  1  0
  9 36  1  0
 10 37  1  0
 10 38  1  0
 11 39  1  6
 12 40  1  1
 13 41  1  0
 14 42  1  0
 15 43  1  0
 15 44  1  0
 16 45  1  0
 16 46  1  0
 17 47  1  0
 17 48  1  0
 18 49  1  0
 18 50  1  0
 20 51  1  0
 21 52  1  0
 23 53  1  0
 26 54  1  0
 27 55  1  0
M  END
>  <smiles>  (6) 
O=C(NCC(=O)N1CCC[C@H]1[C@@H](O)C1CCCC1)c1ccc2cc(F)ccc2n1

>  <score_type>  (6) 
oracle

>  <origin>  (6) 
autodockgpu

>  <m_score__min__energy>  (6) 
-9.0600000000000005

>  <m_primary>  (6) 
energy

>  <rmsd>  (6) 
7.385144188673551

>  <m_score__min__rmsd>  (6) 
7.385144188673551

>  <meeko>  (6) 
{"free_energy": -7.32, "intermolecular_energy": -9.41, "internal_energy": -2.49, "cluster_size": 2, "cluster_id": 4, "rank_in_cluster": 1}

>  <energy>  (6) 
-8.65

>  <cluster_rmsd>  (6) 
1.27

>  <cluster>  (6) 
1

$$$$

     RDKit          3D

 55 58  0  0  0  0  0  0  0  0999 V2000
  141.2330   71.4730  221.4370 O   0  0  0  0  0  0  0  0  0  0  0  0
  140.5980   71.9700  222.3760 C   0  0  0  0  0  0  0  0  0  0  0  0
  140.1670   73.3090  222.2970 N   0  0  0  0  0  0  0  0  0  0  0  0
  140.4740   74.0720  221.1260 C   0  0  0  0  0  0  0  0  0  0  0  0
  140.4830   75.5510  221.4660 C   0  0  0  0  0  0  0  0  0  0  0  0
  139.7860   75.8440  222.4680 O   0  0  0  0  0  0  0  0  0  0  0  0
  141.2280   76.4340  220.6790 N   0  0  0  0  0  0  0  0  0  0  0  0
  141.6600   76.0740  219.2900 C   0  0  0  0  0  0  0  0  0  0  0  0
  141.0190   77.2560  218.5640 C   0  0  0  0  0  0  0  0  0  0  0  0
  141.3490   78.4120  219.4820 C   0  0  0  0  0  0  0  0  0  0  0  0
  141.7600   77.7550  220.8150 C   0  0  1  0  0  0  0  0  0  0  0  0
  141.4030   78.5740  221.9860 C   0  0  1  0  0  0  0  0  0  0  0  0
  141.4500   77.9230  223.1910 O   0  0  0  0  0  0  0  0  0  0  0  0
  141.9640   79.9470  222.0750 C   0  0  0  0  0  0  0  0  0  0  0  0
  143.2900   79.8900  222.8010 C   0  0  0  0  0  0  0  0  0  0  0  0
  143.0610   80.5730  224.1080 C   0  0  0  0  0  0  0  0  0  0  0  0
  142.0540   81.6390  223.7930 C   0  0  0  0  0  0  0  0  0  0  0  0
  141.0810   80.8790  222.8940 C   0  0  0  0  0  0  0  0  0  0  0  0
  140.2830   71.1790  223.5810 C   0  0  0  0  0  0  0  0  0  0  0  0
  139.5910   69.9870  223.4440 C   0  0  0  0  0  0  0  0  0  0  0  0
  139.3170   69.2790  224.5960 C   0  0  0  0  0  0  0  0  0  0  0  0
  139.7180   69.7470  225.8310 C   0  0  0  0  0  0  0  0  0  0  0  0
  139.4670   69.0750  227.0120 C   0  0  0  0  0  0  0  0  0  0  0  0
  139.8720   69.5510  228.2460 C   0  0  0  0  0  0  0  0  0  0  0  0
  139.6000   68.8480  229.3910 F   0  0  0  0  0  0  0  0  0  0  0  0
  140.5630   70.7510  228.3390 C   0  0  0  0  0  0  0  0  0  0  0  0
  140.8250   71.4400  227.1540 C   0  0  0  0  0  0  0  0  0  0  0  0
  140.4110   70.9470  225.9350 C   0  0  0  0  0  0  0  0  0  0  0  0
  140.6780   71.6370  224.8070 N   0  0  0  0  0  0  0  0  0  0  0  0
  139.6280   73.6900  223.1220 H   0  0  0  0  0  0  0  0  0  0  0  0
  141.4640   73.7780  220.7473 H   0  0  0  0  0  0  0  0  0  0  0  0
  139.7118   73.8801  220.3564 H   0  0  0  0  0  0  0  0  0  0  0  0
  142.7547   76.0614  219.1828 H   0  0  0  0  0  0  0  0  0  0  0  0
  141.3729   75.0728  218.9361 H   0  0  0  0  0  0  0  0  0  0  0  0
  141.4616   77.3994  217.5672 H   0  0  0  0  0  0  0  0  0  0  0  0
  139.9415   77.1305  218.3818 H   0  0  0  0  0  0  0  0  0  0  0  0
  142.1782   79.0073  219.0720 H   0  0  0  0  0  0  0  0  0  0  0  0
  140.4992   79.0997  219.6039 H   0  0  0  0  0  0  0  0  0  0  0  0
  142.8390   77.6830  221.0166 H   0  0  0  0  0  0  0  0  0  0  0  0
  140.3422   78.7476  221.7522 H   0  0  0  0  0  0  0  0  0  0  0  0
  141.5360   76.9580  223.1780 H   0  0  0  0  0  0  0  0  0  0  0  0
  142.0510   80.3231  221.0450 H   0  0  0  0  0  0  0  0  0  0  0  0
  143.5953   78.8455  222.9618 H   0  0  0  0  0  0  0  0  0  0  0  0
  144.0915   80.3739  222.2236 H   0  0  0  0  0  0  0  0  0  0  0  0
  142.6630   79.8678  224.8525 H   0  0  0  0  0  0  0  0  0  0  0  0
  143.9872   80.9815  224.5385 H   0  0  0  0  0  0  0  0  0  0  0  0
  141.5577   82.0053  224.7038 H   0  0  0  0  0  0  0  0  0  0  0  0
  142.4831   82.5401  223.3304 H   0  0  0  0  0  0  0  0  0  0  0  0
  140.3633   80.3037  223.4972 H   0  0  0  0  0  0  0  0  0  0  0  0
  140.4846   81.5524  222.2609 H   0  0  0  0  0  0  0  0  0  0  0  0
  139.2729   69.6199  222.4571 H   0  0  0  0  0  0  0  0  0  0  0  0
  138.7705   68.3267  224.5292 H   0  0  0  0  0  0  0  0  0  0  0  0
  138.9217   68.1206  226.9690 H   0  0  0  0  0  0  0  0  0  0  0  0
  140.8924   71.1449  229.3118 H   0  0  0  0  0  0  0  0  0  0  0  0
  141.3717   72.3937  227.1934 H   0  0  0  0  0  0  0  0  0  0  0  0
  1  2  2  0
  2  3  1  0
  3  4  1  0
  4  5  1  0
  5  6  2  0
  5  7  1  0
  7  8  1  0
  8  9  1  0
  9 10  1  0
 10 11  1  0
 11 12  1  0
 12 13  1  0
 12 14  1  0
 14 15  1  0
 15 16  1  0
 16 17  1  0
 17 18  1  0
  2 19  1  0
 19 20  2  0
 20 21  1  0
 21 22  2  0
 22 23  1  0
 23 24  2  0
 24 25  1  0
 24 26  1  0
 26 27  2  0
 27 28  1  0
 28 29  2  0
 11  7  1  0
 18 14  1  0
 29 19  1  0
 28 22  1  0
  3 30  1  0
  4 31  1  0
  4 32  1  0
  8 33  1  0
  8 34  1  0
  9 35  1  0
  9 36  1  0
 10 37  1  0
 10 38  1  0
 11 39  1  6
 12 40  1  6
 13 41  1  0
 14 42  1  0
 15 43  1  0
 15 44  1  0
 16 45  1  0
 16 46  1  0
 17 47  1  0
 17 48  1  0
 18 49  1  0
 18 50  1  0
 20 51  1  0
 21 52  1  0
 23 53  1  0
 26 54  1  0
 27 55  1  0
M  END
>  <smiles>  (7) 
O=C(NCC(=O)N1CCC[C@H]1[C@@H](O)C1CCCC1)c1ccc2cc(F)ccc2n1

>  <score_type>  (7) 
oracle

>  <origin>  (7) 
autodockgpu

>  <m_score__min__energy>  (7) 
-9.0600000000000005

>  <m_primary>  (7) 
energy

>  <rmsd>  (7) 
1.814890803115023

>  <m_score__min__rmsd>  (7) 
1.814890803115023

>  <meeko>  (7) 
{"free_energy": -8.54, "intermolecular_energy": -10.63, "internal_energy": -2.53, "cluster_size": 39, "cluster_id": 1, "rank_in_cluster": 11}

>  <energy>  (7) 
-8.65

>  <cluster_rmsd>  (7) 
1.3

>  <cluster>  (7) 
1

$$$$

     RDKit          3D

 55 58  0  0  0  0  0  0  0  0999 V2000
  141.1440   72.2530  221.3630 O   0  0  0  0  0  0  0  0  0  0  0  0
  140.2320   72.4590  222.1760 C   0  0  0  0  0  0  0  0  0  0  0  0
  139.3610   73.5500  221.9850 N   0  0  0  0  0  0  0  0  0  0  0  0
  139.5460   74.4010  220.8510 C   0  0  0  0  0  0  0  0  0  0  0  0
  140.5910   75.4560  221.1660 C   0  0  0  0  0  0  0  0  0  0  0  0
  141.0730   75.3600  222.3210 O   0  0  0  0  0  0  0  0  0  0  0  0
  140.9230   76.4080  220.1970 N   0  0  0  0  0  0  0  0  0  0  0  0
  140.9430   76.0680  218.7380 C   0  0  0  0  0  0  0  0  0  0  0  0
  139.9520   77.1320  218.2680 C   0  0  0  0  0  0  0  0  0  0  0  0
  140.3910   78.3470  219.0510 C   0  0  0  0  0  0  0  0  0  0  0  0
  141.2850   77.7910  220.1790 C   0  0  1  0  0  0  0  0  0  0  0  0
  141.2040   78.5880  221.4150 C   0  0  1  0  0  0  0  0  0  0  0  0
  141.4300   77.8940  222.5740 O   0  0  0  0  0  0  0  0  0  0  0  0
  141.8620   79.9220  221.4290 C   0  0  0  0  0  0  0  0  0  0  0  0
  142.7980   79.9950  222.6150 C   0  0  0  0  0  0  0  0  0  0  0  0
  142.1840   80.9810  223.5510 C   0  0  0  0  0  0  0  0  0  0  0  0
  141.5140   81.9750  222.6480 C   0  0  0  0  0  0  0  0  0  0  0  0
  140.8630   81.0550  221.6180 C   0  0  0  0  0  0  0  0  0  0  0  0
  140.0450   71.5790  223.3440 C   0  0  0  0  0  0  0  0  0  0  0  0
  139.3200   70.4080  223.1970 C   0  0  0  0  0  0  0  0  0  0  0  0
  139.1680   69.6140  224.3150 C   0  0  0  0  0  0  0  0  0  0  0  0
  139.7170   69.9790  225.5270 C   0  0  0  0  0  0  0  0  0  0  0  0
  139.5910   69.2180  226.6740 C   0  0  0  0  0  0  0  0  0  0  0  0
  140.1450   69.5900  227.8850 C   0  0  0  0  0  0  0  0  0  0  0  0
  139.9940   68.8020  228.9960 F   0  0  0  0  0  0  0  0  0  0  0  0
  140.8650   70.7730  227.9900 C   0  0  0  0  0  0  0  0  0  0  0  0
  141.0000   71.5520  226.8390 C   0  0  0  0  0  0  0  0  0  0  0  0
  140.4390   71.1600  225.6420 C   0  0  0  0  0  0  0  0  0  0  0  0
  140.5870   71.9350  224.5480 N   0  0  0  0  0  0  0  0  0  0  0  0
  138.5980   73.6870  222.7040 H   0  0  0  0  0  0  0  0  0  0  0  0
  139.8814   73.7992  219.9935 H   0  0  0  0  0  0  0  0  0  0  0  0
  138.5934   74.8942  220.6073 H   0  0  0  0  0  0  0  0  0  0  0  0
  141.9399   76.1988  218.2918 H   0  0  0  0  0  0  0  0  0  0  0  0
  140.6990   75.0274  218.4778 H   0  0  0  0  0  0  0  0  0  0  0  0
  140.0359   77.3041  217.1848 H   0  0  0  0  0  0  0  0  0  0  0  0
  138.8995   76.8579  218.4326 H   0  0  0  0  0  0  0  0  0  0  0  0
  140.9606   79.0356  218.4096 H   0  0  0  0  0  0  0  0  0  0  0  0
  139.5364   78.9177  219.4433 H   0  0  0  0  0  0  0  0  0  0  0  0
  142.3720   77.8717  220.0312 H   0  0  0  0  0  0  0  0  0  0  0  0
  140.1318   78.8324  221.3884 H   0  0  0  0  0  0  0  0  0  0  0  0
  141.8220   77.0110  222.5010 H   0  0  0  0  0  0  0  0  0  0  0  0
  142.3773   80.0340  220.4636 H   0  0  0  0  0  0  0  0  0  0  0  0
  142.8842   79.0101  223.0972 H   0  0  0  0  0  0  0  0  0  0  0  0
  143.8125   80.2962  222.3148 H   0  0  0  0  0  0  0  0  0  0  0  0
  141.4488   80.4915  224.2066 H   0  0  0  0  0  0  0  0  0  0  0  0
  142.9242   81.4480  224.2174 H   0  0  0  0  0  0  0  0  0  0  0  0
  140.7625   82.5681  223.1897 H   0  0  0  0  0  0  0  0  0  0  0  0
  142.1965   82.7219  222.2162 H   0  0  0  0  0  0  0  0  0  0  0  0
  139.9041   80.6685  221.9937 H   0  0  0  0  0  0  0  0  0  0  0  0
  140.6401   81.5761  220.6752 H   0  0  0  0  0  0  0  0  0  0  0  0
  138.8833   70.1227  222.2285 H   0  0  0  0  0  0  0  0  0  0  0  0
  138.6001   68.6750  224.2389 H   0  0  0  0  0  0  0  0  0  0  0  0
  139.0257   68.2759  226.6211 H   0  0  0  0  0  0  0  0  0  0  0  0
  141.3126   71.0850  228.9452 H   0  0  0  0  0  0  0  0  0  0  0  0
  141.5639   72.4952  226.8881 H   0  0  0  0  0  0  0  0  0  0  0  0
  1  2  2  0
  2  3  1  0
  3  4  1  0
  4  5  1  0
  5  6  2  0
  5  7  1  0
  7  8  1  0
  8  9  1  0
  9 10  1  0
 10 11  1  0
 11 12  1  0
 12 13  1  0
 12 14  1  0
 14 15  1  0
 15 16  1  0
 16 17  1  0
 17 18  1  0
  2 19  1  0
 19 20  2  0
 20 21  1  0
 21 22  2  0
 22 23  1  0
 23 24  2  0
 24 25  1  0
 24 26  1  0
 26 27  2  0
 27 28  1  0
 28 29  2  0
 11  7  1  0
 18 14  1  0
 29 19  1  0
 28 22  1  0
  3 30  1  0
  4 31  1  0
  4 32  1  0
  8 33  1  0
  8 34  1  0
  9 35  1  0
  9 36  1  0
 10 37  1  0
 10 38  1  0
 11 39  1  6
 12 40  1  1
 13 41  1  0
 14 42  1  0
 15 43  1  0
 15 44  1  0
 16 45  1  0
 16 46  1  0
 17 47  1  0
 17 48  1  0
 18 49  1  0
 18 50  1  0
 20 51  1  0
 21 52  1  0
 23 53  1  0
 26 54  1  0
 27 55  1  0
M  END
>  <smiles>  (8) 
O=C(NCC(=O)N1CCC[C@H]1[C@@H](O)C1CCCC1)c1ccc2cc(F)ccc2n1

>  <score_type>  (8) 
oracle

>  <origin>  (8) 
autodockgpu

>  <m_score__min__energy>  (8) 
-9.0600000000000005

>  <m_primary>  (8) 
energy

>  <rmsd>  (8) 
1.4812328547152758

>  <m_score__min__rmsd>  (8) 
1.4812328547152758

>  <meeko>  (8) 
{"free_energy": -8.28, "intermolecular_energy": -10.37, "internal_energy": -2.04, "cluster_size": 39, "cluster_id": 1, "rank_in_cluster": 22}

>  <energy>  (8) 
-8.62

>  <cluster_rmsd>  (8) 
1.36

>  <cluster>  (8) 
1

$$$$

     RDKit          3D

 55 58  0  0  0  0  0  0  0  0999 V2000
  140.8830   71.5520  221.2490 O   0  0  0  0  0  0  0  0  0  0  0  0
  140.2930   71.9680  222.2540 C   0  0  0  0  0  0  0  0  0  0  0  0
  139.7730   73.2780  222.2660 N   0  0  0  0  0  0  0  0  0  0  0  0
  139.9380   74.1040  221.1100 C   0  0  0  0  0  0  0  0  0  0  0  0
  140.3690   75.4970  221.5320 C   0  0  0  0  0  0  0  0  0  0  0  0
  139.9190   75.8480  222.6500 O   0  0  0  0  0  0  0  0  0  0  0  0
  141.1920   76.2490  220.6880 N   0  0  0  0  0  0  0  0  0  0  0  0
  141.6110   75.7390  219.3430 C   0  0  0  0  0  0  0  0  0  0  0  0
  141.0770   76.9030  218.5090 C   0  0  0  0  0  0  0  0  0  0  0  0
  141.4870   78.1020  219.3330 C   0  0  0  0  0  0  0  0  0  0  0  0
  141.8270   77.5300  220.7250 C   0  0  1  0  0  0  0  0  0  0  0  0
  141.5210   78.4710  221.8160 C   0  0  1  0  0  0  0  0  0  0  0  0
  141.5610   77.9360  223.0770 O   0  0  0  0  0  0  0  0  0  0  0  0
  142.1390   79.8220  221.7660 C   0  0  0  0  0  0  0  0  0  0  0  0
  142.6640   80.1730  223.1410 C   0  0  0  0  0  0  0  0  0  0  0  0
  141.7890   81.2760  223.6340 C   0  0  0  0  0  0  0  0  0  0  0  0
  141.4270   82.0400  222.3940 C   0  0  0  0  0  0  0  0  0  0  0  0
  141.1280   80.9050  221.4180 C   0  0  0  0  0  0  0  0  0  0  0  0
  140.1250   71.1120  223.4440 C   0  0  0  0  0  0  0  0  0  0  0  0
  139.4560   69.9060  223.3190 C   0  0  0  0  0  0  0  0  0  0  0  0
  139.3210   69.1370  224.4560 C   0  0  0  0  0  0  0  0  0  0  0  0
  139.8320   69.5600  225.6650 C   0  0  0  0  0  0  0  0  0  0  0  0
  139.7210   68.8270  226.8320 C   0  0  0  0  0  0  0  0  0  0  0  0
  140.2360   69.2570  228.0400 C   0  0  0  0  0  0  0  0  0  0  0  0
  140.1020   68.4940  229.1710 F   0  0  0  0  0  0  0  0  0  0  0  0
  140.8990   70.4740  228.1230 C   0  0  0  0  0  0  0  0  0  0  0  0
  141.0190   71.2260  226.9530 C   0  0  0  0  0  0  0  0  0  0  0  0
  140.4980   70.7760  225.7590 C   0  0  0  0  0  0  0  0  0  0  0  0
  140.6290   71.5260  224.6460 N   0  0  0  0  0  0  0  0  0  0  0  0
  139.2770   73.5910  223.1460 H   0  0  0  0  0  0  0  0  0  0  0  0
  140.7060   73.6666  220.4550 H   0  0  0  0  0  0  0  0  0  0  0  0
  138.9824   74.1673  220.5689 H   0  0  0  0  0  0  0  0  0  0  0  0
  142.7023   75.6301  219.2585 H   0  0  0  0  0  0  0  0  0  0  0  0
  141.2485   74.7375  219.0682 H   0  0  0  0  0  0  0  0  0  0  0  0
  141.5424   76.9260  217.5126 H   0  0  0  0  0  0  0  0  0  0  0  0
  139.9952   76.8486  218.3172 H   0  0  0  0  0  0  0  0  0  0  0  0
  142.3666   78.5928  218.8909 H   0  0  0  0  0  0  0  0  0  0  0  0
  140.6937   78.8625  219.3804 H   0  0  0  0  0  0  0  0  0  0  0  0
  142.8938   77.3906  220.9542 H   0  0  0  0  0  0  0  0  0  0  0  0
  140.4645   78.6659  221.5799 H   0  0  0  0  0  0  0  0  0  0  0  0
  141.7130   76.9820  223.1570 H   0  0  0  0  0  0  0  0  0  0  0  0
  142.9267   79.7847  220.9991 H   0  0  0  0  0  0  0  0  0  0  0  0
  142.5991   79.3027  223.8106 H   0  0  0  0  0  0  0  0  0  0  0  0
  143.7212   80.4752  223.1085 H   0  0  0  0  0  0  0  0  0  0  0  0
  140.8888   80.8722  224.1204 H   0  0  0  0  0  0  0  0  0  0  0  0
  142.2871   81.9051  224.3864 H   0  0  0  0  0  0  0  0  0  0  0  0
  140.5433   82.6747  222.5560 H   0  0  0  0  0  0  0  0  0  0  0  0
  142.2070   82.7352  222.0502 H   0  0  0  0  0  0  0  0  0  0  0  0
  140.1009   80.5357  221.5550 H   0  0  0  0  0  0  0  0  0  0  0  0
  141.2057   81.2261  220.3688 H   0  0  0  0  0  0  0  0  0  0  0  0
  139.0488   69.5748  222.3523 H   0  0  0  0  0  0  0  0  0  0  0  0
  138.7976   68.1713  224.3975 H   0  0  0  0  0  0  0  0  0  0  0  0
  139.1998   67.8589  226.7973 H   0  0  0  0  0  0  0  0  0  0  0  0
  141.3147   70.8327  229.0762 H   0  0  0  0  0  0  0  0  0  0  0  0
  141.5386   72.1950  226.9846 H   0  0  0  0  0  0  0  0  0  0  0  0
  1  2  2  0
  2  3  1  0
  3  4  1  0
  4  5  1  0
  5  6  2  0
  5  7  1  0
  7  8  1  0
  8  9  1  0
  9 10  1  0
 10 11  1  0
 11 12  1  0
 12 13  1  0
 12 14  1  0
 14 15  1  0
 15 16  1  0
 16 17  1  0
 17 18  1  0
  2 19  1  0
 19 20  2  0
 20 21  1  0
 21 22  2  0
 22 23  1  0
 23 24  2  0
 24 25  1  0
 24 26  1  0
 26 27  2  0
 27 28  1  0
 28 29  2  0
 11  7  1  0
 18 14  1  0
 29 19  1  0
 28 22  1  0
  3 30  1  0
  4 31  1  0
  4 32  1  0
  8 33  1  0
  8 34  1  0
  9 35  1  0
  9 36  1  0
 10 37  1  0
 10 38  1  0
 11 39  1  6
 12 40  1  6
 13 41  1  0
 14 42  1  0
 15 43  1  0
 15 44  1  0
 16 45  1  0
 16 46  1  0
 17 47  1  0
 17 48  1  0
 18 49  1  0
 18 50  1  0
 20 51  1  0
 21 52  1  0
 23 53  1  0
 26 54  1  0
 27 55  1  0
M  END
>  <smiles>  (9) 
O=C(NCC(=O)N1CCC[C@H]1[C@@H](O)C1CCCC1)c1ccc2cc(F)ccc2n1

>  <score_type>  (9) 
oracle

>  <origin>  (9) 
autodockgpu

>  <m_score__min__energy>  (9) 
-9.0600000000000005

>  <m_primary>  (9) 
energy

>  <rmsd>  (9) 
1.5727524788007072

>  <m_score__min__rmsd>  (9) 
1.5727524788007072

>  <meeko>  (9) 
{"free_energy": -8.59, "intermolecular_energy": -10.67, "internal_energy": -2.38, "cluster_size": 39, "cluster_id": 1, "rank_in_cluster": 9}

>  <energy>  (9) 
-8.59

>  <cluster_rmsd>  (9) 
1.33

>  <cluster>  (9) 
1

$$$$

     RDKit          3D

 55 58  0  0  0  0  0  0  0  0999 V2000
  141.0970   73.0850  220.6090 O   0  0  0  0  0  0  0  0  0  0  0  0
  140.4300   73.9200  221.2320 C   0  0  0  0  0  0  0  0  0  0  0  0
  139.2780   73.5120  221.9340 N   0  0  0  0  0  0  0  0  0  0  0  0
  138.9020   72.1320  221.9130 C   0  0  0  0  0  0  0  0  0  0  0  0
  137.9060   71.8550  223.0240 C   0  0  0  0  0  0  0  0  0  0  0  0
  136.9890   72.7090  223.1050 O   0  0  0  0  0  0  0  0  0  0  0  0
  138.0730   70.7280  223.8340 N   0  0  0  0  0  0  0  0  0  0  0  0
  137.0260   69.6600  223.9170 C   0  0  0  0  0  0  0  0  0  0  0  0
  137.9040   68.4810  223.5010 C   0  0  0  0  0  0  0  0  0  0  0  0
  139.1770   68.7420  224.2730 C   0  0  0  0  0  0  0  0  0  0  0  0
  139.0800   70.2170  224.7120 C   0  0  1  0  0  0  0  0  0  0  0  0
  140.3940   70.8770  224.7840 C   0  0  1  0  0  0  0  0  0  0  0  0
  140.4390   72.1500  224.2790 O   0  0  0  0  0  0  0  0  0  0  0  0
  141.1680   70.7540  226.0480 C   0  0  0  0  0  0  0  0  0  0  0  0
  140.5280   69.6920  226.9140 C   0  0  0  0  0  0  0  0  0  0  0  0
  139.9410   70.4210  228.0760 C   0  0  0  0  0  0  0  0  0  0  0  0
  140.8820   71.5680  228.3010 C   0  0  0  0  0  0  0  0  0  0  0  0
  141.1360   72.0350  226.8700 C   0  0  0  0  0  0  0  0  0  0  0  0
  140.8220   75.3430  221.2510 C   0  0  0  0  0  0  0  0  0  0  0  0
  141.7940   75.7860  220.3690 C   0  0  0  0  0  0  0  0  0  0  0  0
  142.1320   77.1230  220.4210 C   0  0  0  0  0  0  0  0  0  0  0  0
  141.5230   77.9760  221.3180 C   0  0  0  0  0  0  0  0  0  0  0  0
  141.8270   79.3210  221.4080 C   0  0  0  0  0  0  0  0  0  0  0  0
  141.2120   80.1700  222.3090 C   0  0  0  0  0  0  0  0  0  0  0  0
  141.5470   81.4990  222.3610 F   0  0  0  0  0  0  0  0  0  0  0  0
  140.2420   79.6850  223.1760 C   0  0  0  0  0  0  0  0  0  0  0  0
  139.9240   78.3280  223.0960 C   0  0  0  0  0  0  0  0  0  0  0  0
  140.5510   77.5000  222.1890 C   0  0  0  0  0  0  0  0  0  0  0  0
  140.2220   76.1930  222.1370 N   0  0  0  0  0  0  0  0  0  0  0  0
  138.7400   74.2600  222.4510 H   0  0  0  0  0  0  0  0  0  0  0  0
  138.4426   71.8932  220.9425 H   0  0  0  0  0  0  0  0  0  0  0  0
  139.7962   71.5090  222.0624 H   0  0  0  0  0  0  0  0  0  0  0  0
  136.6263   69.5447  224.9353 H   0  0  0  0  0  0  0  0  0  0  0  0
  136.1168   69.8233  223.3197 H   0  0  0  0  0  0  0  0  0  0  0  0
  137.4497   67.5228  223.7934 H   0  0  0  0  0  0  0  0  0  0  0  0
  138.0548   68.4050  222.4140 H   0  0  0  0  0  0  0  0  0  0  0  0
  139.2403   68.0807  225.1497 H   0  0  0  0  0  0  0  0  0  0  0  0
  140.0750   68.5484  223.6680 H   0  0  0  0  0  0  0  0  0  0  0  0
  138.7723   70.4018  225.7518 H   0  0  0  0  0  0  0  0  0  0  0  0
  140.9439   70.2318  224.0830 H   0  0  0  0  0  0  0  0  0  0  0  0
  139.6030   72.6330  224.2030 H   0  0  0  0  0  0  0  0  0  0  0  0
  142.2041   70.5156  225.7659 H   0  0  0  0  0  0  0  0  0  0  0  0
  139.7415   69.1637  226.3552 H   0  0  0  0  0  0  0  0  0  0  0  0
  141.2583   68.9349  227.2356 H   0  0  0  0  0  0  0  0  0  0  0  0
  138.9307   70.7855  227.8385 H   0  0  0  0  0  0  0  0  0  0  0  0
  139.8336   69.7821  228.9650 H   0  0  0  0  0  0  0  0  0  0  0  0
  140.4145   72.3593  228.9054 H   0  0  0  0  0  0  0  0  0  0  0  0
  141.7938   71.2994  228.8547 H   0  0  0  0  0  0  0  0  0  0  0  0
  140.3261   72.6959  226.5277 H   0  0  0  0  0  0  0  0  0  0  0  0
  142.0677   72.6126  226.7788 H   0  0  0  0  0  0  0  0  0  0  0  0
  142.2764   75.1005  219.6567 H   0  0  0  0  0  0  0  0  0  0  0  0
  142.8989   77.5146  219.7366 H   0  0  0  0  0  0  0  0  0  0  0  0
  142.5915   79.7339  220.7335 H   0  0  0  0  0  0  0  0  0  0  0  0
  139.7423   80.3459  223.8995 H   0  0  0  0  0  0  0  0  0  0  0  0
  139.1595   77.9118  223.7686 H   0  0  0  0  0  0  0  0  0  0  0  0
  1  2  2  0
  2  3  1  0
  3  4  1  0
  4  5  1  0
  5  6  2  0
  5  7  1  0
  7  8  1  0
  8  9  1  0
  9 10  1  0
 10 11  1  0
 11 12  1  0
 12 13  1  0
 12 14  1  0
 14 15  1  0
 15 16  1  0
 16 17  1  0
 17 18  1  0
  2 19  1  0
 19 20  2  0
 20 21  1  0
 21 22  2  0
 22 23  1  0
 23 24  2  0
 24 25  1  0
 24 26  1  0
 26 27  2  0
 27 28  1  0
 28 29  2  0
 11  7  1  0
 18 14  1  0
 29 19  1  0
 28 22  1  0
  3 30  1  0
  4 31  1  0
  4 32  1  0
  8 33  1  0
  8 34  1  0
  9 35  1  0
  9 36  1  0
 10 37  1  0
 10 38  1  0
 11 39  1  1
 12 40  1  6
 13 41  1  0
 14 42  1  0
 15 43  1  0
 15 44  1  0
 16 45  1  0
 16 46  1  0
 17 47  1  0
 17 48  1  0
 18 49  1  0
 18 50  1  0
 20 51  1  0
 21 52  1  0
 23 53  1  0
 26 54  1  0
 27 55  1  0
M  END
>  <smiles>  (10) 
O=C(NCC(=O)N1CCC[C@H]1[C@@H](O)C1CCCC1)c1ccc2cc(F)ccc2n1

>  <score_type>  (10) 
oracle

>  <origin>  (10) 
autodockgpu

>  <m_score__min__energy>  (10) 
-9.0600000000000005

>  <m_primary>  (10) 
energy

>  <rmsd>  (10) 
8.533029985693558

>  <m_score__min__rmsd>  (10) 
8.533029985693558

>  <meeko>  (10) 
{"free_energy": -7.64, "intermolecular_energy": -9.73, "internal_energy": -2.19, "cluster_size": 4, "cluster_id": 2, "rank_in_cluster": 3}

>  <energy>  (10) 
-8.54

>  <cluster_rmsd>  (10) 
1.42

>  <cluster>  (10) 
1

$$$$

     RDKit          3D

 55 58  0  0  0  0  0  0  0  0999 V2000
  141.5790   78.2930  218.5970 O   0  0  0  0  0  0  0  0  0  0  0  0
  142.1370   77.6140  219.4690 C   0  0  0  0  0  0  0  0  0  0  0  0
  142.0620   78.0120  220.8180 N   0  0  0  0  0  0  0  0  0  0  0  0
  141.3380   79.1980  221.1560 C   0  0  0  0  0  0  0  0  0  0  0  0
  139.8500   78.9590  220.9810 C   0  0  0  0  0  0  0  0  0  0  0  0
  139.3510   79.5720  220.0060 O   0  0  0  0  0  0  0  0  0  0  0  0
  139.1780   78.1190  221.8730 N   0  0  0  0  0  0  0  0  0  0  0  0
  137.9830   78.5890  222.6450 C   0  0  0  0  0  0  0  0  0  0  0  0
  137.0000   77.5190  222.1720 C   0  0  0  0  0  0  0  0  0  0  0  0
  137.8400   76.2640  222.2320 C   0  0  0  0  0  0  0  0  0  0  0  0
  139.2960   76.7640  222.3170 C   0  0  1  0  0  0  0  0  0  0  0  0
  140.2490   75.8560  221.6580 C   0  0  1  0  0  0  0  0  0  0  0  0
  141.4540   75.7090  222.2940 O   0  0  0  0  0  0  0  0  0  0  0  0
  139.7340   74.5610  221.1390 C   0  0  0  0  0  0  0  0  0  0  0  0
  140.3790   73.4310  221.9120 C   0  0  0  0  0  0  0  0  0  0  0  0
  141.2820   72.7460  220.9420 C   0  0  0  0  0  0  0  0  0  0  0  0
  140.5750   72.8810  219.6250 C   0  0  0  0  0  0  0  0  0  0  0  0
  140.1080   74.3340  219.6810 C   0  0  0  0  0  0  0  0  0  0  0  0
  142.8820   76.3900  219.1160 C   0  0  0  0  0  0  0  0  0  0  0  0
  142.9610   76.0080  217.7870 C   0  0  0  0  0  0  0  0  0  0  0  0
  143.6660   74.8570  217.5010 C   0  0  0  0  0  0  0  0  0  0  0  0
  144.2640   74.1220  218.5030 C   0  0  0  0  0  0  0  0  0  0  0  0
  144.9800   72.9630  218.2670 C   0  0  0  0  0  0  0  0  0  0  0  0
  145.5760   72.2310  219.2770 C   0  0  0  0  0  0  0  0  0  0  0  0
  146.2770   71.0880  218.9940 F   0  0  0  0  0  0  0  0  0  0  0  0
  145.4720   72.6490  220.5970 C   0  0  0  0  0  0  0  0  0  0  0  0
  144.7530   73.8180  220.8510 C   0  0  0  0  0  0  0  0  0  0  0  0
  144.1660   74.5310  219.8270 C   0  0  0  0  0  0  0  0  0  0  0  0
  143.4760   75.6570  220.1050 N   0  0  0  0  0  0  0  0  0  0  0  0
  142.5530   77.4010  221.5280 H   0  0  0  0  0  0  0  0  0  0  0  0
  141.5442   79.4659  222.2028 H   0  0  0  0  0  0  0  0  0  0  0  0
  141.6545   80.0178  220.4944 H   0  0  0  0  0  0  0  0  0  0  0  0
  138.1476   78.5541  223.7321 H   0  0  0  0  0  0  0  0  0  0  0  0
  137.6794   79.6336  222.4817 H   0  0  0  0  0  0  0  0  0  0  0  0
  136.1318   77.4502  222.8439 H   0  0  0  0  0  0  0  0  0  0  0  0
  136.5753   77.7187  221.1771 H   0  0  0  0  0  0  0  0  0  0  0  0
  137.5829   75.6685  223.1204 H   0  0  0  0  0  0  0  0  0  0  0  0
  137.6759   75.6141  221.3598 H   0  0  0  0  0  0  0  0  0  0  0  0
  139.7611   76.7567  223.3138 H   0  0  0  0  0  0  0  0  0  0  0  0
  140.4345   76.4417  220.7456 H   0  0  0  0  0  0  0  0  0  0  0  0
  142.2570   75.7540  221.7530 H   0  0  0  0  0  0  0  0  0  0  0  0
  138.6394   74.5878  221.2444 H   0  0  0  0  0  0  0  0  0  0  0  0
  140.9563   73.8267  222.7606 H   0  0  0  0  0  0  0  0  0  0  0  0
  139.6291   72.7415  222.3270 H   0  0  0  0  0  0  0  0  0  0  0  0
  142.2653   73.2380  220.9095 H   0  0  0  0  0  0  0  0  0  0  0  0
  141.4740   71.6972  221.2124 H   0  0  0  0  0  0  0  0  0  0  0  0
  141.2600   72.7108  218.7813 H   0  0  0  0  0  0  0  0  0  0  0  0
  139.7639   72.1536  219.4735 H   0  0  0  0  0  0  0  0  0  0  0  0
  140.9175   75.0141  219.3773 H   0  0  0  0  0  0  0  0  0  0  0  0
  139.2669   74.5285  218.9993 H   0  0  0  0  0  0  0  0  0  0  0  0
  142.4813   76.5981  216.9922 H   0  0  0  0  0  0  0  0  0  0  0  0
  143.7524   74.5203  216.4574 H   0  0  0  0  0  0  0  0  0  0  0  0
  145.0797   72.6080  217.2307 H   0  0  0  0  0  0  0  0  0  0  0  0
  145.9396   72.0791  221.4135 H   0  0  0  0  0  0  0  0  0  0  0  0
  144.6529   74.1768  221.8860 H   0  0  0  0  0  0  0  0  0  0  0  0
  1  2  2  0
  2  3  1  0
  3  4  1  0
  4  5  1  0
  5  6  2  0
  5  7  1  0
  7  8  1  0
  8  9  1  0
  9 10  1  0
 10 11  1  0
 11 12  1  0
 12 13  1  0
 12 14  1  0
 14 15  1  0
 15 16  1  0
 16 17  1  0
 17 18  1  0
  2 19  1  0
 19 20  2  0
 20 21  1  0
 21 22  2  0
 22 23  1  0
 23 24  2  0
 24 25  1  0
 24 26  1  0
 26 27  2  0
 27 28  1  0
 28 29  2  0
 11  7  1  0
 18 14  1  0
 29 19  1  0
 28 22  1  0
  3 30  1  0
  4 31  1  0
  4 32  1  0
  8 33  1  0
  8 34  1  0
  9 35  1  0
  9 36  1  0
 10 37  1  0
 10 38  1  0
 11 39  1  1
 12 40  1  6
 13 41  1  0
 14 42  1  0
 15 43  1  0
 15 44  1  0
 16 45  1  0
 16 46  1  0
 17 47  1  0
 17 48  1  0
 18 49  1  0
 18 50  1  0
 20 51  1  0
 21 52  1  0
 23 53  1  0
 26 54  1  0
 27 55  1  0
M  END
>  <smiles>  (11) 
O=C(NCC(=O)N1CCC[C@H]1[C@@H](O)C1CCCC1)c1ccc2cc(F)ccc2n1

>  <score_type>  (11) 
oracle

>  <origin>  (11) 
autodockgpu

>  <m_score__min__energy>  (11) 
-9.0600000000000005

>  <m_primary>  (11) 
energy

>  <rmsd>  (11) 
7.689820833249074

>  <m_score__min__rmsd>  (11) 
7.689820833249074

>  <meeko>  (11) 
{"free_energy": -5.29, "intermolecular_energy": -7.38, "internal_energy": -4.53, "cluster_size": 1, "cluster_id": 7, "rank_in_cluster": 1}

>  <energy>  (11) 
-8.54

>  <cluster_rmsd>  (11) 
1.39

>  <cluster>  (11) 
1

$$$$

     RDKit          3D

 55 58  0  0  0  0  0  0  0  0999 V2000
  138.3120   71.1470  221.6200 O   0  0  0  0  0  0  0  0  0  0  0  0
  138.9490   71.5470  222.6040 C   0  0  0  0  0  0  0  0  0  0  0  0
  139.4010   72.8810  222.6470 N   0  0  0  0  0  0  0  0  0  0  0  0
  139.1130   73.7510  221.5490 C   0  0  0  0  0  0  0  0  0  0  0  0
  139.8590   75.0610  221.7240 C   0  0  0  0  0  0  0  0  0  0  0  0
  141.0890   74.9180  221.9350 O   0  0  0  0  0  0  0  0  0  0  0  0
  139.1600   76.2690  221.6410 N   0  0  0  0  0  0  0  0  0  0  0  0
  137.7530   76.3270  221.1300 C   0  0  0  0  0  0  0  0  0  0  0  0
  137.1180   76.9860  222.3530 C   0  0  0  0  0  0  0  0  0  0  0  0
  138.1330   78.0480  222.7070 C   0  0  0  0  0  0  0  0  0  0  0  0
  139.4140   77.6420  221.9500 C   0  0  1  0  0  0  0  0  0  0  0  0
  140.6430   78.0180  222.6690 C   0  0  1  0  0  0  0  0  0  0  0  0
  141.3910   76.9690  223.1360 O   0  0  0  0  0  0  0  0  0  0  0  0
  141.4920   79.0900  222.0860 C   0  0  0  0  0  0  0  0  0  0  0  0
  142.5570   79.4740  223.0900 C   0  0  0  0  0  0  0  0  0  0  0  0
  142.2080   80.8550  223.5350 C   0  0  0  0  0  0  0  0  0  0  0  0
  141.5990   81.4890  222.3190 C   0  0  0  0  0  0  0  0  0  0  0  0
  140.7050   80.3620  221.8080 C   0  0  0  0  0  0  0  0  0  0  0  0
  139.2430   70.6460  223.7340 C   0  0  0  0  0  0  0  0  0  0  0  0
  138.8880   69.3100  223.6420 C   0  0  0  0  0  0  0  0  0  0  0  0
  139.1810   68.5030  224.7220 C   0  0  0  0  0  0  0  0  0  0  0  0
  139.8010   69.0120  225.8440 C   0  0  0  0  0  0  0  0  0  0  0  0
  140.1140   68.2450  226.9500 C   0  0  0  0  0  0  0  0  0  0  0  0
  140.7360   68.7620  228.0700 C   0  0  0  0  0  0  0  0  0  0  0  0
  141.0270   67.9600  229.1440 F   0  0  0  0  0  0  0  0  0  0  0  0
  141.0760   70.1080  228.1220 C   0  0  0  0  0  0  0  0  0  0  0  0
  140.7660   70.8960  227.0120 C   0  0  0  0  0  0  0  0  0  0  0  0
  140.1450   70.3570  225.9050 C   0  0  0  0  0  0  0  0  0  0  0  0
  139.8580   71.1450  224.8480 N   0  0  0  0  0  0  0  0  0  0  0  0
  139.9410   73.1770  223.5070 H   0  0  0  0  0  0  0  0  0  0  0  0
  139.4299   73.2725  220.6106 H   0  0  0  0  0  0  0  0  0  0  0  0
  138.0316   73.9496  221.5160 H   0  0  0  0  0  0  0  0  0  0  0  0
  137.6618   76.9476  220.2264 H   0  0  0  0  0  0  0  0  0  0  0  0
  137.3128   75.3711  220.8100 H   0  0  0  0  0  0  0  0  0  0  0  0
  136.1438   77.4325  222.1047 H   0  0  0  0  0  0  0  0  0  0  0  0
  136.9089   76.2842  223.1738 H   0  0  0  0  0  0  0  0  0  0  0  0
  137.7869   79.0389  222.3780 H   0  0  0  0  0  0  0  0  0  0  0  0
  138.2981   78.1171  223.7923 H   0  0  0  0  0  0  0  0  0  0  0  0
  139.6266   78.1826  221.0159 H   0  0  0  0  0  0  0  0  0  0  0  0
  140.1854   78.5036  223.5435 H   0  0  0  0  0  0  0  0  0  0  0  0
  141.8610   76.4270  222.4850 H   0  0  0  0  0  0  0  0  0  0  0  0
  141.9057   78.6934  221.1471 H   0  0  0  0  0  0  0  0  0  0  0  0
  142.5473   78.7811  223.9443 H   0  0  0  0  0  0  0  0  0  0  0  0
  143.5650   79.4295  222.6519 H   0  0  0  0  0  0  0  0  0  0  0  0
  141.4855   80.8271  224.3640 H   0  0  0  0  0  0  0  0  0  0  0  0
  143.0804   81.4111  223.9087 H   0  0  0  0  0  0  0  0  0  0  0  0
  141.0114   82.3810  222.5818 H   0  0  0  0  0  0  0  0  0  0  0  0
  142.3336   81.8490  221.5837 H   0  0  0  0  0  0  0  0  0  0  0  0
  139.7468   80.3514  222.3482 H   0  0  0  0  0  0  0  0  0  0  0  0
  140.4599   80.4756  220.7417 H   0  0  0  0  0  0  0  0  0  0  0  0
  138.3931   68.9093  222.7451 H   0  0  0  0  0  0  0  0  0  0  0  0
  138.9158   67.4360  224.6877 H   0  0  0  0  0  0  0  0  0  0  0  0
  139.8566   67.1756  226.9381 H   0  0  0  0  0  0  0  0  0  0  0  0
  141.5714   70.5372  229.0054 H   0  0  0  0  0  0  0  0  0  0  0  0
  141.0217   71.9658  227.0206 H   0  0  0  0  0  0  0  0  0  0  0  0
  1  2  2  0
  2  3  1  0
  3  4  1  0
  4  5  1  0
  5  6  2  0
  5  7  1  0
  7  8  1  0
  8  9  1  0
  9 10  1  0
 10 11  1  0
 11 12  1  0
 12 13  1  0
 12 14  1  0
 14 15  1  0
 15 16  1  0
 16 17  1  0
 17 18  1  0
  2 19  1  0
 19 20  2  0
 20 21  1  0
 21 22  2  0
 22 23  1  0
 23 24  2  0
 24 25  1  0
 24 26  1  0
 26 27  2  0
 27 28  1  0
 28 29  2  0
 11  7  1  0
 18 14  1  0
 29 19  1  0
 28 22  1  0
  3 30  1  0
  4 31  1  0
  4 32  1  0
  8 33  1  0
  8 34  1  0
  9 35  1  0
  9 36  1  0
 10 37  1  0
 10 38  1  0
 11 39  1  6
 12 40  1  1
 13 41  1  0
 14 42  1  0
 15 43  1  0
 15 44  1  0
 16 45  1  0
 16 46  1  0
 17 47  1  0
 17 48  1  0
 18 49  1  0
 18 50  1  0
 20 51  1  0
 21 52  1  0
 23 53  1  0
 26 54  1  0
 27 55  1  0
M  END
>  <smiles>  (12) 
O=C(NCC(=O)N1CCC[C@H]1[C@@H](O)C1CCCC1)c1ccc2cc(F)ccc2n1

>  <score_type>  (12) 
oracle

>  <origin>  (12) 
autodockgpu

>  <m_score__min__energy>  (12) 
-9.0600000000000005

>  <m_primary>  (12) 
energy

>  <rmsd>  (12) 
2.565026685318723

>  <m_score__min__rmsd>  (12) 
2.565026685318723

>  <meeko>  (12) 
{"free_energy": -8.66, "intermolecular_energy": -10.75, "internal_energy": -2.37, "cluster_size": 39, "cluster_id": 1, "rank_in_cluster": 4}

>  <energy>  (12) 
-8.52

>  <cluster_rmsd>  (12) 
1.3

>  <cluster>  (12) 
1

$$$$

     RDKit          3D

 55 58  0  0  0  0  0  0  0  0999 V2000
  140.8770   71.6920  221.1190 O   0  0  0  0  0  0  0  0  0  0  0  0
  140.3800   72.1630  222.1500 C   0  0  0  0  0  0  0  0  0  0  0  0
  139.9920   73.5180  222.1820 N   0  0  0  0  0  0  0  0  0  0  0  0
  140.1810   74.3250  221.0170 C   0  0  0  0  0  0  0  0  0  0  0  0
  140.4490   75.7610  221.4250 C   0  0  0  0  0  0  0  0  0  0  0  0
  139.7460   76.1520  222.3900 O   0  0  0  0  0  0  0  0  0  0  0  0
  141.4090   76.5070  220.7340 N   0  0  0  0  0  0  0  0  0  0  0  0
  142.5780   75.8520  220.0650 C   0  0  0  0  0  0  0  0  0  0  0  0
  142.3330   76.3870  218.6550 C   0  0  0  0  0  0  0  0  0  0  0  0
  141.9690   77.8310  218.9200 C   0  0  0  0  0  0  0  0  0  0  0  0
  141.6310   77.8850  220.4240 C   0  0  1  0  0  0  0  0  0  0  0  0
  140.5960   78.8850  220.7380 C   0  0  1  0  0  0  0  0  0  0  0  0
  139.3030   78.4610  220.5700 O   0  0  0  0  0  0  0  0  0  0  0  0
  140.7590   79.6930  221.9740 C   0  0  0  0  0  0  0  0  0  0  0  0
  141.9280   80.6370  221.7930 C   0  0  0  0  0  0  0  0  0  0  0  0
  142.9870   80.1460  222.7220 C   0  0  0  0  0  0  0  0  0  0  0  0
  142.2240   79.5930  223.8890 C   0  0  0  0  0  0  0  0  0  0  0  0
  141.1020   78.8340  223.1830 C   0  0  0  0  0  0  0  0  0  0  0  0
  140.1860   71.3270  223.3500 C   0  0  0  0  0  0  0  0  0  0  0  0
  139.5690   70.0940  223.2210 C   0  0  0  0  0  0  0  0  0  0  0  0
  139.4070   69.3440  224.3680 C   0  0  0  0  0  0  0  0  0  0  0  0
  139.8440   69.8110  225.5900 C   0  0  0  0  0  0  0  0  0  0  0  0
  139.7050   69.0990  226.7660 C   0  0  0  0  0  0  0  0  0  0  0  0
  140.1460   69.5730  227.9870 C   0  0  0  0  0  0  0  0  0  0  0  0
  139.9860   68.8280  229.1270 F   0  0  0  0  0  0  0  0  0  0  0  0
  140.7600   70.8150  228.0730 C   0  0  0  0  0  0  0  0  0  0  0  0
  140.9090   71.5460  226.8940 C   0  0  0  0  0  0  0  0  0  0  0  0
  140.4610   71.0520  225.6870 C   0  0  0  0  0  0  0  0  0  0  0  0
  140.6180   71.7840  224.5640 N   0  0  0  0  0  0  0  0  0  0  0  0
  139.5710   73.8760  223.0840 H   0  0  0  0  0  0  0  0  0  0  0  0
  141.0377   73.9425  220.4428 H   0  0  0  0  0  0  0  0  0  0  0  0
  139.2729   74.2868  220.3974 H   0  0  0  0  0  0  0  0  0  0  0  0
  143.5396   76.1897  220.4789 H   0  0  0  0  0  0  0  0  0  0  0  0
  142.6447   74.7586  220.1648 H   0  0  0  0  0  0  0  0  0  0  0  0
  143.2395   76.3112  218.0365 H   0  0  0  0  0  0  0  0  0  0  0  0
  141.5624   75.8321  218.0999 H   0  0  0  0  0  0  0  0  0  0  0  0
  142.8172   78.4925  218.6899 H   0  0  0  0  0  0  0  0  0  0  0  0
  141.1294   78.1681  218.2943 H   0  0  0  0  0  0  0  0  0  0  0  0
  142.4129   78.2766  221.0912 H   0  0  0  0  0  0  0  0  0  0  0  0
  140.8078   79.6050  219.9338 H   0  0  0  0  0  0  0  0  0  0  0  0
  139.0200   77.6770  221.0630 H   0  0  0  0  0  0  0  0  0  0  0  0
  139.8048   80.2135  222.1431 H   0  0  0  0  0  0  0  0  0  0  0  0
  142.2863   80.6097  220.7534 H   0  0  0  0  0  0  0  0  0  0  0  0
  141.6476   81.6785  222.0091 H   0  0  0  0  0  0  0  0  0  0  0  0
  143.5921   79.3614  222.2442 H   0  0  0  0  0  0  0  0  0  0  0  0
  143.6908   80.9387  223.0158 H   0  0  0  0  0  0  0  0  0  0  0  0
  142.8475   78.9183  224.4941 H   0  0  0  0  0  0  0  0  0  0  0  0
  141.8731   80.3562  224.5993 H   0  0  0  0  0  0  0  0  0  0  0  0
  141.4459   77.8381  222.8668 H   0  0  0  0  0  0  0  0  0  0  0  0
  140.2335   78.6693  223.8377 H   0  0  0  0  0  0  0  0  0  0  0  0
  139.2220   69.7272  222.2437 H   0  0  0  0  0  0  0  0  0  0  0  0
  138.9219   68.3586  224.3068 H   0  0  0  0  0  0  0  0  0  0  0  0
  139.2221   68.1114  226.7287 H   0  0  0  0  0  0  0  0  0  0  0  0
  141.1163   71.2088  229.0363 H   0  0  0  0  0  0  0  0  0  0  0  0
  141.3923   72.5336  226.9279 H   0  0  0  0  0  0  0  0  0  0  0  0
  1  2  2  0
  2  3  1  0
  3  4  1  0
  4  5  1  0
  5  6  2  0
  5  7  1  0
  7  8  1  0
  8  9  1  0
  9 10  1  0
 10 11  1  0
 11 12  1  0
 12 13  1  0
 12 14  1  0
 14 15  1  0
 15 16  1  0
 16 17  1  0
 17 18  1  0
  2 19  1  0
 19 20  2  0
 20 21  1  0
 21 22  2  0
 22 23  1  0
 23 24  2  0
 24 25  1  0
 24 26  1  0
 26 27  2  0
 27 28  1  0
 28 29  2  0
 11  7  1  0
 18 14  1  0
 29 19  1  0
 28 22  1  0
  3 30  1  0
  4 31  1  0
  4 32  1  0
  8 33  1  0
  8 34  1  0
  9 35  1  0
  9 36  1  0
 10 37  1  0
 10 38  1  0
 11 39  1  1
 12 40  1  6
 13 41  1  0
 14 42  1  0
 15 43  1  0
 15 44  1  0
 16 45  1  0
 16 46  1  0
 17 47  1  0
 17 48  1  0
 18 49  1  0
 18 50  1  0
 20 51  1  0
 21 52  1  0
 23 53  1  0
 26 54  1  0
 27 55  1  0
M  END
>  <smiles>  (13) 
O=C(NCC(=O)N1CCC[C@H]1[C@@H](O)C1CCCC1)c1ccc2cc(F)ccc2n1

>  <score_type>  (13) 
oracle

>  <origin>  (13) 
autodockgpu

>  <m_score__min__energy>  (13) 
-9.0600000000000005

>  <m_primary>  (13) 
energy

>  <rmsd>  (13) 
1.9915205192033263

>  <m_score__min__rmsd>  (13) 
1.9915205192033263

>  <meeko>  (13) 
{"free_energy": -8.18, "intermolecular_energy": -10.27, "internal_energy": -2.72, "cluster_size": 39, "cluster_id": 1, "rank_in_cluster": 32}

>  <energy>  (13) 
-8.5

>  <cluster_rmsd>  (13) 
1.28

>  <cluster>  (13) 
1

$$$$

     RDKit          3D

 55 58  0  0  0  0  0  0  0  0999 V2000
  141.2260   71.7410  221.3720 O   0  0  0  0  0  0  0  0  0  0  0  0
  140.5830   72.1550  222.3450 C   0  0  0  0  0  0  0  0  0  0  0  0
  140.0900   73.4750  222.3450 N   0  0  0  0  0  0  0  0  0  0  0  0
  140.3430   74.3140  221.2150 C   0  0  0  0  0  0  0  0  0  0  0  0
  140.3670   75.7680  221.6500 C   0  0  0  0  0  0  0  0  0  0  0  0
  139.6440   76.0080  222.6480 O   0  0  0  0  0  0  0  0  0  0  0  0
  141.1510   76.6850  220.9440 N   0  0  0  0  0  0  0  0  0  0  0  0
  142.2090   76.2370  219.9830 C   0  0  0  0  0  0  0  0  0  0  0  0
  141.6890   76.9730  218.7490 C   0  0  0  0  0  0  0  0  0  0  0  0
  141.3130   78.3230  219.3160 C   0  0  0  0  0  0  0  0  0  0  0  0
  141.2490   78.1090  220.8420 C   0  0  1  0  0  0  0  0  0  0  0  0
  140.2430   78.9630  221.4950 C   0  0  1  0  0  0  0  0  0  0  0  0
  138.9560   78.4940  221.4450 O   0  0  0  0  0  0  0  0  0  0  0  0
  140.5730   79.5380  222.8260 C   0  0  0  0  0  0  0  0  0  0  0  0
  140.7410   81.0350  222.6860 C   0  0  0  0  0  0  0  0  0  0  0  0
  142.1930   81.2980  222.9080 C   0  0  0  0  0  0  0  0  0  0  0  0
  142.6050   80.2590  223.9080 C   0  0  0  0  0  0  0  0  0  0  0  0
  141.8990   79.0190  223.3640 C   0  0  0  0  0  0  0  0  0  0  0  0
  140.3240   71.2860  223.5090 C   0  0  0  0  0  0  0  0  0  0  0  0
  139.6300   70.1010  223.3250 C   0  0  0  0  0  0  0  0  0  0  0  0
  139.4090   69.3190  224.4400 C   0  0  0  0  0  0  0  0  0  0  0  0
  139.8630   69.7080  225.6830 C   0  0  0  0  0  0  0  0  0  0  0  0
  139.6660   68.9600  226.8280 C   0  0  0  0  0  0  0  0  0  0  0  0
  140.1240   69.3560  228.0710 C   0  0  0  0  0  0  0  0  0  0  0  0
  139.9050   68.5790  229.1790 F   0  0  0  0  0  0  0  0  0  0  0  0
  140.8160   70.5520  228.2120 C   0  0  0  0  0  0  0  0  0  0  0  0
  141.0230   71.3180  227.0640 C   0  0  0  0  0  0  0  0  0  0  0  0
  140.5560   70.9020  225.8340 C   0  0  0  0  0  0  0  0  0  0  0  0
  140.7710   71.6660  224.7430 N   0  0  0  0  0  0  0  0  0  0  0  0
  139.5460   73.7850  223.1970 H   0  0  0  0  0  0  0  0  0  0  0  0
  141.3149   74.0487  220.7734 H   0  0  0  0  0  0  0  0  0  0  0  0
  139.5463   74.1706  220.4702 H   0  0  0  0  0  0  0  0  0  0  0  0
  143.2130   76.5751  220.2792 H   0  0  0  0  0  0  0  0  0  0  0  0
  142.3428   75.1501  219.8799 H   0  0  0  0  0  0  0  0  0  0  0  0
  142.4715   77.0668  217.9816 H   0  0  0  0  0  0  0  0  0  0  0  0
  140.8569   76.4583  218.2464 H   0  0  0  0  0  0  0  0  0  0  0  0
  142.0747   79.0750  219.0623 H   0  0  0  0  0  0  0  0  0  0  0  0
  140.3598   78.6919  218.9094 H   0  0  0  0  0  0  0  0  0  0  0  0
  142.1192   78.4475  221.4235 H   0  0  0  0  0  0  0  0  0  0  0  0
  140.2977   79.8313  220.8219 H   0  0  0  0  0  0  0  0  0  0  0  0
  138.8030   77.5730  221.7010 H   0  0  0  0  0  0  0  0  0  0  0  0
  139.7564   79.2567  223.5072 H   0  0  0  0  0  0  0  0  0  0  0  0
  140.4408   81.3627  221.6798 H   0  0  0  0  0  0  0  0  0  0  0  0
  140.1134   81.5840  223.4034 H   0  0  0  0  0  0  0  0  0  0  0  0
  142.7581   81.1839  221.9712 H   0  0  0  0  0  0  0  0  0  0  0  0
  142.3874   82.3221  223.2593 H   0  0  0  0  0  0  0  0  0  0  0  0
  143.6968   80.1260  223.9231 H   0  0  0  0  0  0  0  0  0  0  0  0
  142.3419   80.5062  224.9471 H   0  0  0  0  0  0  0  0  0  0  0  0
  142.4903   78.5568  222.5598 H   0  0  0  0  0  0  0  0  0  0  0  0
  141.7630   78.2448  224.1335 H   0  0  0  0  0  0  0  0  0  0  0  0
  139.2702   69.7963  222.3312 H   0  0  0  0  0  0  0  0  0  0  0  0
  138.8621   68.3703  224.3360 H   0  0  0  0  0  0  0  0  0  0  0  0
  139.1210   68.0079  226.7470 H   0  0  0  0  0  0  0  0  0  0  0  0
  141.1874   70.8834  229.1930 H   0  0  0  0  0  0  0  0  0  0  0  0
  141.5681   72.2703  227.1410 H   0  0  0  0  0  0  0  0  0  0  0  0
  1  2  2  0
  2  3  1  0
  3  4  1  0
  4  5  1  0
  5  6  2  0
  5  7  1  0
  7  8  1  0
  8  9  1  0
  9 10  1  0
 10 11  1  0
 11 12  1  0
 12 13  1  0
 12 14  1  0
 14 15  1  0
 15 16  1  0
 16 17  1  0
 17 18  1  0
  2 19  1  0
 19 20  2  0
 20 21  1  0
 21 22  2  0
 22 23  1  0
 23 24  2  0
 24 25  1  0
 24 26  1  0
 26 27  2  0
 27 28  1  0
 28 29  2  0
 11  7  1  0
 18 14  1  0
 29 19  1  0
 28 22  1  0
  3 30  1  0
  4 31  1  0
  4 32  1  0
  8 33  1  0
  8 34  1  0
  9 35  1  0
  9 36  1  0
 10 37  1  0
 10 38  1  0
 11 39  1  1
 12 40  1  6
 13 41  1  0
 14 42  1  0
 15 43  1  0
 15 44  1  0
 16 45  1  0
 16 46  1  0
 17 47  1  0
 17 48  1  0
 18 49  1  0
 18 50  1  0
 20 51  1  0
 21 52  1  0
 23 53  1  0
 26 54  1  0
 27 55  1  0
M  END
>  <smiles>  (14) 
O=C(NCC(=O)N1CCC[C@H]1[C@@H](O)C1CCCC1)c1ccc2cc(F)ccc2n1

>  <score_type>  (14) 
oracle

>  <origin>  (14) 
autodockgpu

>  <m_score__min__energy>  (14) 
-9.0600000000000005

>  <m_primary>  (14) 
energy

>  <rmsd>  (14) 
1.9926374740743287

>  <m_score__min__rmsd>  (14) 
1.9926374740743287

>  <meeko>  (14) 
{"free_energy": -8.19, "intermolecular_energy": -10.28, "internal_energy": -2.71, "cluster_size": 39, "cluster_id": 1, "rank_in_cluster": 31}

>  <energy>  (14) 
-8.49

>  <cluster_rmsd>  (14) 
1.33

>  <cluster>  (14) 
1

$$$$

     RDKit          3D

 55 58  0  0  0  0  0  0  0  0999 V2000
  141.0750   71.8360  221.2240 O   0  0  0  0  0  0  0  0  0  0  0  0
  140.4860   72.2760  222.2200 C   0  0  0  0  0  0  0  0  0  0  0  0
  140.0400   73.6120  222.2340 N   0  0  0  0  0  0  0  0  0  0  0  0
  140.2770   74.4380  221.0900 C   0  0  0  0  0  0  0  0  0  0  0  0
  140.5570   75.8620  221.5350 C   0  0  0  0  0  0  0  0  0  0  0  0
  139.9530   76.1920  222.5840 O   0  0  0  0  0  0  0  0  0  0  0  0
  141.4230   76.6610  220.7820 N   0  0  0  0  0  0  0  0  0  0  0  0
  142.5820   76.0730  220.0350 C   0  0  0  0  0  0  0  0  0  0  0  0
  142.2120   76.5900  218.6460 C   0  0  0  0  0  0  0  0  0  0  0  0
  141.7830   78.0110  218.9370 C   0  0  0  0  0  0  0  0  0  0  0  0
  141.5430   78.0490  220.4600 C   0  0  1  0  0  0  0  0  0  0  0  0
  140.4750   78.9870  220.8440 C   0  0  1  0  0  0  0  0  0  0  0  0
  139.2050   78.4720  220.8120 O   0  0  0  0  0  0  0  0  0  0  0  0
  140.6960   79.8460  222.0370 C   0  0  0  0  0  0  0  0  0  0  0  0
  141.8870   80.7430  221.7820 C   0  0  0  0  0  0  0  0  0  0  0  0
  142.9560   80.2630  222.7040 C   0  0  0  0  0  0  0  0  0  0  0  0
  142.2090   79.7870  223.9150 C   0  0  0  0  0  0  0  0  0  0  0  0
  141.0460   79.0330  223.2750 C   0  0  0  0  0  0  0  0  0  0  0  0
  140.2450   71.4200  223.3970 C   0  0  0  0  0  0  0  0  0  0  0  0
  139.5670   70.2230  223.2340 C   0  0  0  0  0  0  0  0  0  0  0  0
  139.3620   69.4540  224.3610 C   0  0  0  0  0  0  0  0  0  0  0  0
  139.8150   69.8670  225.5960 C   0  0  0  0  0  0  0  0  0  0  0  0
  139.6330   69.1330  226.7530 C   0  0  0  0  0  0  0  0  0  0  0  0
  140.0900   69.5540  227.9880 C   0  0  0  0  0  0  0  0  0  0  0  0
  139.8860   68.7900  229.1080 F   0  0  0  0  0  0  0  0  0  0  0  0
  140.7650   70.7610  228.1090 C   0  0  0  0  0  0  0  0  0  0  0  0
  140.9560   71.5140  226.9490 C   0  0  0  0  0  0  0  0  0  0  0  0
  140.4910   71.0740  225.7270 C   0  0  0  0  0  0  0  0  0  0  0  0
  140.6910   71.8240  224.6250 N   0  0  0  0  0  0  0  0  0  0  0  0
  139.5430   73.9440  223.1060 H   0  0  0  0  0  0  0  0  0  0  0  0
  141.1438   74.0518  220.5337 H   0  0  0  0  0  0  0  0  0  0  0  0
  139.3875   74.4273  220.4429 H   0  0  0  0  0  0  0  0  0  0  0  0
  143.5478   76.4670  220.3842 H   0  0  0  0  0  0  0  0  0  0  0  0
  142.7192   74.9856  220.1283 H   0  0  0  0  0  0  0  0  0  0  0  0
  143.0778   76.5658  217.9679 H   0  0  0  0  0  0  0  0  0  0  0  0
  141.4393   75.9899  218.1432 H   0  0  0  0  0  0  0  0  0  0  0  0
  142.5741   78.7202  218.6521 H   0  0  0  0  0  0  0  0  0  0  0  0
  140.8855   78.2972  218.3691 H   0  0  0  0  0  0  0  0  0  0  0  0
  142.3433   78.4877  221.0741 H   0  0  0  0  0  0  0  0  0  0  0  0
  140.5600   79.6919  220.0038 H   0  0  0  0  0  0  0  0  0  0  0  0
  139.0190   77.7010  221.3680 H   0  0  0  0  0  0  0  0  0  0  0  0
  139.7630   80.4035  222.2063 H   0  0  0  0  0  0  0  0  0  0  0  0
  142.2153   80.6569  220.7357 H   0  0  0  0  0  0  0  0  0  0  0  0
  141.6439   81.8014  221.9570 H   0  0  0  0  0  0  0  0  0  0  0  0
  143.5246   79.4395  222.2474 H   0  0  0  0  0  0  0  0  0  0  0  0
  143.6907   81.0462  222.9423 H   0  0  0  0  0  0  0  0  0  0  0  0
  142.8284   79.1210  224.5337 H   0  0  0  0  0  0  0  0  0  0  0  0
  141.9010   80.5921  224.5984 H   0  0  0  0  0  0  0  0  0  0  0  0
  141.3506   78.0133  222.9966 H   0  0  0  0  0  0  0  0  0  0  0  0
  140.1913   78.9261  223.9592 H   0  0  0  0  0  0  0  0  0  0  0  0
  139.2068   69.8989  222.2465 H   0  0  0  0  0  0  0  0  0  0  0  0
  138.8286   68.4960  224.2728 H   0  0  0  0  0  0  0  0  0  0  0  0
  139.1014   68.1721  226.6883 H   0  0  0  0  0  0  0  0  0  0  0  0
  141.1359   71.1114  229.0835 H   0  0  0  0  0  0  0  0  0  0  0  0
  141.4868   72.4755  227.0105 H   0  0  0  0  0  0  0  0  0  0  0  0
  1  2  2  0
  2  3  1  0
  3  4  1  0
  4  5  1  0
  5  6  2  0
  5  7  1  0
  7  8  1  0
  8  9  1  0
  9 10  1  0
 10 11  1  0
 11 12  1  0
 12 13  1  0
 12 14  1  0
 14 15  1  0
 15 16  1  0
 16 17  1  0
 17 18  1  0
  2 19  1  0
 19 20  2  0
 20 21  1  0
 21 22  2  0
 22 23  1  0
 23 24  2  0
 24 25  1  0
 24 26  1  0
 26 27  2  0
 27 28  1  0
 28 29  2  0
 11  7  1  0
 18 14  1  0
 29 19  1  0
 28 22  1  0
  3 30  1  0
  4 31  1  0
  4 32  1  0
  8 33  1  0
  8 34  1  0
  9 35  1  0
  9 36  1  0
 10 37  1  0
 10 38  1  0
 11 39  1  1
 12 40  1  6
 13 41  1  0
 14 42  1  0
 15 43  1  0
 15 44  1  0
 16 45  1  0
 16 46  1  0
 17 47  1  0
 17 48  1  0
 18 49  1  0
 18 50  1  0
 20 51  1  0
 21 52  1  0
 23 53  1  0
 26 54  1  0
 27 55  1  0
M  END
>  <smiles>  (15) 
O=C(NCC(=O)N1CCC[C@H]1[C@@H](O)C1CCCC1)c1ccc2cc(F)ccc2n1

>  <score_type>  (15) 
oracle

>  <origin>  (15) 
autodockgpu

>  <m_score__min__energy>  (15) 
-9.0600000000000005

>  <m_primary>  (15) 
energy

>  <rmsd>  (15) 
2.048541558174787

>  <m_score__min__rmsd>  (15) 
2.048541558174787

>  <meeko>  (15) 
{"free_energy": -8.22, "intermolecular_energy": -10.31, "internal_energy": -2.76, "cluster_size": 39, "cluster_id": 1, "rank_in_cluster": 28}

>  <energy>  (15) 
-8.48

>  <cluster_rmsd>  (15) 
1.38

>  <cluster>  (15) 
1

$$$$

     RDKit          3D

 55 58  0  0  0  0  0  0  0  0999 V2000
  137.2550   71.2810  222.7110 O   0  0  0  0  0  0  0  0  0  0  0  0
  138.3810   71.4150  223.2070 C   0  0  0  0  0  0  0  0  0  0  0  0
  139.2150   72.4660  222.7750 N   0  0  0  0  0  0  0  0  0  0  0  0
  138.7400   73.3630  221.7670 C   0  0  0  0  0  0  0  0  0  0  0  0
  139.4930   74.6780  221.8540 C   0  0  0  0  0  0  0  0  0  0  0  0
  140.7330   74.5420  221.9930 O   0  0  0  0  0  0  0  0  0  0  0  0
  138.7870   75.8820  221.7770 N   0  0  0  0  0  0  0  0  0  0  0  0
  137.3340   75.9180  221.4150 C   0  0  0  0  0  0  0  0  0  0  0  0
  136.8310   76.6470  222.6590 C   0  0  0  0  0  0  0  0  0  0  0  0
  137.8760   77.7230  222.8440 C   0  0  0  0  0  0  0  0  0  0  0  0
  139.0700   77.2700  221.9800 C   0  0  1  0  0  0  0  0  0  0  0  0
  140.3680   77.6790  222.5430 C   0  0  1  0  0  0  0  0  0  0  0  0
  141.4670   77.3000  221.8170 O   0  0  0  0  0  0  0  0  0  0  0  0
  140.4970   79.0660  223.0620 C   0  0  0  0  0  0  0  0  0  0  0  0
  140.7890   79.9980  221.9060 C   0  0  0  0  0  0  0  0  0  0  0  0
  142.1930   80.4590  222.1070 C   0  0  0  0  0  0  0  0  0  0  0  0
  142.3500   80.5150  223.5990 C   0  0  0  0  0  0  0  0  0  0  0  0
  141.6680   79.2160  224.0220 C   0  0  0  0  0  0  0  0  0  0  0  0
  138.8670   70.4870  224.2470 C   0  0  0  0  0  0  0  0  0  0  0  0
  138.6510   69.1280  224.0920 C   0  0  0  0  0  0  0  0  0  0  0  0
  139.1210   68.2970  225.0880 C   0  0  0  0  0  0  0  0  0  0  0  0
  139.7760   68.8060  226.1890 C   0  0  0  0  0  0  0  0  0  0  0  0
  140.2640   68.0150  227.2120 C   0  0  0  0  0  0  0  0  0  0  0  0
  140.9200   68.5320  228.3140 C   0  0  0  0  0  0  0  0  0  0  0  0
  141.3870   67.7060  229.3040 F   0  0  0  0  0  0  0  0  0  0  0  0
  141.1160   69.9020  228.4300 C   0  0  0  0  0  0  0  0  0  0  0  0
  140.6290   70.7140  227.4040 C   0  0  0  0  0  0  0  0  0  0  0  0
  139.9770   70.1750  226.3150 C   0  0  0  0  0  0  0  0  0  0  0  0
  139.5170   70.9860  225.3410 N   0  0  0  0  0  0  0  0  0  0  0  0
  140.1680   72.5410  223.2260 H   0  0  0  0  0  0  0  0  0  0  0  0
  138.8998   72.9154  220.7750 H   0  0  0  0  0  0  0  0  0  0  0  0
  137.6667   73.5478  221.9212 H   0  0  0  0  0  0  0  0  0  0  0  0
  137.1471   76.4876  220.4927 H   0  0  0  0  0  0  0  0  0  0  0  0
  136.8636   74.9477  221.1974 H   0  0  0  0  0  0  0  0  0  0  0  0
  135.8353   77.0831  222.4903 H   0  0  0  0  0  0  0  0  0  0  0  0
  136.7111   75.9931  223.5353 H   0  0  0  0  0  0  0  0  0  0  0  0
  137.4954   78.6955  222.4985 H   0  0  0  0  0  0  0  0  0  0  0  0
  138.1548   77.8519  223.9002 H   0  0  0  0  0  0  0  0  0  0  0  0
  139.1811   77.7575  221.0002 H   0  0  0  0  0  0  0  0  0  0  0  0
  140.3562   77.0648  223.4555 H   0  0  0  0  0  0  0  0  0  0  0  0
  141.8280   76.4160  221.9760 H   0  0  0  0  0  0  0  0  0  0  0  0
  139.5556   79.3010  223.5802 H   0  0  0  0  0  0  0  0  0  0  0  0
  140.6934   79.4643  220.9489 H   0  0  0  0  0  0  0  0  0  0  0  0
  140.0840   80.8419  221.8756 H   0  0  0  0  0  0  0  0  0  0  0  0
  142.9050   79.7460  221.6659 H   0  0  0  0  0  0  0  0  0  0  0  0
  142.3925   81.4274  221.6249 H   0  0  0  0  0  0  0  0  0  0  0  0
  143.4102   80.5268  223.8919 H   0  0  0  0  0  0  0  0  0  0  0  0
  141.9255   81.4177  224.0625 H   0  0  0  0  0  0  0  0  0  0  0  0
  142.3594   78.3657  223.9268 H   0  0  0  0  0  0  0  0  0  0  0  0
  141.3449   79.2380  225.0733 H   0  0  0  0  0  0  0  0  0  0  0  0
  138.1267   68.7278  223.2117 H   0  0  0  0  0  0  0  0  0  0  0  0
  138.9706   67.2107  225.0022 H   0  0  0  0  0  0  0  0  0  0  0  0
  140.1243   66.9259  227.1466 H   0  0  0  0  0  0  0  0  0  0  0  0
  141.6361   70.3318  229.2988 H   0  0  0  0  0  0  0  0  0  0  0  0
  140.7679   71.8035  227.4654 H   0  0  0  0  0  0  0  0  0  0  0  0
  1  2  2  0
  2  3  1  0
  3  4  1  0
  4  5  1  0
  5  6  2  0
  5  7  1  0
  7  8  1  0
  8  9  1  0
  9 10  1  0
 10 11  1  0
 11 12  1  0
 12 13  1  0
 12 14  1  0
 14 15  1  0
 15 16  1  0
 16 17  1  0
 17 18  1  0
  2 19  1  0
 19 20  2  0
 20 21  1  0
 21 22  2  0
 22 23  1  0
 23 24  2  0
 24 25  1  0
 24 26  1  0
 26 27  2  0
 27 28  1  0
 28 29  2  0
 11  7  1  0
 18 14  1  0
 29 19  1  0
 28 22  1  0
  3 30  1  0
  4 31  1  0
  4 32  1  0
  8 33  1  0
  8 34  1  0
  9 35  1  0
  9 36  1  0
 10 37  1  0
 10 38  1  0
 11 39  1  6
 12 40  1  1
 13 41  1  0
 14 42  1  0
 15 43  1  0
 15 44  1  0
 16 45  1  0
 16 46  1  0
 17 47  1  0
 17 48  1  0
 18 49  1  0
 18 50  1  0
 20 51  1  0
 21 52  1  0
 23 53  1  0
 26 54  1  0
 27 55  1  0
M  END
>  <smiles>  (16) 
O=C(NCC(=O)N1CCC[C@H]1[C@@H](O)C1CCCC1)c1ccc2cc(F)ccc2n1

>  <score_type>  (16) 
oracle

>  <origin>  (16) 
autodockgpu

>  <m_score__min__energy>  (16) 
-9.0600000000000005

>  <m_primary>  (16) 
energy

>  <rmsd>  (16) 
2.7681418045409507

>  <m_score__min__rmsd>  (16) 
2.7681418045409507

>  <meeko>  (16) 
{"free_energy": -8.39, "intermolecular_energy": -10.48, "internal_energy": -2.48, "cluster_size": 39, "cluster_id": 1, "rank_in_cluster": 18}

>  <energy>  (16) 
-8.46

>  <cluster_rmsd>  (16) 
1.59

>  <cluster>  (16) 
1

$$$$

     RDKit          3D

 55 58  0  0  0  0  0  0  0  0999 V2000
  140.4660   71.3710  221.1730 O   0  0  0  0  0  0  0  0  0  0  0  0
  140.1160   71.8700  222.2500 C   0  0  0  0  0  0  0  0  0  0  0  0
  139.8570   73.2530  222.3280 N   0  0  0  0  0  0  0  0  0  0  0  0
  140.0040   74.0570  221.1550 C   0  0  0  0  0  0  0  0  0  0  0  0
  140.3190   75.4880  221.5490 C   0  0  0  0  0  0  0  0  0  0  0  0
  139.8440   75.8210  222.6620 O   0  0  0  0  0  0  0  0  0  0  0  0
  141.0760   76.2900  220.6900 N   0  0  0  0  0  0  0  0  0  0  0  0
  141.4120   75.8480  219.2980 C   0  0  0  0  0  0  0  0  0  0  0  0
  140.8100   77.0390  218.5550 C   0  0  0  0  0  0  0  0  0  0  0  0
  141.2580   78.2060  219.4040 C   0  0  0  0  0  0  0  0  0  0  0  0
  141.6960   77.5780  220.7430 C   0  0  1  0  0  0  0  0  0  0  0  0
  141.4510   78.4630  221.8940 C   0  0  1  0  0  0  0  0  0  0  0  0
  141.4700   77.8490  223.1190 O   0  0  0  0  0  0  0  0  0  0  0  0
  142.1420   79.7790  221.9220 C   0  0  0  0  0  0  0  0  0  0  0  0
  142.5840   80.0720  223.3390 C   0  0  0  0  0  0  0  0  0  0  0  0
  141.7360   81.2110  223.7960 C   0  0  0  0  0  0  0  0  0  0  0  0
  141.5070   82.0200  222.5530 C   0  0  0  0  0  0  0  0  0  0  0  0
  141.2190   80.9240  221.5290 C   0  0  0  0  0  0  0  0  0  0  0  0
  139.9650   71.0360  223.4580 C   0  0  0  0  0  0  0  0  0  0  0  0
  139.3740   69.7880  223.3470 C   0  0  0  0  0  0  0  0  0  0  0  0
  139.2520   69.0420  224.5020 C   0  0  0  0  0  0  0  0  0  0  0  0
  139.7020   69.5260  225.7120 C   0  0  0  0  0  0  0  0  0  0  0  0
  139.6010   68.8180  226.8950 C   0  0  0  0  0  0  0  0  0  0  0  0
  140.0550   69.3100  228.1050 C   0  0  0  0  0  0  0  0  0  0  0  0
  139.9340   68.5690  229.2520 F   0  0  0  0  0  0  0  0  0  0  0  0
  140.6410   70.5660  228.1720 C   0  0  0  0  0  0  0  0  0  0  0  0
  140.7500   71.2930  226.9860 C   0  0  0  0  0  0  0  0  0  0  0  0
  140.2900   70.7820  225.7900 C   0  0  0  0  0  0  0  0  0  0  0  0
  140.4090   71.5100  224.6610 N   0  0  0  0  0  0  0  0  0  0  0  0
  139.5610   73.6340  223.2690 H   0  0  0  0  0  0  0  0  0  0  0  0
  140.8242   73.6587  220.5396 H   0  0  0  0  0  0  0  0  0  0  0  0
  139.0661   74.0365  220.5807 H   0  0  0  0  0  0  0  0  0  0  0  0
  142.4967   75.7601  219.1377 H   0  0  0  0  0  0  0  0  0  0  0  0
  141.0447   74.8544  219.0017 H   0  0  0  0  0  0  0  0  0  0  0  0
  141.2085   77.1138  217.5325 H   0  0  0  0  0  0  0  0  0  0  0  0
  139.7187   76.9763  218.4319 H   0  0  0  0  0  0  0  0  0  0  0  0
  142.1003   78.7298  218.9284 H   0  0  0  0  0  0  0  0  0  0  0  0
  140.4599   78.9512  219.5377 H   0  0  0  0  0  0  0  0  0  0  0  0
  142.7776   77.4461  220.8941 H   0  0  0  0  0  0  0  0  0  0  0  0
  140.4050   78.7287  221.6815 H   0  0  0  0  0  0  0  0  0  0  0  0
  141.6710   76.9020  223.1440 H   0  0  0  0  0  0  0  0  0  0  0  0
  142.9800   79.7138  221.2124 H   0  0  0  0  0  0  0  0  0  0  0  0
  142.4245   79.1928  223.9806 H   0  0  0  0  0  0  0  0  0  0  0  0
  143.6554   80.3163  223.3890 H   0  0  0  0  0  0  0  0  0  0  0  0
  140.7823   80.8475  224.2063 H   0  0  0  0  0  0  0  0  0  0  0  0
  142.2110   81.7952  224.5979 H   0  0  0  0  0  0  0  0  0  0  0  0
  140.6494   82.6992  222.6673 H   0  0  0  0  0  0  0  0  0  0  0  0
  142.3464   82.6778  222.2836 H   0  0  0  0  0  0  0  0  0  0  0  0
  140.1662   80.6098  221.5822 H   0  0  0  0  0  0  0  0  0  0  0  0
  141.3904   81.2624  220.4965 H   0  0  0  0  0  0  0  0  0  0  0  0
  139.0168   69.4074  222.3787 H   0  0  0  0  0  0  0  0  0  0  0  0
  138.7884   68.0455  224.4563 H   0  0  0  0  0  0  0  0  0  0  0  0
  139.1394   67.8198  226.8729 H   0  0  0  0  0  0  0  0  0  0  0  0
  141.0065   70.9740  229.1259 H   0  0  0  0  0  0  0  0  0  0  0  0
  141.2110   72.2915  227.0050 H   0  0  0  0  0  0  0  0  0  0  0  0
  1  2  2  0
  2  3  1  0
  3  4  1  0
  4  5  1  0
  5  6  2  0
  5  7  1  0
  7  8  1  0
  8  9  1  0
  9 10  1  0
 10 11  1  0
 11 12  1  0
 12 13  1  0
 12 14  1  0
 14 15  1  0
 15 16  1  0
 16 17  1  0
 17 18  1  0
  2 19  1  0
 19 20  2  0
 20 21  1  0
 21 22  2  0
 22 23  1  0
 23 24  2  0
 24 25  1  0
 24 26  1  0
 26 27  2  0
 27 28  1  0
 28 29  2  0
 11  7  1  0
 18 14  1  0
 29 19  1  0
 28 22  1  0
  3 30  1  0
  4 31  1  0
  4 32  1  0
  8 33  1  0
  8 34  1  0
  9 35  1  0
  9 36  1  0
 10 37  1  0
 10 38  1  0
 11 39  1  6
 12 40  1  6
 13 41  1  0
 14 42  1  0
 15 43  1  0
 15 44  1  0
 16 45  1  0
 16 46  1  0
 17 47  1  0
 17 48  1  0
 18 49  1  0
 18 50  1  0
 20 51  1  0
 21 52  1  0
 23 53  1  0
 26 54  1  0
 27 55  1  0
M  END
>  <smiles>  (17) 
O=C(NCC(=O)N1CCC[C@H]1[C@@H](O)C1CCCC1)c1ccc2cc(F)ccc2n1

>  <score_type>  (17) 
oracle

>  <origin>  (17) 
autodockgpu

>  <m_score__min__energy>  (17) 
-9.0600000000000005

>  <m_primary>  (17) 
energy

>  <rmsd>  (17) 
1.5274895656499696

>  <m_score__min__rmsd>  (17) 
1.5274895656499696

>  <meeko>  (17) 
{"free_energy": -8.49, "intermolecular_energy": -10.58, "internal_energy": -2.55, "cluster_size": 39, "cluster_id": 1, "rank_in_cluster": 14}

>  <energy>  (17) 
-8.45

>  <cluster_rmsd>  (17) 
1.4

>  <cluster>  (17) 
1

$$$$

     RDKit          3D

 55 58  0  0  0  0  0  0  0  0999 V2000
  141.1640   72.5940  221.8800 O   0  0  0  0  0  0  0  0  0  0  0  0
  140.1350   72.5270  222.5650 C   0  0  0  0  0  0  0  0  0  0  0  0
  139.0550   73.3900  222.2900 N   0  0  0  0  0  0  0  0  0  0  0  0
  139.1700   74.3300  221.2190 C   0  0  0  0  0  0  0  0  0  0  0  0
  139.9450   75.5490  221.6850 C   0  0  0  0  0  0  0  0  0  0  0  0
  141.1430   75.3060  221.9720 O   0  0  0  0  0  0  0  0  0  0  0  0
  139.3020   76.7880  221.7580 N   0  0  0  0  0  0  0  0  0  0  0  0
  137.9030   76.9770  221.2570 C   0  0  0  0  0  0  0  0  0  0  0  0
  137.2900   77.5010  222.5550 C   0  0  0  0  0  0  0  0  0  0  0  0
  138.3500   78.4610  223.0450 C   0  0  0  0  0  0  0  0  0  0  0  0
  139.6170   78.0970  222.2430 C   0  0  1  0  0  0  0  0  0  0  0  0
  140.8570   78.3190  223.0060 C   0  0  1  0  0  0  0  0  0  0  0  0
  141.4730   77.1840  223.4640 O   0  0  0  0  0  0  0  0  0  0  0  0
  141.8330   79.3070  222.4770 C   0  0  0  0  0  0  0  0  0  0  0  0
  142.3930   80.1100  223.6300 C   0  0  0  0  0  0  0  0  0  0  0  0
  141.8520   81.4900  223.4580 C   0  0  0  0  0  0  0  0  0  0  0  0
  141.7610   81.6650  221.9710 C   0  0  0  0  0  0  0  0  0  0  0  0
  141.1830   80.3180  221.5430 C   0  0  0  0  0  0  0  0  0  0  0  0
  140.0210   71.5550  223.6700 C   0  0  0  0  0  0  0  0  0  0  0  0
  139.3370   70.3700  223.4580 C   0  0  0  0  0  0  0  0  0  0  0  0
  139.2540   69.4900  224.5170 C   0  0  0  0  0  0  0  0  0  0  0  0
  139.8300   69.7860  225.7350 C   0  0  0  0  0  0  0  0  0  0  0  0
  139.7730   68.9390  226.8250 C   0  0  0  0  0  0  0  0  0  0  0  0
  140.3530   69.2430  228.0430 C   0  0  0  0  0  0  0  0  0  0  0  0
  140.2700   68.3690  229.0960 F   0  0  0  0  0  0  0  0  0  0  0  0
  141.0300   70.4430  228.2140 C   0  0  0  0  0  0  0  0  0  0  0  0
  141.0960   71.3090  227.1210 C   0  0  0  0  0  0  0  0  0  0  0  0
  140.5090   70.9840  225.9160 C   0  0  0  0  0  0  0  0  0  0  0  0
  140.5900   71.8430  224.8790 N   0  0  0  0  0  0  0  0  0  0  0  0
  138.1980   73.2970  222.9020 H   0  0  0  0  0  0  0  0  0  0  0  0
  139.6995   73.8608  220.3767 H   0  0  0  0  0  0  0  0  0  0  0  0
  138.1644   74.6399  220.8986 H   0  0  0  0  0  0  0  0  0  0  0  0
  137.8470   77.7130  220.4414 H   0  0  0  0  0  0  0  0  0  0  0  0
  137.4216   76.0921  220.8151 H   0  0  0  0  0  0  0  0  0  0  0  0
  136.3388   78.0201  222.3656 H   0  0  0  0  0  0  0  0  0  0  0  0
  137.0437   76.7092  223.2778 H   0  0  0  0  0  0  0  0  0  0  0  0
  138.0518   79.5010  222.8464 H   0  0  0  0  0  0  0  0  0  0  0  0
  138.5102   78.3820  224.1304 H   0  0  0  0  0  0  0  0  0  0  0  0
  139.8610   78.7436  221.3872 H   0  0  0  0  0  0  0  0  0  0  0  0
  140.4282   78.8287  223.8814 H   0  0  0  0  0  0  0  0  0  0  0  0
  141.8510   76.5810  222.8060 H   0  0  0  0  0  0  0  0  0  0  0  0
  142.6008   78.7364  221.9340 H   0  0  0  0  0  0  0  0  0  0  0  0
  142.0634   79.6852  224.5897 H   0  0  0  0  0  0  0  0  0  0  0  0
  143.4930   80.1018  223.6355 H   0  0  0  0  0  0  0  0  0  0  0  0
  140.8594   81.5810  223.9233 H   0  0  0  0  0  0  0  0  0  0  0  0
  142.4841   82.2536  223.9349 H   0  0  0  0  0  0  0  0  0  0  0  0
  141.0892   82.4941  221.7040 H   0  0  0  0  0  0  0  0  0  0  0  0
  142.7170   81.9173  221.4889 H   0  0  0  0  0  0  0  0  0  0  0  0
  140.0895   80.3093  221.6618 H   0  0  0  0  0  0  0  0  0  0  0  0
  141.3823   80.0960  220.4842 H   0  0  0  0  0  0  0  0  0  0  0  0
  138.8786   70.1397  222.4849 H   0  0  0  0  0  0  0  0  0  0  0  0
  138.7200   68.5370  224.3882 H   0  0  0  0  0  0  0  0  0  0  0  0
  139.2431   67.9809  226.7194 H   0  0  0  0  0  0  0  0  0  0  0  0
  141.4973   70.7019  229.1756 H   0  0  0  0  0  0  0  0  0  0  0  0
  141.6256   72.2677  227.2227 H   0  0  0  0  0  0  0  0  0  0  0  0
  1  2  2  0
  2  3  1  0
  3  4  1  0
  4  5  1  0
  5  6  2  0
  5  7  1  0
  7  8  1  0
  8  9  1  0
  9 10  1  0
 10 11  1  0
 11 12  1  0
 12 13  1  0
 12 14  1  0
 14 15  1  0
 15 16  1  0
 16 17  1  0
 17 18  1  0
  2 19  1  0
 19 20  2  0
 20 21  1  0
 21 22  2  0
 22 23  1  0
 23 24  2  0
 24 25  1  0
 24 26  1  0
 26 27  2  0
 27 28  1  0
 28 29  2  0
 11  7  1  0
 18 14  1  0
 29 19  1  0
 28 22  1  0
  3 30  1  0
  4 31  1  0
  4 32  1  0
  8 33  1  0
  8 34  1  0
  9 35  1  0
  9 36  1  0
 10 37  1  0
 10 38  1  0
 11 39  1  6
 12 40  1  1
 13 41  1  0
 14 42  1  0
 15 43  1  0
 15 44  1  0
 16 45  1  0
 16 46  1  0
 17 47  1  0
 17 48  1  0
 18 49  1  0
 18 50  1  0
 20 51  1  0
 21 52  1  0
 23 53  1  0
 26 54  1  0
 27 55  1  0
M  END
>  <smiles>  (18) 
O=C(NCC(=O)N1CCC[C@H]1[C@@H](O)C1CCCC1)c1ccc2cc(F)ccc2n1

>  <score_type>  (18) 
oracle

>  <origin>  (18) 
autodockgpu

>  <m_score__min__energy>  (18) 
-9.0600000000000005

>  <m_primary>  (18) 
energy

>  <rmsd>  (18) 
2.822347942652608

>  <m_score__min__rmsd>  (18) 
2.822347942652608

>  <meeko>  (18) 
{"free_energy": -9.06, "intermolecular_energy": -11.14, "internal_energy": -1.96, "cluster_size": 39, "cluster_id": 1, "rank_in_cluster": 1}

>  <energy>  (18) 
-8.39

>  <cluster_rmsd>  (18) 
1.34

>  <cluster>  (18) 
1

$$$$

     RDKit          3D

 55 58  0  0  0  0  0  0  0  0999 V2000
  140.6520   73.9740  220.3610 O   0  0  0  0  0  0  0  0  0  0  0  0
  140.2490   74.7330  221.2520 C   0  0  0  0  0  0  0  0  0  0  0  0
  139.2740   74.2820  222.1640 N   0  0  0  0  0  0  0  0  0  0  0  0
  138.7670   72.9500  222.0420 C   0  0  0  0  0  0  0  0  0  0  0  0
  139.6140   72.0010  222.8690 C   0  0  0  0  0  0  0  0  0  0  0  0
  140.8380   72.0450  222.5930 O   0  0  0  0  0  0  0  0  0  0  0  0
  139.0020   71.1890  223.8290 N   0  0  0  0  0  0  0  0  0  0  0  0
  137.5860   70.7260  223.6760 C   0  0  0  0  0  0  0  0  0  0  0  0
  137.8520   69.2240  223.7610 C   0  0  0  0  0  0  0  0  0  0  0  0
  138.8500   69.1390  224.8930 C   0  0  0  0  0  0  0  0  0  0  0  0
  139.3760   70.5790  225.0670 C   0  0  1  0  0  0  0  0  0  0  0  0
  140.7790   70.6210  225.5130 C   0  0  1  0  0  0  0  0  0  0  0  0
  141.4010   71.8340  225.3700 O   0  0  0  0  0  0  0  0  0  0  0  0
  141.1200   69.9720  226.8060 C   0  0  0  0  0  0  0  0  0  0  0  0
  141.4310   68.5130  226.5560 C   0  0  0  0  0  0  0  0  0  0  0  0
  140.3120   67.7510  227.1830 C   0  0  0  0  0  0  0  0  0  0  0  0
  139.9270   68.5780  228.3740 C   0  0  0  0  0  0  0  0  0  0  0  0
  139.9530   69.9860  227.7840 C   0  0  0  0  0  0  0  0  0  0  0  0
  140.7740   76.1060  221.3740 C   0  0  0  0  0  0  0  0  0  0  0  0
  141.6960   76.5610  220.4460 C   0  0  0  0  0  0  0  0  0  0  0  0
  142.1620   77.8510  220.5980 C   0  0  0  0  0  0  0  0  0  0  0  0
  141.7250   78.6480  221.6350 C   0  0  0  0  0  0  0  0  0  0  0  0
  142.1620   79.9440  221.8290 C   0  0  0  0  0  0  0  0  0  0  0  0
  141.7190   80.7370  222.8720 C   0  0  0  0  0  0  0  0  0  0  0  0
  142.1820   82.0190  223.0230 F   0  0  0  0  0  0  0  0  0  0  0  0
  140.7940   80.2420  223.7810 C   0  0  0  0  0  0  0  0  0  0  0  0
  140.3430   78.9340  223.5980 C   0  0  0  0  0  0  0  0  0  0  0  0
  140.7990   78.1620  222.5500 C   0  0  0  0  0  0  0  0  0  0  0  0
  140.3450   76.9010  222.4000 N   0  0  0  0  0  0  0  0  0  0  0  0
  138.9600   74.9650  222.9080 H   0  0  0  0  0  0  0  0  0  0  0  0
  137.7279   72.9202  222.4017 H   0  0  0  0  0  0  0  0  0  0  0  0
  138.8022   72.6428  220.9864 H   0  0  0  0  0  0  0  0  0  0  0  0
  136.9392   71.0827  224.4911 H   0  0  0  0  0  0  0  0  0  0  0  0
  137.0550   71.0753  222.7782 H   0  0  0  0  0  0  0  0  0  0  0  0
  136.9323   68.6690  223.9979 H   0  0  0  0  0  0  0  0  0  0  0  0
  138.2147   68.7862  222.8193 H   0  0  0  0  0  0  0  0  0  0  0  0
  138.3609   68.7915  225.8150 H   0  0  0  0  0  0  0  0  0  0  0  0
  139.6593   68.4254  224.6790 H   0  0  0  0  0  0  0  0  0  0  0  0
  138.9475   71.1642  225.8940 H   0  0  0  0  0  0  0  0  0  0  0  0
  141.2146   69.9423  224.7649 H   0  0  0  0  0  0  0  0  0  0  0  0
  141.0700   72.4310  224.6820 H   0  0  0  0  0  0  0  0  0  0  0  0
  141.9691   70.5294  227.2282 H   0  0  0  0  0  0  0  0  0  0  0  0
  141.4762   68.3097  225.4759 H   0  0  0  0  0  0  0  0  0  0  0  0
  142.4054   68.2264  226.9783 H   0  0  0  0  0  0  0  0  0  0  0  0
  139.4669   67.6539  226.4856 H   0  0  0  0  0  0  0  0  0  0  0  0
  140.6014   66.7258  227.4572 H   0  0  0  0  0  0  0  0  0  0  0  0
  138.9240   68.3136  228.7402 H   0  0  0  0  0  0  0  0  0  0  0  0
  140.5838   68.4436  229.2461 H   0  0  0  0  0  0  0  0  0  0  0  0
  139.0106   70.2051  227.2607 H   0  0  0  0  0  0  0  0  0  0  0  0
  140.0665   70.7600  228.5573 H   0  0  0  0  0  0  0  0  0  0  0  0
  142.0426   75.9204  219.6217 H   0  0  0  0  0  0  0  0  0  0  0  0
  142.8939   78.2500  219.8803 H   0  0  0  0  0  0  0  0  0  0  0  0
  142.8941   80.3635  221.1233 H   0  0  0  0  0  0  0  0  0  0  0  0
  140.4295   80.8587  224.6158 H   0  0  0  0  0  0  0  0  0  0  0  0
  139.6110   78.5114  224.3020 H   0  0  0  0  0  0  0  0  0  0  0  0
  1  2  2  0
  2  3  1  0
  3  4  1  0
  4  5  1  0
  5  6  2  0
  5  7  1  0
  7  8  1  0
  8  9  1  0
  9 10  1  0
 10 11  1  0
 11 12  1  0
 12 13  1  0
 12 14  1  0
 14 15  1  0
 15 16  1  0
 16 17  1  0
 17 18  1  0
  2 19  1  0
 19 20  2  0
 20 21  1  0
 21 22  2  0
 22 23  1  0
 23 24  2  0
 24 25  1  0
 24 26  1  0
 26 27  2  0
 27 28  1  0
 28 29  2  0
 11  7  1  0
 18 14  1  0
 29 19  1  0
 28 22  1  0
  3 30  1  0
  4 31  1  0
  4 32  1  0
  8 33  1  0
  8 34  1  0
  9 35  1  0
  9 36  1  0
 10 37  1  0
 10 38  1  0
 11 39  1  1
 12 40  1  6
 13 41  1  0
 14 42  1  0
 15 43  1  0
 15 44  1  0
 16 45  1  0
 16 46  1  0
 17 47  1  0
 17 48  1  0
 18 49  1  0
 18 50  1  0
 20 51  1  0
 21 52  1  0
 23 53  1  0
 26 54  1  0
 27 55  1  0
M  END
>  <smiles>  (19) 
O=C(NCC(=O)N1CCC[C@H]1[C@@H](O)C1CCCC1)c1ccc2cc(F)ccc2n1

>  <score_type>  (19) 
oracle

>  <origin>  (19) 
autodockgpu

>  <m_score__min__energy>  (19) 
-9.0600000000000005

>  <m_primary>  (19) 
energy

>  <rmsd>  (19) 
8.62909108537732

>  <m_score__min__rmsd>  (19) 
8.62909108537732

>  <meeko>  (19) 
{"free_energy": -7.86, "intermolecular_energy": -9.95, "internal_energy": -2.25, "cluster_size": 4, "cluster_id": 2, "rank_in_cluster": 2}

>  <energy>  (19) 
-8.31

>  <cluster_rmsd>  (19) 
1.48

>  <cluster>  (19) 
1

$$$$

     RDKit          3D

 55 58  0  0  0  0  0  0  0  0999 V2000
  141.4770   72.4220  221.6600 O   0  0  0  0  0  0  0  0  0  0  0  0
  140.4800   72.5500  222.3820 C   0  0  0  0  0  0  0  0  0  0  0  0
  139.5700   73.5970  222.1370 N   0  0  0  0  0  0  0  0  0  0  0  0
  139.8160   74.4960  221.0520 C   0  0  0  0  0  0  0  0  0  0  0  0
  140.6340   75.6770  221.5400 C   0  0  0  0  0  0  0  0  0  0  0  0
  140.2870   76.1000  222.6700 O   0  0  0  0  0  0  0  0  0  0  0  0
  141.6620   76.1830  220.7380 N   0  0  0  0  0  0  0  0  0  0  0  0
  142.6480   75.2790  220.0660 C   0  0  0  0  0  0  0  0  0  0  0  0
  142.4070   75.7450  218.6310 C   0  0  0  0  0  0  0  0  0  0  0  0
  142.3230   77.2450  218.7910 C   0  0  0  0  0  0  0  0  0  0  0  0
  142.1020   77.4720  220.3010 C   0  0  1  0  0  0  0  0  0  0  0  0
  141.2840   78.6630  220.5830 C   0  0  1  0  0  0  0  0  0  0  0  0
  139.9610   78.4160  220.8430 O   0  0  0  0  0  0  0  0  0  0  0  0
  141.8450   79.6940  221.4950 C   0  0  0  0  0  0  0  0  0  0  0  0
  142.3620   79.0160  222.7450 C   0  0  0  0  0  0  0  0  0  0  0  0
  141.4440   79.4440  223.8410 C   0  0  0  0  0  0  0  0  0  0  0  0
  141.0460   80.8400  223.4620 C   0  0  0  0  0  0  0  0  0  0  0  0
  140.7890   80.6840  221.9650 C   0  0  0  0  0  0  0  0  0  0  0  0
  140.2290   71.6200  223.5000 C   0  0  0  0  0  0  0  0  0  0  0  0
  139.4750   70.4800  223.2740 C   0  0  0  0  0  0  0  0  0  0  0  0
  139.2640   69.6390  224.3460 C   0  0  0  0  0  0  0  0  0  0  0  0
  139.7850   69.9280  225.5910 C   0  0  0  0  0  0  0  0  0  0  0  0
  139.6000   69.1180  226.6950 C   0  0  0  0  0  0  0  0  0  0  0  0
  140.1250   69.4150  227.9390 C   0  0  0  0  0  0  0  0  0  0  0  0
  139.9160   68.5780  229.0060 F   0  0  0  0  0  0  0  0  0  0  0  0
  140.8750   70.5680  228.1240 C   0  0  0  0  0  0  0  0  0  0  0  0
  141.0700   71.3960  227.0170 C   0  0  0  0  0  0  0  0  0  0  0  0
  140.5370   71.0800  225.7860 C   0  0  0  0  0  0  0  0  0  0  0  0
  140.7420   71.9010  224.7360 N   0  0  0  0  0  0  0  0  0  0  0  0
  138.7330   73.6680  222.7800 H   0  0  0  0  0  0  0  0  0  0  0  0
  140.3697   73.9702  220.2602 H   0  0  0  0  0  0  0  0  0  0  0  0
  138.8562   74.8578  220.6547 H   0  0  0  0  0  0  0  0  0  0  0  0
  143.6799   75.4653  220.3983 H   0  0  0  0  0  0  0  0  0  0  0  0
  142.5264   74.2020  220.2540 H   0  0  0  0  0  0  0  0  0  0  0  0
  143.2420   75.4604  217.9739 H   0  0  0  0  0  0  0  0  0  0  0  0
  141.5143   75.3003  218.1669 H   0  0  0  0  0  0  0  0  0  0  0  0
  143.2574   77.7223  218.4607 H   0  0  0  0  0  0  0  0  0  0  0  0
  141.5158   77.6814  218.1844 H   0  0  0  0  0  0  0  0  0  0  0  0
  142.9833   77.7648  220.8905 H   0  0  0  0  0  0  0  0  0  0  0  0
  141.3359   79.1411  219.5937 H   0  0  0  0  0  0  0  0  0  0  0  0
  139.7470   77.9050  221.6370 H   0  0  0  0  0  0  0  0  0  0  0  0
  142.6299   80.2224  220.9341 H   0  0  0  0  0  0  0  0  0  0  0  0
  142.3366   77.9226  222.6275 H   0  0  0  0  0  0  0  0  0  0  0  0
  143.4056   79.2920  222.9564 H   0  0  0  0  0  0  0  0  0  0  0  0
  140.5632   78.7870  223.8913 H   0  0  0  0  0  0  0  0  0  0  0  0
  141.9187   79.3951  224.8321 H   0  0  0  0  0  0  0  0  0  0  0  0
  140.1380   81.1583  223.9951 H   0  0  0  0  0  0  0  0  0  0  0  0
  141.7958   81.6050  223.7123 H   0  0  0  0  0  0  0  0  0  0  0  0
  139.7785   80.2891  221.7836 H   0  0  0  0  0  0  0  0  0  0  0  0
  140.8487   81.6430  221.4295 H   0  0  0  0  0  0  0  0  0  0  0  0
  139.0615   70.2550  222.2798 H   0  0  0  0  0  0  0  0  0  0  0  0
  138.6710   68.7231  224.2068 H   0  0  0  0  0  0  0  0  0  0  0  0
  139.0096   68.1971  226.5791 H   0  0  0  0  0  0  0  0  0  0  0  0
  141.3001   70.8202  229.1067 H   0  0  0  0  0  0  0  0  0  0  0  0
  141.6599   72.3176  227.1294 H   0  0  0  0  0  0  0  0  0  0  0  0
  1  2  2  0
  2  3  1  0
  3  4  1  0
  4  5  1  0
  5  6  2  0
  5  7  1  0
  7  8  1  0
  8  9  1  0
  9 10  1  0
 10 11  1  0
 11 12  1  0
 12 13  1  0
 12 14  1  0
 14 15  1  0
 15 16  1  0
 16 17  1  0
 17 18  1  0
  2 19  1  0
 19 20  2  0
 20 21  1  0
 21 22  2  0
 22 23  1  0
 23 24  2  0
 24 25  1  0
 24 26  1  0
 26 27  2  0
 27 28  1  0
 28 29  2  0
 11  7  1  0
 18 14  1  0
 29 19  1  0
 28 22  1  0
  3 30  1  0
  4 31  1  0
  4 32  1  0
  8 33  1  0
  8 34  1  0
  9 35  1  0
  9 36  1  0
 10 37  1  0
 10 38  1  0
 11 39  1  1
 12 40  1  6
 13 41  1  0
 14 42  1  0
 15 43  1  0
 15 44  1  0
 16 45  1  0
 16 46  1  0
 17 47  1  0
 17 48  1  0
 18 49  1  0
 18 50  1  0
 20 51  1  0
 21 52  1  0
 23 53  1  0
 26 54  1  0
 27 55  1  0
M  END
>  <smiles>  (20) 
O=C(NCC(=O)N1CCC[C@H]1[C@@H](O)C1CCCC1)c1ccc2cc(F)ccc2n1

>  <score_type>  (20) 
oracle

>  <origin>  (20) 
autodockgpu

>  <m_score__min__energy>  (20) 
-9.0600000000000005

>  <m_primary>  (20) 
energy

>  <rmsd>  (20) 
2.011784563301261

>  <m_score__min__rmsd>  (20) 
2.011784563301261

>  <meeko>  (20) 
{"free_energy": -8.22, "intermolecular_energy": -10.31, "internal_energy": -2.38, "cluster_size": 39, "cluster_id": 1, "rank_in_cluster": 27}

>  <energy>  (20) 
-8.31

>  <cluster_rmsd>  (20) 
1.57

>  <cluster>  (20) 
1

$$$$

     RDKit          3D

 55 58  0  0  0  0  0  0  0  0999 V2000
  138.6740   71.9730  221.4930 O   0  0  0  0  0  0  0  0  0  0  0  0
  139.6510   71.9850  222.2530 C   0  0  0  0  0  0  0  0  0  0  0  0
  140.7330   72.8480  221.9880 N   0  0  0  0  0  0  0  0  0  0  0  0
  140.6800   73.6990  220.8390 C   0  0  0  0  0  0  0  0  0  0  0  0
  140.8770   75.1430  221.2600 C   0  0  0  0  0  0  0  0  0  0  0  0
  140.2780   75.4460  222.3220 O   0  0  0  0  0  0  0  0  0  0  0  0
  141.6690   75.9880  220.4780 N   0  0  0  0  0  0  0  0  0  0  0  0
  142.3160   75.5080  219.2140 C   0  0  0  0  0  0  0  0  0  0  0  0
  141.7130   76.5460  218.2690 C   0  0  0  0  0  0  0  0  0  0  0  0
  141.8350   77.8200  219.0720 C   0  0  0  0  0  0  0  0  0  0  0  0
  142.0920   77.3540  220.5200 C   0  0  1  0  0  0  0  0  0  0  0  0
  141.5190   78.2690  221.5220 C   0  0  1  0  0  0  0  0  0  0  0  0
  141.3610   77.7380  222.7760 O   0  0  0  0  0  0  0  0  0  0  0  0
  142.0360   79.6620  221.5700 C   0  0  0  0  0  0  0  0  0  0  0  0
  142.9440   79.8080  222.7710 C   0  0  0  0  0  0  0  0  0  0  0  0
  142.2190   80.7080  223.7150 C   0  0  0  0  0  0  0  0  0  0  0  0
  141.4620   81.6450  222.8200 C   0  0  0  0  0  0  0  0  0  0  0  0
  140.9230   80.6830  221.7640 C   0  0  0  0  0  0  0  0  0  0  0  0
  139.7010   71.1060  223.4370 C   0  0  0  0  0  0  0  0  0  0  0  0
  139.1410   69.8410  223.3620 C   0  0  0  0  0  0  0  0  0  0  0  0
  139.2090   69.0520  224.4920 C   0  0  0  0  0  0  0  0  0  0  0  0
  139.8100   69.5120  225.6460 C   0  0  0  0  0  0  0  0  0  0  0  0
  139.9020   68.7610  226.8020 C   0  0  0  0  0  0  0  0  0  0  0  0
  140.5060   69.2280  227.9540 C   0  0  0  0  0  0  0  0  0  0  0  0
  140.5730   68.4450  229.0780 F   0  0  0  0  0  0  0  0  0  0  0  0
  141.0540   70.5030  227.9880 C   0  0  0  0  0  0  0  0  0  0  0  0
  140.9690   71.2740  226.8270 C   0  0  0  0  0  0  0  0  0  0  0  0
  140.3620   70.7860  225.6890 C   0  0  0  0  0  0  0  0  0  0  0  0
  140.2950   71.5560  224.5830 N   0  0  0  0  0  0  0  0  0  0  0  0
  141.5440   72.8240  222.6640 H   0  0  0  0  0  0  0  0  0  0  0  0
  141.4750   73.4121  220.1350 H   0  0  0  0  0  0  0  0  0  0  0  0
  139.6988   73.5928  220.3531 H   0  0  0  0  0  0  0  0  0  0  0  0
  143.4135   75.5693  219.2568 H   0  0  0  0  0  0  0  0  0  0  0  0
  142.1448   74.4538  218.9507 H   0  0  0  0  0  0  0  0  0  0  0  0
  142.2837   76.6100  217.3308 H   0  0  0  0  0  0  0  0  0  0  0  0
  140.6824   76.3159  217.9610 H   0  0  0  0  0  0  0  0  0  0  0  0
  142.6752   78.4288  218.7066 H   0  0  0  0  0  0  0  0  0  0  0  0
  140.9348   78.4471  218.9926 H   0  0  0  0  0  0  0  0  0  0  0  0
  143.1334   77.3926  220.8720 H   0  0  0  0  0  0  0  0  0  0  0  0
  140.5138   78.3847  221.0906 H   0  0  0  0  0  0  0  0  0  0  0  0
  141.7780   76.8830  222.9580 H   0  0  0  0  0  0  0  0  0  0  0  0
  142.5500   79.8447  220.6148 H   0  0  0  0  0  0  0  0  0  0  0  0
  143.1248   78.8282  223.2370 H   0  0  0  0  0  0  0  0  0  0  0  0
  143.9260   80.2173  222.4915 H   0  0  0  0  0  0  0  0  0  0  0  0
  141.5296   80.1331  224.3507 H   0  0  0  0  0  0  0  0  0  0  0  0
  142.8984   81.2359  224.4004 H   0  0  0  0  0  0  0  0  0  0  0  0
  140.6462   82.1470  223.3609 H   0  0  0  0  0  0  0  0  0  0  0  0
  142.0694   82.4664  222.4120 H   0  0  0  0  0  0  0  0  0  0  0  0
  140.0040   80.1930  222.1181 H   0  0  0  0  0  0  0  0  0  0  0  0
  140.6603   81.1965  220.8274 H   0  0  0  0  0  0  0  0  0  0  0  0
  138.6620   69.4805  222.4397 H   0  0  0  0  0  0  0  0  0  0  0  0
  138.7773   68.0404  224.4727 H   0  0  0  0  0  0  0  0  0  0  0  0
  139.4758   67.7469  226.8056 H   0  0  0  0  0  0  0  0  0  0  0  0
  141.5375   70.8917  228.8964 H   0  0  0  0  0  0  0  0  0  0  0  0
  141.3937   72.2887  226.8200 H   0  0  0  0  0  0  0  0  0  0  0  0
  1  2  2  0
  2  3  1  0
  3  4  1  0
  4  5  1  0
  5  6  2  0
  5  7  1  0
  7  8  1  0
  8  9  1  0
  9 10  1  0
 10 11  1  0
 11 12  1  0
 12 13  1  0
 12 14  1  0
 14 15  1  0
 15 16  1  0
 16 17  1  0
 17 18  1  0
  2 19  1  0
 19 20  2  0
 20 21  1  0
 21 22  2  0
 22 23  1  0
 23 24  2  0
 24 25  1  0
 24 26  1  0
 26 27  2  0
 27 28  1  0
 28 29  2  0
 11  7  1  0
 18 14  1  0
 29 19  1  0
 28 22  1  0
  3 30  1  0
  4 31  1  0
  4 32  1  0
  8 33  1  0
  8 34  1  0
  9 35  1  0
  9 36  1  0
 10 37  1  0
 10 38  1  0
 11 39  1  1
 12 40  1  6
 13 41  1  0
 14 42  1  0
 15 43  1  0
 15 44  1  0
 16 45  1  0
 16 46  1  0
 17 47  1  0
 17 48  1  0
 18 49  1  0
 18 50  1  0
 20 51  1  0
 21 52  1  0
 23 53  1  0
 26 54  1  0
 27 55  1  0
M  END
>  <smiles>  (21) 
O=C(NCC(=O)N1CCC[C@H]1[C@@H](O)C1CCCC1)c1ccc2cc(F)ccc2n1

>  <score_type>  (21) 
oracle

>  <origin>  (21) 
autodockgpu

>  <m_score__min__energy>  (21) 
-9.0600000000000005

>  <m_primary>  (21) 
energy

>  <rmsd>  (21) 
1.804979919148028

>  <m_score__min__rmsd>  (21) 
1.804979919148028

>  <meeko>  (21) 
{"free_energy": -8.24, "intermolecular_energy": -10.33, "internal_energy": -2.14, "cluster_size": 39, "cluster_id": 1, "rank_in_cluster": 26}

>  <energy>  (21) 
-8.3

>  <cluster_rmsd>  (21) 
1.63

>  <cluster>  (21) 
1

$$$$

     RDKit          3D

 55 58  0  0  0  0  0  0  0  0999 V2000
  138.1520   71.0230  221.7720 O   0  0  0  0  0  0  0  0  0  0  0  0
  138.8620   71.4080  222.7100 C   0  0  0  0  0  0  0  0  0  0  0  0
  139.3640   72.7240  222.7110 N   0  0  0  0  0  0  0  0  0  0  0  0
  139.0410   73.5950  221.6240 C   0  0  0  0  0  0  0  0  0  0  0  0
  139.8100   74.8960  221.7620 C   0  0  0  0  0  0  0  0  0  0  0  0
  141.0280   74.7380  222.0230 O   0  0  0  0  0  0  0  0  0  0  0  0
  139.1410   76.1130  221.5960 N   0  0  0  0  0  0  0  0  0  0  0  0
  137.6800   76.1670  221.2700 C   0  0  0  0  0  0  0  0  0  0  0  0
  137.2370   77.0200  222.4570 C   0  0  0  0  0  0  0  0  0  0  0  0
  138.3210   78.0710  222.5180 C   0  0  0  0  0  0  0  0  0  0  0  0
  139.4750   77.5020  221.6670 C   0  0  1  0  0  0  0  0  0  0  0  0
  140.8010   77.9150  222.1580 C   0  0  1  0  0  0  0  0  0  0  0  0
  141.3340   77.1220  223.1410 O   0  0  0  0  0  0  0  0  0  0  0  0
  141.8220   78.3170  221.1540 C   0  0  0  0  0  0  0  0  0  0  0  0
  141.2910   79.4880  220.3570 C   0  0  0  0  0  0  0  0  0  0  0  0
  141.0530   78.9620  218.9820 C   0  0  0  0  0  0  0  0  0  0  0  0
  142.1260   77.9310  218.7920 C   0  0  0  0  0  0  0  0  0  0  0  0
  142.0980   77.2150  220.1410 C   0  0  0  0  0  0  0  0  0  0  0  0
  139.1920   70.5060  223.8300 C   0  0  0  0  0  0  0  0  0  0  0  0
  138.8640   69.1640  223.7350 C   0  0  0  0  0  0  0  0  0  0  0  0
  139.1900   68.3570  224.8060 C   0  0  0  0  0  0  0  0  0  0  0  0
  139.8160   68.8730  225.9210 C   0  0  0  0  0  0  0  0  0  0  0  0
  140.1620   68.1050  227.0180 C   0  0  0  0  0  0  0  0  0  0  0  0
  140.7890   68.6300  228.1330 C   0  0  0  0  0  0  0  0  0  0  0  0
  141.1130   67.8280  229.1970 F   0  0  0  0  0  0  0  0  0  0  0  0
  141.1000   69.9820  228.1880 C   0  0  0  0  0  0  0  0  0  0  0  0
  140.7570   70.7690  227.0870 C   0  0  0  0  0  0  0  0  0  0  0  0
  140.1320   70.2240  225.9860 C   0  0  0  0  0  0  0  0  0  0  0  0
  139.8120   71.0120  224.9390 N   0  0  0  0  0  0  0  0  0  0  0  0
  139.9650   73.0090  223.5330 H   0  0  0  0  0  0  0  0  0  0  0  0
  139.3114   73.1099  220.6745 H   0  0  0  0  0  0  0  0  0  0  0  0
  137.9618   73.8077  221.6373 H   0  0  0  0  0  0  0  0  0  0  0  0
  137.4848   76.6591  220.3058 H   0  0  0  0  0  0  0  0  0  0  0  0
  137.1726   75.1982  221.1519 H   0  0  0  0  0  0  0  0  0  0  0  0
  136.2514   77.4738  222.2761 H   0  0  0  0  0  0  0  0  0  0  0  0
  137.1215   76.4505  223.3910 H   0  0  0  0  0  0  0  0  0  0  0  0
  137.9622   79.0218  222.0970 H   0  0  0  0  0  0  0  0  0  0  0  0
  138.6341   78.2830  223.5510 H   0  0  0  0  0  0  0  0  0  0  0  0
  139.5747   77.8959  220.6448 H   0  0  0  0  0  0  0  0  0  0  0  0
  140.5175   78.8676  222.6295 H   0  0  0  0  0  0  0  0  0  0  0  0
  141.8880   76.3770  222.8660 H   0  0  0  0  0  0  0  0  0  0  0  0
  142.7415   78.5535  221.7096 H   0  0  0  0  0  0  0  0  0  0  0  0
  140.3517   79.8564  220.7952 H   0  0  0  0  0  0  0  0  0  0  0  0
  141.9968   80.3317  220.3536 H   0  0  0  0  0  0  0  0  0  0  0  0
  140.0552   78.5052  218.9062 H   0  0  0  0  0  0  0  0  0  0  0  0
  141.0869   79.7516  218.2169 H   0  0  0  0  0  0  0  0  0  0  0  0
  141.8833   77.2449  217.9672 H   0  0  0  0  0  0  0  0  0  0  0  0
  143.1081   78.3480  218.5245 H   0  0  0  0  0  0  0  0  0  0  0  0
  141.2997   76.4585  220.1628 H   0  0  0  0  0  0  0  0  0  0  0  0
  143.0370   76.6814  220.3500 H   0  0  0  0  0  0  0  0  0  0  0  0
  138.3644   68.7581  222.8430 H   0  0  0  0  0  0  0  0  0  0  0  0
  138.9466   67.2849  224.7696 H   0  0  0  0  0  0  0  0  0  0  0  0
  139.9283   67.0302  227.0028 H   0  0  0  0  0  0  0  0  0  0  0  0
  141.5984   70.4171  229.0668 H   0  0  0  0  0  0  0  0  0  0  0  0
  140.9899   71.8440  227.0984 H   0  0  0  0  0  0  0  0  0  0  0  0
  1  2  2  0
  2  3  1  0
  3  4  1  0
  4  5  1  0
  5  6  2  0
  5  7  1  0
  7  8  1  0
  8  9  1  0
  9 10  1  0
 10 11  1  0
 11 12  1  0
 12 13  1  0
 12 14  1  0
 14 15  1  0
 15 16  1  0
 16 17  1  0
 17 18  1  0
  2 19  1  0
 19 20  2  0
 20 21  1  0
 21 22  2  0
 22 23  1  0
 23 24  2  0
 24 25  1  0
 24 26  1  0
 26 27  2  0
 27 28  1  0
 28 29  2  0
 11  7  1  0
 18 14  1  0
 29 19  1  0
 28 22  1  0
  3 30  1  0
  4 31  1  0
  4 32  1  0
  8 33  1  0
  8 34  1  0
  9 35  1  0
  9 36  1  0
 10 37  1  0
 10 38  1  0
 11 39  1  6
 12 40  1  1
 13 41  1  0
 14 42  1  0
 15 43  1  0
 15 44  1  0
 16 45  1  0
 16 46  1  0
 17 47  1  0
 17 48  1  0
 18 49  1  0
 18 50  1  0
 20 51  1  0
 21 52  1  0
 23 53  1  0
 26 54  1  0
 27 55  1  0
M  END
>  <smiles>  (22) 
O=C(NCC(=O)N1CCC[C@H]1[C@@H](O)C1CCCC1)c1ccc2cc(F)ccc2n1

>  <score_type>  (22) 
oracle

>  <origin>  (22) 
autodockgpu

>  <m_score__min__energy>  (22) 
-9.0600000000000005

>  <m_primary>  (22) 
energy

>  <rmsd>  (22) 
2.518107237500005

>  <m_score__min__rmsd>  (22) 
2.518107237500005

>  <meeko>  (22) 
{"free_energy": -7.53, "intermolecular_energy": -9.62, "internal_energy": -2.77, "cluster_size": 39, "cluster_id": 1, "rank_in_cluster": 38}

>  <energy>  (22) 
-8.28

>  <cluster_rmsd>  (22) 
1.36

>  <cluster>  (22) 
1

$$$$

     RDKit          3D

 55 58  0  0  0  0  0  0  0  0999 V2000
  138.3140   71.1230  221.6450 O   0  0  0  0  0  0  0  0  0  0  0  0
  138.9550   71.5180  222.6280 C   0  0  0  0  0  0  0  0  0  0  0  0
  139.4110   72.8510  222.6750 N   0  0  0  0  0  0  0  0  0  0  0  0
  139.1230   73.7250  221.5800 C   0  0  0  0  0  0  0  0  0  0  0  0
  139.8790   75.0290  221.7520 C   0  0  0  0  0  0  0  0  0  0  0  0
  141.1060   74.8760  221.9730 O   0  0  0  0  0  0  0  0  0  0  0  0
  139.1920   76.2420  221.6570 N   0  0  0  0  0  0  0  0  0  0  0  0
  137.7890   76.3100  221.1350 C   0  0  0  0  0  0  0  0  0  0  0  0
  137.1510   76.9820  222.3500 C   0  0  0  0  0  0  0  0  0  0  0  0
  138.1730   78.0380  222.7050 C   0  0  0  0  0  0  0  0  0  0  0  0
  139.4560   77.6150  221.9600 C   0  0  1  0  0  0  0  0  0  0  0  0
  140.6830   77.9840  222.6850 C   0  0  1  0  0  0  0  0  0  0  0  0
  141.4170   76.9310  223.1660 O   0  0  0  0  0  0  0  0  0  0  0  0
  141.5470   79.0430  222.1010 C   0  0  0  0  0  0  0  0  0  0  0  0
  142.5890   79.4450  223.1210 C   0  0  0  0  0  0  0  0  0  0  0  0
  142.2340   80.8350  223.5310 C   0  0  0  0  0  0  0  0  0  0  0  0
  141.6530   81.4460  222.2900 C   0  0  0  0  0  0  0  0  0  0  0  0
  140.7680   80.3110  221.7810 C   0  0  0  0  0  0  0  0  0  0  0  0
  139.2490   70.6130  223.7550 C   0  0  0  0  0  0  0  0  0  0  0  0
  138.8870   69.2790  223.6620 C   0  0  0  0  0  0  0  0  0  0  0  0
  139.1800   68.4680  224.7390 C   0  0  0  0  0  0  0  0  0  0  0  0
  139.8080   68.9720  225.8590 C   0  0  0  0  0  0  0  0  0  0  0  0
  140.1220   68.2000  226.9620 C   0  0  0  0  0  0  0  0  0  0  0  0
  140.7520   68.7120  228.0810 C   0  0  0  0  0  0  0  0  0  0  0  0
  141.0440   67.9060  229.1510 F   0  0  0  0  0  0  0  0  0  0  0  0
  141.0980   70.0550  228.1340 C   0  0  0  0  0  0  0  0  0  0  0  0
  140.7880   70.8470  227.0270 C   0  0  0  0  0  0  0  0  0  0  0  0
  140.1590   70.3140  225.9220 C   0  0  0  0  0  0  0  0  0  0  0  0
  139.8720   71.1060  224.8680 N   0  0  0  0  0  0  0  0  0  0  0  0
  139.9530   73.1430  223.5330 H   0  0  0  0  0  0  0  0  0  0  0  0
  139.4309   73.2455  220.6391 H   0  0  0  0  0  0  0  0  0  0  0  0
  138.0429   73.9316  221.5540 H   0  0  0  0  0  0  0  0  0  0  0  0
  137.7102   76.9262  220.2272 H   0  0  0  0  0  0  0  0  0  0  0  0
  137.3423   75.3564  220.8171 H   0  0  0  0  0  0  0  0  0  0  0  0
  136.1824   77.4352  222.0922 H   0  0  0  0  0  0  0  0  0  0  0  0
  136.9303   76.2870  223.1735 H   0  0  0  0  0  0  0  0  0  0  0  0
  137.8382   79.0298  222.3668 H   0  0  0  0  0  0  0  0  0  0  0  0
  138.3305   78.1133  223.7911 H   0  0  0  0  0  0  0  0  0  0  0  0
  139.6799   78.1480  221.0242 H   0  0  0  0  0  0  0  0  0  0  0  0
  140.2234   78.4809  223.5521 H   0  0  0  0  0  0  0  0  0  0  0  0
  141.9160   76.4020  222.5260 H   0  0  0  0  0  0  0  0  0  0  0  0
  141.9815   78.6278  221.1797 H   0  0  0  0  0  0  0  0  0  0  0  0
  142.5581   78.7691  223.9883 H   0  0  0  0  0  0  0  0  0  0  0  0
  143.6065   79.3902  222.7066 H   0  0  0  0  0  0  0  0  0  0  0  0
  141.4938   80.8250  224.3446 H   0  0  0  0  0  0  0  0  0  0  0  0
  143.0996   81.3965  223.9124 H   0  0  0  0  0  0  0  0  0  0  0  0
  141.0616   82.3439  222.5226 H   0  0  0  0  0  0  0  0  0  0  0  0
  142.4044   81.7903  221.5642 H   0  0  0  0  0  0  0  0  0  0  0  0
  139.7982   80.3122  222.3001 H   0  0  0  0  0  0  0  0  0  0  0  0
  140.5462   80.4044  220.7077 H   0  0  0  0  0  0  0  0  0  0  0  0
  138.3865   68.8827  222.7662 H   0  0  0  0  0  0  0  0  0  0  0  0
  138.9085   67.4026  224.7040 H   0  0  0  0  0  0  0  0  0  0  0  0
  139.8591   67.1319  226.9487 H   0  0  0  0  0  0  0  0  0  0  0  0
  141.5985   70.4801  229.0165 H   0  0  0  0  0  0  0  0  0  0  0  0
  141.0502   71.9152  227.0365 H   0  0  0  0  0  0  0  0  0  0  0  0
  1  2  2  0
  2  3  1  0
  3  4  1  0
  4  5  1  0
  5  6  2  0
  5  7  1  0
  7  8  1  0
  8  9  1  0
  9 10  1  0
 10 11  1  0
 11 12  1  0
 12 13  1  0
 12 14  1  0
 14 15  1  0
 15 16  1  0
 16 17  1  0
 17 18  1  0
  2 19  1  0
 19 20  2  0
 20 21  1  0
 21 22  2  0
 22 23  1  0
 23 24  2  0
 24 25  1  0
 24 26  1  0
 26 27  2  0
 27 28  1  0
 28 29  2  0
 11  7  1  0
 18 14  1  0
 29 19  1  0
 28 22  1  0
  3 30  1  0
  4 31  1  0
  4 32  1  0
  8 33  1  0
  8 34  1  0
  9 35  1  0
  9 36  1  0
 10 37  1  0
 10 38  1  0
 11 39  1  6
 12 40  1  1
 13 41  1  0
 14 42  1  0
 15 43  1  0
 15 44  1  0
 16 45  1  0
 16 46  1  0
 17 47  1  0
 17 48  1  0
 18 49  1  0
 18 50  1  0
 20 51  1  0
 21 52  1  0
 23 53  1  0
 26 54  1  0
 27 55  1  0
M  END
>  <smiles>  (23) 
O=C(NCC(=O)N1CCC[C@H]1[C@@H](O)C1CCCC1)c1ccc2cc(F)ccc2n1

>  <score_type>  (23) 
oracle

>  <origin>  (23) 
autodockgpu

>  <m_score__min__energy>  (23) 
-9.0600000000000005

>  <m_primary>  (23) 
energy

>  <rmsd>  (23) 
2.5569058545036905

>  <m_score__min__rmsd>  (23) 
2.5569058545036905

>  <meeko>  (23) 
{"free_energy": -8.65, "intermolecular_energy": -10.74, "internal_energy": -2.37, "cluster_size": 39, "cluster_id": 1, "rank_in_cluster": 5}

>  <energy>  (23) 
-8.27

>  <cluster_rmsd>  (23) 
1.27

>  <cluster>  (23) 
1

$$$$

     RDKit          3D

 55 58  0  0  0  0  0  0  0  0999 V2000
  137.0420   76.0100  222.1860 O   0  0  0  0  0  0  0  0  0  0  0  0
  138.2630   76.1350  222.3460 C   0  0  0  0  0  0  0  0  0  0  0  0
  139.1060   75.0190  222.1790 N   0  0  0  0  0  0  0  0  0  0  0  0
  138.5320   73.7570  221.8250 C   0  0  0  0  0  0  0  0  0  0  0  0
  139.4750   72.6350  222.2190 C   0  0  0  0  0  0  0  0  0  0  0  0
  140.6880   72.9570  222.1790 O   0  0  0  0  0  0  0  0  0  0  0  0
  138.9520   71.3900  222.5780 N   0  0  0  0  0  0  0  0  0  0  0  0
  138.0310   70.6340  221.6700 C   0  0  0  0  0  0  0  0  0  0  0  0
  138.8490   69.3480  221.5720 C   0  0  0  0  0  0  0  0  0  0  0  0
  139.2900   69.1390  223.0020 C   0  0  0  0  0  0  0  0  0  0  0  0
  139.0570   70.4990  223.6930 C   0  0  1  0  0  0  0  0  0  0  0  0
  140.0340   70.7700  224.7600 C   0  0  1  0  0  0  0  0  0  0  0  0
  140.8350   71.8630  224.5560 O   0  0  0  0  0  0  0  0  0  0  0  0
  139.5720   70.6760  226.1700 C   0  0  0  0  0  0  0  0  0  0  0  0
  140.6990   71.1000  227.0860 C   0  0  0  0  0  0  0  0  0  0  0  0
  141.1240   69.8610  227.7990 C   0  0  0  0  0  0  0  0  0  0  0  0
  139.8570   69.0710  227.9490 C   0  0  0  0  0  0  0  0  0  0  0  0
  139.2260   69.2490  226.5690 C   0  0  0  0  0  0  0  0  0  0  0  0
  138.8510   77.4380  222.7110 C   0  0  0  0  0  0  0  0  0  0  0  0
  138.0110   78.5080  222.9700 C   0  0  0  0  0  0  0  0  0  0  0  0
  138.6020   79.7090  223.3070 C   0  0  0  0  0  0  0  0  0  0  0  0
  139.9740   79.8300  223.3800 C   0  0  0  0  0  0  0  0  0  0  0  0
  140.6130   81.0100  223.7120 C   0  0  0  0  0  0  0  0  0  0  0  0
  141.9890   81.1230  223.7840 C   0  0  0  0  0  0  0  0  0  0  0  0
  142.5770   82.3160  224.1180 F   0  0  0  0  0  0  0  0  0  0  0  0
  142.7950   80.0250  223.5160 C   0  0  0  0  0  0  0  0  0  0  0  0
  142.1640   78.8270  223.1800 C   0  0  0  0  0  0  0  0  0  0  0  0
  140.7900   78.7370  223.1150 C   0  0  0  0  0  0  0  0  0  0  0  0
  140.2100   77.5640  222.7860 N   0  0  0  0  0  0  0  0  0  0  0  0
  140.1420   75.1720  222.3260 H   0  0  0  0  0  0  0  0  0  0  0  0
  137.5743   73.6309  222.3512 H   0  0  0  0  0  0  0  0  0  0  0  0
  138.3645   73.7261  220.7383 H   0  0  0  0  0  0  0  0  0  0  0  0
  137.0425   70.4669  222.1226 H   0  0  0  0  0  0  0  0  0  0  0  0
  137.7795   71.1230  220.7173 H   0  0  0  0  0  0  0  0  0  0  0  0
  138.2318   68.5089  221.2185 H   0  0  0  0  0  0  0  0  0  0  0  0
  139.6832   69.4092  220.8576 H   0  0  0  0  0  0  0  0  0  0  0  0
  138.6879   68.3532  223.4816 H   0  0  0  0  0  0  0  0  0  0  0  0
  140.3393   68.8155  223.0684 H   0  0  0  0  0  0  0  0  0  0  0  0
  138.1493   70.5903  224.3076 H   0  0  0  0  0  0  0  0  0  0  0  0
  140.6662   69.8780  224.6391 H   0  0  0  0  0  0  0  0  0  0  0  0
  141.1060   72.0590  223.6470 H   0  0  0  0  0  0  0  0  0  0  0  0
  138.6811   71.3153  226.2568 H   0  0  0  0  0  0  0  0  0  0  0  0
  141.5346   71.5123  226.5013 H   0  0  0  0  0  0  0  0  0  0  0  0
  140.3797   71.8844  227.7880 H   0  0  0  0  0  0  0  0  0  0  0  0
  141.8637   69.3035  227.2057 H   0  0  0  0  0  0  0  0  0  0  0  0
  141.6050   70.0742  228.7650 H   0  0  0  0  0  0  0  0  0  0  0  0
  140.0658   68.0123  228.1625 H   0  0  0  0  0  0  0  0  0  0  0  0
  139.2178   69.3998  228.7817 H   0  0  0  0  0  0  0  0  0  0  0  0
  139.6513   68.5313  225.8520 H   0  0  0  0  0  0  0  0  0  0  0  0
  138.1406   69.0705  226.5804 H   0  0  0  0  0  0  0  0  0  0  0  0
  136.9175   78.4051  222.9096 H   0  0  0  0  0  0  0  0  0  0  0  0
  137.9691   80.5830  223.5206 H   0  0  0  0  0  0  0  0  0  0  0  0
  140.0001   81.8975  223.9283 H   0  0  0  0  0  0  0  0  0  0  0  0
  143.8915   80.0969  223.5668 H   0  0  0  0  0  0  0  0  0  0  0  0
  142.7741   77.9378  222.9629 H   0  0  0  0  0  0  0  0  0  0  0  0
  1  2  2  0
  2  3  1  0
  3  4  1  0
  4  5  1  0
  5  6  2  0
  5  7  1  0
  7  8  1  0
  8  9  1  0
  9 10  1  0
 10 11  1  0
 11 12  1  0
 12 13  1  0
 12 14  1  0
 14 15  1  0
 15 16  1  0
 16 17  1  0
 17 18  1  0
  2 19  1  0
 19 20  2  0
 20 21  1  0
 21 22  2  0
 22 23  1  0
 23 24  2  0
 24 25  1  0
 24 26  1  0
 26 27  2  0
 27 28  1  0
 28 29  2  0
 11  7  1  0
 18 14  1  0
 29 19  1  0
 28 22  1  0
  3 30  1  0
  4 31  1  0
  4 32  1  0
  8 33  1  0
  8 34  1  0
  9 35  1  0
  9 36  1  0
 10 37  1  0
 10 38  1  0
 11 39  1  1
 12 40  1  1
 13 41  1  0
 14 42  1  0
 15 43  1  0
 15 44  1  0
 16 45  1  0
 16 46  1  0
 17 47  1  0
 17 48  1  0
 18 49  1  0
 18 50  1  0
 20 51  1  0
 21 52  1  0
 23 53  1  0
 26 54  1  0
 27 55  1  0
M  END
>  <smiles>  (24) 
O=C(NCC(=O)N1CCC[C@H]1[C@@H](O)C1CCCC1)c1ccc2cc(F)ccc2n1

>  <score_type>  (24) 
oracle

>  <origin>  (24) 
autodockgpu

>  <m_score__min__energy>  (24) 
-9.0600000000000005

>  <m_primary>  (24) 
energy

>  <rmsd>  (24) 
8.527510777812102

>  <m_score__min__rmsd>  (24) 
8.527510777812102

>  <meeko>  (24) 
{"free_energy": -7.04, "intermolecular_energy": -9.13, "internal_energy": -2.77, "cluster_size": 4, "cluster_id": 2, "rank_in_cluster": 4}

>  <energy>  (24) 
-8.27

>  <cluster_rmsd>  (24) 
1.14

>  <cluster>  (24) 
1

$$$$

     RDKit          3D

 55 58  0  0  0  0  0  0  0  0999 V2000
  137.1440   70.3740  221.9710 O   0  0  0  0  0  0  0  0  0  0  0  0
  137.7930   71.0040  222.8160 C   0  0  0  0  0  0  0  0  0  0  0  0
  137.8980   72.4050  222.7150 N   0  0  0  0  0  0  0  0  0  0  0  0
  137.2480   73.0760  221.6310 C   0  0  0  0  0  0  0  0  0  0  0  0
  138.2160   73.2390  220.4740 C   0  0  0  0  0  0  0  0  0  0  0  0
  138.0030   72.4490  219.5220 O   0  0  0  0  0  0  0  0  0  0  0  0
  139.2220   74.2070  220.5480 N   0  0  0  0  0  0  0  0  0  0  0  0
  139.0330   75.5800  219.9810 C   0  0  0  0  0  0  0  0  0  0  0  0
  139.3110   76.3700  221.2590 C   0  0  0  0  0  0  0  0  0  0  0  0
  140.5070   75.6440  221.8300 C   0  0  0  0  0  0  0  0  0  0  0  0
  140.5460   74.2940  221.0850 C   0  0  1  0  0  0  0  0  0  0  0  0
  141.0740   73.1990  221.9170 C   0  0  1  0  0  0  0  0  0  0  0  0
  140.3390   72.9090  223.0370 O   0  0  0  0  0  0  0  0  0  0  0  0
  141.5500   71.9700  221.2310 C   0  0  0  0  0  0  0  0  0  0  0  0
  141.9540   72.3220  219.8160 C   0  0  0  0  0  0  0  0  0  0  0  0
  140.9420   71.6680  218.9360 C   0  0  0  0  0  0  0  0  0  0  0  0
  140.5770   70.4100  219.6680 C   0  0  0  0  0  0  0  0  0  0  0  0
  140.4550   70.9210  221.1020 C   0  0  0  0  0  0  0  0  0  0  0  0
  138.4620   70.3070  223.9320 C   0  0  0  0  0  0  0  0  0  0  0  0
  138.3950   68.9260  224.0020 C   0  0  0  0  0  0  0  0  0  0  0  0
  139.0330   68.3150  225.0620 C   0  0  0  0  0  0  0  0  0  0  0  0
  139.7060   69.0570  226.0100 C   0  0  0  0  0  0  0  0  0  0  0  0
  140.3600   68.4920  227.0890 C   0  0  0  0  0  0  0  0  0  0  0  0
  141.0330   69.2430  228.0350 C   0  0  0  0  0  0  0  0  0  0  0  0
  141.6670   68.6360  229.0890 F   0  0  0  0  0  0  0  0  0  0  0  0
  141.0750   70.6260  227.9280 C   0  0  0  0  0  0  0  0  0  0  0  0
  140.4200   71.2110  226.8430 C   0  0  0  0  0  0  0  0  0  0  0  0
  139.7550   70.4420  225.9120 C   0  0  0  0  0  0  0  0  0  0  0  0
  139.1310   71.0370  224.8750 N   0  0  0  0  0  0  0  0  0  0  0  0
  138.4620   72.9010  223.4590 H   0  0  0  0  0  0  0  0  0  0  0  0
  136.3815   72.4838  221.3017 H   0  0  0  0  0  0  0  0  0  0  0  0
  136.9123   74.0683  221.9666 H   0  0  0  0  0  0  0  0  0  0  0  0
  139.7568   75.8062  219.1842 H   0  0  0  0  0  0  0  0  0  0  0  0
  138.0676   75.7740  219.4907 H   0  0  0  0  0  0  0  0  0  0  0  0
  139.5515   77.4197  221.0346 H   0  0  0  0  0  0  0  0  0  0  0  0
  138.4528   76.4148  221.9456 H   0  0  0  0  0  0  0  0  0  0  0  0
  141.4296   76.2141  221.6461 H   0  0  0  0  0  0  0  0  0  0  0  0
  140.4301   75.5132  222.9195 H   0  0  0  0  0  0  0  0  0  0  0  0
  141.2703   74.2069  220.2618 H   0  0  0  0  0  0  0  0  0  0  0  0
  142.0045   73.6776  222.2563 H   0  0  0  0  0  0  0  0  0  0  0  0
  140.2680   71.9790  223.2990 H   0  0  0  0  0  0  0  0  0  0  0  0
  142.3812   71.5716  221.8314 H   0  0  0  0  0  0  0  0  0  0  0  0
  141.9402   73.4125  219.6726 H   0  0  0  0  0  0  0  0  0  0  0  0
  142.9743   71.9807  219.5869 H   0  0  0  0  0  0  0  0  0  0  0  0
  140.0611   72.3141  218.8071 H   0  0  0  0  0  0  0  0  0  0  0  0
  141.3272   71.4708  217.9247 H   0  0  0  0  0  0  0  0  0  0  0  0
  139.6245   69.9957  219.3060 H   0  0  0  0  0  0  0  0  0  0  0  0
  141.3000   69.5905  219.5424 H   0  0  0  0  0  0  0  0  0  0  0  0
  139.4652   71.3702  221.2712 H   0  0  0  0  0  0  0  0  0  0  0  0
  140.5611   70.1144  221.8424 H   0  0  0  0  0  0  0  0  0  0  0  0
  137.8553   68.3398  223.2437 H   0  0  0  0  0  0  0  0  0  0  0  0
  139.0044   67.2191  225.1523 H   0  0  0  0  0  0  0  0  0  0  0  0
  140.3443   67.3977  227.1997 H   0  0  0  0  0  0  0  0  0  0  0  0
  141.6054   71.2392  228.6715 H   0  0  0  0  0  0  0  0  0  0  0  0
  140.4347   72.3050  226.7289 H   0  0  0  0  0  0  0  0  0  0  0  0
  1  2  2  0
  2  3  1  0
  3  4  1  0
  4  5  1  0
  5  6  2  0
  5  7  1  0
  7  8  1  0
  8  9  1  0
  9 10  1  0
 10 11  1  0
 11 12  1  0
 12 13  1  0
 12 14  1  0
 14 15  1  0
 15 16  1  0
 16 17  1  0
 17 18  1  0
  2 19  1  0
 19 20  2  0
 20 21  1  0
 21 22  2  0
 22 23  1  0
 23 24  2  0
 24 25  1  0
 24 26  1  0
 26 27  2  0
 27 28  1  0
 28 29  2  0
 11  7  1  0
 18 14  1  0
 29 19  1  0
 28 22  1  0
  3 30  1  0
  4 31  1  0
  4 32  1  0
  8 33  1  0
  8 34  1  0
  9 35  1  0
  9 36  1  0
 10 37  1  0
 10 38  1  0
 11 39  1  6
 12 40  1  1
 13 41  1  0
 14 42  1  0
 15 43  1  0
 15 44  1  0
 16 45  1  0
 16 46  1  0
 17 47  1  0
 17 48  1  0
 18 49  1  0
 18 50  1  0
 20 51  1  0
 21 52  1  0
 23 53  1  0
 26 54  1  0
 27 55  1  0
M  END
>  <smiles>  (25) 
O=C(NCC(=O)N1CCC[C@H]1[C@@H](O)C1CCCC1)c1ccc2cc(F)ccc2n1

>  <score_type>  (25) 
oracle

>  <origin>  (25) 
autodockgpu

>  <m_score__min__energy>  (25) 
-9.0600000000000005

>  <m_primary>  (25) 
energy

>  <rmsd>  (25) 
2.225451382156341

>  <m_score__min__rmsd>  (25) 
2.225451382156341

>  <meeko>  (25) 
{"free_energy": -5.42, "intermolecular_energy": -7.51, "internal_energy": -4.15, "cluster_size": 1, "cluster_id": 6, "rank_in_cluster": 1}

>  <energy>  (25) 
-8.25

>  <cluster_rmsd>  (25) 
1.36

>  <cluster>  (25) 
1

$$$$

     RDKit          3D

 55 58  0  0  0  0  0  0  0  0999 V2000
  137.9660   70.8980  221.9270 O   0  0  0  0  0  0  0  0  0  0  0  0
  138.7590   71.2700  222.8020 C   0  0  0  0  0  0  0  0  0  0  0  0
  139.3110   72.5660  222.7390 N   0  0  0  0  0  0  0  0  0  0  0  0
  138.9410   73.4290  221.6600 C   0  0  0  0  0  0  0  0  0  0  0  0
  139.6980   74.7400  221.7690 C   0  0  0  0  0  0  0  0  0  0  0  0
  140.9070   74.6010  222.0810 O   0  0  0  0  0  0  0  0  0  0  0  0
  139.0300   75.9440  221.5270 N   0  0  0  0  0  0  0  0  0  0  0  0
  137.5740   75.9760  221.1780 C   0  0  0  0  0  0  0  0  0  0  0  0
  137.1130   76.8930  222.3100 C   0  0  0  0  0  0  0  0  0  0  0  0
  138.1940   77.9490  222.3270 C   0  0  0  0  0  0  0  0  0  0  0  0
  139.3610   77.3350  221.5250 C   0  0  1  0  0  0  0  0  0  0  0  0
  140.6790   77.7780  222.0110 C   0  0  1  0  0  0  0  0  0  0  0  0
  141.7020   77.6700  221.1050 O   0  0  0  0  0  0  0  0  0  0  0  0
  140.7490   79.0490  222.7790 C   0  0  0  0  0  0  0  0  0  0  0  0
  141.2100   80.1550  221.8560 C   0  0  0  0  0  0  0  0  0  0  0  0
  142.5770   80.5250  222.3240 C   0  0  0  0  0  0  0  0  0  0  0  0
  142.5250   80.3160  223.8090 C   0  0  0  0  0  0  0  0  0  0  0  0
  141.7760   78.9880  223.9000 C   0  0  0  0  0  0  0  0  0  0  0  0
  139.1370   70.3760  223.9140 C   0  0  0  0  0  0  0  0  0  0  0  0
  138.8430   69.0260  223.8230 C   0  0  0  0  0  0  0  0  0  0  0  0
  139.2120   68.2260  224.8850 C   0  0  0  0  0  0  0  0  0  0  0  0
  139.8480   68.7570  225.9880 C   0  0  0  0  0  0  0  0  0  0  0  0
  140.2370   67.9980  227.0750 C   0  0  0  0  0  0  0  0  0  0  0  0
  140.8740   68.5370  228.1770 C   0  0  0  0  0  0  0  0  0  0  0  0
  141.2420   67.7430  229.2330 F   0  0  0  0  0  0  0  0  0  0  0  0
  141.1500   69.8970  228.2280 C   0  0  0  0  0  0  0  0  0  0  0  0
  140.7630   70.6770  227.1370 C   0  0  0  0  0  0  0  0  0  0  0  0
  140.1290   70.1160  226.0480 C   0  0  0  0  0  0  0  0  0  0  0  0
  139.7670   70.8970  225.0100 N   0  0  0  0  0  0  0  0  0  0  0  0
  139.9830   72.8400  223.5070 H   0  0  0  0  0  0  0  0  0  0  0  0
  139.1861   72.9440  220.7036 H   0  0  0  0  0  0  0  0  0  0  0  0
  137.8602   73.6281  221.7077 H   0  0  0  0  0  0  0  0  0  0  0  0
  137.3916   76.4132  220.1852 H   0  0  0  0  0  0  0  0  0  0  0  0
  137.0699   75.0009  221.1067 H   0  0  0  0  0  0  0  0  0  0  0  0
  136.1290   77.3332  222.0908 H   0  0  0  0  0  0  0  0  0  0  0  0
  136.9861   76.3760  223.2726 H   0  0  0  0  0  0  0  0  0  0  0  0
  137.8394   78.8736  221.8481 H   0  0  0  0  0  0  0  0  0  0  0  0
  138.4922   78.2202  223.3505 H   0  0  0  0  0  0  0  0  0  0  0  0
  139.4746   77.6706  220.4836 H   0  0  0  0  0  0  0  0  0  0  0  0
  140.8433   77.0080  222.7792 H   0  0  0  0  0  0  0  0  0  0  0  0
  142.4770   77.1480  221.3620 H   0  0  0  0  0  0  0  0  0  0  0  0
  139.7472   79.2249  223.1980 H   0  0  0  0  0  0  0  0  0  0  0  0
  141.2438   79.7980  220.8161 H   0  0  0  0  0  0  0  0  0  0  0  0
  140.5254   81.0157  221.8788 H   0  0  0  0  0  0  0  0  0  0  0  0
  143.3362   79.8749  221.8646 H   0  0  0  0  0  0  0  0  0  0  0  0
  142.8517   81.5549  222.0522 H   0  0  0  0  0  0  0  0  0  0  0  0
  143.5341   80.2392  224.2402 H   0  0  0  0  0  0  0  0  0  0  0  0
  142.0500   81.1392  224.3628 H   0  0  0  0  0  0  0  0  0  0  0  0
  142.4642   78.1430  223.7506 H   0  0  0  0  0  0  0  0  0  0  0  0
  141.3099   78.8386  224.8851 H   0  0  0  0  0  0  0  0  0  0  0  0
  138.3362   68.6085  222.9405 H   0  0  0  0  0  0  0  0  0  0  0  0
  138.9957   67.1480  224.8516 H   0  0  0  0  0  0  0  0  0  0  0  0
  140.0308   66.9176  227.0629 H   0  0  0  0  0  0  0  0  0  0  0  0
  141.6554   70.3436  229.0969 H   0  0  0  0  0  0  0  0  0  0  0  0
  140.9672   71.7578  227.1458 H   0  0  0  0  0  0  0  0  0  0  0  0
  1  2  2  0
  2  3  1  0
  3  4  1  0
  4  5  1  0
  5  6  2  0
  5  7  1  0
  7  8  1  0
  8  9  1  0
  9 10  1  0
 10 11  1  0
 11 12  1  0
 12 13  1  0
 12 14  1  0
 14 15  1  0
 15 16  1  0
 16 17  1  0
 17 18  1  0
  2 19  1  0
 19 20  2  0
 20 21  1  0
 21 22  2  0
 22 23  1  0
 23 24  2  0
 24 25  1  0
 24 26  1  0
 26 27  2  0
 27 28  1  0
 28 29  2  0
 11  7  1  0
 18 14  1  0
 29 19  1  0
 28 22  1  0
  3 30  1  0
  4 31  1  0
  4 32  1  0
  8 33  1  0
  8 34  1  0
  9 35  1  0
  9 36  1  0
 10 37  1  0
 10 38  1  0
 11 39  1  6
 12 40  1  1
 13 41  1  0
 14 42  1  0
 15 43  1  0
 15 44  1  0
 16 45  1  0
 16 46  1  0
 17 47  1  0
 17 48  1  0
 18 49  1  0
 18 50  1  0
 20 51  1  0
 21 52  1  0
 23 53  1  0
 26 54  1  0
 27 55  1  0
M  END
>  <smiles>  (26) 
O=C(NCC(=O)N1CCC[C@H]1[C@@H](O)C1CCCC1)c1ccc2cc(F)ccc2n1

>  <score_type>  (26) 
oracle

>  <origin>  (26) 
autodockgpu

>  <m_score__min__energy>  (26) 
-9.0600000000000005

>  <m_primary>  (26) 
energy

>  <rmsd>  (26) 
2.4815314827049026

>  <m_score__min__rmsd>  (26) 
2.4815314827049026

>  <meeko>  (26) 
{"free_energy": -8.65, "intermolecular_energy": -10.74, "internal_energy": -2.01, "cluster_size": 39, "cluster_id": 1, "rank_in_cluster": 7}

>  <energy>  (26) 
-8.24

>  <cluster_rmsd>  (26) 
1.71

>  <cluster>  (26) 
1

$$$$

     RDKit          3D

 55 58  0  0  0  0  0  0  0  0999 V2000
  138.1440   71.0220  221.7540 O   0  0  0  0  0  0  0  0  0  0  0  0
  138.8430   71.4080  222.7000 C   0  0  0  0  0  0  0  0  0  0  0  0
  139.3360   72.7280  222.7090 N   0  0  0  0  0  0  0  0  0  0  0  0
  139.0170   73.6000  221.6210 C   0  0  0  0  0  0  0  0  0  0  0  0
  139.9830   74.7700  221.6000 C   0  0  0  0  0  0  0  0  0  0  0  0
  141.0330   74.5710  222.2590 O   0  0  0  0  0  0  0  0  0  0  0  0
  139.6500   75.9260  220.8870 N   0  0  0  0  0  0  0  0  0  0  0  0
  138.9140   75.8590  219.5840 C   0  0  0  0  0  0  0  0  0  0  0  0
  137.7300   76.7430  219.9730 C   0  0  0  0  0  0  0  0  0  0  0  0
  138.4050   77.8700  220.7210 C   0  0  0  0  0  0  0  0  0  0  0  0
  139.8130   77.3370  221.0570 C   0  0  1  0  0  0  0  0  0  0  0  0
  140.3340   77.8690  222.3270 C   0  0  1  0  0  0  0  0  0  0  0  0
  141.3260   77.1240  222.9100 O   0  0  0  0  0  0  0  0  0  0  0  0
  140.6120   79.3270  222.4120 C   0  0  0  0  0  0  0  0  0  0  0  0
  141.9310   79.6150  221.7290 C   0  0  0  0  0  0  0  0  0  0  0  0
  142.8700   80.0070  222.8210 C   0  0  0  0  0  0  0  0  0  0  0  0
  141.9990   80.7140  223.8170 C   0  0  0  0  0  0  0  0  0  0  0  0
  140.7760   79.8000  223.8490 C   0  0  0  0  0  0  0  0  0  0  0  0
  139.1700   70.5060  223.8200 C   0  0  0  0  0  0  0  0  0  0  0  0
  138.8370   69.1650  223.7250 C   0  0  0  0  0  0  0  0  0  0  0  0
  139.1600   68.3570  224.7960 C   0  0  0  0  0  0  0  0  0  0  0  0
  139.7860   68.8710  225.9120 C   0  0  0  0  0  0  0  0  0  0  0  0
  140.1280   68.1020  227.0090 C   0  0  0  0  0  0  0  0  0  0  0  0
  140.7560   68.6250  228.1240 C   0  0  0  0  0  0  0  0  0  0  0  0
  141.0770   67.8220  229.1880 F   0  0  0  0  0  0  0  0  0  0  0  0
  141.0720   69.9760  228.1790 C   0  0  0  0  0  0  0  0  0  0  0  0
  140.7320   70.7640  227.0790 C   0  0  0  0  0  0  0  0  0  0  0  0
  140.1060   70.2210  225.9770 C   0  0  0  0  0  0  0  0  0  0  0  0
  139.7900   71.0100  224.9290 N   0  0  0  0  0  0  0  0  0  0  0  0
  139.9290   73.0140  223.5370 H   0  0  0  0  0  0  0  0  0  0  0  0
  139.0941   73.0457  220.6740 H   0  0  0  0  0  0  0  0  0  0  0  0
  137.9916   73.9777  221.7468 H   0  0  0  0  0  0  0  0  0  0  0  0
  139.4965   76.2825  218.7526 H   0  0  0  0  0  0  0  0  0  0  0  0
  138.6683   74.8520  219.2159 H   0  0  0  0  0  0  0  0  0  0  0  0
  137.2010   77.1153  219.0833 H   0  0  0  0  0  0  0  0  0  0  0  0
  136.9628   76.2193  220.5621 H   0  0  0  0  0  0  0  0  0  0  0  0
  138.4718   78.7681  220.0894 H   0  0  0  0  0  0  0  0  0  0  0  0
  137.8465   78.1610  221.6229 H   0  0  0  0  0  0  0  0  0  0  0  0
  140.6367   77.6791  220.4131 H   0  0  0  0  0  0  0  0  0  0  0  0
  139.4312   77.7461  222.9434 H   0  0  0  0  0  0  0  0  0  0  0  0
  141.8410   76.5360  222.3390 H   0  0  0  0  0  0  0  0  0  0  0  0
  139.7604   79.8423  221.9438 H   0  0  0  0  0  0  0  0  0  0  0  0
  142.2987   78.7177  221.2098 H   0  0  0  0  0  0  0  0  0  0  0  0
  141.8334   80.4068  220.9717 H   0  0  0  0  0  0  0  0  0  0  0  0
  143.3371   79.1189  223.2718 H   0  0  0  0  0  0  0  0  0  0  0  0
  143.6965   80.6372  222.4608 H   0  0  0  0  0  0  0  0  0  0  0  0
  142.4824   80.7741  224.8033 H   0  0  0  0  0  0  0  0  0  0  0  0
  141.7734   81.7585  223.5560 H   0  0  0  0  0  0  0  0  0  0  0  0
  140.9467   78.9465  224.5216 H   0  0  0  0  0  0  0  0  0  0  0  0
  139.8795   80.3161  224.2230 H   0  0  0  0  0  0  0  0  0  0  0  0
  138.3360   68.7609  222.8330 H   0  0  0  0  0  0  0  0  0  0  0  0
  138.9141   67.2855  224.7589 H   0  0  0  0  0  0  0  0  0  0  0  0
  139.8902   67.0281  226.9939 H   0  0  0  0  0  0  0  0  0  0  0  0
  141.5722   70.4092  229.0578 H   0  0  0  0  0  0  0  0  0  0  0  0
  140.9677   71.8384  227.0911 H   0  0  0  0  0  0  0  0  0  0  0  0
  1  2  2  0
  2  3  1  0
  3  4  1  0
  4  5  1  0
  5  6  2  0
  5  7  1  0
  7  8  1  0
  8  9  1  0
  9 10  1  0
 10 11  1  0
 11 12  1  0
 12 13  1  0
 12 14  1  0
 14 15  1  0
 15 16  1  0
 16 17  1  0
 17 18  1  0
  2 19  1  0
 19 20  2  0
 20 21  1  0
 21 22  2  0
 22 23  1  0
 23 24  2  0
 24 25  1  0
 24 26  1  0
 26 27  2  0
 27 28  1  0
 28 29  2  0
 11  7  1  0
 18 14  1  0
 29 19  1  0
 28 22  1  0
  3 30  1  0
  4 31  1  0
  4 32  1  0
  8 33  1  0
  8 34  1  0
  9 35  1  0
  9 36  1  0
 10 37  1  0
 10 38  1  0
 11 39  1  6
 12 40  1  1
 13 41  1  0
 14 42  1  0
 15 43  1  0
 15 44  1  0
 16 45  1  0
 16 46  1  0
 17 47  1  0
 17 48  1  0
 18 49  1  0
 18 50  1  0
 20 51  1  0
 21 52  1  0
 23 53  1  0
 26 54  1  0
 27 55  1  0
M  END
>  <smiles>  (27) 
O=C(NCC(=O)N1CCC[C@H]1[C@@H](O)C1CCCC1)c1ccc2cc(F)ccc2n1

>  <score_type>  (27) 
oracle

>  <origin>  (27) 
autodockgpu

>  <m_score__min__energy>  (27) 
-9.0600000000000005

>  <m_primary>  (27) 
energy

>  <rmsd>  (27) 
1.6899838659082538

>  <m_score__min__rmsd>  (27) 
1.6899838659082538

>  <meeko>  (27) 
{"free_energy": -8.13, "intermolecular_energy": -10.22, "internal_energy": -2.77, "cluster_size": 39, "cluster_id": 1, "rank_in_cluster": 33}

>  <energy>  (27) 
-8.22

>  <cluster_rmsd>  (27) 
1.69

>  <cluster>  (27) 
1

$$$$

     RDKit          3D

 55 58  0  0  0  0  0  0  0  0999 V2000
  140.7690   71.9600  221.1980 O   0  0  0  0  0  0  0  0  0  0  0  0
  140.1180   72.2780  222.2010 C   0  0  0  0  0  0  0  0  0  0  0  0
  139.4050   73.4940  222.2140 N   0  0  0  0  0  0  0  0  0  0  0  0
  139.4480   74.3400  221.0610 C   0  0  0  0  0  0  0  0  0  0  0  0
  139.9070   75.7290  221.4600 C   0  0  0  0  0  0  0  0  0  0  0  0
  139.0980   76.3340  222.2060 O   0  0  0  0  0  0  0  0  0  0  0  0
  141.1340   76.2100  220.9940 N   0  0  0  0  0  0  0  0  0  0  0  0
  142.1450   75.3010  220.3640 C   0  0  0  0  0  0  0  0  0  0  0  0
  142.2780   76.0350  219.0310 C   0  0  0  0  0  0  0  0  0  0  0  0
  142.3200   77.4820  219.4650 C   0  0  0  0  0  0  0  0  0  0  0  0
  141.7950   77.4770  220.9160 C   0  0  1  0  0  0  0  0  0  0  0  0
  141.0640   78.7080  221.2610 C   0  0  1  0  0  0  0  0  0  0  0  0
  139.7910   78.7930  220.7600 O   0  0  0  0  0  0  0  0  0  0  0  0
  141.1440   79.1970  222.6620 C   0  0  0  0  0  0  0  0  0  0  0  0
  140.4930   80.5600  222.7450 C   0  0  0  0  0  0  0  0  0  0  0  0
  141.6050   81.5190  223.0070 C   0  0  0  0  0  0  0  0  0  0  0  0
  142.5730   80.7380  223.8460 C   0  0  0  0  0  0  0  0  0  0  0  0
  142.5810   79.3930  223.1240 C   0  0  0  0  0  0  0  0  0  0  0  0
  140.0770   71.4030  223.3880 C   0  0  0  0  0  0  0  0  0  0  0  0
  139.5420   70.1310  223.2690 C   0  0  0  0  0  0  0  0  0  0  0  0
  139.5220   69.3460  224.4040 C   0  0  0  0  0  0  0  0  0  0  0  0
  140.0150   69.8160  225.6030 C   0  0  0  0  0  0  0  0  0  0  0  0
  140.0160   69.0690  226.7660 C   0  0  0  0  0  0  0  0  0  0  0  0
  140.5130   69.5470  227.9640 C   0  0  0  0  0  0  0  0  0  0  0  0
  140.4930   68.7670  229.0920 F   0  0  0  0  0  0  0  0  0  0  0  0
  141.0410   70.8290  228.0400 C   0  0  0  0  0  0  0  0  0  0  0  0
  141.0460   71.5950  226.8730 C   0  0  0  0  0  0  0  0  0  0  0  0
  140.5450   71.0970  225.6890 C   0  0  0  0  0  0  0  0  0  0  0  0
  140.5640   71.8630  224.5790 N   0  0  0  0  0  0  0  0  0  0  0  0
  138.8630   73.7240  223.0920 H   0  0  0  0  0  0  0  0  0  0  0  0
  140.1506   73.9203  220.3261 H   0  0  0  0  0  0  0  0  0  0  0  0
  138.4427   74.4027  220.6188 H   0  0  0  0  0  0  0  0  0  0  0  0
  143.0915   75.2768  220.9240 H   0  0  0  0  0  0  0  0  0  0  0  0
  141.8724   74.2368  220.3072 H   0  0  0  0  0  0  0  0  0  0  0  0
  143.2027   75.7485  218.5086 H   0  0  0  0  0  0  0  0  0  0  0  0
  141.4682   75.8107  218.3211 H   0  0  0  0  0  0  0  0  0  0  0  0
  143.3495   77.8676  219.4273 H   0  0  0  0  0  0  0  0  0  0  0  0
  141.7183   78.1285  218.8093 H   0  0  0  0  0  0  0  0  0  0  0  0
  142.5510   77.5334  221.7131 H   0  0  0  0  0  0  0  0  0  0  0  0
  141.6787   79.4304  220.7040 H   0  0  0  0  0  0  0  0  0  0  0  0
  139.1510   78.1240  221.0450 H   0  0  0  0  0  0  0  0  0  0  0  0
  140.6489   78.4426  223.2911 H   0  0  0  0  0  0  0  0  0  0  0  0
  139.9904   80.8041  221.7974 H   0  0  0  0  0  0  0  0  0  0  0  0
  139.7273   80.5985  223.5338 H   0  0  0  0  0  0  0  0  0  0  0  0
  142.0745   81.8390  222.0651 H   0  0  0  0  0  0  0  0  0  0  0  0
  141.2612   82.4377  223.5047 H   0  0  0  0  0  0  0  0  0  0  0  0
  143.5708   81.2010  223.8451 H   0  0  0  0  0  0  0  0  0  0  0  0
  142.2980   80.6758  224.9093 H   0  0  0  0  0  0  0  0  0  0  0  0
  143.2656   79.4182  222.2634 H   0  0  0  0  0  0  0  0  0  0  0  0
  142.9265   78.5738  223.7717 H   0  0  0  0  0  0  0  0  0  0  0  0
  139.1495   69.7619  222.3100 H   0  0  0  0  0  0  0  0  0  0  0  0
  139.1061   68.3290  224.3513 H   0  0  0  0  0  0  0  0  0  0  0  0
  139.6033   68.0498  226.7369 H   0  0  0  0  0  0  0  0  0  0  0  0
  141.4405   71.2263  228.9848 H   0  0  0  0  0  0  0  0  0  0  0  0
  141.4573   72.6149  226.8985 H   0  0  0  0  0  0  0  0  0  0  0  0
  1  2  2  0
  2  3  1  0
  3  4  1  0
  4  5  1  0
  5  6  2  0
  5  7  1  0
  7  8  1  0
  8  9  1  0
  9 10  1  0
 10 11  1  0
 11 12  1  0
 12 13  1  0
 12 14  1  0
 14 15  1  0
 15 16  1  0
 16 17  1  0
 17 18  1  0
  2 19  1  0
 19 20  2  0
 20 21  1  0
 21 22  2  0
 22 23  1  0
 23 24  2  0
 24 25  1  0
 24 26  1  0
 26 27  2  0
 27 28  1  0
 28 29  2  0
 11  7  1  0
 18 14  1  0
 29 19  1  0
 28 22  1  0
  3 30  1  0
  4 31  1  0
  4 32  1  0
  8 33  1  0
  8 34  1  0
  9 35  1  0
  9 36  1  0
 10 37  1  0
 10 38  1  0
 11 39  1  1
 12 40  1  6
 13 41  1  0
 14 42  1  0
 15 43  1  0
 15 44  1  0
 16 45  1  0
 16 46  1  0
 17 47  1  0
 17 48  1  0
 18 49  1  0
 18 50  1  0
 20 51  1  0
 21 52  1  0
 23 53  1  0
 26 54  1  0
 27 55  1  0
M  END
>  <smiles>  (28) 
O=C(NCC(=O)N1CCC[C@H]1[C@@H](O)C1CCCC1)c1ccc2cc(F)ccc2n1

>  <score_type>  (28) 
oracle

>  <origin>  (28) 
autodockgpu

>  <m_score__min__energy>  (28) 
-9.0600000000000005

>  <m_primary>  (28) 
energy

>  <rmsd>  (28) 
1.8708146906426515

>  <m_score__min__rmsd>  (28) 
1.8708146906426515

>  <meeko>  (28) 
{"free_energy": -8.3, "intermolecular_energy": -10.38, "internal_energy": -2.33, "cluster_size": 39, "cluster_id": 1, "rank_in_cluster": 21}

>  <energy>  (28) 
-8.22

>  <cluster_rmsd>  (28) 
1.71

>  <cluster>  (28) 
1

$$$$

     RDKit          3D

 55 58  0  0  0  0  0  0  0  0999 V2000
  140.4720   71.4050  221.1450 O   0  0  0  0  0  0  0  0  0  0  0  0
  140.1150   71.8890  222.2260 C   0  0  0  0  0  0  0  0  0  0  0  0
  139.8490   73.2700  222.3190 N   0  0  0  0  0  0  0  0  0  0  0  0
  139.9970   74.0890  221.1550 C   0  0  0  0  0  0  0  0  0  0  0  0
  140.4560   75.4780  221.5600 C   0  0  0  0  0  0  0  0  0  0  0  0
  140.1000   75.8100  222.7170 O   0  0  0  0  0  0  0  0  0  0  0  0
  141.2020   76.2460  220.6610 N   0  0  0  0  0  0  0  0  0  0  0  0
  141.5970   75.7170  219.3170 C   0  0  0  0  0  0  0  0  0  0  0  0
  140.9660   76.8200  218.4690 C   0  0  0  0  0  0  0  0  0  0  0  0
  141.3370   78.0670  219.2390 C   0  0  0  0  0  0  0  0  0  0  0  0
  141.7630   77.5620  220.6320 C   0  0  1  0  0  0  0  0  0  0  0  0
  141.4450   78.5190  221.7060 C   0  0  1  0  0  0  0  0  0  0  0  0
  141.4500   77.9990  222.9740 O   0  0  0  0  0  0  0  0  0  0  0  0
  142.0810   79.8610  221.6530 C   0  0  0  0  0  0  0  0  0  0  0  0
  142.8190   80.1060  222.9520 C   0  0  0  0  0  0  0  0  0  0  0  0
  142.0570   81.1830  223.6480 C   0  0  0  0  0  0  0  0  0  0  0  0
  141.5300   82.0390  222.5340 C   0  0  0  0  0  0  0  0  0  0  0  0
  141.0560   80.9810  221.5400 C   0  0  0  0  0  0  0  0  0  0  0  0
  139.9630   71.0410  223.4240 C   0  0  0  0  0  0  0  0  0  0  0  0
  139.3340   69.8130  223.3050 C   0  0  0  0  0  0  0  0  0  0  0  0
  139.2120   69.0520  224.4500 C   0  0  0  0  0  0  0  0  0  0  0  0
  139.6980   69.5040  225.6590 C   0  0  0  0  0  0  0  0  0  0  0  0
  139.5990   68.7800  226.8320 C   0  0  0  0  0  0  0  0  0  0  0  0
  140.0890   69.2390  228.0410 C   0  0  0  0  0  0  0  0  0  0  0  0
  139.9680   68.4840  229.1790 F   0  0  0  0  0  0  0  0  0  0  0  0
  140.7120   70.4770  228.1160 C   0  0  0  0  0  0  0  0  0  0  0  0
  140.8190   71.2200  226.9400 C   0  0  0  0  0  0  0  0  0  0  0  0
  140.3240   70.7410  225.7450 C   0  0  0  0  0  0  0  0  0  0  0  0
  140.4420   71.4840  224.6250 N   0  0  0  0  0  0  0  0  0  0  0  0
  139.5460   73.6390  223.2620 H   0  0  0  0  0  0  0  0  0  0  0  0
  140.7433   73.6388  220.4839 H   0  0  0  0  0  0  0  0  0  0  0  0
  139.0296   74.1624  220.6366 H   0  0  0  0  0  0  0  0  0  0  0  0
  142.6887   75.6668  219.1921 H   0  0  0  0  0  0  0  0  0  0  0  0
  141.2816   74.6883  219.0883 H   0  0  0  0  0  0  0  0  0  0  0  0
  141.3917   76.8361  217.4548 H   0  0  0  0  0  0  0  0  0  0  0  0
  139.8828   76.6982  218.3214 H   0  0  0  0  0  0  0  0  0  0  0  0
  142.1688   78.5924  218.7469 H   0  0  0  0  0  0  0  0  0  0  0  0
  140.5030   78.7820  219.2953 H   0  0  0  0  0  0  0  0  0  0  0  0
  142.8444   77.4918  220.8207 H   0  0  0  0  0  0  0  0  0  0  0  0
  140.3959   78.7230  221.4458 H   0  0  0  0  0  0  0  0  0  0  0  0
  141.7850   77.0970  223.0880 H   0  0  0  0  0  0  0  0  0  0  0  0
  142.7404   79.8670  220.7726 H   0  0  0  0  0  0  0  0  0  0  0  0
  142.8359   79.1912  223.5627 H   0  0  0  0  0  0  0  0  0  0  0  0
  143.8659   80.3951  222.7776 H   0  0  0  0  0  0  0  0  0  0  0  0
  141.2314   80.7582  224.2378 H   0  0  0  0  0  0  0  0  0  0  0  0
  142.6793   81.7493  224.3566 H   0  0  0  0  0  0  0  0  0  0  0  0
  140.6982   82.6738  222.8733 H   0  0  0  0  0  0  0  0  0  0  0  0
  142.2662   82.7452  222.1224 H   0  0  0  0  0  0  0  0  0  0  0  0
  140.0529   80.6179  221.8083 H   0  0  0  0  0  0  0  0  0  0  0  0
  140.9802   81.3752  220.5158 H   0  0  0  0  0  0  0  0  0  0  0  0
  138.9476   69.4587  222.3379 H   0  0  0  0  0  0  0  0  0  0  0  0
  138.7195   68.0698  224.3975 H   0  0  0  0  0  0  0  0  0  0  0  0
  139.1090   67.7956  226.8027 H   0  0  0  0  0  0  0  0  0  0  0  0
  141.1074   70.8588  229.0688 H   0  0  0  0  0  0  0  0  0  0  0  0
  141.3069   72.2055  226.9663 H   0  0  0  0  0  0  0  0  0  0  0  0
  1  2  2  0
  2  3  1  0
  3  4  1  0
  4  5  1  0
  5  6  2  0
  5  7  1  0
  7  8  1  0
  8  9  1  0
  9 10  1  0
 10 11  1  0
 11 12  1  0
 12 13  1  0
 12 14  1  0
 14 15  1  0
 15 16  1  0
 16 17  1  0
 17 18  1  0
  2 19  1  0
 19 20  2  0
 20 21  1  0
 21 22  2  0
 22 23  1  0
 23 24  2  0
 24 25  1  0
 24 26  1  0
 26 27  2  0
 27 28  1  0
 28 29  2  0
 11  7  1  0
 18 14  1  0
 29 19  1  0
 28 22  1  0
  3 30  1  0
  4 31  1  0
  4 32  1  0
  8 33  1  0
  8 34  1  0
  9 35  1  0
  9 36  1  0
 10 37  1  0
 10 38  1  0
 11 39  1  6
 12 40  1  6
 13 41  1  0
 14 42  1  0
 15 43  1  0
 15 44  1  0
 16 45  1  0
 16 46  1  0
 17 47  1  0
 17 48  1  0
 18 49  1  0
 18 50  1  0
 20 51  1  0
 21 52  1  0
 23 53  1  0
 26 54  1  0
 27 55  1  0
M  END
>  <smiles>  (29) 
O=C(NCC(=O)N1CCC[C@H]1[C@@H](O)C1CCCC1)c1ccc2cc(F)ccc2n1

>  <score_type>  (29) 
oracle

>  <origin>  (29) 
autodockgpu

>  <m_score__min__energy>  (29) 
-9.0600000000000005

>  <m_primary>  (29) 
energy

>  <rmsd>  (29) 
1.524271605264302

>  <m_score__min__rmsd>  (29) 
1.524271605264302

>  <meeko>  (29) 
{"free_energy": -8.48, "intermolecular_energy": -10.57, "internal_energy": -2.52, "cluster_size": 39, "cluster_id": 1, "rank_in_cluster": 15}

>  <energy>  (29) 
-8.2

>  <cluster_rmsd>  (29) 
1.71

>  <cluster>  (29) 
1

$$$$

     RDKit          3D

 55 58  0  0  0  0  0  0  0  0999 V2000
  141.2470   71.8320  221.3920 O   0  0  0  0  0  0  0  0  0  0  0  0
  140.5870   72.2880  222.3350 C   0  0  0  0  0  0  0  0  0  0  0  0
  140.1340   73.6210  222.2900 N   0  0  0  0  0  0  0  0  0  0  0  0
  140.4450   74.4260  221.1490 C   0  0  0  0  0  0  0  0  0  0  0  0
  140.6610   75.8650  221.5790 C   0  0  0  0  0  0  0  0  0  0  0  0
  140.1340   76.1460  222.6830 O   0  0  0  0  0  0  0  0  0  0  0  0
  141.3930   76.7270  220.7570 N   0  0  0  0  0  0  0  0  0  0  0  0
  142.4920   76.2240  219.8730 C   0  0  0  0  0  0  0  0  0  0  0  0
  141.9420   76.7460  218.5460 C   0  0  0  0  0  0  0  0  0  0  0  0
  141.4700   78.1320  218.9190 C   0  0  0  0  0  0  0  0  0  0  0  0
  141.3980   78.1270  220.4600 C   0  0  1  0  0  0  0  0  0  0  0  0
  140.3280   78.9930  220.9830 C   0  0  1  0  0  0  0  0  0  0  0  0
  139.1040   78.3910  221.1220 O   0  0  0  0  0  0  0  0  0  0  0  0
  140.6470   79.8770  222.1350 C   0  0  0  0  0  0  0  0  0  0  0  0
  141.8870   80.6800  221.8090 C   0  0  0  0  0  0  0  0  0  0  0  0
  142.9510   80.1600  222.7160 C   0  0  0  0  0  0  0  0  0  0  0  0
  142.2140   79.7820  223.9670 C   0  0  0  0  0  0  0  0  0  0  0  0
  140.9820   79.0870  223.3920 C   0  0  0  0  0  0  0  0  0  0  0  0
  140.2680   71.4540  223.5100 C   0  0  0  0  0  0  0  0  0  0  0  0
  139.5400   70.2890  223.3330 C   0  0  0  0  0  0  0  0  0  0  0  0
  139.2630   69.5410  224.4580 C   0  0  0  0  0  0  0  0  0  0  0  0
  139.6950   69.9420  225.7040 C   0  0  0  0  0  0  0  0  0  0  0  0
  139.4420   69.2280  226.8600 C   0  0  0  0  0  0  0  0  0  0  0  0
  139.8800   69.6370  228.1060 C   0  0  0  0  0  0  0  0  0  0  0  0
  139.6040   68.8930  229.2240 F   0  0  0  0  0  0  0  0  0  0  0  0
  140.6070   70.8120  228.2400 C   0  0  0  0  0  0  0  0  0  0  0  0
  140.8700   71.5440  227.0810 C   0  0  0  0  0  0  0  0  0  0  0  0
  140.4240   71.1160  225.8490 C   0  0  0  0  0  0  0  0  0  0  0  0
  140.6940   71.8470  224.7480 N   0  0  0  0  0  0  0  0  0  0  0  0
  139.5740   73.9670  223.1170 H   0  0  0  0  0  0  0  0  0  0  0  0
  141.3607   74.0459  220.6725 H   0  0  0  0  0  0  0  0  0  0  0  0
  139.6097   74.3818  220.4346 H   0  0  0  0  0  0  0  0  0  0  0  0
  143.4668   76.6672  220.1247 H   0  0  0  0  0  0  0  0  0  0  0  0
  142.6994   75.1448  219.9220 H   0  0  0  0  0  0  0  0  0  0  0  0
  142.7273   76.7857  217.7768 H   0  0  0  0  0  0  0  0  0  0  0  0
  141.1531   76.1120  218.1151 H   0  0  0  0  0  0  0  0  0  0  0  0
  142.1841   78.8914  218.5676 H   0  0  0  0  0  0  0  0  0  0  0  0
  140.5004   78.3760  218.4605 H   0  0  0  0  0  0  0  0  0  0  0  0
  142.2348   78.6007  220.9941 H   0  0  0  0  0  0  0  0  0  0  0  0
  140.2495   79.6938  220.1388 H   0  0  0  0  0  0  0  0  0  0  0  0
  139.0460   77.6220  221.7070 H   0  0  0  0  0  0  0  0  0  0  0  0
  139.7602   80.5034  222.3117 H   0  0  0  0  0  0  0  0  0  0  0  0
  142.1737   80.5338  220.7572 H   0  0  0  0  0  0  0  0  0  0  0  0
  141.7226   81.7584  221.9504 H   0  0  0  0  0  0  0  0  0  0  0  0
  143.4460   79.2826  222.2743 H   0  0  0  0  0  0  0  0  0  0  0  0
  143.7454   80.8980  222.9011 H   0  0  0  0  0  0  0  0  0  0  0  0
  142.8068   79.0981  224.5922 H   0  0  0  0  0  0  0  0  0  0  0  0
  141.9843   80.6309  224.6277 H   0  0  0  0  0  0  0  0  0  0  0  0
  141.2076   78.0394  223.1436 H   0  0  0  0  0  0  0  0  0  0  0  0
  140.1451   79.0639  224.1055 H   0  0  0  0  0  0  0  0  0  0  0  0
  139.1970   69.9736  222.3366 H   0  0  0  0  0  0  0  0  0  0  0  0
  138.6876   68.6087  224.3593 H   0  0  0  0  0  0  0  0  0  0  0  0
  138.8669   68.2933  226.7855 H   0  0  0  0  0  0  0  0  0  0  0  0
  140.9627   71.1536  229.2233 H   0  0  0  0  0  0  0  0  0  0  0  0
  141.4438   72.4798  227.1521 H   0  0  0  0  0  0  0  0  0  0  0  0
  1  2  2  0
  2  3  1  0
  3  4  1  0
  4  5  1  0
  5  6  2  0
  5  7  1  0
  7  8  1  0
  8  9  1  0
  9 10  1  0
 10 11  1  0
 11 12  1  0
 12 13  1  0
 12 14  1  0
 14 15  1  0
 15 16  1  0
 16 17  1  0
 17 18  1  0
  2 19  1  0
 19 20  2  0
 20 21  1  0
 21 22  2  0
 22 23  1  0
 23 24  2  0
 24 25  1  0
 24 26  1  0
 26 27  2  0
 27 28  1  0
 28 29  2  0
 11  7  1  0
 18 14  1  0
 29 19  1  0
 28 22  1  0
  3 30  1  0
  4 31  1  0
  4 32  1  0
  8 33  1  0
  8 34  1  0
  9 35  1  0
  9 36  1  0
 10 37  1  0
 10 38  1  0
 11 39  1  1
 12 40  1  6
 13 41  1  0
 14 42  1  0
 15 43  1  0
 15 44  1  0
 16 45  1  0
 16 46  1  0
 17 47  1  0
 17 48  1  0
 18 49  1  0
 18 50  1  0
 20 51  1  0
 21 52  1  0
 23 53  1  0
 26 54  1  0
 27 55  1  0
M  END
>  <smiles>  (30) 
O=C(NCC(=O)N1CCC[C@H]1[C@@H](O)C1CCCC1)c1ccc2cc(F)ccc2n1

>  <score_type>  (30) 
oracle

>  <origin>  (30) 
autodockgpu

>  <m_score__min__energy>  (30) 
-9.0600000000000005

>  <m_primary>  (30) 
energy

>  <rmsd>  (30) 
2.0670120035768806

>  <m_score__min__rmsd>  (30) 
2.0670120035768806

>  <meeko>  (30) 
{"free_energy": -8.1, "intermolecular_energy": -10.19, "internal_energy": -2.8, "cluster_size": 39, "cluster_id": 1, "rank_in_cluster": 34}

>  <energy>  (30) 
-8.2

>  <cluster_rmsd>  (30) 
1.75

>  <cluster>  (30) 
1

$$$$

     RDKit          3D

 55 58  0  0  0  0  0  0  0  0999 V2000
  135.0780   68.5100  224.8500 O   0  0  0  0  0  0  0  0  0  0  0  0
  135.5350   69.6080  224.5060 C   0  0  0  0  0  0  0  0  0  0  0  0
  136.6100   69.6650  223.5970 N   0  0  0  0  0  0  0  0  0  0  0  0
  137.1550   68.4450  223.0860 C   0  0  0  0  0  0  0  0  0  0  0  0
  138.6680   68.4690  223.2060 C   0  0  0  0  0  0  0  0  0  0  0  0
  139.1420   67.4800  223.8160 O   0  0  0  0  0  0  0  0  0  0  0  0
  139.3860   69.5360  222.6570 N   0  0  0  0  0  0  0  0  0  0  0  0
  139.7300   69.5820  221.2000 C   0  0  0  0  0  0  0  0  0  0  0  0
  139.0760   70.9240  220.8780 C   0  0  0  0  0  0  0  0  0  0  0  0
  139.4810   71.7710  222.0620 C   0  0  0  0  0  0  0  0  0  0  0  0
  139.9530   70.7620  223.1290 C   0  0  1  0  0  0  0  0  0  0  0  0
  139.6790   71.2160  224.5030 C   0  0  1  0  0  0  0  0  0  0  0  0
  138.3660   71.1510  224.8900 O   0  0  0  0  0  0  0  0  0  0  0  0
  140.5990   70.7690  225.5810 C   0  0  0  0  0  0  0  0  0  0  0  0
  140.0150   69.5430  226.2480 C   0  0  0  0  0  0  0  0  0  0  0  0
  139.6240   69.9790  227.6200 C   0  0  0  0  0  0  0  0  0  0  0  0
  140.6490   71.0130  227.9810 C   0  0  0  0  0  0  0  0  0  0  0  0
  140.7450   71.8100  226.6820 C   0  0  0  0  0  0  0  0  0  0  0  0
  134.9690   70.8640  225.0360 C   0  0  0  0  0  0  0  0  0  0  0  0
  133.9610   70.8020  225.9840 C   0  0  0  0  0  0  0  0  0  0  0  0
  133.4600   71.9990  226.4520 C   0  0  0  0  0  0  0  0  0  0  0  0
  133.9470   73.2040  225.9900 C   0  0  0  0  0  0  0  0  0  0  0  0
  133.4780   74.4280  226.4270 C   0  0  0  0  0  0  0  0  0  0  0  0
  133.9720   75.6320  225.9590 C   0  0  0  0  0  0  0  0  0  0  0  0
  133.4740   76.8220  226.4240 F   0  0  0  0  0  0  0  0  0  0  0  0
  134.9830   75.6490  225.0080 C   0  0  0  0  0  0  0  0  0  0  0  0
  135.4670   74.4200  224.5570 C   0  0  0  0  0  0  0  0  0  0  0  0
  134.9590   73.2320  225.0380 C   0  0  0  0  0  0  0  0  0  0  0  0
  135.4480   72.0610  224.5820 N   0  0  0  0  0  0  0  0  0  0  0  0
  136.9670   70.6240  223.3330 H   0  0  0  0  0  0  0  0  0  0  0  0
  136.7562   67.5971  223.6622 H   0  0  0  0  0  0  0  0  0  0  0  0
  136.8758   68.3372  222.0275 H   0  0  0  0  0  0  0  0  0  0  0  0
  140.8163   69.5943  221.0272 H   0  0  0  0  0  0  0  0  0  0  0  0
  139.4007   68.7238  220.5958 H   0  0  0  0  0  0  0  0  0  0  0  0
  139.4651   71.3415  219.9377 H   0  0  0  0  0  0  0  0  0  0  0  0
  137.9874   70.8604  220.7334 H   0  0  0  0  0  0  0  0  0  0  0  0
  140.2980   72.4545  221.7875 H   0  0  0  0  0  0  0  0  0  0  0  0
  138.6539   72.3996  222.4237 H   0  0  0  0  0  0  0  0  0  0  0  0
  141.0400   70.6328  223.2375 H   0  0  0  0  0  0  0  0  0  0  0  0
  139.9271   72.2808  224.3816 H   0  0  0  0  0  0  0  0  0  0  0  0
  137.7800   71.8720  224.6160 H   0  0  0  0  0  0  0  0  0  0  0  0
  141.5752   70.5818  225.1099 H   0  0  0  0  0  0  0  0  0  0  0  0
  139.1346   69.1869  225.6930 H   0  0  0  0  0  0  0  0  0  0  0  0
  140.7361   68.7128  226.2754 H   0  0  0  0  0  0  0  0  0  0  0  0
  138.6138   70.4144  227.6184 H   0  0  0  0  0  0  0  0  0  0  0  0
  139.5955   69.1446  228.3362 H   0  0  0  0  0  0  0  0  0  0  0  0
  140.3077   71.6434  228.8153 H   0  0  0  0  0  0  0  0  0  0  0  0
  141.6072   70.5953  228.3237 H   0  0  0  0  0  0  0  0  0  0  0  0
  139.9371   72.5542  226.6224 H   0  0  0  0  0  0  0  0  0  0  0  0
  141.6890   72.3694  226.6046 H   0  0  0  0  0  0  0  0  0  0  0  0
  133.5760   69.8382  226.3485 H   0  0  0  0  0  0  0  0  0  0  0  0
  132.6590   71.9925  227.2059 H   0  0  0  0  0  0  0  0  0  0  0  0
  132.6765   74.4456  227.1802 H   0  0  0  0  0  0  0  0  0  0  0  0
  135.3881   76.5968  224.6237 H   0  0  0  0  0  0  0  0  0  0  0  0
  136.2685   74.3989  223.8039 H   0  0  0  0  0  0  0  0  0  0  0  0
  1  2  2  0
  2  3  1  0
  3  4  1  0
  4  5  1  0
  5  6  2  0
  5  7  1  0
  7  8  1  0
  8  9  1  0
  9 10  1  0
 10 11  1  0
 11 12  1  0
 12 13  1  0
 12 14  1  0
 14 15  1  0
 15 16  1  0
 16 17  1  0
 17 18  1  0
  2 19  1  0
 19 20  2  0
 20 21  1  0
 21 22  2  0
 22 23  1  0
 23 24  2  0
 24 25  1  0
 24 26  1  0
 26 27  2  0
 27 28  1  0
 28 29  2  0
 11  7  1  0
 18 14  1  0
 29 19  1  0
 28 22  1  0
  3 30  1  0
  4 31  1  0
  4 32  1  0
  8 33  1  0
  8 34  1  0
  9 35  1  0
  9 36  1  0
 10 37  1  0
 10 38  1  0
 11 39  1  1
 12 40  1  6
 13 41  1  0
 14 42  1  0
 15 43  1  0
 15 44  1  0
 16 45  1  0
 16 46  1  0
 17 47  1  0
 17 48  1  0
 18 49  1  0
 18 50  1  0
 20 51  1  0
 21 52  1  0
 23 53  1  0
 26 54  1  0
 27 55  1  0
M  END
>  <smiles>  (31) 
O=C(NCC(=O)N1CCC[C@H]1[C@@H](O)C1CCCC1)c1ccc2cc(F)ccc2n1

>  <score_type>  (31) 
oracle

>  <origin>  (31) 
autodockgpu

>  <m_score__min__energy>  (31) 
-9.0600000000000005

>  <m_primary>  (31) 
energy

>  <rmsd>  (31) 
6.848689704922859

>  <m_score__min__rmsd>  (31) 
6.848689704922859

>  <meeko>  (31) 
{"free_energy": -6.66, "intermolecular_energy": -8.75, "internal_energy": -3.59, "cluster_size": 2, "cluster_id": 4, "rank_in_cluster": 2}

>  <energy>  (31) 
-8.19

>  <cluster_rmsd>  (31) 
1.61

>  <cluster>  (31) 
1

$$$$

     RDKit          3D

 55 58  0  0  0  0  0  0  0  0999 V2000
  137.9160   70.8650  221.9660 O   0  0  0  0  0  0  0  0  0  0  0  0
  138.7030   71.2520  222.8400 C   0  0  0  0  0  0  0  0  0  0  0  0
  139.2320   72.5570  222.7750 N   0  0  0  0  0  0  0  0  0  0  0  0
  138.8460   73.4120  221.6950 C   0  0  0  0  0  0  0  0  0  0  0  0
  139.5860   74.7330  221.7970 C   0  0  0  0  0  0  0  0  0  0  0  0
  140.8210   74.6070  221.9850 O   0  0  0  0  0  0  0  0  0  0  0  0
  138.8770   75.9320  221.6810 N   0  0  0  0  0  0  0  0  0  0  0  0
  137.3990   75.9480  221.4370 C   0  0  0  0  0  0  0  0  0  0  0  0
  136.9990   76.7790  222.6550 C   0  0  0  0  0  0  0  0  0  0  0  0
  138.0560   77.8600  222.6660 C   0  0  0  0  0  0  0  0  0  0  0  0
  139.1760   77.3290  221.7470 C   0  0  1  0  0  0  0  0  0  0  0  0
  140.5150   77.7750  222.1670 C   0  0  1  0  0  0  0  0  0  0  0  0
  141.5560   77.2780  221.4260 O   0  0  0  0  0  0  0  0  0  0  0  0
  140.7020   79.2130  222.4910 C   0  0  0  0  0  0  0  0  0  0  0  0
  141.8280   79.7650  221.6460 C   0  0  0  0  0  0  0  0  0  0  0  0
  142.9420   80.0490  222.5980 C   0  0  0  0  0  0  0  0  0  0  0  0
  142.2470   80.4600  223.8630 C   0  0  0  0  0  0  0  0  0  0  0  0
  141.1240   79.4280  223.9380 C   0  0  0  0  0  0  0  0  0  0  0  0
  139.0980   70.3660  223.9520 C   0  0  0  0  0  0  0  0  0  0  0  0
  138.8300   69.0100  223.8620 C   0  0  0  0  0  0  0  0  0  0  0  0
  139.2150   68.2190  224.9240 C   0  0  0  0  0  0  0  0  0  0  0  0
  139.8400   68.7620  226.0270 C   0  0  0  0  0  0  0  0  0  0  0  0
  140.2440   68.0110  227.1150 C   0  0  0  0  0  0  0  0  0  0  0  0
  140.8690   68.5630  228.2170 C   0  0  0  0  0  0  0  0  0  0  0  0
  141.2520   67.7770  229.2730 F   0  0  0  0  0  0  0  0  0  0  0  0
  141.1190   69.9280  228.2670 C   0  0  0  0  0  0  0  0  0  0  0  0
  140.7170   70.7000  227.1760 C   0  0  0  0  0  0  0  0  0  0  0  0
  140.0950   70.1270  226.0870 C   0  0  0  0  0  0  0  0  0  0  0  0
  139.7170   70.8990  225.0480 N   0  0  0  0  0  0  0  0  0  0  0  0
  139.9000   72.8440  223.5420 H   0  0  0  0  0  0  0  0  0  0  0  0
  139.0934   72.9274  220.7390 H   0  0  0  0  0  0  0  0  0  0  0  0
  137.7629   73.5969  221.7468 H   0  0  0  0  0  0  0  0  0  0  0  0
  137.1372   76.4422  220.4898 H   0  0  0  0  0  0  0  0  0  0  0  0
  136.9126   74.9663  221.3381 H   0  0  0  0  0  0  0  0  0  0  0  0
  135.9928   77.2064  222.5331 H   0  0  0  0  0  0  0  0  0  0  0  0
  136.9511   76.1991  223.5885 H   0  0  0  0  0  0  0  0  0  0  0  0
  137.6486   78.8037  222.2742 H   0  0  0  0  0  0  0  0  0  0  0  0
  138.4200   78.0731  223.6819 H   0  0  0  0  0  0  0  0  0  0  0  0
  139.2073   77.7331  220.7244 H   0  0  0  0  0  0  0  0  0  0  0  0
  140.5542   77.2852  223.1512 H   0  0  0  0  0  0  0  0  0  0  0  0
  141.9410   76.4330  221.7020 H   0  0  0  0  0  0  0  0  0  0  0  0
  139.7383   79.7094  222.3043 H   0  0  0  0  0  0  0  0  0  0  0  0
  142.1434   79.0250  220.8956 H   0  0  0  0  0  0  0  0  0  0  0  0
  141.5208   80.6679  221.0979 H   0  0  0  0  0  0  0  0  0  0  0  0
  143.5535   79.1496  222.7630 H   0  0  0  0  0  0  0  0  0  0  0  0
  143.6300   80.8217  222.2242 H   0  0  0  0  0  0  0  0  0  0  0  0
  142.9176   80.3889  224.7320 H   0  0  0  0  0  0  0  0  0  0  0  0
  141.8998   81.5038  223.8669 H   0  0  0  0  0  0  0  0  0  0  0  0
  141.4886   78.4889  224.3797 H   0  0  0  0  0  0  0  0  0  0  0  0
  140.2893   79.7653  224.5700 H   0  0  0  0  0  0  0  0  0  0  0  0
  138.3309   68.5819  222.9802 H   0  0  0  0  0  0  0  0  0  0  0  0
  139.0203   67.1369  224.8908 H   0  0  0  0  0  0  0  0  0  0  0  0
  140.0599   66.9266  227.1031 H   0  0  0  0  0  0  0  0  0  0  0  0
  141.6162   70.3846  229.1355 H   0  0  0  0  0  0  0  0  0  0  0  0
  140.8996   71.7847  227.1851 H   0  0  0  0  0  0  0  0  0  0  0  0
  1  2  2  0
  2  3  1  0
  3  4  1  0
  4  5  1  0
  5  6  2  0
  5  7  1  0
  7  8  1  0
  8  9  1  0
  9 10  1  0
 10 11  1  0
 11 12  1  0
 12 13  1  0
 12 14  1  0
 14 15  1  0
 15 16  1  0
 16 17  1  0
 17 18  1  0
  2 19  1  0
 19 20  2  0
 20 21  1  0
 21 22  2  0
 22 23  1  0
 23 24  2  0
 24 25  1  0
 24 26  1  0
 26 27  2  0
 27 28  1  0
 28 29  2  0
 11  7  1  0
 18 14  1  0
 29 19  1  0
 28 22  1  0
  3 30  1  0
  4 31  1  0
  4 32  1  0
  8 33  1  0
  8 34  1  0
  9 35  1  0
  9 36  1  0
 10 37  1  0
 10 38  1  0
 11 39  1  6
 12 40  1  1
 13 41  1  0
 14 42  1  0
 15 43  1  0
 15 44  1  0
 16 45  1  0
 16 46  1  0
 17 47  1  0
 17 48  1  0
 18 49  1  0
 18 50  1  0
 20 51  1  0
 21 52  1  0
 23 53  1  0
 26 54  1  0
 27 55  1  0
M  END
>  <smiles>  (32) 
O=C(NCC(=O)N1CCC[C@H]1[C@@H](O)C1CCCC1)c1ccc2cc(F)ccc2n1

>  <score_type>  (32) 
oracle

>  <origin>  (32) 
autodockgpu

>  <m_score__min__energy>  (32) 
-9.0600000000000005

>  <m_primary>  (32) 
energy

>  <rmsd>  (32) 
2.6474095262681896

>  <m_score__min__rmsd>  (32) 
2.6474095262681896

>  <meeko>  (32) 
{"free_energy": -8.65, "intermolecular_energy": -10.74, "internal_energy": -2.52, "cluster_size": 39, "cluster_id": 1, "rank_in_cluster": 6}

>  <energy>  (32) 
-8.18

>  <cluster_rmsd>  (32) 
1.75

>  <cluster>  (32) 
1

$$$$

     RDKit          3D

 55 58  0  0  0  0  0  0  0  0999 V2000
  138.3460   70.7290  221.7440 O   0  0  0  0  0  0  0  0  0  0  0  0
  138.9580   71.1760  222.7220 C   0  0  0  0  0  0  0  0  0  0  0  0
  139.3790   72.5200  222.7290 N   0  0  0  0  0  0  0  0  0  0  0  0
  139.0880   73.3480  221.5990 C   0  0  0  0  0  0  0  0  0  0  0  0
  139.7730   74.6930  221.7580 C   0  0  0  0  0  0  0  0  0  0  0  0
  141.0110   74.6090  221.9500 O   0  0  0  0  0  0  0  0  0  0  0  0
  139.0160   75.8650  221.6820 N   0  0  0  0  0  0  0  0  0  0  0  0
  137.5310   75.8290  221.4880 C   0  0  0  0  0  0  0  0  0  0  0  0
  137.1420   76.6280  222.7300 C   0  0  0  0  0  0  0  0  0  0  0  0
  138.1580   77.7480  222.7210 C   0  0  0  0  0  0  0  0  0  0  0  0
  139.2650   77.2720  221.7580 C   0  0  1  0  0  0  0  0  0  0  0  0
  140.6000   77.7620  222.1390 C   0  0  1  0  0  0  0  0  0  0  0  0
  141.6340   77.3040  221.3650 O   0  0  0  0  0  0  0  0  0  0  0  0
  140.7470   79.2050  222.4650 C   0  0  0  0  0  0  0  0  0  0  0  0
  141.8150   79.8030  221.5770 C   0  0  0  0  0  0  0  0  0  0  0  0
  142.9570   80.1240  222.4820 C   0  0  0  0  0  0  0  0  0  0  0  0
  142.3010   80.5010  223.7780 C   0  0  0  0  0  0  0  0  0  0  0  0
  141.2220   79.4280  223.8940 C   0  0  0  0  0  0  0  0  0  0  0  0
  139.2570   70.3180  223.8850 C   0  0  0  0  0  0  0  0  0  0  0  0
  138.9160   68.9760  223.8400 C   0  0  0  0  0  0  0  0  0  0  0  0
  139.2120   68.2110  224.9490 C   0  0  0  0  0  0  0  0  0  0  0  0
  139.8210   68.7670  226.0540 C   0  0  0  0  0  0  0  0  0  0  0  0
  140.1370   68.0430  227.1880 C   0  0  0  0  0  0  0  0  0  0  0  0
  140.7480   68.6070  228.2930 C   0  0  0  0  0  0  0  0  0  0  0  0
  141.0430   67.8470  229.3960 F   0  0  0  0  0  0  0  0  0  0  0  0
  141.0730   69.9570  228.2980 C   0  0  0  0  0  0  0  0  0  0  0  0
  140.7600   70.7010  227.1600 C   0  0  0  0  0  0  0  0  0  0  0  0
  140.1510   70.1170  226.0690 C   0  0  0  0  0  0  0  0  0  0  0  0
  139.8610   70.8630  224.9840 N   0  0  0  0  0  0  0  0  0  0  0  0
  139.8990   72.8570  223.5860 H   0  0  0  0  0  0  0  0  0  0  0  0
  139.4524   72.8584  220.6839 H   0  0  0  0  0  0  0  0  0  0  0  0
  138.0007   73.4998  221.5300 H   0  0  0  0  0  0  0  0  0  0  0  0
  137.2191   76.3255  220.5573 H   0  0  0  0  0  0  0  0  0  0  0  0
  137.0783   74.8312  221.3914 H   0  0  0  0  0  0  0  0  0  0  0  0
  136.1170   77.0187  222.6479 H   0  0  0  0  0  0  0  0  0  0  0  0
  137.1474   76.0346  223.6562 H   0  0  0  0  0  0  0  0  0  0  0  0
  137.7027   78.6806  222.3565 H   0  0  0  0  0  0  0  0  0  0  0  0
  138.5480   77.9613  223.7272 H   0  0  0  0  0  0  0  0  0  0  0  0
  139.2465   77.6909  220.7411 H   0  0  0  0  0  0  0  0  0  0  0  0
  140.6866   77.2697  223.1189 H   0  0  0  0  0  0  0  0  0  0  0  0
  142.0580   76.4730  221.6260 H   0  0  0  0  0  0  0  0  0  0  0  0
  139.7584   79.6660  222.3228 H   0  0  0  0  0  0  0  0  0  0  0  0
  142.1255   79.0790  220.8092 H   0  0  0  0  0  0  0  0  0  0  0  0
  141.4512   80.6966  221.0486 H   0  0  0  0  0  0  0  0  0  0  0  0
  143.6087   79.2478  222.6144 H   0  0  0  0  0  0  0  0  0  0  0  0
  143.5989   80.9242  222.0849 H   0  0  0  0  0  0  0  0  0  0  0  0
  143.0102   80.4505  224.6173 H   0  0  0  0  0  0  0  0  0  0  0  0
  141.9151   81.5308  223.8033 H   0  0  0  0  0  0  0  0  0  0  0  0
  141.6398   78.5009  224.3135 H   0  0  0  0  0  0  0  0  0  0  0  0
  140.4032   79.7305  224.5634 H   0  0  0  0  0  0  0  0  0  0  0  0
  138.4291   68.5384  222.9560 H   0  0  0  0  0  0  0  0  0  0  0  0
  138.9582   67.1407  224.9519 H   0  0  0  0  0  0  0  0  0  0  0  0
  139.8917   66.9710  227.2127 H   0  0  0  0  0  0  0  0  0  0  0  0
  141.5596   70.4229  229.1676 H   0  0  0  0  0  0  0  0  0  0  0  0
  141.0035   71.7734  227.1324 H   0  0  0  0  0  0  0  0  0  0  0  0
  1  2  2  0
  2  3  1  0
  3  4  1  0
  4  5  1  0
  5  6  2  0
  5  7  1  0
  7  8  1  0
  8  9  1  0
  9 10  1  0
 10 11  1  0
 11 12  1  0
 12 13  1  0
 12 14  1  0
 14 15  1  0
 15 16  1  0
 16 17  1  0
 17 18  1  0
  2 19  1  0
 19 20  2  0
 20 21  1  0
 21 22  2  0
 22 23  1  0
 23 24  2  0
 24 25  1  0
 24 26  1  0
 26 27  2  0
 27 28  1  0
 28 29  2  0
 11  7  1  0
 18 14  1  0
 29 19  1  0
 28 22  1  0
  3 30  1  0
  4 31  1  0
  4 32  1  0
  8 33  1  0
  8 34  1  0
  9 35  1  0
  9 36  1  0
 10 37  1  0
 10 38  1  0
 11 39  1  6
 12 40  1  1
 13 41  1  0
 14 42  1  0
 15 43  1  0
 15 44  1  0
 16 45  1  0
 16 46  1  0
 17 47  1  0
 17 48  1  0
 18 49  1  0
 18 50  1  0
 20 51  1  0
 21 52  1  0
 23 53  1  0
 26 54  1  0
 27 55  1  0
M  END
>  <smiles>  (33) 
O=C(NCC(=O)N1CCC[C@H]1[C@@H](O)C1CCCC1)c1ccc2cc(F)ccc2n1

>  <score_type>  (33) 
oracle

>  <origin>  (33) 
autodockgpu

>  <m_score__min__energy>  (33) 
-9.0600000000000005

>  <m_primary>  (33) 
energy

>  <rmsd>  (33) 
2.62853062941482

>  <m_score__min__rmsd>  (33) 
2.62853062941482

>  <meeko>  (33) 
{"free_energy": -8.72, "intermolecular_energy": -10.81, "internal_energy": -2.48, "cluster_size": 39, "cluster_id": 1, "rank_in_cluster": 2}

>  <energy>  (33) 
-8.13

>  <cluster_rmsd>  (33) 
1.24

>  <cluster>  (33) 
1

$$$$

     RDKit          3D

 55 58  0  0  0  0  0  0  0  0999 V2000
  141.2780   72.5230  221.8530 O   0  0  0  0  0  0  0  0  0  0  0  0
  140.2730   72.4870  222.5750 C   0  0  0  0  0  0  0  0  0  0  0  0
  139.2110   73.3820  222.3380 N   0  0  0  0  0  0  0  0  0  0  0  0
  139.3150   74.3190  221.2630 C   0  0  0  0  0  0  0  0  0  0  0  0
  139.8490   75.6410  221.7840 C   0  0  0  0  0  0  0  0  0  0  0  0
  139.1540   76.1390  222.7030 O   0  0  0  0  0  0  0  0  0  0  0  0
  141.0150   76.1800  221.2320 N   0  0  0  0  0  0  0  0  0  0  0  0
  142.1660   75.3100  220.8290 C   0  0  0  0  0  0  0  0  0  0  0  0
  142.2490   75.7450  219.3670 C   0  0  0  0  0  0  0  0  0  0  0  0
  142.0710   77.2430  219.4680 C   0  0  0  0  0  0  0  0  0  0  0  0
  141.4950   77.4800  220.8790 C   0  0  1  0  0  0  0  0  0  0  0  0
  140.5870   78.6380  220.9350 C   0  0  1  0  0  0  0  0  0  0  0  0
  139.2690   78.3620  220.6810 O   0  0  0  0  0  0  0  0  0  0  0  0
  140.7470   79.5950  222.0610 C   0  0  0  0  0  0  0  0  0  0  0  0
  141.9130   80.5120  221.7640 C   0  0  0  0  0  0  0  0  0  0  0  0
  142.9730   80.1450  222.7480 C   0  0  0  0  0  0  0  0  0  0  0  0
  142.2100   79.7390  223.9750 C   0  0  0  0  0  0  0  0  0  0  0  0
  141.0910   78.8950  223.3680 C   0  0  0  0  0  0  0  0  0  0  0  0
  140.1700   71.5180  223.6830 C   0  0  0  0  0  0  0  0  0  0  0  0
  139.5820   70.2860  223.4490 C   0  0  0  0  0  0  0  0  0  0  0  0
  139.5050   69.4110  224.5130 C   0  0  0  0  0  0  0  0  0  0  0  0
  139.9940   69.7560  225.7550 C   0  0  0  0  0  0  0  0  0  0  0  0
  139.9400   68.9150  226.8510 C   0  0  0  0  0  0  0  0  0  0  0  0
  140.4330   69.2680  228.0930 C   0  0  0  0  0  0  0  0  0  0  0  0
  140.3570   68.3990  229.1500 F   0  0  0  0  0  0  0  0  0  0  0  0
  141.0150   70.5140  228.2850 C   0  0  0  0  0  0  0  0  0  0  0  0
  141.0780   71.3740  227.1880 C   0  0  0  0  0  0  0  0  0  0  0  0
  140.5790   71.0000  225.9580 C   0  0  0  0  0  0  0  0  0  0  0  0
  140.6530   71.8540  224.9170 N   0  0  0  0  0  0  0  0  0  0  0  0
  138.3740   73.3140  222.9800 H   0  0  0  0  0  0  0  0  0  0  0  0
  140.0005   73.9237  220.4989 H   0  0  0  0  0  0  0  0  0  0  0  0
  138.3201   74.4775  220.8214 H   0  0  0  0  0  0  0  0  0  0  0  0
  143.0837   75.5456  221.3879 H   0  0  0  0  0  0  0  0  0  0  0  0
  142.0459   74.2315  221.0088 H   0  0  0  0  0  0  0  0  0  0  0  0
  143.2249   75.4881  218.9294 H   0  0  0  0  0  0  0  0  0  0  0  0
  141.5078   75.2554  218.7182 H   0  0  0  0  0  0  0  0  0  0  0  0
  143.0372   77.7561  219.3532 H   0  0  0  0  0  0  0  0  0  0  0  0
  141.4114   77.6357  218.6801 H   0  0  0  0  0  0  0  0  0  0  0  0
  142.2032   77.8182  221.6498 H   0  0  0  0  0  0  0  0  0  0  0  0
  140.9723   79.1958  220.0687 H   0  0  0  0  0  0  0  0  0  0  0  0
  138.8270   77.7170  221.2530 H   0  0  0  0  0  0  0  0  0  0  0  0
  139.7913   80.1299  222.1633 H   0  0  0  0  0  0  0  0  0  0  0  0
  142.2724   80.3555  220.7362 H   0  0  0  0  0  0  0  0  0  0  0  0
  141.6292   81.5714  221.8477 H   0  0  0  0  0  0  0  0  0  0  0  0
  143.5817   79.3092  222.3725 H   0  0  0  0  0  0  0  0  0  0  0  0
  143.6736   80.9708  222.9409 H   0  0  0  0  0  0  0  0  0  0  0  0
  142.8347   79.1466  224.6597 H   0  0  0  0  0  0  0  0  0  0  0  0
  141.8563   80.5835  224.5848 H   0  0  0  0  0  0  0  0  0  0  0  0
  141.4380   77.8684  223.1789 H   0  0  0  0  0  0  0  0  0  0  0  0
  140.2221   78.8112  224.0373 H   0  0  0  0  0  0  0  0  0  0  0  0
  139.1926   70.0164  222.4562 H   0  0  0  0  0  0  0  0  0  0  0  0
  139.0459   68.4220  224.3679 H   0  0  0  0  0  0  0  0  0  0  0  0
  139.4846   67.9211  226.7292 H   0  0  0  0  0  0  0  0  0  0  0  0
  141.4121   70.8123  229.2665 H   0  0  0  0  0  0  0  0  0  0  0  0
  141.5339   72.3681  227.3064 H   0  0  0  0  0  0  0  0  0  0  0  0
  1  2  2  0
  2  3  1  0
  3  4  1  0
  4  5  1  0
  5  6  2  0
  5  7  1  0
  7  8  1  0
  8  9  1  0
  9 10  1  0
 10 11  1  0
 11 12  1  0
 12 13  1  0
 12 14  1  0
 14 15  1  0
 15 16  1  0
 16 17  1  0
 17 18  1  0
  2 19  1  0
 19 20  2  0
 20 21  1  0
 21 22  2  0
 22 23  1  0
 23 24  2  0
 24 25  1  0
 24 26  1  0
 26 27  2  0
 27 28  1  0
 28 29  2  0
 11  7  1  0
 18 14  1  0
 29 19  1  0
 28 22  1  0
  3 30  1  0
  4 31  1  0
  4 32  1  0
  8 33  1  0
  8 34  1  0
  9 35  1  0
  9 36  1  0
 10 37  1  0
 10 38  1  0
 11 39  1  1
 12 40  1  6
 13 41  1  0
 14 42  1  0
 15 43  1  0
 15 44  1  0
 16 45  1  0
 16 46  1  0
 17 47  1  0
 17 48  1  0
 18 49  1  0
 18 50  1  0
 20 51  1  0
 21 52  1  0
 23 53  1  0
 26 54  1  0
 27 55  1  0
M  END
>  <smiles>  (34) 
O=C(NCC(=O)N1CCC[C@H]1[C@@H](O)C1CCCC1)c1ccc2cc(F)ccc2n1

>  <score_type>  (34) 
oracle

>  <origin>  (34) 
autodockgpu

>  <m_score__min__energy>  (34) 
-9.0600000000000005

>  <m_primary>  (34) 
energy

>  <rmsd>  (34) 
1.9766079125503022

>  <m_score__min__rmsd>  (34) 
1.9766079125503022

>  <meeko>  (34) 
{"free_energy": -8.31, "intermolecular_energy": -10.39, "internal_energy": -2.4, "cluster_size": 39, "cluster_id": 1, "rank_in_cluster": 20}

>  <energy>  (34) 
-8.1

>  <cluster_rmsd>  (34) 
1.69

>  <cluster>  (34) 
1

$$$$

     RDKit          3D

 55 58  0  0  0  0  0  0  0  0999 V2000
  140.6700   71.3760  221.2330 O   0  0  0  0  0  0  0  0  0  0  0  0
  140.2520   71.8670  222.2890 C   0  0  0  0  0  0  0  0  0  0  0  0
  139.9380   73.2400  222.3450 N   0  0  0  0  0  0  0  0  0  0  0  0
  140.1080   74.0420  221.1740 C   0  0  0  0  0  0  0  0  0  0  0  0
  140.3550   75.4860  221.5720 C   0  0  0  0  0  0  0  0  0  0  0  0
  139.9320   75.7730  222.7180 O   0  0  0  0  0  0  0  0  0  0  0  0
  141.0020   76.3460  220.6790 N   0  0  0  0  0  0  0  0  0  0  0  0
  141.2020   75.9780  219.2410 C   0  0  0  0  0  0  0  0  0  0  0  0
  140.5020   77.1860  218.6220 C   0  0  0  0  0  0  0  0  0  0  0  0
  141.0110   78.3240  219.4770 C   0  0  0  0  0  0  0  0  0  0  0  0
  141.5970   77.6450  220.7320 C   0  0  1  0  0  0  0  0  0  0  0  0
  141.4540   78.4700  221.9440 C   0  0  1  0  0  0  0  0  0  0  0  0
  141.5030   77.7820  223.1290 O   0  0  0  0  0  0  0  0  0  0  0  0
  142.2100   79.7480  222.0120 C   0  0  0  0  0  0  0  0  0  0  0  0
  142.5690   80.0300  223.4540 C   0  0  0  0  0  0  0  0  0  0  0  0
  141.7530   81.2160  223.8450 C   0  0  0  0  0  0  0  0  0  0  0  0
  141.6530   82.0240  222.5850 C   0  0  0  0  0  0  0  0  0  0  0  0
  141.3780   80.9360  221.5500 C   0  0  0  0  0  0  0  0  0  0  0  0
  140.0780   71.0360  223.4960 C   0  0  0  0  0  0  0  0  0  0  0  0
  139.4440   69.8090  223.3840 C   0  0  0  0  0  0  0  0  0  0  0  0
  139.3010   69.0640  224.5360 C   0  0  0  0  0  0  0  0  0  0  0  0
  139.7720   69.5290  225.7460 C   0  0  0  0  0  0  0  0  0  0  0  0
  139.6530   68.8200  226.9270 C   0  0  0  0  0  0  0  0  0  0  0  0
  140.1280   69.2920  228.1370 C   0  0  0  0  0  0  0  0  0  0  0  0
  139.9860   68.5520  229.2820 F   0  0  0  0  0  0  0  0  0  0  0  0
  140.7580   70.5280  228.2050 C   0  0  0  0  0  0  0  0  0  0  0  0
  140.8860   71.2550  227.0210 C   0  0  0  0  0  0  0  0  0  0  0  0
  140.4040   70.7630  225.8260 C   0  0  0  0  0  0  0  0  0  0  0  0
  140.5430   71.4900  224.6980 N   0  0  0  0  0  0  0  0  0  0  0  0
  139.5840   73.6150  223.2680 H   0  0  0  0  0  0  0  0  0  0  0  0
  140.9679   73.6697  220.5979 H   0  0  0  0  0  0  0  0  0  0  0  0
  139.1977   73.9850  220.5591 H   0  0  0  0  0  0  0  0  0  0  0  0
  142.2660   75.9257  218.9670 H   0  0  0  0  0  0  0  0  0  0  0  0
  140.8270   74.9900  218.9357 H   0  0  0  0  0  0  0  0  0  0  0  0
  140.7914   77.3181  217.5690 H   0  0  0  0  0  0  0  0  0  0  0  0
  139.4054   77.1011  218.6079 H   0  0  0  0  0  0  0  0  0  0  0  0
  141.7890   78.8905  218.9443 H   0  0  0  0  0  0  0  0  0  0  0  0
  140.2162   79.0421  219.7272 H   0  0  0  0  0  0  0  0  0  0  0  0
  142.6907   77.5327  220.7662 H   0  0  0  0  0  0  0  0  0  0  0  0
  140.4135   78.7977  221.8025 H   0  0  0  0  0  0  0  0  0  0  0  0
  141.7790   76.8540  223.0990 H   0  0  0  0  0  0  0  0  0  0  0  0
  143.0899   79.6327  221.3620 H   0  0  0  0  0  0  0  0  0  0  0  0
  142.3197   79.1663  224.0879 H   0  0  0  0  0  0  0  0  0  0  0  0
  143.6459   80.2181  223.5765 H   0  0  0  0  0  0  0  0  0  0  0  0
  140.7555   80.9067  224.1906 H   0  0  0  0  0  0  0  0  0  0  0  0
  142.2020   81.7820  224.6745 H   0  0  0  0  0  0  0  0  0  0  0  0
  140.8269   82.7485  222.6362 H   0  0  0  0  0  0  0  0  0  0  0  0
  142.5428   82.6340  222.3704 H   0  0  0  0  0  0  0  0  0  0  0  0
  140.3088   80.6780  221.5324 H   0  0  0  0  0  0  0  0  0  0  0  0
  141.6372   81.2554  220.5298 H   0  0  0  0  0  0  0  0  0  0  0  0
  139.0701   69.4440  222.4160 H   0  0  0  0  0  0  0  0  0  0  0  0
  138.8037   68.0840  224.4889 H   0  0  0  0  0  0  0  0  0  0  0  0
  139.1589   67.8375  226.9031 H   0  0  0  0  0  0  0  0  0  0  0  0
  141.1423   70.9198  229.1583 H   0  0  0  0  0  0  0  0  0  0  0  0
  141.3799   72.2377  227.0409 H   0  0  0  0  0  0  0  0  0  0  0  0
  1  2  2  0
  2  3  1  0
  3  4  1  0
  4  5  1  0
  5  6  2  0
  5  7  1  0
  7  8  1  0
  8  9  1  0
  9 10  1  0
 10 11  1  0
 11 12  1  0
 12 13  1  0
 12 14  1  0
 14 15  1  0
 15 16  1  0
 16 17  1  0
 17 18  1  0
  2 19  1  0
 19 20  2  0
 20 21  1  0
 21 22  2  0
 22 23  1  0
 23 24  2  0
 24 25  1  0
 24 26  1  0
 26 27  2  0
 27 28  1  0
 28 29  2  0
 11  7  1  0
 18 14  1  0
 29 19  1  0
 28 22  1  0
  3 30  1  0
  4 31  1  0
  4 32  1  0
  8 33  1  0
  8 34  1  0
  9 35  1  0
  9 36  1  0
 10 37  1  0
 10 38  1  0
 11 39  1  6
 12 40  1  6
 13 41  1  0
 14 42  1  0
 15 43  1  0
 15 44  1  0
 16 45  1  0
 16 46  1  0
 17 47  1  0
 17 48  1  0
 18 49  1  0
 18 50  1  0
 20 51  1  0
 21 52  1  0
 23 53  1  0
 26 54  1  0
 27 55  1  0
M  END
>  <smiles>  (35) 
O=C(NCC(=O)N1CCC[C@H]1[C@@H](O)C1CCCC1)c1ccc2cc(F)ccc2n1

>  <score_type>  (35) 
oracle

>  <origin>  (35) 
autodockgpu

>  <m_score__min__energy>  (35) 
-9.0600000000000005

>  <m_primary>  (35) 
energy

>  <rmsd>  (35) 
1.5406534172247996

>  <m_score__min__rmsd>  (35) 
1.5406534172247996

>  <meeko>  (35) 
{"free_energy": -8.52, "intermolecular_energy": -10.6, "internal_energy": -2.54, "cluster_size": 39, "cluster_id": 1, "rank_in_cluster": 12}

>  <energy>  (35) 
-8.07

>  <cluster_rmsd>  (35) 
1.62

>  <cluster>  (35) 
1

$$$$

     RDKit          3D

 55 58  0  0  0  0  0  0  0  0999 V2000
  133.1550   70.0140  226.6640 O   0  0  0  0  0  0  0  0  0  0  0  0
  133.6290   71.0960  226.2950 C   0  0  0  0  0  0  0  0  0  0  0  0
  134.7380   71.1120  225.4260 N   0  0  0  0  0  0  0  0  0  0  0  0
  135.2950   69.8710  224.9830 C   0  0  0  0  0  0  0  0  0  0  0  0
  136.3570   70.1320  223.9310 C   0  0  0  0  0  0  0  0  0  0  0  0
  136.3890   71.3210  223.5280 O   0  0  0  0  0  0  0  0  0  0  0  0
  137.1810   69.0840  223.5090 N   0  0  0  0  0  0  0  0  0  0  0  0
  136.7880   68.1840  222.3780 C   0  0  0  0  0  0  0  0  0  0  0  0
  138.0140   68.4170  221.4960 C   0  0  0  0  0  0  0  0  0  0  0  0
  139.1420   68.3800  222.5010 C   0  0  0  0  0  0  0  0  0  0  0  0
  138.4590   68.5530  223.8730 C   0  0  1  0  0  0  0  0  0  0  0  0
  139.3030   69.2700  224.8430 C   0  0  1  0  0  0  0  0  0  0  0  0
  139.2470   70.6380  224.7690 O   0  0  0  0  0  0  0  0  0  0  0  0
  139.3110   68.7910  226.2500 C   0  0  0  0  0  0  0  0  0  0  0  0
  139.6440   69.9500  227.1620 C   0  0  0  0  0  0  0  0  0  0  0  0
  140.9990   69.6530  227.7110 C   0  0  0  0  0  0  0  0  0  0  0  0
  141.0300   68.1570  227.8200 C   0  0  0  0  0  0  0  0  0  0  0  0
  140.3890   67.7450  226.4960 C   0  0  0  0  0  0  0  0  0  0  0  0
  133.0510   72.3730  226.7540 C   0  0  0  0  0  0  0  0  0  0  0  0
  131.8670   72.3580  227.4730 C   0  0  0  0  0  0  0  0  0  0  0  0
  131.3610   73.5750  227.8820 C   0  0  0  0  0  0  0  0  0  0  0  0
  132.0120   74.7530  227.5830 C   0  0  0  0  0  0  0  0  0  0  0  0
  131.5450   75.9950  227.9690 C   0  0  0  0  0  0  0  0  0  0  0  0
  132.2040   77.1720  227.6660 C   0  0  0  0  0  0  0  0  0  0  0  0
  131.7010   78.3820  228.0720 F   0  0  0  0  0  0  0  0  0  0  0  0
  133.3880   77.1430  226.9420 C   0  0  0  0  0  0  0  0  0  0  0  0
  133.8730   75.8960  226.5450 C   0  0  0  0  0  0  0  0  0  0  0  0
  133.1980   74.7350  226.8600 C   0  0  0  0  0  0  0  0  0  0  0  0
  133.6920   73.5450  226.4610 N   0  0  0  0  0  0  0  0  0  0  0  0
  135.1090   72.0590  225.1380 H   0  0  0  0  0  0  0  0  0  0  0  0
  135.7484   69.3481  225.8380 H   0  0  0  0  0  0  0  0  0  0  0  0
  134.4982   69.2491  224.5490 H   0  0  0  0  0  0  0  0  0  0  0  0
  136.6929   67.1343  222.6928 H   0  0  0  0  0  0  0  0  0  0  0  0
  135.8108   68.3847  221.9145 H   0  0  0  0  0  0  0  0  0  0  0  0
  138.1224   67.6204  220.7453 H   0  0  0  0  0  0  0  0  0  0  0  0
  137.9697   69.3507  220.9161 H   0  0  0  0  0  0  0  0  0  0  0  0
  139.6725   67.4176  222.4517 H   0  0  0  0  0  0  0  0  0  0  0  0
  139.8913   69.1624  222.3105 H   0  0  0  0  0  0  0  0  0  0  0  0
  138.3083   67.6395  224.4670 H   0  0  0  0  0  0  0  0  0  0  0  0
  140.2895   68.9647  224.4642 H   0  0  0  0  0  0  0  0  0  0  0  0
  138.4560   71.0340  224.3750 H   0  0  0  0  0  0  0  0  0  0  0  0
  138.3184   68.3591  226.4455 H   0  0  0  0  0  0  0  0  0  0  0  0
  139.6576   70.8927  226.5953 H   0  0  0  0  0  0  0  0  0  0  0  0
  138.8976   70.0658  227.9617 H   0  0  0  0  0  0  0  0  0  0  0  0
  141.7839   70.0111  227.0286 H   0  0  0  0  0  0  0  0  0  0  0  0
  141.1822   70.1503  228.6749 H   0  0  0  0  0  0  0  0  0  0  0  0
  142.0604   67.7809  227.9024 H   0  0  0  0  0  0  0  0  0  0  0  0
  140.5191   67.7602  228.7097 H   0  0  0  0  0  0  0  0  0  0  0  0
  141.1321   67.7549  225.6850 H   0  0  0  0  0  0  0  0  0  0  0  0
  139.9802   66.7244  226.5300 H   0  0  0  0  0  0  0  0  0  0  0  0
  131.3516   71.4151  227.7082 H   0  0  0  0  0  0  0  0  0  0  0  0
  130.4231   73.6057  228.4559 H   0  0  0  0  0  0  0  0  0  0  0  0
  130.6079   76.0496  228.5424 H   0  0  0  0  0  0  0  0  0  0  0  0
  133.9247   78.0696  226.6902 H   0  0  0  0  0  0  0  0  0  0  0  0
  134.8096   75.8380  225.9711 H   0  0  0  0  0  0  0  0  0  0  0  0
  1  2  2  0
  2  3  1  0
  3  4  1  0
  4  5  1  0
  5  6  2  0
  5  7  1  0
  7  8  1  0
  8  9  1  0
  9 10  1  0
 10 11  1  0
 11 12  1  0
 12 13  1  0
 12 14  1  0
 14 15  1  0
 15 16  1  0
 16 17  1  0
 17 18  1  0
  2 19  1  0
 19 20  2  0
 20 21  1  0
 21 22  2  0
 22 23  1  0
 23 24  2  0
 24 25  1  0
 24 26  1  0
 26 27  2  0
 27 28  1  0
 28 29  2  0
 11  7  1  0
 18 14  1  0
 29 19  1  0
 28 22  1  0
  3 30  1  0
  4 31  1  0
  4 32  1  0
  8 33  1  0
  8 34  1  0
  9 35  1  0
  9 36  1  0
 10 37  1  0
 10 38  1  0
 11 39  1  1
 12 40  1  6
 13 41  1  0
 14 42  1  0
 15 43  1  0
 15 44  1  0
 16 45  1  0
 16 46  1  0
 17 47  1  0
 17 48  1  0
 18 49  1  0
 18 50  1  0
 20 51  1  0
 21 52  1  0
 23 53  1  0
 26 54  1  0
 27 55  1  0
M  END
>  <smiles>  (36) 
O=C(NCC(=O)N1CCC[C@H]1[C@@H](O)C1CCCC1)c1ccc2cc(F)ccc2n1

>  <score_type>  (36) 
oracle

>  <origin>  (36) 
autodockgpu

>  <m_score__min__energy>  (36) 
-9.0600000000000005

>  <m_primary>  (36) 
energy

>  <rmsd>  (36) 
8.96068742381265

>  <m_score__min__rmsd>  (36) 
8.96068742381265

>  <meeko>  (36) 
{"free_energy": -7.11, "intermolecular_energy": -9.2, "internal_energy": -2.93, "cluster_size": 1, "cluster_id": 5, "rank_in_cluster": 1}

>  <energy>  (36) 
-7.97

>  <cluster_rmsd>  (36) 
1.75

>  <cluster>  (36) 
1

$$$$

     RDKit          3D

 55 58  0  0  0  0  0  0  0  0999 V2000
  137.6990   70.9330  222.1290 O   0  0  0  0  0  0  0  0  0  0  0  0
  138.5500   71.2970  222.9520 C   0  0  0  0  0  0  0  0  0  0  0  0
  139.1350   72.5730  222.8330 N   0  0  0  0  0  0  0  0  0  0  0  0
  138.7320   73.4280  221.7590 C   0  0  0  0  0  0  0  0  0  0  0  0
  139.4680   74.7510  221.8530 C   0  0  0  0  0  0  0  0  0  0  0  0
  140.7050   74.6300  222.0280 O   0  0  0  0  0  0  0  0  0  0  0  0
  138.7530   75.9470  221.7440 N   0  0  0  0  0  0  0  0  0  0  0  0
  137.2670   75.9580  221.5530 C   0  0  0  0  0  0  0  0  0  0  0  0
  136.9100   76.8070  222.7710 C   0  0  0  0  0  0  0  0  0  0  0  0
  137.9640   77.8890  222.7260 C   0  0  0  0  0  0  0  0  0  0  0  0
  139.0510   77.3460  221.7760 C   0  0  1  0  0  0  0  0  0  0  0  0
  140.4040   77.8000  222.1400 C   0  0  1  0  0  0  0  0  0  0  0  0
  141.4310   77.0650  221.6080 O   0  0  0  0  0  0  0  0  0  0  0  0
  140.6850   79.2590  222.0980 C   0  0  0  0  0  0  0  0  0  0  0  0
  142.1780   79.4750  222.2170 C   0  0  0  0  0  0  0  0  0  0  0  0
  142.3860   80.1080  223.5520 C   0  0  0  0  0  0  0  0  0  0  0  0
  141.1590   80.9470  223.7550 C   0  0  0  0  0  0  0  0  0  0  0  0
  140.0630   80.0000  223.2720 C   0  0  0  0  0  0  0  0  0  0  0  0
  138.9620   70.4120  224.0580 C   0  0  0  0  0  0  0  0  0  0  0  0
  138.6980   69.0550  223.9710 C   0  0  0  0  0  0  0  0  0  0  0  0
  139.1000   68.2640  225.0280 C   0  0  0  0  0  0  0  0  0  0  0  0
  139.7370   68.8090  226.1230 C   0  0  0  0  0  0  0  0  0  0  0  0
  140.1570   68.0590  227.2050 C   0  0  0  0  0  0  0  0  0  0  0  0
  140.7950   68.6130  228.2990 C   0  0  0  0  0  0  0  0  0  0  0  0
  141.1940   67.8270  229.3500 F   0  0  0  0  0  0  0  0  0  0  0  0
  141.0400   69.9790  228.3470 C   0  0  0  0  0  0  0  0  0  0  0  0
  140.6220   70.7490  227.2610 C   0  0  0  0  0  0  0  0  0  0  0  0
  139.9870   70.1750  226.1800 C   0  0  0  0  0  0  0  0  0  0  0  0
  139.5940   70.9460  225.1460 N   0  0  0  0  0  0  0  0  0  0  0  0
  139.8560   72.8410  223.5580 H   0  0  0  0  0  0  0  0  0  0  0  0
  138.9689   72.9455  220.7993 H   0  0  0  0  0  0  0  0  0  0  0  0
  137.6490   73.6089  221.8250 H   0  0  0  0  0  0  0  0  0  0  0  0
  136.9707   76.4372  220.6083 H   0  0  0  0  0  0  0  0  0  0  0  0
  136.7788   74.9745  221.4868 H   0  0  0  0  0  0  0  0  0  0  0  0
  135.8991   77.2309  222.6792 H   0  0  0  0  0  0  0  0  0  0  0  0
  136.8973   76.2420  223.7147 H   0  0  0  0  0  0  0  0  0  0  0  0
  137.5405   78.8256  222.3342 H   0  0  0  0  0  0  0  0  0  0  0  0
  138.3643   78.1186  223.7246 H   0  0  0  0  0  0  0  0  0  0  0  0
  139.0441   77.7346  220.7470 H   0  0  0  0  0  0  0  0  0  0  0  0
  140.3719   77.5777  223.2168 H   0  0  0  0  0  0  0  0  0  0  0  0
  141.8750   76.4280  222.1870 H   0  0  0  0  0  0  0  0  0  0  0  0
  140.2671   79.6372  221.1534 H   0  0  0  0  0  0  0  0  0  0  0  0
  142.7108   78.5143  222.1602 H   0  0  0  0  0  0  0  0  0  0  0  0
  142.5645   80.1054  221.4026 H   0  0  0  0  0  0  0  0  0  0  0  0
  142.4702   79.3430  224.3379 H   0  0  0  0  0  0  0  0  0  0  0  0
  143.3132   80.6980  223.5993 H   0  0  0  0  0  0  0  0  0  0  0  0
  141.0236   81.2122  224.8139 H   0  0  0  0  0  0  0  0  0  0  0  0
  141.1826   81.9128  223.2290 H   0  0  0  0  0  0  0  0  0  0  0  0
  139.7790   79.2965  224.0685 H   0  0  0  0  0  0  0  0  0  0  0  0
  139.1450   80.5353  222.9879 H   0  0  0  0  0  0  0  0  0  0  0  0
  138.1889   68.6256  223.0955 H   0  0  0  0  0  0  0  0  0  0  0  0
  138.9092   67.1811  224.9966 H   0  0  0  0  0  0  0  0  0  0  0  0
  139.9758   66.9741  227.1953 H   0  0  0  0  0  0  0  0  0  0  0  0
  141.5453   70.4374  229.2099 H   0  0  0  0  0  0  0  0  0  0  0  0
  140.8024   71.8341  227.2674 H   0  0  0  0  0  0  0  0  0  0  0  0
  1  2  2  0
  2  3  1  0
  3  4  1  0
  4  5  1  0
  5  6  2  0
  5  7  1  0
  7  8  1  0
  8  9  1  0
  9 10  1  0
 10 11  1  0
 11 12  1  0
 12 13  1  0
 12 14  1  0
 14 15  1  0
 15 16  1  0
 16 17  1  0
 17 18  1  0
  2 19  1  0
 19 20  2  0
 20 21  1  0
 21 22  2  0
 22 23  1  0
 23 24  2  0
 24 25  1  0
 24 26  1  0
 26 27  2  0
 27 28  1  0
 28 29  2  0
 11  7  1  0
 18 14  1  0
 29 19  1  0
 28 22  1  0
  3 30  1  0
  4 31  1  0
  4 32  1  0
  8 33  1  0
  8 34  1  0
  9 35  1  0
  9 36  1  0
 10 37  1  0
 10 38  1  0
 11 39  1  6
 12 40  1  1
 13 41  1  0
 14 42  1  0
 15 43  1  0
 15 44  1  0
 16 45  1  0
 16 46  1  0
 17 47  1  0
 17 48  1  0
 18 49  1  0
 18 50  1  0
 20 51  1  0
 21 52  1  0
 23 53  1  0
 26 54  1  0
 27 55  1  0
M  END
>  <smiles>  (37) 
O=C(NCC(=O)N1CCC[C@H]1[C@@H](O)C1CCCC1)c1ccc2cc(F)ccc2n1

>  <score_type>  (37) 
oracle

>  <origin>  (37) 
autodockgpu

>  <m_score__min__energy>  (37) 
-9.0600000000000005

>  <m_primary>  (37) 
energy

>  <rmsd>  (37) 
2.724231675763932

>  <m_score__min__rmsd>  (37) 
2.724231675763932

>  <meeko>  (37) 
{"free_energy": -8.5, "intermolecular_energy": -10.59, "internal_energy": -2.36, "cluster_size": 39, "cluster_id": 1, "rank_in_cluster": 13}

>  <energy>  (37) 
-7.6

>  <cluster_rmsd>  (37) 
1.91

>  <cluster>  (37) 
1

$$$$

     RDKit          3D

 55 58  0  0  0  0  0  0  0  0999 V2000
  138.0290   71.0430  221.8540 O   0  0  0  0  0  0  0  0  0  0  0  0
  138.7840   71.4270  222.7570 C   0  0  0  0  0  0  0  0  0  0  0  0
  139.3150   72.7310  222.7170 N   0  0  0  0  0  0  0  0  0  0  0  0
  138.9690   73.5920  221.6280 C   0  0  0  0  0  0  0  0  0  0  0  0
  139.8970   74.7920  221.6080 C   0  0  0  0  0  0  0  0  0  0  0  0
  141.0590   74.5400  222.0120 O   0  0  0  0  0  0  0  0  0  0  0  0
  139.4170   76.0280  221.1640 N   0  0  0  0  0  0  0  0  0  0  0  0
  138.4490   76.1290  220.0250 C   0  0  0  0  0  0  0  0  0  0  0  0
  137.3450   76.8860  220.7610 C   0  0  0  0  0  0  0  0  0  0  0  0
  138.1290   77.9130  221.5450 C   0  0  0  0  0  0  0  0  0  0  0  0
  139.5840   77.4010  221.5260 C   0  0  1  0  0  0  0  0  0  0  0  0
  140.3270   77.7530  222.7480 C   0  0  1  0  0  0  0  0  0  0  0  0
  141.4380   76.9900  222.9980 O   0  0  0  0  0  0  0  0  0  0  0  0
  140.5680   79.1930  223.0280 C   0  0  0  0  0  0  0  0  0  0  0  0
  141.1620   79.8390  221.7960 C   0  0  0  0  0  0  0  0  0  0  0  0
  142.5690   80.1760  222.1580 C   0  0  0  0  0  0  0  0  0  0  0  0
  142.5020   80.5080  223.6190 C   0  0  0  0  0  0  0  0  0  0  0  0
  141.5870   79.4020  224.1390 C   0  0  0  0  0  0  0  0  0  0  0  0
  139.1380   70.5360  223.8790 C   0  0  0  0  0  0  0  0  0  0  0  0
  138.8360   69.1870  223.7900 C   0  0  0  0  0  0  0  0  0  0  0  0
  139.1830   68.3900  224.8610 C   0  0  0  0  0  0  0  0  0  0  0  0
  139.8040   68.9220  225.9720 C   0  0  0  0  0  0  0  0  0  0  0  0
  140.1700   68.1650  227.0690 C   0  0  0  0  0  0  0  0  0  0  0  0
  140.7920   68.7060  228.1790 C   0  0  0  0  0  0  0  0  0  0  0  0
  141.1380   67.9140  229.2440 F   0  0  0  0  0  0  0  0  0  0  0  0
  141.0770   70.0640  228.2280 C   0  0  0  0  0  0  0  0  0  0  0  0
  140.7130   70.8410  227.1270 C   0  0  0  0  0  0  0  0  0  0  0  0
  140.0930   70.2790  226.0310 C   0  0  0  0  0  0  0  0  0  0  0  0
  139.7530   71.0570  224.9820 N   0  0  0  0  0  0  0  0  0  0  0  0
  139.9540   73.0150  223.5100 H   0  0  0  0  0  0  0  0  0  0  0  0
  139.0649   73.0402  220.6813 H   0  0  0  0  0  0  0  0  0  0  0  0
  137.9318   73.9365  221.7523 H   0  0  0  0  0  0  0  0  0  0  0  0
  138.8569   76.7025  219.1796 H   0  0  0  0  0  0  0  0  0  0  0  0
  138.1551   75.1804  219.5520 H   0  0  0  0  0  0  0  0  0  0  0  0
  136.6524   77.3672  220.0547 H   0  0  0  0  0  0  0  0  0  0  0  0
  136.7109   76.2420  221.3881 H   0  0  0  0  0  0  0  0  0  0  0  0
  138.0601   78.9008  221.0660 H   0  0  0  0  0  0  0  0  0  0  0  0
  137.7457   78.0332  222.5690 H   0  0  0  0  0  0  0  0  0  0  0  0
  140.2643   77.8779  220.8050 H   0  0  0  0  0  0  0  0  0  0  0  0
  139.5675   77.4723  223.4926 H   0  0  0  0  0  0  0  0  0  0  0  0
  141.8470   76.5340  222.2480 H   0  0  0  0  0  0  0  0  0  0  0  0
  139.6008   79.6273  223.3212 H   0  0  0  0  0  0  0  0  0  0  0  0
  141.1410   79.1392  220.9476 H   0  0  0  0  0  0  0  0  0  0  0  0
  140.5955   80.7313  221.4913 H   0  0  0  0  0  0  0  0  0  0  0  0
  143.2336   79.3171  221.9829 H   0  0  0  0  0  0  0  0  0  0  0  0
  142.9732   81.0028  221.5555 H   0  0  0  0  0  0  0  0  0  0  0  0
  143.4959   80.4613  224.0880 H   0  0  0  0  0  0  0  0  0  0  0  0
  142.1427   81.5256  223.8324 H   0  0  0  0  0  0  0  0  0  0  0  0
  142.1577   78.4794  224.3212 H   0  0  0  0  0  0  0  0  0  0  0  0
  141.1130   79.6679  225.0954 H   0  0  0  0  0  0  0  0  0  0  0  0
  138.3399   68.7686  222.9018 H   0  0  0  0  0  0  0  0  0  0  0  0
  138.9610   67.3131  224.8287 H   0  0  0  0  0  0  0  0  0  0  0  0
  139.9573   67.0858  227.0585 H   0  0  0  0  0  0  0  0  0  0  0  0
  141.5717   70.5113  229.1027 H   0  0  0  0  0  0  0  0  0  0  0  0
  140.9244   71.9205  227.1338 H   0  0  0  0  0  0  0  0  0  0  0  0
  1  2  2  0
  2  3  1  0
  3  4  1  0
  4  5  1  0
  5  6  2  0
  5  7  1  0
  7  8  1  0
  8  9  1  0
  9 10  1  0
 10 11  1  0
 11 12  1  0
 12 13  1  0
 12 14  1  0
 14 15  1  0
 15 16  1  0
 16 17  1  0
 17 18  1  0
  2 19  1  0
 19 20  2  0
 20 21  1  0
 21 22  2  0
 22 23  1  0
 23 24  2  0
 24 25  1  0
 24 26  1  0
 26 27  2  0
 27 28  1  0
 28 29  2  0
 11  7  1  0
 18 14  1  0
 29 19  1  0
 28 22  1  0
  3 30  1  0
  4 31  1  0
  4 32  1  0
  8 33  1  0
  8 34  1  0
  9 35  1  0
  9 36  1  0
 10 37  1  0
 10 38  1  0
 11 39  1  6
 12 40  1  1
 13 41  1  0
 14 42  1  0
 15 43  1  0
 15 44  1  0
 16 45  1  0
 16 46  1  0
 17 47  1  0
 17 48  1  0
 18 49  1  0
 18 50  1  0
 20 51  1  0
 21 52  1  0
 23 53  1  0
 26 54  1  0
 27 55  1  0
M  END
>  <smiles>  (38) 
O=C(NCC(=O)N1CCC[C@H]1[C@@H](O)C1CCCC1)c1ccc2cc(F)ccc2n1

>  <score_type>  (38) 
oracle

>  <origin>  (38) 
autodockgpu

>  <m_score__min__energy>  (38) 
-9.0600000000000005

>  <m_primary>  (38) 
energy

>  <rmsd>  (38) 
2.0458207511607793

>  <m_score__min__rmsd>  (38) 
2.0458207511607793

>  <meeko>  (38) 
{"free_energy": -8.27, "intermolecular_energy": -10.36, "internal_energy": -2.66, "cluster_size": 39, "cluster_id": 1, "rank_in_cluster": 24}

>  <energy>  (38) 
-7.53

>  <cluster_rmsd>  (38) 
1.49

>  <cluster>  (38) 
1

$$$$

     RDKit          3D

 55 58  0  0  0  0  0  0  0  0999 V2000
  141.2790   72.4700  221.7850 O   0  0  0  0  0  0  0  0  0  0  0  0
  140.2960   72.4790  222.5370 C   0  0  0  0  0  0  0  0  0  0  0  0
  139.2730   73.4280  222.3380 N   0  0  0  0  0  0  0  0  0  0  0  0
  139.3910   74.3650  221.2640 C   0  0  0  0  0  0  0  0  0  0  0  0
  139.7220   75.7400  221.8160 C   0  0  0  0  0  0  0  0  0  0  0  0
  138.9440   76.1200  222.7250 O   0  0  0  0  0  0  0  0  0  0  0  0
  140.8110   76.4460  221.2980 N   0  0  0  0  0  0  0  0  0  0  0  0
  141.9630   75.7440  220.6450 C   0  0  0  0  0  0  0  0  0  0  0  0
  141.9020   76.4620  219.2980 C   0  0  0  0  0  0  0  0  0  0  0  0
  141.6670   77.8970  219.7110 C   0  0  0  0  0  0  0  0  0  0  0  0
  141.2010   77.8170  221.1790 C   0  0  1  0  0  0  0  0  0  0  0  0
  140.2500   78.8850  221.5330 C   0  0  1  0  0  0  0  0  0  0  0  0
  138.9460   78.4860  221.6640 O   0  0  0  0  0  0  0  0  0  0  0  0
  140.6460   79.8470  222.5950 C   0  0  0  0  0  0  0  0  0  0  0  0
  141.6540   80.8200  222.0240 C   0  0  0  0  0  0  0  0  0  0  0  0
  142.9450   80.5040  222.7010 C   0  0  0  0  0  0  0  0  0  0  0  0
  142.5390   80.0600  224.0760 C   0  0  0  0  0  0  0  0  0  0  0  0
  141.3430   79.1630  223.7620 C   0  0  0  0  0  0  0  0  0  0  0  0
  140.1790   71.5110  223.6440 C   0  0  0  0  0  0  0  0  0  0  0  0
  139.5920   70.2790  223.4030 C   0  0  0  0  0  0  0  0  0  0  0  0
  139.5020   69.4040  224.4660 C   0  0  0  0  0  0  0  0  0  0  0  0
  139.9770   69.7490  225.7140 C   0  0  0  0  0  0  0  0  0  0  0  0
  139.9090   68.9080  226.8090 C   0  0  0  0  0  0  0  0  0  0  0  0
  140.3870   69.2610  228.0570 C   0  0  0  0  0  0  0  0  0  0  0  0
  140.2980   68.3910  229.1130 F   0  0  0  0  0  0  0  0  0  0  0  0
  140.9680   70.5060  228.2560 C   0  0  0  0  0  0  0  0  0  0  0  0
  141.0440   71.3660  227.1590 C   0  0  0  0  0  0  0  0  0  0  0  0
  140.5600   70.9920  225.9230 C   0  0  0  0  0  0  0  0  0  0  0  0
  140.6480   71.8470  224.8830 N   0  0  0  0  0  0  0  0  0  0  0  0
  138.4540   73.3990  223.0050 H   0  0  0  0  0  0  0  0  0  0  0  0
  140.1927   74.0418  220.5837 H   0  0  0  0  0  0  0  0  0  0  0  0
  138.4379   74.4128  220.7170 H   0  0  0  0  0  0  0  0  0  0  0  0
  142.9129   75.9213  221.1706 H   0  0  0  0  0  0  0  0  0  0  0  0
  141.9081   74.6458  220.6133 H   0  0  0  0  0  0  0  0  0  0  0  0
  142.8476   76.3556  218.7462 H   0  0  0  0  0  0  0  0  0  0  0  0
  141.1309   76.0656  218.6210 H   0  0  0  0  0  0  0  0  0  0  0  0
  142.5966   78.4797  219.6314 H   0  0  0  0  0  0  0  0  0  0  0  0
  140.9270   78.3966  219.0686 H   0  0  0  0  0  0  0  0  0  0  0  0
  141.9552   78.0394  221.9483 H   0  0  0  0  0  0  0  0  0  0  0  0
  140.3146   79.4821  220.6114 H   0  0  0  0  0  0  0  0  0  0  0  0
  138.7530   77.7790  222.2970 H   0  0  0  0  0  0  0  0  0  0  0  0
  139.7238   80.3344  222.9442 H   0  0  0  0  0  0  0  0  0  0  0  0
  141.7470   80.6825  220.9366 H   0  0  0  0  0  0  0  0  0  0  0  0
  141.3516   81.8643  222.1916 H   0  0  0  0  0  0  0  0  0  0  0  0
  143.4765   79.6992  222.1720 H   0  0  0  0  0  0  0  0  0  0  0  0
  143.6323   81.3626  222.7207 H   0  0  0  0  0  0  0  0  0  0  0  0
  143.3444   79.4980  224.5715 H   0  0  0  0  0  0  0  0  0  0  0  0
  142.3129   80.8857  224.7668 H   0  0  0  0  0  0  0  0  0  0  0  0
  141.6780   78.1547  223.4772 H   0  0  0  0  0  0  0  0  0  0  0  0
  140.6778   79.0361  224.6288 H   0  0  0  0  0  0  0  0  0  0  0  0
  139.2136   70.0099  222.4058 H   0  0  0  0  0  0  0  0  0  0  0  0
  139.0440   68.4152  224.3157 H   0  0  0  0  0  0  0  0  0  0  0  0
  139.4546   67.9144  226.6816 H   0  0  0  0  0  0  0  0  0  0  0  0
  141.3543   70.8039  229.2419 H   0  0  0  0  0  0  0  0  0  0  0  0
  141.4983   72.3601  227.2827 H   0  0  0  0  0  0  0  0  0  0  0  0
  1  2  2  0
  2  3  1  0
  3  4  1  0
  4  5  1  0
  5  6  2  0
  5  7  1  0
  7  8  1  0
  8  9  1  0
  9 10  1  0
 10 11  1  0
 11 12  1  0
 12 13  1  0
 12 14  1  0
 14 15  1  0
 15 16  1  0
 16 17  1  0
 17 18  1  0
  2 19  1  0
 19 20  2  0
 20 21  1  0
 21 22  2  0
 22 23  1  0
 23 24  2  0
 24 25  1  0
 24 26  1  0
 26 27  2  0
 27 28  1  0
 28 29  2  0
 11  7  1  0
 18 14  1  0
 29 19  1  0
 28 22  1  0
  3 30  1  0
  4 31  1  0
  4 32  1  0
  8 33  1  0
  8 34  1  0
  9 35  1  0
  9 36  1  0
 10 37  1  0
 10 38  1  0
 11 39  1  1
 12 40  1  6
 13 41  1  0
 14 42  1  0
 15 43  1  0
 15 44  1  0
 16 45  1  0
 16 46  1  0
 17 47  1  0
 17 48  1  0
 18 49  1  0
 18 50  1  0
 20 51  1  0
 21 52  1  0
 23 53  1  0
 26 54  1  0
 27 55  1  0
M  END
>  <smiles>  (39) 
O=C(NCC(=O)N1CCC[C@H]1[C@@H](O)C1CCCC1)c1ccc2cc(F)ccc2n1

>  <score_type>  (39) 
oracle

>  <origin>  (39) 
autodockgpu

>  <m_score__min__energy>  (39) 
-9.0600000000000005

>  <m_primary>  (39) 
energy

>  <rmsd>  (39) 
1.9496983363624594

>  <m_score__min__rmsd>  (39) 
1.9496983363624594

>  <meeko>  (39) 
{"free_energy": -8.31, "intermolecular_energy": -10.4, "internal_energy": -2.33, "cluster_size": 39, "cluster_id": 1, "rank_in_cluster": 19}

>  <energy>  (39) 
-7.17

>  <cluster_rmsd>  (39) 
1.7

>  <cluster>  (39) 
1

$$$$

     RDKit          3D

 55 58  0  0  0  0  0  0  0  0999 V2000
  138.1520   71.0360  221.7720 O   0  0  0  0  0  0  0  0  0  0  0  0
  138.8640   71.4140  222.7120 C   0  0  0  0  0  0  0  0  0  0  0  0
  139.3710   72.7290  222.7180 N   0  0  0  0  0  0  0  0  0  0  0  0
  139.0520   73.6040  221.6320 C   0  0  0  0  0  0  0  0  0  0  0  0
  139.7760   74.9260  221.8100 C   0  0  0  0  0  0  0  0  0  0  0  0
  140.9540   74.8060  222.2280 O   0  0  0  0  0  0  0  0  0  0  0  0
  139.1130   76.1200  221.5110 N   0  0  0  0  0  0  0  0  0  0  0  0
  137.6340   76.1580  221.2730 C   0  0  0  0  0  0  0  0  0  0  0  0
  137.2800   77.1840  222.3490 C   0  0  0  0  0  0  0  0  0  0  0  0
  138.3790   78.2090  222.1870 C   0  0  0  0  0  0  0  0  0  0  0  0
  139.4670   77.4980  221.3570 C   0  0  1  0  0  0  0  0  0  0  0  0
  140.8270   77.9480  221.6970 C   0  0  1  0  0  0  0  0  0  0  0  0
  141.3930   77.3320  222.7820 O   0  0  0  0  0  0  0  0  0  0  0  0
  141.8010   78.1250  220.5880 C   0  0  0  0  0  0  0  0  0  0  0  0
  141.0880   78.7350  219.4010 C   0  0  0  0  0  0  0  0  0  0  0  0
  141.0500   77.6640  218.3630 C   0  0  0  0  0  0  0  0  0  0  0  0
  142.3240   76.9010  218.5750 C   0  0  0  0  0  0  0  0  0  0  0  0
  142.3630   76.7980  220.0980 C   0  0  0  0  0  0  0  0  0  0  0  0
  139.1900   70.5080  223.8300 C   0  0  0  0  0  0  0  0  0  0  0  0
  138.8580   69.1670  223.7290 C   0  0  0  0  0  0  0  0  0  0  0  0
  139.1800   68.3550  224.7970 C   0  0  0  0  0  0  0  0  0  0  0  0
  139.8060   68.8650  225.9150 C   0  0  0  0  0  0  0  0  0  0  0  0
  140.1480   68.0930  227.0100 C   0  0  0  0  0  0  0  0  0  0  0  0
  140.7750   68.6120  228.1270 C   0  0  0  0  0  0  0  0  0  0  0  0
  141.0950   67.8050  229.1890 F   0  0  0  0  0  0  0  0  0  0  0  0
  141.0890   69.9630  228.1880 C   0  0  0  0  0  0  0  0  0  0  0  0
  140.7500   70.7550  227.0900 C   0  0  0  0  0  0  0  0  0  0  0  0
  140.1250   70.2150  225.9860 C   0  0  0  0  0  0  0  0  0  0  0  0
  139.8090   71.0080  224.9410 N   0  0  0  0  0  0  0  0  0  0  0  0
  139.9740   73.0080  223.5400 H   0  0  0  0  0  0  0  0  0  0  0  0
  139.3651   73.1404  220.6849 H   0  0  0  0  0  0  0  0  0  0  0  0
  137.9667   73.7826  221.6151 H   0  0  0  0  0  0  0  0  0  0  0  0
  137.3823   76.5094  220.2615 H   0  0  0  0  0  0  0  0  0  0  0  0
  137.1080   75.1936  221.3296 H   0  0  0  0  0  0  0  0  0  0  0  0
  136.2904   77.6281  222.1664 H   0  0  0  0  0  0  0  0  0  0  0  0
  137.2188   76.7586  223.3616 H   0  0  0  0  0  0  0  0  0  0  0  0
  138.0050   79.0964  221.6553 H   0  0  0  0  0  0  0  0  0  0  0  0
  138.7622   78.5613  223.1560 H   0  0  0  0  0  0  0  0  0  0  0  0
  139.5027   77.7381  220.2841 H   0  0  0  0  0  0  0  0  0  0  0  0
  140.5924   78.9799  221.9971 H   0  0  0  0  0  0  0  0  0  0  0  0
  141.8820   76.5110  222.6280 H   0  0  0  0  0  0  0  0  0  0  0  0
  142.6144   78.7563  220.9751 H   0  0  0  0  0  0  0  0  0  0  0  0
  140.0674   79.0365  219.6794 H   0  0  0  0  0  0  0  0  0  0  0  0
  141.6015   79.6371  219.0369 H   0  0  0  0  0  0  0  0  0  0  0  0
  140.1760   77.0118  218.5072 H   0  0  0  0  0  0  0  0  0  0  0  0
  140.9655   78.0681  217.3434 H   0  0  0  0  0  0  0  0  0  0  0  0
  142.2808   75.9072  218.1054 H   0  0  0  0  0  0  0  0  0  0  0  0
  143.2121   77.3767  218.1334 H   0  0  0  0  0  0  0  0  0  0  0  0
  141.7407   75.9605  220.4465 H   0  0  0  0  0  0  0  0  0  0  0  0
  143.3783   76.6099  220.4772 H   0  0  0  0  0  0  0  0  0  0  0  0
  138.3585   68.7662  222.8347 H   0  0  0  0  0  0  0  0  0  0  0  0
  138.9335   67.2838  224.7561 H   0  0  0  0  0  0  0  0  0  0  0  0
  139.9107   67.0191  226.9913 H   0  0  0  0  0  0  0  0  0  0  0  0
  141.5868   70.3934  229.0695 H   0  0  0  0  0  0  0  0  0  0  0  0
  140.9857   71.8293  227.1056 H   0  0  0  0  0  0  0  0  0  0  0  0
  1  2  2  0
  2  3  1  0
  3  4  1  0
  4  5  1  0
  5  6  2  0
  5  7  1  0
  7  8  1  0
  8  9  1  0
  9 10  1  0
 10 11  1  0
 11 12  1  0
 12 13  1  0
 12 14  1  0
 14 15  1  0
 15 16  1  0
 16 17  1  0
 17 18  1  0
  2 19  1  0
 19 20  2  0
 20 21  1  0
 21 22  2  0
 22 23  1  0
 23 24  2  0
 24 25  1  0
 24 26  1  0
 26 27  2  0
 27 28  1  0
 28 29  2  0
 11  7  1  0
 18 14  1  0
 29 19  1  0
 28 22  1  0
  3 30  1  0
  4 31  1  0
  4 32  1  0
  8 33  1  0
  8 34  1  0
  9 35  1  0
  9 36  1  0
 10 37  1  0
 10 38  1  0
 11 39  1  6
 12 40  1  1
 13 41  1  0
 14 42  1  0
 15 43  1  0
 15 44  1  0
 16 45  1  0
 16 46  1  0
 17 47  1  0
 17 48  1  0
 18 49  1  0
 18 50  1  0
 20 51  1  0
 21 52  1  0
 23 53  1  0
 26 54  1  0
 27 55  1  0
M  END
>  <smiles>  (40) 
O=C(NCC(=O)N1CCC[C@H]1[C@@H](O)C1CCCC1)c1ccc2cc(F)ccc2n1

>  <score_type>  (40) 
oracle

>  <origin>  (40) 
autodockgpu

>  <m_score__min__energy>  (40) 
-9.0600000000000005

>  <m_primary>  (40) 
energy

>  <rmsd>  (40) 
2.443719868111216

>  <m_score__min__rmsd>  (40) 
2.443719868111216

>  <meeko>  (40) 
{"free_energy": -7.17, "intermolecular_energy": -9.26, "internal_energy": -2.91, "cluster_size": 39, "cluster_id": 1, "rank_in_cluster": 39}

>  <energy>  (40) 
-8.13

>  <cluster_rmsd>  (40) 
0.0

>  <cluster>  (40) 
2

$$$$

     RDKit          3D

 55 58  0  0  0  0  0  0  0  0999 V2000
  140.0500   71.1060  221.2790 O   0  0  0  0  0  0  0  0  0  0  0  0
  139.9700   71.6010  222.4110 C   0  0  0  0  0  0  0  0  0  0  0  0
  139.9440   73.0020  222.5610 N   0  0  0  0  0  0  0  0  0  0  0  0
  140.0100   73.8290  221.3960 C   0  0  0  0  0  0  0  0  0  0  0  0
  140.1090   75.2860  221.8070 C   0  0  0  0  0  0  0  0  0  0  0  0
  139.3020   75.6130  222.7110 O   0  0  0  0  0  0  0  0  0  0  0  0
  141.0430   76.1170  221.1800 N   0  0  0  0  0  0  0  0  0  0  0  0
  142.2030   75.5560  220.4150 C   0  0  0  0  0  0  0  0  0  0  0  0
  141.9170   76.2400  219.0800 C   0  0  0  0  0  0  0  0  0  0  0  0
  141.5450   77.6400  219.5110 C   0  0  0  0  0  0  0  0  0  0  0  0
  141.2430   77.5240  221.0190 C   0  0  1  0  0  0  0  0  0  0  0  0
  140.2040   78.4680  221.4660 C   0  0  1  0  0  0  0  0  0  0  0  0
  138.9540   77.9300  221.6270 O   0  0  0  0  0  0  0  0  0  0  0  0
  140.5470   79.4150  222.5600 C   0  0  0  0  0  0  0  0  0  0  0  0
  141.2550   80.6140  221.9690 C   0  0  0  0  0  0  0  0  0  0  0  0
  142.6640   80.5250  222.4500 C   0  0  0  0  0  0  0  0  0  0  0  0
  142.5480   79.9110  223.8140 C   0  0  0  0  0  0  0  0  0  0  0  0
  141.5200   78.8100  223.5620 C   0  0  0  0  0  0  0  0  0  0  0  0
  139.9030   70.7430  223.6100 C   0  0  0  0  0  0  0  0  0  0  0  0
  139.2840   69.5070  223.5220 C   0  0  0  0  0  0  0  0  0  0  0  0
  139.2420   68.7390  224.6670 C   0  0  0  0  0  0  0  0  0  0  0  0
  139.7950   69.1890  225.8470 C   0  0  0  0  0  0  0  0  0  0  0  0
  139.7780   68.4570  227.0190 C   0  0  0  0  0  0  0  0  0  0  0  0
  140.3340   68.9160  228.1990 C   0  0  0  0  0  0  0  0  0  0  0  0
  140.2930   68.1520  229.3370 F   0  0  0  0  0  0  0  0  0  0  0  0
  140.9450   70.1620  228.2450 C   0  0  0  0  0  0  0  0  0  0  0  0
  140.9710   70.9130  227.0680 C   0  0  0  0  0  0  0  0  0  0  0  0
  140.4090   70.4340  225.9030 C   0  0  0  0  0  0  0  0  0  0  0  0
  140.4490   71.1850  224.7830 N   0  0  0  0  0  0  0  0  0  0  0  0
  139.8760   73.3780  223.5460 H   0  0  0  0  0  0  0  0  0  0  0  0
  140.8954   73.5555  220.8033 H   0  0  0  0  0  0  0  0  0  0  0  0
  139.1016   73.6818  220.7933 H   0  0  0  0  0  0  0  0  0  0  0  0
  143.1707   75.8592  220.8412 H   0  0  0  0  0  0  0  0  0  0  0  0
  142.2846   74.4593  220.3913 H   0  0  0  0  0  0  0  0  0  0  0  0
  142.8084   76.2449  218.4355 H   0  0  0  0  0  0  0  0  0  0  0  0
  141.1382   75.7396  218.4857 H   0  0  0  0  0  0  0  0  0  0  0  0
  142.3805   78.3337  219.3359 H   0  0  0  0  0  0  0  0  0  0  0  0
  140.6869   78.0330  218.9459 H   0  0  0  0  0  0  0  0  0  0  0  0
  142.0371   77.8515  221.7061 H   0  0  0  0  0  0  0  0  0  0  0  0
  140.1655   79.1111  220.5744 H   0  0  0  0  0  0  0  0  0  0  0  0
  138.8490   77.2260  222.2830 H   0  0  0  0  0  0  0  0  0  0  0  0
  139.6041   79.6749  223.0634 H   0  0  0  0  0  0  0  0  0  0  0  0
  141.2213   80.5767  220.8701 H   0  0  0  0  0  0  0  0  0  0  0  0
  140.7798   81.5582  222.2734 H   0  0  0  0  0  0  0  0  0  0  0  0
  143.2641   79.8870  221.7845 H   0  0  0  0  0  0  0  0  0  0  0  0
  143.1657   81.5037  222.4693 H   0  0  0  0  0  0  0  0  0  0  0  0
  143.5089   79.4949  224.1510 H   0  0  0  0  0  0  0  0  0  0  0  0
  142.2622   80.6210  224.6041 H   0  0  0  0  0  0  0  0  0  0  0  0
  142.0038   77.9158  223.1421 H   0  0  0  0  0  0  0  0  0  0  0  0
  141.0194   78.4872  224.4868 H   0  0  0  0  0  0  0  0  0  0  0  0
  138.8441   69.1526  222.5781 H   0  0  0  0  0  0  0  0  0  0  0  0
  138.7592   67.7510  224.6381 H   0  0  0  0  0  0  0  0  0  0  0  0
  139.3013   67.4657  227.0130 H   0  0  0  0  0  0  0  0  0  0  0  0
  141.3923   70.5436  229.1747 H   0  0  0  0  0  0  0  0  0  0  0  0
  141.4481   71.9041  227.0700 H   0  0  0  0  0  0  0  0  0  0  0  0
  1  2  2  0
  2  3  1  0
  3  4  1  0
  4  5  1  0
  5  6  2  0
  5  7  1  0
  7  8  1  0
  8  9  1  0
  9 10  1  0
 10 11  1  0
 11 12  1  0
 12 13  1  0
 12 14  1  0
 14 15  1  0
 15 16  1  0
 16 17  1  0
 17 18  1  0
  2 19  1  0
 19 20  2  0
 20 21  1  0
 21 22  2  0
 22 23  1  0
 23 24  2  0
 24 25  1  0
 24 26  1  0
 26 27  2  0
 27 28  1  0
 28 29  2  0
 11  7  1  0
 18 14  1  0
 29 19  1  0
 28 22  1  0
  3 30  1  0
  4 31  1  0
  4 32  1  0
  8 33  1  0
  8 34  1  0
  9 35  1  0
  9 36  1  0
 10 37  1  0
 10 38  1  0
 11 39  1  1
 12 40  1  6
 13 41  1  0
 14 42  1  0
 15 43  1  0
 15 44  1  0
 16 45  1  0
 16 46  1  0
 17 47  1  0
 17 48  1  0
 18 49  1  0
 18 50  1  0
 20 51  1  0
 21 52  1  0
 23 53  1  0
 26 54  1  0
 27 55  1  0
M  END
>  <smiles>  (41) 
O=C(NCC(=O)N1CCC[C@H]1[C@@H](O)C1CCCC1)c1ccc2cc(F)ccc2n1

>  <score_type>  (41) 
oracle

>  <origin>  (41) 
autodockgpu

>  <m_score__min__energy>  (41) 
-9.0600000000000005

>  <m_primary>  (41) 
energy

>  <rmsd>  (41) 
1.8254085124346575

>  <m_score__min__rmsd>  (41) 
1.8254085124346575

>  <meeko>  (41) 
{"free_energy": -8.07, "intermolecular_energy": -10.16, "internal_energy": -2.64, "cluster_size": 39, "cluster_id": 1, "rank_in_cluster": 35}

>  <energy>  (41) 
-7.86

>  <cluster_rmsd>  (41) 
1.35

>  <cluster>  (41) 
2

$$$$

     RDKit          3D

 55 58  0  0  0  0  0  0  0  0999 V2000
  140.9920   72.6190  221.8560 O   0  0  0  0  0  0  0  0  0  0  0  0
  139.9360   72.5240  222.4960 C   0  0  0  0  0  0  0  0  0  0  0  0
  138.8240   73.3080  222.1290 N   0  0  0  0  0  0  0  0  0  0  0  0
  138.9380   74.2020  221.0190 C   0  0  0  0  0  0  0  0  0  0  0  0
  139.0290   75.6320  221.5190 C   0  0  0  0  0  0  0  0  0  0  0  0
  137.9180   76.1330  221.8220 O   0  0  0  0  0  0  0  0  0  0  0  0
  140.2770   76.2560  221.6000 N   0  0  0  0  0  0  0  0  0  0  0  0
  141.5100   75.6210  221.0330 C   0  0  0  0  0  0  0  0  0  0  0  0
  141.9150   76.7580  220.0980 C   0  0  0  0  0  0  0  0  0  0  0  0
  141.6850   77.9790  220.9600 C   0  0  0  0  0  0  0  0  0  0  0  0
  140.7960   77.4840  222.1190 C   0  0  1  0  0  0  0  0  0  0  0  0
  139.8730   78.5210  222.6110 C   0  0  1  0  0  0  0  0  0  0  0  0
  138.6860   78.0570  223.1140 O   0  0  0  0  0  0  0  0  0  0  0  0
  140.4360   79.6190  223.4410 C   0  0  0  0  0  0  0  0  0  0  0  0
  140.6290   80.8420  222.5710 C   0  0  0  0  0  0  0  0  0  0  0  0
  142.1050   81.0190  222.4490 C   0  0  0  0  0  0  0  0  0  0  0  0
  142.6410   80.5420  223.7670 C   0  0  0  0  0  0  0  0  0  0  0  0
  141.8140   79.2780  223.9890 C   0  0  0  0  0  0  0  0  0  0  0  0
  139.8240   71.6000  223.6400 C   0  0  0  0  0  0  0  0  0  0  0  0
  139.0490   70.4590  223.5130 C   0  0  0  0  0  0  0  0  0  0  0  0
  138.9710   69.6230  224.6070 C   0  0  0  0  0  0  0  0  0  0  0  0
  139.6380   69.9180  225.7780 C   0  0  0  0  0  0  0  0  0  0  0  0
  139.5900   69.1130  226.9000 C   0  0  0  0  0  0  0  0  0  0  0  0
  140.2620   69.4160  228.0700 C   0  0  0  0  0  0  0  0  0  0  0  0
  140.1840   68.5860  229.1580 F   0  0  0  0  0  0  0  0  0  0  0  0
  141.0280   70.5710  228.1560 C   0  0  0  0  0  0  0  0  0  0  0  0
  141.0860   71.3940  227.0300 C   0  0  0  0  0  0  0  0  0  0  0  0
  140.4070   71.0710  225.8740 C   0  0  0  0  0  0  0  0  0  0  0  0
  140.4830   71.8870  224.8030 N   0  0  0  0  0  0  0  0  0  0  0  0
  137.9450   73.1930  222.7040 H   0  0  0  0  0  0  0  0  0  0  0  0
  139.8436   73.9575  220.4445 H   0  0  0  0  0  0  0  0  0  0  0  0
  138.0520   74.0975  220.3756 H   0  0  0  0  0  0  0  0  0  0  0  0
  142.2698   75.4228  221.8033 H   0  0  0  0  0  0  0  0  0  0  0  0
  141.3770   74.6335  220.5671 H   0  0  0  0  0  0  0  0  0  0  0  0
  142.9707   76.6729  219.8008 H   0  0  0  0  0  0  0  0  0  0  0  0
  141.3529   76.7732  219.1526 H   0  0  0  0  0  0  0  0  0  0  0  0
  142.6400   78.3677  221.3434 H   0  0  0  0  0  0  0  0  0  0  0  0
  141.2149   78.7999  220.3987 H   0  0  0  0  0  0  0  0  0  0  0  0
  141.3017   77.2799  223.0743 H   0  0  0  0  0  0  0  0  0  0  0  0
  139.6480   79.0139  221.6537 H   0  0  0  0  0  0  0  0  0  0  0  0
  138.0770   77.6210  222.5000 H   0  0  0  0  0  0  0  0  0  0  0  0
  139.7332   79.7846  224.2709 H   0  0  0  0  0  0  0  0  0  0  0  0
  140.1782   80.6834  221.5802 H   0  0  0  0  0  0  0  0  0  0  0  0
  140.1472   81.7304  223.0053 H   0  0  0  0  0  0  0  0  0  0  0  0
  142.5040   80.4125  221.6226 H   0  0  0  0  0  0  0  0  0  0  0  0
  142.3888   82.0588  222.2292 H   0  0  0  0  0  0  0  0  0  0  0  0
  143.7154   80.3142  223.7057 H   0  0  0  0  0  0  0  0  0  0  0  0
  142.5609   81.2801  224.5787 H   0  0  0  0  0  0  0  0  0  0  0  0
  142.2495   78.4282  223.4430 H   0  0  0  0  0  0  0  0  0  0  0  0
  141.7801   78.9826  225.0480 H   0  0  0  0  0  0  0  0  0  0  0  0
  138.5175   70.2291  222.5778 H   0  0  0  0  0  0  0  0  0  0  0  0
  138.3669   68.7058  224.5449 H   0  0  0  0  0  0  0  0  0  0  0  0
  138.9912   68.1911  226.8608 H   0  0  0  0  0  0  0  0  0  0  0  0
  141.5696   70.8282  229.0782 H   0  0  0  0  0  0  0  0  0  0  0  0
  141.6840   72.3166  227.0654 H   0  0  0  0  0  0  0  0  0  0  0  0
  1  2  2  0
  2  3  1  0
  3  4  1  0
  4  5  1  0
  5  6  2  0
  5  7  1  0
  7  8  1  0
  8  9  1  0
  9 10  1  0
 10 11  1  0
 11 12  1  0
 12 13  1  0
 12 14  1  0
 14 15  1  0
 15 16  1  0
 16 17  1  0
 17 18  1  0
  2 19  1  0
 19 20  2  0
 20 21  1  0
 21 22  2  0
 22 23  1  0
 23 24  2  0
 24 25  1  0
 24 26  1  0
 26 27  2  0
 27 28  1  0
 28 29  2  0
 11  7  1  0
 18 14  1  0
 29 19  1  0
 28 22  1  0
  3 30  1  0
  4 31  1  0
  4 32  1  0
  8 33  1  0
  8 34  1  0
  9 35  1  0
  9 36  1  0
 10 37  1  0
 10 38  1  0
 11 39  1  1
 12 40  1  6
 13 41  1  0
 14 42  1  0
 15 43  1  0
 15 44  1  0
 16 45  1  0
 16 46  1  0
 17 47  1  0
 17 48  1  0
 18 49  1  0
 18 50  1  0
 20 51  1  0
 21 52  1  0
 23 53  1  0
 26 54  1  0
 27 55  1  0
M  END
>  <smiles>  (42) 
O=C(NCC(=O)N1CCC[C@H]1[C@@H](O)C1CCCC1)c1ccc2cc(F)ccc2n1

>  <score_type>  (42) 
oracle

>  <origin>  (42) 
autodockgpu

>  <m_score__min__energy>  (42) 
-9.0600000000000005

>  <m_primary>  (42) 
energy

>  <rmsd>  (42) 
2.1534012286096638

>  <m_score__min__rmsd>  (42) 
2.1534012286096638

>  <meeko>  (42) 
{"free_energy": -8.45, "intermolecular_energy": -10.54, "internal_energy": -2.12, "cluster_size": 39, "cluster_id": 1, "rank_in_cluster": 17}

>  <energy>  (42) 
-7.64

>  <cluster_rmsd>  (42) 
1.81

>  <cluster>  (42) 
2

$$$$

     RDKit          3D

 55 58  0  0  0  0  0  0  0  0999 V2000
  141.0150   71.3770  221.3580 O   0  0  0  0  0  0  0  0  0  0  0  0
  140.4520   71.9060  222.3260 C   0  0  0  0  0  0  0  0  0  0  0  0
  140.0800   73.2630  222.2600 N   0  0  0  0  0  0  0  0  0  0  0  0
  140.3590   74.0070  221.0710 C   0  0  0  0  0  0  0  0  0  0  0  0
  140.5330   75.4750  221.4120 C   0  0  0  0  0  0  0  0  0  0  0  0
  139.9710   75.8150  222.4830 O   0  0  0  0  0  0  0  0  0  0  0  0
  141.2670   76.3000  220.5550 N   0  0  0  0  0  0  0  0  0  0  0  0
  141.6420   75.8590  219.1730 C   0  0  0  0  0  0  0  0  0  0  0  0
  141.0000   77.0150  218.4080 C   0  0  0  0  0  0  0  0  0  0  0  0
  141.3840   78.2100  219.2510 C   0  0  0  0  0  0  0  0  0  0  0  0
  141.8290   77.6150  220.6030 C   0  0  1  0  0  0  0  0  0  0  0  0
  141.5280   78.5010  221.7410 C   0  0  1  0  0  0  0  0  0  0  0  0
  141.5290   77.8950  222.9700 O   0  0  0  0  0  0  0  0  0  0  0  0
  142.1830   79.8350  221.7780 C   0  0  0  0  0  0  0  0  0  0  0  0
  142.9140   79.9860  223.0940 C   0  0  0  0  0  0  0  0  0  0  0  0
  142.1630   81.0270  223.8540 C   0  0  0  0  0  0  0  0  0  0  0  0
  141.6550   81.9590  222.7930 C   0  0  0  0  0  0  0  0  0  0  0  0
  141.1740   80.9730  221.7310 C   0  0  0  0  0  0  0  0  0  0  0  0
  140.1660   71.1350  223.5500 C   0  0  0  0  0  0  0  0  0  0  0  0
  139.5050   69.9220  223.4450 C   0  0  0  0  0  0  0  0  0  0  0  0
  139.2560   69.2350  224.6150 C   0  0  0  0  0  0  0  0  0  0  0  0
  139.6510   69.7410  225.8360 C   0  0  0  0  0  0  0  0  0  0  0  0
  139.4240   69.0910  227.0340 C   0  0  0  0  0  0  0  0  0  0  0  0
  139.8240   69.6040  228.2540 C   0  0  0  0  0  0  0  0  0  0  0  0
  139.5770   68.9210  229.4170 F   0  0  0  0  0  0  0  0  0  0  0  0
  140.4840   70.8240  228.3150 C   0  0  0  0  0  0  0  0  0  0  0  0
  140.7200   71.4930  227.1130 C   0  0  0  0  0  0  0  0  0  0  0  0
  140.3120   70.9610  225.9080 C   0  0  0  0  0  0  0  0  0  0  0  0
  140.5550   71.6310  224.7630 N   0  0  0  0  0  0  0  0  0  0  0  0
  139.6020   73.6720  223.1100 H   0  0  0  0  0  0  0  0  0  0  0  0
  141.2831   73.6270  220.6109 H   0  0  0  0  0  0  0  0  0  0  0  0
  139.5210   73.8946  220.3673 H   0  0  0  0  0  0  0  0  0  0  0  0
  142.7317   75.8167  219.0291 H   0  0  0  0  0  0  0  0  0  0  0  0
  141.3222   74.8474  218.8825 H   0  0  0  0  0  0  0  0  0  0  0  0
  141.4104   77.0964  217.3907 H   0  0  0  0  0  0  0  0  0  0  0  0
  139.9145   76.9034  218.2697 H   0  0  0  0  0  0  0  0  0  0  0  0
  142.2096   78.7653  218.7820 H   0  0  0  0  0  0  0  0  0  0  0  0
  140.5524   78.9210  219.3649 H   0  0  0  0  0  0  0  0  0  0  0  0
  142.9128   77.5317  220.7713 H   0  0  0  0  0  0  0  0  0  0  0  0
  140.4815   78.7381  221.4989 H   0  0  0  0  0  0  0  0  0  0  0  0
  141.7520   76.9530  223.0070 H   0  0  0  0  0  0  0  0  0  0  0  0
  142.8491   79.8883  220.9042 H   0  0  0  0  0  0  0  0  0  0  0  0
  142.9137   79.0338  223.6447 H   0  0  0  0  0  0  0  0  0  0  0  0
  143.9658   80.2712  222.9445 H   0  0  0  0  0  0  0  0  0  0  0  0
  141.3280   80.5774  224.4113 H   0  0  0  0  0  0  0  0  0  0  0  0
  142.7883   81.5380  224.6010 H   0  0  0  0  0  0  0  0  0  0  0  0
  140.8293   82.5823  223.1667 H   0  0  0  0  0  0  0  0  0  0  0  0
  142.4034   82.6796  222.4315 H   0  0  0  0  0  0  0  0  0  0  0  0
  140.1646   80.6070  221.9698 H   0  0  0  0  0  0  0  0  0  0  0  0
  141.1101   81.4327  220.7337 H   0  0  0  0  0  0  0  0  0  0  0  0
  139.1917   69.5232  222.4689 H   0  0  0  0  0  0  0  0  0  0  0  0
  138.7338   68.2677  224.5737 H   0  0  0  0  0  0  0  0  0  0  0  0
  138.9021   68.1229  227.0163 H   0  0  0  0  0  0  0  0  0  0  0  0
  140.8093   71.2482  229.2764 H   0  0  0  0  0  0  0  0  0  0  0  0
  141.2407   72.4618  227.1272 H   0  0  0  0  0  0  0  0  0  0  0  0
  1  2  2  0
  2  3  1  0
  3  4  1  0
  4  5  1  0
  5  6  2  0
  5  7  1  0
  7  8  1  0
  8  9  1  0
  9 10  1  0
 10 11  1  0
 11 12  1  0
 12 13  1  0
 12 14  1  0
 14 15  1  0
 15 16  1  0
 16 17  1  0
 17 18  1  0
  2 19  1  0
 19 20  2  0
 20 21  1  0
 21 22  2  0
 22 23  1  0
 23 24  2  0
 24 25  1  0
 24 26  1  0
 26 27  2  0
 27 28  1  0
 28 29  2  0
 11  7  1  0
 18 14  1  0
 29 19  1  0
 28 22  1  0
  3 30  1  0
  4 31  1  0
  4 32  1  0
  8 33  1  0
  8 34  1  0
  9 35  1  0
  9 36  1  0
 10 37  1  0
 10 38  1  0
 11 39  1  6
 12 40  1  6
 13 41  1  0
 14 42  1  0
 15 43  1  0
 15 44  1  0
 16 45  1  0
 16 46  1  0
 17 47  1  0
 17 48  1  0
 18 49  1  0
 18 50  1  0
 20 51  1  0
 21 52  1  0
 23 53  1  0
 26 54  1  0
 27 55  1  0
M  END
>  <smiles>  (43) 
O=C(NCC(=O)N1CCC[C@H]1[C@@H](O)C1CCCC1)c1ccc2cc(F)ccc2n1

>  <score_type>  (43) 
oracle

>  <origin>  (43) 
autodockgpu

>  <m_score__min__energy>  (43) 
-9.0600000000000005

>  <m_primary>  (43) 
energy

>  <rmsd>  (43) 
1.6974051918970468

>  <m_score__min__rmsd>  (43) 
1.6974051918970468

>  <meeko>  (43) 
{"free_energy": -8.54, "intermolecular_energy": -10.63, "internal_energy": -2.53, "cluster_size": 39, "cluster_id": 1, "rank_in_cluster": 10}

>  <energy>  (43) 
-7.04

>  <cluster_rmsd>  (43) 
1.01

>  <cluster>  (43) 
2

$$$$

     RDKit          3D

 55 58  0  0  0  0  0  0  0  0999 V2000
  141.1200   71.5520  221.2390 O   0  0  0  0  0  0  0  0  0  0  0  0
  140.5330   72.0030  222.2310 C   0  0  0  0  0  0  0  0  0  0  0  0
  140.1000   73.3440  222.2380 N   0  0  0  0  0  0  0  0  0  0  0  0
  140.3470   74.1620  221.0910 C   0  0  0  0  0  0  0  0  0  0  0  0
  140.4940   75.6110  221.5160 C   0  0  0  0  0  0  0  0  0  0  0  0
  139.9550   75.8710  222.6190 O   0  0  0  0  0  0  0  0  0  0  0  0
  141.1840   76.5050  220.6910 N   0  0  0  0  0  0  0  0  0  0  0  0
  141.5730   76.1390  219.2910 C   0  0  0  0  0  0  0  0  0  0  0  0
  140.8720   77.2930  218.5760 C   0  0  0  0  0  0  0  0  0  0  0  0
  141.2030   78.4690  219.4660 C   0  0  0  0  0  0  0  0  0  0  0  0
  141.6820   77.8420  220.7920 C   0  0  1  0  0  0  0  0  0  0  0  0
  141.3450   78.6650  221.9650 C   0  0  1  0  0  0  0  0  0  0  0  0
  141.3550   78.0030  223.1660 O   0  0  0  0  0  0  0  0  0  0  0  0
  141.9590   80.0150  222.0700 C   0  0  0  0  0  0  0  0  0  0  0  0
  143.3170   79.8870  222.7250 C   0  0  0  0  0  0  0  0  0  0  0  0
  143.1780   80.5320  224.0630 C   0  0  0  0  0  0  0  0  0  0  0  0
  142.1950   81.6420  223.8360 C   0  0  0  0  0  0  0  0  0  0  0  0
  141.1520   80.9470  222.9630 C   0  0  0  0  0  0  0  0  0  0  0  0
  140.2810   71.1550  223.4130 C   0  0  0  0  0  0  0  0  0  0  0  0
  139.5550   69.9850  223.2610 C   0  0  0  0  0  0  0  0  0  0  0  0
  139.3410   69.2230  224.3910 C   0  0  0  0  0  0  0  0  0  0  0  0
  139.8320   69.6170  225.6180 C   0  0  0  0  0  0  0  0  0  0  0  0
  139.6440   68.8890  226.7770 C   0  0  0  0  0  0  0  0  0  0  0  0
  140.1390   69.2910  228.0040 C   0  0  0  0  0  0  0  0  0  0  0  0
  139.9270   68.5340  229.1270 F   0  0  0  0  0  0  0  0  0  0  0  0
  140.8610   70.4710  228.1130 C   0  0  0  0  0  0  0  0  0  0  0  0
  141.0600   71.2170  226.9500 C   0  0  0  0  0  0  0  0  0  0  0  0
  140.5560   70.7970  225.7370 C   0  0  0  0  0  0  0  0  0  0  0  0
  140.7650   71.5410  224.6320 N   0  0  0  0  0  0  0  0  0  0  0  0
  139.6040   73.6850  223.1070 H   0  0  0  0  0  0  0  0  0  0  0  0
  141.2727   73.8302  220.5982 H   0  0  0  0  0  0  0  0  0  0  0  0
  139.5025   74.0722  220.3918 H   0  0  0  0  0  0  0  0  0  0  0  0
  142.6628   76.1553  219.1421 H   0  0  0  0  0  0  0  0  0  0  0  0
  141.3010   75.1257  218.9604 H   0  0  0  0  0  0  0  0  0  0  0  0
  141.2725   77.4356  217.5615 H   0  0  0  0  0  0  0  0  0  0  0  0
  139.7923   77.1351  218.4366 H   0  0  0  0  0  0  0  0  0  0  0  0
  141.9993   79.0814  219.0177 H   0  0  0  0  0  0  0  0  0  0  0  0
  140.3390   79.1342  219.6112 H   0  0  0  0  0  0  0  0  0  0  0  0
  142.7692   77.8044  220.9551 H   0  0  0  0  0  0  0  0  0  0  0  0
  140.2941   78.8816  221.7230 H   0  0  0  0  0  0  0  0  0  0  0  0
  141.6770   77.0900  223.1730 H   0  0  0  0  0  0  0  0  0  0  0  0
  142.0080   80.4239  221.0500 H   0  0  0  0  0  0  0  0  0  0  0  0
  143.5918   78.8277  222.8358 H   0  0  0  0  0  0  0  0  0  0  0  0
  144.1060   80.3621  222.1235 H   0  0  0  0  0  0  0  0  0  0  0  0
  142.7931   79.8154  224.8035 H   0  0  0  0  0  0  0  0  0  0  0  0
  144.1386   80.8941  224.4580 H   0  0  0  0  0  0  0  0  0  0  0  0
  141.7582   81.9925  224.7828 H   0  0  0  0  0  0  0  0  0  0  0  0
  142.6320   82.5440  223.3827 H   0  0  0  0  0  0  0  0  0  0  0  0
  140.4452   80.3757  223.5827 H   0  0  0  0  0  0  0  0  0  0  0  0
  140.5493   81.6619  222.3837 H   0  0  0  0  0  0  0  0  0  0  0  0
  139.1652   69.6763  222.2798 H   0  0  0  0  0  0  0  0  0  0  0  0
  138.7697   68.2863  224.3120 H   0  0  0  0  0  0  0  0  0  0  0  0
  139.0759   67.9487  226.7213 H   0  0  0  0  0  0  0  0  0  0  0  0
  141.2620   70.8064  229.0808 H   0  0  0  0  0  0  0  0  0  0  0  0
  141.6291   72.1569  227.0021 H   0  0  0  0  0  0  0  0  0  0  0  0
  1  2  2  0
  2  3  1  0
  3  4  1  0
  4  5  1  0
  5  6  2  0
  5  7  1  0
  7  8  1  0
  8  9  1  0
  9 10  1  0
 10 11  1  0
 11 12  1  0
 12 13  1  0
 12 14  1  0
 14 15  1  0
 15 16  1  0
 16 17  1  0
 17 18  1  0
  2 19  1  0
 19 20  2  0
 20 21  1  0
 21 22  2  0
 22 23  1  0
 23 24  2  0
 24 25  1  0
 24 26  1  0
 26 27  2  0
 27 28  1  0
 28 29  2  0
 11  7  1  0
 18 14  1  0
 29 19  1  0
 28 22  1  0
  3 30  1  0
  4 31  1  0
  4 32  1  0
  8 33  1  0
  8 34  1  0
  9 35  1  0
  9 36  1  0
 10 37  1  0
 10 38  1  0
 11 39  1  6
 12 40  1  6
 13 41  1  0
 14 42  1  0
 15 43  1  0
 15 44  1  0
 16 45  1  0
 16 46  1  0
 17 47  1  0
 17 48  1  0
 18 49  1  0
 18 50  1  0
 20 51  1  0
 21 52  1  0
 23 53  1  0
 26 54  1  0
 27 55  1  0
M  END
>  <smiles>  (44) 
O=C(NCC(=O)N1CCC[C@H]1[C@@H](O)C1CCCC1)c1ccc2cc(F)ccc2n1

>  <score_type>  (44) 
oracle

>  <origin>  (44) 
autodockgpu

>  <m_score__min__energy>  (44) 
-9.0600000000000005

>  <m_primary>  (44) 
energy

>  <rmsd>  (44) 
1.7449915147397472

>  <m_score__min__rmsd>  (44) 
1.7449915147397472

>  <meeko>  (44) 
{"free_energy": -8.62, "intermolecular_energy": -10.71, "internal_energy": -2.49, "cluster_size": 39, "cluster_id": 1, "rank_in_cluster": 8}

>  <energy>  (44) 
-7.92

>  <cluster_rmsd>  (44) 
0.0

>  <cluster>  (44) 
3

$$$$

     RDKit          3D

 55 58  0  0  0  0  0  0  0  0999 V2000
  139.6550   75.7190  220.4070 O   0  0  0  0  0  0  0  0  0  0  0  0
  139.3520   75.9800  221.5780 C   0  0  0  0  0  0  0  0  0  0  0  0
  138.6480   75.0300  222.3450 N   0  0  0  0  0  0  0  0  0  0  0  0
  138.2990   73.7760  221.7520 C   0  0  0  0  0  0  0  0  0  0  0  0
  139.2550   72.6980  222.2280 C   0  0  0  0  0  0  0  0  0  0  0  0
  140.4380   73.0970  222.3660 O   0  0  0  0  0  0  0  0  0  0  0  0
  138.7760   71.4070  222.4670 N   0  0  0  0  0  0  0  0  0  0  0  0
  137.8770   70.7120  221.4900 C   0  0  0  0  0  0  0  0  0  0  0  0
  138.7390   69.4690  221.2680 C   0  0  0  0  0  0  0  0  0  0  0  0
  139.1910   69.1390  222.6720 C   0  0  0  0  0  0  0  0  0  0  0  0
  138.9140   70.4170  223.4900 C   0  0  1  0  0  0  0  0  0  0  0  0
  139.8860   70.6170  224.5790 C   0  0  1  0  0  0  0  0  0  0  0  0
  140.3920   71.8860  224.6850 O   0  0  0  0  0  0  0  0  0  0  0  0
  139.5740   70.0310  225.9080 C   0  0  0  0  0  0  0  0  0  0  0  0
  140.8670   69.8020  226.6600 C   0  0  0  0  0  0  0  0  0  0  0  0
  141.0270   68.3210  226.7400 C   0  0  0  0  0  0  0  0  0  0  0  0
  139.6220   67.8050  226.8380 C   0  0  0  0  0  0  0  0  0  0  0  0
  138.9120   68.6650  225.7950 C   0  0  0  0  0  0  0  0  0  0  0  0
  139.7150   77.2750  222.1860 C   0  0  0  0  0  0  0  0  0  0  0  0
  138.7130   78.0900  222.6850 C   0  0  0  0  0  0  0  0  0  0  0  0
  139.0960   79.2920  223.2430 C   0  0  0  0  0  0  0  0  0  0  0  0
  140.4240   79.6600  223.2980 C   0  0  0  0  0  0  0  0  0  0  0  0
  140.8570   80.8520  223.8460 C   0  0  0  0  0  0  0  0  0  0  0  0
  142.1910   81.2140  223.8970 C   0  0  0  0  0  0  0  0  0  0  0  0
  142.5720   82.4080  224.4520 F   0  0  0  0  0  0  0  0  0  0  0  0
  143.1640   80.3670  223.3850 C   0  0  0  0  0  0  0  0  0  0  0  0
  142.7420   79.1590  222.8280 C   0  0  0  0  0  0  0  0  0  0  0  0
  141.4060   78.8190  222.7880 C   0  0  0  0  0  0  0  0  0  0  0  0
  141.0290   77.6440  222.2430 N   0  0  0  0  0  0  0  0  0  0  0  0
  138.4100   75.2960  223.3400 H   0  0  0  0  0  0  0  0  0  0  0  0
  137.2725   73.5079  222.0425 H   0  0  0  0  0  0  0  0  0  0  0  0
  138.3643   73.8615  220.6573 H   0  0  0  0  0  0  0  0  0  0  0  0
  136.8963   70.4684  221.9245 H   0  0  0  0  0  0  0  0  0  0  0  0
  137.6052   71.2820  220.5893 H   0  0  0  0  0  0  0  0  0  0  0  0
  138.1498   68.6471  220.8352 H   0  0  0  0  0  0  0  0  0  0  0  0
  139.5683   69.6270  220.5628 H   0  0  0  0  0  0  0  0  0  0  0  0
  138.6174   68.2907  223.0737 H   0  0  0  0  0  0  0  0  0  0  0  0
  140.2509   68.8468  222.7074 H   0  0  0  0  0  0  0  0  0  0  0  0
  138.0051   70.4178  224.1097 H   0  0  0  0  0  0  0  0  0  0  0  0
  140.6965   69.9759  224.2020 H   0  0  0  0  0  0  0  0  0  0  0  0
  139.8440   72.6170  224.3620 H   0  0  0  0  0  0  0  0  0  0  0  0
  138.8972   70.7343  226.4153 H   0  0  0  0  0  0  0  0  0  0  0  0
  141.7118   70.2508  226.1170 H   0  0  0  0  0  0  0  0  0  0  0  0
  140.8449   70.2637  227.6582 H   0  0  0  0  0  0  0  0  0  0  0  0
  141.5234   67.9328  225.8384 H   0  0  0  0  0  0  0  0  0  0  0  0
  141.6510   68.0095  227.5907 H   0  0  0  0  0  0  0  0  0  0  0  0
  139.5671   66.7363  226.5832 H   0  0  0  0  0  0  0  0  0  0  0  0
  139.1879   67.8712  227.8465 H   0  0  0  0  0  0  0  0  0  0  0  0
  139.0524   68.2477  224.7870 H   0  0  0  0  0  0  0  0  0  0  0  0
  137.8260   68.7127  225.9632 H   0  0  0  0  0  0  0  0  0  0  0  0
  137.6554   77.7913  222.6384 H   0  0  0  0  0  0  0  0  0  0  0  0
  138.3298   79.9679  223.6507 H   0  0  0  0  0  0  0  0  0  0  0  0
  140.1082   81.5434  224.2598 H   0  0  0  0  0  0  0  0  0  0  0  0
  144.2296   80.6381  223.4171 H   0  0  0  0  0  0  0  0  0  0  0  0
  143.4884   78.4655  222.4134 H   0  0  0  0  0  0  0  0  0  0  0  0
  1  2  2  0
  2  3  1  0
  3  4  1  0
  4  5  1  0
  5  6  2  0
  5  7  1  0
  7  8  1  0
  8  9  1  0
  9 10  1  0
 10 11  1  0
 11 12  1  0
 12 13  1  0
 12 14  1  0
 14 15  1  0
 15 16  1  0
 16 17  1  0
 17 18  1  0
  2 19  1  0
 19 20  2  0
 20 21  1  0
 21 22  2  0
 22 23  1  0
 23 24  2  0
 24 25  1  0
 24 26  1  0
 26 27  2  0
 27 28  1  0
 28 29  2  0
 11  7  1  0
 18 14  1  0
 29 19  1  0
 28 22  1  0
  3 30  1  0
  4 31  1  0
  4 32  1  0
  8 33  1  0
  8 34  1  0
  9 35  1  0
  9 36  1  0
 10 37  1  0
 10 38  1  0
 11 39  1  1
 12 40  1  6
 13 41  1  0
 14 42  1  0
 15 43  1  0
 15 44  1  0
 16 45  1  0
 16 46  1  0
 17 47  1  0
 17 48  1  0
 18 49  1  0
 18 50  1  0
 20 51  1  0
 21 52  1  0
 23 53  1  0
 26 54  1  0
 27 55  1  0
M  END
>  <smiles>  (45) 
O=C(NCC(=O)N1CCC[C@H]1[C@@H](O)C1CCCC1)c1ccc2cc(F)ccc2n1

>  <score_type>  (45) 
oracle

>  <origin>  (45) 
autodockgpu

>  <m_score__min__energy>  (45) 
-9.0600000000000005

>  <m_primary>  (45) 
energy

>  <rmsd>  (45) 
8.455165324205664

>  <m_score__min__rmsd>  (45) 
8.455165324205664

>  <meeko>  (45) 
{"free_energy": -8.13, "intermolecular_energy": -10.22, "internal_energy": -1.87, "cluster_size": 4, "cluster_id": 2, "rank_in_cluster": 1}

>  <energy>  (45) 
-7.83

>  <cluster_rmsd>  (45) 
1.82

>  <cluster>  (45) 
3

$$$$

     RDKit          3D

 55 58  0  0  0  0  0  0  0  0999 V2000
  141.1140   71.8050  221.2650 O   0  0  0  0  0  0  0  0  0  0  0  0
  140.5160   72.2620  222.2480 C   0  0  0  0  0  0  0  0  0  0  0  0
  140.0820   73.6020  222.2400 N   0  0  0  0  0  0  0  0  0  0  0  0
  140.3400   74.4120  221.0900 C   0  0  0  0  0  0  0  0  0  0  0  0
  140.5490   75.8540  221.5150 C   0  0  0  0  0  0  0  0  0  0  0  0
  139.8630   76.1930  222.5100 O   0  0  0  0  0  0  0  0  0  0  0  0
  141.4440   76.6590  220.8040 N   0  0  0  0  0  0  0  0  0  0  0  0
  142.6120   76.0750  220.0710 C   0  0  0  0  0  0  0  0  0  0  0  0
  142.2840   76.6310  218.6860 C   0  0  0  0  0  0  0  0  0  0  0  0
  141.8670   78.0490  219.0020 C   0  0  0  0  0  0  0  0  0  0  0  0
  141.5900   78.0530  220.5190 C   0  0  1  0  0  0  0  0  0  0  0  0
  140.5250   78.9960  220.9000 C   0  0  1  0  0  0  0  0  0  0  0  0
  139.2500   78.4990  220.8270 O   0  0  0  0  0  0  0  0  0  0  0  0
  140.7290   79.8240  222.1180 C   0  0  0  0  0  0  0  0  0  0  0  0
  141.8540   80.8040  221.8620 C   0  0  0  0  0  0  0  0  0  0  0  0
  142.9790   80.3590  222.7360 C   0  0  0  0  0  0  0  0  0  0  0  0
  142.3000   79.7950  223.9490 C   0  0  0  0  0  0  0  0  0  0  0  0
  141.1670   78.9920  223.3140 C   0  0  0  0  0  0  0  0  0  0  0  0
  140.2520   71.4220  223.4320 C   0  0  0  0  0  0  0  0  0  0  0  0
  139.5720   70.2260  223.2730 C   0  0  0  0  0  0  0  0  0  0  0  0
  139.3450   69.4730  224.4060 C   0  0  0  0  0  0  0  0  0  0  0  0
  139.7800   69.9000  225.6430 C   0  0  0  0  0  0  0  0  0  0  0  0
  139.5760   69.1810  226.8060 C   0  0  0  0  0  0  0  0  0  0  0  0
  140.0150   69.6160  228.0430 C   0  0  0  0  0  0  0  0  0  0  0  0
  139.7900   68.8670  229.1690 F   0  0  0  0  0  0  0  0  0  0  0  0
  140.6940   70.8210  228.1590 C   0  0  0  0  0  0  0  0  0  0  0  0
  140.9070   71.5580  226.9930 C   0  0  0  0  0  0  0  0  0  0  0  0
  140.4600   71.1040  225.7700 C   0  0  0  0  0  0  0  0  0  0  0  0
  140.6810   71.8400  224.6610 N   0  0  0  0  0  0  0  0  0  0  0  0
  139.5760   73.9480  223.1010 H   0  0  0  0  0  0  0  0  0  0  0  0
  141.2439   74.0464  220.5808 H   0  0  0  0  0  0  0  0  0  0  0  0
  139.4811   74.3554  220.4051 H   0  0  0  0  0  0  0  0  0  0  0  0
  143.5739   76.4471  220.4536 H   0  0  0  0  0  0  0  0  0  0  0  0
  142.7321   74.9838  220.1401 H   0  0  0  0  0  0  0  0  0  0  0  0
  143.1662   76.6116  218.0292 H   0  0  0  0  0  0  0  0  0  0  0  0
  141.5166   76.0543  218.1490 H   0  0  0  0  0  0  0  0  0  0  0  0
  142.6742   78.7540  218.7542 H   0  0  0  0  0  0  0  0  0  0  0  0
  140.9875   78.3612  218.4198 H   0  0  0  0  0  0  0  0  0  0  0  0
  142.3807   78.4655  221.1629 H   0  0  0  0  0  0  0  0  0  0  0  0
  140.6384   79.7187  220.0785 H   0  0  0  0  0  0  0  0  0  0  0  0
  139.0330   77.7350  221.3820 H   0  0  0  0  0  0  0  0  0  0  0  0
  139.7686   80.3144  222.3352 H   0  0  0  0  0  0  0  0  0  0  0  0
  142.1549   80.7758  220.8043 H   0  0  0  0  0  0  0  0  0  0  0  0
  141.5514   81.8384  222.0823 H   0  0  0  0  0  0  0  0  0  0  0  0
  143.5829   79.5892  222.2333 H   0  0  0  0  0  0  0  0  0  0  0  0
  143.6711   81.1777  222.9823 H   0  0  0  0  0  0  0  0  0  0  0  0
  142.9778   79.1481  224.5252 H   0  0  0  0  0  0  0  0  0  0  0  0
  141.9636   80.5546  224.6700 H   0  0  0  0  0  0  0  0  0  0  0  0
  141.5260   78.0043  222.9891 H   0  0  0  0  0  0  0  0  0  0  0  0
  140.3420   78.8072  224.0177 H   0  0  0  0  0  0  0  0  0  0  0  0
  139.2272   69.8904  222.2838 H   0  0  0  0  0  0  0  0  0  0  0  0
  138.8084   68.5165  224.3216 H   0  0  0  0  0  0  0  0  0  0  0  0
  139.0415   68.2216  226.7447 H   0  0  0  0  0  0  0  0  0  0  0  0
  141.0514   71.1821  229.1347 H   0  0  0  0  0  0  0  0  0  0  0  0
  141.4409   72.5180  227.0506 H   0  0  0  0  0  0  0  0  0  0  0  0
  1  2  2  0
  2  3  1  0
  3  4  1  0
  4  5  1  0
  5  6  2  0
  5  7  1  0
  7  8  1  0
  8  9  1  0
  9 10  1  0
 10 11  1  0
 11 12  1  0
 12 13  1  0
 12 14  1  0
 14 15  1  0
 15 16  1  0
 16 17  1  0
 17 18  1  0
  2 19  1  0
 19 20  2  0
 20 21  1  0
 21 22  2  0
 22 23  1  0
 23 24  2  0
 24 25  1  0
 24 26  1  0
 26 27  2  0
 27 28  1  0
 28 29  2  0
 11  7  1  0
 18 14  1  0
 29 19  1  0
 28 22  1  0
  3 30  1  0
  4 31  1  0
  4 32  1  0
  8 33  1  0
  8 34  1  0
  9 35  1  0
  9 36  1  0
 10 37  1  0
 10 38  1  0
 11 39  1  1
 12 40  1  6
 13 41  1  0
 14 42  1  0
 15 43  1  0
 15 44  1  0
 16 45  1  0
 16 46  1  0
 17 47  1  0
 17 48  1  0
 18 49  1  0
 18 50  1  0
 20 51  1  0
 21 52  1  0
 23 53  1  0
 26 54  1  0
 27 55  1  0
M  END
>  <smiles>  (46) 
O=C(NCC(=O)N1CCC[C@H]1[C@@H](O)C1CCCC1)c1ccc2cc(F)ccc2n1

>  <score_type>  (46) 
oracle

>  <origin>  (46) 
autodockgpu

>  <m_score__min__energy>  (46) 
-9.0600000000000005

>  <m_primary>  (46) 
energy

>  <rmsd>  (46) 
2.088917596832278

>  <m_score__min__rmsd>  (46) 
2.088917596832278

>  <meeko>  (46) 
{"free_energy": -8.2, "intermolecular_energy": -10.29, "internal_energy": -2.75, "cluster_size": 39, "cluster_id": 1, "rank_in_cluster": 29}

>  <energy>  (46) 
-7.32

>  <cluster_rmsd>  (46) 
0.0

>  <cluster>  (46) 
4

$$$$

     RDKit          3D

 55 58  0  0  0  0  0  0  0  0999 V2000
  140.8080   72.2860  221.4430 O   0  0  0  0  0  0  0  0  0  0  0  0
  139.9140   72.3760  222.2950 C   0  0  0  0  0  0  0  0  0  0  0  0
  138.9070   73.3510  222.1490 N   0  0  0  0  0  0  0  0  0  0  0  0
  138.9370   74.2200  221.0130 C   0  0  0  0  0  0  0  0  0  0  0  0
  139.2440   75.6380  221.4600 C   0  0  0  0  0  0  0  0  0  0  0  0
  138.2380   76.2680  221.8690 O   0  0  0  0  0  0  0  0  0  0  0  0
  140.5570   76.1140  221.3870 N   0  0  0  0  0  0  0  0  0  0  0  0
  141.6840   75.2420  220.9260 C   0  0  0  0  0  0  0  0  0  0  0  0
  142.1670   76.1230  219.7760 C   0  0  0  0  0  0  0  0  0  0  0  0
  142.1140   77.5040  220.3880 C   0  0  0  0  0  0  0  0  0  0  0  0
  141.2310   77.3490  221.6430 C   0  0  1  0  0  0  0  0  0  0  0  0
  140.4530   78.5630  221.9440 C   0  0  1  0  0  0  0  0  0  0  0  0
  139.5450   78.4370  222.9630 O   0  0  0  0  0  0  0  0  0  0  0  0
  141.1770   79.8600  222.0020 C   0  0  0  0  0  0  0  0  0  0  0  0
  142.5840   79.6140  222.5010 C   0  0  0  0  0  0  0  0  0  0  0  0
  142.6430   80.2340  223.8570 C   0  0  0  0  0  0  0  0  0  0  0  0
  141.7290   81.4200  223.7570 C   0  0  0  0  0  0  0  0  0  0  0  0
  140.5480   80.8280  222.9940 C   0  0  0  0  0  0  0  0  0  0  0  0
  139.8870   71.4770  223.4650 C   0  0  0  0  0  0  0  0  0  0  0  0
  139.2620   70.2460  223.3550 C   0  0  0  0  0  0  0  0  0  0  0  0
  139.2580   69.4380  224.4730 C   0  0  0  0  0  0  0  0  0  0  0  0
  139.8540   69.8460  225.6480 C   0  0  0  0  0  0  0  0  0  0  0  0
  139.8760   69.0720  226.7930 C   0  0  0  0  0  0  0  0  0  0  0  0
  140.4760   69.4880  227.9670 C   0  0  0  0  0  0  0  0  0  0  0  0
  140.4730   68.6850  229.0790 F   0  0  0  0  0  0  0  0  0  0  0  0
  141.0920   70.7310  228.0350 C   0  0  0  0  0  0  0  0  0  0  0  0
  141.0780   71.5230  226.8860 C   0  0  0  0  0  0  0  0  0  0  0  0
  140.4730   71.0870  225.7260 C   0  0  0  0  0  0  0  0  0  0  0  0
  140.4760   71.8760  224.6320 N   0  0  0  0  0  0  0  0  0  0  0  0
  138.1650   73.3920  222.9000 H   0  0  0  0  0  0  0  0  0  0  0  0
  139.7154   73.8806  220.3138 H   0  0  0  0  0  0  0  0  0  0  0  0
  137.9570   74.2001  220.5137 H   0  0  0  0  0  0  0  0  0  0  0  0
  142.4528   75.1080  221.7012 H   0  0  0  0  0  0  0  0  0  0  0  0
  141.4216   74.2057  220.6668 H   0  0  0  0  0  0  0  0  0  0  0  0
  143.1915   75.8593  219.4747 H   0  0  0  0  0  0  0  0  0  0  0  0
  141.5661   76.0225  218.8601 H   0  0  0  0  0  0  0  0  0  0  0  0
  143.1231   77.8437  220.6644 H   0  0  0  0  0  0  0  0  0  0  0  0
  141.7115   78.2515  219.6885 H   0  0  0  0  0  0  0  0  0  0  0  0
  141.7536   77.2742  222.6080 H   0  0  0  0  0  0  0  0  0  0  0  0
  139.8812   78.6337  221.0070 H   0  0  0  0  0  0  0  0  0  0  0  0
  138.8290   77.7950  222.8500 H   0  0  0  0  0  0  0  0  0  0  0  0
  141.1452   80.2888  220.9895 H   0  0  0  0  0  0  0  0  0  0  0  0
  142.7861   78.5345  222.5633 H   0  0  0  0  0  0  0  0  0  0  0  0
  143.3369   80.0437  221.8239 H   0  0  0  0  0  0  0  0  0  0  0  0
  142.2872   79.5303  224.6240 H   0  0  0  0  0  0  0  0  0  0  0  0
  143.6660   80.5128  224.1497 H   0  0  0  0  0  0  0  0  0  0  0  0
  141.4259   81.7791  224.7516 H   0  0  0  0  0  0  0  0  0  0  0  0
  142.1827   82.2971  223.2724 H   0  0  0  0  0  0  0  0  0  0  0  0
  139.8706   80.2966  223.6787 H   0  0  0  0  0  0  0  0  0  0  0  0
  139.9438   81.6008  222.4963 H   0  0  0  0  0  0  0  0  0  0  0  0
  138.7885   69.9259  222.4152 H   0  0  0  0  0  0  0  0  0  0  0  0
  138.7716   68.4524  224.4267 H   0  0  0  0  0  0  0  0  0  0  0  0
  139.3956   68.0827  226.7691 H   0  0  0  0  0  0  0  0  0  0  0  0
  141.5734   71.0786  228.9610 H   0  0  0  0  0  0  0  0  0  0  0  0
  141.5580   72.5125  226.9060 H   0  0  0  0  0  0  0  0  0  0  0  0
  1  2  2  0
  2  3  1  0
  3  4  1  0
  4  5  1  0
  5  6  2  0
  5  7  1  0
  7  8  1  0
  8  9  1  0
  9 10  1  0
 10 11  1  0
 11 12  1  0
 12 13  1  0
 12 14  1  0
 14 15  1  0
 15 16  1  0
 16 17  1  0
 17 18  1  0
  2 19  1  0
 19 20  2  0
 20 21  1  0
 21 22  2  0
 22 23  1  0
 23 24  2  0
 24 25  1  0
 24 26  1  0
 26 27  2  0
 27 28  1  0
 28 29  2  0
 11  7  1  0
 18 14  1  0
 29 19  1  0
 28 22  1  0
  3 30  1  0
  4 31  1  0
  4 32  1  0
  8 33  1  0
  8 34  1  0
  9 35  1  0
  9 36  1  0
 10 37  1  0
 10 38  1  0
 11 39  1  1
 12 40  1  6
 13 41  1  0
 14 42  1  0
 15 43  1  0
 15 44  1  0
 16 45  1  0
 16 46  1  0
 17 47  1  0
 17 48  1  0
 18 49  1  0
 18 50  1  0
 20 51  1  0
 21 52  1  0
 23 53  1  0
 26 54  1  0
 27 55  1  0
M  END
>  <smiles>  (47) 
O=C(NCC(=O)N1CCC[C@H]1[C@@H](O)C1CCCC1)c1ccc2cc(F)ccc2n1

>  <score_type>  (47) 
oracle

>  <origin>  (47) 
autodockgpu

>  <m_score__min__energy>  (47) 
-9.0600000000000005

>  <m_primary>  (47) 
energy

>  <rmsd>  (47) 
1.9798308005291305

>  <m_score__min__rmsd>  (47) 
1.9798308005291305

>  <meeko>  (47) 
{"free_energy": -8.25, "intermolecular_energy": -10.33, "internal_energy": -2.11, "cluster_size": 39, "cluster_id": 1, "rank_in_cluster": 25}

>  <energy>  (47) 
-6.66

>  <cluster_rmsd>  (47) 
1.34

>  <cluster>  (47) 
4

$$$$

     RDKit          3D

 55 58  0  0  0  0  0  0  0  0999 V2000
  140.9820   71.6780  221.3300 O   0  0  0  0  0  0  0  0  0  0  0  0
  140.3990   72.1020  222.3370 C   0  0  0  0  0  0  0  0  0  0  0  0
  139.9310   73.4310  222.3650 N   0  0  0  0  0  0  0  0  0  0  0  0
  140.1390   74.2680  221.2240 C   0  0  0  0  0  0  0  0  0  0  0  0
  140.3650   75.7000  221.6730 C   0  0  0  0  0  0  0  0  0  0  0  0
  139.6520   76.0430  222.6480 O   0  0  0  0  0  0  0  0  0  0  0  0
  141.3030   76.4920  221.0030 N   0  0  0  0  0  0  0  0  0  0  0  0
  142.3240   75.8910  220.0860 C   0  0  0  0  0  0  0  0  0  0  0  0
  141.9690   76.6910  218.8340 C   0  0  0  0  0  0  0  0  0  0  0  0
  141.7690   78.0830  219.3880 C   0  0  0  0  0  0  0  0  0  0  0  0
  141.6110   77.8850  220.9100 C   0  0  1  0  0  0  0  0  0  0  0  0
  140.7130   78.8790  221.5220 C   0  0  1  0  0  0  0  0  0  0  0  0
  139.3740   78.6340  221.3610 O   0  0  0  0  0  0  0  0  0  0  0  0
  141.0300   79.3530  222.8940 C   0  0  0  0  0  0  0  0  0  0  0  0
  140.5470   80.7790  223.0450 C   0  0  0  0  0  0  0  0  0  0  0  0
  141.7820   81.6110  223.1460 C   0  0  0  0  0  0  0  0  0  0  0  0
  142.7620   80.7280  223.8600 C   0  0  0  0  0  0  0  0  0  0  0  0
  142.5280   79.3910  223.1600 C   0  0  0  0  0  0  0  0  0  0  0  0
  140.1860   71.2340  223.5110 C   0  0  0  0  0  0  0  0  0  0  0  0
  139.5140   70.0340  223.3500 C   0  0  0  0  0  0  0  0  0  0  0  0
  139.3360   69.2540  224.4740 C   0  0  0  0  0  0  0  0  0  0  0  0
  139.8100   69.6600  225.7040 C   0  0  0  0  0  0  0  0  0  0  0  0
  139.6560   68.9150  226.8580 C   0  0  0  0  0  0  0  0  0  0  0  0
  140.1340   69.3290  228.0880 C   0  0  0  0  0  0  0  0  0  0  0  0
  139.9570   68.5540  229.2050 F   0  0  0  0  0  0  0  0  0  0  0  0
  140.8020   70.5410  228.2060 C   0  0  0  0  0  0  0  0  0  0  0  0
  140.9650   71.3040  227.0490 C   0  0  0  0  0  0  0  0  0  0  0  0
  140.4800   70.8700  225.8330 C   0  0  0  0  0  0  0  0  0  0  0  0
  140.6530   71.6320  224.7330 N   0  0  0  0  0  0  0  0  0  0  0  0
  139.4390   73.7480  223.2450 H   0  0  0  0  0  0  0  0  0  0  0  0
  141.0206   73.9158  220.6683 H   0  0  0  0  0  0  0  0  0  0  0  0
  139.2516   74.2259  220.5753 H   0  0  0  0  0  0  0  0  0  0  0  0
  143.3532   76.0800  220.4250 H   0  0  0  0  0  0  0  0  0  0  0  0
  142.3023   74.7958  219.9854 H   0  0  0  0  0  0  0  0  0  0  0  0
  142.7886   76.6679  218.1007 H   0  0  0  0  0  0  0  0  0  0  0  0
  141.0928   76.3009  218.2954 H   0  0  0  0  0  0  0  0  0  0  0  0
  142.6414   78.7160  219.1685 H   0  0  0  0  0  0  0  0  0  0  0  0
  140.8973   78.5848  218.9428 H   0  0  0  0  0  0  0  0  0  0  0  0
  142.4957   78.0944  221.5292 H   0  0  0  0  0  0  0  0  0  0  0  0
  140.9619   79.7443  220.8901 H   0  0  0  0  0  0  0  0  0  0  0  0
  139.0370   77.7720  221.6440 H   0  0  0  0  0  0  0  0  0  0  0  0
  140.5440   78.6555  223.5920 H   0  0  0  0  0  0  0  0  0  0  0  0
  139.9527   81.0782  222.1690 H   0  0  0  0  0  0  0  0  0  0  0  0
  139.9012   80.8993  223.9273 H   0  0  0  0  0  0  0  0  0  0  0  0
  142.1547   81.8793  222.1464 H   0  0  0  0  0  0  0  0  0  0  0  0
  141.6086   82.5609  223.6728 H   0  0  0  0  0  0  0  0  0  0  0  0
  143.7952   81.0792  223.7216 H   0  0  0  0  0  0  0  0  0  0  0  0
  142.6254   80.6945  224.9510 H   0  0  0  0  0  0  0  0  0  0  0  0
  143.0912   79.3431  222.2163 H   0  0  0  0  0  0  0  0  0  0  0  0
  142.8653   78.5380  223.7671 H   0  0  0  0  0  0  0  0  0  0  0  0
  139.1377   69.7158  222.3666 H   0  0  0  0  0  0  0  0  0  0  0  0
  138.8077   68.2930  224.3878 H   0  0  0  0  0  0  0  0  0  0  0  0
  139.1303   67.9508  226.7954 H   0  0  0  0  0  0  0  0  0  0  0  0
  141.1885   70.8868  229.1761 H   0  0  0  0  0  0  0  0  0  0  0  0
  141.4898   72.2690  227.1079 H   0  0  0  0  0  0  0  0  0  0  0  0
  1  2  2  0
  2  3  1  0
  3  4  1  0
  4  5  1  0
  5  6  2  0
  5  7  1  0
  7  8  1  0
  8  9  1  0
  9 10  1  0
 10 11  1  0
 11 12  1  0
 12 13  1  0
 12 14  1  0
 14 15  1  0
 15 16  1  0
 16 17  1  0
 17 18  1  0
  2 19  1  0
 19 20  2  0
 20 21  1  0
 21 22  2  0
 22 23  1  0
 23 24  2  0
 24 25  1  0
 24 26  1  0
 26 27  2  0
 27 28  1  0
 28 29  2  0
 11  7  1  0
 18 14  1  0
 29 19  1  0
 28 22  1  0
  3 30  1  0
  4 31  1  0
  4 32  1  0
  8 33  1  0
  8 34  1  0
  9 35  1  0
  9 36  1  0
 10 37  1  0
 10 38  1  0
 11 39  1  1
 12 40  1  6
 13 41  1  0
 14 42  1  0
 15 43  1  0
 15 44  1  0
 16 45  1  0
 16 46  1  0
 17 47  1  0
 17 48  1  0
 18 49  1  0
 18 50  1  0
 20 51  1  0
 21 52  1  0
 23 53  1  0
 26 54  1  0
 27 55  1  0
M  END
>  <smiles>  (48) 
O=C(NCC(=O)N1CCC[C@H]1[C@@H](O)C1CCCC1)c1ccc2cc(F)ccc2n1

>  <score_type>  (48) 
oracle

>  <origin>  (48) 
autodockgpu

>  <m_score__min__energy>  (48) 
-9.0600000000000005

>  <m_primary>  (48) 
energy

>  <rmsd>  (48) 
1.944226294570822

>  <m_score__min__rmsd>  (48) 
1.944226294570822

>  <meeko>  (48) 
{"free_energy": -8.46, "intermolecular_energy": -10.55, "internal_energy": -2.57, "cluster_size": 39, "cluster_id": 1, "rank_in_cluster": 16}

>  <energy>  (48) 
-7.11

>  <cluster_rmsd>  (48) 
0.0

>  <cluster>  (48) 
5

$$$$

     RDKit          3D

 55 58  0  0  0  0  0  0  0  0999 V2000
  140.0140   70.7560  221.7050 O   0  0  0  0  0  0  0  0  0  0  0  0
  139.9780   71.5340  222.6670 C   0  0  0  0  0  0  0  0  0  0  0  0
  139.7570   72.9080  222.4460 N   0  0  0  0  0  0  0  0  0  0  0  0
  139.5770   73.3790  221.1080 C   0  0  0  0  0  0  0  0  0  0  0  0
  140.0940   74.8000  220.9900 C   0  0  0  0  0  0  0  0  0  0  0  0
  141.2960   74.8730  220.6340 O   0  0  0  0  0  0  0  0  0  0  0  0
  139.2390   75.8700  221.2700 N   0  0  0  0  0  0  0  0  0  0  0  0
  137.7500   75.7070  221.2650 C   0  0  0  0  0  0  0  0  0  0  0  0
  137.4870   76.1860  222.6920 C   0  0  0  0  0  0  0  0  0  0  0  0
  138.3940   77.3910  222.7970 C   0  0  0  0  0  0  0  0  0  0  0  0
  139.3790   77.2510  221.6180 C   0  0  1  0  0  0  0  0  0  0  0  0
  140.7110   77.8000  221.9220 C   0  0  1  0  0  0  0  0  0  0  0  0
  141.7050   77.4400  221.0510 O   0  0  0  0  0  0  0  0  0  0  0  0
  140.8030   79.2330  222.3070 C   0  0  0  0  0  0  0  0  0  0  0  0
  142.0130   79.8450  221.6370 C   0  0  0  0  0  0  0  0  0  0  0  0
  142.9790   80.1330  222.7370 C   0  0  0  0  0  0  0  0  0  0  0  0
  142.1070   80.4820  223.9080 C   0  0  0  0  0  0  0  0  0  0  0  0
  141.0200   79.4150  223.8030 C   0  0  0  0  0  0  0  0  0  0  0  0
  140.1650   71.0430  224.0460 C   0  0  0  0  0  0  0  0  0  0  0  0
  140.7090   71.8920  224.9960 C   0  0  0  0  0  0  0  0  0  0  0  0
  140.8670   71.3930  226.2720 C   0  0  0  0  0  0  0  0  0  0  0  0
  140.4970   70.1010  226.5820 C   0  0  0  0  0  0  0  0  0  0  0  0
  140.6360   69.5560  227.8440 C   0  0  0  0  0  0  0  0  0  0  0  0
  140.2620   68.2600  228.1470 C   0  0  0  0  0  0  0  0  0  0  0  0
  140.4180   67.7630  229.4160 F   0  0  0  0  0  0  0  0  0  0  0  0
  139.7200   67.4420  227.1650 C   0  0  0  0  0  0  0  0  0  0  0  0
  139.5730   67.9780  225.8850 C   0  0  0  0  0  0  0  0  0  0  0  0
  139.9530   69.2740  225.6070 C   0  0  0  0  0  0  0  0  0  0  0  0
  139.8000   69.7640  224.3590 N   0  0  0  0  0  0  0  0  0  0  0  0
  139.7350   73.5340  223.2970 H   0  0  0  0  0  0  0  0  0  0  0  0
  140.1316   72.7298  220.4145 H   0  0  0  0  0  0  0  0  0  0  0  0
  138.5062   73.3599  220.8571 H   0  0  0  0  0  0  0  0  0  0  0  0
  137.2622   76.3451  220.5134 H   0  0  0  0  0  0  0  0  0  0  0  0
  137.3719   74.7057  221.0113 H   0  0  0  0  0  0  0  0  0  0  0  0
  136.4326   76.4673  222.8303 H   0  0  0  0  0  0  0  0  0  0  0  0
  137.6803   75.4200  223.4574 H   0  0  0  0  0  0  0  0  0  0  0  0
  137.8135   78.3211  222.7079 H   0  0  0  0  0  0  0  0  0  0  0  0
  138.9123   77.4357  223.7662 H   0  0  0  0  0  0  0  0  0  0  0  0
  139.1732   77.8642  220.7283 H   0  0  0  0  0  0  0  0  0  0  0  0
  140.9005   77.2687  222.8663 H   0  0  0  0  0  0  0  0  0  0  0  0
  142.2140   76.6410  221.2540 H   0  0  0  0  0  0  0  0  0  0  0  0
  139.8566   79.7056  222.0055 H   0  0  0  0  0  0  0  0  0  0  0  0
  142.4511   79.1386  220.9166 H   0  0  0  0  0  0  0  0  0  0  0  0
  141.7511   80.7549  221.0771 H   0  0  0  0  0  0  0  0  0  0  0  0
  143.5941   79.2483  222.9581 H   0  0  0  0  0  0  0  0  0  0  0  0
  143.6833   80.9380  222.4803 H   0  0  0  0  0  0  0  0  0  0  0  0
  142.6575   80.4034  224.8571 H   0  0  0  0  0  0  0  0  0  0  0  0
  141.7268   81.5141  223.8936 H   0  0  0  0  0  0  0  0  0  0  0  0
  141.3540   78.4738  224.2642 H   0  0  0  0  0  0  0  0  0  0  0  0
  140.0972   79.7070  224.3257 H   0  0  0  0  0  0  0  0  0  0  0  0
  141.0028   72.9214  224.7431 H   0  0  0  0  0  0  0  0  0  0  0  0
  141.2951   72.0359  227.0552 H   0  0  0  0  0  0  0  0  0  0  0  0
  141.0629   70.1806  228.6425 H   0  0  0  0  0  0  0  0  0  0  0  0
  139.4172   66.4083  227.3879 H   0  0  0  0  0  0  0  0  0  0  0  0
  139.1467   67.3560  225.0841 H   0  0  0  0  0  0  0  0  0  0  0  0
  1  2  2  0
  2  3  1  0
  3  4  1  0
  4  5  1  0
  5  6  2  0
  5  7  1  0
  7  8  1  0
  8  9  1  0
  9 10  1  0
 10 11  1  0
 11 12  1  0
 12 13  1  0
 12 14  1  0
 14 15  1  0
 15 16  1  0
 16 17  1  0
 17 18  1  0
  2 19  1  0
 19 20  2  0
 20 21  1  0
 21 22  2  0
 22 23  1  0
 23 24  2  0
 24 25  1  0
 24 26  1  0
 26 27  2  0
 27 28  1  0
 28 29  2  0
 11  7  1  0
 18 14  1  0
 29 19  1  0
 28 22  1  0
  3 30  1  0
  4 31  1  0
  4 32  1  0
  8 33  1  0
  8 34  1  0
  9 35  1  0
  9 36  1  0
 10 37  1  0
 10 38  1  0
 11 39  1  6
 12 40  1  1
 13 41  1  0
 14 42  1  0
 15 43  1  0
 15 44  1  0
 16 45  1  0
 16 46  1  0
 17 47  1  0
 17 48  1  0
 18 49  1  0
 18 50  1  0
 20 51  1  0
 21 52  1  0
 23 53  1  0
 26 54  1  0
 27 55  1  0
M  END
>  <smiles>  (49) 
O=C(NCC(=O)N1CCC[C@H]1[C@@H](O)C1CCCC1)c1ccc2cc(F)ccc2n1

>  <score_type>  (49) 
oracle

>  <origin>  (49) 
autodockgpu

>  <m_score__min__energy>  (49) 
-9.0600000000000005

>  <m_primary>  (49) 
energy

>  <rmsd>  (49) 
3.4326101223351837

>  <m_score__min__rmsd>  (49) 
3.4326101223351837

>  <meeko>  (49) 
{"free_energy": -8.27, "intermolecular_energy": -10.36, "internal_energy": -1.99, "cluster_size": 39, "cluster_id": 1, "rank_in_cluster": 23}

>  <energy>  (49) 
-5.42

>  <cluster_rmsd>  (49) 
0.0

>  <cluster>  (49) 
6

$$$$

     RDKit          3D

 55 58  0  0  0  0  0  0  0  0999 V2000
  139.2550   73.7360  222.3320 O   0  0  0  0  0  0  0  0  0  0  0  0
  140.1210   72.8510  222.3560 C   0  0  0  0  0  0  0  0  0  0  0  0
  141.1450   72.8490  221.3880 N   0  0  0  0  0  0  0  0  0  0  0  0
  141.1650   73.8760  220.3930 C   0  0  0  0  0  0  0  0  0  0  0  0
  142.4580   74.6640  220.4940 C   0  0  0  0  0  0  0  0  0  0  0  0
  143.4460   73.9720  220.8450 O   0  0  0  0  0  0  0  0  0  0  0  0
  142.4570   76.0310  220.2050 N   0  0  0  0  0  0  0  0  0  0  0  0
  143.2740   76.5970  219.0830 C   0  0  0  0  0  0  0  0  0  0  0  0
  142.1340   77.2660  218.3170 C   0  0  0  0  0  0  0  0  0  0  0  0
  141.3290   77.8980  219.4290 C   0  0  0  0  0  0  0  0  0  0  0  0
  141.8160   77.2030  220.7170 C   0  0  1  0  0  0  0  0  0  0  0  0
  140.7560   77.0770  221.7310 C   0  0  1  0  0  0  0  0  0  0  0  0
  140.6800   75.8550  222.3480 O   0  0  0  0  0  0  0  0  0  0  0  0
  140.5720   78.1960  222.6910 C   0  0  0  0  0  0  0  0  0  0  0  0
  140.2730   79.4620  221.9180 C   0  0  0  0  0  0  0  0  0  0  0  0
  141.4710   80.3330  222.0960 C   0  0  0  0  0  0  0  0  0  0  0  0
  141.9600   80.0070  223.4760 C   0  0  0  0  0  0  0  0  0  0  0  0
  141.8360   78.4860  223.4890 C   0  0  0  0  0  0  0  0  0  0  0  0
  140.0960   71.7940  223.3850 C   0  0  0  0  0  0  0  0  0  0  0  0
  139.5800   70.5500  223.0620 C   0  0  0  0  0  0  0  0  0  0  0  0
  139.5750   69.5910  224.0540 C   0  0  0  0  0  0  0  0  0  0  0  0
  140.0640   69.8680  225.3130 C   0  0  0  0  0  0  0  0  0  0  0  0
  140.0800   68.9420  226.3390 C   0  0  0  0  0  0  0  0  0  0  0  0
  140.5730   69.2270  227.5990 C   0  0  0  0  0  0  0  0  0  0  0  0
  140.5680   68.2740  228.5860 F   0  0  0  0  0  0  0  0  0  0  0  0
  141.0810   70.4870  227.8820 C   0  0  0  0  0  0  0  0  0  0  0  0
  141.0720   71.4330  226.8560 C   0  0  0  0  0  0  0  0  0  0  0  0
  140.5750   71.1260  225.6060 C   0  0  0  0  0  0  0  0  0  0  0  0
  140.5790   72.0620  224.6350 N   0  0  0  0  0  0  0  0  0  0  0  0
  141.8620   72.0750  221.4480 H   0  0  0  0  0  0  0  0  0  0  0  0
  141.0927   73.4191  219.3950 H   0  0  0  0  0  0  0  0  0  0  0  0
  140.3132   74.5534  220.5529 H   0  0  0  0  0  0  0  0  0  0  0  0
  144.0226   77.3218  219.4354 H   0  0  0  0  0  0  0  0  0  0  0  0
  143.8841   75.8785  218.5160 H   0  0  0  0  0  0  0  0  0  0  0  0
  142.5148   78.0260  217.6188 H   0  0  0  0  0  0  0  0  0  0  0  0
  141.5540   76.5705  217.6926 H   0  0  0  0  0  0  0  0  0  0  0  0
  141.5195   78.9803  219.4776 H   0  0  0  0  0  0  0  0  0  0  0  0
  140.2464   77.7760  219.2770 H   0  0  0  0  0  0  0  0  0  0  0  0
  142.5360   77.7596  221.3348 H   0  0  0  0  0  0  0  0  0  0  0  0
  139.8801   77.1622  221.0710 H   0  0  0  0  0  0  0  0  0  0  0  0
  139.8010   75.4680  222.4720 H   0  0  0  0  0  0  0  0  0  0  0  0
  139.7592   77.9016  223.3712 H   0  0  0  0  0  0  0  0  0  0  0  0
  140.1187   79.2342  220.8530 H   0  0  0  0  0  0  0  0  0  0  0  0
  139.3564   79.9520  222.2782 H   0  0  0  0  0  0  0  0  0  0  0  0
  142.2391   80.0986  221.3443 H   0  0  0  0  0  0  0  0  0  0  0  0
  141.2380   81.4009  221.9725 H   0  0  0  0  0  0  0  0  0  0  0  0
  143.0027   80.3267  223.6192 H   0  0  0  0  0  0  0  0  0  0  0  0
  141.4034   80.5101  224.2804 H   0  0  0  0  0  0  0  0  0  0  0  0
  142.7114   78.0211  223.0120 H   0  0  0  0  0  0  0  0  0  0  0  0
  141.7863   78.0806  224.5103 H   0  0  0  0  0  0  0  0  0  0  0  0
  139.1902   70.3353  222.0560 H   0  0  0  0  0  0  0  0  0  0  0  0
  139.1746   68.5897  223.8370 H   0  0  0  0  0  0  0  0  0  0  0  0
  139.6833   67.9346  226.1447 H   0  0  0  0  0  0  0  0  0  0  0  0
  141.4764   70.7313  228.8790 H   0  0  0  0  0  0  0  0  0  0  0  0
  141.4682   72.4412  227.0472 H   0  0  0  0  0  0  0  0  0  0  0  0
  1  2  2  0
  2  3  1  0
  3  4  1  0
  4  5  1  0
  5  6  2  0
  5  7  1  0
  7  8  1  0
  8  9  1  0
  9 10  1  0
 10 11  1  0
 11 12  1  0
 12 13  1  0
 12 14  1  0
 14 15  1  0
 15 16  1  0
 16 17  1  0
 17 18  1  0
  2 19  1  0
 19 20  2  0
 20 21  1  0
 21 22  2  0
 22 23  1  0
 23 24  2  0
 24 25  1  0
 24 26  1  0
 26 27  2  0
 27 28  1  0
 28 29  2  0
 11  7  1  0
 18 14  1  0
 29 19  1  0
 28 22  1  0
  3 30  1  0
  4 31  1  0
  4 32  1  0
  8 33  1  0
  8 34  1  0
  9 35  1  0
  9 36  1  0
 10 37  1  0
 10 38  1  0
 11 39  1  1
 12 40  1  6
 13 41  1  0
 14 42  1  0
 15 43  1  0
 15 44  1  0
 16 45  1  0
 16 46  1  0
 17 47  1  0
 17 48  1  0
 18 49  1  0
 18 50  1  0
 20 51  1  0
 21 52  1  0
 23 53  1  0
 26 54  1  0
 27 55  1  0
M  END
>  <smiles>  (50) 
O=C(NCC(=O)N1CCC[C@H]1[C@@H](O)C1CCCC1)c1ccc2cc(F)ccc2n1

>  <score_type>  (50) 
oracle

>  <origin>  (50) 
autodockgpu

>  <m_score__min__energy>  (50) 
-9.0600000000000005

>  <m_primary>  (50) 
energy

>  <rmsd>  (50) 
2.4461462114085

>  <m_score__min__rmsd>  (50) 
2.4461462114085

>  <meeko>  (50) 
{"free_energy": -7.92, "intermolecular_energy": -10.0, "internal_energy": -2.36, "cluster_size": 2, "cluster_id": 3, "rank_in_cluster": 1}

>  <energy>  (50) 
-5.29

>  <cluster_rmsd>  (50) 
0.0

>  <cluster>  (50) 
7

$$$$
