
     RDKit          3D

 65 69  0  0  0  0  0  0  0  0999 V2000
  139.9660   80.4970  220.6040 N   0  0  0  0  0  0  0  0  0  0  0  0
  140.9040   80.2740  221.6500 C   0  0  0  0  0  0  0  0  0  0  0  0
  141.0250   81.1010  222.5860 O   0  0  0  0  0  0  0  0  0  0  0  0
  141.7670   79.0630  221.6730 C   0  0  0  0  0  0  0  0  0  0  0  0
  141.3880   78.1990  222.8420 C   0  0  0  0  0  0  0  0  0  0  0  0
  140.3770   77.1520  222.4350 C   0  0  0  0  0  0  0  0  0  0  0  0
  141.0800   76.2990  221.4780 N   0  0  0  0  0  0  0  0  0  0  0  0
  141.0650   74.8780  221.5690 C   0  0  0  0  0  0  0  0  0  0  0  0
  140.1120   74.2080  222.2430 N   0  0  0  0  0  0  0  0  0  0  0  0
  140.1700   72.8820  222.2790 C   0  0  0  0  0  0  0  0  0  0  0  0
  139.1790   72.1020  222.9850 N   0  0  0  0  0  0  0  0  0  0  0  0
  139.2170   70.6820  222.7690 C   0  0  0  0  0  0  0  0  0  0  0  0
  138.3040   69.9750  223.7210 C   0  0  0  0  0  0  0  0  0  0  0  0
  139.0210   69.6260  224.9490 C   0  0  0  0  0  0  0  0  0  0  0  0
  138.9410   68.2990  225.3770 C   0  0  0  0  0  0  0  0  0  0  0  0
  139.5640   67.8580  226.5240 C   0  0  0  0  0  0  0  0  0  0  0  0
  140.2860   68.7740  227.2610 C   0  0  0  0  0  0  0  0  0  0  0  0
  141.0890   68.2520  228.7220 Cl  0  0  0  0  0  0  0  0  0  0  0  0
  140.4000   70.0890  226.8930 C   0  0  0  0  0  0  0  0  0  0  0  0
  139.7520   70.4790  225.7280 C   0  0  0  0  0  0  0  0  0  0  0  0
  141.1660   72.2340  221.6510 N   0  0  0  0  0  0  0  0  0  0  0  0
  142.1290   72.8840  220.9720 C   0  0  0  0  0  0  0  0  0  0  0  0
  143.1740   72.1600  220.3160 N   0  0  0  0  0  0  0  0  0  0  0  0
  144.5030   72.7200  220.3090 C   0  0  0  0  0  0  0  0  0  0  0  0
  145.2780   72.0990  219.1790 C   0  0  0  0  0  0  0  0  0  0  0  0
  145.2570   70.6350  219.3200 C   0  0  0  0  0  0  0  0  0  0  0  0
  146.3860   69.8350  219.2150 C   0  0  0  0  0  0  0  0  0  0  0  0
  146.2660   68.4490  219.3660 C   0  0  0  0  0  0  0  0  0  0  0  0
  145.0550   67.8440  219.6180 C   0  0  0  0  0  0  0  0  0  0  0  0
  143.9430   68.6510  219.7200 C   0  0  0  0  0  0  0  0  0  0  0  0
  144.0570   70.0210  219.5720 C   0  0  0  0  0  0  0  0  0  0  0  0
  142.8550   70.8860  219.6830 C   0  0  0  0  0  0  0  0  0  0  0  0
  142.0710   74.2120  220.9350 N   0  0  0  0  0  0  0  0  0  0  0  0
  141.8210   76.8940  220.3920 C   0  0  0  0  0  0  0  0  0  0  0  0
  141.8100   78.3750  220.3680 C   0  0  0  0  0  0  0  0  0  0  0  0
  138.9320   80.3870  220.7840 H   0  0  0  0  0  0  0  0  0  0  0  0
  140.2650   80.7760  219.6250 H   0  0  0  0  0  0  0  0  0  0  0  0
  142.8145   79.3590  221.8314 H   0  0  0  0  0  0  0  0  0  0  0  0
  142.2889   77.6989  223.2270 H   0  0  0  0  0  0  0  0  0  0  0  0
  140.9400   78.8362  223.6187 H   0  0  0  0  0  0  0  0  0  0  0  0
  140.0528   76.5674  223.3086 H   0  0  0  0  0  0  0  0  0  0  0  0
  139.4705   77.5995  222.0015 H   0  0  0  0  0  0  0  0  0  0  0  0
  138.5350   72.6290  223.5780 H   0  0  0  0  0  0  0  0  0  0  0  0
  138.9007   70.4655  221.7379 H   0  0  0  0  0  0  0  0  0  0  0  0
  140.2446   70.3272  222.9368 H   0  0  0  0  0  0  0  0  0  0  0  0
  137.4584   70.6333  223.9692 H   0  0  0  0  0  0  0  0  0  0  0  0
  137.9373   69.0528  223.2466 H   0  0  0  0  0  0  0  0  0  0  0  0
  138.3609   67.5816  224.7780 H   0  0  0  0  0  0  0  0  0  0  0  0
  139.4881   66.8078  226.8424 H   0  0  0  0  0  0  0  0  0  0  0  0
  140.9797   70.8049  227.4943 H   0  0  0  0  0  0  0  0  0  0  0  0
  139.8313   71.5307  225.4154 H   0  0  0  0  0  0  0  0  0  0  0  0
  144.4458   73.8090  220.1650 H   0  0  0  0  0  0  0  0  0  0  0  0
  145.0034   72.5137  221.2666 H   0  0  0  0  0  0  0  0  0  0  0  0
  144.8194   72.3821  218.2201 H   0  0  0  0  0  0  0  0  0  0  0  0
  146.3180   72.4563  219.2062 H   0  0  0  0  0  0  0  0  0  0  0  0
  147.3685   70.2872  219.0144 H   0  0  0  0  0  0  0  0  0  0  0  0
  147.1669   67.8235  219.2808 H   0  0  0  0  0  0  0  0  0  0  0  0
  144.9780   66.7528  219.7340 H   0  0  0  0  0  0  0  0  0  0  0  0
  142.9587   68.2028  219.9204 H   0  0  0  0  0  0  0  0  0  0  0  0
  142.4568   71.0766  218.6755 H   0  0  0  0  0  0  0  0  0  0  0  0
  142.1107   70.3669  220.3047 H   0  0  0  0  0  0  0  0  0  0  0  0
  142.8666   76.5611  220.4689 H   0  0  0  0  0  0  0  0  0  0  0  0
  141.3271   76.5665  219.4653 H   0  0  0  0  0  0  0  0  0  0  0  0
  142.7209   78.7058  219.8476 H   0  0  0  0  0  0  0  0  0  0  0  0
  140.8682   78.6470  219.8689 H   0  0  0  0  0  0  0  0  0  0  0  0
  1  2  1  0
  2  3  2  0
  2  4  1  0
  4  5  1  0
  5  6  1  0
  6  7  1  0
  7  8  1  0
  8  9  2  0
  9 10  1  0
 10 11  1  0
 11 12  1  0
 12 13  1  0
 13 14  1  0
 14 15  2  0
 15 16  1  0
 16 17  2  0
 17 18  1  0
 17 19  1  0
 19 20  2  0
 10 21  2  0
 21 22  1  0
 22 23  1  0
 23 24  1  0
 24 25  1  0
 25 26  1  0
 26 27  2  0
 27 28  1  0
 28 29  2  0
 29 30  1  0
 30 31  2  0
 31 32  1  0
 22 33  2  0
  7 34  1  0
 34 35  1  0
 35  4  1  0
 33  8  1  0
 20 14  1  0
 32 23  1  0
 31 26  1  0
  1 36  1  0
  1 37  1  0
  4 38  1  0
  5 39  1  0
  5 40  1  0
  6 41  1  0
  6 42  1  0
 11 43  1  0
 12 44  1  0
 12 45  1  0
 13 46  1  0
 13 47  1  0
 15 48  1  0
 16 49  1  0
 19 50  1  0
 20 51  1  0
 24 52  1  0
 24 53  1  0
 25 54  1  0
 25 55  1  0
 27 56  1  0
 28 57  1  0
 29 58  1  0
 30 59  1  0
 32 60  1  0
 32 61  1  0
 34 62  1  0
 34 63  1  0
 35 64  1  0
 35 65  1  0
M  END
>  <smiles>  (1) 
NC(=O)C1CCN(c2nc(NCCc3ccc(Cl)cc3)nc(N3CCc4ccccc4C3)n2)CC1

>  <score_type>  (1) 
oracle

>  <origin>  (1) 
autodockgpu

>  <m_score__min__energy>  (1) 
-10.08

>  <m_primary>  (1) 
energy

>  <rmsd>  (1) 
10.345600624565954

>  <m_score__min__rmsd>  (1) 
10.345600624565954

>  <meeko>  (1) 
{"free_energy": -9.66, "intermolecular_energy": -11.74, "internal_energy": -1.08, "cluster_size": 5, "cluster_id": 2, "rank_in_cluster": 2}

>  <energy>  (1) 
-10.08

>  <cluster_rmsd>  (1) 
0.0

>  <cluster>  (1) 
1

$$$$

     RDKit          3D

 65 69  0  0  0  0  0  0  0  0999 V2000
  145.6330   71.5430  216.2790 N   0  0  0  0  0  0  0  0  0  0  0  0
  145.5270   71.7200  217.6860 C   0  0  0  0  0  0  0  0  0  0  0  0
  145.9860   70.8580  218.4750 O   0  0  0  0  0  0  0  0  0  0  0  0
  144.8740   72.9210  218.2700 C   0  0  0  0  0  0  0  0  0  0  0  0
  143.4200   72.9340  217.8960 C   0  0  0  0  0  0  0  0  0  0  0  0
  142.5800   72.2780  218.9680 C   0  0  0  0  0  0  0  0  0  0  0  0
  142.7300   73.1340  220.1430 N   0  0  0  0  0  0  0  0  0  0  0  0
  141.6160   73.5780  220.9100 C   0  0  0  0  0  0  0  0  0  0  0  0
  140.7000   72.7300  221.4120 N   0  0  0  0  0  0  0  0  0  0  0  0
  139.6900   73.2260  222.1180 C   0  0  0  0  0  0  0  0  0  0  0  0
  138.6730   72.3700  222.6840 N   0  0  0  0  0  0  0  0  0  0  0  0
  138.5210   71.0770  222.0770 C   0  0  0  0  0  0  0  0  0  0  0  0
  139.5140   70.1070  222.6370 C   0  0  0  0  0  0  0  0  0  0  0  0
  139.8770   70.4830  224.0040 C   0  0  0  0  0  0  0  0  0  0  0  0
  139.2370   69.8040  225.0430 C   0  0  0  0  0  0  0  0  0  0  0  0
  139.4880   70.0820  226.3690 C   0  0  0  0  0  0  0  0  0  0  0  0
  140.4090   71.0680  226.6590 C   0  0  0  0  0  0  0  0  0  0  0  0
  140.7550   71.4480  228.3290 Cl  0  0  0  0  0  0  0  0  0  0  0  0
  141.0700   71.7690  225.6850 C   0  0  0  0  0  0  0  0  0  0  0  0
  140.7770   71.4470  224.3650 C   0  0  0  0  0  0  0  0  0  0  0  0
  139.5960   74.5510  222.3190 N   0  0  0  0  0  0  0  0  0  0  0  0
  140.5000   75.4170  221.8250 C   0  0  0  0  0  0  0  0  0  0  0  0
  140.3660   76.8220  222.0590 N   0  0  0  0  0  0  0  0  0  0  0  0
  139.1710   77.3050  222.7060 C   0  0  0  0  0  0  0  0  0  0  0  0
  139.0110   78.7660  222.3880 C   0  0  0  0  0  0  0  0  0  0  0  0
  140.2280   79.4890  222.7880 C   0  0  0  0  0  0  0  0  0  0  0  0
  140.2190   80.6670  223.5200 C   0  0  0  0  0  0  0  0  0  0  0  0
  141.4310   81.2810  223.8550 C   0  0  0  0  0  0  0  0  0  0  0  0
  142.6460   80.7520  223.4790 C   0  0  0  0  0  0  0  0  0  0  0  0
  142.6400   79.5810  222.7530 C   0  0  0  0  0  0  0  0  0  0  0  0
  141.4450   78.9710  222.4200 C   0  0  0  0  0  0  0  0  0  0  0  0
  141.4430   77.7090  221.6360 C   0  0  0  0  0  0  0  0  0  0  0  0
  141.5120   74.9210  221.1200 N   0  0  0  0  0  0  0  0  0  0  0  0
  144.0440   73.5560  220.5640 C   0  0  0  0  0  0  0  0  0  0  0  0
  145.1560   73.0730  219.7110 C   0  0  0  0  0  0  0  0  0  0  0  0
  146.5660   71.6540  215.7970 H   0  0  0  0  0  0  0  0  0  0  0  0
  144.7970   71.2960  215.6740 H   0  0  0  0  0  0  0  0  0  0  0  0
  145.3151   73.8294  217.8340 H   0  0  0  0  0  0  0  0  0  0  0  0
  143.0906   73.9757  217.7679 H   0  0  0  0  0  0  0  0  0  0  0  0
  143.2938   72.3724  216.9586 H   0  0  0  0  0  0  0  0  0  0  0  0
  141.5259   72.2292  218.6573 H   0  0  0  0  0  0  0  0  0  0  0  0
  142.8980   71.2439  219.1669 H   0  0  0  0  0  0  0  0  0  0  0  0
  138.1480   72.7600  223.4700 H   0  0  0  0  0  0  0  0  0  0  0  0
  137.5043   70.7047  222.2711 H   0  0  0  0  0  0  0  0  0  0  0  0
  138.6935   71.1730  220.9948 H   0  0  0  0  0  0  0  0  0  0  0  0
  139.0731   69.0993  222.6429 H   0  0  0  0  0  0  0  0  0  0  0  0
  140.4182   70.1194  222.0107 H   0  0  0  0  0  0  0  0  0  0  0  0
  138.5069   69.0198  224.7941 H   0  0  0  0  0  0  0  0  0  0  0  0
  138.9706   69.5353  227.1711 H   0  0  0  0  0  0  0  0  0  0  0  0
  141.8004   72.5521  225.9365 H   0  0  0  0  0  0  0  0  0  0  0  0
  141.2974   71.9976  223.5675 H   0  0  0  0  0  0  0  0  0  0  0  0
  138.2980   76.7474  222.3361 H   0  0  0  0  0  0  0  0  0  0  0  0
  139.2490   77.1634  223.7940 H   0  0  0  0  0  0  0  0  0  0  0  0
  138.8485   78.8907  221.3072 H   0  0  0  0  0  0  0  0  0  0  0  0
  138.1470   79.1691  222.9367 H   0  0  0  0  0  0  0  0  0  0  0  0
  139.2654   81.1157  223.8352 H   0  0  0  0  0  0  0  0  0  0  0  0
  141.4129   82.2146  224.4364 H   0  0  0  0  0  0  0  0  0  0  0  0
  143.5898   81.2480  223.7494 H   0  0  0  0  0  0  0  0  0  0  0  0
  143.5916   79.1289  222.4366 H   0  0  0  0  0  0  0  0  0  0  0  0
  141.3110   77.9496  220.5708 H   0  0  0  0  0  0  0  0  0  0  0  0
  142.4010   77.1953  221.8042 H   0  0  0  0  0  0  0  0  0  0  0  0
  144.0662   74.6558  220.5646 H   0  0  0  0  0  0  0  0  0  0  0  0
  144.2053   73.1176  221.5599 H   0  0  0  0  0  0  0  0  0  0  0  0
  145.9875   73.7858  219.8136 H   0  0  0  0  0  0  0  0  0  0  0  0
  145.3724   72.0560  220.0700 H   0  0  0  0  0  0  0  0  0  0  0  0
  1  2  1  0
  2  3  2  0
  2  4  1  0
  4  5  1  0
  5  6  1  0
  6  7  1  0
  7  8  1  0
  8  9  2  0
  9 10  1  0
 10 11  1  0
 11 12  1  0
 12 13  1  0
 13 14  1  0
 14 15  2  0
 15 16  1  0
 16 17  2  0
 17 18  1  0
 17 19  1  0
 19 20  2  0
 10 21  2  0
 21 22  1  0
 22 23  1  0
 23 24  1  0
 24 25  1  0
 25 26  1  0
 26 27  2  0
 27 28  1  0
 28 29  2  0
 29 30  1  0
 30 31  2  0
 31 32  1  0
 22 33  2  0
  7 34  1  0
 34 35  1  0
 35  4  1  0
 33  8  1  0
 20 14  1  0
 32 23  1  0
 31 26  1  0
  1 36  1  0
  1 37  1  0
  4 38  1  0
  5 39  1  0
  5 40  1  0
  6 41  1  0
  6 42  1  0
 11 43  1  0
 12 44  1  0
 12 45  1  0
 13 46  1  0
 13 47  1  0
 15 48  1  0
 16 49  1  0
 19 50  1  0
 20 51  1  0
 24 52  1  0
 24 53  1  0
 25 54  1  0
 25 55  1  0
 27 56  1  0
 28 57  1  0
 29 58  1  0
 30 59  1  0
 32 60  1  0
 32 61  1  0
 34 62  1  0
 34 63  1  0
 35 64  1  0
 35 65  1  0
M  END
>  <smiles>  (2) 
NC(=O)C1CCN(c2nc(NCCc3ccc(Cl)cc3)nc(N3CCc4ccccc4C3)n2)CC1

>  <score_type>  (2) 
oracle

>  <origin>  (2) 
autodockgpu

>  <m_score__min__energy>  (2) 
-10.08

>  <m_primary>  (2) 
energy

>  <rmsd>  (2) 
5.442229228067192

>  <m_score__min__rmsd>  (2) 
5.442229228067192

>  <meeko>  (2) 
{"free_energy": -9.56, "intermolecular_energy": -11.65, "internal_energy": -1.23, "cluster_size": 11, "cluster_id": 1, "rank_in_cluster": 5}

>  <energy>  (2) 
-9.98

>  <cluster_rmsd>  (2) 
0.97

>  <cluster>  (2) 
1

$$$$

     RDKit          3D

 65 69  0  0  0  0  0  0  0  0999 V2000
  145.9570   69.2690  219.0280 N   0  0  0  0  0  0  0  0  0  0  0  0
  145.8660   70.3540  218.1120 C   0  0  0  0  0  0  0  0  0  0  0  0
  146.5510   70.3620  217.0600 O   0  0  0  0  0  0  0  0  0  0  0  0
  144.9640   71.5080  218.3650 C   0  0  0  0  0  0  0  0  0  0  0  0
  143.5340   71.0600  218.2580 C   0  0  0  0  0  0  0  0  0  0  0  0
  142.9870   70.6700  219.6120 C   0  0  0  0  0  0  0  0  0  0  0  0
  142.9950   71.9060  220.3940 N   0  0  0  0  0  0  0  0  0  0  0  0
  141.8650   72.3390  221.1450 C   0  0  0  0  0  0  0  0  0  0  0  0
  141.2120   73.4830  220.8710 N   0  0  0  0  0  0  0  0  0  0  0  0
  140.1670   73.8150  221.6200 C   0  0  0  0  0  0  0  0  0  0  0  0
  139.4220   75.0300  221.3800 N   0  0  0  0  0  0  0  0  0  0  0  0
  139.2050   75.8780  222.5190 C   0  0  0  0  0  0  0  0  0  0  0  0
  138.7200   77.2280  222.0930 C   0  0  0  0  0  0  0  0  0  0  0  0
  139.5990   78.2740  222.6180 C   0  0  0  0  0  0  0  0  0  0  0  0
  140.9750   78.0390  222.5570 C   0  0  0  0  0  0  0  0  0  0  0  0
  141.8970   78.9460  223.0330 C   0  0  0  0  0  0  0  0  0  0  0  0
  141.4250   80.1200  223.5820 C   0  0  0  0  0  0  0  0  0  0  0  0
  142.5650   81.2940  224.1960 Cl  0  0  0  0  0  0  0  0  0  0  0  0
  140.0890   80.4070  223.6700 C   0  0  0  0  0  0  0  0  0  0  0  0
  139.2030   79.4570  223.1760 C   0  0  0  0  0  0  0  0  0  0  0  0
  139.7790   73.0160  222.6280 N   0  0  0  0  0  0  0  0  0  0  0  0
  140.4170   71.8680  222.9180 C   0  0  0  0  0  0  0  0  0  0  0  0
  139.9760   71.0420  224.0000 N   0  0  0  0  0  0  0  0  0  0  0  0
  139.3700   69.7700  223.6950 C   0  0  0  0  0  0  0  0  0  0  0  0
  138.5470   69.3360  224.8780 C   0  0  0  0  0  0  0  0  0  0  0  0
  139.3960   69.3100  226.0790 C   0  0  0  0  0  0  0  0  0  0  0  0
  139.4310   68.2510  226.9760 C   0  0  0  0  0  0  0  0  0  0  0  0
  140.2720   68.3190  228.0910 C   0  0  0  0  0  0  0  0  0  0  0  0
  141.0760   69.4100  228.3340 C   0  0  0  0  0  0  0  0  0  0  0  0
  141.0320   70.4540  227.4350 C   0  0  0  0  0  0  0  0  0  0  0  0
  140.2010   70.3920  226.3320 C   0  0  0  0  0  0  0  0  0  0  0  0
  140.1570   71.5190  225.3660 C   0  0  0  0  0  0  0  0  0  0  0  0
  141.4640   71.5350  222.1690 N   0  0  0  0  0  0  0  0  0  0  0  0
  144.1770   72.7320  220.4230 C   0  0  0  0  0  0  0  0  0  0  0  0
  145.3070   72.2320  219.6050 C   0  0  0  0  0  0  0  0  0  0  0  0
  145.5310   68.3330  218.7880 H   0  0  0  0  0  0  0  0  0  0  0  0
  146.4480   69.3580  219.9640 H   0  0  0  0  0  0  0  0  0  0  0  0
  145.1109   72.2695  217.5849 H   0  0  0  0  0  0  0  0  0  0  0  0
  142.9289   71.8823  217.8486 H   0  0  0  0  0  0  0  0  0  0  0  0
  143.4896   70.1829  217.5957 H   0  0  0  0  0  0  0  0  0  0  0  0
  141.9632   70.2790  219.5173 H   0  0  0  0  0  0  0  0  0  0  0  0
  143.5843   69.8773  220.0861 H   0  0  0  0  0  0  0  0  0  0  0  0
  139.1130   75.1820  220.4170 H   0  0  0  0  0  0  0  0  0  0  0  0
  138.4529   75.4152  223.1748 H   0  0  0  0  0  0  0  0  0  0  0  0
  140.1582   75.9991  223.0545 H   0  0  0  0  0  0  0  0  0  0  0  0
  138.7107   77.2799  220.9943 H   0  0  0  0  0  0  0  0  0  0  0  0
  137.7048   77.3835  222.4869 H   0  0  0  0  0  0  0  0  0  0  0  0
  141.3345   77.0984  222.1142 H   0  0  0  0  0  0  0  0  0  0  0  0
  142.9761   78.7400  222.9768 H   0  0  0  0  0  0  0  0  0  0  0  0
  139.7324   81.3488  224.1126 H   0  0  0  0  0  0  0  0  0  0  0  0
  138.1253   79.6686  223.2374 H   0  0  0  0  0  0  0  0  0  0  0  0
  138.7240   69.8696  222.8103 H   0  0  0  0  0  0  0  0  0  0  0  0
  140.1492   69.0227  223.4840 H   0  0  0  0  0  0  0  0  0  0  0  0
  137.7189   70.0441  225.0289 H   0  0  0  0  0  0  0  0  0  0  0  0
  138.1391   68.3311  224.6938 H   0  0  0  0  0  0  0  0  0  0  0  0
  138.8013   67.3643  226.8107 H   0  0  0  0  0  0  0  0  0  0  0  0
  140.2919   67.4747  228.7959 H   0  0  0  0  0  0  0  0  0  0  0  0
  141.7318   69.4473  229.2164 H   0  0  0  0  0  0  0  0  0  0  0  0
  141.6617   71.3414  227.5962 H   0  0  0  0  0  0  0  0  0  0  0  0
  139.3192   72.1821  225.6275 H   0  0  0  0  0  0  0  0  0  0  0  0
  141.1138   72.0591  225.4202 H   0  0  0  0  0  0  0  0  0  0  0  0
  143.9044   73.7319  220.0545 H   0  0  0  0  0  0  0  0  0  0  0  0
  144.5274   72.7332  221.4657 H   0  0  0  0  0  0  0  0  0  0  0  0
  145.9233   73.0988  219.3242 H   0  0  0  0  0  0  0  0  0  0  0  0
  145.8146   71.4904  220.2394 H   0  0  0  0  0  0  0  0  0  0  0  0
  1  2  1  0
  2  3  2  0
  2  4  1  0
  4  5  1  0
  5  6  1  0
  6  7  1  0
  7  8  1  0
  8  9  2  0
  9 10  1  0
 10 11  1  0
 11 12  1  0
 12 13  1  0
 13 14  1  0
 14 15  2  0
 15 16  1  0
 16 17  2  0
 17 18  1  0
 17 19  1  0
 19 20  2  0
 10 21  2  0
 21 22  1  0
 22 23  1  0
 23 24  1  0
 24 25  1  0
 25 26  1  0
 26 27  2  0
 27 28  1  0
 28 29  2  0
 29 30  1  0
 30 31  2  0
 31 32  1  0
 22 33  2  0
  7 34  1  0
 34 35  1  0
 35  4  1  0
 33  8  1  0
 20 14  1  0
 32 23  1  0
 31 26  1  0
  1 36  1  0
  1 37  1  0
  4 38  1  0
  5 39  1  0
  5 40  1  0
  6 41  1  0
  6 42  1  0
 11 43  1  0
 12 44  1  0
 12 45  1  0
 13 46  1  0
 13 47  1  0
 15 48  1  0
 16 49  1  0
 19 50  1  0
 20 51  1  0
 24 52  1  0
 24 53  1  0
 25 54  1  0
 25 55  1  0
 27 56  1  0
 28 57  1  0
 29 58  1  0
 30 59  1  0
 32 60  1  0
 32 61  1  0
 34 62  1  0
 34 63  1  0
 35 64  1  0
 35 65  1  0
M  END
>  <smiles>  (3) 
NC(=O)C1CCN(c2nc(NCCc3ccc(Cl)cc3)nc(N3CCc4ccccc4C3)n2)CC1

>  <score_type>  (3) 
oracle

>  <origin>  (3) 
autodockgpu

>  <m_score__min__energy>  (3) 
-10.08

>  <m_primary>  (3) 
energy

>  <rmsd>  (3) 
11.478957959157697

>  <m_score__min__rmsd>  (3) 
11.478957959157697

>  <meeko>  (3) 
{"free_energy": -9.02, "intermolecular_energy": -11.11, "internal_energy": -0.97, "cluster_size": 9, "cluster_id": 3, "rank_in_cluster": 8}

>  <energy>  (3) 
-9.93

>  <cluster_rmsd>  (3) 
1.34

>  <cluster>  (3) 
1

$$$$

     RDKit          3D

 65 69  0  0  0  0  0  0  0  0999 V2000
  140.1680   67.7630  227.6620 N   0  0  0  0  0  0  0  0  0  0  0  0
  140.5190   69.1330  227.8130 C   0  0  0  0  0  0  0  0  0  0  0  0
  141.3890   69.4830  228.6470 O   0  0  0  0  0  0  0  0  0  0  0  0
  139.8740   70.1940  226.9940 C   0  0  0  0  0  0  0  0  0  0  0  0
  140.9120   71.1790  226.5410 C   0  0  0  0  0  0  0  0  0  0  0  0
  141.4470   70.8140  225.1750 C   0  0  0  0  0  0  0  0  0  0  0  0
  140.3040   70.9470  224.2740 N   0  0  0  0  0  0  0  0  0  0  0  0
  140.3840   71.6560  223.0420 C   0  0  0  0  0  0  0  0  0  0  0  0
  140.7380   71.0610  221.8880 N   0  0  0  0  0  0  0  0  0  0  0  0
  140.7870   71.7940  220.7810 C   0  0  0  0  0  0  0  0  0  0  0  0
  141.1600   71.2180  219.5100 N   0  0  0  0  0  0  0  0  0  0  0  0
  142.1180   71.9550  218.7350 C   0  0  0  0  0  0  0  0  0  0  0  0
  142.9800   72.8010  219.6190 C   0  0  0  0  0  0  0  0  0  0  0  0
  142.7550   74.2210  219.3410 C   0  0  0  0  0  0  0  0  0  0  0  0
  143.6660   75.1290  219.8840 C   0  0  0  0  0  0  0  0  0  0  0  0
  143.5480   76.4900  219.7000 C   0  0  0  0  0  0  0  0  0  0  0  0
  142.4850   76.9500  218.9500 C   0  0  0  0  0  0  0  0  0  0  0  0
  142.3020   78.6690  218.6950 Cl  0  0  0  0  0  0  0  0  0  0  0  0
  141.5580   76.1100  218.3920 C   0  0  0  0  0  0  0  0  0  0  0  0
  141.7260   74.7480  218.6100 C   0  0  0  0  0  0  0  0  0  0  0  0
  140.4870   73.1030  220.8270 N   0  0  0  0  0  0  0  0  0  0  0  0
  140.1310   73.7180  221.9700 C   0  0  0  0  0  0  0  0  0  0  0  0
  139.8190   75.1140  221.9800 N   0  0  0  0  0  0  0  0  0  0  0  0
  138.4410   75.5130  222.1220 C   0  0  0  0  0  0  0  0  0  0  0  0
  138.2930   76.9170  221.6010 C   0  0  0  0  0  0  0  0  0  0  0  0
  139.2360   77.8000  222.3030 C   0  0  0  0  0  0  0  0  0  0  0  0
  138.8840   79.0270  222.8480 C   0  0  0  0  0  0  0  0  0  0  0  0
  139.8530   79.7960  223.5000 C   0  0  0  0  0  0  0  0  0  0  0  0
  141.1590   79.3750  223.6220 C   0  0  0  0  0  0  0  0  0  0  0  0
  141.4940   78.1550  223.0780 C   0  0  0  0  0  0  0  0  0  0  0  0
  140.5400   77.3910  222.4320 C   0  0  0  0  0  0  0  0  0  0  0  0
  140.9060   76.0760  221.8470 C   0  0  0  0  0  0  0  0  0  0  0  0
  140.0810   72.9840  223.0770 N   0  0  0  0  0  0  0  0  0  0  0  0
  139.0390   70.3460  224.6210 C   0  0  0  0  0  0  0  0  0  0  0  0
  139.0210   69.6400  225.9230 C   0  0  0  0  0  0  0  0  0  0  0  0
  140.8340   67.0920  227.1920 H   0  0  0  0  0  0  0  0  0  0  0  0
  139.2450   67.3730  228.0110 H   0  0  0  0  0  0  0  0  0  0  0  0
  139.1608   70.7567  227.6143 H   0  0  0  0  0  0  0  0  0  0  0  0
  140.4607   72.1811  226.4944 H   0  0  0  0  0  0  0  0  0  0  0  0
  141.7454   71.1642  227.2588 H   0  0  0  0  0  0  0  0  0  0  0  0
  142.2542   71.5005  224.8797 H   0  0  0  0  0  0  0  0  0  0  0  0
  141.8733   69.8002  225.1553 H   0  0  0  0  0  0  0  0  0  0  0  0
  140.7090   70.3320  219.2710 H   0  0  0  0  0  0  0  0  0  0  0  0
  142.7536   71.2485  218.1810 H   0  0  0  0  0  0  0  0  0  0  0  0
  141.5768   72.6116  218.0379 H   0  0  0  0  0  0  0  0  0  0  0  0
  142.7342   72.5939  220.6710 H   0  0  0  0  0  0  0  0  0  0  0  0
  144.0358   72.5614  219.4241 H   0  0  0  0  0  0  0  0  0  0  0  0
  144.5073   74.7449  220.4795 H   0  0  0  0  0  0  0  0  0  0  0  0
  144.2780   77.1872  220.1371 H   0  0  0  0  0  0  0  0  0  0  0  0
  140.7173   76.4967  217.7973 H   0  0  0  0  0  0  0  0  0  0  0  0
  140.9919   74.0563  218.1710 H   0  0  0  0  0  0  0  0  0  0  0  0
  137.7968   74.8334  221.5448 H   0  0  0  0  0  0  0  0  0  0  0  0
  138.1442   75.4711  223.1804 H   0  0  0  0  0  0  0  0  0  0  0  0
  138.5087   76.9329  220.5225 H   0  0  0  0  0  0  0  0  0  0  0  0
  137.2643   77.2665  221.7734 H   0  0  0  0  0  0  0  0  0  0  0  0
  137.8495   79.3921  222.7676 H   0  0  0  0  0  0  0  0  0  0  0  0
  139.5635   80.7668  223.9286 H   0  0  0  0  0  0  0  0  0  0  0  0
  141.9094   79.9929  224.1369 H   0  0  0  0  0  0  0  0  0  0  0  0
  142.5272   77.7861  223.1580 H   0  0  0  0  0  0  0  0  0  0  0  0
  141.1363   76.2106  220.7798 H   0  0  0  0  0  0  0  0  0  0  0  0
  141.7808   75.6873  222.3889 H   0  0  0  0  0  0  0  0  0  0  0  0
  138.2799   71.1415  224.6530 H   0  0  0  0  0  0  0  0  0  0  0  0
  138.8384   69.5838  223.8536 H   0  0  0  0  0  0  0  0  0  0  0  0
  137.9836   69.6434  226.2888 H   0  0  0  0  0  0  0  0  0  0  0  0
  139.4336   68.6419  225.7144 H   0  0  0  0  0  0  0  0  0  0  0  0
  1  2  1  0
  2  3  2  0
  2  4  1  0
  4  5  1  0
  5  6  1  0
  6  7  1  0
  7  8  1  0
  8  9  2  0
  9 10  1  0
 10 11  1  0
 11 12  1  0
 12 13  1  0
 13 14  1  0
 14 15  2  0
 15 16  1  0
 16 17  2  0
 17 18  1  0
 17 19  1  0
 19 20  2  0
 10 21  2  0
 21 22  1  0
 22 23  1  0
 23 24  1  0
 24 25  1  0
 25 26  1  0
 26 27  2  0
 27 28  1  0
 28 29  2  0
 29 30  1  0
 30 31  2  0
 31 32  1  0
 22 33  2  0
  7 34  1  0
 34 35  1  0
 35  4  1  0
 33  8  1  0
 20 14  1  0
 32 23  1  0
 31 26  1  0
  1 36  1  0
  1 37  1  0
  4 38  1  0
  5 39  1  0
  5 40  1  0
  6 41  1  0
  6 42  1  0
 11 43  1  0
 12 44  1  0
 12 45  1  0
 13 46  1  0
 13 47  1  0
 15 48  1  0
 16 49  1  0
 19 50  1  0
 20 51  1  0
 24 52  1  0
 24 53  1  0
 25 54  1  0
 25 55  1  0
 27 56  1  0
 28 57  1  0
 29 58  1  0
 30 59  1  0
 32 60  1  0
 32 61  1  0
 34 62  1  0
 34 63  1  0
 35 64  1  0
 35 65  1  0
M  END
>  <smiles>  (4) 
NC(=O)C1CCN(c2nc(NCCc3ccc(Cl)cc3)nc(N3CCc4ccccc4C3)n2)CC1

>  <score_type>  (4) 
oracle

>  <origin>  (4) 
autodockgpu

>  <m_score__min__energy>  (4) 
-10.08

>  <m_primary>  (4) 
energy

>  <rmsd>  (4) 
5.051614160519547

>  <m_score__min__rmsd>  (4) 
5.051614160519547

>  <meeko>  (4) 
{"free_energy": -8.41, "intermolecular_energy": -10.5, "internal_energy": -2.14, "cluster_size": 11, "cluster_id": 7, "rank_in_cluster": 9}

>  <energy>  (4) 
-9.81

>  <cluster_rmsd>  (4) 
1.51

>  <cluster>  (4) 
1

$$$$

     RDKit          3D

 65 69  0  0  0  0  0  0  0  0999 V2000
  137.2080   69.2210  225.1580 N   0  0  0  0  0  0  0  0  0  0  0  0
  138.5290   68.7010  225.2530 C   0  0  0  0  0  0  0  0  0  0  0  0
  138.7760   67.7160  225.9900 O   0  0  0  0  0  0  0  0  0  0  0  0
  139.6550   69.3000  224.4890 C   0  0  0  0  0  0  0  0  0  0  0  0
  139.3060   69.3390  223.0290 C   0  0  0  0  0  0  0  0  0  0  0  0
  138.6880   70.6660  222.6540 C   0  0  0  0  0  0  0  0  0  0  0  0
  139.7470   71.6510  222.8710 N   0  0  0  0  0  0  0  0  0  0  0  0
  140.0810   72.6370  221.8990 C   0  0  0  0  0  0  0  0  0  0  0  0
  140.5070   72.3170  220.6640 N   0  0  0  0  0  0  0  0  0  0  0  0
  140.7980   73.2970  219.8160 C   0  0  0  0  0  0  0  0  0  0  0  0
  141.2600   73.0220  218.4750 N   0  0  0  0  0  0  0  0  0  0  0  0
  141.0770   74.0730  217.5120 C   0  0  0  0  0  0  0  0  0  0  0  0
  142.3040   74.9240  217.4140 C   0  0  0  0  0  0  0  0  0  0  0  0
  143.3200   74.4640  218.3630 C   0  0  0  0  0  0  0  0  0  0  0  0
  143.5250   75.2440  219.5030 C   0  0  0  0  0  0  0  0  0  0  0  0
  144.4630   74.9170  220.4590 C   0  0  0  0  0  0  0  0  0  0  0  0
  145.2140   73.7760  220.2630 C   0  0  0  0  0  0  0  0  0  0  0  0
  146.4130   73.3280  221.4540 Cl  0  0  0  0  0  0  0  0  0  0  0  0
  145.0590   72.9710  219.1660 C   0  0  0  0  0  0  0  0  0  0  0  0
  144.0990   73.3480  218.2340 C   0  0  0  0  0  0  0  0  0  0  0  0
  140.6650   74.5790  220.1970 N   0  0  0  0  0  0  0  0  0  0  0  0
  140.2410   74.9200  221.4270 C   0  0  0  0  0  0  0  0  0  0  0  0
  140.1130   76.2960  221.7980 N   0  0  0  0  0  0  0  0  0  0  0  0
  139.0080   76.6850  222.6380 C   0  0  0  0  0  0  0  0  0  0  0  0
  138.7760   78.1630  222.4720 C   0  0  0  0  0  0  0  0  0  0  0  0
  140.0220   78.8870  222.7660 C   0  0  0  0  0  0  0  0  0  0  0  0
  140.0900   80.0000  223.5930 C   0  0  0  0  0  0  0  0  0  0  0  0
  141.3230   80.6220  223.8130 C   0  0  0  0  0  0  0  0  0  0  0  0
  142.4860   80.1640  223.2330 C   0  0  0  0  0  0  0  0  0  0  0  0
  142.4040   79.0590  222.4150 C   0  0  0  0  0  0  0  0  0  0  0  0
  141.1870   78.4410  222.1950 C   0  0  0  0  0  0  0  0  0  0  0  0
  141.1040   77.2490  221.3120 C   0  0  0  0  0  0  0  0  0  0  0  0
  139.9490   73.9400  222.2760 N   0  0  0  0  0  0  0  0  0  0  0  0
  140.4940   71.6460  224.1050 C   0  0  0  0  0  0  0  0  0  0  0  0
  140.1070   70.5840  225.0630 C   0  0  0  0  0  0  0  0  0  0  0  0
  136.4630   68.6890  224.6320 H   0  0  0  0  0  0  0  0  0  0  0  0
  136.9280   70.1430  225.6040 H   0  0  0  0  0  0  0  0  0  0  0  0
  140.5447   68.6596  224.5799 H   0  0  0  0  0  0  0  0  0  0  0  0
  140.2205   69.1881  222.4366 H   0  0  0  0  0  0  0  0  0  0  0  0
  138.5763   68.5422  222.8222 H   0  0  0  0  0  0  0  0  0  0  0  0
  138.3736   70.6621  221.5999 H   0  0  0  0  0  0  0  0  0  0  0  0
  137.7898   70.8867  223.2495 H   0  0  0  0  0  0  0  0  0  0  0  0
  141.6790   72.1010  218.3260 H   0  0  0  0  0  0  0  0  0  0  0  0
  140.8673   73.6280  216.5281 H   0  0  0  0  0  0  0  0  0  0  0  0
  140.2354   74.7038  217.8344 H   0  0  0  0  0  0  0  0  0  0  0  0
  142.7075   74.8624  216.3925 H   0  0  0  0  0  0  0  0  0  0  0  0
  142.0374   75.9642  217.6523 H   0  0  0  0  0  0  0  0  0  0  0  0
  142.9174   76.1502  219.6430 H   0  0  0  0  0  0  0  0  0  0  0  0
  144.6082   75.5457  221.3498 H   0  0  0  0  0  0  0  0  0  0  0  0
  145.6678   72.0653  219.0283 H   0  0  0  0  0  0  0  0  0  0  0  0
  143.9587   72.7148  217.3456 H   0  0  0  0  0  0  0  0  0  0  0  0
  138.1044   76.1324  222.3413 H   0  0  0  0  0  0  0  0  0  0  0  0
  139.2363   76.4561  223.6894 H   0  0  0  0  0  0  0  0  0  0  0  0
  138.4648   78.3722  221.4379 H   0  0  0  0  0  0  0  0  0  0  0  0
  137.9868   78.4920  223.1640 H   0  0  0  0  0  0  0  0  0  0  0  0
  139.1799   80.3901  224.0721 H   0  0  0  0  0  0  0  0  0  0  0  0
  141.3658   81.5039  224.4691 H   0  0  0  0  0  0  0  0  0  0  0  0
  143.4481   80.6644  223.4172 H   0  0  0  0  0  0  0  0  0  0  0  0
  143.3119   78.6660  221.9340 H   0  0  0  0  0  0  0  0  0  0  0  0
  140.8229   77.5727  220.2990 H   0  0  0  0  0  0  0  0  0  0  0  0
  142.0863   76.7541  221.3045 H   0  0  0  0  0  0  0  0  0  0  0  0
  141.5582   71.5141  223.8599 H   0  0  0  0  0  0  0  0  0  0  0  0
  140.2775   72.6036  224.6012 H   0  0  0  0  0  0  0  0  0  0  0  0
  140.9802   70.3751  225.6985 H   0  0  0  0  0  0  0  0  0  0  0  0
  139.2323   70.9837  225.5971 H   0  0  0  0  0  0  0  0  0  0  0  0
  1  2  1  0
  2  3  2  0
  2  4  1  0
  4  5  1  0
  5  6  1  0
  6  7  1  0
  7  8  1  0
  8  9  2  0
  9 10  1  0
 10 11  1  0
 11 12  1  0
 12 13  1  0
 13 14  1  0
 14 15  2  0
 15 16  1  0
 16 17  2  0
 17 18  1  0
 17 19  1  0
 19 20  2  0
 10 21  2  0
 21 22  1  0
 22 23  1  0
 23 24  1  0
 24 25  1  0
 25 26  1  0
 26 27  2  0
 27 28  1  0
 28 29  2  0
 29 30  1  0
 30 31  2  0
 31 32  1  0
 22 33  2  0
  7 34  1  0
 34 35  1  0
 35  4  1  0
 33  8  1  0
 20 14  1  0
 32 23  1  0
 31 26  1  0
  1 36  1  0
  1 37  1  0
  4 38  1  0
  5 39  1  0
  5 40  1  0
  6 41  1  0
  6 42  1  0
 11 43  1  0
 12 44  1  0
 12 45  1  0
 13 46  1  0
 13 47  1  0
 15 48  1  0
 16 49  1  0
 19 50  1  0
 20 51  1  0
 24 52  1  0
 24 53  1  0
 25 54  1  0
 25 55  1  0
 27 56  1  0
 28 57  1  0
 29 58  1  0
 30 59  1  0
 32 60  1  0
 32 61  1  0
 34 62  1  0
 34 63  1  0
 35 64  1  0
 35 65  1  0
M  END
>  <smiles>  (5) 
NC(=O)C1CCN(c2nc(NCCc3ccc(Cl)cc3)nc(N3CCc4ccccc4C3)n2)CC1

>  <score_type>  (5) 
oracle

>  <origin>  (5) 
autodockgpu

>  <m_score__min__energy>  (5) 
-10.08

>  <m_primary>  (5) 
energy

>  <rmsd>  (5) 
5.290312306353719

>  <m_score__min__rmsd>  (5) 
5.290312306353719

>  <meeko>  (5) 
{"free_energy": -8.51, "intermolecular_energy": -10.6, "internal_energy": -1.66, "cluster_size": 11, "cluster_id": 7, "rank_in_cluster": 8}

>  <energy>  (5) 
-9.56

>  <cluster_rmsd>  (5) 
1.3

>  <cluster>  (5) 
1

$$$$

     RDKit          3D

 65 69  0  0  0  0  0  0  0  0999 V2000
  144.4200   74.2930  217.7820 N   0  0  0  0  0  0  0  0  0  0  0  0
  145.1570   73.4050  218.6120 C   0  0  0  0  0  0  0  0  0  0  0  0
  146.3230   73.0580  218.3010 O   0  0  0  0  0  0  0  0  0  0  0  0
  144.5810   72.8590  219.8690 C   0  0  0  0  0  0  0  0  0  0  0  0
  143.8340   73.9440  220.5910 C   0  0  0  0  0  0  0  0  0  0  0  0
  142.3690   73.9310  220.2210 C   0  0  0  0  0  0  0  0  0  0  0  0
  141.8630   72.6540  220.7200 N   0  0  0  0  0  0  0  0  0  0  0  0
  140.6690   72.5550  221.4890 C   0  0  0  0  0  0  0  0  0  0  0  0
  139.5850   73.3120  221.2390 N   0  0  0  0  0  0  0  0  0  0  0  0
  138.5100   73.1580  222.0040 C   0  0  0  0  0  0  0  0  0  0  0  0
  137.3130   73.9390  221.7890 N   0  0  0  0  0  0  0  0  0  0  0  0
  137.4640   75.1270  220.9950 C   0  0  0  0  0  0  0  0  0  0  0  0
  137.2030   76.3510  221.8140 C   0  0  0  0  0  0  0  0  0  0  0  0
  138.4640   77.0020  222.1720 C   0  0  0  0  0  0  0  0  0  0  0  0
  138.3870   78.2890  222.7100 C   0  0  0  0  0  0  0  0  0  0  0  0
  139.5090   79.0030  223.0710 C   0  0  0  0  0  0  0  0  0  0  0  0
  140.7400   78.4090  222.8870 C   0  0  0  0  0  0  0  0  0  0  0  0
  142.1860   79.2850  223.3340 Cl  0  0  0  0  0  0  0  0  0  0  0  0
  140.8810   77.1510  222.3640 C   0  0  0  0  0  0  0  0  0  0  0  0
  139.7170   76.4760  222.0170 C   0  0  0  0  0  0  0  0  0  0  0  0
  138.5170   72.2600  223.0040 N   0  0  0  0  0  0  0  0  0  0  0  0
  139.5900   71.4940  223.2710 C   0  0  0  0  0  0  0  0  0  0  0  0
  139.5620   70.5490  224.3450 N   0  0  0  0  0  0  0  0  0  0  0  0
  139.4910   69.1440  224.0280 C   0  0  0  0  0  0  0  0  0  0  0  0
  138.9630   68.4080  225.2290 C   0  0  0  0  0  0  0  0  0  0  0  0
  139.8100   68.7060  226.3940 C   0  0  0  0  0  0  0  0  0  0  0  0
  140.3020   67.7370  227.2580 C   0  0  0  0  0  0  0  0  0  0  0  0
  141.1020   68.1190  228.3390 C   0  0  0  0  0  0  0  0  0  0  0  0
  141.4230   69.4360  228.5810 C   0  0  0  0  0  0  0  0  0  0  0  0
  140.9290   70.3870  227.7160 C   0  0  0  0  0  0  0  0  0  0  0  0
  140.1370   70.0150  226.6460 C   0  0  0  0  0  0  0  0  0  0  0  0
  139.6060   71.0440  225.7160 C   0  0  0  0  0  0  0  0  0  0  0  0
  140.6670   71.6470  222.5050 N   0  0  0  0  0  0  0  0  0  0  0  0
  142.5800   71.4340  220.4360 C   0  0  0  0  0  0  0  0  0  0  0  0
  143.8220   71.6120  219.6480 C   0  0  0  0  0  0  0  0  0  0  0  0
  144.6730   75.3170  217.7410 H   0  0  0  0  0  0  0  0  0  0  0  0
  143.6060   73.9670  217.1850 H   0  0  0  0  0  0  0  0  0  0  0  0
  145.3931   72.5401  220.5389 H   0  0  0  0  0  0  0  0  0  0  0  0
  143.9326   73.7883  221.6755 H   0  0  0  0  0  0  0  0  0  0  0  0
  144.2602   74.9157  220.3010 H   0  0  0  0  0  0  0  0  0  0  0  0
  141.8420   74.7693  220.7001 H   0  0  0  0  0  0  0  0  0  0  0  0
  142.2161   74.0404  219.1372 H   0  0  0  0  0  0  0  0  0  0  0  0
  136.4600   73.5790  222.2230 H   0  0  0  0  0  0  0  0  0  0  0  0
  138.4901   75.1691  220.6008 H   0  0  0  0  0  0  0  0  0  0  0  0
  136.7374   75.0938  220.1698 H   0  0  0  0  0  0  0  0  0  0  0  0
  136.5854   77.0515  221.2327 H   0  0  0  0  0  0  0  0  0  0  0  0
  136.6772   76.0594  222.7351 H   0  0  0  0  0  0  0  0  0  0  0  0
  137.3972   78.7480  222.8502 H   0  0  0  0  0  0  0  0  0  0  0  0
  139.4254   80.0154  223.4929 H   0  0  0  0  0  0  0  0  0  0  0  0
  141.8723   76.6950  222.2248 H   0  0  0  0  0  0  0  0  0  0  0  0
  139.8082   75.4643  221.5950 H   0  0  0  0  0  0  0  0  0  0  0  0
  138.8162   68.9905  223.1729 H   0  0  0  0  0  0  0  0  0  0  0  0
  140.4903   68.7668  223.7650 H   0  0  0  0  0  0  0  0  0  0  0  0
  137.9313   68.7303  225.4330 H   0  0  0  0  0  0  0  0  0  0  0  0
  138.9752   67.3258  225.0322 H   0  0  0  0  0  0  0  0  0  0  0  0
  140.0640   66.6758  227.0931 H   0  0  0  0  0  0  0  0  0  0  0  0
  141.4870   67.3434  229.0173 H   0  0  0  0  0  0  0  0  0  0  0  0
  142.0532   69.7191  229.4370 H   0  0  0  0  0  0  0  0  0  0  0  0
  141.1661   71.4489  227.8776 H   0  0  0  0  0  0  0  0  0  0  0  0
  138.5884   71.3195  226.0300 H   0  0  0  0  0  0  0  0  0  0  0  0
  140.2738   71.9175  225.7478 H   0  0  0  0  0  0  0  0  0  0  0  0
  142.8469   70.9632  221.3936 H   0  0  0  0  0  0  0  0  0  0  0  0
  141.9089   70.8166  219.8208 H   0  0  0  0  0  0  0  0  0  0  0  0
  144.4894   70.7704  219.8852 H   0  0  0  0  0  0  0  0  0  0  0  0
  143.4919   71.6595  218.5998 H   0  0  0  0  0  0  0  0  0  0  0  0
  1  2  1  0
  2  3  2  0
  2  4  1  0
  4  5  1  0
  5  6  1  0
  6  7  1  0
  7  8  1  0
  8  9  2  0
  9 10  1  0
 10 11  1  0
 11 12  1  0
 12 13  1  0
 13 14  1  0
 14 15  2  0
 15 16  1  0
 16 17  2  0
 17 18  1  0
 17 19  1  0
 19 20  2  0
 10 21  2  0
 21 22  1  0
 22 23  1  0
 23 24  1  0
 24 25  1  0
 25 26  1  0
 26 27  2  0
 27 28  1  0
 28 29  2  0
 29 30  1  0
 30 31  2  0
 31 32  1  0
 22 33  2  0
  7 34  1  0
 34 35  1  0
 35  4  1  0
 33  8  1  0
 20 14  1  0
 32 23  1  0
 31 26  1  0
  1 36  1  0
  1 37  1  0
  4 38  1  0
  5 39  1  0
  5 40  1  0
  6 41  1  0
  6 42  1  0
 11 43  1  0
 12 44  1  0
 12 45  1  0
 13 46  1  0
 13 47  1  0
 15 48  1  0
 16 49  1  0
 19 50  1  0
 20 51  1  0
 24 52  1  0
 24 53  1  0
 25 54  1  0
 25 55  1  0
 27 56  1  0
 28 57  1  0
 29 58  1  0
 30 59  1  0
 32 60  1  0
 32 61  1  0
 34 62  1  0
 34 63  1  0
 35 64  1  0
 35 65  1  0
M  END
>  <smiles>  (6) 
NC(=O)C1CCN(c2nc(NCCc3ccc(Cl)cc3)nc(N3CCc4ccccc4C3)n2)CC1

>  <score_type>  (6) 
oracle

>  <origin>  (6) 
autodockgpu

>  <m_score__min__energy>  (6) 
-10.08

>  <m_primary>  (6) 
energy

>  <rmsd>  (6) 
11.937932847745582

>  <m_score__min__rmsd>  (6) 
11.937932847745582

>  <meeko>  (6) 
{"free_energy": -9.21, "intermolecular_energy": -11.3, "internal_energy": -1.4, "cluster_size": 9, "cluster_id": 3, "rank_in_cluster": 5}

>  <energy>  (6) 
-9.54

>  <cluster_rmsd>  (6) 
1.53

>  <cluster>  (6) 
1

$$$$

     RDKit          3D

 65 69  0  0  0  0  0  0  0  0999 V2000
  140.2910   68.6530  227.6680 N   0  0  0  0  0  0  0  0  0  0  0  0
  139.5010   68.5020  226.4940 C   0  0  0  0  0  0  0  0  0  0  0  0
  139.1630   67.3610  226.0950 O   0  0  0  0  0  0  0  0  0  0  0  0
  139.0520   69.6790  225.7050 C   0  0  0  0  0  0  0  0  0  0  0  0
  140.0530   70.7890  225.8450 C   0  0  0  0  0  0  0  0  0  0  0  0
  141.0660   70.7510  224.7240 C   0  0  0  0  0  0  0  0  0  0  0  0
  140.2950   71.0160  223.5100 N   0  0  0  0  0  0  0  0  0  0  0  0
  140.7060   71.9750  222.5410 C   0  0  0  0  0  0  0  0  0  0  0  0
  141.5010   71.6570  221.5030 N   0  0  0  0  0  0  0  0  0  0  0  0
  141.8380   72.6120  220.6420 C   0  0  0  0  0  0  0  0  0  0  0  0
  142.6880   72.3380  219.5070 N   0  0  0  0  0  0  0  0  0  0  0  0
  143.1720   73.4820  218.7850 C   0  0  0  0  0  0  0  0  0  0  0  0
  142.0910   74.0710  217.9340 C   0  0  0  0  0  0  0  0  0  0  0  0
  141.8910   75.4820  218.2700 C   0  0  0  0  0  0  0  0  0  0  0  0
  143.0190   76.2120  218.6500 C   0  0  0  0  0  0  0  0  0  0  0  0
  142.9500   77.5430  219.0000 C   0  0  0  0  0  0  0  0  0  0  0  0
  141.7150   78.1560  218.9670 C   0  0  0  0  0  0  0  0  0  0  0  0
  141.5870   79.8440  219.4040 Cl  0  0  0  0  0  0  0  0  0  0  0  0
  140.5720   77.4940  218.6030 C   0  0  0  0  0  0  0  0  0  0  0  0
  140.7000   76.1530  218.2600 C   0  0  0  0  0  0  0  0  0  0  0  0
  141.3870   73.8660  220.8170 N   0  0  0  0  0  0  0  0  0  0  0  0
  140.5920   74.2040  221.8480 C   0  0  0  0  0  0  0  0  0  0  0  0
  140.1320   75.5510  222.0020 N   0  0  0  0  0  0  0  0  0  0  0  0
  138.7510   75.7730  222.3500 C   0  0  0  0  0  0  0  0  0  0  0  0
  138.3780   77.1770  221.9580 C   0  0  0  0  0  0  0  0  0  0  0  0
  139.3060   78.1240  222.5960 C   0  0  0  0  0  0  0  0  0  0  0  0
  138.8980   79.2660  223.2710 C   0  0  0  0  0  0  0  0  0  0  0  0
  139.8560   80.1060  223.8470 C   0  0  0  0  0  0  0  0  0  0  0  0
  141.2040   79.8380  223.7690 C   0  0  0  0  0  0  0  0  0  0  0  0
  141.5950   78.7010  223.0970 C   0  0  0  0  0  0  0  0  0  0  0  0
  140.6520   77.8670  222.5250 C   0  0  0  0  0  0  0  0  0  0  0  0
  141.0780   76.6420  221.8010 C   0  0  0  0  0  0  0  0  0  0  0  0
  140.2540   73.2490  222.7090 N   0  0  0  0  0  0  0  0  0  0  0  0
  139.0730   70.2920  223.2600 C   0  0  0  0  0  0  0  0  0  0  0  0
  138.6950   69.3240  224.3160 C   0  0  0  0  0  0  0  0  0  0  0  0
  139.8660   68.4870  228.6200 H   0  0  0  0  0  0  0  0  0  0  0  0
  141.3140   68.9310  227.6300 H   0  0  0  0  0  0  0  0  0  0  0  0
  138.1056   70.0599  226.1164 H   0  0  0  0  0  0  0  0  0  0  0  0
  139.5255   71.7540  225.8203 H   0  0  0  0  0  0  0  0  0  0  0  0
  140.5835   70.6634  226.8004 H   0  0  0  0  0  0  0  0  0  0  0  0
  141.8346   71.5242  224.8707 H   0  0  0  0  0  0  0  0  0  0  0  0
  141.5946   69.7875  224.6764 H   0  0  0  0  0  0  0  0  0  0  0  0
  142.8730   71.3510  219.3140 H   0  0  0  0  0  0  0  0  0  0  0  0
  143.5196   74.2402  219.5021 H   0  0  0  0  0  0  0  0  0  0  0  0
  143.9988   73.1631  218.1333 H   0  0  0  0  0  0  0  0  0  0  0  0
  142.3768   73.9872  216.8751 H   0  0  0  0  0  0  0  0  0  0  0  0
  141.1543   73.5238  218.1163 H   0  0  0  0  0  0  0  0  0  0  0  0
  143.9962   75.7073  218.6707 H   0  0  0  0  0  0  0  0  0  0  0  0
  143.8516   78.0991  219.2964 H   0  0  0  0  0  0  0  0  0  0  0  0
  139.5962   78.0013  218.5831 H   0  0  0  0  0  0  0  0  0  0  0  0
  139.7946   75.6024  217.9648 H   0  0  0  0  0  0  0  0  0  0  0  0
  138.1132   75.0560  221.8122 H   0  0  0  0  0  0  0  0  0  0  0  0
  138.6086   75.6340  223.4319 H   0  0  0  0  0  0  0  0  0  0  0  0
  138.4403   77.2819  220.8648 H   0  0  0  0  0  0  0  0  0  0  0  0
  137.3504   77.3903  222.2873 H   0  0  0  0  0  0  0  0  0  0  0  0
  137.8282   79.5087  223.3523 H   0  0  0  0  0  0  0  0  0  0  0  0
  139.5221   81.0091  224.3790 H   0  0  0  0  0  0  0  0  0  0  0  0
  141.9444   80.5096  224.2281 H   0  0  0  0  0  0  0  0  0  0  0  0
  142.6640   78.4549  223.0149 H   0  0  0  0  0  0  0  0  0  0  0  0
  141.1435   76.8658  220.7260 H   0  0  0  0  0  0  0  0  0  0  0  0
  142.0566   76.3294  222.1941 H   0  0  0  0  0  0  0  0  0  0  0  0
  138.2573   71.0230  223.1585 H   0  0  0  0  0  0  0  0  0  0  0  0
  139.2447   69.7022  222.3475 H   0  0  0  0  0  0  0  0  0  0  0  0
  137.6031   69.1969  224.2753 H   0  0  0  0  0  0  0  0  0  0  0  0
  139.2739   68.4155  224.0937 H   0  0  0  0  0  0  0  0  0  0  0  0
  1  2  1  0
  2  3  2  0
  2  4  1  0
  4  5  1  0
  5  6  1  0
  6  7  1  0
  7  8  1  0
  8  9  2  0
  9 10  1  0
 10 11  1  0
 11 12  1  0
 12 13  1  0
 13 14  1  0
 14 15  2  0
 15 16  1  0
 16 17  2  0
 17 18  1  0
 17 19  1  0
 19 20  2  0
 10 21  2  0
 21 22  1  0
 22 23  1  0
 23 24  1  0
 24 25  1  0
 25 26  1  0
 26 27  2  0
 27 28  1  0
 28 29  2  0
 29 30  1  0
 30 31  2  0
 31 32  1  0
 22 33  2  0
  7 34  1  0
 34 35  1  0
 35  4  1  0
 33  8  1  0
 20 14  1  0
 32 23  1  0
 31 26  1  0
  1 36  1  0
  1 37  1  0
  4 38  1  0
  5 39  1  0
  5 40  1  0
  6 41  1  0
  6 42  1  0
 11 43  1  0
 12 44  1  0
 12 45  1  0
 13 46  1  0
 13 47  1  0
 15 48  1  0
 16 49  1  0
 19 50  1  0
 20 51  1  0
 24 52  1  0
 24 53  1  0
 25 54  1  0
 25 55  1  0
 27 56  1  0
 28 57  1  0
 29 58  1  0
 30 59  1  0
 32 60  1  0
 32 61  1  0
 34 62  1  0
 34 63  1  0
 35 64  1  0
 35 65  1  0
M  END
>  <smiles>  (7) 
NC(=O)C1CCN(c2nc(NCCc3ccc(Cl)cc3)nc(N3CCc4ccccc4C3)n2)CC1

>  <score_type>  (7) 
oracle

>  <origin>  (7) 
autodockgpu

>  <m_score__min__energy>  (7) 
-10.08

>  <m_primary>  (7) 
energy

>  <rmsd>  (7) 
5.118728942386317

>  <m_score__min__rmsd>  (7) 
5.118728942386317

>  <meeko>  (7) 
{"free_energy": -7.82, "intermolecular_energy": -9.9, "internal_energy": -2.38, "cluster_size": 4, "cluster_id": 8, "rank_in_cluster": 3}

>  <energy>  (7) 
-9.54

>  <cluster_rmsd>  (7) 
1.59

>  <cluster>  (7) 
1

$$$$

     RDKit          3D

 65 69  0  0  0  0  0  0  0  0999 V2000
  140.0660   67.7490  227.6770 N   0  0  0  0  0  0  0  0  0  0  0  0
  140.3440   69.1390  227.5550 C   0  0  0  0  0  0  0  0  0  0  0  0
  141.2580   69.6700  228.2320 O   0  0  0  0  0  0  0  0  0  0  0  0
  139.5690   70.0070  226.6290 C   0  0  0  0  0  0  0  0  0  0  0  0
  140.3380   71.2690  226.3620 C   0  0  0  0  0  0  0  0  0  0  0  0
  141.1810   71.1350  225.1150 C   0  0  0  0  0  0  0  0  0  0  0  0
  140.2200   70.9770  224.0240 N   0  0  0  0  0  0  0  0  0  0  0  0
  140.3010   71.7360  222.8220 C   0  0  0  0  0  0  0  0  0  0  0  0
  140.6500   71.1870  221.6440 N   0  0  0  0  0  0  0  0  0  0  0  0
  140.7000   71.9650  220.5690 C   0  0  0  0  0  0  0  0  0  0  0  0
  141.0680   71.4400  219.2740 N   0  0  0  0  0  0  0  0  0  0  0  0
  141.7640   72.3410  218.3980 C   0  0  0  0  0  0  0  0  0  0  0  0
  142.9060   72.9980  219.1080 C   0  0  0  0  0  0  0  0  0  0  0  0
  142.7340   74.4520  219.1120 C   0  0  0  0  0  0  0  0  0  0  0  0
  141.6450   74.9660  218.4050 C   0  0  0  0  0  0  0  0  0  0  0  0
  141.3910   76.3180  218.3280 C   0  0  0  0  0  0  0  0  0  0  0  0
  142.2540   77.1760  218.9780 C   0  0  0  0  0  0  0  0  0  0  0  0
  141.9640   78.8980  218.9030 Cl  0  0  0  0  0  0  0  0  0  0  0  0
  143.3390   76.7330  219.6870 C   0  0  0  0  0  0  0  0  0  0  0  0
  143.5480   75.3590  219.7310 C   0  0  0  0  0  0  0  0  0  0  0  0
  140.4050   73.2730  220.6690 N   0  0  0  0  0  0  0  0  0  0  0  0
  140.0540   73.8410  221.8370 C   0  0  0  0  0  0  0  0  0  0  0  0
  139.7470   75.2370  221.9050 N   0  0  0  0  0  0  0  0  0  0  0  0
  138.3700   75.6350  222.0540 C   0  0  0  0  0  0  0  0  0  0  0  0
  138.2310   77.0610  221.5930 C   0  0  0  0  0  0  0  0  0  0  0  0
  139.1720   77.9090  222.3400 C   0  0  0  0  0  0  0  0  0  0  0  0
  138.8210   79.1130  222.9340 C   0  0  0  0  0  0  0  0  0  0  0  0
  139.7880   79.8490  223.6260 C   0  0  0  0  0  0  0  0  0  0  0  0
  141.0910   79.4180  223.7400 C   0  0  0  0  0  0  0  0  0  0  0  0
  141.4260   78.2210  223.1450 C   0  0  0  0  0  0  0  0  0  0  0  0
  140.4730   77.4900  222.4610 C   0  0  0  0  0  0  0  0  0  0  0  0
  140.8390   76.1990  221.8210 C   0  0  0  0  0  0  0  0  0  0  0  0
  140.0030   73.0630  222.9130 N   0  0  0  0  0  0  0  0  0  0  0  0
  139.1450   70.0230  224.1450 C   0  0  0  0  0  0  0  0  0  0  0  0
  139.1100   69.2820  225.4270 C   0  0  0  0  0  0  0  0  0  0  0  0
  140.7290   67.0360  227.2700 H   0  0  0  0  0  0  0  0  0  0  0  0
  139.2010   67.3860  228.1730 H   0  0  0  0  0  0  0  0  0  0  0  0
  138.6278   70.3122  227.1097 H   0  0  0  0  0  0  0  0  0  0  0  0
  139.6302   72.1007  226.2302 H   0  0  0  0  0  0  0  0  0  0  0  0
  141.0036   71.4616  227.2163 H   0  0  0  0  0  0  0  0  0  0  0  0
  141.7933   72.0362  224.9635 H   0  0  0  0  0  0  0  0  0  0  0  0
  141.8789   70.2870  225.1771 H   0  0  0  0  0  0  0  0  0  0  0  0
  140.8010   70.4700  219.0930 H   0  0  0  0  0  0  0  0  0  0  0  0
  142.1514   71.7783  217.5359 H   0  0  0  0  0  0  0  0  0  0  0  0
  141.0624   73.1195  218.0638 H   0  0  0  0  0  0  0  0  0  0  0  0
  142.9454   72.6346  220.1455 H   0  0  0  0  0  0  0  0  0  0  0  0
  143.8418   72.7502  218.5856 H   0  0  0  0  0  0  0  0  0  0  0  0
  140.9670   74.2679  217.8922 H   0  0  0  0  0  0  0  0  0  0  0  0
  140.5269   76.7015  217.7657 H   0  0  0  0  0  0  0  0  0  0  0  0
  144.0153   77.4334  220.1990 H   0  0  0  0  0  0  0  0  0  0  0  0
  144.4145   74.9819  220.2939 H   0  0  0  0  0  0  0  0  0  0  0  0
  137.7276   74.9836  221.4433 H   0  0  0  0  0  0  0  0  0  0  0  0
  138.0652   75.5487  223.1074 H   0  0  0  0  0  0  0  0  0  0  0  0
  138.4551   77.1228  220.5178 H   0  0  0  0  0  0  0  0  0  0  0  0
  137.2023   77.4068  221.7723 H   0  0  0  0  0  0  0  0  0  0  0  0
  137.7888   79.4861  222.8610 H   0  0  0  0  0  0  0  0  0  0  0  0
  139.4989   80.8017  224.0938 H   0  0  0  0  0  0  0  0  0  0  0  0
  141.8394   80.0095  224.2877 H   0  0  0  0  0  0  0  0  0  0  0  0
  142.4575   77.8452  223.2148 H   0  0  0  0  0  0  0  0  0  0  0  0
  141.0772   76.3789  220.7623 H   0  0  0  0  0  0  0  0  0  0  0  0
  141.7088   75.7835  222.3508 H   0  0  0  0  0  0  0  0  0  0  0  0
  138.1937   70.5647  224.0374 H   0  0  0  0  0  0  0  0  0  0  0  0
  139.3096   69.2715  223.3588 H   0  0  0  0  0  0  0  0  0  0  0  0
  138.0697   68.9711  225.6032 H   0  0  0  0  0  0  0  0  0  0  0  0
  139.8238   68.4547  225.3003 H   0  0  0  0  0  0  0  0  0  0  0  0
  1  2  1  0
  2  3  2  0
  2  4  1  0
  4  5  1  0
  5  6  1  0
  6  7  1  0
  7  8  1  0
  8  9  2  0
  9 10  1  0
 10 11  1  0
 11 12  1  0
 12 13  1  0
 13 14  1  0
 14 15  2  0
 15 16  1  0
 16 17  2  0
 17 18  1  0
 17 19  1  0
 19 20  2  0
 10 21  2  0
 21 22  1  0
 22 23  1  0
 23 24  1  0
 24 25  1  0
 25 26  1  0
 26 27  2  0
 27 28  1  0
 28 29  2  0
 29 30  1  0
 30 31  2  0
 31 32  1  0
 22 33  2  0
  7 34  1  0
 34 35  1  0
 35  4  1  0
 33  8  1  0
 20 14  1  0
 32 23  1  0
 31 26  1  0
  1 36  1  0
  1 37  1  0
  4 38  1  0
  5 39  1  0
  5 40  1  0
  6 41  1  0
  6 42  1  0
 11 43  1  0
 12 44  1  0
 12 45  1  0
 13 46  1  0
 13 47  1  0
 15 48  1  0
 16 49  1  0
 19 50  1  0
 20 51  1  0
 24 52  1  0
 24 53  1  0
 25 54  1  0
 25 55  1  0
 27 56  1  0
 28 57  1  0
 29 58  1  0
 30 59  1  0
 32 60  1  0
 32 61  1  0
 34 62  1  0
 34 63  1  0
 35 64  1  0
 35 65  1  0
M  END
>  <smiles>  (8) 
NC(=O)C1CCN(c2nc(NCCc3ccc(Cl)cc3)nc(N3CCc4ccccc4C3)n2)CC1

>  <score_type>  (8) 
oracle

>  <origin>  (8) 
autodockgpu

>  <m_score__min__energy>  (8) 
-10.08

>  <m_primary>  (8) 
energy

>  <rmsd>  (8) 
5.099057543133786

>  <m_score__min__rmsd>  (8) 
5.099057543133786

>  <meeko>  (8) 
{"free_energy": -8.35, "intermolecular_energy": -10.44, "internal_energy": -2.3, "cluster_size": 11, "cluster_id": 7, "rank_in_cluster": 10}

>  <energy>  (8) 
-9.52

>  <cluster_rmsd>  (8) 
1.57

>  <cluster>  (8) 
1

$$$$

     RDKit          3D

 65 69  0  0  0  0  0  0  0  0999 V2000
  145.7920   70.2280  217.3590 N   0  0  0  0  0  0  0  0  0  0  0  0
  145.5690   71.1890  218.3840 C   0  0  0  0  0  0  0  0  0  0  0  0
  146.3280   71.2480  219.3820 O   0  0  0  0  0  0  0  0  0  0  0  0
  144.4390   72.1520  218.3100 C   0  0  0  0  0  0  0  0  0  0  0  0
  143.1570   71.4480  218.6500 C   0  0  0  0  0  0  0  0  0  0  0  0
  142.8370   71.5850  220.1210 C   0  0  0  0  0  0  0  0  0  0  0  0
  142.6120   73.0140  220.3280 N   0  0  0  0  0  0  0  0  0  0  0  0
  141.4790   73.5130  221.0320 C   0  0  0  0  0  0  0  0  0  0  0  0
  140.5080   72.7070  221.5000 N   0  0  0  0  0  0  0  0  0  0  0  0
  139.4840   73.2520  222.1480 C   0  0  0  0  0  0  0  0  0  0  0  0
  138.4080   72.4440  222.6740 N   0  0  0  0  0  0  0  0  0  0  0  0
  138.1780   71.1870  222.0180 C   0  0  0  0  0  0  0  0  0  0  0  0
  139.1990   70.1750  222.4330 C   0  0  0  0  0  0  0  0  0  0  0  0
  139.5580   70.3620  223.8400 C   0  0  0  0  0  0  0  0  0  0  0  0
  140.6540   71.1840  224.1140 C   0  0  0  0  0  0  0  0  0  0  0  0
  141.0910   71.4210  225.3990 C   0  0  0  0  0  0  0  0  0  0  0  0
  140.4100   70.8180  226.4360 C   0  0  0  0  0  0  0  0  0  0  0  0
  140.9350   71.0960  228.0790 Cl  0  0  0  0  0  0  0  0  0  0  0  0
  139.3290   70.0020  226.2310 C   0  0  0  0  0  0  0  0  0  0  0  0
  138.9310   69.7970  224.9150 C   0  0  0  0  0  0  0  0  0  0  0  0
  139.4310   74.5830  222.3260 N   0  0  0  0  0  0  0  0  0  0  0  0
  140.3910   75.4060  221.8660 C   0  0  0  0  0  0  0  0  0  0  0  0
  140.3010   76.8190  222.0750 N   0  0  0  0  0  0  0  0  0  0  0  0
  139.1100   77.3520  222.6890 C   0  0  0  0  0  0  0  0  0  0  0  0
  139.0060   78.8130  222.3430 C   0  0  0  0  0  0  0  0  0  0  0  0
  140.2390   79.5000  222.7560 C   0  0  0  0  0  0  0  0  0  0  0  0
  140.2560   80.6910  223.4690 C   0  0  0  0  0  0  0  0  0  0  0  0
  141.4810   81.2690  223.8180 C   0  0  0  0  0  0  0  0  0  0  0  0
  142.6840   80.6930  223.4760 C   0  0  0  0  0  0  0  0  0  0  0  0
  142.6530   79.5110  222.7690 C   0  0  0  0  0  0  0  0  0  0  0  0
  141.4440   78.9360  222.4210 C   0  0  0  0  0  0  0  0  0  0  0  0
  141.4160   77.6620  221.6590 C   0  0  0  0  0  0  0  0  0  0  0  0
  141.4170   74.8610  221.2180 N   0  0  0  0  0  0  0  0  0  0  0  0
  143.5560   73.9740  219.8120 C   0  0  0  0  0  0  0  0  0  0  0  0
  144.7000   73.3890  219.0740 C   0  0  0  0  0  0  0  0  0  0  0  0
  146.6010   70.3410  216.6900 H   0  0  0  0  0  0  0  0  0  0  0  0
  145.1690   69.3790  217.2340 H   0  0  0  0  0  0  0  0  0  0  0  0
  144.3309   72.5154  217.2774 H   0  0  0  0  0  0  0  0  0  0  0  0
  142.3383   71.8875  218.0614 H   0  0  0  0  0  0  0  0  0  0  0  0
  143.2709   70.3796  218.4143 H   0  0  0  0  0  0  0  0  0  0  0  0
  141.9340   71.0107  220.3753 H   0  0  0  0  0  0  0  0  0  0  0  0
  143.6463   71.1978  220.7575 H   0  0  0  0  0  0  0  0  0  0  0  0
  137.9020   72.8380  223.4700 H   0  0  0  0  0  0  0  0  0  0  0  0
  137.1764   70.8190  222.2853 H   0  0  0  0  0  0  0  0  0  0  0  0
  138.2537   71.3381  220.9311 H   0  0  0  0  0  0  0  0  0  0  0  0
  138.7855   69.1650  222.2953 H   0  0  0  0  0  0  0  0  0  0  0  0
  140.0997   70.3014  221.8143 H   0  0  0  0  0  0  0  0  0  0  0  0
  141.1858   71.6578  223.2758 H   0  0  0  0  0  0  0  0  0  0  0  0
  141.9568   72.0714  225.5921 H   0  0  0  0  0  0  0  0  0  0  0  0
  138.7990   69.5296  227.0712 H   0  0  0  0  0  0  0  0  0  0  0  0
  138.0649   69.1450  224.7288 H   0  0  0  0  0  0  0  0  0  0  0  0
  138.2264   76.8174  222.3102 H   0  0  0  0  0  0  0  0  0  0  0  0
  139.1607   77.2263  223.7806 H   0  0  0  0  0  0  0  0  0  0  0  0
  138.8694   78.9245  221.2572 H   0  0  0  0  0  0  0  0  0  0  0  0
  138.1453   79.2549  222.8664 H   0  0  0  0  0  0  0  0  0  0  0  0
  139.3123   81.1770  223.7576 H   0  0  0  0  0  0  0  0  0  0  0  0
  141.4834   82.2128  224.3831 H   0  0  0  0  0  0  0  0  0  0  0  0
  143.6385   81.1613  223.7581 H   0  0  0  0  0  0  0  0  0  0  0  0
  143.5948   79.0218  222.4796 H   0  0  0  0  0  0  0  0  0  0  0  0
  141.3138   77.8879  220.5873 H   0  0  0  0  0  0  0  0  0  0  0  0
  142.3527   77.1198  221.8554 H   0  0  0  0  0  0  0  0  0  0  0  0
  143.0185   74.6491  219.1299 H   0  0  0  0  0  0  0  0  0  0  0  0
  143.9828   74.4877  220.6861 H   0  0  0  0  0  0  0  0  0  0  0  0
  145.0611   74.1481  218.3645 H   0  0  0  0  0  0  0  0  0  0  0  0
  145.4245   73.1000  219.8496 H   0  0  0  0  0  0  0  0  0  0  0  0
  1  2  1  0
  2  3  2  0
  2  4  1  0
  4  5  1  0
  5  6  1  0
  6  7  1  0
  7  8  1  0
  8  9  2  0
  9 10  1  0
 10 11  1  0
 11 12  1  0
 12 13  1  0
 13 14  1  0
 14 15  2  0
 15 16  1  0
 16 17  2  0
 17 18  1  0
 17 19  1  0
 19 20  2  0
 10 21  2  0
 21 22  1  0
 22 23  1  0
 23 24  1  0
 24 25  1  0
 25 26  1  0
 26 27  2  0
 27 28  1  0
 28 29  2  0
 29 30  1  0
 30 31  2  0
 31 32  1  0
 22 33  2  0
  7 34  1  0
 34 35  1  0
 35  4  1  0
 33  8  1  0
 20 14  1  0
 32 23  1  0
 31 26  1  0
  1 36  1  0
  1 37  1  0
  4 38  1  0
  5 39  1  0
  5 40  1  0
  6 41  1  0
  6 42  1  0
 11 43  1  0
 12 44  1  0
 12 45  1  0
 13 46  1  0
 13 47  1  0
 15 48  1  0
 16 49  1  0
 19 50  1  0
 20 51  1  0
 24 52  1  0
 24 53  1  0
 25 54  1  0
 25 55  1  0
 27 56  1  0
 28 57  1  0
 29 58  1  0
 30 59  1  0
 32 60  1  0
 32 61  1  0
 34 62  1  0
 34 63  1  0
 35 64  1  0
 35 65  1  0
M  END
>  <smiles>  (9) 
NC(=O)C1CCN(c2nc(NCCc3ccc(Cl)cc3)nc(N3CCc4ccccc4C3)n2)CC1

>  <score_type>  (9) 
oracle

>  <origin>  (9) 
autodockgpu

>  <m_score__min__energy>  (9) 
-10.08

>  <m_primary>  (9) 
energy

>  <rmsd>  (9) 
5.445335256435072

>  <m_score__min__rmsd>  (9) 
5.445335256435072

>  <meeko>  (9) 
{"free_energy": -9.54, "intermolecular_energy": -11.63, "internal_energy": -1.32, "cluster_size": 11, "cluster_id": 1, "rank_in_cluster": 6}

>  <energy>  (9) 
-9.43

>  <cluster_rmsd>  (9) 
1.42

>  <cluster>  (9) 
1

$$$$

     RDKit          3D

 65 69  0  0  0  0  0  0  0  0999 V2000
  145.5460   74.9180  216.1810 N   0  0  0  0  0  0  0  0  0  0  0  0
  145.5960   73.6990  216.9120 C   0  0  0  0  0  0  0  0  0  0  0  0
  146.6810   73.0830  217.0540 O   0  0  0  0  0  0  0  0  0  0  0  0
  144.3770   73.1140  217.5300 C   0  0  0  0  0  0  0  0  0  0  0  0
  144.5620   73.0250  219.0180 C   0  0  0  0  0  0  0  0  0  0  0  0
  144.0070   74.2510  219.7070 C   0  0  0  0  0  0  0  0  0  0  0  0
  142.5680   74.2110  219.4480 N   0  0  0  0  0  0  0  0  0  0  0  0
  141.6030   74.3910  220.4790 C   0  0  0  0  0  0  0  0  0  0  0  0
  140.9090   73.3650  221.0040 N   0  0  0  0  0  0  0  0  0  0  0  0
  140.0270   73.6170  221.9650 C   0  0  0  0  0  0  0  0  0  0  0  0
  139.2480   72.5620  222.5710 N   0  0  0  0  0  0  0  0  0  0  0  0
  139.7360   71.2240  222.3820 C   0  0  0  0  0  0  0  0  0  0  0  0
  138.8610   70.2340  223.0850 C   0  0  0  0  0  0  0  0  0  0  0  0
  139.4420   69.8720  224.3790 C   0  0  0  0  0  0  0  0  0  0  0  0
  139.2050   68.5760  224.8430 C   0  0  0  0  0  0  0  0  0  0  0  0
  139.6890   68.1270  226.0530 C   0  0  0  0  0  0  0  0  0  0  0  0
  140.4320   69.0040  226.8160 C   0  0  0  0  0  0  0  0  0  0  0  0
  141.0640   68.4710  228.3560 Cl  0  0  0  0  0  0  0  0  0  0  0  0
  140.6980   70.2870  226.4160 C   0  0  0  0  0  0  0  0  0  0  0  0
  140.1840   70.6860  225.1880 C   0  0  0  0  0  0  0  0  0  0  0  0
  139.8420   74.8770  222.3950 N   0  0  0  0  0  0  0  0  0  0  0  0
  140.5260   75.9170  221.8840 C   0  0  0  0  0  0  0  0  0  0  0  0
  140.3010   77.2450  222.3670 N   0  0  0  0  0  0  0  0  0  0  0  0
  141.4290   78.1330  222.4960 C   0  0  0  0  0  0  0  0  0  0  0  0
  141.0690   79.2270  223.4650 C   0  0  0  0  0  0  0  0  0  0  0  0
  139.8420   79.8970  223.0090 C   0  0  0  0  0  0  0  0  0  0  0  0
  139.6980   81.2760  222.9380 C   0  0  0  0  0  0  0  0  0  0  0  0
  138.4910   81.8210  222.4890 C   0  0  0  0  0  0  0  0  0  0  0  0
  137.4290   81.0310  222.1100 C   0  0  0  0  0  0  0  0  0  0  0  0
  137.5860   79.6650  222.1850 C   0  0  0  0  0  0  0  0  0  0  0  0
  138.7770   79.1210  222.6280 C   0  0  0  0  0  0  0  0  0  0  0  0
  138.9410   77.6470  222.7080 C   0  0  0  0  0  0  0  0  0  0  0  0
  141.4090   75.6650  220.9230 N   0  0  0  0  0  0  0  0  0  0  0  0
  142.0840   73.9860  218.1080 C   0  0  0  0  0  0  0  0  0  0  0  0
  143.1400   73.7890  217.0880 C   0  0  0  0  0  0  0  0  0  0  0  0
  145.9500   75.8020  216.5930 H   0  0  0  0  0  0  0  0  0  0  0  0
  145.1100   74.9820  215.2160 H   0  0  0  0  0  0  0  0  0  0  0  0
  144.2395   72.0834  217.1710 H   0  0  0  0  0  0  0  0  0  0  0  0
  144.0381   72.1334  219.3930 H   0  0  0  0  0  0  0  0  0  0  0  0
  145.6385   72.9586  219.2341 H   0  0  0  0  0  0  0  0  0  0  0  0
  144.2067   74.2108  220.7880 H   0  0  0  0  0  0  0  0  0  0  0  0
  144.4683   75.1782  219.3361 H   0  0  0  0  0  0  0  0  0  0  0  0
  138.4140   72.8590  223.0820 H   0  0  0  0  0  0  0  0  0  0  0  0
  139.7491   70.9936  221.3065 H   0  0  0  0  0  0  0  0  0  0  0  0
  140.7509   71.1568  222.8008 H   0  0  0  0  0  0  0  0  0  0  0  0
  137.8670   70.6772  223.2447 H   0  0  0  0  0  0  0  0  0  0  0  0
  138.7747   69.3291  222.4655 H   0  0  0  0  0  0  0  0  0  0  0  0
  138.6114   67.8898  224.2211 H   0  0  0  0  0  0  0  0  0  0  0  0
  139.4892   67.1022  226.3992 H   0  0  0  0  0  0  0  0  0  0  0  0
  141.2923   70.9713  227.0394 H   0  0  0  0  0  0  0  0  0  0  0  0
  140.3854   71.7128  224.8488 H   0  0  0  0  0  0  0  0  0  0  0  0
  142.2989   77.5751  222.8730 H   0  0  0  0  0  0  0  0  0  0  0  0
  141.6812   78.5657  221.5166 H   0  0  0  0  0  0  0  0  0  0  0  0
  140.9021   78.7940  224.4623 H   0  0  0  0  0  0  0  0  0  0  0  0
  141.8898   79.9575  223.5169 H   0  0  0  0  0  0  0  0  0  0  0  0
  140.5276   81.9354  223.2329 H   0  0  0  0  0  0  0  0  0  0  0  0
  138.3868   82.9148  222.4370 H   0  0  0  0  0  0  0  0  0  0  0  0
  136.4864   81.4762  221.7589 H   0  0  0  0  0  0  0  0  0  0  0  0
  136.7586   79.0027  221.8906 H   0  0  0  0  0  0  0  0  0  0  0  0
  138.7162   77.3167  223.7329 H   0  0  0  0  0  0  0  0  0  0  0  0
  138.2511   77.1817  221.9886 H   0  0  0  0  0  0  0  0  0  0  0  0
  141.4491   73.0878  218.1204 H   0  0  0  0  0  0  0  0  0  0  0  0
  141.5421   74.8985  217.8186 H   0  0  0  0  0  0  0  0  0  0  0  0
  142.7075   73.1901  216.2730 H   0  0  0  0  0  0  0  0  0  0  0  0
  143.4536   74.8032  216.7997 H   0  0  0  0  0  0  0  0  0  0  0  0
  1  2  1  0
  2  3  2  0
  2  4  1  0
  4  5  1  0
  5  6  1  0
  6  7  1  0
  7  8  1  0
  8  9  2  0
  9 10  1  0
 10 11  1  0
 11 12  1  0
 12 13  1  0
 13 14  1  0
 14 15  2  0
 15 16  1  0
 16 17  2  0
 17 18  1  0
 17 19  1  0
 19 20  2  0
 10 21  2  0
 21 22  1  0
 22 23  1  0
 23 24  1  0
 24 25  1  0
 25 26  1  0
 26 27  2  0
 27 28  1  0
 28 29  2  0
 29 30  1  0
 30 31  2  0
 31 32  1  0
 22 33  2  0
  7 34  1  0
 34 35  1  0
 35  4  1  0
 33  8  1  0
 20 14  1  0
 32 23  1  0
 31 26  1  0
  1 36  1  0
  1 37  1  0
  4 38  1  0
  5 39  1  0
  5 40  1  0
  6 41  1  0
  6 42  1  0
 11 43  1  0
 12 44  1  0
 12 45  1  0
 13 46  1  0
 13 47  1  0
 15 48  1  0
 16 49  1  0
 19 50  1  0
 20 51  1  0
 24 52  1  0
 24 53  1  0
 25 54  1  0
 25 55  1  0
 27 56  1  0
 28 57  1  0
 29 58  1  0
 30 59  1  0
 32 60  1  0
 32 61  1  0
 34 62  1  0
 34 63  1  0
 35 64  1  0
 35 65  1  0
M  END
>  <smiles>  (10) 
NC(=O)C1CCN(c2nc(NCCc3ccc(Cl)cc3)nc(N3CCc4ccccc4C3)n2)CC1

>  <score_type>  (10) 
oracle

>  <origin>  (10) 
autodockgpu

>  <m_score__min__energy>  (10) 
-10.08

>  <m_primary>  (10) 
energy

>  <rmsd>  (10) 
5.531713331794426

>  <m_score__min__rmsd>  (10) 
5.531713331794426

>  <meeko>  (10) 
{"free_energy": -8.92, "intermolecular_energy": -11.01, "internal_energy": -0.97, "cluster_size": 11, "cluster_id": 1, "rank_in_cluster": 11}

>  <energy>  (10) 
-9.09

>  <cluster_rmsd>  (10) 
1.35

>  <cluster>  (10) 
1

$$$$

     RDKit          3D

 65 69  0  0  0  0  0  0  0  0999 V2000
  142.4260   79.7580  222.0720 N   0  0  0  0  0  0  0  0  0  0  0  0
  141.5160   78.8440  222.6730 C   0  0  0  0  0  0  0  0  0  0  0  0
  141.4630   78.7230  223.9210 O   0  0  0  0  0  0  0  0  0  0  0  0
  140.6030   78.0060  221.8520 C   0  0  0  0  0  0  0  0  0  0  0  0
  141.3990   76.9540  221.1320 C   0  0  0  0  0  0  0  0  0  0  0  0
  141.4410   75.6690  221.9270 C   0  0  0  0  0  0  0  0  0  0  0  0
  140.0550   75.2060  221.9720 N   0  0  0  0  0  0  0  0  0  0  0  0
  139.6900   73.8650  221.6670 C   0  0  0  0  0  0  0  0  0  0  0  0
  139.3360   73.4770  220.4280 N   0  0  0  0  0  0  0  0  0  0  0  0
  139.0100   72.2050  220.2270 C   0  0  0  0  0  0  0  0  0  0  0  0
  138.6190   71.7240  218.9210 N   0  0  0  0  0  0  0  0  0  0  0  0
  139.6860   71.4600  217.9960 C   0  0  0  0  0  0  0  0  0  0  0  0
  140.7410   70.6090  218.6300 C   0  0  0  0  0  0  0  0  0  0  0  0
  141.8450   71.4410  219.1120 C   0  0  0  0  0  0  0  0  0  0  0  0
  142.6900   70.8830  220.0740 C   0  0  0  0  0  0  0  0  0  0  0  0
  143.7530   71.5770  220.6100 C   0  0  0  0  0  0  0  0  0  0  0  0
  143.9720   72.8650  220.1680 C   0  0  0  0  0  0  0  0  0  0  0  0
  145.3110   73.7770  220.8250 Cl  0  0  0  0  0  0  0  0  0  0  0  0
  143.1790   73.4670  219.2280 C   0  0  0  0  0  0  0  0  0  0  0  0
  142.1210   72.7220  218.7210 C   0  0  0  0  0  0  0  0  0  0  0  0
  139.0380   71.3330  221.2490 N   0  0  0  0  0  0  0  0  0  0  0  0
  139.3890   71.6990  222.4940 C   0  0  0  0  0  0  0  0  0  0  0  0
  139.4070   70.7420  223.5580 N   0  0  0  0  0  0  0  0  0  0  0  0
  139.5370   69.3450  223.2280 C   0  0  0  0  0  0  0  0  0  0  0  0
  139.0250   68.5290  224.3840 C   0  0  0  0  0  0  0  0  0  0  0  0
  139.7450   68.9140  225.6080 C   0  0  0  0  0  0  0  0  0  0  0  0
  140.2950   68.0020  226.4970 C   0  0  0  0  0  0  0  0  0  0  0  0
  140.9640   68.4650  227.6350 C   0  0  0  0  0  0  0  0  0  0  0  0
  141.0980   69.8080  227.9080 C   0  0  0  0  0  0  0  0  0  0  0  0
  140.5470   70.7020  227.0160 C   0  0  0  0  0  0  0  0  0  0  0  0
  139.8850   70.2490  225.8900 C   0  0  0  0  0  0  0  0  0  0  0  0
  139.2930   71.2180  224.9310 C   0  0  0  0  0  0  0  0  0  0  0  0
  139.7160   72.9720  222.6970 N   0  0  0  0  0  0  0  0  0  0  0  0
  139.0020   76.1210  222.3380 C   0  0  0  0  0  0  0  0  0  0  0  0
  139.4490   77.5050  222.6240 C   0  0  0  0  0  0  0  0  0  0  0  0
  142.2500   80.7980  222.1280 H   0  0  0  0  0  0  0  0  0  0  0  0
  143.2960   79.4360  221.5590 H   0  0  0  0  0  0  0  0  0  0  0  0
  140.1314   78.6258  221.0752 H   0  0  0  0  0  0  0  0  0  0  0  0
  140.9345   76.7574  220.1545 H   0  0  0  0  0  0  0  0  0  0  0  0
  142.4281   77.3202  221.0025 H   0  0  0  0  0  0  0  0  0  0  0  0
  142.0806   74.9263  221.4277 H   0  0  0  0  0  0  0  0  0  0  0  0
  141.8591   75.8193  222.9333 H   0  0  0  0  0  0  0  0  0  0  0  0
  137.6150   71.6130  218.7680 H   0  0  0  0  0  0  0  0  0  0  0  0
  139.2804   70.9367  217.1175 H   0  0  0  0  0  0  0  0  0  0  0  0
  140.1380   72.4172  217.6969 H   0  0  0  0  0  0  0  0  0  0  0  0
  140.3037   70.0604  219.4772 H   0  0  0  0  0  0  0  0  0  0  0  0
  141.1272   69.9017  217.8812 H   0  0  0  0  0  0  0  0  0  0  0  0
  142.5005   69.8546  220.4154 H   0  0  0  0  0  0  0  0  0  0  0  0
  144.4064   71.1181  221.3667 H   0  0  0  0  0  0  0  0  0  0  0  0
  143.3710   74.4956  218.8889 H   0  0  0  0  0  0  0  0  0  0  0  0
  141.4712   73.1874  217.9652 H   0  0  0  0  0  0  0  0  0  0  0  0
  138.9480   69.1208  222.3265 H   0  0  0  0  0  0  0  0  0  0  0  0
  140.5920   69.1013  223.0340 H   0  0  0  0  0  0  0  0  0  0  0  0
  137.9490   68.7149  224.5169 H   0  0  0  0  0  0  0  0  0  0  0  0
  139.1882   67.4602  224.1814 H   0  0  0  0  0  0  0  0  0  0  0  0
  140.2056   66.9220  226.3083 H   0  0  0  0  0  0  0  0  0  0  0  0
  141.3965   67.7335  228.3335 H   0  0  0  0  0  0  0  0  0  0  0  0
  141.6270   70.1554  228.8077 H   0  0  0  0  0  0  0  0  0  0  0  0
  140.6344   71.7828  227.2009 H   0  0  0  0  0  0  0  0  0  0  0  0
  138.2295   71.3585  225.1743 H   0  0  0  0  0  0  0  0  0  0  0  0
  139.8406   72.1682  225.0154 H   0  0  0  0  0  0  0  0  0  0  0  0
  138.2796   76.1596  221.5093 H   0  0  0  0  0  0  0  0  0  0  0  0
  138.5709   75.7365  223.2741 H   0  0  0  0  0  0  0  0  0  0  0  0
  138.6001   78.1761  222.4264 H   0  0  0  0  0  0  0  0  0  0  0  0
  139.7893   77.4865  223.6699 H   0  0  0  0  0  0  0  0  0  0  0  0
  1  2  1  0
  2  3  2  0
  2  4  1  0
  4  5  1  0
  5  6  1  0
  6  7  1  0
  7  8  1  0
  8  9  2  0
  9 10  1  0
 10 11  1  0
 11 12  1  0
 12 13  1  0
 13 14  1  0
 14 15  2  0
 15 16  1  0
 16 17  2  0
 17 18  1  0
 17 19  1  0
 19 20  2  0
 10 21  2  0
 21 22  1  0
 22 23  1  0
 23 24  1  0
 24 25  1  0
 25 26  1  0
 26 27  2  0
 27 28  1  0
 28 29  2  0
 29 30  1  0
 30 31  2  0
 31 32  1  0
 22 33  2  0
  7 34  1  0
 34 35  1  0
 35  4  1  0
 33  8  1  0
 20 14  1  0
 32 23  1  0
 31 26  1  0
  1 36  1  0
  1 37  1  0
  4 38  1  0
  5 39  1  0
  5 40  1  0
  6 41  1  0
  6 42  1  0
 11 43  1  0
 12 44  1  0
 12 45  1  0
 13 46  1  0
 13 47  1  0
 15 48  1  0
 16 49  1  0
 19 50  1  0
 20 51  1  0
 24 52  1  0
 24 53  1  0
 25 54  1  0
 25 55  1  0
 27 56  1  0
 28 57  1  0
 29 58  1  0
 30 59  1  0
 32 60  1  0
 32 61  1  0
 34 62  1  0
 34 63  1  0
 35 64  1  0
 35 65  1  0
M  END
>  <smiles>  (11) 
NC(=O)C1CCN(c2nc(NCCc3ccc(Cl)cc3)nc(N3CCc4ccccc4C3)n2)CC1

>  <score_type>  (11) 
oracle

>  <origin>  (11) 
autodockgpu

>  <m_score__min__energy>  (11) 
-10.08

>  <m_primary>  (11) 
energy

>  <rmsd>  (11) 
11.336142109038235

>  <m_score__min__rmsd>  (11) 
11.336142109038235

>  <meeko>  (11) 
{"free_energy": -7.91, "intermolecular_energy": -10.0, "internal_energy": -2.1, "cluster_size": 5, "cluster_id": 6, "rank_in_cluster": 5}

>  <energy>  (11) 
-8.92

>  <cluster_rmsd>  (11) 
1.41

>  <cluster>  (11) 
1

$$$$

     RDKit          3D

 65 69  0  0  0  0  0  0  0  0999 V2000
  139.8800   67.8700  227.4370 N   0  0  0  0  0  0  0  0  0  0  0  0
  140.3790   68.8240  226.5080 C   0  0  0  0  0  0  0  0  0  0  0  0
  141.6150   68.9850  226.3600 O   0  0  0  0  0  0  0  0  0  0  0  0
  139.4640   69.6570  225.6840 C   0  0  0  0  0  0  0  0  0  0  0  0
  139.9740   71.0690  225.6400 C   0  0  0  0  0  0  0  0  0  0  0  0
  140.8480   71.2920  224.4270 C   0  0  0  0  0  0  0  0  0  0  0  0
  139.9560   71.1200  223.2820 N   0  0  0  0  0  0  0  0  0  0  0  0
  139.9060   72.0540  222.2080 C   0  0  0  0  0  0  0  0  0  0  0  0
  139.9760   71.6760  220.9190 N   0  0  0  0  0  0  0  0  0  0  0  0
  139.9200   72.6120  219.9770 C   0  0  0  0  0  0  0  0  0  0  0  0
  139.9910   72.2740  218.5740 N   0  0  0  0  0  0  0  0  0  0  0  0
  141.3040   72.0360  218.0430 C   0  0  0  0  0  0  0  0  0  0  0  0
  142.1000   73.3020  218.0030 C   0  0  0  0  0  0  0  0  0  0  0  0
  143.1980   73.2440  218.9700 C   0  0  0  0  0  0  0  0  0  0  0  0
  143.5800   74.4440  219.5730 C   0  0  0  0  0  0  0  0  0  0  0  0
  144.6090   74.5120  220.4880 C   0  0  0  0  0  0  0  0  0  0  0  0
  145.2710   73.3430  220.8030 C   0  0  0  0  0  0  0  0  0  0  0  0
  146.5810   73.3900  221.9590 Cl  0  0  0  0  0  0  0  0  0  0  0  0
  144.9430   72.1360  220.2450 C   0  0  0  0  0  0  0  0  0  0  0  0
  143.8980   72.1260  219.3290 C   0  0  0  0  0  0  0  0  0  0  0  0
  139.7970   73.9060  220.3190 N   0  0  0  0  0  0  0  0  0  0  0  0
  139.7260   74.3040  221.6020 C   0  0  0  0  0  0  0  0  0  0  0  0
  139.5960   75.6910  221.9270 N   0  0  0  0  0  0  0  0  0  0  0  0
  138.4680   76.1120  222.7210 C   0  0  0  0  0  0  0  0  0  0  0  0
  138.2520   77.5850  222.5040 C   0  0  0  0  0  0  0  0  0  0  0  0
  139.4930   78.3100  222.8160 C   0  0  0  0  0  0  0  0  0  0  0  0
  139.5430   79.4470  223.6110 C   0  0  0  0  0  0  0  0  0  0  0  0
  140.7730   80.0670  223.8510 C   0  0  0  0  0  0  0  0  0  0  0  0
  141.9500   79.5850  223.3220 C   0  0  0  0  0  0  0  0  0  0  0  0
  141.8860   78.4570  222.5350 C   0  0  0  0  0  0  0  0  0  0  0  0
  140.6720   77.8400  222.2940 C   0  0  0  0  0  0  0  0  0  0  0  0
  140.6080   76.6230  221.4450 C   0  0  0  0  0  0  0  0  0  0  0  0
  139.7800   73.3690  222.5450 N   0  0  0  0  0  0  0  0  0  0  0  0
  139.0880   69.9700  223.2110 C   0  0  0  0  0  0  0  0  0  0  0  0
  139.1780   69.0500  224.3690 C   0  0  0  0  0  0  0  0  0  0  0  0
  139.9520   66.8370  227.2310 H   0  0  0  0  0  0  0  0  0  0  0  0
  139.4270   68.1550  228.3540 H   0  0  0  0  0  0  0  0  0  0  0  0
  138.4732   69.6978  226.1600 H   0  0  0  0  0  0  0  0  0  0  0  0
  139.1185   71.7593  225.5987 H   0  0  0  0  0  0  0  0  0  0  0  0
  140.5745   71.2529  226.5431 H   0  0  0  0  0  0  0  0  0  0  0  0
  141.2725   72.3067  224.4375 H   0  0  0  0  0  0  0  0  0  0  0  0
  141.6987   70.5953  224.3967 H   0  0  0  0  0  0  0  0  0  0  0  0
  139.0970   72.2340  218.0780 H   0  0  0  0  0  0  0  0  0  0  0  0
  141.8229   71.3041  218.6794 H   0  0  0  0  0  0  0  0  0  0  0  0
  141.2044   71.6504  217.0176 H   0  0  0  0  0  0  0  0  0  0  0  0
  142.5133   73.4388  216.9928 H   0  0  0  0  0  0  0  0  0  0  0  0
  141.4424   74.1458  218.2592 H   0  0  0  0  0  0  0  0  0  0  0  0
  143.0418   75.3663  219.3091 H   0  0  0  0  0  0  0  0  0  0  0  0
  144.8933   75.4679  220.9523 H   0  0  0  0  0  0  0  0  0  0  0  0
  145.4829   71.2151  220.5102 H   0  0  0  0  0  0  0  0  0  0  0  0
  143.6191   71.1670  218.8680 H   0  0  0  0  0  0  0  0  0  0  0  0
  137.5700   75.5564  222.4131 H   0  0  0  0  0  0  0  0  0  0  0  0
  138.6622   75.9132  223.7853 H   0  0  0  0  0  0  0  0  0  0  0  0
  137.9753   77.7650  221.4547 H   0  0  0  0  0  0  0  0  0  0  0  0
  137.4436   77.9393  223.1605 H   0  0  0  0  0  0  0  0  0  0  0  0
  138.6212   79.8573  224.0491 H   0  0  0  0  0  0  0  0  0  0  0  0
  140.8017   80.9677  224.4818 H   0  0  0  0  0  0  0  0  0  0  0  0
  142.9094   80.0848  223.5217 H   0  0  0  0  0  0  0  0  0  0  0  0
  142.8059   78.0442  222.0954 H   0  0  0  0  0  0  0  0  0  0  0  0
  140.3610   76.9181  220.4145 H   0  0  0  0  0  0  0  0  0  0  0  0
  141.5865   76.1220  221.4836 H   0  0  0  0  0  0  0  0  0  0  0  0
  138.0506   70.3285  223.1388 H   0  0  0  0  0  0  0  0  0  0  0  0
  139.4105   69.3929  222.3318 H   0  0  0  0  0  0  0  0  0  0  0  0
  138.2166   68.5216  224.4490 H   0  0  0  0  0  0  0  0  0  0  0  0
  140.0437   68.4055  224.1564 H   0  0  0  0  0  0  0  0  0  0  0  0
  1  2  1  0
  2  3  2  0
  2  4  1  0
  4  5  1  0
  5  6  1  0
  6  7  1  0
  7  8  1  0
  8  9  2  0
  9 10  1  0
 10 11  1  0
 11 12  1  0
 12 13  1  0
 13 14  1  0
 14 15  2  0
 15 16  1  0
 16 17  2  0
 17 18  1  0
 17 19  1  0
 19 20  2  0
 10 21  2  0
 21 22  1  0
 22 23  1  0
 23 24  1  0
 24 25  1  0
 25 26  1  0
 26 27  2  0
 27 28  1  0
 28 29  2  0
 29 30  1  0
 30 31  2  0
 31 32  1  0
 22 33  2  0
  7 34  1  0
 34 35  1  0
 35  4  1  0
 33  8  1  0
 20 14  1  0
 32 23  1  0
 31 26  1  0
  1 36  1  0
  1 37  1  0
  4 38  1  0
  5 39  1  0
  5 40  1  0
  6 41  1  0
  6 42  1  0
 11 43  1  0
 12 44  1  0
 12 45  1  0
 13 46  1  0
 13 47  1  0
 15 48  1  0
 16 49  1  0
 19 50  1  0
 20 51  1  0
 24 52  1  0
 24 53  1  0
 25 54  1  0
 25 55  1  0
 27 56  1  0
 28 57  1  0
 29 58  1  0
 30 59  1  0
 32 60  1  0
 32 61  1  0
 34 62  1  0
 34 63  1  0
 35 64  1  0
 35 65  1  0
M  END
>  <smiles>  (12) 
NC(=O)C1CCN(c2nc(NCCc3ccc(Cl)cc3)nc(N3CCc4ccccc4C3)n2)CC1

>  <score_type>  (12) 
oracle

>  <origin>  (12) 
autodockgpu

>  <m_score__min__energy>  (12) 
-10.08

>  <m_primary>  (12) 
energy

>  <rmsd>  (12) 
5.2909534237242335

>  <m_score__min__rmsd>  (12) 
5.2909534237242335

>  <meeko>  (12) 
{"free_energy": -8.83, "intermolecular_energy": -10.92, "internal_energy": -1.71, "cluster_size": 11, "cluster_id": 7, "rank_in_cluster": 5}

>  <energy>  (12) 
-9.71

>  <cluster_rmsd>  (12) 
0.0

>  <cluster>  (12) 
2

$$$$

     RDKit          3D

 65 69  0  0  0  0  0  0  0  0999 V2000
  132.1500   73.9950  228.0040 N   0  0  0  0  0  0  0  0  0  0  0  0
  131.8790   74.5990  226.7450 C   0  0  0  0  0  0  0  0  0  0  0  0
  131.1310   75.6050  226.6670 O   0  0  0  0  0  0  0  0  0  0  0  0
  132.4650   74.0670  225.4870 C   0  0  0  0  0  0  0  0  0  0  0  0
  132.8330   75.2090  224.5830 C   0  0  0  0  0  0  0  0  0  0  0  0
  134.2770   75.6120  224.7790 C   0  0  0  0  0  0  0  0  0  0  0  0
  135.0550   74.4520  224.3470 N   0  0  0  0  0  0  0  0  0  0  0  0
  136.1600   74.5650  223.4570 C   0  0  0  0  0  0  0  0  0  0  0  0
  136.5940   73.5330  222.7110 N   0  0  0  0  0  0  0  0  0  0  0  0
  137.6320   73.7220  221.9030 C   0  0  0  0  0  0  0  0  0  0  0  0
  138.1480   72.6550  221.0760 N   0  0  0  0  0  0  0  0  0  0  0  0
  139.4510   72.1580  221.4210 C   0  0  0  0  0  0  0  0  0  0  0  0
  139.8570   72.6300  222.7820 C   0  0  0  0  0  0  0  0  0  0  0  0
  139.8300   71.5190  223.7350 C   0  0  0  0  0  0  0  0  0  0  0  0
  140.6720   71.6120  224.8450 C   0  0  0  0  0  0  0  0  0  0  0  0
  140.7410   70.6210  225.8010 C   0  0  0  0  0  0  0  0  0  0  0  0
  139.9430   69.5080  225.6360 C   0  0  0  0  0  0  0  0  0  0  0  0
  140.0030   68.2310  226.8280 Cl  0  0  0  0  0  0  0  0  0  0  0  0
  139.0980   69.3590  224.5680 C   0  0  0  0  0  0  0  0  0  0  0  0
  139.0690   70.3880  223.6350 C   0  0  0  0  0  0  0  0  0  0  0  0
  138.2270   74.9250  221.8420 N   0  0  0  0  0  0  0  0  0  0  0  0
  137.8090   75.9700  222.5790 C   0  0  0  0  0  0  0  0  0  0  0  0
  138.4690   77.2360  222.4880 N   0  0  0  0  0  0  0  0  0  0  0  0
  137.6800   78.4370  222.6150 C   0  0  0  0  0  0  0  0  0  0  0  0
  138.4400   79.5760  221.9910 C   0  0  0  0  0  0  0  0  0  0  0  0
  139.7680   79.6770  222.6160 C   0  0  0  0  0  0  0  0  0  0  0  0
  140.3180   80.8670  223.0710 C   0  0  0  0  0  0  0  0  0  0  0  0
  141.5890   80.8610  223.6530 C   0  0  0  0  0  0  0  0  0  0  0  0
  142.3230   79.7040  223.7940 C   0  0  0  0  0  0  0  0  0  0  0  0
  141.7650   78.5300  223.3380 C   0  0  0  0  0  0  0  0  0  0  0  0
  140.5080   78.5310  222.7620 C   0  0  0  0  0  0  0  0  0  0  0  0
  139.9110   77.2620  222.2720 C   0  0  0  0  0  0  0  0  0  0  0  0
  136.7700   75.7810  223.3870 N   0  0  0  0  0  0  0  0  0  0  0  0
  134.7120   73.1360  224.8280 C   0  0  0  0  0  0  0  0  0  0  0  0
  133.5420   73.0880  225.7350 C   0  0  0  0  0  0  0  0  0  0  0  0
  132.7850   74.4740  228.6980 H   0  0  0  0  0  0  0  0  0  0  0  0
  131.7330   73.0610  228.2860 H   0  0  0  0  0  0  0  0  0  0  0  0
  131.7097   73.4746  224.9498 H   0  0  0  0  0  0  0  0  0  0  0  0
  132.6840   74.9023  223.5372 H   0  0  0  0  0  0  0  0  0  0  0  0
  132.1929   76.0695  224.8273 H   0  0  0  0  0  0  0  0  0  0  0  0
  134.5200   76.4913  224.1643 H   0  0  0  0  0  0  0  0  0  0  0  0
  134.4912   75.8883  225.8220 H   0  0  0  0  0  0  0  0  0  0  0  0
  137.5400   72.3460  220.3140 H   0  0  0  0  0  0  0  0  0  0  0  0
  139.4315   71.0582  221.4117 H   0  0  0  0  0  0  0  0  0  0  0  0
  140.1778   72.5345  220.6861 H   0  0  0  0  0  0  0  0  0  0  0  0
  140.8758   73.0421  222.7340 H   0  0  0  0  0  0  0  0  0  0  0  0
  139.1519   73.4051  223.1166 H   0  0  0  0  0  0  0  0  0  0  0  0
  141.3017   72.5065  224.9606 H   0  0  0  0  0  0  0  0  0  0  0  0
  141.4113   70.7149  226.6681 H   0  0  0  0  0  0  0  0  0  0  0  0
  138.4697   68.4633  224.4541 H   0  0  0  0  0  0  0  0  0  0  0  0
  138.3977   70.2871  222.7695 H   0  0  0  0  0  0  0  0  0  0  0  0
  136.7181   78.3054  222.0979 H   0  0  0  0  0  0  0  0  0  0  0  0
  137.4863   78.6501  223.6766 H   0  0  0  0  0  0  0  0  0  0  0  0
  138.5548   79.3934  220.9123 H   0  0  0  0  0  0  0  0  0  0  0  0
  137.8883   80.5149  222.1461 H   0  0  0  0  0  0  0  0  0  0  0  0
  139.7576   81.8086  222.9744 H   0  0  0  0  0  0  0  0  0  0  0  0
  142.0163   81.8099  224.0095 H   0  0  0  0  0  0  0  0  0  0  0  0
  143.3215   79.7171  224.2554 H   0  0  0  0  0  0  0  0  0  0  0  0
  142.3225   77.5865  223.4326 H   0  0  0  0  0  0  0  0  0  0  0  0
  140.1138   77.1630  221.1954 H   0  0  0  0  0  0  0  0  0  0  0  0
  140.3607   76.4284  222.8313 H   0  0  0  0  0  0  0  0  0  0  0  0
  134.4954   72.4998  223.9572 H   0  0  0  0  0  0  0  0  0  0  0  0
  135.5734   72.7893  225.4177 H   0  0  0  0  0  0  0  0  0  0  0  0
  133.1020   72.0828  225.6572 H   0  0  0  0  0  0  0  0  0  0  0  0
  133.9385   73.3429  226.7289 H   0  0  0  0  0  0  0  0  0  0  0  0
  1  2  1  0
  2  3  2  0
  2  4  1  0
  4  5  1  0
  5  6  1  0
  6  7  1  0
  7  8  1  0
  8  9  2  0
  9 10  1  0
 10 11  1  0
 11 12  1  0
 12 13  1  0
 13 14  1  0
 14 15  2  0
 15 16  1  0
 16 17  2  0
 17 18  1  0
 17 19  1  0
 19 20  2  0
 10 21  2  0
 21 22  1  0
 22 23  1  0
 23 24  1  0
 24 25  1  0
 25 26  1  0
 26 27  2  0
 27 28  1  0
 28 29  2  0
 29 30  1  0
 30 31  2  0
 31 32  1  0
 22 33  2  0
  7 34  1  0
 34 35  1  0
 35  4  1  0
 33  8  1  0
 20 14  1  0
 32 23  1  0
 31 26  1  0
  1 36  1  0
  1 37  1  0
  4 38  1  0
  5 39  1  0
  5 40  1  0
  6 41  1  0
  6 42  1  0
 11 43  1  0
 12 44  1  0
 12 45  1  0
 13 46  1  0
 13 47  1  0
 15 48  1  0
 16 49  1  0
 19 50  1  0
 20 51  1  0
 24 52  1  0
 24 53  1  0
 25 54  1  0
 25 55  1  0
 27 56  1  0
 28 57  1  0
 29 58  1  0
 30 59  1  0
 32 60  1  0
 32 61  1  0
 34 62  1  0
 34 63  1  0
 35 64  1  0
 35 65  1  0
M  END
>  <smiles>  (13) 
NC(=O)C1CCN(c2nc(NCCc3ccc(Cl)cc3)nc(N3CCc4ccccc4C3)n2)CC1

>  <score_type>  (13) 
oracle

>  <origin>  (13) 
autodockgpu

>  <m_score__min__energy>  (13) 
-10.08

>  <m_primary>  (13) 
energy

>  <rmsd>  (13) 
5.630396790638842

>  <m_score__min__rmsd>  (13) 
5.630396790638842

>  <meeko>  (13) 
{"free_energy": -8.54, "intermolecular_energy": -10.63, "internal_energy": -1.33, "cluster_size": 1, "cluster_id": 9, "rank_in_cluster": 1}

>  <energy>  (13) 
-9.66

>  <cluster_rmsd>  (13) 
1.44

>  <cluster>  (13) 
2

$$$$

     RDKit          3D

 65 69  0  0  0  0  0  0  0  0999 V2000
  145.2540   71.6130  216.4130 N   0  0  0  0  0  0  0  0  0  0  0  0
  145.5730   72.4150  217.5430 C   0  0  0  0  0  0  0  0  0  0  0  0
  146.4300   73.3280  217.4580 O   0  0  0  0  0  0  0  0  0  0  0  0
  144.9080   72.2040  218.8570 C   0  0  0  0  0  0  0  0  0  0  0  0
  144.8170   73.5120  219.5890 C   0  0  0  0  0  0  0  0  0  0  0  0
  143.4940   74.1910  219.3220 C   0  0  0  0  0  0  0  0  0  0  0  0
  142.4890   73.3020  219.9010 N   0  0  0  0  0  0  0  0  0  0  0  0
  141.4530   73.7760  220.7550 C   0  0  0  0  0  0  0  0  0  0  0  0
  140.5420   72.9560  221.3100 N   0  0  0  0  0  0  0  0  0  0  0  0
  139.6080   73.4790  222.0960 C   0  0  0  0  0  0  0  0  0  0  0  0
  138.6000   72.6550  222.7230 N   0  0  0  0  0  0  0  0  0  0  0  0
  139.0600   71.4270  223.3100 C   0  0  0  0  0  0  0  0  0  0  0  0
  140.3700   71.6270  224.0040 C   0  0  0  0  0  0  0  0  0  0  0  0
  140.4800   70.7260  225.1540 C   0  0  0  0  0  0  0  0  0  0  0  0
  140.9420   71.2760  226.3510 C   0  0  0  0  0  0  0  0  0  0  0  0
  141.0990   70.5220  227.4950 C   0  0  0  0  0  0  0  0  0  0  0  0
  140.7810   69.1810  227.4320 C   0  0  0  0  0  0  0  0  0  0  0  0
  140.9660   68.1930  228.8620 Cl  0  0  0  0  0  0  0  0  0  0  0  0
  140.3230   68.5840  226.2880 C   0  0  0  0  0  0  0  0  0  0  0  0
  140.1850   69.3910  225.1650 C   0  0  0  0  0  0  0  0  0  0  0  0
  139.5840   74.8040  222.3240 N   0  0  0  0  0  0  0  0  0  0  0  0
  140.4840   75.6410  221.7790 C   0  0  0  0  0  0  0  0  0  0  0  0
  140.4270   77.0460  222.0440 N   0  0  0  0  0  0  0  0  0  0  0  0
  139.2680   77.5750  222.7200 C   0  0  0  0  0  0  0  0  0  0  0  0
  139.1780   79.0490  222.4350 C   0  0  0  0  0  0  0  0  0  0  0  0
  140.4370   79.7000  222.8300 C   0  0  0  0  0  0  0  0  0  0  0  0
  140.5000   80.8610  223.5870 C   0  0  0  0  0  0  0  0  0  0  0  0
  141.7470   81.4050  223.9140 C   0  0  0  0  0  0  0  0  0  0  0  0
  142.9270   80.8220  223.5070 C   0  0  0  0  0  0  0  0  0  0  0  0
  142.8490   79.6700  222.7570 C   0  0  0  0  0  0  0  0  0  0  0  0
  141.6200   79.1290  222.4310 C   0  0  0  0  0  0  0  0  0  0  0  0
  141.5410   77.8860  221.6220 C   0  0  0  0  0  0  0  0  0  0  0  0
  141.4200   75.1180  220.9930 N   0  0  0  0  0  0  0  0  0  0  0  0
  142.5250   71.8890  219.6120 C   0  0  0  0  0  0  0  0  0  0  0  0
  143.6380   71.4610  218.7340 C   0  0  0  0  0  0  0  0  0  0  0  0
  144.6900   72.0150  215.6160 H   0  0  0  0  0  0  0  0  0  0  0  0
  145.5660   70.6020  216.3290 H   0  0  0  0  0  0  0  0  0  0  0  0
  145.5249   71.5404  219.4808 H   0  0  0  0  0  0  0  0  0  0  0  0
  144.9151   73.3274  220.6690 H   0  0  0  0  0  0  0  0  0  0  0  0
  145.6256   74.1686  219.2352 H   0  0  0  0  0  0  0  0  0  0  0  0
  143.4616   75.1783  219.8059 H   0  0  0  0  0  0  0  0  0  0  0  0
  143.3260   74.3608  218.2483 H   0  0  0  0  0  0  0  0  0  0  0  0
  137.6450   73.0170  222.6940 H   0  0  0  0  0  0  0  0  0  0  0  0
  138.3156   71.0751  224.0395 H   0  0  0  0  0  0  0  0  0  0  0  0
  139.1947   70.6833  222.5107 H   0  0  0  0  0  0  0  0  0  0  0  0
  141.1890   71.4182  223.3000 H   0  0  0  0  0  0  0  0  0  0  0  0
  140.4321   72.6668  224.3574 H   0  0  0  0  0  0  0  0  0  0  0  0
  141.1893   72.3474  226.3828 H   0  0  0  0  0  0  0  0  0  0  0  0
  141.4660   70.9752  228.4277 H   0  0  0  0  0  0  0  0  0  0  0  0
  140.0752   67.5127  226.2591 H   0  0  0  0  0  0  0  0  0  0  0  0
  139.8189   68.9311  224.2352 H   0  0  0  0  0  0  0  0  0  0  0  0
  138.3622   77.0705  222.3526 H   0  0  0  0  0  0  0  0  0  0  0  0
  139.3550   77.4062  223.8035 H   0  0  0  0  0  0  0  0  0  0  0  0
  139.0054   79.2052  221.3599 H   0  0  0  0  0  0  0  0  0  0  0  0
  138.3442   79.4838  223.0058 H   0  0  0  0  0  0  0  0  0  0  0  0
  139.5758   81.3506  223.9278 H   0  0  0  0  0  0  0  0  0  0  0  0
  141.7863   82.3260  224.5142 H   0  0  0  0  0  0  0  0  0  0  0  0
  143.8994   81.2623  223.7725 H   0  0  0  0  0  0  0  0  0  0  0  0
  143.7710   79.1771  222.4151 H   0  0  0  0  0  0  0  0  0  0  0  0
  141.4052   78.1556  220.5642 H   0  0  0  0  0  0  0  0  0  0  0  0
  142.4738   77.3207  221.7644 H   0  0  0  0  0  0  0  0  0  0  0  0
  142.6139   71.3473  220.5652 H   0  0  0  0  0  0  0  0  0  0  0  0
  141.5969   71.6615  219.0672 H   0  0  0  0  0  0  0  0  0  0  0  0
  143.8483   70.4041  218.9549 H   0  0  0  0  0  0  0  0  0  0  0  0
  143.2880   71.6578  217.7099 H   0  0  0  0  0  0  0  0  0  0  0  0
  1  2  1  0
  2  3  2  0
  2  4  1  0
  4  5  1  0
  5  6  1  0
  6  7  1  0
  7  8  1  0
  8  9  2  0
  9 10  1  0
 10 11  1  0
 11 12  1  0
 12 13  1  0
 13 14  1  0
 14 15  2  0
 15 16  1  0
 16 17  2  0
 17 18  1  0
 17 19  1  0
 19 20  2  0
 10 21  2  0
 21 22  1  0
 22 23  1  0
 23 24  1  0
 24 25  1  0
 25 26  1  0
 26 27  2  0
 27 28  1  0
 28 29  2  0
 29 30  1  0
 30 31  2  0
 31 32  1  0
 22 33  2  0
  7 34  1  0
 34 35  1  0
 35  4  1  0
 33  8  1  0
 20 14  1  0
 32 23  1  0
 31 26  1  0
  1 36  1  0
  1 37  1  0
  4 38  1  0
  5 39  1  0
  5 40  1  0
  6 41  1  0
  6 42  1  0
 11 43  1  0
 12 44  1  0
 12 45  1  0
 13 46  1  0
 13 47  1  0
 15 48  1  0
 16 49  1  0
 19 50  1  0
 20 51  1  0
 24 52  1  0
 24 53  1  0
 25 54  1  0
 25 55  1  0
 27 56  1  0
 28 57  1  0
 29 58  1  0
 30 59  1  0
 32 60  1  0
 32 61  1  0
 34 62  1  0
 34 63  1  0
 35 64  1  0
 35 65  1  0
M  END
>  <smiles>  (14) 
NC(=O)C1CCN(c2nc(NCCc3ccc(Cl)cc3)nc(N3CCc4ccccc4C3)n2)CC1

>  <score_type>  (14) 
oracle

>  <origin>  (14) 
autodockgpu

>  <m_score__min__energy>  (14) 
-10.08

>  <m_primary>  (14) 
energy

>  <rmsd>  (14) 
5.556695244905173

>  <m_score__min__rmsd>  (14) 
5.556695244905173

>  <meeko>  (14) 
{"free_energy": -9.98, "intermolecular_energy": -12.07, "internal_energy": -1.1, "cluster_size": 11, "cluster_id": 1, "rank_in_cluster": 2}

>  <energy>  (14) 
-9.6

>  <cluster_rmsd>  (14) 
1.29

>  <cluster>  (14) 
2

$$$$

     RDKit          3D

 65 69  0  0  0  0  0  0  0  0999 V2000
  140.0180   68.5950  227.5470 N   0  0  0  0  0  0  0  0  0  0  0  0
  139.3960   68.5060  226.2710 C   0  0  0  0  0  0  0  0  0  0  0  0
  139.1680   67.3870  225.7490 O   0  0  0  0  0  0  0  0  0  0  0  0
  138.9950   69.7220  225.5160 C   0  0  0  0  0  0  0  0  0  0  0  0
  139.9970   70.8150  225.7570 C   0  0  0  0  0  0  0  0  0  0  0  0
  141.0630   70.8170  224.6850 C   0  0  0  0  0  0  0  0  0  0  0  0
  140.3560   71.1450  223.4480 N   0  0  0  0  0  0  0  0  0  0  0  0
  140.8220   72.1430  222.5460 C   0  0  0  0  0  0  0  0  0  0  0  0
  141.7250   71.8820  221.5840 N   0  0  0  0  0  0  0  0  0  0  0  0
  142.1060   72.8700  220.7820 C   0  0  0  0  0  0  0  0  0  0  0  0
  143.0720   72.6560  219.7290 N   0  0  0  0  0  0  0  0  0  0  0  0
  143.2530   73.7400  218.8030 C   0  0  0  0  0  0  0  0  0  0  0  0
  141.9480   74.1360  218.1870 C   0  0  0  0  0  0  0  0  0  0  0  0
  141.6930   75.5610  218.4070 C   0  0  0  0  0  0  0  0  0  0  0  0
  142.7910   76.3620  218.7290 C   0  0  0  0  0  0  0  0  0  0  0  0
  142.6700   77.7130  218.9700 C   0  0  0  0  0  0  0  0  0  0  0  0
  141.4130   78.2740  218.8850 C   0  0  0  0  0  0  0  0  0  0  0  0
  141.2200   79.9860  219.1840 Cl  0  0  0  0  0  0  0  0  0  0  0  0
  140.2980   77.5420  218.5740 C   0  0  0  0  0  0  0  0  0  0  0  0
  140.4780   76.1840  218.3410 C   0  0  0  0  0  0  0  0  0  0  0  0
  141.5930   74.1020  220.9400 N   0  0  0  0  0  0  0  0  0  0  0  0
  140.6900   74.3850  221.8960 C   0  0  0  0  0  0  0  0  0  0  0  0
  140.1660   75.7090  222.0340 N   0  0  0  0  0  0  0  0  0  0  0  0
  138.7720   75.8700  222.3650 C   0  0  0  0  0  0  0  0  0  0  0  0
  138.3400   77.2530  221.9580 C   0  0  0  0  0  0  0  0  0  0  0  0
  139.2150   78.2450  222.6000 C   0  0  0  0  0  0  0  0  0  0  0  0
  138.7460   79.3720  223.2620 C   0  0  0  0  0  0  0  0  0  0  0  0
  139.6580   80.2590  223.8430 C   0  0  0  0  0  0  0  0  0  0  0  0
  141.0180   80.0530  223.7820 C   0  0  0  0  0  0  0  0  0  0  0  0
  141.4690   78.9310  223.1230 C   0  0  0  0  0  0  0  0  0  0  0  0
  140.5720   78.0510  222.5470 C   0  0  0  0  0  0  0  0  0  0  0  0
  141.0630   76.8420  221.8370 C   0  0  0  0  0  0  0  0  0  0  0  0
  140.3070   73.3960  222.6980 N   0  0  0  0  0  0  0  0  0  0  0  0
  139.1410   70.4470  223.1060 C   0  0  0  0  0  0  0  0  0  0  0  0
  138.7040   69.4350  224.0970 C   0  0  0  0  0  0  0  0  0  0  0  0
  139.4820   68.3390  228.4200 H   0  0  0  0  0  0  0  0  0  0  0  0
  141.0230   68.9150  227.6660 H   0  0  0  0  0  0  0  0  0  0  0  0
  138.0320   70.0928  225.8969 H   0  0  0  0  0  0  0  0  0  0  0  0
  139.4793   71.7855  225.7516 H   0  0  0  0  0  0  0  0  0  0  0  0
  140.4786   70.6413  226.7306 H   0  0  0  0  0  0  0  0  0  0  0  0
  141.8301   71.5743  224.9042 H   0  0  0  0  0  0  0  0  0  0  0  0
  141.5840   69.8505  224.6190 H   0  0  0  0  0  0  0  0  0  0  0  0
  143.5450   71.7500  219.7330 H   0  0  0  0  0  0  0  0  0  0  0  0
  143.6766   74.6035  219.3369 H   0  0  0  0  0  0  0  0  0  0  0  0
  143.9346   73.4116  218.0045 H   0  0  0  0  0  0  0  0  0  0  0  0
  141.9818   73.9362  217.1058 H   0  0  0  0  0  0  0  0  0  0  0  0
  141.1408   73.5522  218.6534 H   0  0  0  0  0  0  0  0  0  0  0  0
  143.7864   75.8982  218.7923 H   0  0  0  0  0  0  0  0  0  0  0  0
  143.5485   78.3251  219.2223 H   0  0  0  0  0  0  0  0  0  0  0  0
  139.3038   78.0085  218.5114 H   0  0  0  0  0  0  0  0  0  0  0  0
  139.5952   75.5776  218.0899 H   0  0  0  0  0  0  0  0  0  0  0  0
  138.1738   75.1209  221.8256 H   0  0  0  0  0  0  0  0  0  0  0  0
  138.6235   75.7322  223.4462 H   0  0  0  0  0  0  0  0  0  0  0  0
  138.4112   77.3532  220.8649 H   0  0  0  0  0  0  0  0  0  0  0  0
  137.2996   77.4213  222.2729 H   0  0  0  0  0  0  0  0  0  0  0  0
  137.6653   79.5657  223.3289 H   0  0  0  0  0  0  0  0  0  0  0  0
  139.2768   81.1491  224.3650 H   0  0  0  0  0  0  0  0  0  0  0  0
  141.7212   80.7613  224.2444 H   0  0  0  0  0  0  0  0  0  0  0  0
  142.5490   78.7340  223.0546 H   0  0  0  0  0  0  0  0  0  0  0  0
  141.1315   77.0616  220.7613 H   0  0  0  0  0  0  0  0  0  0  0  0
  142.0499   76.5776  222.2447 H   0  0  0  0  0  0  0  0  0  0  0  0
  138.3376   71.1908  222.9999 H   0  0  0  0  0  0  0  0  0  0  0  0
  139.3511   69.8983  222.1760 H   0  0  0  0  0  0  0  0  0  0  0  0
  137.6145   69.3209  223.9974 H   0  0  0  0  0  0  0  0  0  0  0  0
  139.2862   68.5320  223.8613 H   0  0  0  0  0  0  0  0  0  0  0  0
  1  2  1  0
  2  3  2  0
  2  4  1  0
  4  5  1  0
  5  6  1  0
  6  7  1  0
  7  8  1  0
  8  9  2  0
  9 10  1  0
 10 11  1  0
 11 12  1  0
 12 13  1  0
 13 14  1  0
 14 15  2  0
 15 16  1  0
 16 17  2  0
 17 18  1  0
 17 19  1  0
 19 20  2  0
 10 21  2  0
 21 22  1  0
 22 23  1  0
 23 24  1  0
 24 25  1  0
 25 26  1  0
 26 27  2  0
 27 28  1  0
 28 29  2  0
 29 30  1  0
 30 31  2  0
 31 32  1  0
 22 33  2  0
  7 34  1  0
 34 35  1  0
 35  4  1  0
 33  8  1  0
 20 14  1  0
 32 23  1  0
 31 26  1  0
  1 36  1  0
  1 37  1  0
  4 38  1  0
  5 39  1  0
  5 40  1  0
  6 41  1  0
  6 42  1  0
 11 43  1  0
 12 44  1  0
 12 45  1  0
 13 46  1  0
 13 47  1  0
 15 48  1  0
 16 49  1  0
 19 50  1  0
 20 51  1  0
 24 52  1  0
 24 53  1  0
 25 54  1  0
 25 55  1  0
 27 56  1  0
 28 57  1  0
 29 58  1  0
 30 59  1  0
 32 60  1  0
 32 61  1  0
 34 62  1  0
 34 63  1  0
 35 64  1  0
 35 65  1  0
M  END
>  <smiles>  (15) 
NC(=O)C1CCN(c2nc(NCCc3ccc(Cl)cc3)nc(N3CCc4ccccc4C3)n2)CC1

>  <score_type>  (15) 
oracle

>  <origin>  (15) 
autodockgpu

>  <m_score__min__energy>  (15) 
-10.08

>  <m_primary>  (15) 
energy

>  <rmsd>  (15) 
5.099954868583709

>  <m_score__min__rmsd>  (15) 
5.099954868583709

>  <meeko>  (15) 
{"free_energy": -7.62, "intermolecular_energy": -9.71, "internal_energy": -2.29, "cluster_size": 4, "cluster_id": 8, "rank_in_cluster": 4}

>  <energy>  (15) 
-9.35

>  <cluster_rmsd>  (15) 
0.88

>  <cluster>  (15) 
2

$$$$

     RDKit          3D

 65 69  0  0  0  0  0  0  0  0999 V2000
  142.6970   80.4150  221.9830 N   0  0  0  0  0  0  0  0  0  0  0  0
  141.6070   80.2680  221.0810 C   0  0  0  0  0  0  0  0  0  0  0  0
  141.4150   81.1090  220.1680 O   0  0  0  0  0  0  0  0  0  0  0  0
  140.6630   79.1240  221.1840 C   0  0  0  0  0  0  0  0  0  0  0  0
  140.9300   78.1520  220.0700 C   0  0  0  0  0  0  0  0  0  0  0  0
  141.8840   77.0680  220.5140 C   0  0  0  0  0  0  0  0  0  0  0  0
  141.1690   76.3390  221.5610 N   0  0  0  0  0  0  0  0  0  0  0  0
  141.0830   74.9180  221.5760 C   0  0  0  0  0  0  0  0  0  0  0  0
  140.0670   74.2630  222.1690 N   0  0  0  0  0  0  0  0  0  0  0  0
  140.0610   72.9350  222.1380 C   0  0  0  0  0  0  0  0  0  0  0  0
  139.0010   72.1710  222.7550 N   0  0  0  0  0  0  0  0  0  0  0  0
  138.7140   70.8930  222.1660 C   0  0  0  0  0  0  0  0  0  0  0  0
  139.4720   69.8050  222.8590 C   0  0  0  0  0  0  0  0  0  0  0  0
  139.9280   70.2600  224.1740 C   0  0  0  0  0  0  0  0  0  0  0  0
  139.2420   69.7750  225.2890 C   0  0  0  0  0  0  0  0  0  0  0  0
  139.5740   70.1440  226.5750 C   0  0  0  0  0  0  0  0  0  0  0  0
  140.6220   71.0250  226.7430 C   0  0  0  0  0  0  0  0  0  0  0  0
  141.0720   71.5170  228.3590 Cl  0  0  0  0  0  0  0  0  0  0  0  0
  141.3320   71.5370  225.6900 C   0  0  0  0  0  0  0  0  0  0  0  0
  140.9550   71.1300  224.4150 C   0  0  0  0  0  0  0  0  0  0  0  0
  141.0550   72.2710  221.5240 N   0  0  0  0  0  0  0  0  0  0  0  0
  142.0790   72.9060  220.9260 C   0  0  0  0  0  0  0  0  0  0  0  0
  143.1200   72.1650  220.2820 N   0  0  0  0  0  0  0  0  0  0  0  0
  144.4520   72.7170  220.2650 C   0  0  0  0  0  0  0  0  0  0  0  0
  145.2230   72.0730  219.1450 C   0  0  0  0  0  0  0  0  0  0  0  0
  145.1940   70.6110  219.3110 C   0  0  0  0  0  0  0  0  0  0  0  0
  146.3180   69.8030  219.2190 C   0  0  0  0  0  0  0  0  0  0  0  0
  146.1900   68.4210  219.3930 C   0  0  0  0  0  0  0  0  0  0  0  0
  144.9760   67.8270  219.6560 C   0  0  0  0  0  0  0  0  0  0  0  0
  143.8680   68.6420  219.7450 C   0  0  0  0  0  0  0  0  0  0  0  0
  143.9900   70.0080  219.5740 C   0  0  0  0  0  0  0  0  0  0  0  0
  142.7930   70.8830  219.6710 C   0  0  0  0  0  0  0  0  0  0  0  0
  142.0850   74.2360  220.9560 N   0  0  0  0  0  0  0  0  0  0  0  0
  140.5200   77.0620  222.6270 C   0  0  0  0  0  0  0  0  0  0  0  0
  140.6330   78.5370  222.5380 C   0  0  0  0  0  0  0  0  0  0  0  0
  143.6850   80.2320  221.6590 H   0  0  0  0  0  0  0  0  0  0  0  0
  142.5610   80.7090  222.9930 H   0  0  0  0  0  0  0  0  0  0  0  0
  139.6322   79.4821  221.0454 H   0  0  0  0  0  0  0  0  0  0  0  0
  139.9807   77.6908  219.7599 H   0  0  0  0  0  0  0  0  0  0  0  0
  141.3858   78.6977  219.2307 H   0  0  0  0  0  0  0  0  0  0  0  0
  142.1272   76.3997  219.6748 H   0  0  0  0  0  0  0  0  0  0  0  0
  142.8377   77.4800  220.8755 H   0  0  0  0  0  0  0  0  0  0  0  0
  138.5460   72.6070  223.5600 H   0  0  0  0  0  0  0  0  0  0  0  0
  137.6360   70.6912  222.2503 H   0  0  0  0  0  0  0  0  0  0  0  0
  139.0184   70.9161  221.1092 H   0  0  0  0  0  0  0  0  0  0  0  0
  138.8171   68.9302  222.9849 H   0  0  0  0  0  0  0  0  0  0  0  0
  140.3479   69.5362  222.2503 H   0  0  0  0  0  0  0  0  0  0  0  0
  138.4079   69.0743  225.1361 H   0  0  0  0  0  0  0  0  0  0  0  0
  139.0209   69.7485  227.4396 H   0  0  0  0  0  0  0  0  0  0  0  0
  142.1640   72.2394  225.8459 H   0  0  0  0  0  0  0  0  0  0  0  0
  141.5124   71.5290  223.5547 H   0  0  0  0  0  0  0  0  0  0  0  0
  144.4009   73.8038  220.1030 H   0  0  0  0  0  0  0  0  0  0  0  0
  144.9517   72.5236  221.2257 H   0  0  0  0  0  0  0  0  0  0  0  0
  144.7654   72.3424  218.1817 H   0  0  0  0  0  0  0  0  0  0  0  0
  146.2649   72.4251  219.1654 H   0  0  0  0  0  0  0  0  0  0  0  0
  147.3030   70.2461  219.0106 H   0  0  0  0  0  0  0  0  0  0  0  0
  147.0872   67.7891  219.3174 H   0  0  0  0  0  0  0  0  0  0  0  0
  144.8931   66.7384  219.7906 H   0  0  0  0  0  0  0  0  0  0  0  0
  142.8812   68.2028  219.9532 H   0  0  0  0  0  0  0  0  0  0  0  0
  142.3955   71.0591  218.6606 H   0  0  0  0  0  0  0  0  0  0  0  0
  142.0459   70.3792  220.3019 H   0  0  0  0  0  0  0  0  0  0  0  0
  139.4518   76.7997  222.6172 H   0  0  0  0  0  0  0  0  0  0  0  0
  141.0313   76.7683  223.5556 H   0  0  0  0  0  0  0  0  0  0  0  0
  139.7715   78.9689  223.0684 H   0  0  0  0  0  0  0  0  0  0  0  0
  141.6132   78.7765  222.9761 H   0  0  0  0  0  0  0  0  0  0  0  0
  1  2  1  0
  2  3  2  0
  2  4  1  0
  4  5  1  0
  5  6  1  0
  6  7  1  0
  7  8  1  0
  8  9  2  0
  9 10  1  0
 10 11  1  0
 11 12  1  0
 12 13  1  0
 13 14  1  0
 14 15  2  0
 15 16  1  0
 16 17  2  0
 17 18  1  0
 17 19  1  0
 19 20  2  0
 10 21  2  0
 21 22  1  0
 22 23  1  0
 23 24  1  0
 24 25  1  0
 25 26  1  0
 26 27  2  0
 27 28  1  0
 28 29  2  0
 29 30  1  0
 30 31  2  0
 31 32  1  0
 22 33  2  0
  7 34  1  0
 34 35  1  0
 35  4  1  0
 33  8  1  0
 20 14  1  0
 32 23  1  0
 31 26  1  0
  1 36  1  0
  1 37  1  0
  4 38  1  0
  5 39  1  0
  5 40  1  0
  6 41  1  0
  6 42  1  0
 11 43  1  0
 12 44  1  0
 12 45  1  0
 13 46  1  0
 13 47  1  0
 15 48  1  0
 16 49  1  0
 19 50  1  0
 20 51  1  0
 24 52  1  0
 24 53  1  0
 25 54  1  0
 25 55  1  0
 27 56  1  0
 28 57  1  0
 29 58  1  0
 30 59  1  0
 32 60  1  0
 32 61  1  0
 34 62  1  0
 34 63  1  0
 35 64  1  0
 35 65  1  0
M  END
>  <smiles>  (16) 
NC(=O)C1CCN(c2nc(NCCc3ccc(Cl)cc3)nc(N3CCc4ccccc4C3)n2)CC1

>  <score_type>  (16) 
oracle

>  <origin>  (16) 
autodockgpu

>  <m_score__min__energy>  (16) 
-10.08

>  <m_primary>  (16) 
energy

>  <rmsd>  (16) 
10.332739514244466

>  <m_score__min__rmsd>  (16) 
10.332739514244466

>  <meeko>  (16) 
{"free_energy": -9.32, "intermolecular_energy": -11.41, "internal_energy": -1.24, "cluster_size": 5, "cluster_id": 2, "rank_in_cluster": 5}

>  <energy>  (16) 
-9.32

>  <cluster_rmsd>  (16) 
0.9

>  <cluster>  (16) 
2

$$$$

     RDKit          3D

 65 69  0  0  0  0  0  0  0  0999 V2000
  139.7410   67.3740  227.1850 N   0  0  0  0  0  0  0  0  0  0  0  0
  140.0280   68.7670  227.1390 C   0  0  0  0  0  0  0  0  0  0  0  0
  140.8490   69.2770  227.9400 O   0  0  0  0  0  0  0  0  0  0  0  0
  139.3710   69.6620  226.1500 C   0  0  0  0  0  0  0  0  0  0  0  0
  140.0810   70.9850  226.1220 C   0  0  0  0  0  0  0  0  0  0  0  0
  141.1430   71.0070  225.0470 C   0  0  0  0  0  0  0  0  0  0  0  0
  140.4100   70.8840  223.7880 N   0  0  0  0  0  0  0  0  0  0  0  0
  140.6500   71.7440  222.6800 C   0  0  0  0  0  0  0  0  0  0  0  0
  141.2480   71.3190  221.5520 N   0  0  0  0  0  0  0  0  0  0  0  0
  141.4340   72.1860  220.5630 C   0  0  0  0  0  0  0  0  0  0  0  0
  142.0710   71.7950  219.3260 N   0  0  0  0  0  0  0  0  0  0  0  0
  143.5050   71.7160  219.3470 C   0  0  0  0  0  0  0  0  0  0  0  0
  144.0890   72.8560  220.1220 C   0  0  0  0  0  0  0  0  0  0  0  0
  143.7740   74.1290  219.4710 C   0  0  0  0  0  0  0  0  0  0  0  0
  143.6570   74.1200  218.0790 C   0  0  0  0  0  0  0  0  0  0  0  0
  143.3770   75.2600  217.3580 C   0  0  0  0  0  0  0  0  0  0  0  0
  143.2090   76.4400  218.0530 C   0  0  0  0  0  0  0  0  0  0  0  0
  142.8530   77.9070  217.1720 Cl  0  0  0  0  0  0  0  0  0  0  0  0
  143.3120   76.5120  219.4170 C   0  0  0  0  0  0  0  0  0  0  0  0
  143.5960   75.3320  220.0940 C   0  0  0  0  0  0  0  0  0  0  0  0
  141.0280   73.4600  220.6980 N   0  0  0  0  0  0  0  0  0  0  0  0
  140.4280   73.9060  221.8170 C   0  0  0  0  0  0  0  0  0  0  0  0
  140.0100   75.2700  221.9250 N   0  0  0  0  0  0  0  0  0  0  0  0
  138.6140   75.5480  222.1550 C   0  0  0  0  0  0  0  0  0  0  0  0
  138.3310   76.9620  221.7260 C   0  0  0  0  0  0  0  0  0  0  0  0
  139.2370   77.8770  222.4370 C   0  0  0  0  0  0  0  0  0  0  0  0
  138.8190   79.0390  223.0700 C   0  0  0  0  0  0  0  0  0  0  0  0
  139.7570   79.8460  223.7210 C   0  0  0  0  0  0  0  0  0  0  0  0
  141.0950   79.5260  223.7580 C   0  0  0  0  0  0  0  0  0  0  0  0
  141.4970   78.3690  223.1270 C   0  0  0  0  0  0  0  0  0  0  0  0
  140.5730   77.5680  222.4810 C   0  0  0  0  0  0  0  0  0  0  0  0
  141.0110   76.3220  221.8010 C   0  0  0  0  0  0  0  0  0  0  0  0
  140.2410   73.0380  222.8070 N   0  0  0  0  0  0  0  0  0  0  0  0
  139.4030   69.8620  223.6380 C   0  0  0  0  0  0  0  0  0  0  0  0
  139.1910   69.0150  224.8350 C   0  0  0  0  0  0  0  0  0  0  0  0
  140.4520   66.6730  226.8430 H   0  0  0  0  0  0  0  0  0  0  0  0
  138.8220   66.9970  227.5580 H   0  0  0  0  0  0  0  0  0  0  0  0
  138.3385   69.8693  226.4679 H   0  0  0  0  0  0  0  0  0  0  0  0
  139.3495   71.7816  225.9214 H   0  0  0  0  0  0  0  0  0  0  0  0
  140.5656   71.1434  227.0967 H   0  0  0  0  0  0  0  0  0  0  0  0
  141.7039   71.9528  225.0770 H   0  0  0  0  0  0  0  0  0  0  0  0
  141.8791   70.2000  225.1770 H   0  0  0  0  0  0  0  0  0  0  0  0
  141.4440   71.6070  218.5410 H   0  0  0  0  0  0  0  0  0  0  0  0
  143.8071   70.7683  219.8167 H   0  0  0  0  0  0  0  0  0  0  0  0
  143.8760   71.7661  218.3127 H   0  0  0  0  0  0  0  0  0  0  0  0
  143.6700   72.8554  221.1391 H   0  0  0  0  0  0  0  0  0  0  0  0
  145.1817   72.7369  220.1638 H   0  0  0  0  0  0  0  0  0  0  0  0
  143.7930   73.1706  217.5404 H   0  0  0  0  0  0  0  0  0  0  0  0
  143.2900   75.2304  216.2618 H   0  0  0  0  0  0  0  0  0  0  0  0
  143.1758   77.4627  219.9533 H   0  0  0  0  0  0  0  0  0  0  0  0
  143.6821   75.3684  221.1900 H   0  0  0  0  0  0  0  0  0  0  0  0
  137.9958   74.8519  221.5692 H   0  0  0  0  0  0  0  0  0  0  0  0
  138.3760   75.4233  223.2217 H   0  0  0  0  0  0  0  0  0  0  0  0
  138.4908   77.0558  220.6417 H   0  0  0  0  0  0  0  0  0  0  0  0
  137.2880   77.2174  221.9646 H   0  0  0  0  0  0  0  0  0  0  0  0
  137.7564   79.3234  223.0597 H   0  0  0  0  0  0  0  0  0  0  0  0
  139.4149   80.7652  224.2190 H   0  0  0  0  0  0  0  0  0  0  0  0
  141.8197   80.1727  224.2744 H   0  0  0  0  0  0  0  0  0  0  0  0
  142.5585   78.0809  223.1371 H   0  0  0  0  0  0  0  0  0  0  0  0
  141.1763   76.5351  220.7346 H   0  0  0  0  0  0  0  0  0  0  0  0
  141.9397   75.9749  222.2776 H   0  0  0  0  0  0  0  0  0  0  0  0
  138.4499   70.3544  223.3946 H   0  0  0  0  0  0  0  0  0  0  0  0
  139.7610   69.1901  222.8440 H   0  0  0  0  0  0  0  0  0  0  0  0
  138.1615   68.6300  224.7919 H   0  0  0  0  0  0  0  0  0  0  0  0
  139.9744   68.2445  224.7842 H   0  0  0  0  0  0  0  0  0  0  0  0
  1  2  1  0
  2  3  2  0
  2  4  1  0
  4  5  1  0
  5  6  1  0
  6  7  1  0
  7  8  1  0
  8  9  2  0
  9 10  1  0
 10 11  1  0
 11 12  1  0
 12 13  1  0
 13 14  1  0
 14 15  2  0
 15 16  1  0
 16 17  2  0
 17 18  1  0
 17 19  1  0
 19 20  2  0
 10 21  2  0
 21 22  1  0
 22 23  1  0
 23 24  1  0
 24 25  1  0
 25 26  1  0
 26 27  2  0
 27 28  1  0
 28 29  2  0
 29 30  1  0
 30 31  2  0
 31 32  1  0
 22 33  2  0
  7 34  1  0
 34 35  1  0
 35  4  1  0
 33  8  1  0
 20 14  1  0
 32 23  1  0
 31 26  1  0
  1 36  1  0
  1 37  1  0
  4 38  1  0
  5 39  1  0
  5 40  1  0
  6 41  1  0
  6 42  1  0
 11 43  1  0
 12 44  1  0
 12 45  1  0
 13 46  1  0
 13 47  1  0
 15 48  1  0
 16 49  1  0
 19 50  1  0
 20 51  1  0
 24 52  1  0
 24 53  1  0
 25 54  1  0
 25 55  1  0
 27 56  1  0
 28 57  1  0
 29 58  1  0
 30 59  1  0
 32 60  1  0
 32 61  1  0
 34 62  1  0
 34 63  1  0
 35 64  1  0
 35 65  1  0
M  END
>  <smiles>  (17) 
NC(=O)C1CCN(c2nc(NCCc3ccc(Cl)cc3)nc(N3CCc4ccccc4C3)n2)CC1

>  <score_type>  (17) 
oracle

>  <origin>  (17) 
autodockgpu

>  <m_score__min__energy>  (17) 
-10.08

>  <m_primary>  (17) 
energy

>  <rmsd>  (17) 
5.082768925580177

>  <m_score__min__rmsd>  (17) 
5.082768925580177

>  <meeko>  (17) 
{"free_energy": -8.86, "intermolecular_energy": -10.95, "internal_energy": -1.83, "cluster_size": 11, "cluster_id": 7, "rank_in_cluster": 4}

>  <energy>  (17) 
-9.69

>  <cluster_rmsd>  (17) 
0.0

>  <cluster>  (17) 
3

$$$$

     RDKit          3D

 65 69  0  0  0  0  0  0  0  0999 V2000
  145.8320   73.0170  221.3160 N   0  0  0  0  0  0  0  0  0  0  0  0
  145.4830   73.1920  219.9480 C   0  0  0  0  0  0  0  0  0  0  0  0
  146.3340   73.0090  219.0430 O   0  0  0  0  0  0  0  0  0  0  0  0
  144.1100   73.5930  219.5430 C   0  0  0  0  0  0  0  0  0  0  0  0
  143.1550   72.4670  219.8200 C   0  0  0  0  0  0  0  0  0  0  0  0
  142.5180   72.6220  221.1820 C   0  0  0  0  0  0  0  0  0  0  0  0
  141.7250   73.8470  221.0920 N   0  0  0  0  0  0  0  0  0  0  0  0
  140.3710   73.9120  221.5270 C   0  0  0  0  0  0  0  0  0  0  0  0
  139.6220   72.8110  221.7220 N   0  0  0  0  0  0  0  0  0  0  0  0
  138.3660   72.9580  222.1300 C   0  0  0  0  0  0  0  0  0  0  0  0
  137.5080   71.8180  222.3570 N   0  0  0  0  0  0  0  0  0  0  0  0
  137.8190   71.0080  223.5030 C   0  0  0  0  0  0  0  0  0  0  0  0
  139.2180   70.4830  223.4200 C   0  0  0  0  0  0  0  0  0  0  0  0
  139.6270   69.9210  224.7080 C   0  0  0  0  0  0  0  0  0  0  0  0
  140.3870   70.7380  225.5480 C   0  0  0  0  0  0  0  0  0  0  0  0
  140.8390   70.3100  226.7770 C   0  0  0  0  0  0  0  0  0  0  0  0
  140.5190   69.0280  227.1740 C   0  0  0  0  0  0  0  0  0  0  0  0
  141.0750   68.4510  228.7270 Cl  0  0  0  0  0  0  0  0  0  0  0  0
  139.7770   68.1790  226.3950 C   0  0  0  0  0  0  0  0  0  0  0  0
  139.3480   68.6620  225.1650 C   0  0  0  0  0  0  0  0  0  0  0  0
  137.8660   74.1880  222.3400 N   0  0  0  0  0  0  0  0  0  0  0  0
  138.5980   75.3010  222.1510 C   0  0  0  0  0  0  0  0  0  0  0  0
  138.0310   76.5940  222.3850 N   0  0  0  0  0  0  0  0  0  0  0  0
  136.6670   76.6770  222.8470 C   0  0  0  0  0  0  0  0  0  0  0  0
  136.1380   78.0500  222.5320 C   0  0  0  0  0  0  0  0  0  0  0  0
  137.0240   79.0620  223.1270 C   0  0  0  0  0  0  0  0  0  0  0  0
  136.5690   80.1430  223.8690 C   0  0  0  0  0  0  0  0  0  0  0  0
  137.4900   81.0540  224.3960 C   0  0  0  0  0  0  0  0  0  0  0  0
  138.8470   80.9150  224.2040 C   0  0  0  0  0  0  0  0  0  0  0  0
  139.2840   79.8370  223.4660 C   0  0  0  0  0  0  0  0  0  0  0  0
  138.3770   78.9340  222.9420 C   0  0  0  0  0  0  0  0  0  0  0  0
  138.8540   77.7730  222.1470 C   0  0  0  0  0  0  0  0  0  0  0  0
  139.8550   75.1540  221.7440 N   0  0  0  0  0  0  0  0  0  0  0  0
  142.3130   75.0470  220.5480 C   0  0  0  0  0  0  0  0  0  0  0  0
  143.7170   74.9040  220.0980 C   0  0  0  0  0  0  0  0  0  0  0  0
  145.9840   72.0480  221.7070 H   0  0  0  0  0  0  0  0  0  0  0  0
  145.9510   73.8360  221.9790 H   0  0  0  0  0  0  0  0  0  0  0  0
  144.0816   73.7647  218.4569 H   0  0  0  0  0  0  0  0  0  0  0  0
  142.3673   72.4658  219.0522 H   0  0  0  0  0  0  0  0  0  0  0  0
  143.7136   71.5196  219.7993 H   0  0  0  0  0  0  0  0  0  0  0  0
  141.8732   71.7598  221.4076 H   0  0  0  0  0  0  0  0  0  0  0  0
  143.2678   72.6734  221.9852 H   0  0  0  0  0  0  0  0  0  0  0  0
  136.7530   71.6850  221.6820 H   0  0  0  0  0  0  0  0  0  0  0  0
  137.7159   71.6168  224.4134 H   0  0  0  0  0  0  0  0  0  0  0  0
  137.1241   70.1558  223.5310 H   0  0  0  0  0  0  0  0  0  0  0  0
  139.2662   69.6987  222.6502 H   0  0  0  0  0  0  0  0  0  0  0  0
  139.8954   71.3095  223.1590 H   0  0  0  0  0  0  0  0  0  0  0  0
  140.6330   71.7578  225.2171 H   0  0  0  0  0  0  0  0  0  0  0  0
  141.4370   70.9704  227.4222 H   0  0  0  0  0  0  0  0  0  0  0  0
  139.5319   67.1600  226.7289 H   0  0  0  0  0  0  0  0  0  0  0  0
  138.7518   67.9961  224.5239 H   0  0  0  0  0  0  0  0  0  0  0  0
  136.0558   75.9180  222.3368 H   0  0  0  0  0  0  0  0  0  0  0  0
  136.6251   76.4970  223.9314 H   0  0  0  0  0  0  0  0  0  0  0  0
  136.1026   78.1886  221.4413 H   0  0  0  0  0  0  0  0  0  0  0  0
  135.1250   78.1581  222.9470 H   0  0  0  0  0  0  0  0  0  0  0  0
  135.4916   80.2823  224.0414 H   0  0  0  0  0  0  0  0  0  0  0  0
  137.1193   81.9080  224.9820 H   0  0  0  0  0  0  0  0  0  0  0  0
  139.5580   81.6406  224.6259 H   0  0  0  0  0  0  0  0  0  0  0  0
  140.3607   79.6936  223.2925 H   0  0  0  0  0  0  0  0  0  0  0  0
  138.8122   78.0293  221.0781 H   0  0  0  0  0  0  0  0  0  0  0  0
  139.8856   77.5436  222.4523 H   0  0  0  0  0  0  0  0  0  0  0  0
  141.7081   75.3634  219.6855 H   0  0  0  0  0  0  0  0  0  0  0  0
  142.3241   75.7833  221.3651 H   0  0  0  0  0  0  0  0  0  0  0  0
  143.8956   75.6612  219.3204 H   0  0  0  0  0  0  0  0  0  0  0  0
  144.3236   75.0240  221.0078 H   0  0  0  0  0  0  0  0  0  0  0  0
  1  2  1  0
  2  3  2  0
  2  4  1  0
  4  5  1  0
  5  6  1  0
  6  7  1  0
  7  8  1  0
  8  9  2  0
  9 10  1  0
 10 11  1  0
 11 12  1  0
 12 13  1  0
 13 14  1  0
 14 15  2  0
 15 16  1  0
 16 17  2  0
 17 18  1  0
 17 19  1  0
 19 20  2  0
 10 21  2  0
 21 22  1  0
 22 23  1  0
 23 24  1  0
 24 25  1  0
 25 26  1  0
 26 27  2  0
 27 28  1  0
 28 29  2  0
 29 30  1  0
 30 31  2  0
 31 32  1  0
 22 33  2  0
  7 34  1  0
 34 35  1  0
 35  4  1  0
 33  8  1  0
 20 14  1  0
 32 23  1  0
 31 26  1  0
  1 36  1  0
  1 37  1  0
  4 38  1  0
  5 39  1  0
  5 40  1  0
  6 41  1  0
  6 42  1  0
 11 43  1  0
 12 44  1  0
 12 45  1  0
 13 46  1  0
 13 47  1  0
 15 48  1  0
 16 49  1  0
 19 50  1  0
 20 51  1  0
 24 52  1  0
 24 53  1  0
 25 54  1  0
 25 55  1  0
 27 56  1  0
 28 57  1  0
 29 58  1  0
 30 59  1  0
 32 60  1  0
 32 61  1  0
 34 62  1  0
 34 63  1  0
 35 64  1  0
 35 65  1  0
M  END
>  <smiles>  (18) 
NC(=O)C1CCN(c2nc(NCCc3ccc(Cl)cc3)nc(N3CCc4ccccc4C3)n2)CC1

>  <score_type>  (18) 
oracle

>  <origin>  (18) 
autodockgpu

>  <m_score__min__energy>  (18) 
-10.08

>  <m_primary>  (18) 
energy

>  <rmsd>  (18) 
6.117059489296012

>  <m_score__min__rmsd>  (18) 
6.117059489296012

>  <meeko>  (18) 
{"free_energy": -9.44, "intermolecular_energy": -11.52, "internal_energy": -1.11, "cluster_size": 1, "cluster_id": 4, "rank_in_cluster": 1}

>  <energy>  (18) 
-9.51

>  <cluster_rmsd>  (18) 
0.84

>  <cluster>  (18) 
3

$$$$

     RDKit          3D

 65 69  0  0  0  0  0  0  0  0999 V2000
  139.5060   80.0280  222.6890 N   0  0  0  0  0  0  0  0  0  0  0  0
  140.9230   80.1180  222.5990 C   0  0  0  0  0  0  0  0  0  0  0  0
  141.5090   81.2070  222.8120 O   0  0  0  0  0  0  0  0  0  0  0  0
  141.7550   78.9360  222.2520 C   0  0  0  0  0  0  0  0  0  0  0  0
  141.4640   77.8180  223.2120 C   0  0  0  0  0  0  0  0  0  0  0  0
  140.3940   76.9000  222.6650 C   0  0  0  0  0  0  0  0  0  0  0  0
  140.9860   76.3000  221.4710 N   0  0  0  0  0  0  0  0  0  0  0  0
  140.9450   74.8980  221.2230 C   0  0  0  0  0  0  0  0  0  0  0  0
  141.3480   74.3590  220.0570 N   0  0  0  0  0  0  0  0  0  0  0  0
  141.2790   73.0410  219.9070 C   0  0  0  0  0  0  0  0  0  0  0  0
  141.6940   72.3990  218.6810 N   0  0  0  0  0  0  0  0  0  0  0  0
  141.8300   73.2500  217.5320 C   0  0  0  0  0  0  0  0  0  0  0  0
  143.2710   73.4500  217.1840 C   0  0  0  0  0  0  0  0  0  0  0  0
  144.0840   73.5110  218.4000 C   0  0  0  0  0  0  0  0  0  0  0  0
  144.9000   72.4120  218.6770 C   0  0  0  0  0  0  0  0  0  0  0  0
  145.6970   72.3520  219.8000 C   0  0  0  0  0  0  0  0  0  0  0  0
  145.6750   73.4250  220.6660 C   0  0  0  0  0  0  0  0  0  0  0  0
  146.6740   73.3860  222.1000 Cl  0  0  0  0  0  0  0  0  0  0  0  0
  144.8970   74.5310  220.4490 C   0  0  0  0  0  0  0  0  0  0  0  0
  144.1120   74.5380  219.3020 C   0  0  0  0  0  0  0  0  0  0  0  0
  140.8130   72.2720  220.9060 N   0  0  0  0  0  0  0  0  0  0  0  0
  140.4050   72.7910  222.0790 C   0  0  0  0  0  0  0  0  0  0  0  0
  139.9150   71.9410  223.1200 N   0  0  0  0  0  0  0  0  0  0  0  0
  138.7060   71.1900  222.8870 C   0  0  0  0  0  0  0  0  0  0  0  0
  138.1180   70.8050  224.2180 C   0  0  0  0  0  0  0  0  0  0  0  0
  139.1240   70.0720  225.0010 C   0  0  0  0  0  0  0  0  0  0  0  0
  138.8660   68.8790  225.6620 C   0  0  0  0  0  0  0  0  0  0  0  0
  139.8900   68.2540  226.3820 C   0  0  0  0  0  0  0  0  0  0  0  0
  141.1580   68.7850  226.4590 C   0  0  0  0  0  0  0  0  0  0  0  0
  141.4000   69.9690  225.7970 C   0  0  0  0  0  0  0  0  0  0  0  0
  140.3910   70.5900  225.0850 C   0  0  0  0  0  0  0  0  0  0  0  0
  140.6570   71.8670  224.3730 C   0  0  0  0  0  0  0  0  0  0  0  0
  140.4750   74.1100  222.2300 N   0  0  0  0  0  0  0  0  0  0  0  0
  141.6390   77.1350  220.4920 C   0  0  0  0  0  0  0  0  0  0  0  0
  141.6620   78.5790  220.8220 C   0  0  0  0  0  0  0  0  0  0  0  0
  139.0300   80.0560  223.6300 H   0  0  0  0  0  0  0  0  0  0  0  0
  138.8890   79.9330  221.8310 H   0  0  0  0  0  0  0  0  0  0  0  0
  142.8192   79.1848  222.3768 H   0  0  0  0  0  0  0  0  0  0  0  0
  142.3840   77.2387  223.3794 H   0  0  0  0  0  0  0  0  0  0  0  0
  141.1048   78.2515  224.1570 H   0  0  0  0  0  0  0  0  0  0  0  0
  140.1369   76.1240  223.4010 H   0  0  0  0  0  0  0  0  0  0  0  0
  139.4625   77.4394  222.4384 H   0  0  0  0  0  0  0  0  0  0  0  0
  141.8560   71.3910  218.7370 H   0  0  0  0  0  0  0  0  0  0  0  0
  141.3140   72.7872  216.6778 H   0  0  0  0  0  0  0  0  0  0  0  0
  141.3853   74.2288  217.7648 H   0  0  0  0  0  0  0  0  0  0  0  0
  143.6134   72.6111  216.5603 H   0  0  0  0  0  0  0  0  0  0  0  0
  143.3781   74.3967  216.6343 H   0  0  0  0  0  0  0  0  0  0  0  0
  144.9069   71.5652  217.9749 H   0  0  0  0  0  0  0  0  0  0  0  0
  146.3309   71.4754  219.9993 H   0  0  0  0  0  0  0  0  0  0  0  0
  144.8935   75.3771  221.1520 H   0  0  0  0  0  0  0  0  0  0  0  0
  143.4793   75.4170  219.1097 H   0  0  0  0  0  0  0  0  0  0  0  0
  137.9873   71.8079  222.3288 H   0  0  0  0  0  0  0  0  0  0  0  0
  138.9306   70.2877  222.2993 H   0  0  0  0  0  0  0  0  0  0  0  0
  137.8178   71.7121  224.7631 H   0  0  0  0  0  0  0  0  0  0  0  0
  137.2370   70.1656  224.0601 H   0  0  0  0  0  0  0  0  0  0  0  0
  137.8635   68.4281  225.6201 H   0  0  0  0  0  0  0  0  0  0  0  0
  139.6754   67.3091  226.9027 H   0  0  0  0  0  0  0  0  0  0  0  0
  141.9515   68.2808  227.0300 H   0  0  0  0  0  0  0  0  0  0  0  0
  142.4015   70.4224  225.8353 H   0  0  0  0  0  0  0  0  0  0  0  0
  140.3557   72.7059  225.0176 H   0  0  0  0  0  0  0  0  0  0  0  0
  141.7315   71.9183  224.1431 H   0  0  0  0  0  0  0  0  0  0  0  0
  142.6788   76.7913  220.3883 H   0  0  0  0  0  0  0  0  0  0  0  0
  141.0550   77.0390  219.5648 H   0  0  0  0  0  0  0  0  0  0  0  0
  142.5295   79.0228  220.3116 H   0  0  0  0  0  0  0  0  0  0  0  0
  140.6854   78.9640  220.4932 H   0  0  0  0  0  0  0  0  0  0  0  0
  1  2  1  0
  2  3  2  0
  2  4  1  0
  4  5  1  0
  5  6  1  0
  6  7  1  0
  7  8  1  0
  8  9  2  0
  9 10  1  0
 10 11  1  0
 11 12  1  0
 12 13  1  0
 13 14  1  0
 14 15  2  0
 15 16  1  0
 16 17  2  0
 17 18  1  0
 17 19  1  0
 19 20  2  0
 10 21  2  0
 21 22  1  0
 22 23  1  0
 23 24  1  0
 24 25  1  0
 25 26  1  0
 26 27  2  0
 27 28  1  0
 28 29  2  0
 29 30  1  0
 30 31  2  0
 31 32  1  0
 22 33  2  0
  7 34  1  0
 34 35  1  0
 35  4  1  0
 33  8  1  0
 20 14  1  0
 32 23  1  0
 31 26  1  0
  1 36  1  0
  1 37  1  0
  4 38  1  0
  5 39  1  0
  5 40  1  0
  6 41  1  0
  6 42  1  0
 11 43  1  0
 12 44  1  0
 12 45  1  0
 13 46  1  0
 13 47  1  0
 15 48  1  0
 16 49  1  0
 19 50  1  0
 20 51  1  0
 24 52  1  0
 24 53  1  0
 25 54  1  0
 25 55  1  0
 27 56  1  0
 28 57  1  0
 29 58  1  0
 30 59  1  0
 32 60  1  0
 32 61  1  0
 34 62  1  0
 34 63  1  0
 35 64  1  0
 35 65  1  0
M  END
>  <smiles>  (19) 
NC(=O)C1CCN(c2nc(NCCc3ccc(Cl)cc3)nc(N3CCc4ccccc4C3)n2)CC1

>  <score_type>  (19) 
oracle

>  <origin>  (19) 
autodockgpu

>  <m_score__min__energy>  (19) 
-10.08

>  <m_primary>  (19) 
energy

>  <rmsd>  (19) 
10.609111490609909

>  <m_score__min__rmsd>  (19) 
10.609111490609909

>  <meeko>  (19) 
{"free_energy": -8.5, "intermolecular_energy": -10.59, "internal_energy": -1.64, "cluster_size": 5, "cluster_id": 6, "rank_in_cluster": 3}

>  <energy>  (19) 
-9.46

>  <cluster_rmsd>  (19) 
1.87

>  <cluster>  (19) 
3

$$$$

     RDKit          3D

 65 69  0  0  0  0  0  0  0  0999 V2000
  144.8480   74.4400  217.2310 N   0  0  0  0  0  0  0  0  0  0  0  0
  145.1730   73.4310  218.1800 C   0  0  0  0  0  0  0  0  0  0  0  0
  145.9480   72.4920  217.8740 O   0  0  0  0  0  0  0  0  0  0  0  0
  144.6120   73.4510  219.5570 C   0  0  0  0  0  0  0  0  0  0  0  0
  143.4920   74.4490  219.6280 C   0  0  0  0  0  0  0  0  0  0  0  0
  142.1580   73.7840  219.3740 C   0  0  0  0  0  0  0  0  0  0  0  0
  141.9800   72.8560  220.4890 N   0  0  0  0  0  0  0  0  0  0  0  0
  140.7720   72.7890  221.2390 C   0  0  0  0  0  0  0  0  0  0  0  0
  139.7250   73.5980  220.9950 N   0  0  0  0  0  0  0  0  0  0  0  0
  138.6330   73.4710  221.7400 C   0  0  0  0  0  0  0  0  0  0  0  0
  137.4740   74.3080  221.5310 N   0  0  0  0  0  0  0  0  0  0  0  0
  137.4720   75.5730  222.2130 C   0  0  0  0  0  0  0  0  0  0  0  0
  138.8490   75.9280  222.6780 C   0  0  0  0  0  0  0  0  0  0  0  0
  139.6360   76.4710  221.5690 C   0  0  0  0  0  0  0  0  0  0  0  0
  140.9880   76.7220  221.8100 C   0  0  0  0  0  0  0  0  0  0  0  0
  141.8230   77.2450  220.8470 C   0  0  0  0  0  0  0  0  0  0  0  0
  141.2850   77.5220  219.6070 C   0  0  0  0  0  0  0  0  0  0  0  0
  142.3130   78.1860  218.3590 Cl  0  0  0  0  0  0  0  0  0  0  0  0
  139.9660   77.2990  219.3090 C   0  0  0  0  0  0  0  0  0  0  0  0
  139.1700   76.7700  220.3190 C   0  0  0  0  0  0  0  0  0  0  0  0
  138.5870   72.5480  222.7170 N   0  0  0  0  0  0  0  0  0  0  0  0
  139.6230   71.7300  222.9780 C   0  0  0  0  0  0  0  0  0  0  0  0
  139.5380   70.7600  224.0260 N   0  0  0  0  0  0  0  0  0  0  0  0
  139.4000   69.3690  223.6710 C   0  0  0  0  0  0  0  0  0  0  0  0
  138.8260   68.6290  224.8490 C   0  0  0  0  0  0  0  0  0  0  0  0
  139.6770   68.8530  226.0270 C   0  0  0  0  0  0  0  0  0  0  0  0
  140.1130   67.8380  226.8680 C   0  0  0  0  0  0  0  0  0  0  0  0
  140.9220   68.1510  227.9650 C   0  0  0  0  0  0  0  0  0  0  0  0
  141.3060   69.4440  228.2440 C   0  0  0  0  0  0  0  0  0  0  0  0
  140.8670   70.4410  227.4020 C   0  0  0  0  0  0  0  0  0  0  0  0
  140.0670   70.1370  226.3160 C   0  0  0  0  0  0  0  0  0  0  0  0
  139.5960   71.2160  225.4100 C   0  0  0  0  0  0  0  0  0  0  0  0
  140.7160   71.8560  222.2310 N   0  0  0  0  0  0  0  0  0  0  0  0
  143.0510   71.9640  220.8620 C   0  0  0  0  0  0  0  0  0  0  0  0
  144.2850   72.1000  220.0530 C   0  0  0  0  0  0  0  0  0  0  0  0
  145.5640   75.1680  216.9630 H   0  0  0  0  0  0  0  0  0  0  0  0
  143.8950   74.4960  216.7670 H   0  0  0  0  0  0  0  0  0  0  0  0
  145.3809   73.7954  220.2642 H   0  0  0  0  0  0  0  0  0  0  0  0
  143.4811   74.9072  220.6280 H   0  0  0  0  0  0  0  0  0  0  0  0
  143.6550   75.2149  218.8554 H   0  0  0  0  0  0  0  0  0  0  0  0
  141.3503   74.5306  219.3595 H   0  0  0  0  0  0  0  0  0  0  0  0
  142.1303   73.2714  218.4011 H   0  0  0  0  0  0  0  0  0  0  0  0
  136.7530   73.9280  220.9130 H   0  0  0  0  0  0  0  0  0  0  0  0
  137.1112   76.3526  221.5259 H   0  0  0  0  0  0  0  0  0  0  0  0
  136.8117   75.4999  223.0897 H   0  0  0  0  0  0  0  0  0  0  0  0
  138.7793   76.6814  223.4765 H   0  0  0  0  0  0  0  0  0  0  0  0
  139.3433   75.0214  223.0571 H   0  0  0  0  0  0  0  0  0  0  0  0
  141.4011   76.4942  222.8037 H   0  0  0  0  0  0  0  0  0  0  0  0
  142.8852   77.4357  221.0600 H   0  0  0  0  0  0  0  0  0  0  0  0
  139.5552   77.5284  218.3147 H   0  0  0  0  0  0  0  0  0  0  0  0
  138.1084   76.5820  220.1005 H   0  0  0  0  0  0  0  0  0  0  0  0
  138.7255   69.2718  222.8075 H   0  0  0  0  0  0  0  0  0  0  0  0
  140.3813   68.9494  223.4047 H   0  0  0  0  0  0  0  0  0  0  0  0
  137.8101   68.9974  225.0545 H   0  0  0  0  0  0  0  0  0  0  0  0
  138.7857   67.5531  224.6235 H   0  0  0  0  0  0  0  0  0  0  0  0
  139.8241   66.7947  226.6728 H   0  0  0  0  0  0  0  0  0  0  0  0
  141.2621   67.3396  228.6253 H   0  0  0  0  0  0  0  0  0  0  0  0
  141.9427   69.6727  229.1114 H   0  0  0  0  0  0  0  0  0  0  0  0
  141.1543   71.4852  227.5943 H   0  0  0  0  0  0  0  0  0  0  0  0
  138.5911   71.5344  225.7245 H   0  0  0  0  0  0  0  0  0  0  0  0
  140.3068   72.0534  225.4695 H   0  0  0  0  0  0  0  0  0  0  0  0
  143.3082   72.1594  221.9135 H   0  0  0  0  0  0  0  0  0  0  0  0
  142.6783   70.9438  220.6880 H   0  0  0  0  0  0  0  0  0  0  0  0
  145.1279   71.7604  220.6728 H   0  0  0  0  0  0  0  0  0  0  0  0
  144.1039   71.4987  219.1499 H   0  0  0  0  0  0  0  0  0  0  0  0
  1  2  1  0
  2  3  2  0
  2  4  1  0
  4  5  1  0
  5  6  1  0
  6  7  1  0
  7  8  1  0
  8  9  2  0
  9 10  1  0
 10 11  1  0
 11 12  1  0
 12 13  1  0
 13 14  1  0
 14 15  2  0
 15 16  1  0
 16 17  2  0
 17 18  1  0
 17 19  1  0
 19 20  2  0
 10 21  2  0
 21 22  1  0
 22 23  1  0
 23 24  1  0
 24 25  1  0
 25 26  1  0
 26 27  2  0
 27 28  1  0
 28 29  2  0
 29 30  1  0
 30 31  2  0
 31 32  1  0
 22 33  2  0
  7 34  1  0
 34 35  1  0
 35  4  1  0
 33  8  1  0
 20 14  1  0
 32 23  1  0
 31 26  1  0
  1 36  1  0
  1 37  1  0
  4 38  1  0
  5 39  1  0
  5 40  1  0
  6 41  1  0
  6 42  1  0
 11 43  1  0
 12 44  1  0
 12 45  1  0
 13 46  1  0
 13 47  1  0
 15 48  1  0
 16 49  1  0
 19 50  1  0
 20 51  1  0
 24 52  1  0
 24 53  1  0
 25 54  1  0
 25 55  1  0
 27 56  1  0
 28 57  1  0
 29 58  1  0
 30 59  1  0
 32 60  1  0
 32 61  1  0
 34 62  1  0
 34 63  1  0
 35 64  1  0
 35 65  1  0
M  END
>  <smiles>  (20) 
NC(=O)C1CCN(c2nc(NCCc3ccc(Cl)cc3)nc(N3CCc4ccccc4C3)n2)CC1

>  <score_type>  (20) 
oracle

>  <origin>  (20) 
autodockgpu

>  <m_score__min__energy>  (20) 
-10.08

>  <m_primary>  (20) 
energy

>  <rmsd>  (20) 
11.653897056402338

>  <m_score__min__rmsd>  (20) 
11.653897056402338

>  <meeko>  (20) 
{"free_energy": -8.07, "intermolecular_energy": -10.16, "internal_energy": -1.95, "cluster_size": 9, "cluster_id": 3, "rank_in_cluster": 9}

>  <energy>  (20) 
-9.43

>  <cluster_rmsd>  (20) 
0.94

>  <cluster>  (20) 
3

$$$$

     RDKit          3D

 65 69  0  0  0  0  0  0  0  0999 V2000
  142.8480   80.2950  222.2910 N   0  0  0  0  0  0  0  0  0  0  0  0
  141.7720   80.2000  221.3660 C   0  0  0  0  0  0  0  0  0  0  0  0
  141.6250   81.0630  220.4670 O   0  0  0  0  0  0  0  0  0  0  0  0
  140.7890   79.0860  221.4300 C   0  0  0  0  0  0  0  0  0  0  0  0
  140.9690   78.1900  220.2380 C   0  0  0  0  0  0  0  0  0  0  0  0
  141.9000   77.0430  220.5590 C   0  0  0  0  0  0  0  0  0  0  0  0
  141.2020   76.2650  221.5820 N   0  0  0  0  0  0  0  0  0  0  0  0
  141.0610   74.8510  221.4990 C   0  0  0  0  0  0  0  0  0  0  0  0
  139.9790   74.2040  221.9700 N   0  0  0  0  0  0  0  0  0  0  0  0
  139.9250   72.8820  221.8530 C   0  0  0  0  0  0  0  0  0  0  0  0
  138.7920   72.1270  222.3370 N   0  0  0  0  0  0  0  0  0  0  0  0
  138.9780   71.4300  223.5790 C   0  0  0  0  0  0  0  0  0  0  0  0
  140.3230   71.7300  224.1620 C   0  0  0  0  0  0  0  0  0  0  0  0
  140.5500   70.9230  225.3620 C   0  0  0  0  0  0  0  0  0  0  0  0
  140.4090   69.5390  225.2350 C   0  0  0  0  0  0  0  0  0  0  0  0
  140.5840   68.6810  226.2980 C   0  0  0  0  0  0  0  0  0  0  0  0
  140.9110   69.2270  227.5220 C   0  0  0  0  0  0  0  0  0  0  0  0
  141.1430   68.1700  228.8950 Cl  0  0  0  0  0  0  0  0  0  0  0  0
  141.0630   70.5760  227.7100 C   0  0  0  0  0  0  0  0  0  0  0  0
  140.8740   71.3950  226.6040 C   0  0  0  0  0  0  0  0  0  0  0  0
  140.9390   72.2150  221.2740 N   0  0  0  0  0  0  0  0  0  0  0  0
  142.0290   72.8420  220.7980 C   0  0  0  0  0  0  0  0  0  0  0  0
  143.0890   72.0980  220.1880 N   0  0  0  0  0  0  0  0  0  0  0  0
  144.4210   72.6500  220.2090 C   0  0  0  0  0  0  0  0  0  0  0  0
  145.2250   72.0010  219.1150 C   0  0  0  0  0  0  0  0  0  0  0  0
  145.1910   70.5410  219.2860 C   0  0  0  0  0  0  0  0  0  0  0  0
  146.3170   69.7320  219.2310 C   0  0  0  0  0  0  0  0  0  0  0  0
  146.1840   68.3510  219.4070 C   0  0  0  0  0  0  0  0  0  0  0  0
  144.9620   67.7580  219.6360 C   0  0  0  0  0  0  0  0  0  0  0  0
  143.8530   68.5730  219.6890 C   0  0  0  0  0  0  0  0  0  0  0  0
  143.9800   69.9390  219.5150 C   0  0  0  0  0  0  0  0  0  0  0  0
  142.7800   70.8130  219.5730 C   0  0  0  0  0  0  0  0  0  0  0  0
  142.0830   74.1650  220.9140 N   0  0  0  0  0  0  0  0  0  0  0  0
  140.6280   76.9310  222.7260 C   0  0  0  0  0  0  0  0  0  0  0  0
  140.7940   78.4030  222.7380 C   0  0  0  0  0  0  0  0  0  0  0  0
  143.8350   80.0850  221.9820 H   0  0  0  0  0  0  0  0  0  0  0  0
  142.7020   80.5740  223.3040 H   0  0  0  0  0  0  0  0  0  0  0  0
  139.7679   79.4900  221.3652 H   0  0  0  0  0  0  0  0  0  0  0  0
  139.9900   77.7863  219.9402 H   0  0  0  0  0  0  0  0  0  0  0  0
  141.4077   78.7793  219.4193 H   0  0  0  0  0  0  0  0  0  0  0  0
  142.0816   76.4301  219.6638 H   0  0  0  0  0  0  0  0  0  0  0  0
  142.8836   77.3932  220.9052 H   0  0  0  0  0  0  0  0  0  0  0  0
  137.9540   72.1540  221.7520 H   0  0  0  0  0  0  0  0  0  0  0  0
  138.1991   71.7448  224.2891 H   0  0  0  0  0  0  0  0  0  0  0  0
  138.9098   70.3486  223.3894 H   0  0  0  0  0  0  0  0  0  0  0  0
  141.1000   71.5001  223.4181 H   0  0  0  0  0  0  0  0  0  0  0  0
  140.3644   72.7948  224.4348 H   0  0  0  0  0  0  0  0  0  0  0  0
  140.1491   69.1199  224.2517 H   0  0  0  0  0  0  0  0  0  0  0  0
  140.4667   67.5942  226.1749 H   0  0  0  0  0  0  0  0  0  0  0  0
  141.3235   70.9923  228.6943 H   0  0  0  0  0  0  0  0  0  0  0  0
  140.9912   72.4810  226.7341 H   0  0  0  0  0  0  0  0  0  0  0  0
  144.3751   73.7361  220.0411 H   0  0  0  0  0  0  0  0  0  0  0  0
  144.8917   72.4608  221.1851 H   0  0  0  0  0  0  0  0  0  0  0  0
  144.7962   72.2663  218.1374 H   0  0  0  0  0  0  0  0  0  0  0  0
  146.2659   72.3532  219.1650 H   0  0  0  0  0  0  0  0  0  0  0  0
  147.3079   70.1741  219.0501 H   0  0  0  0  0  0  0  0  0  0  0  0
  147.0830   67.7188  219.3611 H   0  0  0  0  0  0  0  0  0  0  0  0
  144.8748   66.6699  219.7720 H   0  0  0  0  0  0  0  0  0  0  0  0
  142.8605   68.1348  219.8708 H   0  0  0  0  0  0  0  0  0  0  0  0
  142.4120   70.9845  218.5507 H   0  0  0  0  0  0  0  0  0  0  0  0
  142.0147   70.3114  220.1835 H   0  0  0  0  0  0  0  0  0  0  0  0
  139.5510   76.7083  222.7464 H   0  0  0  0  0  0  0  0  0  0  0  0
  141.1673   76.5522  223.6067 H   0  0  0  0  0  0  0  0  0  0  0  0
  139.9732   78.8251  223.3365 H   0  0  0  0  0  0  0  0  0  0  0  0
  141.8004   78.5748  223.1474 H   0  0  0  0  0  0  0  0  0  0  0  0
  1  2  1  0
  2  3  2  0
  2  4  1  0
  4  5  1  0
  5  6  1  0
  6  7  1  0
  7  8  1  0
  8  9  2  0
  9 10  1  0
 10 11  1  0
 11 12  1  0
 12 13  1  0
 13 14  1  0
 14 15  2  0
 15 16  1  0
 16 17  2  0
 17 18  1  0
 17 19  1  0
 19 20  2  0
 10 21  2  0
 21 22  1  0
 22 23  1  0
 23 24  1  0
 24 25  1  0
 25 26  1  0
 26 27  2  0
 27 28  1  0
 28 29  2  0
 29 30  1  0
 30 31  2  0
 31 32  1  0
 22 33  2  0
  7 34  1  0
 34 35  1  0
 35  4  1  0
 33  8  1  0
 20 14  1  0
 32 23  1  0
 31 26  1  0
  1 36  1  0
  1 37  1  0
  4 38  1  0
  5 39  1  0
  5 40  1  0
  6 41  1  0
  6 42  1  0
 11 43  1  0
 12 44  1  0
 12 45  1  0
 13 46  1  0
 13 47  1  0
 15 48  1  0
 16 49  1  0
 19 50  1  0
 20 51  1  0
 24 52  1  0
 24 53  1  0
 25 54  1  0
 25 55  1  0
 27 56  1  0
 28 57  1  0
 29 58  1  0
 30 59  1  0
 32 60  1  0
 32 61  1  0
 34 62  1  0
 34 63  1  0
 35 64  1  0
 35 65  1  0
M  END
>  <smiles>  (21) 
NC(=O)C1CCN(c2nc(NCCc3ccc(Cl)cc3)nc(N3CCc4ccccc4C3)n2)CC1

>  <score_type>  (21) 
oracle

>  <origin>  (21) 
autodockgpu

>  <m_score__min__energy>  (21) 
-10.08

>  <m_primary>  (21) 
energy

>  <rmsd>  (21) 
10.394891863382293

>  <m_score__min__rmsd>  (21) 
10.394891863382293

>  <meeko>  (21) 
{"free_energy": -9.71, "intermolecular_energy": -11.8, "internal_energy": -1.16, "cluster_size": 5, "cluster_id": 2, "rank_in_cluster": 1}

>  <energy>  (21) 
-9.21

>  <cluster_rmsd>  (21) 
1.7

>  <cluster>  (21) 
3

$$$$

     RDKit          3D

 65 69  0  0  0  0  0  0  0  0999 V2000
  145.5820   70.8250  218.2970 N   0  0  0  0  0  0  0  0  0  0  0  0
  145.6080   72.0630  218.9970 C   0  0  0  0  0  0  0  0  0  0  0  0
  146.2900   73.0250  218.5680 O   0  0  0  0  0  0  0  0  0  0  0  0
  144.8330   72.2630  220.2500 C   0  0  0  0  0  0  0  0  0  0  0  0
  144.5480   73.7260  220.4360 C   0  0  0  0  0  0  0  0  0  0  0  0
  143.2030   74.0940  219.8540 C   0  0  0  0  0  0  0  0  0  0  0  0
  142.2280   73.3590  220.6580 N   0  0  0  0  0  0  0  0  0  0  0  0
  141.0710   73.9800  221.2080 C   0  0  0  0  0  0  0  0  0  0  0  0
  139.9430   73.2960  221.4740 N   0  0  0  0  0  0  0  0  0  0  0  0
  138.9070   73.9510  221.9870 C   0  0  0  0  0  0  0  0  0  0  0  0
  137.6660   73.2770  222.2950 N   0  0  0  0  0  0  0  0  0  0  0  0
  137.7430   71.8530  222.4700 C   0  0  0  0  0  0  0  0  0  0  0  0
  137.2120   71.4520  223.8100 C   0  0  0  0  0  0  0  0  0  0  0  0
  138.2150   70.6790  224.5440 C   0  0  0  0  0  0  0  0  0  0  0  0
  137.8520   69.3960  224.9590 C   0  0  0  0  0  0  0  0  0  0  0  0
  138.7080   68.5830  225.6690 C   0  0  0  0  0  0  0  0  0  0  0  0
  139.9630   69.0710  225.9680 C   0  0  0  0  0  0  0  0  0  0  0  0
  141.0780   68.0680  226.8660 Cl  0  0  0  0  0  0  0  0  0  0  0  0
  140.3780   70.3210  225.5890 C   0  0  0  0  0  0  0  0  0  0  0  0
  139.4730   71.0980  224.8760 C   0  0  0  0  0  0  0  0  0  0  0  0
  138.9970   75.2690  222.2320 N   0  0  0  0  0  0  0  0  0  0  0  0
  140.1160   75.9710  221.9730 C   0  0  0  0  0  0  0  0  0  0  0  0
  140.1750   77.3750  222.2460 N   0  0  0  0  0  0  0  0  0  0  0  0
  139.0660   77.9920  222.9310 C   0  0  0  0  0  0  0  0  0  0  0  0
  139.0970   79.4710  222.6540 C   0  0  0  0  0  0  0  0  0  0  0  0
  140.4060   80.0140  223.0460 C   0  0  0  0  0  0  0  0  0  0  0  0
  140.5680   81.1620  223.8080 C   0  0  0  0  0  0  0  0  0  0  0  0
  141.8560   81.5990  224.1320 C   0  0  0  0  0  0  0  0  0  0  0  0
  142.9830   80.9250  223.7160 C   0  0  0  0  0  0  0  0  0  0  0  0
  142.8080   79.7870  222.9600 C   0  0  0  0  0  0  0  0  0  0  0  0
  141.5360   79.3500  222.6380 C   0  0  0  0  0  0  0  0  0  0  0  0
  141.3520   78.1220  221.8220 C   0  0  0  0  0  0  0  0  0  0  0  0
  141.1530   75.3160  221.4600 N   0  0  0  0  0  0  0  0  0  0  0  0
  142.4230   71.9530  220.9180 C   0  0  0  0  0  0  0  0  0  0  0  0
  143.6550   71.3760  220.3330 C   0  0  0  0  0  0  0  0  0  0  0  0
  145.0590   70.7400  217.3840 H   0  0  0  0  0  0  0  0  0  0  0  0
  146.0780   69.9600  218.6590 H   0  0  0  0  0  0  0  0  0  0  0  0
  145.4399   71.9519  221.1130 H   0  0  0  0  0  0  0  0  0  0  0  0
  144.5507   73.9592  221.5110 H   0  0  0  0  0  0  0  0  0  0  0  0
  145.3254   74.3035  219.9144 H   0  0  0  0  0  0  0  0  0  0  0  0
  143.0310   75.1776  219.9333 H   0  0  0  0  0  0  0  0  0  0  0  0
  143.1321   73.8408  218.7859 H   0  0  0  0  0  0  0  0  0  0  0  0
  136.8390   73.8740  222.3620 H   0  0  0  0  0  0  0  0  0  0  0  0
  137.1498   71.3608  221.6852 H   0  0  0  0  0  0  0  0  0  0  0  0
  138.7973   71.5464  222.4028 H   0  0  0  0  0  0  0  0  0  0  0  0
  136.9581   72.3550  224.3846 H   0  0  0  0  0  0  0  0  0  0  0  0
  136.3154   70.8308  223.6680 H   0  0  0  0  0  0  0  0  0  0  0  0
  136.8480   69.0216  224.7104 H   0  0  0  0  0  0  0  0  0  0  0  0
  138.4003   67.5761  225.9875 H   0  0  0  0  0  0  0  0  0  0  0  0
  141.3829   70.6927  225.8381 H   0  0  0  0  0  0  0  0  0  0  0  0
  139.7859   72.1047  224.5618 H   0  0  0  0  0  0  0  0  0  0  0  0
  138.1203   77.5657  222.5651 H   0  0  0  0  0  0  0  0  0  0  0  0
  139.1425   77.8094  224.0130 H   0  0  0  0  0  0  0  0  0  0  0  0
  138.9333   79.6468  221.5806 H   0  0  0  0  0  0  0  0  0  0  0  0
  138.3046   79.9696  223.2314 H   0  0  0  0  0  0  0  0  0  0  0  0
  139.6888   81.7247  224.1550 H   0  0  0  0  0  0  0  0  0  0  0  0
  141.9730   82.5095  224.7381 H   0  0  0  0  0  0  0  0  0  0  0  0
  143.9892   81.2836  223.9788 H   0  0  0  0  0  0  0  0  0  0  0  0
  143.6850   79.2225  222.6104 H   0  0  0  0  0  0  0  0  0  0  0  0
  141.2337   78.4078  220.7664 H   0  0  0  0  0  0  0  0  0  0  0  0
  142.2361   77.4812  221.9555 H   0  0  0  0  0  0  0  0  0  0  0  0
  142.4624   71.8092  222.0079 H   0  0  0  0  0  0  0  0  0  0  0  0
  141.5808   71.4311  220.4403 H   0  0  0  0  0  0  0  0  0  0  0  0
  143.9367   70.5053  220.9433 H   0  0  0  0  0  0  0  0  0  0  0  0
  143.3960   71.1440  219.2894 H   0  0  0  0  0  0  0  0  0  0  0  0
  1  2  1  0
  2  3  2  0
  2  4  1  0
  4  5  1  0
  5  6  1  0
  6  7  1  0
  7  8  1  0
  8  9  2  0
  9 10  1  0
 10 11  1  0
 11 12  1  0
 12 13  1  0
 13 14  1  0
 14 15  2  0
 15 16  1  0
 16 17  2  0
 17 18  1  0
 17 19  1  0
 19 20  2  0
 10 21  2  0
 21 22  1  0
 22 23  1  0
 23 24  1  0
 24 25  1  0
 25 26  1  0
 26 27  2  0
 27 28  1  0
 28 29  2  0
 29 30  1  0
 30 31  2  0
 31 32  1  0
 22 33  2  0
  7 34  1  0
 34 35  1  0
 35  4  1  0
 33  8  1  0
 20 14  1  0
 32 23  1  0
 31 26  1  0
  1 36  1  0
  1 37  1  0
  4 38  1  0
  5 39  1  0
  5 40  1  0
  6 41  1  0
  6 42  1  0
 11 43  1  0
 12 44  1  0
 12 45  1  0
 13 46  1  0
 13 47  1  0
 15 48  1  0
 16 49  1  0
 19 50  1  0
 20 51  1  0
 24 52  1  0
 24 53  1  0
 25 54  1  0
 25 55  1  0
 27 56  1  0
 28 57  1  0
 29 58  1  0
 30 59  1  0
 32 60  1  0
 32 61  1  0
 34 62  1  0
 34 63  1  0
 35 64  1  0
 35 65  1  0
M  END
>  <smiles>  (22) 
NC(=O)C1CCN(c2nc(NCCc3ccc(Cl)cc3)nc(N3CCc4ccccc4C3)n2)CC1

>  <score_type>  (22) 
oracle

>  <origin>  (22) 
autodockgpu

>  <m_score__min__energy>  (22) 
-10.08

>  <m_primary>  (22) 
energy

>  <rmsd>  (22) 
5.777813321986051

>  <m_score__min__rmsd>  (22) 
5.777813321986051

>  <meeko>  (22) 
{"free_energy": -9.52, "intermolecular_energy": -11.61, "internal_energy": -1.19, "cluster_size": 11, "cluster_id": 1, "rank_in_cluster": 8}

>  <energy>  (22) 
-9.07

>  <cluster_rmsd>  (22) 
0.83

>  <cluster>  (22) 
3

$$$$

     RDKit          3D

 65 69  0  0  0  0  0  0  0  0999 V2000
  140.5390   67.5820  227.0120 N   0  0  0  0  0  0  0  0  0  0  0  0
  140.4260   68.9980  227.0990 C   0  0  0  0  0  0  0  0  0  0  0  0
  141.0420   69.6350  227.9880 O   0  0  0  0  0  0  0  0  0  0  0  0
  139.5820   69.7690  226.1480 C   0  0  0  0  0  0  0  0  0  0  0  0
  140.1100   71.1700  226.0300 C   0  0  0  0  0  0  0  0  0  0  0  0
  141.0700   71.2910  224.8700 C   0  0  0  0  0  0  0  0  0  0  0  0
  140.2600   71.0330  223.6800 N   0  0  0  0  0  0  0  0  0  0  0  0
  140.2970   71.8800  222.5360 C   0  0  0  0  0  0  0  0  0  0  0  0
  140.5570   71.4140  221.3010 N   0  0  0  0  0  0  0  0  0  0  0  0
  140.5720   72.2700  220.2860 C   0  0  0  0  0  0  0  0  0  0  0  0
  140.8450   71.8350  218.9350 N   0  0  0  0  0  0  0  0  0  0  0  0
  141.0630   72.8730  217.9660 C   0  0  0  0  0  0  0  0  0  0  0  0
  142.4760   72.8530  217.4740 C   0  0  0  0  0  0  0  0  0  0  0  0
  143.4050   73.0610  218.5860 C   0  0  0  0  0  0  0  0  0  0  0  0
  144.3650   72.0720  218.8080 C   0  0  0  0  0  0  0  0  0  0  0  0
  145.2830   72.1540  219.8330 C   0  0  0  0  0  0  0  0  0  0  0  0
  145.2340   73.2590  220.6560 C   0  0  0  0  0  0  0  0  0  0  0  0
  146.3820   73.3990  221.9670 Cl  0  0  0  0  0  0  0  0  0  0  0  0
  144.3160   74.2620  220.4910 C   0  0  0  0  0  0  0  0  0  0  0  0
  143.4140   74.1280  219.4410 C   0  0  0  0  0  0  0  0  0  0  0  0
  140.3300   73.5750  220.5020 N   0  0  0  0  0  0  0  0  0  0  0  0
  140.0680   74.0620  221.7280 C   0  0  0  0  0  0  0  0  0  0  0  0
  139.8160   75.4570  221.9190 N   0  0  0  0  0  0  0  0  0  0  0  0
  138.4840   75.8750  222.2800 C   0  0  0  0  0  0  0  0  0  0  0  0
  138.3270   77.3300  221.9270 C   0  0  0  0  0  0  0  0  0  0  0  0
  139.3860   78.1080  222.5860 C   0  0  0  0  0  0  0  0  0  0  0  0
  139.1560   79.2800  223.2920 C   0  0  0  0  0  0  0  0  0  0  0  0
  140.2300   79.9510  223.8860 C   0  0  0  0  0  0  0  0  0  0  0  0
  141.5220   79.4850  223.7940 C   0  0  0  0  0  0  0  0  0  0  0  0
  141.7370   78.3210  223.0900 C   0  0  0  0  0  0  0  0  0  0  0  0
  140.6780   77.6540  222.5010 C   0  0  0  0  0  0  0  0  0  0  0  0
  140.9150   76.3990  221.7430 C   0  0  0  0  0  0  0  0  0  0  0  0
  140.0520   73.2040  222.7440 N   0  0  0  0  0  0  0  0  0  0  0  0
  139.3850   69.8870  223.6380 C   0  0  0  0  0  0  0  0  0  0  0  0
  139.3820   69.0610  224.8680 C   0  0  0  0  0  0  0  0  0  0  0  0
  141.4300   67.1410  226.6580 H   0  0  0  0  0  0  0  0  0  0  0  0
  139.7500   66.9330  227.2950 H   0  0  0  0  0  0  0  0  0  0  0  0
  138.5604   69.8540  226.5469 H   0  0  0  0  0  0  0  0  0  0  0  0
  139.2676   71.8598  225.8732 H   0  0  0  0  0  0  0  0  0  0  0  0
  140.6467   71.4214  226.9567 H   0  0  0  0  0  0  0  0  0  0  0  0
  141.5038   72.3011  224.8309 H   0  0  0  0  0  0  0  0  0  0  0  0
  141.9129   70.5894  224.9562 H   0  0  0  0  0  0  0  0  0  0  0  0
  140.8590   70.8240  218.7860 H   0  0  0  0  0  0  0  0  0  0  0  0
  140.3828   72.7206  217.1151 H   0  0  0  0  0  0  0  0  0  0  0  0
  140.8693   73.8456  218.4419 H   0  0  0  0  0  0  0  0  0  0  0  0
  142.6832   71.8796  217.0055 H   0  0  0  0  0  0  0  0  0  0  0  0
  142.6104   73.6612  216.7400 H   0  0  0  0  0  0  0  0  0  0  0  0
  144.3897   71.1970  218.1419 H   0  0  0  0  0  0  0  0  0  0  0  0
  146.0310   71.3628  219.9894 H   0  0  0  0  0  0  0  0  0  0  0  0
  144.2932   75.1352  221.1596 H   0  0  0  0  0  0  0  0  0  0  0  0
  142.6683   74.9225  219.2903 H   0  0  0  0  0  0  0  0  0  0  0  0
  137.7449   75.2772  221.7265 H   0  0  0  0  0  0  0  0  0  0  0  0
  138.3230   75.7296  223.3584 H   0  0  0  0  0  0  0  0  0  0  0  0
  138.4047   77.4538  220.8368 H   0  0  0  0  0  0  0  0  0  0  0  0
  137.3432   77.6868  222.2659 H   0  0  0  0  0  0  0  0  0  0  0  0
  138.1351   79.6792  223.3841 H   0  0  0  0  0  0  0  0  0  0  0  0
  140.0363   80.8792  224.4436 H   0  0  0  0  0  0  0  0  0  0  0  0
  142.3555   80.0247  224.2673 H   0  0  0  0  0  0  0  0  0  0  0  0
  142.7567   77.9194  222.9956 H   0  0  0  0  0  0  0  0  0  0  0  0
  141.0130   76.6393  220.6740 H   0  0  0  0  0  0  0  0  0  0  0  0
  141.8357   75.9327  222.1236 H   0  0  0  0  0  0  0  0  0  0  0  0
  138.3597   70.2457  223.4644 H   0  0  0  0  0  0  0  0  0  0  0  0
  139.7613   69.2400  222.8319 H   0  0  0  0  0  0  0  0  0  0  0  0
  138.4110   68.5468  224.9207 H   0  0  0  0  0  0  0  0  0  0  0  0
  140.2524   68.3957  224.7690 H   0  0  0  0  0  0  0  0  0  0  0  0
  1  2  1  0
  2  3  2  0
  2  4  1  0
  4  5  1  0
  5  6  1  0
  6  7  1  0
  7  8  1  0
  8  9  2  0
  9 10  1  0
 10 11  1  0
 11 12  1  0
 12 13  1  0
 13 14  1  0
 14 15  2  0
 15 16  1  0
 16 17  2  0
 17 18  1  0
 17 19  1  0
 19 20  2  0
 10 21  2  0
 21 22  1  0
 22 23  1  0
 23 24  1  0
 24 25  1  0
 25 26  1  0
 26 27  2  0
 27 28  1  0
 28 29  2  0
 29 30  1  0
 30 31  2  0
 31 32  1  0
 22 33  2  0
  7 34  1  0
 34 35  1  0
 35  4  1  0
 33  8  1  0
 20 14  1  0
 32 23  1  0
 31 26  1  0
  1 36  1  0
  1 37  1  0
  4 38  1  0
  5 39  1  0
  5 40  1  0
  6 41  1  0
  6 42  1  0
 11 43  1  0
 12 44  1  0
 12 45  1  0
 13 46  1  0
 13 47  1  0
 15 48  1  0
 16 49  1  0
 19 50  1  0
 20 51  1  0
 24 52  1  0
 24 53  1  0
 25 54  1  0
 25 55  1  0
 27 56  1  0
 28 57  1  0
 29 58  1  0
 30 59  1  0
 32 60  1  0
 32 61  1  0
 34 62  1  0
 34 63  1  0
 35 64  1  0
 35 65  1  0
M  END
>  <smiles>  (23) 
NC(=O)C1CCN(c2nc(NCCc3ccc(Cl)cc3)nc(N3CCc4ccccc4C3)n2)CC1

>  <score_type>  (23) 
oracle

>  <origin>  (23) 
autodockgpu

>  <m_score__min__energy>  (23) 
-10.08

>  <m_primary>  (23) 
energy

>  <rmsd>  (23) 
5.221338612027561

>  <m_score__min__rmsd>  (23) 
5.221338612027561

>  <meeko>  (23) 
{"free_energy": -9.09, "intermolecular_energy": -11.18, "internal_energy": -1.72, "cluster_size": 11, "cluster_id": 7, "rank_in_cluster": 1}

>  <energy>  (23) 
-9.04

>  <cluster_rmsd>  (23) 
1.15

>  <cluster>  (23) 
3

$$$$

     RDKit          3D

 65 69  0  0  0  0  0  0  0  0999 V2000
  140.3940   67.5320  227.1680 N   0  0  0  0  0  0  0  0  0  0  0  0
  140.3240   68.9200  227.4740 C   0  0  0  0  0  0  0  0  0  0  0  0
  140.8870   69.3780  228.4980 O   0  0  0  0  0  0  0  0  0  0  0  0
  139.5870   69.8710  226.5990 C   0  0  0  0  0  0  0  0  0  0  0  0
  140.4300   71.0920  226.3640 C   0  0  0  0  0  0  0  0  0  0  0  0
  141.2390   70.9550  225.0950 C   0  0  0  0  0  0  0  0  0  0  0  0
  140.2490   70.9010  224.0200 N   0  0  0  0  0  0  0  0  0  0  0  0
  140.3540   71.7010  222.8470 C   0  0  0  0  0  0  0  0  0  0  0  0
  140.7560   71.1990  221.6640 N   0  0  0  0  0  0  0  0  0  0  0  0
  140.8260   72.0130  220.6170 C   0  0  0  0  0  0  0  0  0  0  0  0
  141.2510   71.5380  219.3200 N   0  0  0  0  0  0  0  0  0  0  0  0
  142.6480   71.6780  219.0180 C   0  0  0  0  0  0  0  0  0  0  0  0
  143.3190   72.5770  220.0090 C   0  0  0  0  0  0  0  0  0  0  0  0
  143.1800   73.9760  219.6010 C   0  0  0  0  0  0  0  0  0  0  0  0
  142.3460   74.2430  218.5130 C   0  0  0  0  0  0  0  0  0  0  0  0
  142.1500   75.5190  218.0320 C   0  0  0  0  0  0  0  0  0  0  0  0
  142.8090   76.5550  218.6630 C   0  0  0  0  0  0  0  0  0  0  0  0
  142.5840   78.1880  218.0820 Cl  0  0  0  0  0  0  0  0  0  0  0  0
  143.6390   76.3570  219.7340 C   0  0  0  0  0  0  0  0  0  0  0  0
  143.8010   75.0500  220.1760 C   0  0  0  0  0  0  0  0  0  0  0  0
  140.5000   73.3100  220.7480 N   0  0  0  0  0  0  0  0  0  0  0  0
  140.0960   73.8320  221.9210 C   0  0  0  0  0  0  0  0  0  0  0  0
  139.7570   75.2180  222.0230 N   0  0  0  0  0  0  0  0  0  0  0  0
  138.3910   75.5760  222.3140 C   0  0  0  0  0  0  0  0  0  0  0  0
  138.1630   76.9960  221.8730 C   0  0  0  0  0  0  0  0  0  0  0  0
  139.1510   77.8720  222.5210 C   0  0  0  0  0  0  0  0  0  0  0  0
  138.8280   79.0660  223.1500 C   0  0  0  0  0  0  0  0  0  0  0  0
  139.8390   79.8310  223.7400 C   0  0  0  0  0  0  0  0  0  0  0  0
  141.1590   79.4380  223.7180 C   0  0  0  0  0  0  0  0  0  0  0  0
  141.4660   78.2520  223.0900 C   0  0  0  0  0  0  0  0  0  0  0  0
  140.4700   77.4920  222.5060 C   0  0  0  0  0  0  0  0  0  0  0  0
  140.8060   76.2120  221.8300 C   0  0  0  0  0  0  0  0  0  0  0  0
  140.0250   73.0170  222.9700 N   0  0  0  0  0  0  0  0  0  0  0  0
  139.1170   70.0130  224.1270 C   0  0  0  0  0  0  0  0  0  0  0  0
  139.0600   69.2250  225.3800 C   0  0  0  0  0  0  0  0  0  0  0  0
  141.2940   67.1100  226.8150 H   0  0  0  0  0  0  0  0  0  0  0  0
  139.5610   66.8850  227.2820 H   0  0  0  0  0  0  0  0  0  0  0  0
  138.6763   70.2145  227.1114 H   0  0  0  0  0  0  0  0  0  0  0  0
  139.7743   71.9711  226.2795 H   0  0  0  0  0  0  0  0  0  0  0  0
  141.1227   71.2081  227.2106 H   0  0  0  0  0  0  0  0  0  0  0  0
  141.9042   71.8213  224.9650 H   0  0  0  0  0  0  0  0  0  0  0  0
  141.8829   70.0633  225.1093 H   0  0  0  0  0  0  0  0  0  0  0  0
  140.5180   71.1430  218.7270 H   0  0  0  0  0  0  0  0  0  0  0  0
  143.1247   70.6872  219.0495 H   0  0  0  0  0  0  0  0  0  0  0  0
  142.7493   72.1203  218.0159 H   0  0  0  0  0  0  0  0  0  0  0  0
  142.8547   72.4391  220.9966 H   0  0  0  0  0  0  0  0  0  0  0  0
  144.3881   72.3226  220.0565 H   0  0  0  0  0  0  0  0  0  0  0  0
  141.8277   73.4055  218.0232 H   0  0  0  0  0  0  0  0  0  0  0  0
  141.4895   75.7063  217.1726 H   0  0  0  0  0  0  0  0  0  0  0  0
  144.1550   77.1964  220.2231 H   0  0  0  0  0  0  0  0  0  0  0  0
  144.4644   74.8694  221.0346 H   0  0  0  0  0  0  0  0  0  0  0  0
  137.7085   74.9053  221.7715 H   0  0  0  0  0  0  0  0  0  0  0  0
  138.1995   75.4821  223.3931 H   0  0  0  0  0  0  0  0  0  0  0  0
  138.2729   77.0634  220.7806 H   0  0  0  0  0  0  0  0  0  0  0  0
  137.1485   77.3115  222.1580 H   0  0  0  0  0  0  0  0  0  0  0  0
  137.7833   79.4086  223.1843 H   0  0  0  0  0  0  0  0  0  0  0  0
  139.5720   80.7754  224.2368 H   0  0  0  0  0  0  0  0  0  0  0  0
  141.9422   80.0517  224.1869 H   0  0  0  0  0  0  0  0  0  0  0  0
  142.5099   77.9072  223.0527 H   0  0  0  0  0  0  0  0  0  0  0  0
  140.9295   76.3976  220.7528 H   0  0  0  0  0  0  0  0  0  0  0  0
  141.7370   75.8228  222.2679 H   0  0  0  0  0  0  0  0  0  0  0  0
  138.2006   70.6179  224.0615 H   0  0  0  0  0  0  0  0  0  0  0  0
  139.2170   69.2850  223.3085 H   0  0  0  0  0  0  0  0  0  0  0  0
  138.0057   68.9729  225.5666 H   0  0  0  0  0  0  0  0  0  0  0  0
  139.7176   68.3606  225.2058 H   0  0  0  0  0  0  0  0  0  0  0  0
  1  2  1  0
  2  3  2  0
  2  4  1  0
  4  5  1  0
  5  6  1  0
  6  7  1  0
  7  8  1  0
  8  9  2  0
  9 10  1  0
 10 11  1  0
 11 12  1  0
 12 13  1  0
 13 14  1  0
 14 15  2  0
 15 16  1  0
 16 17  2  0
 17 18  1  0
 17 19  1  0
 19 20  2  0
 10 21  2  0
 21 22  1  0
 22 23  1  0
 23 24  1  0
 24 25  1  0
 25 26  1  0
 26 27  2  0
 27 28  1  0
 28 29  2  0
 29 30  1  0
 30 31  2  0
 31 32  1  0
 22 33  2  0
  7 34  1  0
 34 35  1  0
 35  4  1  0
 33  8  1  0
 20 14  1  0
 32 23  1  0
 31 26  1  0
  1 36  1  0
  1 37  1  0
  4 38  1  0
  5 39  1  0
  5 40  1  0
  6 41  1  0
  6 42  1  0
 11 43  1  0
 12 44  1  0
 12 45  1  0
 13 46  1  0
 13 47  1  0
 15 48  1  0
 16 49  1  0
 19 50  1  0
 20 51  1  0
 24 52  1  0
 24 53  1  0
 25 54  1  0
 25 55  1  0
 27 56  1  0
 28 57  1  0
 29 58  1  0
 30 59  1  0
 32 60  1  0
 32 61  1  0
 34 62  1  0
 34 63  1  0
 35 64  1  0
 35 65  1  0
M  END
>  <smiles>  (24) 
NC(=O)C1CCN(c2nc(NCCc3ccc(Cl)cc3)nc(N3CCc4ccccc4C3)n2)CC1

>  <score_type>  (24) 
oracle

>  <origin>  (24) 
autodockgpu

>  <m_score__min__energy>  (24) 
-10.08

>  <m_primary>  (24) 
energy

>  <rmsd>  (24) 
5.160965925920081

>  <m_score__min__rmsd>  (24) 
5.160965925920081

>  <meeko>  (24) 
{"free_energy": -8.63, "intermolecular_energy": -10.72, "internal_energy": -2.0, "cluster_size": 11, "cluster_id": 7, "rank_in_cluster": 7}

>  <energy>  (24) 
-9.02

>  <cluster_rmsd>  (24) 
1.92

>  <cluster>  (24) 
3

$$$$

     RDKit          3D

 65 69  0  0  0  0  0  0  0  0999 V2000
  145.2180   71.1300  216.5640 N   0  0  0  0  0  0  0  0  0  0  0  0
  145.8630   72.3730  216.8130 C   0  0  0  0  0  0  0  0  0  0  0  0
  146.9180   72.6780  216.2070 O   0  0  0  0  0  0  0  0  0  0  0  0
  145.3150   73.3480  217.7920 C   0  0  0  0  0  0  0  0  0  0  0  0
  143.9030   73.6960  217.4180 C   0  0  0  0  0  0  0  0  0  0  0  0
  142.9170   72.8100  218.1440 C   0  0  0  0  0  0  0  0  0  0  0  0
  143.0820   73.1390  219.5580 N   0  0  0  0  0  0  0  0  0  0  0  0
  141.9750   73.4140  220.4100 C   0  0  0  0  0  0  0  0  0  0  0  0
  141.1700   72.4450  220.8840 N   0  0  0  0  0  0  0  0  0  0  0  0
  140.1590   72.7860  221.6750 C   0  0  0  0  0  0  0  0  0  0  0  0
  139.2570   71.7960  222.2170 N   0  0  0  0  0  0  0  0  0  0  0  0
  139.2810   71.6280  223.6430 C   0  0  0  0  0  0  0  0  0  0  0  0
  140.6860   71.6400  224.1570 C   0  0  0  0  0  0  0  0  0  0  0  0
  140.7860   70.8470  225.3840 C   0  0  0  0  0  0  0  0  0  0  0  0
  140.6410   69.4640  225.2620 C   0  0  0  0  0  0  0  0  0  0  0  0
  140.7020   68.6190  226.3490 C   0  0  0  0  0  0  0  0  0  0  0  0
  140.9160   69.1790  227.5910 C   0  0  0  0  0  0  0  0  0  0  0  0
  141.0010   68.1390  228.9940 Cl  0  0  0  0  0  0  0  0  0  0  0  0
  141.0650   70.5280  227.7760 C   0  0  0  0  0  0  0  0  0  0  0  0
  140.9940   71.3330  226.6450 C   0  0  0  0  0  0  0  0  0  0  0  0
  139.9540   74.0770  221.9880 N   0  0  0  0  0  0  0  0  0  0  0  0
  140.7460   75.0610  221.5250 C   0  0  0  0  0  0  0  0  0  0  0  0
  140.4970   76.4250  221.8800 N   0  0  0  0  0  0  0  0  0  0  0  0
  139.3480   76.7280  222.6960 C   0  0  0  0  0  0  0  0  0  0  0  0
  138.9980   78.1790  222.5110 C   0  0  0  0  0  0  0  0  0  0  0  0
  140.1740   79.0080  222.8200 C   0  0  0  0  0  0  0  0  0  0  0  0
  140.1340   80.1290  223.6360 C   0  0  0  0  0  0  0  0  0  0  0  0
  141.3070   80.8530  223.8720 C   0  0  0  0  0  0  0  0  0  0  0  0
  142.5140   80.4890  223.3180 C   0  0  0  0  0  0  0  0  0  0  0  0
  142.5390   79.3730  222.5100 C   0  0  0  0  0  0  0  0  0  0  0  0
  141.3820   78.6550  222.2740 C   0  0  0  0  0  0  0  0  0  0  0  0
  141.4150   77.4520  221.4020 C   0  0  0  0  0  0  0  0  0  0  0  0
  141.7590   74.7200  220.7340 N   0  0  0  0  0  0  0  0  0  0  0  0
  144.4020   73.1920  220.1370 C   0  0  0  0  0  0  0  0  0  0  0  0
  145.5080   72.9140  219.1900 C   0  0  0  0  0  0  0  0  0  0  0  0
  144.6980   70.9720  215.6590 H   0  0  0  0  0  0  0  0  0  0  0  0
  145.2360   70.3320  217.2630 H   0  0  0  0  0  0  0  0  0  0  0  0
  145.8900   74.2844  217.7410 H   0  0  0  0  0  0  0  0  0  0  0  0
  143.7082   74.7452  217.6849 H   0  0  0  0  0  0  0  0  0  0  0  0
  143.7795   73.5447  216.3355 H   0  0  0  0  0  0  0  0  0  0  0  0
  141.8896   73.0242  217.8147 H   0  0  0  0  0  0  0  0  0  0  0  0
  143.0959   71.7431  217.9447 H   0  0  0  0  0  0  0  0  0  0  0  0
  138.6790   71.2980  221.5360 H   0  0  0  0  0  0  0  0  0  0  0  0
  138.7186   72.4488  224.1121 H   0  0  0  0  0  0  0  0  0  0  0  0
  138.8236   70.6588  223.8911 H   0  0  0  0  0  0  0  0  0  0  0  0
  141.3548   71.2143  223.3945 H   0  0  0  0  0  0  0  0  0  0  0  0
  140.9772   72.6776  224.3773 H   0  0  0  0  0  0  0  0  0  0  0  0
  140.4722   69.0338  224.2638 H   0  0  0  0  0  0  0  0  0  0  0  0
  140.5837   67.5319  226.2297 H   0  0  0  0  0  0  0  0  0  0  0  0
  141.2334   70.9554  228.7755 H   0  0  0  0  0  0  0  0  0  0  0  0
  141.1115   72.4194  226.7712 H   0  0  0  0  0  0  0  0  0  0  0  0
  138.4990   76.0998  222.3886 H   0  0  0  0  0  0  0  0  0  0  0  0
  139.5745   76.5277  223.7536 H   0  0  0  0  0  0  0  0  0  0  0  0
  138.6900   78.3524  221.4693 H   0  0  0  0  0  0  0  0  0  0  0  0
  138.1717   78.4469  223.1858 H   0  0  0  0  0  0  0  0  0  0  0  0
  139.1858   80.4464  224.0945 H   0  0  0  0  0  0  0  0  0  0  0  0
  141.2642   81.7407  224.5202 H   0  0  0  0  0  0  0  0  0  0  0  0
  143.4275   81.0696  223.5139 H   0  0  0  0  0  0  0  0  0  0  0  0
  143.4853   79.0518  222.0502 H   0  0  0  0  0  0  0  0  0  0  0  0
  141.1276   77.7420  220.3806 H   0  0  0  0  0  0  0  0  0  0  0  0
  142.4349   77.0401  221.4176 H   0  0  0  0  0  0  0  0  0  0  0  0
  144.5529   74.1990  220.5532 H   0  0  0  0  0  0  0  0  0  0  0  0
  144.4386   72.3980  220.8974 H   0  0  0  0  0  0  0  0  0  0  0  0
  146.4079   73.4174  219.5730 H   0  0  0  0  0  0  0  0  0  0  0  0
  145.5766   71.8171  219.1430 H   0  0  0  0  0  0  0  0  0  0  0  0
  1  2  1  0
  2  3  2  0
  2  4  1  0
  4  5  1  0
  5  6  1  0
  6  7  1  0
  7  8  1  0
  8  9  2  0
  9 10  1  0
 10 11  1  0
 11 12  1  0
 12 13  1  0
 13 14  1  0
 14 15  2  0
 15 16  1  0
 16 17  2  0
 17 18  1  0
 17 19  1  0
 19 20  2  0
 10 21  2  0
 21 22  1  0
 22 23  1  0
 23 24  1  0
 24 25  1  0
 25 26  1  0
 26 27  2  0
 27 28  1  0
 28 29  2  0
 29 30  1  0
 30 31  2  0
 31 32  1  0
 22 33  2  0
  7 34  1  0
 34 35  1  0
 35  4  1  0
 33  8  1  0
 20 14  1  0
 32 23  1  0
 31 26  1  0
  1 36  1  0
  1 37  1  0
  4 38  1  0
  5 39  1  0
  5 40  1  0
  6 41  1  0
  6 42  1  0
 11 43  1  0
 12 44  1  0
 12 45  1  0
 13 46  1  0
 13 47  1  0
 15 48  1  0
 16 49  1  0
 19 50  1  0
 20 51  1  0
 24 52  1  0
 24 53  1  0
 25 54  1  0
 25 55  1  0
 27 56  1  0
 28 57  1  0
 29 58  1  0
 30 59  1  0
 32 60  1  0
 32 61  1  0
 34 62  1  0
 34 63  1  0
 35 64  1  0
 35 65  1  0
M  END
>  <smiles>  (25) 
NC(=O)C1CCN(c2nc(NCCc3ccc(Cl)cc3)nc(N3CCc4ccccc4C3)n2)CC1

>  <score_type>  (25) 
oracle

>  <origin>  (25) 
autodockgpu

>  <m_score__min__energy>  (25) 
-10.08

>  <m_primary>  (25) 
energy

>  <rmsd>  (25) 
5.300696620632642

>  <m_score__min__rmsd>  (25) 
5.300696620632642

>  <meeko>  (25) 
{"free_energy": -9.09, "intermolecular_energy": -11.18, "internal_energy": -1.11, "cluster_size": 11, "cluster_id": 1, "rank_in_cluster": 10}

>  <energy>  (25) 
-8.07

>  <cluster_rmsd>  (25) 
1.87

>  <cluster>  (25) 
3

$$$$

     RDKit          3D

 65 69  0  0  0  0  0  0  0  0999 V2000
  146.0850   73.7550  217.3320 N   0  0  0  0  0  0  0  0  0  0  0  0
  145.7250   72.3810  217.2500 C   0  0  0  0  0  0  0  0  0  0  0  0
  146.1720   71.6570  216.3270 O   0  0  0  0  0  0  0  0  0  0  0  0
  144.8140   71.7570  218.2450 C   0  0  0  0  0  0  0  0  0  0  0  0
  145.0030   72.4160  219.5810 C   0  0  0  0  0  0  0  0  0  0  0  0
  144.0150   73.5450  219.7720 C   0  0  0  0  0  0  0  0  0  0  0  0
  142.7030   72.9010  219.7910 N   0  0  0  0  0  0  0  0  0  0  0  0
  141.7320   73.1800  220.7930 C   0  0  0  0  0  0  0  0  0  0  0  0
  141.2040   74.4060  220.9660 N   0  0  0  0  0  0  0  0  0  0  0  0
  140.3020   74.5820  221.9240 C   0  0  0  0  0  0  0  0  0  0  0  0
  139.6970   75.8730  222.1630 N   0  0  0  0  0  0  0  0  0  0  0  0
  138.8510   76.3800  221.1180 C   0  0  0  0  0  0  0  0  0  0  0  0
  138.3810   77.7640  221.4400 C   0  0  0  0  0  0  0  0  0  0  0  0
  139.4500   78.5270  222.0880 C   0  0  0  0  0  0  0  0  0  0  0  0
  140.6790   78.5880  221.4280 C   0  0  0  0  0  0  0  0  0  0  0  0
  141.7610   79.2650  221.9480 C   0  0  0  0  0  0  0  0  0  0  0  0
  141.6020   79.8980  223.1640 C   0  0  0  0  0  0  0  0  0  0  0  0
  142.9520   80.7670  223.8550 Cl  0  0  0  0  0  0  0  0  0  0  0  0
  140.4230   79.8740  223.8590 C   0  0  0  0  0  0  0  0  0  0  0  0
  139.3650   79.1760  223.2880 C   0  0  0  0  0  0  0  0  0  0  0  0
  139.9310   73.5490  222.7000 N   0  0  0  0  0  0  0  0  0  0  0  0
  140.4470   72.3160  222.5440 C   0  0  0  0  0  0  0  0  0  0  0  0
  140.0290   71.2400  223.3900 N   0  0  0  0  0  0  0  0  0  0  0  0
  139.5530   70.0240  222.7770 C   0  0  0  0  0  0  0  0  0  0  0  0
  138.7160   69.2780  223.7800 C   0  0  0  0  0  0  0  0  0  0  0  0
  139.5050   69.0510  225.0010 C   0  0  0  0  0  0  0  0  0  0  0  0
  139.5910   67.8260  225.6470 C   0  0  0  0  0  0  0  0  0  0  0  0
  140.3690   67.7080  226.8020 C   0  0  0  0  0  0  0  0  0  0  0  0
  141.0610   68.7760  227.3290 C   0  0  0  0  0  0  0  0  0  0  0  0
  140.9680   69.9860  226.6770 C   0  0  0  0  0  0  0  0  0  0  0  0
  140.1990   70.1080  225.5340 C   0  0  0  0  0  0  0  0  0  0  0  0
  140.1020   71.4150  224.8350 C   0  0  0  0  0  0  0  0  0  0  0  0
  141.3490   72.1380  221.5840 N   0  0  0  0  0  0  0  0  0  0  0  0
  142.3550   71.9450  218.7680 C   0  0  0  0  0  0  0  0  0  0  0  0
  143.4180   71.6880  217.7680 C   0  0  0  0  0  0  0  0  0  0  0  0
  147.0570   74.0320  217.6360 H   0  0  0  0  0  0  0  0  0  0  0  0
  145.4060   74.5340  217.0940 H   0  0  0  0  0  0  0  0  0  0  0  0
  145.0831   70.6989  218.3788 H   0  0  0  0  0  0  0  0  0  0  0  0
  144.8541   71.6693  220.3749 H   0  0  0  0  0  0  0  0  0  0  0  0
  146.0213   72.8293  219.6274 H   0  0  0  0  0  0  0  0  0  0  0  0
  144.2032   74.0668  220.7219 H   0  0  0  0  0  0  0  0  0  0  0  0
  144.0926   74.3007  218.9765 H   0  0  0  0  0  0  0  0  0  0  0  0
  139.9240   76.3150  223.0560 H   0  0  0  0  0  0  0  0  0  0  0  0
  139.4163   76.4014  220.1746 H   0  0  0  0  0  0  0  0  0  0  0  0
  137.9741   75.7226  221.0237 H   0  0  0  0  0  0  0  0  0  0  0  0
  138.0851   78.2720  220.5103 H   0  0  0  0  0  0  0  0  0  0  0  0
  137.5224   77.6996  222.1246 H   0  0  0  0  0  0  0  0  0  0  0  0
  140.7874   78.0780  220.4594 H   0  0  0  0  0  0  0  0  0  0  0  0
  142.7204   79.2997  221.4111 H   0  0  0  0  0  0  0  0  0  0  0  0
  140.3173   80.3849  224.8274 H   0  0  0  0  0  0  0  0  0  0  0  0
  138.4087   79.1443  223.8307 H   0  0  0  0  0  0  0  0  0  0  0  0
  138.9440   70.2677  221.8939 H   0  0  0  0  0  0  0  0  0  0  0  0
  140.4046   69.4033  222.4616 H   0  0  0  0  0  0  0  0  0  0  0  0
  137.8221   69.8703  224.0253 H   0  0  0  0  0  0  0  0  0  0  0  0
  138.4083   68.3109  223.3557 H   0  0  0  0  0  0  0  0  0  0  0  0
  139.0502   66.9531  225.2525 H   0  0  0  0  0  0  0  0  0  0  0  0
  140.4306   66.7321  227.3058 H   0  0  0  0  0  0  0  0  0  0  0  0
  141.6676   68.6664  228.2400 H   0  0  0  0  0  0  0  0  0  0  0  0
  141.5087   70.8605  227.0679 H   0  0  0  0  0  0  0  0  0  0  0  0
  139.1976   71.9385  225.1784 H   0  0  0  0  0  0  0  0  0  0  0  0
  141.0036   72.0005  225.0682 H   0  0  0  0  0  0  0  0  0  0  0  0
  142.1105   70.9919  219.2597 H   0  0  0  0  0  0  0  0  0  0  0  0
  141.5088   72.3786  218.2149 H   0  0  0  0  0  0  0  0  0  0  0  0
  143.2551   70.6789  217.3615 H   0  0  0  0  0  0  0  0  0  0  0  0
  143.3248   72.5022  217.0343 H   0  0  0  0  0  0  0  0  0  0  0  0
  1  2  1  0
  2  3  2  0
  2  4  1  0
  4  5  1  0
  5  6  1  0
  6  7  1  0
  7  8  1  0
  8  9  2  0
  9 10  1  0
 10 11  1  0
 11 12  1  0
 12 13  1  0
 13 14  1  0
 14 15  2  0
 15 16  1  0
 16 17  2  0
 17 18  1  0
 17 19  1  0
 19 20  2  0
 10 21  2  0
 21 22  1  0
 22 23  1  0
 23 24  1  0
 24 25  1  0
 25 26  1  0
 26 27  2  0
 27 28  1  0
 28 29  2  0
 29 30  1  0
 30 31  2  0
 31 32  1  0
 22 33  2  0
  7 34  1  0
 34 35  1  0
 35  4  1  0
 33  8  1  0
 20 14  1  0
 32 23  1  0
 31 26  1  0
  1 36  1  0
  1 37  1  0
  4 38  1  0
  5 39  1  0
  5 40  1  0
  6 41  1  0
  6 42  1  0
 11 43  1  0
 12 44  1  0
 12 45  1  0
 13 46  1  0
 13 47  1  0
 15 48  1  0
 16 49  1  0
 19 50  1  0
 20 51  1  0
 24 52  1  0
 24 53  1  0
 25 54  1  0
 25 55  1  0
 27 56  1  0
 28 57  1  0
 29 58  1  0
 30 59  1  0
 32 60  1  0
 32 61  1  0
 34 62  1  0
 34 63  1  0
 35 64  1  0
 35 65  1  0
M  END
>  <smiles>  (26) 
NC(=O)C1CCN(c2nc(NCCc3ccc(Cl)cc3)nc(N3CCc4ccccc4C3)n2)CC1

>  <score_type>  (26) 
oracle

>  <origin>  (26) 
autodockgpu

>  <m_score__min__energy>  (26) 
-10.08

>  <m_primary>  (26) 
energy

>  <rmsd>  (26) 
11.177069696923349

>  <m_score__min__rmsd>  (26) 
11.177069696923349

>  <meeko>  (26) 
{"free_energy": -9.07, "intermolecular_energy": -11.16, "internal_energy": -1.07, "cluster_size": 9, "cluster_id": 3, "rank_in_cluster": 6}

>  <energy>  (26) 
-9.44

>  <cluster_rmsd>  (26) 
0.0

>  <cluster>  (26) 
4

$$$$

     RDKit          3D

 65 69  0  0  0  0  0  0  0  0999 V2000
  145.9810   70.4260  217.8250 N   0  0  0  0  0  0  0  0  0  0  0  0
  145.5600   71.5910  218.5250 C   0  0  0  0  0  0  0  0  0  0  0  0
  145.8930   72.7320  218.1240 O   0  0  0  0  0  0  0  0  0  0  0  0
  144.7180   71.5000  219.7470 C   0  0  0  0  0  0  0  0  0  0  0  0
  144.6310   72.8510  220.3980 C   0  0  0  0  0  0  0  0  0  0  0  0
  143.4070   73.6020  219.9250 C   0  0  0  0  0  0  0  0  0  0  0  0
  142.2720   72.8170  220.4070 N   0  0  0  0  0  0  0  0  0  0  0  0
  141.1730   73.4090  221.0920 C   0  0  0  0  0  0  0  0  0  0  0  0
  140.1430   72.6840  221.5650 N   0  0  0  0  0  0  0  0  0  0  0  0
  139.1560   73.3140  222.1940 C   0  0  0  0  0  0  0  0  0  0  0  0
  138.0210   72.5950  222.7250 N   0  0  0  0  0  0  0  0  0  0  0  0
  137.6470   71.3940  222.0310 C   0  0  0  0  0  0  0  0  0  0  0  0
  138.6490   70.3080  222.2690 C   0  0  0  0  0  0  0  0  0  0  0  0
  139.1500   70.3720  223.6430 C   0  0  0  0  0  0  0  0  0  0  0  0
  138.4470   69.6520  224.6120 C   0  0  0  0  0  0  0  0  0  0  0  0
  138.8180   69.6480  225.9390 C   0  0  0  0  0  0  0  0  0  0  0  0
  139.9260   70.3860  226.3020 C   0  0  0  0  0  0  0  0  0  0  0  0
  140.4280   70.4050  227.9760 Cl  0  0  0  0  0  0  0  0  0  0  0  0
  140.6560   71.1130  225.3990 C   0  0  0  0  0  0  0  0  0  0  0  0
  140.2360   71.0810  224.0750 C   0  0  0  0  0  0  0  0  0  0  0  0
  139.1980   74.6480  222.3480 N   0  0  0  0  0  0  0  0  0  0  0  0
  140.2190   75.3910  221.8820 C   0  0  0  0  0  0  0  0  0  0  0  0
  140.2290   76.8100  222.0640 N   0  0  0  0  0  0  0  0  0  0  0  0
  139.0690   77.4410  222.6430 C   0  0  0  0  0  0  0  0  0  0  0  0
  139.0800   78.8990  222.2700 C   0  0  0  0  0  0  0  0  0  0  0  0
  140.3520   79.5010  222.6980 C   0  0  0  0  0  0  0  0  0  0  0  0
  140.4430   80.7010  223.3900 C   0  0  0  0  0  0  0  0  0  0  0  0
  141.6990   81.1930  223.7560 C   0  0  0  0  0  0  0  0  0  0  0  0
  142.8630   80.5240  223.4500 C   0  0  0  0  0  0  0  0  0  0  0  0
  142.7590   79.3350  222.7620 C   0  0  0  0  0  0  0  0  0  0  0  0
  141.5190   78.8440  222.3990 C   0  0  0  0  0  0  0  0  0  0  0  0
  141.4110   77.5610  221.6580 C   0  0  0  0  0  0  0  0  0  0  0  0
  141.2070   74.7620  221.2530 N   0  0  0  0  0  0  0  0  0  0  0  0
  142.2400   71.3910  220.1930 C   0  0  0  0  0  0  0  0  0  0  0  0
  143.4220   70.8390  219.4910 C   0  0  0  0  0  0  0  0  0  0  0  0
  145.5520   70.1820  216.8920 H   0  0  0  0  0  0  0  0  0  0  0  0
  146.7270   69.7740  218.2060 H   0  0  0  0  0  0  0  0  0  0  0  0
  145.1979   70.8326  220.4779 H   0  0  0  0  0  0  0  0  0  0  0  0
  144.5746   72.7218  221.4889 H   0  0  0  0  0  0  0  0  0  0  0  0
  145.5252   73.4303  220.1245 H   0  0  0  0  0  0  0  0  0  0  0  0
  143.3858   74.6152  220.3527 H   0  0  0  0  0  0  0  0  0  0  0  0
  143.3923   73.7214  218.8316 H   0  0  0  0  0  0  0  0  0  0  0  0
  137.5800   73.0050  223.5520 H   0  0  0  0  0  0  0  0  0  0  0  0
  136.6623   71.0613  222.3912 H   0  0  0  0  0  0  0  0  0  0  0  0
  137.6085   71.6077  220.9526 H   0  0  0  0  0  0  0  0  0  0  0  0
  138.1720   69.3310  222.1017 H   0  0  0  0  0  0  0  0  0  0  0  0
  139.4915   70.4396  221.5742 H   0  0  0  0  0  0  0  0  0  0  0  0
  137.5668   69.0680  224.3050 H   0  0  0  0  0  0  0  0  0  0  0  0
  138.2488   69.0746  226.6855 H   0  0  0  0  0  0  0  0  0  0  0  0
  141.5358   71.6963  225.7085 H   0  0  0  0  0  0  0  0  0  0  0  0
  140.8087   71.6578  223.3338 H   0  0  0  0  0  0  0  0  0  0  0  0
  138.1560   76.9659  222.2548 H   0  0  0  0  0  0  0  0  0  0  0  0
  139.0889   77.3326  223.7375 H   0  0  0  0  0  0  0  0  0  0  0  0
  138.9741   79.0001  221.1798 H   0  0  0  0  0  0  0  0  0  0  0  0
  138.2438   79.4127  222.7669 H   0  0  0  0  0  0  0  0  0  0  0  0
  139.5323   81.2611  223.6487 H   0  0  0  0  0  0  0  0  0  0  0  0
  141.7595   82.1440  224.3055 H   0  0  0  0  0  0  0  0  0  0  0  0
  143.8436   80.9257  223.7452 H   0  0  0  0  0  0  0  0  0  0  0  0
  143.6678   78.7733  222.5001 H   0  0  0  0  0  0  0  0  0  0  0  0
  141.3470   77.7742  220.5808 H   0  0  0  0  0  0  0  0  0  0  0  0
  142.3007   76.9549  221.8838 H   0  0  0  0  0  0  0  0  0  0  0  0
  142.1652   70.8998  221.1744 H   0  0  0  0  0  0  0  0  0  0  0  0
  141.3754   71.1961  219.5415 H   0  0  0  0  0  0  0  0  0  0  0  0
  143.5222   69.7843  219.7870 H   0  0  0  0  0  0  0  0  0  0  0  0
  143.2228   71.0009  218.4214 H   0  0  0  0  0  0  0  0  0  0  0  0
  1  2  1  0
  2  3  2  0
  2  4  1  0
  4  5  1  0
  5  6  1  0
  6  7  1  0
  7  8  1  0
  8  9  2  0
  9 10  1  0
 10 11  1  0
 11 12  1  0
 12 13  1  0
 13 14  1  0
 14 15  2  0
 15 16  1  0
 16 17  2  0
 17 18  1  0
 17 19  1  0
 19 20  2  0
 10 21  2  0
 21 22  1  0
 22 23  1  0
 23 24  1  0
 24 25  1  0
 25 26  1  0
 26 27  2  0
 27 28  1  0
 28 29  2  0
 29 30  1  0
 30 31  2  0
 31 32  1  0
 22 33  2  0
  7 34  1  0
 34 35  1  0
 35  4  1  0
 33  8  1  0
 20 14  1  0
 32 23  1  0
 31 26  1  0
  1 36  1  0
  1 37  1  0
  4 38  1  0
  5 39  1  0
  5 40  1  0
  6 41  1  0
  6 42  1  0
 11 43  1  0
 12 44  1  0
 12 45  1  0
 13 46  1  0
 13 47  1  0
 15 48  1  0
 16 49  1  0
 19 50  1  0
 20 51  1  0
 24 52  1  0
 24 53  1  0
 25 54  1  0
 25 55  1  0
 27 56  1  0
 28 57  1  0
 29 58  1  0
 30 59  1  0
 32 60  1  0
 32 61  1  0
 34 62  1  0
 34 63  1  0
 35 64  1  0
 35 65  1  0
M  END
>  <smiles>  (27) 
NC(=O)C1CCN(c2nc(NCCc3ccc(Cl)cc3)nc(N3CCc4ccccc4C3)n2)CC1

>  <score_type>  (27) 
oracle

>  <origin>  (27) 
autodockgpu

>  <m_score__min__energy>  (27) 
-10.08

>  <m_primary>  (27) 
energy

>  <rmsd>  (27) 
5.459856160290671

>  <m_score__min__rmsd>  (27) 
5.459856160290671

>  <meeko>  (27) 
{"free_energy": -9.81, "intermolecular_energy": -11.9, "internal_energy": -1.31, "cluster_size": 11, "cluster_id": 1, "rank_in_cluster": 4}

>  <energy>  (27) 
-9.22

>  <cluster_rmsd>  (27) 
0.0

>  <cluster>  (27) 
5

$$$$

     RDKit          3D

 65 69  0  0  0  0  0  0  0  0999 V2000
  140.3370   68.6610  227.6500 N   0  0  0  0  0  0  0  0  0  0  0  0
  139.5330   68.5070  226.4860 C   0  0  0  0  0  0  0  0  0  0  0  0
  139.1940   67.3650  226.0900 O   0  0  0  0  0  0  0  0  0  0  0  0
  139.0700   69.6820  225.7020 C   0  0  0  0  0  0  0  0  0  0  0  0
  140.0760   70.7910  225.8190 C   0  0  0  0  0  0  0  0  0  0  0  0
  141.0660   70.7480  224.6780 C   0  0  0  0  0  0  0  0  0  0  0  0
  140.2720   71.0110  223.4790 N   0  0  0  0  0  0  0  0  0  0  0  0
  140.6660   71.9670  222.4990 C   0  0  0  0  0  0  0  0  0  0  0  0
  141.4200   71.6400  221.4340 N   0  0  0  0  0  0  0  0  0  0  0  0
  141.7430   72.5920  220.5650 C   0  0  0  0  0  0  0  0  0  0  0  0
  142.5500   72.3080  219.4010 N   0  0  0  0  0  0  0  0  0  0  0  0
  143.0020   73.4460  218.6500 C   0  0  0  0  0  0  0  0  0  0  0  0
  141.8700   74.0710  217.8970 C   0  0  0  0  0  0  0  0  0  0  0  0
  141.7590   75.4920  218.2310 C   0  0  0  0  0  0  0  0  0  0  0  0
  142.9320   76.1510  218.6070 C   0  0  0  0  0  0  0  0  0  0  0  0
  142.9470   77.4840  218.9560 C   0  0  0  0  0  0  0  0  0  0  0  0
  141.7520   78.1730  218.9250 C   0  0  0  0  0  0  0  0  0  0  0  0
  141.7310   79.8660  219.3600 Cl  0  0  0  0  0  0  0  0  0  0  0  0
  140.5690   77.5830  218.5640 C   0  0  0  0  0  0  0  0  0  0  0  0
  140.6130   76.2360  218.2230 C   0  0  0  0  0  0  0  0  0  0  0  0
  141.3180   73.8520  220.7580 N   0  0  0  0  0  0  0  0  0  0  0  0
  140.5630   74.2000  221.8160 C   0  0  0  0  0  0  0  0  0  0  0  0
  140.1290   75.5520  221.9890 N   0  0  0  0  0  0  0  0  0  0  0  0
  138.7700   75.7950  222.4050 C   0  0  0  0  0  0  0  0  0  0  0  0
  138.3980   77.2030  222.0280 C   0  0  0  0  0  0  0  0  0  0  0  0
  139.3680   78.1380  222.6170 C   0  0  0  0  0  0  0  0  0  0  0  0
  139.0100   79.2870  223.3080 C   0  0  0  0  0  0  0  0  0  0  0  0
  140.0070   80.1150  223.8330 C   0  0  0  0  0  0  0  0  0  0  0  0
  141.3460   79.8280  223.6890 C   0  0  0  0  0  0  0  0  0  0  0  0
  141.6870   78.6840  223.0010 C   0  0  0  0  0  0  0  0  0  0  0  0
  140.7050   77.8630  222.4800 C   0  0  0  0  0  0  0  0  0  0  0  0
  141.0790   76.6300  221.7390 C   0  0  0  0  0  0  0  0  0  0  0  0
  140.2390   73.2470  222.6860 N   0  0  0  0  0  0  0  0  0  0  0  0
  139.0440   70.2880  223.2550 C   0  0  0  0  0  0  0  0  0  0  0  0
  138.6850   69.3240  224.3220 C   0  0  0  0  0  0  0  0  0  0  0  0
  139.9240   68.4930  228.6070 H   0  0  0  0  0  0  0  0  0  0  0  0
  141.3580   68.9420  227.6000 H   0  0  0  0  0  0  0  0  0  0  0  0
  138.1321   70.0653  226.1304 H   0  0  0  0  0  0  0  0  0  0  0  0
  139.5499   71.7569  225.8024 H   0  0  0  0  0  0  0  0  0  0  0  0
  140.6253   70.6671  226.7639 H   0  0  0  0  0  0  0  0  0  0  0  0
  141.8388   71.5201  224.8072 H   0  0  0  0  0  0  0  0  0  0  0  0
  141.5914   69.7832  224.6226 H   0  0  0  0  0  0  0  0  0  0  0  0
  142.7310   71.3200  219.2120 H   0  0  0  0  0  0  0  0  0  0  0  0
  143.4281   74.1879  219.3414 H   0  0  0  0  0  0  0  0  0  0  0  0
  143.7627   73.1123  217.9289 H   0  0  0  0  0  0  0  0  0  0  0  0
  142.0507   73.9654  216.8171 H   0  0  0  0  0  0  0  0  0  0  0  0
  140.9337   73.5646  218.1744 H   0  0  0  0  0  0  0  0  0  0  0  0
  143.8760   75.5865  218.6251 H   0  0  0  0  0  0  0  0  0  0  0  0
  143.8822   77.9830  219.2500 H   0  0  0  0  0  0  0  0  0  0  0  0
  139.6266   78.1500  218.5449 H   0  0  0  0  0  0  0  0  0  0  0  0
  139.6744   75.7424  217.9309 H   0  0  0  0  0  0  0  0  0  0  0  0
  138.0959   75.0861  221.9019 H   0  0  0  0  0  0  0  0  0  0  0  0
  138.6800   75.6607  223.4931 H   0  0  0  0  0  0  0  0  0  0  0  0
  138.4084   77.3048  220.9328 H   0  0  0  0  0  0  0  0  0  0  0  0
  137.3907   77.4312  222.4066 H   0  0  0  0  0  0  0  0  0  0  0  0
  137.9490   79.5447  223.4418 H   0  0  0  0  0  0  0  0  0  0  0  0
  139.7125   81.0240  224.3780 H   0  0  0  0  0  0  0  0  0  0  0  0
  142.1176   80.4899  224.1092 H   0  0  0  0  0  0  0  0  0  0  0  0
  142.7469   78.4227  222.8657 H   0  0  0  0  0  0  0  0  0  0  0  0
  141.0950   76.8506  220.6615 H   0  0  0  0  0  0  0  0  0  0  0  0
  142.0714   76.3050  222.0848 H   0  0  0  0  0  0  0  0  0  0  0  0
  138.2276   71.0199  223.1667 H   0  0  0  0  0  0  0  0  0  0  0  0
  139.1970   69.6948  222.3414 H   0  0  0  0  0  0  0  0  0  0  0  0
  137.5922   69.1993  224.3035 H   0  0  0  0  0  0  0  0  0  0  0  0
  139.2578   68.4137  224.0911 H   0  0  0  0  0  0  0  0  0  0  0  0
  1  2  1  0
  2  3  2  0
  2  4  1  0
  4  5  1  0
  5  6  1  0
  6  7  1  0
  7  8  1  0
  8  9  2  0
  9 10  1  0
 10 11  1  0
 11 12  1  0
 12 13  1  0
 13 14  1  0
 14 15  2  0
 15 16  1  0
 16 17  2  0
 17 18  1  0
 17 19  1  0
 19 20  2  0
 10 21  2  0
 21 22  1  0
 22 23  1  0
 23 24  1  0
 24 25  1  0
 25 26  1  0
 26 27  2  0
 27 28  1  0
 28 29  2  0
 29 30  1  0
 30 31  2  0
 31 32  1  0
 22 33  2  0
  7 34  1  0
 34 35  1  0
 35  4  1  0
 33  8  1  0
 20 14  1  0
 32 23  1  0
 31 26  1  0
  1 36  1  0
  1 37  1  0
  4 38  1  0
  5 39  1  0
  5 40  1  0
  6 41  1  0
  6 42  1  0
 11 43  1  0
 12 44  1  0
 12 45  1  0
 13 46  1  0
 13 47  1  0
 15 48  1  0
 16 49  1  0
 19 50  1  0
 20 51  1  0
 24 52  1  0
 24 53  1  0
 25 54  1  0
 25 55  1  0
 27 56  1  0
 28 57  1  0
 29 58  1  0
 30 59  1  0
 32 60  1  0
 32 61  1  0
 34 62  1  0
 34 63  1  0
 35 64  1  0
 35 65  1  0
M  END
>  <smiles>  (28) 
NC(=O)C1CCN(c2nc(NCCc3ccc(Cl)cc3)nc(N3CCc4ccccc4C3)n2)CC1

>  <score_type>  (28) 
oracle

>  <origin>  (28) 
autodockgpu

>  <m_score__min__energy>  (28) 
-10.08

>  <m_primary>  (28) 
energy

>  <rmsd>  (28) 
5.12497533356305

>  <m_score__min__rmsd>  (28) 
5.12497533356305

>  <meeko>  (28) 
{"free_energy": -7.83, "intermolecular_energy": -9.92, "internal_energy": -2.35, "cluster_size": 4, "cluster_id": 8, "rank_in_cluster": 2}

>  <energy>  (28) 
-9.17

>  <cluster_rmsd>  (28) 
0.0

>  <cluster>  (28) 
6

$$$$

     RDKit          3D

 65 69  0  0  0  0  0  0  0  0999 V2000
  140.1070   81.0660  220.8680 N   0  0  0  0  0  0  0  0  0  0  0  0
  141.0840   80.7400  221.8490 C   0  0  0  0  0  0  0  0  0  0  0  0
  141.2830   81.4990  222.8290 O   0  0  0  0  0  0  0  0  0  0  0  0
  141.8980   79.5000  221.7510 C   0  0  0  0  0  0  0  0  0  0  0  0
  141.5660   78.5900  222.8980 C   0  0  0  0  0  0  0  0  0  0  0  0
  140.4890   77.6020  222.5110 C   0  0  0  0  0  0  0  0  0  0  0  0
  141.0910   76.7770  221.4660 N   0  0  0  0  0  0  0  0  0  0  0  0
  141.0260   75.3540  221.4870 C   0  0  0  0  0  0  0  0  0  0  0  0
  140.0270   74.6860  222.0920 N   0  0  0  0  0  0  0  0  0  0  0  0
  140.0410   73.3580  222.0650 C   0  0  0  0  0  0  0  0  0  0  0  0
  138.9990   72.5800  222.6950 N   0  0  0  0  0  0  0  0  0  0  0  0
  139.4300   71.4380  223.4530 C   0  0  0  0  0  0  0  0  0  0  0  0
  140.6890   71.7410  224.2030 C   0  0  0  0  0  0  0  0  0  0  0  0
  140.7630   70.9320  225.4210 C   0  0  0  0  0  0  0  0  0  0  0  0
  140.6000   69.5520  225.2800 C   0  0  0  0  0  0  0  0  0  0  0  0
  140.6370   68.6930  226.3560 C   0  0  0  0  0  0  0  0  0  0  0  0
  140.8430   69.2350  227.6080 C   0  0  0  0  0  0  0  0  0  0  0  0
  140.8970   68.1760  228.9980 Cl  0  0  0  0  0  0  0  0  0  0  0  0
  141.0090   70.5790  227.8110 C   0  0  0  0  0  0  0  0  0  0  0  0
  140.9620   71.3990  226.6900 C   0  0  0  0  0  0  0  0  0  0  0  0
  141.0380   72.7070  221.4420 N   0  0  0  0  0  0  0  0  0  0  0  0
  142.0460   73.3560  220.8310 C   0  0  0  0  0  0  0  0  0  0  0  0
  143.0920   72.6280  220.1790 N   0  0  0  0  0  0  0  0  0  0  0  0
  144.4120   73.2050  220.1370 C   0  0  0  0  0  0  0  0  0  0  0  0
  145.1790   72.5650  219.0110 C   0  0  0  0  0  0  0  0  0  0  0  0
  145.1800   71.1050  219.1910 C   0  0  0  0  0  0  0  0  0  0  0  0
  146.3180   70.3170  219.0890 C   0  0  0  0  0  0  0  0  0  0  0  0
  146.2190   68.9350  219.2780 C   0  0  0  0  0  0  0  0  0  0  0  0
  145.0200   68.3210  219.5650 C   0  0  0  0  0  0  0  0  0  0  0  0
  143.8990   69.1150  219.6630 C   0  0  0  0  0  0  0  0  0  0  0  0
  143.9910   70.4820  219.4770 C   0  0  0  0  0  0  0  0  0  0  0  0
  142.7800   71.3340  219.5840 C   0  0  0  0  0  0  0  0  0  0  0  0
  142.0330   74.6850  220.8570 N   0  0  0  0  0  0  0  0  0  0  0  0
  141.7790   77.4010  220.3620 C   0  0  0  0  0  0  0  0  0  0  0  0
  141.8250   78.8810  220.4130 C   0  0  0  0  0  0  0  0  0  0  0  0
  139.0790   80.9830  221.0930 H   0  0  0  0  0  0  0  0  0  0  0  0
  140.3690   81.3990  219.8950 H   0  0  0  0  0  0  0  0  0  0  0  0
  142.9647   79.7495  221.8508 H   0  0  0  0  0  0  0  0  0  0  0  0
  142.4708   78.0386  223.1933 H   0  0  0  0  0  0  0  0  0  0  0  0
  141.1970   79.2010  223.7349 H   0  0  0  0  0  0  0  0  0  0  0  0
  140.2028   76.9839  223.3748 H   0  0  0  0  0  0  0  0  0  0  0  0
  139.5730   78.1034  222.1654 H   0  0  0  0  0  0  0  0  0  0  0  0
  138.0430   72.9100  222.5470 H   0  0  0  0  0  0  0  0  0  0  0  0
  138.6416   71.1621  224.1688 H   0  0  0  0  0  0  0  0  0  0  0  0
  139.6251   70.6076  222.7585 H   0  0  0  0  0  0  0  0  0  0  0  0
  141.5553   71.5146  223.5640 H   0  0  0  0  0  0  0  0  0  0  0  0
  140.6926   72.8055  224.4802 H   0  0  0  0  0  0  0  0  0  0  0  0
  140.4364   69.1368  224.2746 H   0  0  0  0  0  0  0  0  0  0  0  0
  140.5064   67.6091  226.2214 H   0  0  0  0  0  0  0  0  0  0  0  0
  141.1724   70.9916  228.8175 H   0  0  0  0  0  0  0  0  0  0  0  0
  141.0919   72.4821  226.8316 H   0  0  0  0  0  0  0  0  0  0  0  0
  144.3375   74.2890  219.9658 H   0  0  0  0  0  0  0  0  0  0  0  0
  144.9295   73.0304  221.0918 H   0  0  0  0  0  0  0  0  0  0  0  0
  144.7023   72.8166  218.0521 H   0  0  0  0  0  0  0  0  0  0  0  0
  146.2142   72.9370  219.0124 H   0  0  0  0  0  0  0  0  0  0  0  0
  147.2911   70.7765  218.8611 H   0  0  0  0  0  0  0  0  0  0  0  0
  147.1267   68.3193  219.1949 H   0  0  0  0  0  0  0  0  0  0  0  0
  144.9598   67.2324  219.7111 H   0  0  0  0  0  0  0  0  0  0  0  0
  142.9243   68.6588  219.8907 H   0  0  0  0  0  0  0  0  0  0  0  0
  142.3642   71.4933  218.5781 H   0  0  0  0  0  0  0  0  0  0  0  0
  142.0519   70.8219  220.2302 H   0  0  0  0  0  0  0  0  0  0  0  0
  142.8134   77.0271  220.3485 H   0  0  0  0  0  0  0  0  0  0  0  0
  141.2106   77.1407  219.4570 H   0  0  0  0  0  0  0  0  0  0  0  0
  142.7108   79.2059  219.8475 H   0  0  0  0  0  0  0  0  0  0  0  0
  140.8632   79.2129  219.9950 H   0  0  0  0  0  0  0  0  0  0  0  0
  1  2  1  0
  2  3  2  0
  2  4  1  0
  4  5  1  0
  5  6  1  0
  6  7  1  0
  7  8  1  0
  8  9  2  0
  9 10  1  0
 10 11  1  0
 11 12  1  0
 12 13  1  0
 13 14  1  0
 14 15  2  0
 15 16  1  0
 16 17  2  0
 17 18  1  0
 17 19  1  0
 19 20  2  0
 10 21  2  0
 21 22  1  0
 22 23  1  0
 23 24  1  0
 24 25  1  0
 25 26  1  0
 26 27  2  0
 27 28  1  0
 28 29  2  0
 29 30  1  0
 30 31  2  0
 31 32  1  0
 22 33  2  0
  7 34  1  0
 34 35  1  0
 35  4  1  0
 33  8  1  0
 20 14  1  0
 32 23  1  0
 31 26  1  0
  1 36  1  0
  1 37  1  0
  4 38  1  0
  5 39  1  0
  5 40  1  0
  6 41  1  0
  6 42  1  0
 11 43  1  0
 12 44  1  0
 12 45  1  0
 13 46  1  0
 13 47  1  0
 15 48  1  0
 16 49  1  0
 19 50  1  0
 20 51  1  0
 24 52  1  0
 24 53  1  0
 25 54  1  0
 25 55  1  0
 27 56  1  0
 28 57  1  0
 29 58  1  0
 30 59  1  0
 32 60  1  0
 32 61  1  0
 34 62  1  0
 34 63  1  0
 35 64  1  0
 35 65  1  0
M  END
>  <smiles>  (29) 
NC(=O)C1CCN(c2nc(NCCc3ccc(Cl)cc3)nc(N3CCc4ccccc4C3)n2)CC1

>  <score_type>  (29) 
oracle

>  <origin>  (29) 
autodockgpu

>  <m_score__min__energy>  (29) 
-10.08

>  <m_primary>  (29) 
energy

>  <rmsd>  (29) 
9.953163687462055

>  <m_score__min__rmsd>  (29) 
9.953163687462055

>  <meeko>  (29) 
{"free_energy": -9.6, "intermolecular_energy": -11.68, "internal_energy": -1.13, "cluster_size": 5, "cluster_id": 2, "rank_in_cluster": 3}

>  <energy>  (29) 
-8.7

>  <cluster_rmsd>  (29) 
1.08

>  <cluster>  (29) 
6

$$$$

     RDKit          3D

 65 69  0  0  0  0  0  0  0  0999 V2000
  146.1600   73.7750  217.3410 N   0  0  0  0  0  0  0  0  0  0  0  0
  145.6130   72.4900  217.6110 C   0  0  0  0  0  0  0  0  0  0  0  0
  145.7290   71.5580  216.7780 O   0  0  0  0  0  0  0  0  0  0  0  0
  144.8890   72.2050  218.8780 C   0  0  0  0  0  0  0  0  0  0  0  0
  144.8210   73.4550  219.7090 C   0  0  0  0  0  0  0  0  0  0  0  0
  143.5370   74.2080  219.4490 C   0  0  0  0  0  0  0  0  0  0  0  0
  142.4760   73.3200  219.9190 N   0  0  0  0  0  0  0  0  0  0  0  0
  141.4270   73.7700  220.7700 C   0  0  0  0  0  0  0  0  0  0  0  0
  140.5310   72.9290  221.3190 N   0  0  0  0  0  0  0  0  0  0  0  0
  139.5830   73.4310  222.1030 C   0  0  0  0  0  0  0  0  0  0  0  0
  138.5910   72.5830  222.7240 N   0  0  0  0  0  0  0  0  0  0  0  0
  139.0900   71.4550  223.4600 C   0  0  0  0  0  0  0  0  0  0  0  0
  140.2680   71.8450  224.2960 C   0  0  0  0  0  0  0  0  0  0  0  0
  140.4460   70.8970  225.3980 C   0  0  0  0  0  0  0  0  0  0  0  0
  140.8330   71.4220  226.6330 C   0  0  0  0  0  0  0  0  0  0  0  0
  141.0430   70.6250  227.7380 C   0  0  0  0  0  0  0  0  0  0  0  0
  140.8580   69.2650  227.5970 C   0  0  0  0  0  0  0  0  0  0  0  0
  141.1150   68.2220  228.9760 Cl  0  0  0  0  0  0  0  0  0  0  0  0
  140.4800   68.6900  226.4120 C   0  0  0  0  0  0  0  0  0  0  0  0
  140.2830   69.5410  225.3310 C   0  0  0  0  0  0  0  0  0  0  0  0
  139.5300   74.7530  222.3350 N   0  0  0  0  0  0  0  0  0  0  0  0
  140.4150   75.6110  221.7950 C   0  0  0  0  0  0  0  0  0  0  0  0
  140.3270   77.0140  222.0640 N   0  0  0  0  0  0  0  0  0  0  0  0
  139.1470   77.5180  222.7230 C   0  0  0  0  0  0  0  0  0  0  0  0
  139.0350   78.9920  222.4410 C   0  0  0  0  0  0  0  0  0  0  0  0
  140.2740   79.6640  222.8590 C   0  0  0  0  0  0  0  0  0  0  0  0
  140.3030   80.8240  223.6210 C   0  0  0  0  0  0  0  0  0  0  0  0
  141.5340   81.3900  223.9690 C   0  0  0  0  0  0  0  0  0  0  0  0
  142.7310   80.8310  223.5800 C   0  0  0  0  0  0  0  0  0  0  0  0
  142.6880   79.6800  222.8250 C   0  0  0  0  0  0  0  0  0  0  0  0
  141.4740   79.1170  222.4770 C   0  0  0  0  0  0  0  0  0  0  0  0
  141.4320   77.8760  221.6630 C   0  0  0  0  0  0  0  0  0  0  0  0
  141.3650   75.1100  221.0110 N   0  0  0  0  0  0  0  0  0  0  0  0
  142.4670   71.9340  219.5200 C   0  0  0  0  0  0  0  0  0  0  0  0
  143.5970   71.5290  218.6510 C   0  0  0  0  0  0  0  0  0  0  0  0
  147.2040   73.9260  217.3740 H   0  0  0  0  0  0  0  0  0  0  0  0
  145.5520   74.6100  217.1000 H   0  0  0  0  0  0  0  0  0  0  0  0
  145.4541   71.4684  219.4680 H   0  0  0  0  0  0  0  0  0  0  0  0
  144.8691   73.1824  220.7736 H   0  0  0  0  0  0  0  0  0  0  0  0
  145.6682   74.1024  219.4387 H   0  0  0  0  0  0  0  0  0  0  0  0
  143.5243   75.1552  220.0081 H   0  0  0  0  0  0  0  0  0  0  0  0
  143.4181   74.4677  218.3867 H   0  0  0  0  0  0  0  0  0  0  0  0
  137.6170   72.8600  222.5840 H   0  0  0  0  0  0  0  0  0  0  0  0
  138.2941   71.0712  224.1152 H   0  0  0  0  0  0  0  0  0  0  0  0
  139.4054   70.6798  222.7462 H   0  0  0  0  0  0  0  0  0  0  0  0
  141.1724   71.8474  223.6698 H   0  0  0  0  0  0  0  0  0  0  0  0
  140.0948   72.8485  224.7120 H   0  0  0  0  0  0  0  0  0  0  0  0
  140.9751   72.5087  226.7272 H   0  0  0  0  0  0  0  0  0  0  0  0
  141.3483   71.0594  228.7014 H   0  0  0  0  0  0  0  0  0  0  0  0
  140.3387   67.6030  226.3204 H   0  0  0  0  0  0  0  0  0  0  0  0
  139.9797   69.1001  224.3700 H   0  0  0  0  0  0  0  0  0  0  0  0
  138.2569   76.9981  222.3390 H   0  0  0  0  0  0  0  0  0  0  0  0
  139.2185   77.3462  223.8071 H   0  0  0  0  0  0  0  0  0  0  0  0
  138.8778   79.1487  221.3636 H   0  0  0  0  0  0  0  0  0  0  0  0
  138.1840   79.4095  222.9990 H   0  0  0  0  0  0  0  0  0  0  0  0
  139.3645   81.2948  223.9489 H   0  0  0  0  0  0  0  0  0  0  0  0
  141.5463   82.3099  224.5719 H   0  0  0  0  0  0  0  0  0  0  0  0
  143.6902   81.2889  223.8631 H   0  0  0  0  0  0  0  0  0  0  0  0
  143.6248   79.2059  222.4969 H   0  0  0  0  0  0  0  0  0  0  0  0
  141.3087   78.1466  220.6040 H   0  0  0  0  0  0  0  0  0  0  0  0
  142.3729   77.3278  221.8188 H   0  0  0  0  0  0  0  0  0  0  0  0
  142.4965   71.3161  220.4296 H   0  0  0  0  0  0  0  0  0  0  0  0
  141.5527   71.7893  218.9258 H   0  0  0  0  0  0  0  0  0  0  0  0
  143.7566   70.4501  218.7945 H   0  0  0  0  0  0  0  0  0  0  0  0
  143.2956   71.8203  217.6340 H   0  0  0  0  0  0  0  0  0  0  0  0
  1  2  1  0
  2  3  2  0
  2  4  1  0
  4  5  1  0
  5  6  1  0
  6  7  1  0
  7  8  1  0
  8  9  2  0
  9 10  1  0
 10 11  1  0
 11 12  1  0
 12 13  1  0
 13 14  1  0
 14 15  2  0
 15 16  1  0
 16 17  2  0
 17 18  1  0
 17 19  1  0
 19 20  2  0
 10 21  2  0
 21 22  1  0
 22 23  1  0
 23 24  1  0
 24 25  1  0
 25 26  1  0
 26 27  2  0
 27 28  1  0
 28 29  2  0
 29 30  1  0
 30 31  2  0
 31 32  1  0
 22 33  2  0
  7 34  1  0
 34 35  1  0
 35  4  1  0
 33  8  1  0
 20 14  1  0
 32 23  1  0
 31 26  1  0
  1 36  1  0
  1 37  1  0
  4 38  1  0
  5 39  1  0
  5 40  1  0
  6 41  1  0
  6 42  1  0
 11 43  1  0
 12 44  1  0
 12 45  1  0
 13 46  1  0
 13 47  1  0
 15 48  1  0
 16 49  1  0
 19 50  1  0
 20 51  1  0
 24 52  1  0
 24 53  1  0
 25 54  1  0
 25 55  1  0
 27 56  1  0
 28 57  1  0
 29 58  1  0
 30 59  1  0
 32 60  1  0
 32 61  1  0
 34 62  1  0
 34 63  1  0
 35 64  1  0
 35 65  1  0
M  END
>  <smiles>  (30) 
NC(=O)C1CCN(c2nc(NCCc3ccc(Cl)cc3)nc(N3CCc4ccccc4C3)n2)CC1

>  <score_type>  (30) 
oracle

>  <origin>  (30) 
autodockgpu

>  <m_score__min__energy>  (30) 
-10.08

>  <m_primary>  (30) 
energy

>  <rmsd>  (30) 
5.544189970588779

>  <m_score__min__rmsd>  (30) 
5.544189970588779

>  <meeko>  (30) 
{"free_energy": -10.08, "intermolecular_energy": -12.17, "internal_energy": -1.09, "cluster_size": 11, "cluster_id": 1, "rank_in_cluster": 1}

>  <energy>  (30) 
-8.5

>  <cluster_rmsd>  (30) 
1.97

>  <cluster>  (30) 
6

$$$$

     RDKit          3D

 65 69  0  0  0  0  0  0  0  0999 V2000
  145.9630   70.4180  218.8380 N   0  0  0  0  0  0  0  0  0  0  0  0
  145.5840   71.7340  219.2230 C   0  0  0  0  0  0  0  0  0  0  0  0
  145.9420   72.7270  218.5430 O   0  0  0  0  0  0  0  0  0  0  0  0
  144.7570   71.9810  220.4330 C   0  0  0  0  0  0  0  0  0  0  0  0
  144.5210   73.4560  220.5880 C   0  0  0  0  0  0  0  0  0  0  0  0
  143.2220   73.8680  219.9350 C   0  0  0  0  0  0  0  0  0  0  0  0
  142.1810   73.1830  220.6980 N   0  0  0  0  0  0  0  0  0  0  0  0
  141.0230   73.8560  221.1810 C   0  0  0  0  0  0  0  0  0  0  0  0
  139.8460   73.2290  221.3620 N   0  0  0  0  0  0  0  0  0  0  0  0
  138.8140   73.9290  221.8180 C   0  0  0  0  0  0  0  0  0  0  0  0
  137.5230   73.3170  222.0340 N   0  0  0  0  0  0  0  0  0  0  0  0
  137.4770   72.2550  222.9990 C   0  0  0  0  0  0  0  0  0  0  0  0
  138.5750   71.2680  222.7560 C   0  0  0  0  0  0  0  0  0  0  0  0
  139.2490   70.9360  224.0130 C   0  0  0  0  0  0  0  0  0  0  0  0
  138.6940   69.9120  224.7830 C   0  0  0  0  0  0  0  0  0  0  0  0
  139.2340   69.5230  225.9890 C   0  0  0  0  0  0  0  0  0  0  0  0
  140.3620   70.1810  226.4340 C   0  0  0  0  0  0  0  0  0  0  0  0
  141.0750   69.7160  227.9600 Cl  0  0  0  0  0  0  0  0  0  0  0  0
  140.9520   71.1940  225.7260 C   0  0  0  0  0  0  0  0  0  0  0  0
  140.3660   71.5450  224.5150 C   0  0  0  0  0  0  0  0  0  0  0  0
  138.9550   75.2380  222.0890 N   0  0  0  0  0  0  0  0  0  0  0  0
  140.1220   75.8840  221.9150 C   0  0  0  0  0  0  0  0  0  0  0  0
  140.2340   77.2790  222.2140 N   0  0  0  0  0  0  0  0  0  0  0  0
  139.1470   77.9280  222.9040 C   0  0  0  0  0  0  0  0  0  0  0  0
  139.2370   79.4090  222.6540 C   0  0  0  0  0  0  0  0  0  0  0  0
  140.5650   79.8920  223.0630 C   0  0  0  0  0  0  0  0  0  0  0  0
  140.7660   81.0190  223.8480 C   0  0  0  0  0  0  0  0  0  0  0  0
  142.0690   81.3990  224.1860 C   0  0  0  0  0  0  0  0  0  0  0  0
  143.1700   80.6890  223.7640 C   0  0  0  0  0  0  0  0  0  0  0  0
  142.9560   79.5720  222.9870 C   0  0  0  0  0  0  0  0  0  0  0  0
  141.6700   79.1920  222.6490 C   0  0  0  0  0  0  0  0  0  0  0  0
  141.4430   77.9870  221.8100 C   0  0  0  0  0  0  0  0  0  0  0  0
  141.1560   75.1830  221.4590 N   0  0  0  0  0  0  0  0  0  0  0  0
  142.3060   71.7740  220.9830 C   0  0  0  0  0  0  0  0  0  0  0  0
  143.5420   71.1420  220.4680 C   0  0  0  0  0  0  0  0  0  0  0  0
  145.5150   69.9580  218.0010 H   0  0  0  0  0  0  0  0  0  0  0  0
  146.6960   69.8620  219.3670 H   0  0  0  0  0  0  0  0  0  0  0  0
  145.3086   71.6580  221.3283 H   0  0  0  0  0  0  0  0  0  0  0  0
  144.4794   73.7031  221.6591 H   0  0  0  0  0  0  0  0  0  0  0  0
  145.3455   73.9961  220.0997 H   0  0  0  0  0  0  0  0  0  0  0  0
  143.0892   74.9584  219.9925 H   0  0  0  0  0  0  0  0  0  0  0  0
  143.1939   73.6031  218.8677 H   0  0  0  0  0  0  0  0  0  0  0  0
  136.7510   73.6940  221.4790 H   0  0  0  0  0  0  0  0  0  0  0  0
  137.5901   72.6791  224.0076 H   0  0  0  0  0  0  0  0  0  0  0  0
  136.5109   71.7371  222.9074 H   0  0  0  0  0  0  0  0  0  0  0  0
  138.1494   70.3522  222.3198 H   0  0  0  0  0  0  0  0  0  0  0  0
  139.3068   71.7108  222.0643 H   0  0  0  0  0  0  0  0  0  0  0  0
  137.7943   69.3981  224.4137 H   0  0  0  0  0  0  0  0  0  0  0  0
  138.7800   68.7130  226.5788 H   0  0  0  0  0  0  0  0  0  0  0  0
  141.8503   71.7076  226.0991 H   0  0  0  0  0  0  0  0  0  0  0  0
  140.8250   72.3554  223.9297 H   0  0  0  0  0  0  0  0  0  0  0  0
  138.1872   77.5459  222.5261 H   0  0  0  0  0  0  0  0  0  0  0  0
  139.2112   77.7241  223.9830 H   0  0  0  0  0  0  0  0  0  0  0  0
  139.0866   79.6106  221.5831 H   0  0  0  0  0  0  0  0  0  0  0  0
  138.4611   79.9284  223.2356 H   0  0  0  0  0  0  0  0  0  0  0  0
  139.9073   81.6086  224.2015 H   0  0  0  0  0  0  0  0  0  0  0  0
  142.2185   82.2934  224.8087 H   0  0  0  0  0  0  0  0  0  0  0  0
  144.1878   81.0034  224.0384 H   0  0  0  0  0  0  0  0  0  0  0  0
  143.8125   78.9791  222.6335 H   0  0  0  0  0  0  0  0  0  0  0  0
  141.3428   78.2960  220.7591 H   0  0  0  0  0  0  0  0  0  0  0  0
  142.3003   77.3096  221.9369 H   0  0  0  0  0  0  0  0  0  0  0  0
  142.2843   71.6428  222.0749 H   0  0  0  0  0  0  0  0  0  0  0  0
  141.4688   71.2793  220.4689 H   0  0  0  0  0  0  0  0  0  0  0  0
  143.7585   70.2699  221.1025 H   0  0  0  0  0  0  0  0  0  0  0  0
  143.3262   70.9059  219.4155 H   0  0  0  0  0  0  0  0  0  0  0  0
  1  2  1  0
  2  3  2  0
  2  4  1  0
  4  5  1  0
  5  6  1  0
  6  7  1  0
  7  8  1  0
  8  9  2  0
  9 10  1  0
 10 11  1  0
 11 12  1  0
 12 13  1  0
 13 14  1  0
 14 15  2  0
 15 16  1  0
 16 17  2  0
 17 18  1  0
 17 19  1  0
 19 20  2  0
 10 21  2  0
 21 22  1  0
 22 23  1  0
 23 24  1  0
 24 25  1  0
 25 26  1  0
 26 27  2  0
 27 28  1  0
 28 29  2  0
 29 30  1  0
 30 31  2  0
 31 32  1  0
 22 33  2  0
  7 34  1  0
 34 35  1  0
 35  4  1  0
 33  8  1  0
 20 14  1  0
 32 23  1  0
 31 26  1  0
  1 36  1  0
  1 37  1  0
  4 38  1  0
  5 39  1  0
  5 40  1  0
  6 41  1  0
  6 42  1  0
 11 43  1  0
 12 44  1  0
 12 45  1  0
 13 46  1  0
 13 47  1  0
 15 48  1  0
 16 49  1  0
 19 50  1  0
 20 51  1  0
 24 52  1  0
 24 53  1  0
 25 54  1  0
 25 55  1  0
 27 56  1  0
 28 57  1  0
 29 58  1  0
 30 59  1  0
 32 60  1  0
 32 61  1  0
 34 62  1  0
 34 63  1  0
 35 64  1  0
 35 65  1  0
M  END
>  <smiles>  (31) 
NC(=O)C1CCN(c2nc(NCCc3ccc(Cl)cc3)nc(N3CCc4ccccc4C3)n2)CC1

>  <score_type>  (31) 
oracle

>  <origin>  (31) 
autodockgpu

>  <m_score__min__energy>  (31) 
-10.08

>  <m_primary>  (31) 
energy

>  <rmsd>  (31) 
5.79221900170372

>  <m_score__min__rmsd>  (31) 
5.79221900170372

>  <meeko>  (31) 
{"free_energy": -9.54, "intermolecular_energy": -11.63, "internal_energy": -1.28, "cluster_size": 11, "cluster_id": 1, "rank_in_cluster": 7}

>  <energy>  (31) 
-8.24

>  <cluster_rmsd>  (31) 
0.88

>  <cluster>  (31) 
6

$$$$

     RDKit          3D

 65 69  0  0  0  0  0  0  0  0999 V2000
  145.6560   74.1050  217.0450 N   0  0  0  0  0  0  0  0  0  0  0  0
  145.5760   73.0390  217.9850 C   0  0  0  0  0  0  0  0  0  0  0  0
  145.9490   71.8820  217.6730 O   0  0  0  0  0  0  0  0  0  0  0  0
  145.0510   73.2550  219.3590 C   0  0  0  0  0  0  0  0  0  0  0  0
  143.9630   74.2900  219.3240 C   0  0  0  0  0  0  0  0  0  0  0  0
  142.6040   73.6420  219.1870 C   0  0  0  0  0  0  0  0  0  0  0  0
  142.4270   72.8710  220.4170 N   0  0  0  0  0  0  0  0  0  0  0  0
  141.2360   72.9410  221.1950 C   0  0  0  0  0  0  0  0  0  0  0  0
  140.2990   73.8860  220.9960 N   0  0  0  0  0  0  0  0  0  0  0  0
  139.2150   73.8810  221.7650 C   0  0  0  0  0  0  0  0  0  0  0  0
  138.1710   74.8660  221.6040 N   0  0  0  0  0  0  0  0  0  0  0  0
  138.5810   76.2420  221.6710 C   0  0  0  0  0  0  0  0  0  0  0  0
  139.9480   76.4190  221.0900 C   0  0  0  0  0  0  0  0  0  0  0  0
  140.6810   77.4540  221.8210 C   0  0  0  0  0  0  0  0  0  0  0  0
  140.9700   78.6350  221.1330 C   0  0  0  0  0  0  0  0  0  0  0  0
  141.6660   79.6730  221.7140 C   0  0  0  0  0  0  0  0  0  0  0  0
  142.0820   79.5200  223.0210 C   0  0  0  0  0  0  0  0  0  0  0  0
  142.9670   80.8160  223.7920 Cl  0  0  0  0  0  0  0  0  0  0  0  0
  141.8300   78.3870  223.7470 C   0  0  0  0  0  0  0  0  0  0  0  0
  141.1250   77.3720  223.1110 C   0  0  0  0  0  0  0  0  0  0  0  0
  139.0710   72.9450  222.7190 N   0  0  0  0  0  0  0  0  0  0  0  0
  139.9970   71.9930  222.9340 C   0  0  0  0  0  0  0  0  0  0  0  0
  139.8090   71.0130  223.9610 N   0  0  0  0  0  0  0  0  0  0  0  0
  139.5590   69.6470  223.5740 C   0  0  0  0  0  0  0  0  0  0  0  0
  138.9010   68.9360  224.7260 C   0  0  0  0  0  0  0  0  0  0  0  0
  139.7450   69.0640  225.9230 C   0  0  0  0  0  0  0  0  0  0  0  0
  140.0760   67.9990  226.7500 C   0  0  0  0  0  0  0  0  0  0  0  0
  140.8870   68.2200  227.8680 C   0  0  0  0  0  0  0  0  0  0  0  0
  141.3760   69.4690  228.1810 C   0  0  0  0  0  0  0  0  0  0  0  0
  141.0400   70.5160  227.3510 C   0  0  0  0  0  0  0  0  0  0  0  0
  140.2380   70.3030  226.2460 C   0  0  0  0  0  0  0  0  0  0  0  0
  139.8790   71.4360  225.3540 C   0  0  0  0  0  0  0  0  0  0  0  0
  141.0810   71.9970  222.1640 N   0  0  0  0  0  0  0  0  0  0  0  0
  143.4800   72.0010  220.8790 C   0  0  0  0  0  0  0  0  0  0  0  0
  144.6960   71.9900  220.0330 C   0  0  0  0  0  0  0  0  0  0  0  0
  146.5930   74.5170  216.7880 H   0  0  0  0  0  0  0  0  0  0  0  0
  144.7960   74.5140  216.5780 H   0  0  0  0  0  0  0  0  0  0  0  0
  145.8477   73.6626  219.9987 H   0  0  0  0  0  0  0  0  0  0  0  0
  143.9912   74.8734  220.2561 H   0  0  0  0  0  0  0  0  0  0  0  0
  144.1289   74.9441  218.4553 H   0  0  0  0  0  0  0  0  0  0  0  0
  141.8187   74.4066  219.0935 H   0  0  0  0  0  0  0  0  0  0  0  0
  142.5362   73.0097  218.2895 H   0  0  0  0  0  0  0  0  0  0  0  0
  137.2290   74.4990  221.4560 H   0  0  0  0  0  0  0  0  0  0  0  0
  137.8666   76.8589  221.1061 H   0  0  0  0  0  0  0  0  0  0  0  0
  138.6042   76.5515  222.7263 H   0  0  0  0  0  0  0  0  0  0  0  0
  140.4973   75.4684  221.1586 H   0  0  0  0  0  0  0  0  0  0  0  0
  139.8525   76.7241  220.0375 H   0  0  0  0  0  0  0  0  0  0  0  0
  140.6305   78.7400  220.0920 H   0  0  0  0  0  0  0  0  0  0  0  0
  141.8831   80.5944  221.1537 H   0  0  0  0  0  0  0  0  0  0  0  0
  142.1705   78.2845  224.7879 H   0  0  0  0  0  0  0  0  0  0  0  0
  140.9129   76.4527  223.6766 H   0  0  0  0  0  0  0  0  0  0  0  0
  138.8953   69.6255  222.6971 H   0  0  0  0  0  0  0  0  0  0  0  0
  140.5055   69.1496  223.3158 H   0  0  0  0  0  0  0  0  0  0  0  0
  137.9163   69.3858  224.9211 H   0  0  0  0  0  0  0  0  0  0  0  0
  138.7735   67.8720  224.4775 H   0  0  0  0  0  0  0  0  0  0  0  0
  139.7030   66.9884  226.5275 H   0  0  0  0  0  0  0  0  0  0  0  0
  141.1422   67.3697  228.5175 H   0  0  0  0  0  0  0  0  0  0  0  0
  142.0133   69.6252  229.0639 H   0  0  0  0  0  0  0  0  0  0  0  0
  141.4124   71.5278  227.5692 H   0  0  0  0  0  0  0  0  0  0  0  0
  138.8993   71.8339  225.6571 H   0  0  0  0  0  0  0  0  0  0  0  0
  140.6577   72.2078  225.4433 H   0  0  0  0  0  0  0  0  0  0  0  0
  143.7701   72.3227  221.8901 H   0  0  0  0  0  0  0  0  0  0  0  0
  143.0727   70.9797  220.8471 H   0  0  0  0  0  0  0  0  0  0  0  0
  145.5439   71.7049  220.6732 H   0  0  0  0  0  0  0  0  0  0  0  0
  144.4737   71.2836  219.2196 H   0  0  0  0  0  0  0  0  0  0  0  0
  1  2  1  0
  2  3  2  0
  2  4  1  0
  4  5  1  0
  5  6  1  0
  6  7  1  0
  7  8  1  0
  8  9  2  0
  9 10  1  0
 10 11  1  0
 11 12  1  0
 12 13  1  0
 13 14  1  0
 14 15  2  0
 15 16  1  0
 16 17  2  0
 17 18  1  0
 17 19  1  0
 19 20  2  0
 10 21  2  0
 21 22  1  0
 22 23  1  0
 23 24  1  0
 24 25  1  0
 25 26  1  0
 26 27  2  0
 27 28  1  0
 28 29  2  0
 29 30  1  0
 30 31  2  0
 31 32  1  0
 22 33  2  0
  7 34  1  0
 34 35  1  0
 35  4  1  0
 33  8  1  0
 20 14  1  0
 32 23  1  0
 31 26  1  0
  1 36  1  0
  1 37  1  0
  4 38  1  0
  5 39  1  0
  5 40  1  0
  6 41  1  0
  6 42  1  0
 11 43  1  0
 12 44  1  0
 12 45  1  0
 13 46  1  0
 13 47  1  0
 15 48  1  0
 16 49  1  0
 19 50  1  0
 20 51  1  0
 24 52  1  0
 24 53  1  0
 25 54  1  0
 25 55  1  0
 27 56  1  0
 28 57  1  0
 29 58  1  0
 30 59  1  0
 32 60  1  0
 32 61  1  0
 34 62  1  0
 34 63  1  0
 35 64  1  0
 35 65  1  0
M  END
>  <smiles>  (32) 
NC(=O)C1CCN(c2nc(NCCc3ccc(Cl)cc3)nc(N3CCc4ccccc4C3)n2)CC1

>  <score_type>  (32) 
oracle

>  <origin>  (32) 
autodockgpu

>  <m_score__min__energy>  (32) 
-10.08

>  <m_primary>  (32) 
energy

>  <rmsd>  (32) 
11.476054442799185

>  <m_score__min__rmsd>  (32) 
11.476054442799185

>  <meeko>  (32) 
{"free_energy": -9.43, "intermolecular_energy": -11.52, "internal_energy": -0.83, "cluster_size": 9, "cluster_id": 3, "rank_in_cluster": 4}

>  <energy>  (32) 
-7.91

>  <cluster_rmsd>  (32) 
0.84

>  <cluster>  (32) 
6

$$$$

     RDKit          3D

 65 69  0  0  0  0  0  0  0  0999 V2000
  140.5630   68.9330  226.9350 N   0  0  0  0  0  0  0  0  0  0  0  0
  139.5720   68.8460  225.9190 C   0  0  0  0  0  0  0  0  0  0  0  0
  139.1610   67.7280  225.5210 O   0  0  0  0  0  0  0  0  0  0  0  0
  138.9890   70.0640  225.2960 C   0  0  0  0  0  0  0  0  0  0  0  0
  140.0260   71.1500  225.2530 C   0  0  0  0  0  0  0  0  0  0  0  0
  140.7620   71.1430  223.9330 C   0  0  0  0  0  0  0  0  0  0  0  0
  139.7480   71.4740  222.9330 N   0  0  0  0  0  0  0  0  0  0  0  0
  139.9590   72.4680  221.9350 C   0  0  0  0  0  0  0  0  0  0  0  0
  140.2470   72.1580  220.6570 N   0  0  0  0  0  0  0  0  0  0  0  0
  140.4280   73.1460  219.7870 C   0  0  0  0  0  0  0  0  0  0  0  0
  140.7410   72.8820  218.4010 N   0  0  0  0  0  0  0  0  0  0  0  0
  141.5730   71.7400  218.1440 C   0  0  0  0  0  0  0  0  0  0  0  0
  142.9060   72.1620  217.6120 C   0  0  0  0  0  0  0  0  0  0  0  0
  143.7970   72.5380  218.7120 C   0  0  0  0  0  0  0  0  0  0  0  0
  144.8920   71.7060  218.9570 C   0  0  0  0  0  0  0  0  0  0  0  0
  145.7890   71.9520  219.9730 C   0  0  0  0  0  0  0  0  0  0  0  0
  145.5810   73.0640  220.7630 C   0  0  0  0  0  0  0  0  0  0  0  0
  146.6990   73.4090  222.0620 Cl  0  0  0  0  0  0  0  0  0  0  0  0
  144.5260   73.9170  220.5730 C   0  0  0  0  0  0  0  0  0  0  0  0
  143.6520   73.6200  219.5340 C   0  0  0  0  0  0  0  0  0  0  0  0
  140.3230   74.4240  220.1880 N   0  0  0  0  0  0  0  0  0  0  0  0
  140.0360   74.7550  221.4600 C   0  0  0  0  0  0  0  0  0  0  0  0
  139.9330   76.1280  221.8500 N   0  0  0  0  0  0  0  0  0  0  0  0
  138.8670   76.5150  222.7410 C   0  0  0  0  0  0  0  0  0  0  0  0
  138.6390   77.9960  222.6000 C   0  0  0  0  0  0  0  0  0  0  0  0
  139.9010   78.7090  222.8480 C   0  0  0  0  0  0  0  0  0  0  0  0
  140.0120   79.8130  223.6820 C   0  0  0  0  0  0  0  0  0  0  0  0
  141.2580   80.4240  223.8560 C   0  0  0  0  0  0  0  0  0  0  0  0
  142.3910   79.9650  223.2230 C   0  0  0  0  0  0  0  0  0  0  0  0
  142.2670   78.8690  222.3980 C   0  0  0  0  0  0  0  0  0  0  0  0
  141.0380   78.2610  222.2230 C   0  0  0  0  0  0  0  0  0  0  0  0
  140.9090   77.0790  221.3320 C   0  0  0  0  0  0  0  0  0  0  0  0
  139.8540   73.7680  222.3310 N   0  0  0  0  0  0  0  0  0  0  0  0
  138.4820   70.7840  222.9350 C   0  0  0  0  0  0  0  0  0  0  0  0
  138.3230   69.7770  224.0100 C   0  0  0  0  0  0  0  0  0  0  0  0
  140.3200   68.7080  227.9370 H   0  0  0  0  0  0  0  0  0  0  0  0
  141.5630   69.2200  226.7280 H   0  0  0  0  0  0  0  0  0  0  0  0
  138.1672   70.4422  225.9218 H   0  0  0  0  0  0  0  0  0  0  0  0
  139.5325   72.1242  225.3847 H   0  0  0  0  0  0  0  0  0  0  0  0
  140.7520   70.9740  226.0604 H   0  0  0  0  0  0  0  0  0  0  0  0
  141.5645   71.8954  223.9337 H   0  0  0  0  0  0  0  0  0  0  0  0
  141.2401   70.1730  223.7315 H   0  0  0  0  0  0  0  0  0  0  0  0
  140.3420   73.5330  217.7220 H   0  0  0  0  0  0  0  0  0  0  0  0
  141.7189   71.1821  219.0807 H   0  0  0  0  0  0  0  0  0  0  0  0
  141.0788   71.1058  217.3933 H   0  0  0  0  0  0  0  0  0  0  0  0
  143.3535   71.3280  217.0516 H   0  0  0  0  0  0  0  0  0  0  0  0
  142.7685   73.0301  216.9505 H   0  0  0  0  0  0  0  0  0  0  0  0
  145.0431   70.8244  218.3168 H   0  0  0  0  0  0  0  0  0  0  0  0
  146.6442   71.2830  220.1490 H   0  0  0  0  0  0  0  0  0  0  0  0
  144.3772   74.7981  221.2145 H   0  0  0  0  0  0  0  0  0  0  0  0
  142.7978   74.2919  219.3642 H   0  0  0  0  0  0  0  0  0  0  0  0
  137.9477   75.9715  222.4774 H   0  0  0  0  0  0  0  0  0  0  0  0
  139.1379   76.2731  223.7793 H   0  0  0  0  0  0  0  0  0  0  0  0
  138.2857   78.2179  221.5822 H   0  0  0  0  0  0  0  0  0  0  0  0
  137.8824   78.3228  223.3285 H   0  0  0  0  0  0  0  0  0  0  0  0
  139.1258   80.2048  224.2027 H   0  0  0  0  0  0  0  0  0  0  0  0
  141.3350   81.2983  224.5191 H   0  0  0  0  0  0  0  0  0  0  0  0
  143.3635   80.4573  223.3712 H   0  0  0  0  0  0  0  0  0  0  0  0
  143.1512   78.4753  221.8753 H   0  0  0  0  0  0  0  0  0  0  0  0
  140.5873   77.4153  220.3353 H   0  0  0  0  0  0  0  0  0  0  0  0
  141.8865   76.5776  221.2774 H   0  0  0  0  0  0  0  0  0  0  0  0
  137.6845   71.5332  223.0477 H   0  0  0  0  0  0  0  0  0  0  0  0
  138.4294   70.2323  221.9848 H   0  0  0  0  0  0  0  0  0  0  0  0
  137.2465   69.6706  224.2094 H   0  0  0  0  0  0  0  0  0  0  0  0
  138.8137   68.8694  223.6285 H   0  0  0  0  0  0  0  0  0  0  0  0
  1  2  1  0
  2  3  2  0
  2  4  1  0
  4  5  1  0
  5  6  1  0
  6  7  1  0
  7  8  1  0
  8  9  2  0
  9 10  1  0
 10 11  1  0
 11 12  1  0
 12 13  1  0
 13 14  1  0
 14 15  2  0
 15 16  1  0
 16 17  2  0
 17 18  1  0
 17 19  1  0
 19 20  2  0
 10 21  2  0
 21 22  1  0
 22 23  1  0
 23 24  1  0
 24 25  1  0
 25 26  1  0
 26 27  2  0
 27 28  1  0
 28 29  2  0
 29 30  1  0
 30 31  2  0
 31 32  1  0
 22 33  2  0
  7 34  1  0
 34 35  1  0
 35  4  1  0
 33  8  1  0
 20 14  1  0
 32 23  1  0
 31 26  1  0
  1 36  1  0
  1 37  1  0
  4 38  1  0
  5 39  1  0
  5 40  1  0
  6 41  1  0
  6 42  1  0
 11 43  1  0
 12 44  1  0
 12 45  1  0
 13 46  1  0
 13 47  1  0
 15 48  1  0
 16 49  1  0
 19 50  1  0
 20 51  1  0
 24 52  1  0
 24 53  1  0
 25 54  1  0
 25 55  1  0
 27 56  1  0
 28 57  1  0
 29 58  1  0
 30 59  1  0
 32 60  1  0
 32 61  1  0
 34 62  1  0
 34 63  1  0
 35 64  1  0
 35 65  1  0
M  END
>  <smiles>  (33) 
NC(=O)C1CCN(c2nc(NCCc3ccc(Cl)cc3)nc(N3CCc4ccccc4C3)n2)CC1

>  <score_type>  (33) 
oracle

>  <origin>  (33) 
autodockgpu

>  <m_score__min__energy>  (33) 
-10.08

>  <m_primary>  (33) 
energy

>  <rmsd>  (33) 
5.3053326733234965

>  <m_score__min__rmsd>  (33) 
5.3053326733234965

>  <meeko>  (33) 
{"free_energy": -8.72, "intermolecular_energy": -10.81, "internal_energy": -1.5, "cluster_size": 11, "cluster_id": 7, "rank_in_cluster": 6}

>  <energy>  (33) 
-9.09

>  <cluster_rmsd>  (33) 
0.0

>  <cluster>  (33) 
7

$$$$

     RDKit          3D

 65 69  0  0  0  0  0  0  0  0999 V2000
  142.5050   79.0340  222.0890 N   0  0  0  0  0  0  0  0  0  0  0  0
  141.0960   79.0290  222.2890 C   0  0  0  0  0  0  0  0  0  0  0  0
  140.5550   79.8700  223.0470 O   0  0  0  0  0  0  0  0  0  0  0  0
  140.2200   78.0360  221.6130 C   0  0  0  0  0  0  0  0  0  0  0  0
  141.0620   77.0950  220.7990 C   0  0  0  0  0  0  0  0  0  0  0  0
  141.4130   75.8580  221.5930 C   0  0  0  0  0  0  0  0  0  0  0  0
  140.1350   75.1910  221.8380 N   0  0  0  0  0  0  0  0  0  0  0  0
  139.9440   73.8000  221.6000 C   0  0  0  0  0  0  0  0  0  0  0  0
  139.9090   73.2770  220.3600 N   0  0  0  0  0  0  0  0  0  0  0  0
  139.7280   71.9680  220.2250 C   0  0  0  0  0  0  0  0  0  0  0  0
  139.6790   71.3440  218.9230 N   0  0  0  0  0  0  0  0  0  0  0  0
  140.9350   70.8990  218.3850 C   0  0  0  0  0  0  0  0  0  0  0  0
  141.7600   70.2330  219.4410 C   0  0  0  0  0  0  0  0  0  0  0  0
  142.9420   71.0410  219.7480 C   0  0  0  0  0  0  0  0  0  0  0  0
  142.7440   72.1990  220.5030 C   0  0  0  0  0  0  0  0  0  0  0  0
  143.7790   73.0430  220.8410 C   0  0  0  0  0  0  0  0  0  0  0  0
  145.0470   72.7140  220.4100 C   0  0  0  0  0  0  0  0  0  0  0  0
  146.3870   73.7600  220.8190 Cl  0  0  0  0  0  0  0  0  0  0  0  0
  145.3060   71.5920  219.6660 C   0  0  0  0  0  0  0  0  0  0  0  0
  144.2240   70.7770  219.3540 C   0  0  0  0  0  0  0  0  0  0  0  0
  139.5830   71.1920  221.3130 N   0  0  0  0  0  0  0  0  0  0  0  0
  139.6150   71.6950  222.5610 C   0  0  0  0  0  0  0  0  0  0  0  0
  139.4570   70.8370  223.6950 N   0  0  0  0  0  0  0  0  0  0  0  0
  139.1980   69.4360  223.4720 C   0  0  0  0  0  0  0  0  0  0  0  0
  138.5730   68.8610  224.7140 C   0  0  0  0  0  0  0  0  0  0  0  0
  139.4500   69.1210  225.8660 C   0  0  0  0  0  0  0  0  0  0  0  0
  139.8050   68.1550  226.7980 C   0  0  0  0  0  0  0  0  0  0  0  0
  140.6470   68.4990  227.8610 C   0  0  0  0  0  0  0  0  0  0  0  0
  141.1420   69.7740  228.0180 C   0  0  0  0  0  0  0  0  0  0  0  0
  140.7820   70.7220  227.0850 C   0  0  0  0  0  0  0  0  0  0  0  0
  139.9500   70.3880  226.0330 C   0  0  0  0  0  0  0  0  0  0  0  0
  139.5650   71.4140  225.0300 C   0  0  0  0  0  0  0  0  0  0  0  0
  139.7970   73.0050  222.6970 N   0  0  0  0  0  0  0  0  0  0  0  0
  139.0130   75.9460  222.3380 C   0  0  0  0  0  0  0  0  0  0  0  0
  139.2750   77.3890  222.5450 C   0  0  0  0  0  0  0  0  0  0  0  0
  142.9570   79.7910  221.5090 H   0  0  0  0  0  0  0  0  0  0  0  0
  143.1390   78.2930  222.5080 H   0  0  0  0  0  0  0  0  0  0  0  0
  139.5561   78.5527  220.9043 H   0  0  0  0  0  0  0  0  0  0  0  0
  140.5028   76.7984  219.8994 H   0  0  0  0  0  0  0  0  0  0  0  0
  141.9938   77.6094  220.5212 H   0  0  0  0  0  0  0  0  0  0  0  0
  142.0852   75.2059  221.0160 H   0  0  0  0  0  0  0  0  0  0  0  0
  141.9379   76.1022  222.5283 H   0  0  0  0  0  0  0  0  0  0  0  0
  138.7530   71.2730  218.4960 H   0  0  0  0  0  0  0  0  0  0  0  0
  140.7454   70.1837  217.5711 H   0  0  0  0  0  0  0  0  0  0  0  0
  141.4857   71.7729  218.0066 H   0  0  0  0  0  0  0  0  0  0  0  0
  141.1554   70.1137  220.3522 H   0  0  0  0  0  0  0  0  0  0  0  0
  142.0854   69.2488  219.0728 H   0  0  0  0  0  0  0  0  0  0  0  0
  141.7262   72.4458  220.8395 H   0  0  0  0  0  0  0  0  0  0  0  0
  143.5997   73.9507  221.4359 H   0  0  0  0  0  0  0  0  0  0  0  0
  146.3248   71.3475  219.3308 H   0  0  0  0  0  0  0  0  0  0  0  0
  144.4094   69.8711  218.7582 H   0  0  0  0  0  0  0  0  0  0  0  0
  138.5105   69.3168  222.6216 H   0  0  0  0  0  0  0  0  0  0  0  0
  140.1378   68.9109  223.2459 H   0  0  0  0  0  0  0  0  0  0  0  0
  137.5937   69.3322  224.8842 H   0  0  0  0  0  0  0  0  0  0  0  0
  138.4397   67.7761  224.5905 H   0  0  0  0  0  0  0  0  0  0  0  0
  139.4269   67.1266  226.7013 H   0  0  0  0  0  0  0  0  0  0  0  0
  140.9221   67.7266  228.5943 H   0  0  0  0  0  0  0  0  0  0  0  0
  141.8028   70.0275  228.8601 H   0  0  0  0  0  0  0  0  0  0  0  0
  141.1592   71.7511  227.1780 H   0  0  0  0  0  0  0  0  0  0  0  0
  138.5935   71.8451  225.3135 H   0  0  0  0  0  0  0  0  0  0  0  0
  140.3448   72.1896  225.0105 H   0  0  0  0  0  0  0  0  0  0  0  0
  138.1873   75.8485  221.6178 H   0  0  0  0  0  0  0  0  0  0  0  0
  138.7780   75.5298  223.3287 H   0  0  0  0  0  0  0  0  0  0  0  0
  138.3133   77.9166  222.4629 H   0  0  0  0  0  0  0  0  0  0  0  0
  139.7551   77.4549  223.5325 H   0  0  0  0  0  0  0  0  0  0  0  0
  1  2  1  0
  2  3  2  0
  2  4  1  0
  4  5  1  0
  5  6  1  0
  6  7  1  0
  7  8  1  0
  8  9  2  0
  9 10  1  0
 10 11  1  0
 11 12  1  0
 12 13  1  0
 13 14  1  0
 14 15  2  0
 15 16  1  0
 16 17  2  0
 17 18  1  0
 17 19  1  0
 19 20  2  0
 10 21  2  0
 21 22  1  0
 22 23  1  0
 23 24  1  0
 24 25  1  0
 25 26  1  0
 26 27  2  0
 27 28  1  0
 28 29  2  0
 29 30  1  0
 30 31  2  0
 31 32  1  0
 22 33  2  0
  7 34  1  0
 34 35  1  0
 35  4  1  0
 33  8  1  0
 20 14  1  0
 32 23  1  0
 31 26  1  0
  1 36  1  0
  1 37  1  0
  4 38  1  0
  5 39  1  0
  5 40  1  0
  6 41  1  0
  6 42  1  0
 11 43  1  0
 12 44  1  0
 12 45  1  0
 13 46  1  0
 13 47  1  0
 15 48  1  0
 16 49  1  0
 19 50  1  0
 20 51  1  0
 24 52  1  0
 24 53  1  0
 25 54  1  0
 25 55  1  0
 27 56  1  0
 28 57  1  0
 29 58  1  0
 30 59  1  0
 32 60  1  0
 32 61  1  0
 34 62  1  0
 34 63  1  0
 35 64  1  0
 35 65  1  0
M  END
>  <smiles>  (34) 
NC(=O)C1CCN(c2nc(NCCc3ccc(Cl)cc3)nc(N3CCc4ccccc4C3)n2)CC1

>  <score_type>  (34) 
oracle

>  <origin>  (34) 
autodockgpu

>  <m_score__min__energy>  (34) 
-10.08

>  <m_primary>  (34) 
energy

>  <rmsd>  (34) 
11.34987588240153

>  <m_score__min__rmsd>  (34) 
11.34987588240153

>  <meeko>  (34) 
{"free_energy": -9.17, "intermolecular_energy": -11.26, "internal_energy": -1.6, "cluster_size": 5, "cluster_id": 6, "rank_in_cluster": 1}

>  <energy>  (34) 
-8.88

>  <cluster_rmsd>  (34) 
1.57

>  <cluster>  (34) 
7

$$$$

     RDKit          3D

 65 69  0  0  0  0  0  0  0  0999 V2000
  146.2140   73.7650  217.1580 N   0  0  0  0  0  0  0  0  0  0  0  0
  145.6320   72.4900  217.4000 C   0  0  0  0  0  0  0  0  0  0  0  0
  145.5370   71.6450  216.4760 O   0  0  0  0  0  0  0  0  0  0  0  0
  145.1190   72.1140  218.7440 C   0  0  0  0  0  0  0  0  0  0  0  0
  144.8460   73.3560  219.5420 C   0  0  0  0  0  0  0  0  0  0  0  0
  143.4040   73.7850  219.3990 C   0  0  0  0  0  0  0  0  0  0  0  0
  142.6260   72.7050  220.0030 N   0  0  0  0  0  0  0  0  0  0  0  0
  141.5880   72.9490  220.9470 C   0  0  0  0  0  0  0  0  0  0  0  0
  140.9740   74.1410  221.0520 N   0  0  0  0  0  0  0  0  0  0  0  0
  140.0140   74.2860  221.9590 C   0  0  0  0  0  0  0  0  0  0  0  0
  139.3150   75.5400  222.1240 N   0  0  0  0  0  0  0  0  0  0  0  0
  139.4860   76.5060  221.0750 C   0  0  0  0  0  0  0  0  0  0  0  0
  140.9350   76.8190  220.8720 C   0  0  0  0  0  0  0  0  0  0  0  0
  141.3070   78.0180  221.6260 C   0  0  0  0  0  0  0  0  0  0  0  0
  141.1630   77.9670  223.0150 C   0  0  0  0  0  0  0  0  0  0  0  0
  141.4680   79.0380  223.8260 C   0  0  0  0  0  0  0  0  0  0  0  0
  141.9320   80.1910  223.2260 C   0  0  0  0  0  0  0  0  0  0  0  0
  142.3300   81.5710  224.2220 Cl  0  0  0  0  0  0  0  0  0  0  0  0
  142.0940   80.3030  221.8700 C   0  0  0  0  0  0  0  0  0  0  0  0
  141.7700   79.1920  221.1000 C   0  0  0  0  0  0  0  0  0  0  0  0
  139.6730   73.2540  222.7490 N   0  0  0  0  0  0  0  0  0  0  0  0
  140.2740   72.0540  222.6610 C   0  0  0  0  0  0  0  0  0  0  0  0
  139.8850   70.9780  223.5200 N   0  0  0  0  0  0  0  0  0  0  0  0
  139.3490   69.7790  222.9260 C   0  0  0  0  0  0  0  0  0  0  0  0
  138.5570   69.0390  223.9700 C   0  0  0  0  0  0  0  0  0  0  0  0
  139.4120   68.7850  225.1400 C   0  0  0  0  0  0  0  0  0  0  0  0
  139.5100   67.5520  225.7690 C   0  0  0  0  0  0  0  0  0  0  0  0
  140.3530   67.4070  226.8760 C   0  0  0  0  0  0  0  0  0  0  0  0
  141.0960   68.4560  227.3700 C   0  0  0  0  0  0  0  0  0  0  0  0
  140.9890   69.6740  226.7360 C   0  0  0  0  0  0  0  0  0  0  0  0
  140.1580   69.8220  225.6410 C   0  0  0  0  0  0  0  0  0  0  0  0
  140.0460   71.1370  224.9600 C   0  0  0  0  0  0  0  0  0  0  0  0
  141.2350   71.9080  221.7520 N   0  0  0  0  0  0  0  0  0  0  0  0
  142.8980   71.3340  219.6450 C   0  0  0  0  0  0  0  0  0  0  0  0
  144.0010   71.1520  218.6730 C   0  0  0  0  0  0  0  0  0  0  0  0
  147.2560   73.8570  217.0180 H   0  0  0  0  0  0  0  0  0  0  0  0
  145.6340   74.6520  217.1080 H   0  0  0  0  0  0  0  0  0  0  0  0
  145.8926   71.5557  219.2916 H   0  0  0  0  0  0  0  0  0  0  0  0
  145.0584   73.1562  220.6026 H   0  0  0  0  0  0  0  0  0  0  0  0
  145.4911   74.1636  219.1655 H   0  0  0  0  0  0  0  0  0  0  0  0
  143.2280   74.7320  219.9301 H   0  0  0  0  0  0  0  0  0  0  0  0
  143.1263   73.9566  218.3485 H   0  0  0  0  0  0  0  0  0  0  0  0
  138.7580   75.6320  222.9770 H   0  0  0  0  0  0  0  0  0  0  0  0
  139.0701   76.1011  220.1406 H   0  0  0  0  0  0  0  0  0  0  0  0
  138.9619   77.4307  221.3583 H   0  0  0  0  0  0  0  0  0  0  0  0
  141.5417   75.9695  221.2189 H   0  0  0  0  0  0  0  0  0  0  0  0
  141.1154   76.9992  219.8020 H   0  0  0  0  0  0  0  0  0  0  0  0
  140.7933   77.0396  223.4768 H   0  0  0  0  0  0  0  0  0  0  0  0
  141.3456   78.9761  224.9174 H   0  0  0  0  0  0  0  0  0  0  0  0
  142.4642   81.2315  221.4108 H   0  0  0  0  0  0  0  0  0  0  0  0
  141.8927   79.2610  220.0091 H   0  0  0  0  0  0  0  0  0  0  0  0
  138.6942   70.0439  222.0828 H   0  0  0  0  0  0  0  0  0  0  0  0
  140.1677   69.1446  222.5555 H   0  0  0  0  0  0  0  0  0  0  0  0
  137.6909   69.6459  224.2727 H   0  0  0  0  0  0  0  0  0  0  0  0
  138.2054   68.0824  223.5561 H   0  0  0  0  0  0  0  0  0  0  0  0
  138.9287   66.6943  225.3996 H   0  0  0  0  0  0  0  0  0  0  0  0
  140.4245   66.4252  227.3668 H   0  0  0  0  0  0  0  0  0  0  0  0
  141.7533   68.3254  228.2423 H   0  0  0  0  0  0  0  0  0  0  0  0
  141.5682   70.5342  227.1030 H   0  0  0  0  0  0  0  0  0  0  0  0
  139.1737   71.6744  225.3605 H   0  0  0  0  0  0  0  0  0  0  0  0
  140.9713   71.7025  225.1446 H   0  0  0  0  0  0  0  0  0  0  0  0
  143.1570   70.7858  220.5628 H   0  0  0  0  0  0  0  0  0  0  0  0
  141.9885   70.9560  219.1551 H   0  0  0  0  0  0  0  0  0  0  0  0
  144.4179   70.1459  218.8279 H   0  0  0  0  0  0  0  0  0  0  0  0
  143.5437   71.3159  217.6861 H   0  0  0  0  0  0  0  0  0  0  0  0
  1  2  1  0
  2  3  2  0
  2  4  1  0
  4  5  1  0
  5  6  1  0
  6  7  1  0
  7  8  1  0
  8  9  2  0
  9 10  1  0
 10 11  1  0
 11 12  1  0
 12 13  1  0
 13 14  1  0
 14 15  2  0
 15 16  1  0
 16 17  2  0
 17 18  1  0
 17 19  1  0
 19 20  2  0
 10 21  2  0
 21 22  1  0
 22 23  1  0
 23 24  1  0
 24 25  1  0
 25 26  1  0
 26 27  2  0
 27 28  1  0
 28 29  2  0
 29 30  1  0
 30 31  2  0
 31 32  1  0
 22 33  2  0
  7 34  1  0
 34 35  1  0
 35  4  1  0
 33  8  1  0
 20 14  1  0
 32 23  1  0
 31 26  1  0
  1 36  1  0
  1 37  1  0
  4 38  1  0
  5 39  1  0
  5 40  1  0
  6 41  1  0
  6 42  1  0
 11 43  1  0
 12 44  1  0
 12 45  1  0
 13 46  1  0
 13 47  1  0
 15 48  1  0
 16 49  1  0
 19 50  1  0
 20 51  1  0
 24 52  1  0
 24 53  1  0
 25 54  1  0
 25 55  1  0
 27 56  1  0
 28 57  1  0
 29 58  1  0
 30 59  1  0
 32 60  1  0
 32 61  1  0
 34 62  1  0
 34 63  1  0
 35 64  1  0
 35 65  1  0
M  END
>  <smiles>  (35) 
NC(=O)C1CCN(c2nc(NCCc3ccc(Cl)cc3)nc(N3CCc4ccccc4C3)n2)CC1

>  <score_type>  (35) 
oracle

>  <origin>  (35) 
autodockgpu

>  <m_score__min__energy>  (35) 
-10.08

>  <m_primary>  (35) 
energy

>  <rmsd>  (35) 
11.464605763961792

>  <m_score__min__rmsd>  (35) 
11.464605763961792

>  <meeko>  (35) 
{"free_energy": -9.69, "intermolecular_energy": -11.78, "internal_energy": -0.92, "cluster_size": 9, "cluster_id": 3, "rank_in_cluster": 1}

>  <energy>  (35) 
-8.87

>  <cluster_rmsd>  (35) 
1.58

>  <cluster>  (35) 
7

$$$$

     RDKit          3D

 65 69  0  0  0  0  0  0  0  0999 V2000
  142.8000   80.4590  222.1450 N   0  0  0  0  0  0  0  0  0  0  0  0
  141.7910   80.2390  221.1660 C   0  0  0  0  0  0  0  0  0  0  0  0
  141.7030   80.9850  220.1600 O   0  0  0  0  0  0  0  0  0  0  0  0
  140.8130   79.1270  221.2970 C   0  0  0  0  0  0  0  0  0  0  0  0
  140.9650   78.1850  220.1370 C   0  0  0  0  0  0  0  0  0  0  0  0
  141.9050   77.0520  220.4790 C   0  0  0  0  0  0  0  0  0  0  0  0
  141.2340   76.3140  221.5490 N   0  0  0  0  0  0  0  0  0  0  0  0
  141.0940   74.8980  221.5250 C   0  0  0  0  0  0  0  0  0  0  0  0
  140.0380   74.2670  222.0700 N   0  0  0  0  0  0  0  0  0  0  0  0
  139.9830   72.9420  222.0050 C   0  0  0  0  0  0  0  0  0  0  0  0
  138.8770   72.2040  222.5710 N   0  0  0  0  0  0  0  0  0  0  0  0
  138.6380   70.8980  222.0220 C   0  0  0  0  0  0  0  0  0  0  0  0
  139.5520   69.8860  222.6400 C   0  0  0  0  0  0  0  0  0  0  0  0
  139.9010   70.2820  224.0050 C   0  0  0  0  0  0  0  0  0  0  0  0
  139.1600   69.7130  225.0430 C   0  0  0  0  0  0  0  0  0  0  0  0
  139.3900   70.0220  226.3660 C   0  0  0  0  0  0  0  0  0  0  0  0
  140.3910   70.9250  226.6540 C   0  0  0  0  0  0  0  0  0  0  0  0
  140.7130   71.3410  228.3210 Cl  0  0  0  0  0  0  0  0  0  0  0  0
  141.1520   71.5180  225.6810 C   0  0  0  0  0  0  0  0  0  0  0  0
  140.8770   71.1700  224.3640 C   0  0  0  0  0  0  0  0  0  0  0  0
  140.9690   72.2560  221.4020 N   0  0  0  0  0  0  0  0  0  0  0  0
  142.0340   72.8660  220.8510 C   0  0  0  0  0  0  0  0  0  0  0  0
  143.0650   72.1020  220.2180 N   0  0  0  0  0  0  0  0  0  0  0  0
  144.4080   72.6250  220.2140 C   0  0  0  0  0  0  0  0  0  0  0  0
  145.1760   71.9630  219.1020 C   0  0  0  0  0  0  0  0  0  0  0  0
  145.1150   70.5030  219.2700 C   0  0  0  0  0  0  0  0  0  0  0  0
  146.2220   69.6700  219.1900 C   0  0  0  0  0  0  0  0  0  0  0  0
  146.0630   68.2920  219.3640 C   0  0  0  0  0  0  0  0  0  0  0  0
  144.8330   67.7250  219.6160 C   0  0  0  0  0  0  0  0  0  0  0  0
  143.7430   68.5630  219.6930 C   0  0  0  0  0  0  0  0  0  0  0  0
  143.8950   69.9260  219.5210 C   0  0  0  0  0  0  0  0  0  0  0  0
  142.7160   70.8260  219.6050 C   0  0  0  0  0  0  0  0  0  0  0  0
  142.0890   74.1930  220.9160 N   0  0  0  0  0  0  0  0  0  0  0  0
  140.6870   77.0230  222.6800 C   0  0  0  0  0  0  0  0  0  0  0  0
  140.8520   78.4950  222.6310 C   0  0  0  0  0  0  0  0  0  0  0  0
  143.8080   80.2270  221.9310 H   0  0  0  0  0  0  0  0  0  0  0  0
  142.5820   80.8570  223.1030 H   0  0  0  0  0  0  0  0  0  0  0  0
  139.7899   79.5271  221.2410 H   0  0  0  0  0  0  0  0  0  0  0  0
  139.9796   77.7695  219.8795 H   0  0  0  0  0  0  0  0  0  0  0  0
  141.3828   78.7421  219.2855 H   0  0  0  0  0  0  0  0  0  0  0  0
  142.0649   76.4047  219.6041 H   0  0  0  0  0  0  0  0  0  0  0  0
  142.8964   77.4159  220.7866 H   0  0  0  0  0  0  0  0  0  0  0  0
  138.3590   72.6760  223.3140 H   0  0  0  0  0  0  0  0  0  0  0  0
  137.5949   70.6095  222.2187 H   0  0  0  0  0  0  0  0  0  0  0  0
  138.8287   70.9305  220.9391 H   0  0  0  0  0  0  0  0  0  0  0  0
  139.0479   68.9086  222.6636 H   0  0  0  0  0  0  0  0  0  0  0  0
  140.4719   69.8218  222.0402 H   0  0  0  0  0  0  0  0  0  0  0  0
  138.3655   68.9935  224.7960 H   0  0  0  0  0  0  0  0  0  0  0  0
  138.7933   69.5623  227.1676 H   0  0  0  0  0  0  0  0  0  0  0  0
  141.9454   72.2376  225.9313 H   0  0  0  0  0  0  0  0  0  0  0  0
  141.4769   71.6339  223.5672 H   0  0  0  0  0  0  0  0  0  0  0  0
  144.3820   73.7125  220.0506 H   0  0  0  0  0  0  0  0  0  0  0  0
  144.8939   72.4222  221.1798 H   0  0  0  0  0  0  0  0  0  0  0  0
  144.7330   72.2401  218.1340 H   0  0  0  0  0  0  0  0  0  0  0  0
  146.2248   72.2934  219.1315 H   0  0  0  0  0  0  0  0  0  0  0  0
  147.2184   70.0913  218.9909 H   0  0  0  0  0  0  0  0  0  0  0  0
  146.9469   67.6406  219.2977 H   0  0  0  0  0  0  0  0  0  0  0  0
  144.7251   66.6387  219.7512 H   0  0  0  0  0  0  0  0  0  0  0  0
  142.7452   68.1451  219.8926 H   0  0  0  0  0  0  0  0  0  0  0  0
  142.3322   71.0091  218.5905 H   0  0  0  0  0  0  0  0  0  0  0  0
  141.9518   70.3391  220.2287 H   0  0  0  0  0  0  0  0  0  0  0  0
  139.6110   76.8011  222.7349 H   0  0  0  0  0  0  0  0  0  0  0  0
  141.2474   76.6782  223.5615 H   0  0  0  0  0  0  0  0  0  0  0  0
  140.0464   78.9401  223.2334 H   0  0  0  0  0  0  0  0  0  0  0  0
  141.8682   78.6826  223.0079 H   0  0  0  0  0  0  0  0  0  0  0  0
  1  2  1  0
  2  3  2  0
  2  4  1  0
  4  5  1  0
  5  6  1  0
  6  7  1  0
  7  8  1  0
  8  9  2  0
  9 10  1  0
 10 11  1  0
 11 12  1  0
 12 13  1  0
 13 14  1  0
 14 15  2  0
 15 16  1  0
 16 17  2  0
 17 18  1  0
 17 19  1  0
 19 20  2  0
 10 21  2  0
 21 22  1  0
 22 23  1  0
 23 24  1  0
 24 25  1  0
 25 26  1  0
 26 27  2  0
 27 28  1  0
 28 29  2  0
 29 30  1  0
 30 31  2  0
 31 32  1  0
 22 33  2  0
  7 34  1  0
 34 35  1  0
 35  4  1  0
 33  8  1  0
 20 14  1  0
 32 23  1  0
 31 26  1  0
  1 36  1  0
  1 37  1  0
  4 38  1  0
  5 39  1  0
  5 40  1  0
  6 41  1  0
  6 42  1  0
 11 43  1  0
 12 44  1  0
 12 45  1  0
 13 46  1  0
 13 47  1  0
 15 48  1  0
 16 49  1  0
 19 50  1  0
 20 51  1  0
 24 52  1  0
 24 53  1  0
 25 54  1  0
 25 55  1  0
 27 56  1  0
 28 57  1  0
 29 58  1  0
 30 59  1  0
 32 60  1  0
 32 61  1  0
 34 62  1  0
 34 63  1  0
 35 64  1  0
 35 65  1  0
M  END
>  <smiles>  (36) 
NC(=O)C1CCN(c2nc(NCCc3ccc(Cl)cc3)nc(N3CCc4ccccc4C3)n2)CC1

>  <score_type>  (36) 
oracle

>  <origin>  (36) 
autodockgpu

>  <m_score__min__energy>  (36) 
-10.08

>  <m_primary>  (36) 
energy

>  <rmsd>  (36) 
10.373455306918558

>  <m_score__min__rmsd>  (36) 
10.373455306918558

>  <meeko>  (36) 
{"free_energy": -9.35, "intermolecular_energy": -11.44, "internal_energy": -1.34, "cluster_size": 5, "cluster_id": 2, "rank_in_cluster": 4}

>  <energy>  (36) 
-8.86

>  <cluster_rmsd>  (36) 
1.64

>  <cluster>  (36) 
7

$$$$

     RDKit          3D

 65 69  0  0  0  0  0  0  0  0999 V2000
  145.4100   71.0940  216.9320 N   0  0  0  0  0  0  0  0  0  0  0  0
  145.5750   72.0710  217.9530 C   0  0  0  0  0  0  0  0  0  0  0  0
  146.3160   73.0670  217.7700 O   0  0  0  0  0  0  0  0  0  0  0  0
  144.8820   71.9490  219.2620 C   0  0  0  0  0  0  0  0  0  0  0  0
  144.6990   73.3140  219.8620 C   0  0  0  0  0  0  0  0  0  0  0  0
  143.3500   73.8900  219.4960 C   0  0  0  0  0  0  0  0  0  0  0  0
  142.3760   73.0050  220.1320 N   0  0  0  0  0  0  0  0  0  0  0  0
  141.2900   73.5000  220.9090 C   0  0  0  0  0  0  0  0  0  0  0  0
  140.3460   72.6940  221.4280 N   0  0  0  0  0  0  0  0  0  0  0  0
  139.3660   73.2360  222.1420 C   0  0  0  0  0  0  0  0  0  0  0  0
  138.3210   72.4270  222.7260 N   0  0  0  0  0  0  0  0  0  0  0  0
  138.2390   71.0680  222.2670 C   0  0  0  0  0  0  0  0  0  0  0  0
  139.4520   70.2940  222.6760 C   0  0  0  0  0  0  0  0  0  0  0  0
  139.7600   70.5380  224.0860 C   0  0  0  0  0  0  0  0  0  0  0  0
  140.6850   71.5450  224.3710 C   0  0  0  0  0  0  0  0  0  0  0  0
  141.0630   71.8540  225.6600 C   0  0  0  0  0  0  0  0  0  0  0  0
  140.4940   71.1340  226.6900 C   0  0  0  0  0  0  0  0  0  0  0  0
  140.9470   71.4980  228.3380 Cl  0  0  0  0  0  0  0  0  0  0  0  0
  139.5810   70.1360  226.4750 C   0  0  0  0  0  0  0  0  0  0  0  0
  139.2370   69.8650  225.1560 C   0  0  0  0  0  0  0  0  0  0  0  0
  139.3290   74.5660  222.3340 N   0  0  0  0  0  0  0  0  0  0  0  0
  140.2630   75.3900  221.8240 C   0  0  0  0  0  0  0  0  0  0  0  0
  140.1900   76.8010  222.0500 N   0  0  0  0  0  0  0  0  0  0  0  0
  139.0130   77.3400  222.6840 C   0  0  0  0  0  0  0  0  0  0  0  0
  138.9210   78.8060  222.3560 C   0  0  0  0  0  0  0  0  0  0  0  0
  140.1660   79.4750  222.7640 C   0  0  0  0  0  0  0  0  0  0  0  0
  140.2040   80.6560  223.4900 C   0  0  0  0  0  0  0  0  0  0  0  0
  141.4390   81.2170  223.8320 C   0  0  0  0  0  0  0  0  0  0  0  0
  142.6320   80.6320  223.4700 C   0  0  0  0  0  0  0  0  0  0  0  0
  142.5790   79.4590  222.7490 C   0  0  0  0  0  0  0  0  0  0  0  0
  141.3610   78.9010  222.4090 C   0  0  0  0  0  0  0  0  0  0  0  0
  141.3100   77.6360  221.6310 C   0  0  0  0  0  0  0  0  0  0  0  0
  141.2440   74.8470  221.1100 N   0  0  0  0  0  0  0  0  0  0  0  0
  142.4960   71.5750  219.9830 C   0  0  0  0  0  0  0  0  0  0  0  0
  143.6580   71.1280  219.1800 C   0  0  0  0  0  0  0  0  0  0  0  0
  144.8380   71.3140  216.0720 H   0  0  0  0  0  0  0  0  0  0  0  0
  145.8470   70.1290  216.9950 H   0  0  0  0  0  0  0  0  0  0  0  0
  145.5138   71.3825  219.9619 H   0  0  0  0  0  0  0  0  0  0  0  0
  144.7729   73.2386  220.9569 H   0  0  0  0  0  0  0  0  0  0  0  0
  145.4824   73.9781  219.4678 H   0  0  0  0  0  0  0  0  0  0  0  0
  143.2500   74.9155  219.8812 H   0  0  0  0  0  0  0  0  0  0  0  0
  143.2068   73.9475  218.4069 H   0  0  0  0  0  0  0  0  0  0  0  0
  137.7290   72.8920  223.4170 H   0  0  0  0  0  0  0  0  0  0  0  0
  137.3460   70.5943  222.7008 H   0  0  0  0  0  0  0  0  0  0  0  0
  138.1766   71.0704  221.1688 H   0  0  0  0  0  0  0  0  0  0  0  0
  139.2648   69.2205  222.5262 H   0  0  0  0  0  0  0  0  0  0  0  0
  140.3059   70.6173  222.0625 H   0  0  0  0  0  0  0  0  0  0  0  0
  141.1271   72.1111  223.5379 H   0  0  0  0  0  0  0  0  0  0  0  0
  141.7954   72.6497  225.8611 H   0  0  0  0  0  0  0  0  0  0  0  0
  139.1390   69.5732  227.3104 H   0  0  0  0  0  0  0  0  0  0  0  0
  138.5053   69.0669  224.9621 H   0  0  0  0  0  0  0  0  0  0  0  0
  138.1190   76.8195  222.3099 H   0  0  0  0  0  0  0  0  0  0  0  0
  139.0755   77.2014  223.7734 H   0  0  0  0  0  0  0  0  0  0  0  0
  138.7743   78.9317  221.2731 H   0  0  0  0  0  0  0  0  0  0  0  0
  138.0706   79.2510  222.8934 H   0  0  0  0  0  0  0  0  0  0  0  0
  139.2689   81.1485  223.7950 H   0  0  0  0  0  0  0  0  0  0  0  0
  141.4578   82.1541  224.4077 H   0  0  0  0  0  0  0  0  0  0  0  0
  143.5949   81.0859  223.7471 H   0  0  0  0  0  0  0  0  0  0  0  0
  143.5119   78.9635  222.4420 H   0  0  0  0  0  0  0  0  0  0  0  0
  141.1981   77.8762  220.5634 H   0  0  0  0  0  0  0  0  0  0  0  0
  142.2427   77.0809  221.8093 H   0  0  0  0  0  0  0  0  0  0  0  0
  142.5834   71.1328  220.9864 H   0  0  0  0  0  0  0  0  0  0  0  0
  141.5989   71.2446  219.4389 H   0  0  0  0  0  0  0  0  0  0  0  0
  143.9175   70.1108  219.5086 H   0  0  0  0  0  0  0  0  0  0  0  0
  143.3300   71.2060  218.1329 H   0  0  0  0  0  0  0  0  0  0  0  0
  1  2  1  0
  2  3  2  0
  2  4  1  0
  4  5  1  0
  5  6  1  0
  6  7  1  0
  7  8  1  0
  8  9  2  0
  9 10  1  0
 10 11  1  0
 11 12  1  0
 12 13  1  0
 13 14  1  0
 14 15  2  0
 15 16  1  0
 16 17  2  0
 17 18  1  0
 17 19  1  0
 19 20  2  0
 10 21  2  0
 21 22  1  0
 22 23  1  0
 23 24  1  0
 24 25  1  0
 25 26  1  0
 26 27  2  0
 27 28  1  0
 28 29  2  0
 29 30  1  0
 30 31  2  0
 31 32  1  0
 22 33  2  0
  7 34  1  0
 34 35  1  0
 35  4  1  0
 33  8  1  0
 20 14  1  0
 32 23  1  0
 31 26  1  0
  1 36  1  0
  1 37  1  0
  4 38  1  0
  5 39  1  0
  5 40  1  0
  6 41  1  0
  6 42  1  0
 11 43  1  0
 12 44  1  0
 12 45  1  0
 13 46  1  0
 13 47  1  0
 15 48  1  0
 16 49  1  0
 19 50  1  0
 20 51  1  0
 24 52  1  0
 24 53  1  0
 25 54  1  0
 25 55  1  0
 27 56  1  0
 28 57  1  0
 29 58  1  0
 30 59  1  0
 32 60  1  0
 32 61  1  0
 34 62  1  0
 34 63  1  0
 35 64  1  0
 35 65  1  0
M  END
>  <smiles>  (37) 
NC(=O)C1CCN(c2nc(NCCc3ccc(Cl)cc3)nc(N3CCc4ccccc4C3)n2)CC1

>  <score_type>  (37) 
oracle

>  <origin>  (37) 
autodockgpu

>  <m_score__min__energy>  (37) 
-10.08

>  <m_primary>  (37) 
energy

>  <rmsd>  (37) 
5.443369359535087

>  <m_score__min__rmsd>  (37) 
5.443369359535087

>  <meeko>  (37) 
{"free_energy": -9.93, "intermolecular_energy": -12.01, "internal_energy": -1.3, "cluster_size": 11, "cluster_id": 1, "rank_in_cluster": 3}

>  <energy>  (37) 
-8.83

>  <cluster_rmsd>  (37) 
0.78

>  <cluster>  (37) 
7

$$$$

     RDKit          3D

 65 69  0  0  0  0  0  0  0  0999 V2000
  139.2300   80.7720  221.7620 N   0  0  0  0  0  0  0  0  0  0  0  0
  139.3960   79.4630  222.2920 C   0  0  0  0  0  0  0  0  0  0  0  0
  139.6310   79.2920  223.5130 O   0  0  0  0  0  0  0  0  0  0  0  0
  139.2980   78.2580  221.4270 C   0  0  0  0  0  0  0  0  0  0  0  0
  140.6750   77.7280  221.1460 C   0  0  0  0  0  0  0  0  0  0  0  0
  141.0580   76.6600  222.1450 C   0  0  0  0  0  0  0  0  0  0  0  0
  140.1180   75.5650  221.9070 N   0  0  0  0  0  0  0  0  0  0  0  0
  140.5430   74.2140  221.7670 C   0  0  0  0  0  0  0  0  0  0  0  0
  141.3210   73.8040  220.7480 N   0  0  0  0  0  0  0  0  0  0  0  0
  141.6740   72.5240  220.6900 C   0  0  0  0  0  0  0  0  0  0  0  0
  142.5060   72.0190  219.6220 N   0  0  0  0  0  0  0  0  0  0  0  0
  143.8960   71.8340  219.9340 C   0  0  0  0  0  0  0  0  0  0  0  0
  144.5150   73.1190  220.3870 C   0  0  0  0  0  0  0  0  0  0  0  0
  144.1250   74.2140  219.4960 C   0  0  0  0  0  0  0  0  0  0  0  0
  143.7570   75.4210  220.0940 C   0  0  0  0  0  0  0  0  0  0  0  0
  143.3580   76.5150  219.3580 C   0  0  0  0  0  0  0  0  0  0  0  0
  143.3300   76.3930  217.9840 C   0  0  0  0  0  0  0  0  0  0  0  0
  142.8300   77.7610  217.0160 Cl  0  0  0  0  0  0  0  0  0  0  0  0
  143.6780   75.2360  217.3390 C   0  0  0  0  0  0  0  0  0  0  0  0
  144.0720   74.1640  218.1310 C   0  0  0  0  0  0  0  0  0  0  0  0
  141.2570   71.6670  221.6370 N   0  0  0  0  0  0  0  0  0  0  0  0
  140.4790   72.0560  222.6640 C   0  0  0  0  0  0  0  0  0  0  0  0
  140.0540   71.1140  223.6530 N   0  0  0  0  0  0  0  0  0  0  0  0
  139.5670   69.8280  223.2190 C   0  0  0  0  0  0  0  0  0  0  0  0
  138.7250   69.2390  224.3180 C   0  0  0  0  0  0  0  0  0  0  0  0
  139.5150   69.1810  225.5580 C   0  0  0  0  0  0  0  0  0  0  0  0
  139.5910   68.0580  226.3710 C   0  0  0  0  0  0  0  0  0  0  0  0
  140.3710   68.0990  227.5320 C   0  0  0  0  0  0  0  0  0  0  0  0
  141.0720   69.2250  227.9010 C   0  0  0  0  0  0  0  0  0  0  0  0
  140.9880   70.3310  227.0850 C   0  0  0  0  0  0  0  0  0  0  0  0
  140.2190   70.2960  225.9370 C   0  0  0  0  0  0  0  0  0  0  0  0
  140.1300   71.4920  225.0590 C   0  0  0  0  0  0  0  0  0  0  0  0
  140.1260   73.3370  222.7230 N   0  0  0  0  0  0  0  0  0  0  0  0
  138.7050   75.8380  221.8090 C   0  0  0  0  0  0  0  0  0  0  0  0
  138.3350   77.2660  221.9460 C   0  0  0  0  0  0  0  0  0  0  0  0
  138.3530   81.3230  221.9690 H   0  0  0  0  0  0  0  0  0  0  0  0
  139.9660   81.2350  221.1540 H   0  0  0  0  0  0  0  0  0  0  0  0
  138.8670   78.5370  220.4542 H   0  0  0  0  0  0  0  0  0  0  0  0
  140.6954   77.2978  220.1338 H   0  0  0  0  0  0  0  0  0  0  0  0
  141.3932   78.5573  221.2265 H   0  0  0  0  0  0  0  0  0  0  0  0
  142.0922   76.3255  221.9760 H   0  0  0  0  0  0  0  0  0  0  0  0
  141.0112   77.0271  223.1809 H   0  0  0  0  0  0  0  0  0  0  0  0
  142.0320   71.8360  218.7350 H   0  0  0  0  0  0  0  0  0  0  0  0
  143.9892   71.0866  220.7357 H   0  0  0  0  0  0  0  0  0  0  0  0
  144.4179   71.4915  219.0283 H   0  0  0  0  0  0  0  0  0  0  0  0
  144.1759   73.3446  221.4088 H   0  0  0  0  0  0  0  0  0  0  0  0
  145.6099   73.0148  220.3672 H   0  0  0  0  0  0  0  0  0  0  0  0
  143.7867   75.5010  221.1907 H   0  0  0  0  0  0  0  0  0  0  0  0
  143.0708   77.4559  219.8501 H   0  0  0  0  0  0  0  0  0  0  0  0
  143.6470   75.1586  216.2422 H   0  0  0  0  0  0  0  0  0  0  0  0
  144.3563   73.2254  217.6329 H   0  0  0  0  0  0  0  0  0  0  0  0
  138.9589   69.9492  222.3104 H   0  0  0  0  0  0  0  0  0  0  0  0
  140.4128   69.1615  222.9947 H   0  0  0  0  0  0  0  0  0  0  0  0
  137.8366   69.8678  224.4774 H   0  0  0  0  0  0  0  0  0  0  0  0
  138.4077   68.2244  224.0355 H   0  0  0  0  0  0  0  0  0  0  0  0
  139.0421   67.1428  226.1044 H   0  0  0  0  0  0  0  0  0  0  0  0
  140.4258   67.2042  228.1694 H   0  0  0  0  0  0  0  0  0  0  0  0
  141.6795   69.2406  228.8179 H   0  0  0  0  0  0  0  0  0  0  0  0
  141.5361   71.2477  227.3483 H   0  0  0  0  0  0  0  0  0  0  0  0
  139.2296   72.0652  225.3249 H   0  0  0  0  0  0  0  0  0  0  0  0
  141.0358   72.0984  225.2064 H   0  0  0  0  0  0  0  0  0  0  0  0
  138.3565   75.4874  220.8263 H   0  0  0  0  0  0  0  0  0  0  0  0
  138.2302   75.3139  222.6516 H   0  0  0  0  0  0  0  0  0  0  0  0
  137.3842   77.4156  221.4135 H   0  0  0  0  0  0  0  0  0  0  0  0
  138.2912   77.4484  223.0299 H   0  0  0  0  0  0  0  0  0  0  0  0
  1  2  1  0
  2  3  2  0
  2  4  1  0
  4  5  1  0
  5  6  1  0
  6  7  1  0
  7  8  1  0
  8  9  2  0
  9 10  1  0
 10 11  1  0
 11 12  1  0
 12 13  1  0
 13 14  1  0
 14 15  2  0
 15 16  1  0
 16 17  2  0
 17 18  1  0
 17 19  1  0
 19 20  2  0
 10 21  2  0
 21 22  1  0
 22 23  1  0
 23 24  1  0
 24 25  1  0
 25 26  1  0
 26 27  2  0
 27 28  1  0
 28 29  2  0
 29 30  1  0
 30 31  2  0
 31 32  1  0
 22 33  2  0
  7 34  1  0
 34 35  1  0
 35  4  1  0
 33  8  1  0
 20 14  1  0
 32 23  1  0
 31 26  1  0
  1 36  1  0
  1 37  1  0
  4 38  1  0
  5 39  1  0
  5 40  1  0
  6 41  1  0
  6 42  1  0
 11 43  1  0
 12 44  1  0
 12 45  1  0
 13 46  1  0
 13 47  1  0
 15 48  1  0
 16 49  1  0
 19 50  1  0
 20 51  1  0
 24 52  1  0
 24 53  1  0
 25 54  1  0
 25 55  1  0
 27 56  1  0
 28 57  1  0
 29 58  1  0
 30 59  1  0
 32 60  1  0
 32 61  1  0
 34 62  1  0
 34 63  1  0
 35 64  1  0
 35 65  1  0
M  END
>  <smiles>  (38) 
NC(=O)C1CCN(c2nc(NCCc3ccc(Cl)cc3)nc(N3CCc4ccccc4C3)n2)CC1

>  <score_type>  (38) 
oracle

>  <origin>  (38) 
autodockgpu

>  <m_score__min__energy>  (38) 
-10.08

>  <m_primary>  (38) 
energy

>  <rmsd>  (38) 
11.295781551800376

>  <m_score__min__rmsd>  (38) 
11.295781551800376

>  <meeko>  (38) 
{"free_energy": -8.32, "intermolecular_energy": -10.4, "internal_energy": -1.78, "cluster_size": 2, "cluster_id": 10, "rank_in_cluster": 2}

>  <energy>  (38) 
-8.72

>  <cluster_rmsd>  (38) 
1.24

>  <cluster>  (38) 
7

$$$$

     RDKit          3D

 65 69  0  0  0  0  0  0  0  0999 V2000
  140.0310   67.4310  227.2230 N   0  0  0  0  0  0  0  0  0  0  0  0
  140.2430   68.8360  227.2940 C   0  0  0  0  0  0  0  0  0  0  0  0
  141.0600   69.3180  228.1160 O   0  0  0  0  0  0  0  0  0  0  0  0
  139.5130   69.7760  226.4030 C   0  0  0  0  0  0  0  0  0  0  0  0
  140.3330   71.0190  226.2050 C   0  0  0  0  0  0  0  0  0  0  0  0
  141.1850   70.9130  224.9610 C   0  0  0  0  0  0  0  0  0  0  0  0
  140.2320   70.8440  223.8550 N   0  0  0  0  0  0  0  0  0  0  0  0
  140.3560   71.6560  222.6920 C   0  0  0  0  0  0  0  0  0  0  0  0
  140.7500   71.1610  221.5040 N   0  0  0  0  0  0  0  0  0  0  0  0
  140.8380   71.9860  220.4670 C   0  0  0  0  0  0  0  0  0  0  0  0
  141.2550   71.5200  219.1650 N   0  0  0  0  0  0  0  0  0  0  0  0
  141.5790   72.5340  218.2000 C   0  0  0  0  0  0  0  0  0  0  0  0
  142.8860   73.1830  218.5290 C   0  0  0  0  0  0  0  0  0  0  0  0
  142.6960   74.6130  218.7780 C   0  0  0  0  0  0  0  0  0  0  0  0
  141.5600   75.2100  218.2260 C   0  0  0  0  0  0  0  0  0  0  0  0
  141.2840   76.5510  218.3830 C   0  0  0  0  0  0  0  0  0  0  0  0
  142.1720   77.3120  219.1140 C   0  0  0  0  0  0  0  0  0  0  0  0
  141.8550   79.0170  219.3350 Cl  0  0  0  0  0  0  0  0  0  0  0  0
  143.3030   76.7850  219.6790 C   0  0  0  0  0  0  0  0  0  0  0  0
  143.5320   75.4280  219.4890 C   0  0  0  0  0  0  0  0  0  0  0  0
  140.5380   73.2880  220.6140 N   0  0  0  0  0  0  0  0  0  0  0  0
  140.1420   73.8030  221.7930 C   0  0  0  0  0  0  0  0  0  0  0  0
  139.8310   75.1950  221.9120 N   0  0  0  0  0  0  0  0  0  0  0  0
  138.4580   75.5810  222.1180 C   0  0  0  0  0  0  0  0  0  0  0  0
  138.2960   77.0180  221.7040 C   0  0  0  0  0  0  0  0  0  0  0  0
  139.2580   77.8490  222.4440 C   0  0  0  0  0  0  0  0  0  0  0  0
  138.9210   79.0340  223.0840 C   0  0  0  0  0  0  0  0  0  0  0  0
  139.9070   79.7550  223.7640 C   0  0  0  0  0  0  0  0  0  0  0  0
  141.2150   79.3290  223.8220 C   0  0  0  0  0  0  0  0  0  0  0  0
  141.5360   78.1520  223.1830 C   0  0  0  0  0  0  0  0  0  0  0  0
  140.5640   77.4350  222.5090 C   0  0  0  0  0  0  0  0  0  0  0  0
  140.9150   76.1660  221.8200 C   0  0  0  0  0  0  0  0  0  0  0  0
  140.0530   72.9780  222.8310 N   0  0  0  0  0  0  0  0  0  0  0  0
  139.1200   69.9290  223.9180 C   0  0  0  0  0  0  0  0  0  0  0  0
  139.0410   69.1290  225.1630 C   0  0  0  0  0  0  0  0  0  0  0  0
  140.7670   66.8020  226.8040 H   0  0  0  0  0  0  0  0  0  0  0  0
  139.1440   66.9740  227.5840 H   0  0  0  0  0  0  0  0  0  0  0  0
  138.5782   70.0929  226.8886 H   0  0  0  0  0  0  0  0  0  0  0  0
  139.6590   71.8828  226.1070 H   0  0  0  0  0  0  0  0  0  0  0  0
  140.9956   71.1441  227.0741 H   0  0  0  0  0  0  0  0  0  0  0  0
  141.8322   71.7966  224.8592 H   0  0  0  0  0  0  0  0  0  0  0  0
  141.8500   70.0372  224.9889 H   0  0  0  0  0  0  0  0  0  0  0  0
  141.2840   70.5050  219.0420 H   0  0  0  0  0  0  0  0  0  0  0  0
  141.6455   72.0745  217.2028 H   0  0  0  0  0  0  0  0  0  0  0  0
  140.7907   73.3010  218.2167 H   0  0  0  0  0  0  0  0  0  0  0  0
  143.3089   72.7113  219.4283 H   0  0  0  0  0  0  0  0  0  0  0  0
  143.5719   73.0564  217.6784 H   0  0  0  0  0  0  0  0  0  0  0  0
  140.8619   74.5884  217.6462 H   0  0  0  0  0  0  0  0  0  0  0  0
  140.3835   77.0004  217.9391 H   0  0  0  0  0  0  0  0  0  0  0  0
  143.9996   77.4091  220.2580 H   0  0  0  0  0  0  0  0  0  0  0  0
  144.4349   74.9854  219.9348 H   0  0  0  0  0  0  0  0  0  0  0  0
  137.7988   74.9437  221.5103 H   0  0  0  0  0  0  0  0  0  0  0  0
  138.1895   75.4629  223.1782 H   0  0  0  0  0  0  0  0  0  0  0  0
  138.4833   77.1125  220.6242 H   0  0  0  0  0  0  0  0  0  0  0  0
  137.2722   77.3524  221.9274 H   0  0  0  0  0  0  0  0  0  0  0  0
  137.8852   79.4031  223.0562 H   0  0  0  0  0  0  0  0  0  0  0  0
  139.6291   80.6921  224.2686 H   0  0  0  0  0  0  0  0  0  0  0  0
  141.9783   79.9095  224.3609 H   0  0  0  0  0  0  0  0  0  0  0  0
  142.5709   77.7801  223.2088 H   0  0  0  0  0  0  0  0  0  0  0  0
  141.1169   76.3781  220.7597 H   0  0  0  0  0  0  0  0  0  0  0  0
  141.8041   75.7406  222.3083 H   0  0  0  0  0  0  0  0  0  0  0  0
  138.1918   70.5122  223.8269 H   0  0  0  0  0  0  0  0  0  0  0  0
  139.2644   69.2104  223.0978 H   0  0  0  0  0  0  0  0  0  0  0  0
  137.9873   68.8512  225.3133 H   0  0  0  0  0  0  0  0  0  0  0  0
  139.7240   68.2816  225.0035 H   0  0  0  0  0  0  0  0  0  0  0  0
  1  2  1  0
  2  3  2  0
  2  4  1  0
  4  5  1  0
  5  6  1  0
  6  7  1  0
  7  8  1  0
  8  9  2  0
  9 10  1  0
 10 11  1  0
 11 12  1  0
 12 13  1  0
 13 14  1  0
 14 15  2  0
 15 16  1  0
 16 17  2  0
 17 18  1  0
 17 19  1  0
 19 20  2  0
 10 21  2  0
 21 22  1  0
 22 23  1  0
 23 24  1  0
 24 25  1  0
 25 26  1  0
 26 27  2  0
 27 28  1  0
 28 29  2  0
 29 30  1  0
 30 31  2  0
 31 32  1  0
 22 33  2  0
  7 34  1  0
 34 35  1  0
 35  4  1  0
 33  8  1  0
 20 14  1  0
 32 23  1  0
 31 26  1  0
  1 36  1  0
  1 37  1  0
  4 38  1  0
  5 39  1  0
  5 40  1  0
  6 41  1  0
  6 42  1  0
 11 43  1  0
 12 44  1  0
 12 45  1  0
 13 46  1  0
 13 47  1  0
 15 48  1  0
 16 49  1  0
 19 50  1  0
 20 51  1  0
 24 52  1  0
 24 53  1  0
 25 54  1  0
 25 55  1  0
 27 56  1  0
 28 57  1  0
 29 58  1  0
 30 59  1  0
 32 60  1  0
 32 61  1  0
 34 62  1  0
 34 63  1  0
 35 64  1  0
 35 65  1  0
M  END
>  <smiles>  (39) 
NC(=O)C1CCN(c2nc(NCCc3ccc(Cl)cc3)nc(N3CCc4ccccc4C3)n2)CC1

>  <score_type>  (39) 
oracle

>  <origin>  (39) 
autodockgpu

>  <m_score__min__energy>  (39) 
-10.08

>  <m_primary>  (39) 
energy

>  <rmsd>  (39) 
5.153456305469891

>  <m_score__min__rmsd>  (39) 
5.153456305469891

>  <meeko>  (39) 
{"free_energy": -8.21, "intermolecular_energy": -10.3, "internal_energy": -2.36, "cluster_size": 11, "cluster_id": 7, "rank_in_cluster": 11}

>  <energy>  (39) 
-8.63

>  <cluster_rmsd>  (39) 
1.53

>  <cluster>  (39) 
7

$$$$

     RDKit          3D

 65 69  0  0  0  0  0  0  0  0999 V2000
  139.7650   67.3900  227.2050 N   0  0  0  0  0  0  0  0  0  0  0  0
  140.0930   68.7740  227.2530 C   0  0  0  0  0  0  0  0  0  0  0  0
  140.9370   69.2020  228.0770 O   0  0  0  0  0  0  0  0  0  0  0  0
  139.4540   69.7550  226.3370 C   0  0  0  0  0  0  0  0  0  0  0  0
  140.3150   70.9810  226.2350 C   0  0  0  0  0  0  0  0  0  0  0  0
  141.2560   70.8860  225.0560 C   0  0  0  0  0  0  0  0  0  0  0  0
  140.3870   70.8700  223.8800 N   0  0  0  0  0  0  0  0  0  0  0  0
  140.6170   71.7080  222.7520 C   0  0  0  0  0  0  0  0  0  0  0  0
  141.2030   71.2590  221.6270 N   0  0  0  0  0  0  0  0  0  0  0  0
  141.3800   72.1070  220.6190 C   0  0  0  0  0  0  0  0  0  0  0  0
  142.0030   71.6900  219.3840 N   0  0  0  0  0  0  0  0  0  0  0  0
  143.4130   71.4220  219.4420 C   0  0  0  0  0  0  0  0  0  0  0  0
  144.1420   72.5500  220.1040 C   0  0  0  0  0  0  0  0  0  0  0  0
  143.8270   73.8170  219.4420 C   0  0  0  0  0  0  0  0  0  0  0  0
  143.7760   74.9590  220.2430 C   0  0  0  0  0  0  0  0  0  0  0  0
  143.4770   76.2040  219.7320 C   0  0  0  0  0  0  0  0  0  0  0  0
  143.2230   76.3030  218.3800 C   0  0  0  0  0  0  0  0  0  0  0  0
  142.8400   77.8650  217.6950 Cl  0  0  0  0  0  0  0  0  0  0  0  0
  143.2570   75.2190  217.5420 C   0  0  0  0  0  0  0  0  0  0  0  0
  143.5640   73.9890  218.1110 C   0  0  0  0  0  0  0  0  0  0  0  0
  140.9760   73.3840  220.7330 N   0  0  0  0  0  0  0  0  0  0  0  0
  140.3890   73.8520  221.8490 C   0  0  0  0  0  0  0  0  0  0  0  0
  139.9730   75.2180  221.9350 N   0  0  0  0  0  0  0  0  0  0  0  0
  138.5780   75.5030  222.1630 C   0  0  0  0  0  0  0  0  0  0  0  0
  138.2970   76.9110  221.7110 C   0  0  0  0  0  0  0  0  0  0  0  0
  139.2060   77.8360  222.4030 C   0  0  0  0  0  0  0  0  0  0  0  0
  138.7920   79.0100  223.0170 C   0  0  0  0  0  0  0  0  0  0  0  0
  139.7330   79.8260  223.6520 C   0  0  0  0  0  0  0  0  0  0  0  0
  141.0710   79.5030  223.6920 C   0  0  0  0  0  0  0  0  0  0  0  0
  141.4690   78.3350  223.0790 C   0  0  0  0  0  0  0  0  0  0  0  0
  140.5420   77.5250  222.4490 C   0  0  0  0  0  0  0  0  0  0  0  0
  140.9760   76.2670  221.7900 C   0  0  0  0  0  0  0  0  0  0  0  0
  140.2110   73.0040  222.8580 N   0  0  0  0  0  0  0  0  0  0  0  0
  139.2520   69.9810  223.8350 C   0  0  0  0  0  0  0  0  0  0  0  0
  139.0620   69.1520  225.0480 C   0  0  0  0  0  0  0  0  0  0  0  0
  140.4510   66.6950  226.8060 H   0  0  0  0  0  0  0  0  0  0  0  0
  138.8390   67.0150  227.5620 H   0  0  0  0  0  0  0  0  0  0  0  0
  138.4932   70.0832  226.7603 H   0  0  0  0  0  0  0  0  0  0  0  0
  139.6706   71.8637  226.1106 H   0  0  0  0  0  0  0  0  0  0  0  0
  140.9129   71.0666  227.1543 H   0  0  0  0  0  0  0  0  0  0  0  0
  141.9294   71.7553  225.0275 H   0  0  0  0  0  0  0  0  0  0  0  0
  141.8968   69.9935  225.1090 H   0  0  0  0  0  0  0  0  0  0  0  0
  141.3850   71.6220  218.5720 H   0  0  0  0  0  0  0  0  0  0  0  0
  143.5812   70.4983  220.0151 H   0  0  0  0  0  0  0  0  0  0  0  0
  143.7932   71.3106  218.4158 H   0  0  0  0  0  0  0  0  0  0  0  0
  143.8394   72.6074  221.1600 H   0  0  0  0  0  0  0  0  0  0  0  0
  145.2244   72.3679  220.0313 H   0  0  0  0  0  0  0  0  0  0  0  0
  143.9815   74.8622  221.3193 H   0  0  0  0  0  0  0  0  0  0  0  0
  143.4421   77.0906  220.3822 H   0  0  0  0  0  0  0  0  0  0  0  0
  143.0503   75.3183  216.4662 H   0  0  0  0  0  0  0  0  0  0  0  0
  143.5973   73.1062  217.4556 H   0  0  0  0  0  0  0  0  0  0  0  0
  137.9571   74.7987  221.5899 H   0  0  0  0  0  0  0  0  0  0  0  0
  138.3419   75.3966  223.2321 H   0  0  0  0  0  0  0  0  0  0  0  0
  138.4539   76.9861  220.6248 H   0  0  0  0  0  0  0  0  0  0  0  0
  137.2553   77.1725  221.9488 H   0  0  0  0  0  0  0  0  0  0  0  0
  137.7301   79.2966  223.0040 H   0  0  0  0  0  0  0  0  0  0  0  0
  139.3941   80.7546  224.1345 H   0  0  0  0  0  0  0  0  0  0  0  0
  141.7982   80.1560  224.1968 H   0  0  0  0  0  0  0  0  0  0  0  0
  142.5301   78.0452  223.0908 H   0  0  0  0  0  0  0  0  0  0  0  0
  141.1389   76.4612  220.7196 H   0  0  0  0  0  0  0  0  0  0  0  0
  141.9053   75.9268  222.2703 H   0  0  0  0  0  0  0  0  0  0  0  0
  138.3468   70.5892  223.6913 H   0  0  0  0  0  0  0  0  0  0  0  0
  139.4408   69.2803  223.0083 H   0  0  0  0  0  0  0  0  0  0  0  0
  137.9940   68.8963  225.1118 H   0  0  0  0  0  0  0  0  0  0  0  0
  139.7360   68.2927  224.9166 H   0  0  0  0  0  0  0  0  0  0  0  0
  1  2  1  0
  2  3  2  0
  2  4  1  0
  4  5  1  0
  5  6  1  0
  6  7  1  0
  7  8  1  0
  8  9  2  0
  9 10  1  0
 10 11  1  0
 11 12  1  0
 12 13  1  0
 13 14  1  0
 14 15  2  0
 15 16  1  0
 16 17  2  0
 17 18  1  0
 17 19  1  0
 19 20  2  0
 10 21  2  0
 21 22  1  0
 22 23  1  0
 23 24  1  0
 24 25  1  0
 25 26  1  0
 26 27  2  0
 27 28  1  0
 28 29  2  0
 29 30  1  0
 30 31  2  0
 31 32  1  0
 22 33  2  0
  7 34  1  0
 34 35  1  0
 35  4  1  0
 33  8  1  0
 20 14  1  0
 32 23  1  0
 31 26  1  0
  1 36  1  0
  1 37  1  0
  4 38  1  0
  5 39  1  0
  5 40  1  0
  6 41  1  0
  6 42  1  0
 11 43  1  0
 12 44  1  0
 12 45  1  0
 13 46  1  0
 13 47  1  0
 15 48  1  0
 16 49  1  0
 19 50  1  0
 20 51  1  0
 24 52  1  0
 24 53  1  0
 25 54  1  0
 25 55  1  0
 27 56  1  0
 28 57  1  0
 29 58  1  0
 30 59  1  0
 32 60  1  0
 32 61  1  0
 34 62  1  0
 34 63  1  0
 35 64  1  0
 35 65  1  0
M  END
>  <smiles>  (40) 
NC(=O)C1CCN(c2nc(NCCc3ccc(Cl)cc3)nc(N3CCc4ccccc4C3)n2)CC1

>  <score_type>  (40) 
oracle

>  <origin>  (40) 
autodockgpu

>  <m_score__min__energy>  (40) 
-10.08

>  <m_primary>  (40) 
energy

>  <rmsd>  (40) 
5.063250778810612

>  <m_score__min__rmsd>  (40) 
5.063250778810612

>  <meeko>  (40) 
{"free_energy": -8.87, "intermolecular_energy": -10.96, "internal_energy": -1.91, "cluster_size": 11, "cluster_id": 7, "rank_in_cluster": 3}

>  <energy>  (40) 
-8.51

>  <cluster_rmsd>  (40) 
1.7

>  <cluster>  (40) 
7

$$$$

     RDKit          3D

 65 69  0  0  0  0  0  0  0  0999 V2000
  146.4230   70.1010  218.2570 N   0  0  0  0  0  0  0  0  0  0  0  0
  145.5310   71.2090  218.2890 C   0  0  0  0  0  0  0  0  0  0  0  0
  145.9500   72.3730  218.0790 O   0  0  0  0  0  0  0  0  0  0  0  0
  144.0820   71.0300  218.5710 C   0  0  0  0  0  0  0  0  0  0  0  0
  143.8710   70.9020  220.0520 C   0  0  0  0  0  0  0  0  0  0  0  0
  143.5600   72.2450  220.6730 C   0  0  0  0  0  0  0  0  0  0  0  0
  142.2820   72.6450  220.0880 N   0  0  0  0  0  0  0  0  0  0  0  0
  141.1970   73.1200  220.8800 C   0  0  0  0  0  0  0  0  0  0  0  0
  140.2770   72.2950  221.4130 N   0  0  0  0  0  0  0  0  0  0  0  0
  139.2970   72.8190  222.1410 C   0  0  0  0  0  0  0  0  0  0  0  0
  138.2770   71.9900  222.7410 N   0  0  0  0  0  0  0  0  0  0  0  0
  138.5630   71.4820  224.0540 C   0  0  0  0  0  0  0  0  0  0  0  0
  140.0360   71.4870  224.3170 C   0  0  0  0  0  0  0  0  0  0  0  0
  140.3550   70.6060  225.4420 C   0  0  0  0  0  0  0  0  0  0  0  0
  140.7330   71.2140  226.6400 C   0  0  0  0  0  0  0  0  0  0  0  0
  141.0690   70.4860  227.7610 C   0  0  0  0  0  0  0  0  0  0  0  0
  141.0220   69.1100  227.6760 C   0  0  0  0  0  0  0  0  0  0  0  0
  141.4400   68.1530  229.0770 Cl  0  0  0  0  0  0  0  0  0  0  0  0
  140.6590   68.4550  226.5290 C   0  0  0  0  0  0  0  0  0  0  0  0
  140.3310   69.2390  225.4290 C   0  0  0  0  0  0  0  0  0  0  0  0
  139.2370   74.1480  222.3330 N   0  0  0  0  0  0  0  0  0  0  0  0
  140.1460   74.9900  221.8090 C   0  0  0  0  0  0  0  0  0  0  0  0
  140.0490   76.4000  222.0340 N   0  0  0  0  0  0  0  0  0  0  0  0
  138.8700   76.9160  222.6840 C   0  0  0  0  0  0  0  0  0  0  0  0
  138.7450   78.3790  222.3570 C   0  0  0  0  0  0  0  0  0  0  0  0
  139.9820   79.0730  222.7460 C   0  0  0  0  0  0  0  0  0  0  0  0
  140.0070   80.2560  223.4710 C   0  0  0  0  0  0  0  0  0  0  0  0
  141.2360   80.8410  223.7950 C   0  0  0  0  0  0  0  0  0  0  0  0
  142.4350   80.2790  223.4160 C   0  0  0  0  0  0  0  0  0  0  0  0
  142.3950   79.1050  222.6970 C   0  0  0  0  0  0  0  0  0  0  0  0
  141.1830   78.5230  222.3750 C   0  0  0  0  0  0  0  0  0  0  0  0
  141.1460   77.2560  221.5990 C   0  0  0  0  0  0  0  0  0  0  0  0
  141.1280   74.4660  221.0810 N   0  0  0  0  0  0  0  0  0  0  0  0
  142.0860   72.5670  218.6610 C   0  0  0  0  0  0  0  0  0  0  0  0
  143.2470   72.0480  217.9010 C   0  0  0  0  0  0  0  0  0  0  0  0
  146.8080   69.7550  217.3370 H   0  0  0  0  0  0  0  0  0  0  0  0
  146.7270   69.5930  219.1370 H   0  0  0  0  0  0  0  0  0  0  0  0
  143.7323   70.0875  218.1243 H   0  0  0  0  0  0  0  0  0  0  0  0
  143.0309   70.2166  220.2378 H   0  0  0  0  0  0  0  0  0  0  0  0
  144.7942   70.5117  220.5051 H   0  0  0  0  0  0  0  0  0  0  0  0
  143.4737   72.1550  221.7659 H   0  0  0  0  0  0  0  0  0  0  0  0
  144.3522   72.9832  220.4795 H   0  0  0  0  0  0  0  0  0  0  0  0
  137.4380   71.8360  222.1780 H   0  0  0  0  0  0  0  0  0  0  0  0
  138.0611   72.1133  224.8020 H   0  0  0  0  0  0  0  0  0  0  0  0
  138.1970   70.4467  224.1187 H   0  0  0  0  0  0  0  0  0  0  0  0
  140.5659   71.1355  223.4194 H   0  0  0  0  0  0  0  0  0  0  0  0
  140.3515   72.5113  224.5644 H   0  0  0  0  0  0  0  0  0  0  0  0
  140.7638   72.3124  226.6913 H   0  0  0  0  0  0  0  0  0  0  0  0
  141.3654   70.9867  228.6945 H   0  0  0  0  0  0  0  0  0  0  0  0
  140.6284   67.3565  226.4805 H   0  0  0  0  0  0  0  0  0  0  0  0
  140.0363   68.7324  224.4981 H   0  0  0  0  0  0  0  0  0  0  0  0
  137.9815   76.3779  222.3222 H   0  0  0  0  0  0  0  0  0  0  0  0
  138.9498   76.7791  223.7725 H   0  0  0  0  0  0  0  0  0  0  0  0
  138.5799   78.5009  221.2763 H   0  0  0  0  0  0  0  0  0  0  0  0
  137.8943   78.8075  222.9071 H   0  0  0  0  0  0  0  0  0  0  0  0
  139.0669   80.7306  223.7888 H   0  0  0  0  0  0  0  0  0  0  0  0
  141.2449   81.7786  224.3701 H   0  0  0  0  0  0  0  0  0  0  0  0
  143.3927   80.7521  223.6788 H   0  0  0  0  0  0  0  0  0  0  0  0
  143.3329   78.6276  222.3771 H   0  0  0  0  0  0  0  0  0  0  0  0
  141.0147   77.4926  220.5328 H   0  0  0  0  0  0  0  0  0  0  0  0
  142.0918   76.7195  221.7651 H   0  0  0  0  0  0  0  0  0  0  0  0
  141.2283   71.9055  218.4692 H   0  0  0  0  0  0  0  0  0  0  0  0
  141.9254   73.5984  218.3141 H   0  0  0  0  0  0  0  0  0  0  0  0
  142.8637   71.6038  216.9706 H   0  0  0  0  0  0  0  0  0  0  0  0
  143.9090   72.9151  217.7601 H   0  0  0  0  0  0  0  0  0  0  0  0
  1  2  1  0
  2  3  2  0
  2  4  1  0
  4  5  1  0
  5  6  1  0
  6  7  1  0
  7  8  1  0
  8  9  2  0
  9 10  1  0
 10 11  1  0
 11 12  1  0
 12 13  1  0
 13 14  1  0
 14 15  2  0
 15 16  1  0
 16 17  2  0
 17 18  1  0
 17 19  1  0
 19 20  2  0
 10 21  2  0
 21 22  1  0
 22 23  1  0
 23 24  1  0
 24 25  1  0
 25 26  1  0
 26 27  2  0
 27 28  1  0
 28 29  2  0
 29 30  1  0
 30 31  2  0
 31 32  1  0
 22 33  2  0
  7 34  1  0
 34 35  1  0
 35  4  1  0
 33  8  1  0
 20 14  1  0
 32 23  1  0
 31 26  1  0
  1 36  1  0
  1 37  1  0
  4 38  1  0
  5 39  1  0
  5 40  1  0
  6 41  1  0
  6 42  1  0
 11 43  1  0
 12 44  1  0
 12 45  1  0
 13 46  1  0
 13 47  1  0
 15 48  1  0
 16 49  1  0
 19 50  1  0
 20 51  1  0
 24 52  1  0
 24 53  1  0
 25 54  1  0
 25 55  1  0
 27 56  1  0
 28 57  1  0
 29 58  1  0
 30 59  1  0
 32 60  1  0
 32 61  1  0
 34 62  1  0
 34 63  1  0
 35 64  1  0
 35 65  1  0
M  END
>  <smiles>  (41) 
NC(=O)C1CCN(c2nc(NCCc3ccc(Cl)cc3)nc(N3CCc4ccccc4C3)n2)CC1

>  <score_type>  (41) 
oracle

>  <origin>  (41) 
autodockgpu

>  <m_score__min__energy>  (41) 
-10.08

>  <m_primary>  (41) 
energy

>  <rmsd>  (41) 
5.340587661249541

>  <m_score__min__rmsd>  (41) 
5.340587661249541

>  <meeko>  (41) 
{"free_energy": -9.43, "intermolecular_energy": -11.52, "internal_energy": -1.13, "cluster_size": 11, "cluster_id": 1, "rank_in_cluster": 9}

>  <energy>  (41) 
-8.41

>  <cluster_rmsd>  (41) 
1.66

>  <cluster>  (41) 
7

$$$$

     RDKit          3D

 65 69  0  0  0  0  0  0  0  0999 V2000
  141.7430   79.6330  221.1280 N   0  0  0  0  0  0  0  0  0  0  0  0
  140.5730   79.1570  221.7830 C   0  0  0  0  0  0  0  0  0  0  0  0
  140.1250   79.7430  222.7980 O   0  0  0  0  0  0  0  0  0  0  0  0
  139.8440   77.9570  221.2930 C   0  0  0  0  0  0  0  0  0  0  0  0
  140.7470   77.1470  220.4080 C   0  0  0  0  0  0  0  0  0  0  0  0
  141.4570   76.0710  221.1990 C   0  0  0  0  0  0  0  0  0  0  0  0
  140.3950   75.1800  221.6620 N   0  0  0  0  0  0  0  0  0  0  0  0
  140.4720   73.7650  221.5220 C   0  0  0  0  0  0  0  0  0  0  0  0
  140.8560   73.1740  220.3760 N   0  0  0  0  0  0  0  0  0  0  0  0
  140.9030   71.8470  220.3280 C   0  0  0  0  0  0  0  0  0  0  0  0
  141.3060   71.1490  219.1290 N   0  0  0  0  0  0  0  0  0  0  0  0
  141.0620   71.8280  217.8870 C   0  0  0  0  0  0  0  0  0  0  0  0
  142.3360   72.3720  217.3190 C   0  0  0  0  0  0  0  0  0  0  0  0
  143.3330   72.5420  218.3780 C   0  0  0  0  0  0  0  0  0  0  0  0
  143.3970   73.7910  218.9980 C   0  0  0  0  0  0  0  0  0  0  0  0
  144.3040   74.0710  219.9970 C   0  0  0  0  0  0  0  0  0  0  0  0
  145.1690   73.0690  220.3830 C   0  0  0  0  0  0  0  0  0  0  0  0
  146.3330   73.3860  221.6480 Cl  0  0  0  0  0  0  0  0  0  0  0  0
  145.1560   71.8230  219.8130 C   0  0  0  0  0  0  0  0  0  0  0  0
  144.2200   71.5960  218.8100 C   0  0  0  0  0  0  0  0  0  0  0  0
  140.5710   71.1220  221.4100 N   0  0  0  0  0  0  0  0  0  0  0  0
  140.1850   71.6930  222.5650 C   0  0  0  0  0  0  0  0  0  0  0  0
  139.8380   70.8880  223.6960 N   0  0  0  0  0  0  0  0  0  0  0  0
  139.4170   69.5280  223.4730 C   0  0  0  0  0  0  0  0  0  0  0  0
  138.6370   69.0650  224.6740 C   0  0  0  0  0  0  0  0  0  0  0  0
  139.4580   69.2350  225.8830 C   0  0  0  0  0  0  0  0  0  0  0  0
  139.6190   68.2530  226.8500 C   0  0  0  0  0  0  0  0  0  0  0  0
  140.4210   68.5090  227.9660 C   0  0  0  0  0  0  0  0  0  0  0  0
  141.0650   69.7140  228.1420 C   0  0  0  0  0  0  0  0  0  0  0  0
  140.8970   70.6790  227.1740 C   0  0  0  0  0  0  0  0  0  0  0  0
  140.1050   70.4310  226.0690 C   0  0  0  0  0  0  0  0  0  0  0  0
  139.9260   71.4760  225.0280 C   0  0  0  0  0  0  0  0  0  0  0  0
  140.1380   73.0210  222.6140 N   0  0  0  0  0  0  0  0  0  0  0  0
  139.2160   75.7280  222.2880 C   0  0  0  0  0  0  0  0  0  0  0  0
  139.1930   77.2070  222.3850 C   0  0  0  0  0  0  0  0  0  0  0  0
  141.7080   80.5180  220.5550 H   0  0  0  0  0  0  0  0  0  0  0  0
  142.6730   79.1270  221.1920 H   0  0  0  0  0  0  0  0  0  0  0  0
  138.9956   78.2708  220.6671 H   0  0  0  0  0  0  0  0  0  0  0  0
  140.1463   76.6748  219.6167 H   0  0  0  0  0  0  0  0  0  0  0  0
  141.5020   77.8166  219.9704 H   0  0  0  0  0  0  0  0  0  0  0  0
  142.1676   75.5264  220.5599 H   0  0  0  0  0  0  0  0  0  0  0  0
  142.0401   76.4879  222.0334 H   0  0  0  0  0  0  0  0  0  0  0  0
  141.7300   70.2290  219.2680 H   0  0  0  0  0  0  0  0  0  0  0  0
  140.6207   71.1203  217.1698 H   0  0  0  0  0  0  0  0  0  0  0  0
  140.3729   72.6652  218.0724 H   0  0  0  0  0  0  0  0  0  0  0  0
  142.7244   71.6727  216.5639 H   0  0  0  0  0  0  0  0  0  0  0  0
  142.1333   73.3500  216.8581 H   0  0  0  0  0  0  0  0  0  0  0  0
  142.6993   74.5790  218.6781 H   0  0  0  0  0  0  0  0  0  0  0  0
  144.3369   75.0628  220.4716 H   0  0  0  0  0  0  0  0  0  0  0  0
  145.8551   71.0370  220.1347 H   0  0  0  0  0  0  0  0  0  0  0  0
  144.1919   70.6023  218.3392 H   0  0  0  0  0  0  0  0  0  0  0  0
  138.7814   69.4789  222.5766 H   0  0  0  0  0  0  0  0  0  0  0  0
  140.2947   68.8823  223.3226 H   0  0  0  0  0  0  0  0  0  0  0  0
  137.7177   69.6618  224.7673 H   0  0  0  0  0  0  0  0  0  0  0  0
  138.3727   68.0039  224.5546 H   0  0  0  0  0  0  0  0  0  0  0  0
  139.1189   67.2795  226.7392 H   0  0  0  0  0  0  0  0  0  0  0  0
  140.5416   67.7240  228.7271 H   0  0  0  0  0  0  0  0  0  0  0  0
  141.6925   69.8992  229.0263 H   0  0  0  0  0  0  0  0  0  0  0  0
  141.3963   71.6533  227.2810 H   0  0  0  0  0  0  0  0  0  0  0  0
  139.0007   72.0335  225.2354 H   0  0  0  0  0  0  0  0  0  0  0  0
  140.7983   72.1456  225.0548 H   0  0  0  0  0  0  0  0  0  0  0  0
  138.3396   75.4099  221.7043 H   0  0  0  0  0  0  0  0  0  0  0  0
  139.2105   75.3502  223.3211 H   0  0  0  0  0  0  0  0  0  0  0  0
  138.1396   77.5214  222.4224 H   0  0  0  0  0  0  0  0  0  0  0  0
  139.7781   77.4449  223.2855 H   0  0  0  0  0  0  0  0  0  0  0  0
  1  2  1  0
  2  3  2  0
  2  4  1  0
  4  5  1  0
  5  6  1  0
  6  7  1  0
  7  8  1  0
  8  9  2  0
  9 10  1  0
 10 11  1  0
 11 12  1  0
 12 13  1  0
 13 14  1  0
 14 15  2  0
 15 16  1  0
 16 17  2  0
 17 18  1  0
 17 19  1  0
 19 20  2  0
 10 21  2  0
 21 22  1  0
 22 23  1  0
 23 24  1  0
 24 25  1  0
 25 26  1  0
 26 27  2  0
 27 28  1  0
 28 29  2  0
 29 30  1  0
 30 31  2  0
 31 32  1  0
 22 33  2  0
  7 34  1  0
 34 35  1  0
 35  4  1  0
 33  8  1  0
 20 14  1  0
 32 23  1  0
 31 26  1  0
  1 36  1  0
  1 37  1  0
  4 38  1  0
  5 39  1  0
  5 40  1  0
  6 41  1  0
  6 42  1  0
 11 43  1  0
 12 44  1  0
 12 45  1  0
 13 46  1  0
 13 47  1  0
 15 48  1  0
 16 49  1  0
 19 50  1  0
 20 51  1  0
 24 52  1  0
 24 53  1  0
 25 54  1  0
 25 55  1  0
 27 56  1  0
 28 57  1  0
 29 58  1  0
 30 59  1  0
 32 60  1  0
 32 61  1  0
 34 62  1  0
 34 63  1  0
 35 64  1  0
 35 65  1  0
M  END
>  <smiles>  (42) 
NC(=O)C1CCN(c2nc(NCCc3ccc(Cl)cc3)nc(N3CCc4ccccc4C3)n2)CC1

>  <score_type>  (42) 
oracle

>  <origin>  (42) 
autodockgpu

>  <m_score__min__energy>  (42) 
-10.08

>  <m_primary>  (42) 
energy

>  <rmsd>  (42) 
11.330431761338762

>  <m_score__min__rmsd>  (42) 
11.330431761338762

>  <meeko>  (42) 
{"free_energy": -8.7, "intermolecular_energy": -10.79, "internal_energy": -1.65, "cluster_size": 5, "cluster_id": 6, "rank_in_cluster": 2}

>  <energy>  (42) 
-8.35

>  <cluster_rmsd>  (42) 
1.67

>  <cluster>  (42) 
7

$$$$

     RDKit          3D

 65 69  0  0  0  0  0  0  0  0999 V2000
  140.3290   68.6310  227.6620 N   0  0  0  0  0  0  0  0  0  0  0  0
  139.5340   68.4790  226.4930 C   0  0  0  0  0  0  0  0  0  0  0  0
  139.2010   67.3370  226.0900 O   0  0  0  0  0  0  0  0  0  0  0  0
  139.0720   69.6560  225.7100 C   0  0  0  0  0  0  0  0  0  0  0  0
  140.0640   70.7740  225.8540 C   0  0  0  0  0  0  0  0  0  0  0  0
  141.0740   70.7510  224.7300 C   0  0  0  0  0  0  0  0  0  0  0  0
  140.2990   71.0150  223.5190 N   0  0  0  0  0  0  0  0  0  0  0  0
  140.6990   71.9820  222.5540 C   0  0  0  0  0  0  0  0  0  0  0  0
  141.5030   71.6800  221.5190 N   0  0  0  0  0  0  0  0  0  0  0  0
  141.8290   72.6410  220.6620 C   0  0  0  0  0  0  0  0  0  0  0  0
  142.6880   72.3830  219.5290 N   0  0  0  0  0  0  0  0  0  0  0  0
  143.9600   73.0520  219.5320 C   0  0  0  0  0  0  0  0  0  0  0  0
  144.2060   73.7330  218.2230 C   0  0  0  0  0  0  0  0  0  0  0  0
  143.6500   75.0870  218.2410 C   0  0  0  0  0  0  0  0  0  0  0  0
  143.5270   75.7080  219.4860 C   0  0  0  0  0  0  0  0  0  0  0  0
  143.0050   76.9760  219.6270 C   0  0  0  0  0  0  0  0  0  0  0  0
  142.5960   77.6360  218.4870 C   0  0  0  0  0  0  0  0  0  0  0  0
  141.9290   79.2460  218.6260 Cl  0  0  0  0  0  0  0  0  0  0  0  0
  142.6910   77.0800  217.2390 C   0  0  0  0  0  0  0  0  0  0  0  0
  143.2240   75.8000  217.1550 C   0  0  0  0  0  0  0  0  0  0  0  0
  141.3570   73.8870  220.8370 N   0  0  0  0  0  0  0  0  0  0  0  0
  140.5520   74.2110  221.8650 C   0  0  0  0  0  0  0  0  0  0  0  0
  140.0710   75.5500  222.0200 N   0  0  0  0  0  0  0  0  0  0  0  0
  138.6810   75.7500  222.3490 C   0  0  0  0  0  0  0  0  0  0  0  0
  138.2940   77.1510  221.9600 C   0  0  0  0  0  0  0  0  0  0  0  0
  139.1980   78.1070  222.6170 C   0  0  0  0  0  0  0  0  0  0  0  0
  138.7640   79.2390  223.2920 C   0  0  0  0  0  0  0  0  0  0  0  0
  139.7010   80.0900  223.8870 C   0  0  0  0  0  0  0  0  0  0  0  0
  141.0540   79.8420  223.8270 C   0  0  0  0  0  0  0  0  0  0  0  0
  141.4710   78.7140  223.1540 C   0  0  0  0  0  0  0  0  0  0  0  0
  140.5490   77.8710  222.5640 C   0  0  0  0  0  0  0  0  0  0  0  0
  141.0030   76.6560  221.8390 C   0  0  0  0  0  0  0  0  0  0  0  0
  140.2260   73.2490  222.7230 N   0  0  0  0  0  0  0  0  0  0  0  0
  139.0820   70.2810  223.2680 C   0  0  0  0  0  0  0  0  0  0  0  0
  138.7150   69.3050  224.3210 C   0  0  0  0  0  0  0  0  0  0  0  0
  139.9110   68.4590  228.6160 H   0  0  0  0  0  0  0  0  0  0  0  0
  141.3500   68.9160  227.6200 H   0  0  0  0  0  0  0  0  0  0  0  0
  138.1227   70.0263  226.1243 H   0  0  0  0  0  0  0  0  0  0  0  0
  139.5283   71.7346  225.8364 H   0  0  0  0  0  0  0  0  0  0  0  0
  140.5981   70.6476  226.8073 H   0  0  0  0  0  0  0  0  0  0  0  0
  141.8359   71.5303  224.8789 H   0  0  0  0  0  0  0  0  0  0  0  0
  141.6104   69.7921  224.6763 H   0  0  0  0  0  0  0  0  0  0  0  0
  142.3160   71.7460  218.8220 H   0  0  0  0  0  0  0  0  0  0  0  0
  143.9708   73.8023  220.3363 H   0  0  0  0  0  0  0  0  0  0  0  0
  144.7507   72.3047  219.6943 H   0  0  0  0  0  0  0  0  0  0  0  0
  145.2894   73.7883  218.0409 H   0  0  0  0  0  0  0  0  0  0  0  0
  143.7177   73.1569  217.4232 H   0  0  0  0  0  0  0  0  0  0  0  0
  143.8579   75.1668  220.3846 H   0  0  0  0  0  0  0  0  0  0  0  0
  142.9174   77.4466  220.6174 H   0  0  0  0  0  0  0  0  0  0  0  0
  142.3596   77.6235  216.3419 H   0  0  0  0  0  0  0  0  0  0  0  0
  143.3078   75.3352  216.1616 H   0  0  0  0  0  0  0  0  0  0  0  0
  138.0616   75.0275  221.7973 H   0  0  0  0  0  0  0  0  0  0  0  0
  138.5244   75.6020  223.4277 H   0  0  0  0  0  0  0  0  0  0  0  0
  138.3711   77.2635  220.8685 H   0  0  0  0  0  0  0  0  0  0  0  0
  137.2587   77.3475  222.2755 H   0  0  0  0  0  0  0  0  0  0  0  0
  137.6897   79.4657  223.3588 H   0  0  0  0  0  0  0  0  0  0  0  0
  139.3461   80.9849  224.4192 H   0  0  0  0  0  0  0  0  0  0  0  0
  141.7779   80.5215  224.3004 H   0  0  0  0  0  0  0  0  0  0  0  0
  142.5444   78.4834  223.0862 H   0  0  0  0  0  0  0  0  0  0  0  0
  141.0803   76.8871  220.7663 H   0  0  0  0  0  0  0  0  0  0  0  0
  141.9803   76.3554  222.2447 H   0  0  0  0  0  0  0  0  0  0  0  0
  138.2597   71.0052  223.1714 H   0  0  0  0  0  0  0  0  0  0  0  0
  139.2567   69.6968  222.3525 H   0  0  0  0  0  0  0  0  0  0  0  0
  137.6241   69.1688  224.2824 H   0  0  0  0  0  0  0  0  0  0  0  0
  139.3015   68.4028  224.0931 H   0  0  0  0  0  0  0  0  0  0  0  0
  1  2  1  0
  2  3  2  0
  2  4  1  0
  4  5  1  0
  5  6  1  0
  6  7  1  0
  7  8  1  0
  8  9  2  0
  9 10  1  0
 10 11  1  0
 11 12  1  0
 12 13  1  0
 13 14  1  0
 14 15  2  0
 15 16  1  0
 16 17  2  0
 17 18  1  0
 17 19  1  0
 19 20  2  0
 10 21  2  0
 21 22  1  0
 22 23  1  0
 23 24  1  0
 24 25  1  0
 25 26  1  0
 26 27  2  0
 27 28  1  0
 28 29  2  0
 29 30  1  0
 30 31  2  0
 31 32  1  0
 22 33  2  0
  7 34  1  0
 34 35  1  0
 35  4  1  0
 33  8  1  0
 20 14  1  0
 32 23  1  0
 31 26  1  0
  1 36  1  0
  1 37  1  0
  4 38  1  0
  5 39  1  0
  5 40  1  0
  6 41  1  0
  6 42  1  0
 11 43  1  0
 12 44  1  0
 12 45  1  0
 13 46  1  0
 13 47  1  0
 15 48  1  0
 16 49  1  0
 19 50  1  0
 20 51  1  0
 24 52  1  0
 24 53  1  0
 25 54  1  0
 25 55  1  0
 27 56  1  0
 28 57  1  0
 29 58  1  0
 30 59  1  0
 32 60  1  0
 32 61  1  0
 34 62  1  0
 34 63  1  0
 35 64  1  0
 35 65  1  0
M  END
>  <smiles>  (43) 
NC(=O)C1CCN(c2nc(NCCc3ccc(Cl)cc3)nc(N3CCc4ccccc4C3)n2)CC1

>  <score_type>  (43) 
oracle

>  <origin>  (43) 
autodockgpu

>  <m_score__min__energy>  (43) 
-10.08

>  <m_primary>  (43) 
energy

>  <rmsd>  (43) 
5.137175936732095

>  <m_score__min__rmsd>  (43) 
5.137175936732095

>  <meeko>  (43) 
{"free_energy": -8.63, "intermolecular_energy": -10.71, "internal_energy": -1.79, "cluster_size": 4, "cluster_id": 8, "rank_in_cluster": 1}

>  <energy>  (43) 
-8.21

>  <cluster_rmsd>  (43) 
1.66

>  <cluster>  (43) 
7

$$$$

     RDKit          3D

 65 69  0  0  0  0  0  0  0  0999 V2000
  145.2810   74.2620  216.8680 N   0  0  0  0  0  0  0  0  0  0  0  0
  145.6070   73.0760  217.5820 C   0  0  0  0  0  0  0  0  0  0  0  0
  146.2760   72.1650  217.0360 O   0  0  0  0  0  0  0  0  0  0  0  0
  145.1730   72.8730  218.9890 C   0  0  0  0  0  0  0  0  0  0  0  0
  144.4880   74.1130  219.4870 C   0  0  0  0  0  0  0  0  0  0  0  0
  142.9920   74.0240  219.2860 C   0  0  0  0  0  0  0  0  0  0  0  0
  142.5610   72.9210  220.1420 N   0  0  0  0  0  0  0  0  0  0  0  0
  141.4550   73.0340  221.0310 C   0  0  0  0  0  0  0  0  0  0  0  0
  140.7020   74.1470  221.1090 N   0  0  0  0  0  0  0  0  0  0  0  0
  139.6860   74.1710  221.9640 C   0  0  0  0  0  0  0  0  0  0  0  0
  138.8390   75.3340  222.0970 N   0  0  0  0  0  0  0  0  0  0  0  0
  138.8370   76.2480  220.9890 C   0  0  0  0  0  0  0  0  0  0  0  0
  138.3500   77.5980  221.4130 C   0  0  0  0  0  0  0  0  0  0  0  0
  139.4310   78.3510  222.0520 C   0  0  0  0  0  0  0  0  0  0  0  0
  140.7110   78.2070  221.5140 C   0  0  0  0  0  0  0  0  0  0  0  0
  141.8070   78.8560  222.0400 C   0  0  0  0  0  0  0  0  0  0  0  0
  141.6110   79.6720  223.1350 C   0  0  0  0  0  0  0  0  0  0  0  0
  142.9770   80.5120  223.8300 Cl  0  0  0  0  0  0  0  0  0  0  0  0
  140.3800   79.8530  223.7080 C   0  0  0  0  0  0  0  0  0  0  0  0
  139.3100   79.1740  223.1370 C   0  0  0  0  0  0  0  0  0  0  0  0
  139.4260   73.0990  222.7310 N   0  0  0  0  0  0  0  0  0  0  0  0
  140.1660   71.9770  222.6700 C   0  0  0  0  0  0  0  0  0  0  0  0
  139.8590   70.8550  223.5040 N   0  0  0  0  0  0  0  0  0  0  0  0
  139.5380   69.5960  222.8780 C   0  0  0  0  0  0  0  0  0  0  0  0
  138.7740   68.7530  223.8620 C   0  0  0  0  0  0  0  0  0  0  0  0
  139.5620   68.6120  225.0970 C   0  0  0  0  0  0  0  0  0  0  0  0
  139.7760   67.4010  225.7400 C   0  0  0  0  0  0  0  0  0  0  0  0
  140.5410   67.3670  226.9100 C   0  0  0  0  0  0  0  0  0  0  0  0
  141.0950   68.5050  227.4530 C   0  0  0  0  0  0  0  0  0  0  0  0
  140.8750   69.7000  226.8040 C   0  0  0  0  0  0  0  0  0  0  0  0
  140.1190   69.7380  225.6470 C   0  0  0  0  0  0  0  0  0  0  0  0
  139.8840   71.0290  224.9510 C   0  0  0  0  0  0  0  0  0  0  0  0
  141.1820   71.9520  221.8130 N   0  0  0  0  0  0  0  0  0  0  0  0
  143.2630   71.6610  220.1030 C   0  0  0  0  0  0  0  0  0  0  0  0
  144.4140   71.6190  219.1710 C   0  0  0  0  0  0  0  0  0  0  0  0
  146.0250   74.9820  216.6650 H   0  0  0  0  0  0  0  0  0  0  0  0
  144.2980   74.4610  216.5200 H   0  0  0  0  0  0  0  0  0  0  0  0
  146.0554   72.7255  219.6290 H   0  0  0  0  0  0  0  0  0  0  0  0
  144.7002   74.2350  220.5594 H   0  0  0  0  0  0  0  0  0  0  0  0
  144.8672   74.9750  218.9184 H   0  0  0  0  0  0  0  0  0  0  0  0
  142.5045   74.9623  219.5894 H   0  0  0  0  0  0  0  0  0  0  0  0
  142.7257   73.8576  218.2318 H   0  0  0  0  0  0  0  0  0  0  0  0
  138.3130   75.4070  222.9710 H   0  0  0  0  0  0  0  0  0  0  0  0
  139.8604   76.3409  220.5966 H   0  0  0  0  0  0  0  0  0  0  0  0
  138.1624   75.8583  220.2124 H   0  0  0  0  0  0  0  0  0  0  0  0
  137.9962   78.1500  220.5297 H   0  0  0  0  0  0  0  0  0  0  0  0
  137.5279   77.4718  222.1329 H   0  0  0  0  0  0  0  0  0  0  0  0
  140.8495   77.5531  220.6404 H   0  0  0  0  0  0  0  0  0  0  0  0
  142.8071   78.7274  221.6004 H   0  0  0  0  0  0  0  0  0  0  0  0
  140.2442   80.5071  224.5819 H   0  0  0  0  0  0  0  0  0  0  0  0
  138.3126   79.3059  223.5818 H   0  0  0  0  0  0  0  0  0  0  0  0
  138.9217   69.7728  221.9842 H   0  0  0  0  0  0  0  0  0  0  0  0
  140.4613   69.0793  222.5770 H   0  0  0  0  0  0  0  0  0  0  0  0
  137.8134   69.2369  224.0923 H   0  0  0  0  0  0  0  0  0  0  0  0
  138.5872   67.7593  223.4288 H   0  0  0  0  0  0  0  0  0  0  0  0
  139.3467   66.4740  225.3320 H   0  0  0  0  0  0  0  0  0  0  0  0
  140.7053   66.4021  227.4119 H   0  0  0  0  0  0  0  0  0  0  0  0
  141.6936   68.4611  228.3748 H   0  0  0  0  0  0  0  0  0  0  0  0
  141.3031   70.6290  227.2085 H   0  0  0  0  0  0  0  0  0  0  0  0
  138.9186   71.4420  225.2788 H   0  0  0  0  0  0  0  0  0  0  0  0
  140.7069   71.7139  225.2037 H   0  0  0  0  0  0  0  0  0  0  0  0
  143.6346   71.4450  221.1155 H   0  0  0  0  0  0  0  0  0  0  0  0
  142.5412   70.9159  219.7371 H   0  0  0  0  0  0  0  0  0  0  0  0
  145.1151   70.8573  219.5430 H   0  0  0  0  0  0  0  0  0  0  0  0
  143.9767   71.4030  218.1851 H   0  0  0  0  0  0  0  0  0  0  0  0
  1  2  1  0
  2  3  2  0
  2  4  1  0
  4  5  1  0
  5  6  1  0
  6  7  1  0
  7  8  1  0
  8  9  2  0
  9 10  1  0
 10 11  1  0
 11 12  1  0
 12 13  1  0
 13 14  1  0
 14 15  2  0
 15 16  1  0
 16 17  2  0
 17 18  1  0
 17 19  1  0
 19 20  2  0
 10 21  2  0
 21 22  1  0
 22 23  1  0
 23 24  1  0
 24 25  1  0
 25 26  1  0
 26 27  2  0
 27 28  1  0
 28 29  2  0
 29 30  1  0
 30 31  2  0
 31 32  1  0
 22 33  2  0
  7 34  1  0
 34 35  1  0
 35  4  1  0
 33  8  1  0
 20 14  1  0
 32 23  1  0
 31 26  1  0
  1 36  1  0
  1 37  1  0
  4 38  1  0
  5 39  1  0
  5 40  1  0
  6 41  1  0
  6 42  1  0
 11 43  1  0
 12 44  1  0
 12 45  1  0
 13 46  1  0
 13 47  1  0
 15 48  1  0
 16 49  1  0
 19 50  1  0
 20 51  1  0
 24 52  1  0
 24 53  1  0
 25 54  1  0
 25 55  1  0
 27 56  1  0
 28 57  1  0
 29 58  1  0
 30 59  1  0
 32 60  1  0
 32 61  1  0
 34 62  1  0
 34 63  1  0
 35 64  1  0
 35 65  1  0
M  END
>  <smiles>  (44) 
NC(=O)C1CCN(c2nc(NCCc3ccc(Cl)cc3)nc(N3CCc4ccccc4C3)n2)CC1

>  <score_type>  (44) 
oracle

>  <origin>  (44) 
autodockgpu

>  <m_score__min__energy>  (44) 
-10.08

>  <m_primary>  (44) 
energy

>  <rmsd>  (44) 
11.533688508487291

>  <m_score__min__rmsd>  (44) 
11.533688508487291

>  <meeko>  (44) 
{"free_energy": -9.51, "intermolecular_energy": -11.6, "internal_energy": -1.14, "cluster_size": 9, "cluster_id": 3, "rank_in_cluster": 2}

>  <energy>  (44) 
-8.63

>  <cluster_rmsd>  (44) 
0.0

>  <cluster>  (44) 
8

$$$$

     RDKit          3D

 65 69  0  0  0  0  0  0  0  0999 V2000
  146.2700   73.1920  220.7790 N   0  0  0  0  0  0  0  0  0  0  0  0
  145.6540   73.2490  219.4980 C   0  0  0  0  0  0  0  0  0  0  0  0
  146.3200   73.0250  218.4580 O   0  0  0  0  0  0  0  0  0  0  0  0
  144.2110   73.5730  219.3450 C   0  0  0  0  0  0  0  0  0  0  0  0
  143.4110   72.3020  219.3260 C   0  0  0  0  0  0  0  0  0  0  0  0
  142.9180   71.9520  220.7120 C   0  0  0  0  0  0  0  0  0  0  0  0
  142.0030   73.0330  221.0720 N   0  0  0  0  0  0  0  0  0  0  0  0
  140.7060   72.7870  221.6070 C   0  0  0  0  0  0  0  0  0  0  0  0
  139.5960   73.3520  221.0970 N   0  0  0  0  0  0  0  0  0  0  0  0
  138.4240   73.0690  221.6540 C   0  0  0  0  0  0  0  0  0  0  0  0
  137.1940   73.6420  221.1570 N   0  0  0  0  0  0  0  0  0  0  0  0
  136.9760   75.0310  221.4520 C   0  0  0  0  0  0  0  0  0  0  0  0
  137.7890   75.9010  220.5460 C   0  0  0  0  0  0  0  0  0  0  0  0
  138.7220   76.7160  221.3260 C   0  0  0  0  0  0  0  0  0  0  0  0
  140.0780   76.6140  221.0060 C   0  0  0  0  0  0  0  0  0  0  0  0
  141.0480   77.3230  221.6810 C   0  0  0  0  0  0  0  0  0  0  0  0
  140.6450   78.1560  222.7040 C   0  0  0  0  0  0  0  0  0  0  0  0
  141.8480   79.0710  223.5830 Cl  0  0  0  0  0  0  0  0  0  0  0  0
  139.3320   78.2980  223.0660 C   0  0  0  0  0  0  0  0  0  0  0  0
  138.3960   77.5590  222.3520 C   0  0  0  0  0  0  0  0  0  0  0  0
  138.3610   72.2330  222.7050 N   0  0  0  0  0  0  0  0  0  0  0  0
  139.4590   71.6580  223.2300 C   0  0  0  0  0  0  0  0  0  0  0  0
  139.3540   70.7740  224.3500 N   0  0  0  0  0  0  0  0  0  0  0  0
  138.9170   69.4190  224.1220 C   0  0  0  0  0  0  0  0  0  0  0  0
  138.3960   68.8600  225.4180 C   0  0  0  0  0  0  0  0  0  0  0  0
  139.4350   68.9760  226.4520 C   0  0  0  0  0  0  0  0  0  0  0  0
  139.7980   67.9400  227.3010 C   0  0  0  0  0  0  0  0  0  0  0  0
  140.8010   68.1470  228.2530 C   0  0  0  0  0  0  0  0  0  0  0  0
  141.4490   69.3550  228.3810 C   0  0  0  0  0  0  0  0  0  0  0  0
  141.0790   70.3750  227.5320 C   0  0  0  0  0  0  0  0  0  0  0  0
  140.0880   70.1750  226.5890 C   0  0  0  0  0  0  0  0  0  0  0  0
  139.6930   71.2780  225.6750 C   0  0  0  0  0  0  0  0  0  0  0  0
  140.6330   71.9410  222.6720 N   0  0  0  0  0  0  0  0  0  0  0  0
  142.4030   74.4070  220.8900 C   0  0  0  0  0  0  0  0  0  0  0  0
  143.7550   74.5900  220.3120 C   0  0  0  0  0  0  0  0  0  0  0  0
  146.5410   72.2620  221.1990 H   0  0  0  0  0  0  0  0  0  0  0  0
  146.4770   74.0640  221.3470 H   0  0  0  0  0  0  0  0  0  0  0  0
  144.0432   74.0614  218.3738 H   0  0  0  0  0  0  0  0  0  0  0  0
  142.5463   72.4310  218.6584 H   0  0  0  0  0  0  0  0  0  0  0  0
  144.0563   71.4867  218.9670 H   0  0  0  0  0  0  0  0  0  0  0  0
  142.3911   70.9865  220.7026 H   0  0  0  0  0  0  0  0  0  0  0  0
  143.7440   71.8529  221.4316 H   0  0  0  0  0  0  0  0  0  0  0  0
  136.5840   73.0080  220.6370 H   0  0  0  0  0  0  0  0  0  0  0  0
  135.9099   75.2655  221.3160 H   0  0  0  0  0  0  0  0  0  0  0  0
  137.2808   75.2226  222.4914 H   0  0  0  0  0  0  0  0  0  0  0  0
  138.3564   75.2678  219.8480 H   0  0  0  0  0  0  0  0  0  0  0  0
  137.1135   76.5660  219.9879 H   0  0  0  0  0  0  0  0  0  0  0  0
  140.3818   75.9450  220.1874 H   0  0  0  0  0  0  0  0  0  0  0  0
  142.1104   77.2276  221.4124 H   0  0  0  0  0  0  0  0  0  0  0  0
  139.0313   78.9673  223.8855 H   0  0  0  0  0  0  0  0  0  0  0  0
  137.3356   77.6577  222.6273 H   0  0  0  0  0  0  0  0  0  0  0  0
  138.1180   69.4092  223.3660 H   0  0  0  0  0  0  0  0  0  0  0  0
  139.7571   68.8085  223.7593 H   0  0  0  0  0  0  0  0  0  0  0  0
  137.5041   69.4239  225.7289 H   0  0  0  0  0  0  0  0  0  0  0  0
  138.1299   67.8015  225.2813 H   0  0  0  0  0  0  0  0  0  0  0  0
  139.2999   66.9622  227.2255 H   0  0  0  0  0  0  0  0  0  0  0  0
  141.0811   67.3188  228.9206 H   0  0  0  0  0  0  0  0  0  0  0  0
  142.2358   69.5009  229.1358 H   0  0  0  0  0  0  0  0  0  0  0  0
  141.5749   71.3542  227.6049 H   0  0  0  0  0  0  0  0  0  0  0  0
  138.8184   71.7958  226.0957 H   0  0  0  0  0  0  0  0  0  0  0  0
  140.5441   71.9678  225.5761 H   0  0  0  0  0  0  0  0  0  0  0  0
  141.6762   74.8889  220.2195 H   0  0  0  0  0  0  0  0  0  0  0  0
  142.4323   74.8562  221.8937 H   0  0  0  0  0  0  0  0  0  0  0  0
  143.7689   75.5641  219.8012 H   0  0  0  0  0  0  0  0  0  0  0  0
  144.4451   74.5049  221.1644 H   0  0  0  0  0  0  0  0  0  0  0  0
  1  2  1  0
  2  3  2  0
  2  4  1  0
  4  5  1  0
  5  6  1  0
  6  7  1  0
  7  8  1  0
  8  9  2  0
  9 10  1  0
 10 11  1  0
 11 12  1  0
 12 13  1  0
 13 14  1  0
 14 15  2  0
 15 16  1  0
 16 17  2  0
 17 18  1  0
 17 19  1  0
 19 20  2  0
 10 21  2  0
 21 22  1  0
 22 23  1  0
 23 24  1  0
 24 25  1  0
 25 26  1  0
 26 27  2  0
 27 28  1  0
 28 29  2  0
 29 30  1  0
 30 31  2  0
 31 32  1  0
 22 33  2  0
  7 34  1  0
 34 35  1  0
 35  4  1  0
 33  8  1  0
 20 14  1  0
 32 23  1  0
 31 26  1  0
  1 36  1  0
  1 37  1  0
  4 38  1  0
  5 39  1  0
  5 40  1  0
  6 41  1  0
  6 42  1  0
 11 43  1  0
 12 44  1  0
 12 45  1  0
 13 46  1  0
 13 47  1  0
 15 48  1  0
 16 49  1  0
 19 50  1  0
 20 51  1  0
 24 52  1  0
 24 53  1  0
 25 54  1  0
 25 55  1  0
 27 56  1  0
 28 57  1  0
 29 58  1  0
 30 59  1  0
 32 60  1  0
 32 61  1  0
 34 62  1  0
 34 63  1  0
 35 64  1  0
 35 65  1  0
M  END
>  <smiles>  (45) 
NC(=O)C1CCN(c2nc(NCCc3ccc(Cl)cc3)nc(N3CCc4ccccc4C3)n2)CC1

>  <score_type>  (45) 
oracle

>  <origin>  (45) 
autodockgpu

>  <m_score__min__energy>  (45) 
-10.08

>  <m_primary>  (45) 
energy

>  <rmsd>  (45) 
11.81572841265472

>  <m_score__min__rmsd>  (45) 
11.81572841265472

>  <meeko>  (45) 
{"free_energy": -9.22, "intermolecular_energy": -11.31, "internal_energy": -1.59, "cluster_size": 1, "cluster_id": 5, "rank_in_cluster": 1}

>  <energy>  (45) 
-7.83

>  <cluster_rmsd>  (45) 
0.82

>  <cluster>  (45) 
8

$$$$

     RDKit          3D

 65 69  0  0  0  0  0  0  0  0999 V2000
  137.5730   78.7130  220.6620 N   0  0  0  0  0  0  0  0  0  0  0  0
  138.2510   79.0430  221.8680 C   0  0  0  0  0  0  0  0  0  0  0  0
  138.1800   80.2020  222.3440 O   0  0  0  0  0  0  0  0  0  0  0  0
  139.0620   78.0360  222.6020 C   0  0  0  0  0  0  0  0  0  0  0  0
  138.2990   76.7460  222.6920 C   0  0  0  0  0  0  0  0  0  0  0  0
  138.6610   75.8230  221.5510 C   0  0  0  0  0  0  0  0  0  0  0  0
  140.0730   75.5040  221.7560 N   0  0  0  0  0  0  0  0  0  0  0  0
  140.5680   74.1700  221.7080 C   0  0  0  0  0  0  0  0  0  0  0  0
  141.4310   73.7530  220.7630 N   0  0  0  0  0  0  0  0  0  0  0  0
  141.8450   72.4910  220.7900 C   0  0  0  0  0  0  0  0  0  0  0  0
  142.7700   71.9800  219.8040 N   0  0  0  0  0  0  0  0  0  0  0  0
  144.0970   71.6890  220.2700 C   0  0  0  0  0  0  0  0  0  0  0  0
  145.1030   72.5640  219.5910 C   0  0  0  0  0  0  0  0  0  0  0  0
  144.4820   73.8210  219.1680 C   0  0  0  0  0  0  0  0  0  0  0  0
  144.2920   74.7980  220.1470 C   0  0  0  0  0  0  0  0  0  0  0  0
  143.7060   76.0140  219.8690 C   0  0  0  0  0  0  0  0  0  0  0  0
  143.2990   76.2530  218.5730 C   0  0  0  0  0  0  0  0  0  0  0  0
  142.5520   77.7840  218.1820 Cl  0  0  0  0  0  0  0  0  0  0  0  0
  143.4570   75.3350  217.5690 C   0  0  0  0  0  0  0  0  0  0  0  0
  144.0550   74.1260  217.9060 C   0  0  0  0  0  0  0  0  0  0  0  0
  141.4030   71.6570  221.7460 N   0  0  0  0  0  0  0  0  0  0  0  0
  140.5400   72.0530  222.7000 C   0  0  0  0  0  0  0  0  0  0  0  0
  140.0910   71.1360  223.7030 N   0  0  0  0  0  0  0  0  0  0  0  0
  139.5480   69.8680  223.2850 C   0  0  0  0  0  0  0  0  0  0  0  0
  138.7000   69.3200  224.4010 C   0  0  0  0  0  0  0  0  0  0  0  0
  139.5030   69.2400  225.6300 C   0  0  0  0  0  0  0  0  0  0  0  0
  139.5460   68.1220  226.4510 C   0  0  0  0  0  0  0  0  0  0  0  0
  140.3420   68.1410  227.6010 C   0  0  0  0  0  0  0  0  0  0  0  0
  141.0920   69.2410  227.9520 C   0  0  0  0  0  0  0  0  0  0  0  0
  141.0400   70.3440  227.1280 C   0  0  0  0  0  0  0  0  0  0  0  0
  140.2550   70.3300  225.9900 C   0  0  0  0  0  0  0  0  0  0  0  0
  140.2020   71.5210  225.1050 C   0  0  0  0  0  0  0  0  0  0  0  0
  140.1260   73.3160  222.6740 N   0  0  0  0  0  0  0  0  0  0  0  0
  141.0200   76.5610  222.0170 C   0  0  0  0  0  0  0  0  0  0  0  0
  140.4350   77.9210  222.0720 C   0  0  0  0  0  0  0  0  0  0  0  0
  136.5220   78.6110  220.6530 H   0  0  0  0  0  0  0  0  0  0  0  0
  138.0860   78.5610  219.7460 H   0  0  0  0  0  0  0  0  0  0  0  0
  139.2232   78.3748  223.6360 H   0  0  0  0  0  0  0  0  0  0  0  0
  138.5390   76.2516  223.6449 H   0  0  0  0  0  0  0  0  0  0  0  0
  137.2235   76.9697  222.6347 H   0  0  0  0  0  0  0  0  0  0  0  0
  138.0494   74.9093  221.5839 H   0  0  0  0  0  0  0  0  0  0  0  0
  138.4804   76.2876  220.5704 H   0  0  0  0  0  0  0  0  0  0  0  0
  142.3990   71.8690  218.8580 H   0  0  0  0  0  0  0  0  0  0  0  0
  144.1438   71.8611  221.3555 H   0  0  0  0  0  0  0  0  0  0  0  0
  144.3296   70.6392  220.0381 H   0  0  0  0  0  0  0  0  0  0  0  0
  145.9241   72.7823  220.2897 H   0  0  0  0  0  0  0  0  0  0  0  0
  145.4908   72.0410  218.7044 H   0  0  0  0  0  0  0  0  0  0  0  0
  144.6214   74.5901  221.1757 H   0  0  0  0  0  0  0  0  0  0  0  0
  143.5672   76.7701  220.6558 H   0  0  0  0  0  0  0  0  0  0  0  0
  143.1254   75.5450  216.5414 H   0  0  0  0  0  0  0  0  0  0  0  0
  144.1918   73.3745  217.1144 H   0  0  0  0  0  0  0  0  0  0  0  0
  138.9316   70.0071  222.3846 H   0  0  0  0  0  0  0  0  0  0  0  0
  140.3634   69.1672  223.0525 H   0  0  0  0  0  0  0  0  0  0  0  0
  137.8389   69.9839  224.5677 H   0  0  0  0  0  0  0  0  0  0  0  0
  138.3407   68.3161  224.1307 H   0  0  0  0  0  0  0  0  0  0  0  0
  138.9581   67.2270  226.1991 H   0  0  0  0  0  0  0  0  0  0  0  0
  140.3696   67.2496  228.2449 H   0  0  0  0  0  0  0  0  0  0  0  0
  141.7123   69.2393  228.8604 H   0  0  0  0  0  0  0  0  0  0  0  0
  141.6263   71.2408  227.3770 H   0  0  0  0  0  0  0  0  0  0  0  0
  139.3293   72.1320  225.3788 H   0  0  0  0  0  0  0  0  0  0  0  0
  141.1334   72.0915  225.2352 H   0  0  0  0  0  0  0  0  0  0  0  0
  141.5024   76.3568  222.9843 H   0  0  0  0  0  0  0  0  0  0  0  0
  141.7239   76.5612  221.1717 H   0  0  0  0  0  0  0  0  0  0  0  0
  141.0886   78.5386  222.7054 H   0  0  0  0  0  0  0  0  0  0  0  0
  140.3661   78.2464  221.0235 H   0  0  0  0  0  0  0  0  0  0  0  0
  1  2  1  0
  2  3  2  0
  2  4  1  0
  4  5  1  0
  5  6  1  0
  6  7  1  0
  7  8  1  0
  8  9  2  0
  9 10  1  0
 10 11  1  0
 11 12  1  0
 12 13  1  0
 13 14  1  0
 14 15  2  0
 15 16  1  0
 16 17  2  0
 17 18  1  0
 17 19  1  0
 19 20  2  0
 10 21  2  0
 21 22  1  0
 22 23  1  0
 23 24  1  0
 24 25  1  0
 25 26  1  0
 26 27  2  0
 27 28  1  0
 28 29  2  0
 29 30  1  0
 30 31  2  0
 31 32  1  0
 22 33  2  0
  7 34  1  0
 34 35  1  0
 35  4  1  0
 33  8  1  0
 20 14  1  0
 32 23  1  0
 31 26  1  0
  1 36  1  0
  1 37  1  0
  4 38  1  0
  5 39  1  0
  5 40  1  0
  6 41  1  0
  6 42  1  0
 11 43  1  0
 12 44  1  0
 12 45  1  0
 13 46  1  0
 13 47  1  0
 15 48  1  0
 16 49  1  0
 19 50  1  0
 20 51  1  0
 24 52  1  0
 24 53  1  0
 25 54  1  0
 25 55  1  0
 27 56  1  0
 28 57  1  0
 29 58  1  0
 30 59  1  0
 32 60  1  0
 32 61  1  0
 34 62  1  0
 34 63  1  0
 35 64  1  0
 35 65  1  0
M  END
>  <smiles>  (46) 
NC(=O)C1CCN(c2nc(NCCc3ccc(Cl)cc3)nc(N3CCc4ccccc4C3)n2)CC1

>  <score_type>  (46) 
oracle

>  <origin>  (46) 
autodockgpu

>  <m_score__min__energy>  (46) 
-10.08

>  <m_primary>  (46) 
energy

>  <rmsd>  (46) 
11.300152475931348

>  <m_score__min__rmsd>  (46) 
11.300152475931348

>  <meeko>  (46) 
{"free_energy": -8.4, "intermolecular_energy": -10.49, "internal_energy": -1.83, "cluster_size": 2, "cluster_id": 10, "rank_in_cluster": 1}

>  <energy>  (46) 
-7.82

>  <cluster_rmsd>  (46) 
0.79

>  <cluster>  (46) 
8

$$$$

     RDKit          3D

 65 69  0  0  0  0  0  0  0  0999 V2000
  139.7830   67.3960  227.2190 N   0  0  0  0  0  0  0  0  0  0  0  0
  140.0620   68.7880  227.1290 C   0  0  0  0  0  0  0  0  0  0  0  0
  140.9110   69.3200  227.8860 O   0  0  0  0  0  0  0  0  0  0  0  0
  139.3650   69.6570  226.1450 C   0  0  0  0  0  0  0  0  0  0  0  0
  140.0470   70.9940  226.0840 C   0  0  0  0  0  0  0  0  0  0  0  0
  141.0840   71.0230  224.9840 C   0  0  0  0  0  0  0  0  0  0  0  0
  140.3250   70.8700  223.7450 N   0  0  0  0  0  0  0  0  0  0  0  0
  140.5220   71.7210  222.6200 C   0  0  0  0  0  0  0  0  0  0  0  0
  141.0190   71.2720  221.4530 N   0  0  0  0  0  0  0  0  0  0  0  0
  141.1710   72.1310  220.4520 C   0  0  0  0  0  0  0  0  0  0  0  0
  141.7000   71.7150  219.1740 N   0  0  0  0  0  0  0  0  0  0  0  0
  143.1290   71.6050  219.0830 C   0  0  0  0  0  0  0  0  0  0  0  0
  143.7970   72.6800  219.8810 C   0  0  0  0  0  0  0  0  0  0  0  0
  143.4830   73.9970  219.3240 C   0  0  0  0  0  0  0  0  0  0  0  0
  143.8160   75.1120  220.0970 C   0  0  0  0  0  0  0  0  0  0  0  0
  143.5560   76.4000  219.6800 C   0  0  0  0  0  0  0  0  0  0  0  0
  142.9450   76.5720  218.4550 C   0  0  0  0  0  0  0  0  0  0  0  0
  142.6000   78.1900  217.8930 Cl  0  0  0  0  0  0  0  0  0  0  0  0
  142.5940   75.5190  217.6520 C   0  0  0  0  0  0  0  0  0  0  0  0
  142.8800   74.2420  218.1210 C   0  0  0  0  0  0  0  0  0  0  0  0
  140.8310   73.4220  220.6150 N   0  0  0  0  0  0  0  0  0  0  0  0
  140.3330   73.8910  221.7730 C   0  0  0  0  0  0  0  0  0  0  0  0
  139.9830   75.2720  221.9090 N   0  0  0  0  0  0  0  0  0  0  0  0
  138.6100   75.6130  222.1860 C   0  0  0  0  0  0  0  0  0  0  0  0
  138.3800   77.0440  221.7820 C   0  0  0  0  0  0  0  0  0  0  0  0
  139.3510   77.9070  222.4720 C   0  0  0  0  0  0  0  0  0  0  0  0
  139.0090   79.0800  223.1300 C   0  0  0  0  0  0  0  0  0  0  0  0
  140.0050   79.8340  223.7590 C   0  0  0  0  0  0  0  0  0  0  0  0
  141.3270   79.4500  223.7490 C   0  0  0  0  0  0  0  0  0  0  0  0
  141.6530   78.2840  223.0930 C   0  0  0  0  0  0  0  0  0  0  0  0
  140.6720   77.5350  222.4690 C   0  0  0  0  0  0  0  0  0  0  0  0
  141.0280   76.2780  221.7630 C   0  0  0  0  0  0  0  0  0  0  0  0
  140.1800   73.0310  222.7750 N   0  0  0  0  0  0  0  0  0  0  0  0
  139.3360   69.8260  223.6300 C   0  0  0  0  0  0  0  0  0  0  0  0
  139.1690   68.9900  224.8420 C   0  0  0  0  0  0  0  0  0  0  0  0
  140.4840   66.6890  226.8670 H   0  0  0  0  0  0  0  0  0  0  0  0
  138.8810   67.0250  227.6360 H   0  0  0  0  0  0  0  0  0  0  0  0
  138.3362   69.8474  226.4846 H   0  0  0  0  0  0  0  0  0  0  0  0
  139.2950   71.7730  225.8902 H   0  0  0  0  0  0  0  0  0  0  0  0
  140.5502   71.1752  227.0452 H   0  0  0  0  0  0  0  0  0  0  0  0
  141.6267   71.9798  224.9893 H   0  0  0  0  0  0  0  0  0  0  0  0
  141.8388   70.2323  225.1066 H   0  0  0  0  0  0  0  0  0  0  0  0
  141.0090   71.5340  218.4420 H   0  0  0  0  0  0  0  0  0  0  0  0
  143.4403   70.6232  219.4690 H   0  0  0  0  0  0  0  0  0  0  0  0
  143.4244   71.7135  218.0290 H   0  0  0  0  0  0  0  0  0  0  0  0
  143.4430   72.6324  220.9214 H   0  0  0  0  0  0  0  0  0  0  0  0
  144.8858   72.5273  219.8455 H   0  0  0  0  0  0  0  0  0  0  0  0
  144.3022   74.9569  221.0715 H   0  0  0  0  0  0  0  0  0  0  0  0
  143.8273   77.2639  220.3046 H   0  0  0  0  0  0  0  0  0  0  0  0
  142.1070   75.6771  216.6784 H   0  0  0  0  0  0  0  0  0  0  0  0
  142.6068   73.3827  217.4910 H   0  0  0  0  0  0  0  0  0  0  0  0
  137.9415   74.9540  221.6125 H   0  0  0  0  0  0  0  0  0  0  0  0
  138.4005   75.4869  223.2585 H   0  0  0  0  0  0  0  0  0  0  0  0
  138.5082   77.1436  220.6940 H   0  0  0  0  0  0  0  0  0  0  0  0
  137.3587   77.3449  222.0583 H   0  0  0  0  0  0  0  0  0  0  0  0
  137.9615   79.4146  223.1567 H   0  0  0  0  0  0  0  0  0  0  0  0
  139.7234   80.7623  224.2776 H   0  0  0  0  0  0  0  0  0  0  0  0
  142.0979   80.0550  224.2488 H   0  0  0  0  0  0  0  0  0  0  0  0
  142.6995   77.9464  223.0651 H   0  0  0  0  0  0  0  0  0  0  0  0
  141.1687   76.4954  220.6939 H   0  0  0  0  0  0  0  0  0  0  0  0
  141.9539   75.8823  222.2059 H   0  0  0  0  0  0  0  0  0  0  0  0
  138.3677   70.2958  223.4027 H   0  0  0  0  0  0  0  0  0  0  0  0
  139.6893   69.1518  222.8359 H   0  0  0  0  0  0  0  0  0  0  0  0
  138.1471   68.5832  224.8271 H   0  0  0  0  0  0  0  0  0  0  0  0
  139.9673   68.2356  224.7827 H   0  0  0  0  0  0  0  0  0  0  0  0
  1  2  1  0
  2  3  2  0
  2  4  1  0
  4  5  1  0
  5  6  1  0
  6  7  1  0
  7  8  1  0
  8  9  2  0
  9 10  1  0
 10 11  1  0
 11 12  1  0
 12 13  1  0
 13 14  1  0
 14 15  2  0
 15 16  1  0
 16 17  2  0
 17 18  1  0
 17 19  1  0
 19 20  2  0
 10 21  2  0
 21 22  1  0
 22 23  1  0
 23 24  1  0
 24 25  1  0
 25 26  1  0
 26 27  2  0
 27 28  1  0
 28 29  2  0
 29 30  1  0
 30 31  2  0
 31 32  1  0
 22 33  2  0
  7 34  1  0
 34 35  1  0
 35  4  1  0
 33  8  1  0
 20 14  1  0
 32 23  1  0
 31 26  1  0
  1 36  1  0
  1 37  1  0
  4 38  1  0
  5 39  1  0
  5 40  1  0
  6 41  1  0
  6 42  1  0
 11 43  1  0
 12 44  1  0
 12 45  1  0
 13 46  1  0
 13 47  1  0
 15 48  1  0
 16 49  1  0
 19 50  1  0
 20 51  1  0
 24 52  1  0
 24 53  1  0
 25 54  1  0
 25 55  1  0
 27 56  1  0
 28 57  1  0
 29 58  1  0
 30 59  1  0
 32 60  1  0
 32 61  1  0
 34 62  1  0
 34 63  1  0
 35 64  1  0
 35 65  1  0
M  END
>  <smiles>  (47) 
NC(=O)C1CCN(c2nc(NCCc3ccc(Cl)cc3)nc(N3CCc4ccccc4C3)n2)CC1

>  <score_type>  (47) 
oracle

>  <origin>  (47) 
autodockgpu

>  <m_score__min__energy>  (47) 
-10.08

>  <m_primary>  (47) 
energy

>  <rmsd>  (47) 
5.123449521464374

>  <m_score__min__rmsd>  (47) 
5.123449521464374

>  <meeko>  (47) 
{"free_energy": -8.88, "intermolecular_energy": -10.97, "internal_energy": -1.98, "cluster_size": 11, "cluster_id": 7, "rank_in_cluster": 2}

>  <energy>  (47) 
-7.62

>  <cluster_rmsd>  (47) 
0.91

>  <cluster>  (47) 
8

$$$$

     RDKit          3D

 65 69  0  0  0  0  0  0  0  0999 V2000
  146.3940   73.7330  220.1190 N   0  0  0  0  0  0  0  0  0  0  0  0
  145.5110   73.1860  219.1470 C   0  0  0  0  0  0  0  0  0  0  0  0
  145.9340   72.3840  218.2790 O   0  0  0  0  0  0  0  0  0  0  0  0
  144.0680   73.5410  219.1230 C   0  0  0  0  0  0  0  0  0  0  0  0
  143.2420   72.2880  219.1540 C   0  0  0  0  0  0  0  0  0  0  0  0
  142.8620   71.9240  220.5710 C   0  0  0  0  0  0  0  0  0  0  0  0
  142.0040   73.0180  221.0240 N   0  0  0  0  0  0  0  0  0  0  0  0
  140.7530   72.7890  221.6650 C   0  0  0  0  0  0  0  0  0  0  0  0
  139.6290   73.4370  221.3060 N   0  0  0  0  0  0  0  0  0  0  0  0
  138.5020   73.1640  221.9540 C   0  0  0  0  0  0  0  0  0  0  0  0
  137.2610   73.8250  221.6190 N   0  0  0  0  0  0  0  0  0  0  0  0
  137.1640   75.2130  221.9770 C   0  0  0  0  0  0  0  0  0  0  0  0
  137.9060   76.0670  220.9980 C   0  0  0  0  0  0  0  0  0  0  0  0
  138.9130   76.8750  221.6890 C   0  0  0  0  0  0  0  0  0  0  0  0
  138.5710   78.1930  221.9960 C   0  0  0  0  0  0  0  0  0  0  0  0
  139.4430   79.0500  222.6320 C   0  0  0  0  0  0  0  0  0  0  0  0
  140.6910   78.5680  222.9690 C   0  0  0  0  0  0  0  0  0  0  0  0
  141.8240   79.6260  223.7780 Cl  0  0  0  0  0  0  0  0  0  0  0  0
  141.0850   77.2860  222.6940 C   0  0  0  0  0  0  0  0  0  0  0  0
  140.1660   76.4650  222.0510 C   0  0  0  0  0  0  0  0  0  0  0  0
  138.4970   72.2570  222.9450 N   0  0  0  0  0  0  0  0  0  0  0  0
  139.6090   71.5980  223.3190 C   0  0  0  0  0  0  0  0  0  0  0  0
  139.5650   70.6390  224.3810 N   0  0  0  0  0  0  0  0  0  0  0  0
  139.4500   69.2420  224.0450 C   0  0  0  0  0  0  0  0  0  0  0  0
  138.9150   68.5040  225.2420 C   0  0  0  0  0  0  0  0  0  0  0  0
  139.7840   68.7610  226.4010 C   0  0  0  0  0  0  0  0  0  0  0  0
  140.2580   67.7660  227.2450 C   0  0  0  0  0  0  0  0  0  0  0  0
  141.0810   68.1090  228.3220 C   0  0  0  0  0  0  0  0  0  0  0  0
  141.4430   69.4120  228.5780 C   0  0  0  0  0  0  0  0  0  0  0  0
  140.9660   70.3900  227.7330 C   0  0  0  0  0  0  0  0  0  0  0  0
  140.1520   70.0560  226.6670 C   0  0  0  0  0  0  0  0  0  0  0  0
  139.6400   71.1130  225.7570 C   0  0  0  0  0  0  0  0  0  0  0  0
  140.7370   71.8700  222.6710 N   0  0  0  0  0  0  0  0  0  0  0  0
  142.4170   74.3860  220.8290 C   0  0  0  0  0  0  0  0  0  0  0  0
  143.7180   74.5520  220.1410 C   0  0  0  0  0  0  0  0  0  0  0  0
  146.7570   73.1310  220.9070 H   0  0  0  0  0  0  0  0  0  0  0  0
  146.7150   74.7430  220.0890 H   0  0  0  0  0  0  0  0  0  0  0  0
  143.8286   74.0480  218.1766 H   0  0  0  0  0  0  0  0  0  0  0  0
  142.3263   72.4463  218.5655 H   0  0  0  0  0  0  0  0  0  0  0  0
  143.8365   71.4660  218.7287 H   0  0  0  0  0  0  0  0  0  0  0  0
  142.3155   70.9696  220.5920 H   0  0  0  0  0  0  0  0  0  0  0  0
  143.7438   71.7955  221.2159 H   0  0  0  0  0  0  0  0  0  0  0  0
  136.5570   73.2460  221.1560 H   0  0  0  0  0  0  0  0  0  0  0  0
  136.1050   75.5103  221.9849 H   0  0  0  0  0  0  0  0  0  0  0  0
  137.6080   75.3520  222.9738 H   0  0  0  0  0  0  0  0  0  0  0  0
  138.4032   75.4225  220.2582 H   0  0  0  0  0  0  0  0  0  0  0  0
  137.1930   76.7371  220.4955 H   0  0  0  0  0  0  0  0  0  0  0  0
  137.5713   78.5602  221.7209 H   0  0  0  0  0  0  0  0  0  0  0  0
  139.1531   80.0855  222.8636 H   0  0  0  0  0  0  0  0  0  0  0  0
  142.0855   76.9215  222.9700 H   0  0  0  0  0  0  0  0  0  0  0  0
  140.4625   75.4309  221.8213 H   0  0  0  0  0  0  0  0  0  0  0  0
  138.7612   69.1203  223.1961 H   0  0  0  0  0  0  0  0  0  0  0  0
  140.4348   68.8402  223.7645 H   0  0  0  0  0  0  0  0  0  0  0  0
  137.8954   68.8527  225.4629 H   0  0  0  0  0  0  0  0  0  0  0  0
  138.8938   67.4248  225.0299 H   0  0  0  0  0  0  0  0  0  0  0  0
  139.9879   66.7145  227.0676 H   0  0  0  0  0  0  0  0  0  0  0  0
  141.4505   67.3130  228.9852 H   0  0  0  0  0  0  0  0  0  0  0  0
  142.0920   69.6643  229.4295 H   0  0  0  0  0  0  0  0  0  0  0  0
  141.2344   71.4424  227.9076 H   0  0  0  0  0  0  0  0  0  0  0  0
  138.6348   71.4136  226.0873 H   0  0  0  0  0  0  0  0  0  0  0  0
  140.3336   71.9660  225.7921 H   0  0  0  0  0  0  0  0  0  0  0  0
  141.6465   74.8936  220.2302 H   0  0  0  0  0  0  0  0  0  0  0  0
  142.5416   74.8170  221.8333 H   0  0  0  0  0  0  0  0  0  0  0  0
  143.7091   75.5339  219.6452 H   0  0  0  0  0  0  0  0  0  0  0  0
  144.4765   74.4400  220.9298 H   0  0  0  0  0  0  0  0  0  0  0  0
  1  2  1  0
  2  3  2  0
  2  4  1  0
  4  5  1  0
  5  6  1  0
  6  7  1  0
  7  8  1  0
  8  9  2  0
  9 10  1  0
 10 11  1  0
 11 12  1  0
 12 13  1  0
 13 14  1  0
 14 15  2  0
 15 16  1  0
 16 17  2  0
 17 18  1  0
 17 19  1  0
 19 20  2  0
 10 21  2  0
 21 22  1  0
 22 23  1  0
 23 24  1  0
 24 25  1  0
 25 26  1  0
 26 27  2  0
 27 28  1  0
 28 29  2  0
 29 30  1  0
 30 31  2  0
 31 32  1  0
 22 33  2  0
  7 34  1  0
 34 35  1  0
 35  4  1  0
 33  8  1  0
 20 14  1  0
 32 23  1  0
 31 26  1  0
  1 36  1  0
  1 37  1  0
  4 38  1  0
  5 39  1  0
  5 40  1  0
  6 41  1  0
  6 42  1  0
 11 43  1  0
 12 44  1  0
 12 45  1  0
 13 46  1  0
 13 47  1  0
 15 48  1  0
 16 49  1  0
 19 50  1  0
 20 51  1  0
 24 52  1  0
 24 53  1  0
 25 54  1  0
 25 55  1  0
 27 56  1  0
 28 57  1  0
 29 58  1  0
 30 59  1  0
 32 60  1  0
 32 61  1  0
 34 62  1  0
 34 63  1  0
 35 64  1  0
 35 65  1  0
M  END
>  <smiles>  (48) 
NC(=O)C1CCN(c2nc(NCCc3ccc(Cl)cc3)nc(N3CCc4ccccc4C3)n2)CC1

>  <score_type>  (48) 
oracle

>  <origin>  (48) 
autodockgpu

>  <m_score__min__energy>  (48) 
-10.08

>  <m_primary>  (48) 
energy

>  <rmsd>  (48) 
11.914893962889682

>  <m_score__min__rmsd>  (48) 
11.914893962889682

>  <meeko>  (48) 
{"free_energy": -9.46, "intermolecular_energy": -11.54, "internal_energy": -1.51, "cluster_size": 9, "cluster_id": 3, "rank_in_cluster": 3}

>  <energy>  (48) 
-8.54

>  <cluster_rmsd>  (48) 
0.0

>  <cluster>  (48) 
9

$$$$

     RDKit          3D

 65 69  0  0  0  0  0  0  0  0999 V2000
  142.5120   79.0280  222.0170 N   0  0  0  0  0  0  0  0  0  0  0  0
  141.1300   78.8640  222.3120 C   0  0  0  0  0  0  0  0  0  0  0  0
  140.5790   79.5600  223.2000 O   0  0  0  0  0  0  0  0  0  0  0  0
  140.2940   77.8720  221.5850 C   0  0  0  0  0  0  0  0  0  0  0  0
  141.1830   76.9030  220.8590 C   0  0  0  0  0  0  0  0  0  0  0  0
  141.4480   75.6760  221.7010 C   0  0  0  0  0  0  0  0  0  0  0  0
  140.1430   75.0330  221.8530 N   0  0  0  0  0  0  0  0  0  0  0  0
  139.9490   73.6410  221.6260 C   0  0  0  0  0  0  0  0  0  0  0  0
  139.8920   73.1130  220.3900 N   0  0  0  0  0  0  0  0  0  0  0  0
  139.7090   71.8030  220.2650 C   0  0  0  0  0  0  0  0  0  0  0  0
  139.6380   71.1720  218.9670 N   0  0  0  0  0  0  0  0  0  0  0  0
  139.7650   72.0410  217.8300 C   0  0  0  0  0  0  0  0  0  0  0  0
  141.1120   71.8940  217.1960 C   0  0  0  0  0  0  0  0  0  0  0  0
  142.1640   72.2720  218.1420 C   0  0  0  0  0  0  0  0  0  0  0  0
  142.4980   73.6260  218.2150 C   0  0  0  0  0  0  0  0  0  0  0  0
  143.4810   74.0960  219.0590 C   0  0  0  0  0  0  0  0  0  0  0  0
  144.1450   73.1820  219.8510 C   0  0  0  0  0  0  0  0  0  0  0  0
  145.3970   73.7400  220.9340 Cl  0  0  0  0  0  0  0  0  0  0  0  0
  143.8630   71.8410  219.8240 C   0  0  0  0  0  0  0  0  0  0  0  0
  142.8630   71.4230  218.9540 C   0  0  0  0  0  0  0  0  0  0  0  0
  139.5840   71.0320  221.3590 N   0  0  0  0  0  0  0  0  0  0  0  0
  139.6370   71.5410  222.6030 C   0  0  0  0  0  0  0  0  0  0  0  0
  139.4990   70.6890  223.7450 N   0  0  0  0  0  0  0  0  0  0  0  0
  139.3360   69.2720  223.5340 C   0  0  0  0  0  0  0  0  0  0  0  0
  138.7110   68.6740  224.7650 C   0  0  0  0  0  0  0  0  0  0  0  0
  139.5350   69.0020  225.9380 C   0  0  0  0  0  0  0  0  0  0  0  0
  139.9210   68.0730  226.8940 C   0  0  0  0  0  0  0  0  0  0  0  0
  140.7070   68.4820  227.9760 C   0  0  0  0  0  0  0  0  0  0  0  0
  141.1160   69.7880  228.1290 C   0  0  0  0  0  0  0  0  0  0  0  0
  140.7260   70.7000  227.1730 C   0  0  0  0  0  0  0  0  0  0  0  0
  139.9490   70.3000  226.1020 C   0  0  0  0  0  0  0  0  0  0  0  0
  139.5300   71.2870  225.0740 C   0  0  0  0  0  0  0  0  0  0  0  0
  139.8210   72.8510  222.7290 N   0  0  0  0  0  0  0  0  0  0  0  0
  138.9970   75.8150  222.2490 C   0  0  0  0  0  0  0  0  0  0  0  0
  139.2670   77.2580  222.4500 C   0  0  0  0  0  0  0  0  0  0  0  0
  142.8480   79.8850  221.5010 H   0  0  0  0  0  0  0  0  0  0  0  0
  143.2410   78.3110  222.3000 H   0  0  0  0  0  0  0  0  0  0  0  0
  139.6977   78.3844  220.8157 H   0  0  0  0  0  0  0  0  0  0  0  0
  140.6934   76.5978  219.9225 H   0  0  0  0  0  0  0  0  0  0  0  0
  142.1427   77.3977  220.6485 H   0  0  0  0  0  0  0  0  0  0  0  0
  142.1539   75.0030  221.1923 H   0  0  0  0  0  0  0  0  0  0  0  0
  141.8993   75.9301  222.6715 H   0  0  0  0  0  0  0  0  0  0  0  0
  139.5020   70.1590  218.9690 H   0  0  0  0  0  0  0  0  0  0  0  0
  138.9897   71.7856  217.0927 H   0  0  0  0  0  0  0  0  0  0  0  0
  139.6458   73.0814  218.1667 H   0  0  0  0  0  0  0  0  0  0  0  0
  141.2572   70.8470  216.8914 H   0  0  0  0  0  0  0  0  0  0  0  0
  141.1674   72.5537  216.3175 H   0  0  0  0  0  0  0  0  0  0  0  0
  141.9583   74.3416  217.5773 H   0  0  0  0  0  0  0  0  0  0  0  0
  143.7286   75.1670  219.0999 H   0  0  0  0  0  0  0  0  0  0  0  0
  144.4041   71.1273  220.4626 H   0  0  0  0  0  0  0  0  0  0  0  0
  142.6208   70.3506  218.9168 H   0  0  0  0  0  0  0  0  0  0  0  0
  138.6836   69.0990  222.6654 H   0  0  0  0  0  0  0  0  0  0  0  0
  140.3134   68.8048  223.3431 H   0  0  0  0  0  0  0  0  0  0  0  0
  137.6997   69.0851  224.9001 H   0  0  0  0  0  0  0  0  0  0  0  0
  138.6491   67.5815  224.6526 H   0  0  0  0  0  0  0  0  0  0  0  0
  139.6107   67.0217  226.8013 H   0  0  0  0  0  0  0  0  0  0  0  0
  141.0078   67.7376  228.7279 H   0  0  0  0  0  0  0  0  0  0  0  0
  141.7339   70.0930  228.9865 H   0  0  0  0  0  0  0  0  0  0  0  0
  141.0345   71.7521  227.2624 H   0  0  0  0  0  0  0  0  0  0  0  0
  138.5250   71.6585  225.3230 H   0  0  0  0  0  0  0  0  0  0  0  0
  140.2594   72.1104  225.0666 H   0  0  0  0  0  0  0  0  0  0  0  0
  138.2292   75.7164  221.4674 H   0  0  0  0  0  0  0  0  0  0  0  0
  138.6769   75.4217  223.2251 H   0  0  0  0  0  0  0  0  0  0  0  0
  138.3242   77.7991  222.2819 H   0  0  0  0  0  0  0  0  0  0  0  0
  139.6685   77.3352  223.4712 H   0  0  0  0  0  0  0  0  0  0  0  0
  1  2  1  0
  2  3  2  0
  2  4  1  0
  4  5  1  0
  5  6  1  0
  6  7  1  0
  7  8  1  0
  8  9  2  0
  9 10  1  0
 10 11  1  0
 11 12  1  0
 12 13  1  0
 13 14  1  0
 14 15  2  0
 15 16  1  0
 16 17  2  0
 17 18  1  0
 17 19  1  0
 19 20  2  0
 10 21  2  0
 21 22  1  0
 22 23  1  0
 23 24  1  0
 24 25  1  0
 25 26  1  0
 26 27  2  0
 27 28  1  0
 28 29  2  0
 29 30  1  0
 30 31  2  0
 31 32  1  0
 22 33  2  0
  7 34  1  0
 34 35  1  0
 35  4  1  0
 33  8  1  0
 20 14  1  0
 32 23  1  0
 31 26  1  0
  1 36  1  0
  1 37  1  0
  4 38  1  0
  5 39  1  0
  5 40  1  0
  6 41  1  0
  6 42  1  0
 11 43  1  0
 12 44  1  0
 12 45  1  0
 13 46  1  0
 13 47  1  0
 15 48  1  0
 16 49  1  0
 19 50  1  0
 20 51  1  0
 24 52  1  0
 24 53  1  0
 25 54  1  0
 25 55  1  0
 27 56  1  0
 28 57  1  0
 29 58  1  0
 30 59  1  0
 32 60  1  0
 32 61  1  0
 34 62  1  0
 34 63  1  0
 35 64  1  0
 35 65  1  0
M  END
>  <smiles>  (49) 
NC(=O)C1CCN(c2nc(NCCc3ccc(Cl)cc3)nc(N3CCc4ccccc4C3)n2)CC1

>  <score_type>  (49) 
oracle

>  <origin>  (49) 
autodockgpu

>  <m_score__min__energy>  (49) 
-10.08

>  <m_primary>  (49) 
energy

>  <rmsd>  (49) 
11.455022989416149

>  <m_score__min__rmsd>  (49) 
11.455022989416149

>  <meeko>  (49) 
{"free_energy": -8.24, "intermolecular_energy": -10.33, "internal_energy": -1.94, "cluster_size": 5, "cluster_id": 6, "rank_in_cluster": 4}

>  <energy>  (49) 
-8.4

>  <cluster_rmsd>  (49) 
0.0

>  <cluster>  (49) 
10

$$$$

     RDKit          3D

 65 69  0  0  0  0  0  0  0  0999 V2000
  144.7910   71.6110  216.6590 N   0  0  0  0  0  0  0  0  0  0  0  0
  145.6020   72.6140  217.2590 C   0  0  0  0  0  0  0  0  0  0  0  0
  146.6460   73.0160  216.6910 O   0  0  0  0  0  0  0  0  0  0  0  0
  145.2440   73.2190  218.5690 C   0  0  0  0  0  0  0  0  0  0  0  0
  144.0550   74.1200  218.3980 C   0  0  0  0  0  0  0  0  0  0  0  0
  142.7690   73.3800  218.6840 C   0  0  0  0  0  0  0  0  0  0  0  0
  142.8420   73.0260  220.1000 N   0  0  0  0  0  0  0  0  0  0  0  0
  141.7650   73.2640  221.0010 C   0  0  0  0  0  0  0  0  0  0  0  0
  141.1500   74.4570  221.0920 N   0  0  0  0  0  0  0  0  0  0  0  0
  140.1520   74.5960  221.9580 C   0  0  0  0  0  0  0  0  0  0  0  0
  139.4510   75.8500  222.1060 N   0  0  0  0  0  0  0  0  0  0  0  0
  139.2250   76.5980  220.9010 C   0  0  0  0  0  0  0  0  0  0  0  0
  140.5110   77.1450  220.3650 C   0  0  0  0  0  0  0  0  0  0  0  0
  141.0140   78.2070  221.2380 C   0  0  0  0  0  0  0  0  0  0  0  0
  141.3330   77.8550  222.5520 C   0  0  0  0  0  0  0  0  0  0  0  0
  141.8020   78.7730  223.4660 C   0  0  0  0  0  0  0  0  0  0  0  0
  141.9560   80.0790  223.0500 C   0  0  0  0  0  0  0  0  0  0  0  0
  142.5490   81.2710  224.1810 Cl  0  0  0  0  0  0  0  0  0  0  0  0
  141.6600   80.4860  221.7760 C   0  0  0  0  0  0  0  0  0  0  0  0
  141.1900   79.5190  220.8950 C   0  0  0  0  0  0  0  0  0  0  0  0
  139.7740   73.5570  222.7220 N   0  0  0  0  0  0  0  0  0  0  0  0
  140.3750   72.3550  222.6470 C   0  0  0  0  0  0  0  0  0  0  0  0
  139.9460   71.2720  223.4770 N   0  0  0  0  0  0  0  0  0  0  0  0
  139.3110   70.1360  222.8570 C   0  0  0  0  0  0  0  0  0  0  0  0
  138.5090   69.4070  223.9000 C   0  0  0  0  0  0  0  0  0  0  0  0
  139.3860   69.0480  225.0260 C   0  0  0  0  0  0  0  0  0  0  0  0
  139.4240   67.7860  225.6020 C   0  0  0  0  0  0  0  0  0  0  0  0
  140.2930   67.5410  226.6690 C   0  0  0  0  0  0  0  0  0  0  0  0
  141.1220   68.5170  227.1760 C   0  0  0  0  0  0  0  0  0  0  0  0
  141.0740   69.7650  226.5940 C   0  0  0  0  0  0  0  0  0  0  0  0
  140.2160   70.0130  225.5390 C   0  0  0  0  0  0  0  0  0  0  0  0
  140.1680   71.3600  224.9150 C   0  0  0  0  0  0  0  0  0  0  0  0
  141.3740   72.2160  221.7800 N   0  0  0  0  0  0  0  0  0  0  0  0
  144.0350   72.4120  220.6290 C   0  0  0  0  0  0  0  0  0  0  0  0
  145.1220   72.2110  219.6420 C   0  0  0  0  0  0  0  0  0  0  0  0
  144.1990   71.8390  215.8150 H   0  0  0  0  0  0  0  0  0  0  0  0
  144.7540   70.6170  217.0280 H   0  0  0  0  0  0  0  0  0  0  0  0
  146.0694   73.8564  218.9190 H   0  0  0  0  0  0  0  0  0  0  0  0
  144.1438   74.9685  219.0924 H   0  0  0  0  0  0  0  0  0  0  0  0
  144.0310   74.4747  217.3570 H   0  0  0  0  0  0  0  0  0  0  0  0
  141.9001   74.0265  218.4916 H   0  0  0  0  0  0  0  0  0  0  0  0
  142.6511   72.4941  218.0426 H   0  0  0  0  0  0  0  0  0  0  0  0
  139.1750   76.0980  223.0590 H   0  0  0  0  0  0  0  0  0  0  0  0
  138.7718   75.9380  220.1467 H   0  0  0  0  0  0  0  0  0  0  0  0
  138.5526   77.4382  221.1288 H   0  0  0  0  0  0  0  0  0  0  0  0
  141.2549   76.3365  220.3113 H   0  0  0  0  0  0  0  0  0  0  0  0
  140.3330   77.5603  219.3621 H   0  0  0  0  0  0  0  0  0  0  0  0
  141.2053   76.8090  222.8676 H   0  0  0  0  0  0  0  0  0  0  0  0
  142.0462   78.4736  224.4959 H   0  0  0  0  0  0  0  0  0  0  0  0
  141.7887   81.5328  221.4636 H   0  0  0  0  0  0  0  0  0  0  0  0
  140.9466   79.8255  219.8670 H   0  0  0  0  0  0  0  0  0  0  0  0
  138.6462   70.4777  222.0500 H   0  0  0  0  0  0  0  0  0  0  0  0
  140.0722   69.4656  222.4313 H   0  0  0  0  0  0  0  0  0  0  0  0
  137.6971   70.0564  224.2593 H   0  0  0  0  0  0  0  0  0  0  0  0
  138.0794   68.4938  223.4623 H   0  0  0  0  0  0  0  0  0  0  0  0
  138.7746   66.9839  225.2214 H   0  0  0  0  0  0  0  0  0  0  0  0
  140.3155   66.5370  227.1179 H   0  0  0  0  0  0  0  0  0  0  0  0
  141.7994   68.3073  228.0169 H   0  0  0  0  0  0  0  0  0  0  0  0
  141.7227   70.5692  226.9714 H   0  0  0  0  0  0  0  0  0  0  0  0
  139.3482   71.9359  225.3692 H   0  0  0  0  0  0  0  0  0  0  0  0
  141.1348   71.8558  225.0865 H   0  0  0  0  0  0  0  0  0  0  0  0
  144.4201   73.0525  221.4361 H   0  0  0  0  0  0  0  0  0  0  0  0
  143.7403   71.4095  220.9727 H   0  0  0  0  0  0  0  0  0  0  0  0
  146.0735   72.1959  220.1937 H   0  0  0  0  0  0  0  0  0  0  0  0
  144.8720   71.2719  219.1267 H   0  0  0  0  0  0  0  0  0  0  0  0
  1  2  1  0
  2  3  2  0
  2  4  1  0
  4  5  1  0
  5  6  1  0
  6  7  1  0
  7  8  1  0
  8  9  2  0
  9 10  1  0
 10 11  1  0
 11 12  1  0
 12 13  1  0
 13 14  1  0
 14 15  2  0
 15 16  1  0
 16 17  2  0
 17 18  1  0
 17 19  1  0
 19 20  2  0
 10 21  2  0
 21 22  1  0
 22 23  1  0
 23 24  1  0
 24 25  1  0
 25 26  1  0
 26 27  2  0
 27 28  1  0
 28 29  2  0
 29 30  1  0
 30 31  2  0
 31 32  1  0
 22 33  2  0
  7 34  1  0
 34 35  1  0
 35  4  1  0
 33  8  1  0
 20 14  1  0
 32 23  1  0
 31 26  1  0
  1 36  1  0
  1 37  1  0
  4 38  1  0
  5 39  1  0
  5 40  1  0
  6 41  1  0
  6 42  1  0
 11 43  1  0
 12 44  1  0
 12 45  1  0
 13 46  1  0
 13 47  1  0
 15 48  1  0
 16 49  1  0
 19 50  1  0
 20 51  1  0
 24 52  1  0
 24 53  1  0
 25 54  1  0
 25 55  1  0
 27 56  1  0
 28 57  1  0
 29 58  1  0
 30 59  1  0
 32 60  1  0
 32 61  1  0
 34 62  1  0
 34 63  1  0
 35 64  1  0
 35 65  1  0
M  END
>  <smiles>  (50) 
NC(=O)C1CCN(c2nc(NCCc3ccc(Cl)cc3)nc(N3CCc4ccccc4C3)n2)CC1

>  <score_type>  (50) 
oracle

>  <origin>  (50) 
autodockgpu

>  <m_score__min__energy>  (50) 
-10.08

>  <m_primary>  (50) 
energy

>  <rmsd>  (50) 
11.24177171143428

>  <m_score__min__rmsd>  (50) 
11.24177171143428

>  <meeko>  (50) 
{"free_energy": -9.04, "intermolecular_energy": -11.13, "internal_energy": -1.03, "cluster_size": 9, "cluster_id": 3, "rank_in_cluster": 7}

>  <energy>  (50) 
-8.32

>  <cluster_rmsd>  (50) 
1.12

>  <cluster>  (50) 
10

$$$$
