
     RDKit          3D

 48 50  0  0  0  0  0  0  0  0999 V2000
  136.2750   74.6820  222.6680 C   0  0  0  0  0  0  0  0  0  0  0  0
  136.9680   75.6140  223.3530 O   0  0  0  0  0  0  0  0  0  0  0  0
  137.5130   76.7100  222.8250 C   0  0  0  0  0  0  0  0  0  0  0  0
  138.8230   76.6870  222.1280 C   0  0  2  0  0  0  0  0  0  0  0  0
  139.4390   75.4200  222.0550 N   0  0  0  0  0  0  0  0  0  0  0  0
  140.4340   75.2320  221.0110 C   0  0  0  0  0  0  0  0  0  0  0  0
  140.7270   76.1590  220.2140 O   0  0  0  0  0  0  0  0  0  0  0  0
  141.1310   73.9280  220.8630 C   0  0  0  0  0  0  0  0  0  0  0  0
  140.9610   73.0740  221.9900 N   0  0  0  0  0  0  0  0  0  0  0  0
  139.6970   72.5160  222.3140 C   0  0  0  0  0  0  0  0  0  0  0  0
  138.6610   72.7600  221.6040 O   0  0  0  0  0  0  0  0  0  0  0  0
  139.6050   71.6420  223.4950 C   0  0  0  0  0  0  0  0  0  0  0  0
  138.7520   70.5600  223.5150 C   0  0  0  0  0  0  0  0  0  0  0  0
  138.6580   69.7260  224.6320 C   0  0  0  0  0  0  0  0  0  0  0  0
  139.4370   69.9880  225.7430 C   0  0  0  0  0  0  0  0  0  0  0  0
  139.3990   69.2090  226.8820 C   0  0  0  0  0  0  0  0  0  0  0  0
  140.2300   69.5630  227.9510 C   0  0  0  0  0  0  0  0  0  0  0  0
  140.2300   68.8300  229.0930 F   0  0  0  0  0  0  0  0  0  0  0  0
  141.0660   70.6600  227.8730 C   0  0  0  0  0  0  0  0  0  0  0  0
  141.1080   71.4410  226.7380 C   0  0  0  0  0  0  0  0  0  0  0  0
  140.2800   71.0830  225.6810 C   0  0  0  0  0  0  0  0  0  0  0  0
  140.3460   71.8660  224.5890 N   0  0  0  0  0  0  0  0  0  0  0  0
  139.6880   77.7620  222.7120 C   0  0  0  0  0  0  0  0  0  0  0  0
  141.0440   77.6340  222.8570 C   0  0  0  0  0  0  0  0  0  0  0  0
  141.8420   78.6340  223.4010 C   0  0  0  0  0  0  0  0  0  0  0  0
  141.2690   79.8140  223.8220 C   0  0  0  0  0  0  0  0  0  0  0  0
  139.9060   79.9760  223.6900 C   0  0  0  0  0  0  0  0  0  0  0  0
  139.1400   78.9750  223.1480 C   0  0  0  0  0  0  0  0  0  0  0  0
  135.7722   74.0058  223.3750 H   0  0  0  0  0  0  0  0  0  0  0  0
  135.5230   75.1759  222.0351 H   0  0  0  0  0  0  0  0  0  0  0  0
  136.9645   74.1040  222.0351 H   0  0  0  0  0  0  0  0  0  0  0  0
  136.7844   77.0937  222.0956 H   0  0  0  0  0  0  0  0  0  0  0  0
  137.7423   77.3049  223.7214 H   0  0  0  0  0  0  0  0  0  0  0  0
  138.6500   76.9046  221.0637 H   0  0  0  0  0  0  0  0  0  0  0  0
  139.3090   74.5860  222.6530 H   0  0  0  0  0  0  0  0  0  0  0  0
  140.7337   73.4174  219.9734 H   0  0  0  0  0  0  0  0  0  0  0  0
  142.2065   74.1390  220.7699 H   0  0  0  0  0  0  0  0  0  0  0  0
  141.7820   72.8390  222.6100 H   0  0  0  0  0  0  0  0  0  0  0  0
  138.1313   70.3482  222.6319 H   0  0  0  0  0  0  0  0  0  0  0  0
  137.9697   68.8680  224.6271 H   0  0  0  0  0  0  0  0  0  0  0  0
  138.7345   68.3349  226.9475 H   0  0  0  0  0  0  0  0  0  0  0  0
  141.7078   70.9141  228.7295 H   0  0  0  0  0  0  0  0  0  0  0  0
  141.7723   72.3152  226.6714 H   0  0  0  0  0  0  0  0  0  0  0  0
  141.5223   76.6994  222.5288 H   0  0  0  0  0  0  0  0  0  0  0  0
  142.9276   78.4835  223.4950 H   0  0  0  0  0  0  0  0  0  0  0  0
  141.8880   80.6131  224.2559 H   0  0  0  0  0  0  0  0  0  0  0  0
  139.4309   80.9114  224.0205 H   0  0  0  0  0  0  0  0  0  0  0  0
  138.0553   79.1309  223.0523 H   0  0  0  0  0  0  0  0  0  0  0  0
  1  2  1  0
  2  3  1  0
  3  4  1  0
  4  5  1  0
  5  6  1  0
  6  7  2  0
  6  8  1  0
  8  9  1  0
  9 10  1  0
 10 11  2  0
 10 12  1  0
 12 13  2  0
 13 14  1  0
 14 15  2  0
 15 16  1  0
 16 17  2  0
 17 18  1  0
 17 19  1  0
 19 20  2  0
 20 21  1  0
 21 22  2  0
  4 23  1  0
 23 24  2  0
 24 25  1  0
 25 26  2  0
 26 27  1  0
 27 28  2  0
 22 12  1  0
 28 23  1  0
 21 15  1  0
  1 29  1  0
  1 30  1  0
  1 31  1  0
  3 32  1  0
  3 33  1  0
  4 34  1  6
  5 35  1  0
  8 36  1  0
  8 37  1  0
  9 38  1  0
 13 39  1  0
 14 40  1  0
 16 41  1  0
 19 42  1  0
 20 43  1  0
 24 44  1  0
 25 45  1  0
 26 46  1  0
 27 47  1  0
 28 48  1  0
M  END
>  <smiles>  (1) 
COC[C@H](NC(=O)CNC(=O)c1ccc2cc(F)ccc2n1)c1ccccc1

>  <score_type>  (1) 
oracle

>  <origin>  (1) 
autodockgpu

>  <m_score__min__energy>  (1) 
-8.3699999999999992

>  <m_primary>  (1) 
energy

>  <rmsd>  (1) 
4.396600998891936

>  <m_score__min__rmsd>  (1) 
4.396600998891936

>  <meeko>  (1) 
{"free_energy": -7.14, "intermolecular_energy": -9.23, "internal_energy": -2.36, "cluster_size": 30, "cluster_id": 1, "rank_in_cluster": 29}

>  <energy>  (1) 
-8.37

>  <cluster_rmsd>  (1) 
0.0

>  <cluster>  (1) 
1

$$$$

     RDKit          3D

 48 50  0  0  0  0  0  0  0  0999 V2000
  139.2560   72.9160  221.8920 C   0  0  0  0  0  0  0  0  0  0  0  0
  140.0470   72.7530  222.9730 O   0  0  0  0  0  0  0  0  0  0  0  0
  140.5010   71.5840  223.4230 C   0  0  0  0  0  0  0  0  0  0  0  0
  139.6770   70.6870  224.2710 C   0  0  2  0  0  0  0  0  0  0  0  0
  138.2820   70.8440  224.1280 N   0  0  0  0  0  0  0  0  0  0  0  0
  137.4570   69.6820  224.4210 C   0  0  0  0  0  0  0  0  0  0  0  0
  137.9680   68.5930  224.7850 O   0  0  0  0  0  0  0  0  0  0  0  0
  135.9780   69.7600  224.2940 C   0  0  0  0  0  0  0  0  0  0  0  0
  135.4300   70.9380  224.8770 N   0  0  0  0  0  0  0  0  0  0  0  0
  135.5330   72.2010  224.2360 C   0  0  0  0  0  0  0  0  0  0  0  0
  136.1240   72.3270  223.1090 O   0  0  0  0  0  0  0  0  0  0  0  0
  134.9390   73.3690  224.9050 C   0  0  0  0  0  0  0  0  0  0  0  0
  135.4020   74.6430  224.6550 C   0  0  0  0  0  0  0  0  0  0  0  0
  134.8450   75.7580  225.2860 C   0  0  0  0  0  0  0  0  0  0  0  0
  133.8060   75.5850  226.1800 C   0  0  0  0  0  0  0  0  0  0  0  0
  133.2050   76.6380  226.8410 C   0  0  0  0  0  0  0  0  0  0  0  0
  132.1600   76.3510  227.7270 C   0  0  0  0  0  0  0  0  0  0  0  0
  131.5370   77.3500  228.4000 F   0  0  0  0  0  0  0  0  0  0  0  0
  131.7380   75.0520  227.9370 C   0  0  0  0  0  0  0  0  0  0  0  0
  132.3350   73.9970  227.2800 C   0  0  0  0  0  0  0  0  0  0  0  0
  133.3710   74.2910  226.4020 C   0  0  0  0  0  0  0  0  0  0  0  0
  133.9310   73.2380  225.7770 N   0  0  0  0  0  0  0  0  0  0  0  0
  140.1680   70.7900  225.6840 C   0  0  0  0  0  0  0  0  0  0  0  0
  139.8990   69.8460  226.6400 C   0  0  0  0  0  0  0  0  0  0  0  0
  140.3550   69.9470  227.9490 C   0  0  0  0  0  0  0  0  0  0  0  0
  141.1110   71.0340  228.3280 C   0  0  0  0  0  0  0  0  0  0  0  0
  141.4010   72.0030  227.3910 C   0  0  0  0  0  0  0  0  0  0  0  0
  140.9400   71.8810  226.1040 C   0  0  0  0  0  0  0  0  0  0  0  0
  138.2273   73.1280  222.2190 H   0  0  0  0  0  0  0  0  0  0  0  0
  139.6292   73.7561  221.2879 H   0  0  0  0  0  0  0  0  0  0  0  0
  139.2667   71.9968  221.2879 H   0  0  0  0  0  0  0  0  0  0  0  0
  140.7747   70.9984  222.5330 H   0  0  0  0  0  0  0  0  0  0  0  0
  141.2884   71.8997  224.1232 H   0  0  0  0  0  0  0  0  0  0  0  0
  139.8164   69.6551  223.9162 H   0  0  0  0  0  0  0  0  0  0  0  0
  137.7350   71.6790  223.8600 H   0  0  0  0  0  0  0  0  0  0  0  0
  135.7167   69.7437  223.2256 H   0  0  0  0  0  0  0  0  0  0  0  0
  135.5560   68.8993  224.8336 H   0  0  0  0  0  0  0  0  0  0  0  0
  134.9310   70.8920  225.8060 H   0  0  0  0  0  0  0  0  0  0  0  0
  136.2283   74.7849  223.9429 H   0  0  0  0  0  0  0  0  0  0  0  0
  135.2307   76.7658  225.0727 H   0  0  0  0  0  0  0  0  0  0  0  0
  133.5381   77.6733  226.6759 H   0  0  0  0  0  0  0  0  0  0  0  0
  130.9136   74.8568  228.6387 H   0  0  0  0  0  0  0  0  0  0  0  0
  132.0035   72.9612  227.4448 H   0  0  0  0  0  0  0  0  0  0  0  0
  139.2958   68.9700  226.3592 H   0  0  0  0  0  0  0  0  0  0  0  0
  140.1129   69.1614  228.6799 H   0  0  0  0  0  0  0  0  0  0  0  0
  141.4773   71.1276  229.3610 H   0  0  0  0  0  0  0  0  0  0  0  0
  142.0043   72.8775  227.6761 H   0  0  0  0  0  0  0  0  0  0  0  0
  141.1856   72.6683  225.3760 H   0  0  0  0  0  0  0  0  0  0  0  0
  1  2  1  0
  2  3  1  0
  3  4  1  0
  4  5  1  0
  5  6  1  0
  6  7  2  0
  6  8  1  0
  8  9  1  0
  9 10  1  0
 10 11  2  0
 10 12  1  0
 12 13  2  0
 13 14  1  0
 14 15  2  0
 15 16  1  0
 16 17  2  0
 17 18  1  0
 17 19  1  0
 19 20  2  0
 20 21  1  0
 21 22  2  0
  4 23  1  0
 23 24  2  0
 24 25  1  0
 25 26  2  0
 26 27  1  0
 27 28  2  0
 22 12  1  0
 28 23  1  0
 21 15  1  0
  1 29  1  0
  1 30  1  0
  1 31  1  0
  3 32  1  0
  3 33  1  0
  4 34  1  6
  5 35  1  0
  8 36  1  0
  8 37  1  0
  9 38  1  0
 13 39  1  0
 14 40  1  0
 16 41  1  0
 19 42  1  0
 20 43  1  0
 24 44  1  0
 25 45  1  0
 26 46  1  0
 27 47  1  0
 28 48  1  0
M  END
>  <smiles>  (2) 
COC[C@H](NC(=O)CNC(=O)c1ccc2cc(F)ccc2n1)c1ccccc1

>  <score_type>  (2) 
oracle

>  <origin>  (2) 
autodockgpu

>  <m_score__min__energy>  (2) 
-8.3699999999999992

>  <m_primary>  (2) 
energy

>  <rmsd>  (2) 
9.73295044063904

>  <m_score__min__rmsd>  (2) 
9.73295044063904

>  <meeko>  (2) 
{"free_energy": -7.4, "intermolecular_energy": -9.49, "internal_energy": -2.52, "cluster_size": 14, "cluster_id": 2, "rank_in_cluster": 7}

>  <energy>  (2) 
-8.37

>  <cluster_rmsd>  (2) 
1.86

>  <cluster>  (2) 
1

$$$$

     RDKit          3D

 48 50  0  0  0  0  0  0  0  0999 V2000
  138.8390   67.3300  223.2780 C   0  0  0  0  0  0  0  0  0  0  0  0
  139.2070   67.2110  224.5700 O   0  0  0  0  0  0  0  0  0  0  0  0
  139.7350   68.1840  225.3130 C   0  0  0  0  0  0  0  0  0  0  0  0
  138.8980   69.1350  226.0850 C   0  0  2  0  0  0  0  0  0  0  0  0
  137.7550   69.6110  225.4090 N   0  0  0  0  0  0  0  0  0  0  0  0
  137.9710   70.2460  224.1180 C   0  0  0  0  0  0  0  0  0  0  0  0
  139.1240   70.3610  223.6330 O   0  0  0  0  0  0  0  0  0  0  0  0
  136.8210   70.7760  223.3390 C   0  0  0  0  0  0  0  0  0  0  0  0
  135.9730   71.6260  224.1060 N   0  0  0  0  0  0  0  0  0  0  0  0
  134.9460   71.0990  224.9320 C   0  0  0  0  0  0  0  0  0  0  0  0
  134.7420   69.8390  225.0170 O   0  0  0  0  0  0  0  0  0  0  0  0
  134.1140   72.0450  225.6930 C   0  0  0  0  0  0  0  0  0  0  0  0
  133.0840   71.6010  226.4940 C   0  0  0  0  0  0  0  0  0  0  0  0
  132.2890   72.4920  227.2190 C   0  0  0  0  0  0  0  0  0  0  0  0
  132.5370   73.8490  227.1350 C   0  0  0  0  0  0  0  0  0  0  0  0
  131.7950   74.7880  227.8220 C   0  0  0  0  0  0  0  0  0  0  0  0
  132.1310   76.1380  227.6650 C   0  0  0  0  0  0  0  0  0  0  0  0
  131.4330   77.1000  228.3190 F   0  0  0  0  0  0  0  0  0  0  0  0
  133.1760   76.5230  226.8480 C   0  0  0  0  0  0  0  0  0  0  0  0
  133.9200   75.5890  226.1590 C   0  0  0  0  0  0  0  0  0  0  0  0
  133.5800   74.2520  226.3200 C   0  0  0  0  0  0  0  0  0  0  0  0
  134.3270   73.3670  225.6350 N   0  0  0  0  0  0  0  0  0  0  0  0
  139.7860   70.2120  226.6300 C   0  0  0  0  0  0  0  0  0  0  0  0
  139.7620   70.6100  227.9410 C   0  0  0  0  0  0  0  0  0  0  0  0
  140.5870   71.6100  228.4410 C   0  0  0  0  0  0  0  0  0  0  0  0
  141.4750   72.2470  227.6020 C   0  0  0  0  0  0  0  0  0  0  0  0
  141.5260   71.8710  226.2770 C   0  0  0  0  0  0  0  0  0  0  0  0
  140.7020   70.8790  225.8070 C   0  0  0  0  0  0  0  0  0  0  0  0
  137.7936   67.6681  223.2241 H   0  0  0  0  0  0  0  0  0  0  0  0
  139.4880   68.0641  222.7780 H   0  0  0  0  0  0  0  0  0  0  0  0
  138.9353   66.3549  222.7780 H   0  0  0  0  0  0  0  0  0  0  0  0
  140.3909   67.6894  226.0446 H   0  0  0  0  0  0  0  0  0  0  0  0
  140.1780   68.8393  224.5486 H   0  0  0  0  0  0  0  0  0  0  0  0
  138.4413   68.5880  226.9230 H   0  0  0  0  0  0  0  0  0  0  0  0
  136.7580   69.5630  225.6810 H   0  0  0  0  0  0  0  0  0  0  0  0
  137.2107   71.3485  222.4844 H   0  0  0  0  0  0  0  0  0  0  0  0
  136.2179   69.9147  223.0158 H   0  0  0  0  0  0  0  0  0  0  0  0
  136.0980   72.6730  224.0730 H   0  0  0  0  0  0  0  0  0  0  0  0
  132.8836   70.5217  226.5639 H   0  0  0  0  0  0  0  0  0  0  0  0
  131.4716   72.1163  227.8521 H   0  0  0  0  0  0  0  0  0  0  0  0
  130.9631   74.4844  228.4745 H   0  0  0  0  0  0  0  0  0  0  0  0
  133.4183   77.5911  226.7455 H   0  0  0  0  0  0  0  0  0  0  0  0
  134.7520   75.8914  225.5060 H   0  0  0  0  0  0  0  0  0  0  0  0
  139.0587   70.1162  228.6277 H   0  0  0  0  0  0  0  0  0  0  0  0
  140.5314   71.8920  229.5028 H   0  0  0  0  0  0  0  0  0  0  0  0
  142.1323   73.0424  227.9833 H   0  0  0  0  0  0  0  0  0  0  0  0
  142.2300   72.3680  225.5933 H   0  0  0  0  0  0  0  0  0  0  0  0
  140.7633   70.5977  224.7454 H   0  0  0  0  0  0  0  0  0  0  0  0
  1  2  1  0
  2  3  1  0
  3  4  1  0
  4  5  1  0
  5  6  1  0
  6  7  2  0
  6  8  1  0
  8  9  1  0
  9 10  1  0
 10 11  2  0
 10 12  1  0
 12 13  2  0
 13 14  1  0
 14 15  2  0
 15 16  1  0
 16 17  2  0
 17 18  1  0
 17 19  1  0
 19 20  2  0
 20 21  1  0
 21 22  2  0
  4 23  1  0
 23 24  2  0
 24 25  1  0
 25 26  2  0
 26 27  1  0
 27 28  2  0
 22 12  1  0
 28 23  1  0
 21 15  1  0
  1 29  1  0
  1 30  1  0
  1 31  1  0
  3 32  1  0
  3 33  1  0
  4 34  1  1
  5 35  1  0
  8 36  1  0
  8 37  1  0
  9 38  1  0
 13 39  1  0
 14 40  1  0
 16 41  1  0
 19 42  1  0
 20 43  1  0
 24 44  1  0
 25 45  1  0
 26 46  1  0
 27 47  1  0
 28 48  1  0
M  END
>  <smiles>  (3) 
COC[C@H](NC(=O)CNC(=O)c1ccc2cc(F)ccc2n1)c1ccccc1

>  <score_type>  (3) 
oracle

>  <origin>  (3) 
autodockgpu

>  <m_score__min__energy>  (3) 
-8.3699999999999992

>  <m_primary>  (3) 
energy

>  <rmsd>  (3) 
10.11168375262449

>  <m_score__min__rmsd>  (3) 
10.11168375262449

>  <meeko>  (3) 
{"free_energy": -7.4, "intermolecular_energy": -9.49, "internal_energy": -2.19, "cluster_size": 14, "cluster_id": 2, "rank_in_cluster": 6}

>  <energy>  (3) 
-8.32

>  <cluster_rmsd>  (3) 
0.08

>  <cluster>  (3) 
1

$$$$

     RDKit          3D

 48 50  0  0  0  0  0  0  0  0999 V2000
  138.0520   80.1520  223.3630 C   0  0  0  0  0  0  0  0  0  0  0  0
  138.3560   78.9040  222.9530 O   0  0  0  0  0  0  0  0  0  0  0  0
  138.4430   78.5120  221.6820 C   0  0  0  0  0  0  0  0  0  0  0  0
  139.7460   78.3400  220.9930 C   0  0  2  0  0  0  0  0  0  0  0  0
  140.0290   77.0250  220.5660 N   0  0  0  0  0  0  0  0  0  0  0  0
  139.8680   75.9650  221.5500 C   0  0  0  0  0  0  0  0  0  0  0  0
  139.4950   76.2160  222.7240 O   0  0  0  0  0  0  0  0  0  0  0  0
  140.1460   74.5520  221.1840 C   0  0  0  0  0  0  0  0  0  0  0  0
  139.9720   73.6500  222.2730 N   0  0  0  0  0  0  0  0  0  0  0  0
  140.4040   72.3000  222.1940 C   0  0  0  0  0  0  0  0  0  0  0  0
  140.9660   71.8430  221.1400 O   0  0  0  0  0  0  0  0  0  0  0  0
  140.1880   71.4330  223.3630 C   0  0  0  0  0  0  0  0  0  0  0  0
  139.5520   70.2160  223.2390 C   0  0  0  0  0  0  0  0  0  0  0  0
  139.3420   69.3870  224.3430 C   0  0  0  0  0  0  0  0  0  0  0  0
  139.7790   69.7910  225.5900 C   0  0  0  0  0  0  0  0  0  0  0  0
  139.6080   69.0260  226.7260 C   0  0  0  0  0  0  0  0  0  0  0  0
  140.0900   69.5300  227.9400 C   0  0  0  0  0  0  0  0  0  0  0  0
  139.9460   68.8170  229.0850 F   0  0  0  0  0  0  0  0  0  0  0  0
  140.7200   70.7580  228.0030 C   0  0  0  0  0  0  0  0  0  0  0  0
  140.8940   71.5260  226.8720 C   0  0  0  0  0  0  0  0  0  0  0  0
  140.4130   71.0180  225.6710 C   0  0  0  0  0  0  0  0  0  0  0  0
  140.5990   71.7930  224.5870 N   0  0  0  0  0  0  0  0  0  0  0  0
  140.8150   78.9550  221.8450 C   0  0  0  0  0  0  0  0  0  0  0  0
  141.1710   78.4620  223.0720 C   0  0  0  0  0  0  0  0  0  0  0  0
  142.1610   79.0380  223.8590 C   0  0  0  0  0  0  0  0  0  0  0  0
  142.8290   80.1550  223.4080 C   0  0  0  0  0  0  0  0  0  0  0  0
  142.4970   80.6780  222.1770 C   0  0  0  0  0  0  0  0  0  0  0  0
  141.5150   80.0910  221.4180 C   0  0  0  0  0  0  0  0  0  0  0  0
  138.0440   80.1850  224.4625 H   0  0  0  0  0  0  0  0  0  0  0  0
  138.8046   80.8571  222.9805 H   0  0  0  0  0  0  0  0  0  0  0  0
  137.0594   80.4320  222.9805 H   0  0  0  0  0  0  0  0  0  0  0  0
  137.9359   77.5375  221.6264 H   0  0  0  0  0  0  0  0  0  0  0  0
  138.0149   79.3733  221.1482 H   0  0  0  0  0  0  0  0  0  0  0  0
  139.6991   78.8737  220.0323 H   0  0  0  0  0  0  0  0  0  0  0  0
  140.3200   76.6800  219.6360 H   0  0  0  0  0  0  0  0  0  0  0  0
  139.4625   74.2589  220.3735 H   0  0  0  0  0  0  0  0  0  0  0  0
  141.1998   74.4938  220.8739 H   0  0  0  0  0  0  0  0  0  0  0  0
  139.5140   73.9740  223.1660 H   0  0  0  0  0  0  0  0  0  0  0  0
  139.2021   69.8907  222.2481 H   0  0  0  0  0  0  0  0  0  0  0  0
  138.8326   68.4198  224.2208 H   0  0  0  0  0  0  0  0  0  0  0  0
  139.1071   68.0478  226.6789 H   0  0  0  0  0  0  0  0  0  0  0  0
  141.0885   71.1285  228.9710 H   0  0  0  0  0  0  0  0  0  0  0  0
  141.3948   72.5043  226.9180 H   0  0  0  0  0  0  0  0  0  0  0  0
  140.6502   77.5705  223.4515 H   0  0  0  0  0  0  0  0  0  0  0  0
  142.4102   78.6036  224.8384 H   0  0  0  0  0  0  0  0  0  0  0  0
  143.6145   80.6219  224.0204 H   0  0  0  0  0  0  0  0  0  0  0  0
  143.0208   81.5692  221.8011 H   0  0  0  0  0  0  0  0  0  0  0  0
  141.2689   80.5285  220.4392 H   0  0  0  0  0  0  0  0  0  0  0  0
  1  2  1  0
  2  3  1  0
  3  4  1  0
  4  5  1  0
  5  6  1  0
  6  7  2  0
  6  8  1  0
  8  9  1  0
  9 10  1  0
 10 11  2  0
 10 12  1  0
 12 13  2  0
 13 14  1  0
 14 15  2  0
 15 16  1  0
 16 17  2  0
 17 18  1  0
 17 19  1  0
 19 20  2  0
 20 21  1  0
 21 22  2  0
  4 23  1  0
 23 24  2  0
 24 25  1  0
 25 26  2  0
 26 27  1  0
 27 28  2  0
 22 12  1  0
 28 23  1  0
 21 15  1  0
  1 29  1  0
  1 30  1  0
  1 31  1  0
  3 32  1  0
  3 33  1  0
  4 34  1  6
  5 35  1  0
  8 36  1  0
  8 37  1  0
  9 38  1  0
 13 39  1  0
 14 40  1  0
 16 41  1  0
 19 42  1  0
 20 43  1  0
 24 44  1  0
 25 45  1  0
 26 46  1  0
 27 47  1  0
 28 48  1  0
M  END
>  <smiles>  (4) 
COC[C@H](NC(=O)CNC(=O)c1ccc2cc(F)ccc2n1)c1ccccc1

>  <score_type>  (4) 
oracle

>  <origin>  (4) 
autodockgpu

>  <m_score__min__energy>  (4) 
-8.3699999999999992

>  <m_primary>  (4) 
energy

>  <rmsd>  (4) 
3.9815256646264547

>  <m_score__min__rmsd>  (4) 
3.9815256646264547

>  <meeko>  (4) 
{"free_energy": -7.93, "intermolecular_energy": -10.02, "internal_energy": -1.61, "cluster_size": 30, "cluster_id": 1, "rank_in_cluster": 18}

>  <energy>  (4) 
-8.32

>  <cluster_rmsd>  (4) 
0.17

>  <cluster>  (4) 
1

$$$$

     RDKit          3D

 48 50  0  0  0  0  0  0  0  0999 V2000
  135.7330   74.7010  223.4140 C   0  0  0  0  0  0  0  0  0  0  0  0
  136.5660   75.6850  223.8130 O   0  0  0  0  0  0  0  0  0  0  0  0
  136.9330   76.7300  223.0700 C   0  0  0  0  0  0  0  0  0  0  0  0
  138.1210   76.6920  222.1830 C   0  0  2  0  0  0  0  0  0  0  0  0
  138.6290   75.4030  221.9180 N   0  0  0  0  0  0  0  0  0  0  0  0
  138.0790   74.7030  220.7670 C   0  0  0  0  0  0  0  0  0  0  0  0
  137.1930   75.2280  220.0470 O   0  0  0  0  0  0  0  0  0  0  0  0
  138.5580   73.3400  220.4170 C   0  0  0  0  0  0  0  0  0  0  0  0
  138.6240   72.4670  221.5410 N   0  0  0  0  0  0  0  0  0  0  0  0
  139.7250   72.4930  222.4360 C   0  0  0  0  0  0  0  0  0  0  0  0
  140.7010   73.3010  222.2670 O   0  0  0  0  0  0  0  0  0  0  0  0
  139.7160   71.5580  223.5730 C   0  0  0  0  0  0  0  0  0  0  0  0
  139.0810   70.3380  223.4860 C   0  0  0  0  0  0  0  0  0  0  0  0
  139.0670   69.4450  224.5610 C   0  0  0  0  0  0  0  0  0  0  0  0
  139.7020   69.7890  225.7390 C   0  0  0  0  0  0  0  0  0  0  0  0
  139.7310   68.9590  226.8420 C   0  0  0  0  0  0  0  0  0  0  0  0
  140.4020   69.4050  227.9860 C   0  0  0  0  0  0  0  0  0  0  0  0
  140.4600   68.6280  229.0960 F   0  0  0  0  0  0  0  0  0  0  0  0
  141.0220   70.6400  228.0140 C   0  0  0  0  0  0  0  0  0  0  0  0
  140.9960   71.4730  226.9160 C   0  0  0  0  0  0  0  0  0  0  0  0
  140.3270   71.0220  225.7840 C   0  0  0  0  0  0  0  0  0  0  0  0
  140.3220   71.8590  224.7300 N   0  0  0  0  0  0  0  0  0  0  0  0
  139.1360   77.6590  222.7120 C   0  0  0  0  0  0  0  0  0  0  0  0
  140.4860   77.4240  222.6710 C   0  0  0  0  0  0  0  0  0  0  0  0
  141.4230   78.3240  223.1650 C   0  0  0  0  0  0  0  0  0  0  0  0
  141.0040   79.5100  223.7260 C   0  0  0  0  0  0  0  0  0  0  0  0
  139.6530   79.7790  223.7820 C   0  0  0  0  0  0  0  0  0  0  0  0
  138.7460   78.8750  223.2870 C   0  0  0  0  0  0  0  0  0  0  0  0
  135.3086   74.1996  224.2963 H   0  0  0  0  0  0  0  0  0  0  0  0
  134.9202   75.1310  222.8102 H   0  0  0  0  0  0  0  0  0  0  0  0
  136.2912   73.9704  222.8102 H   0  0  0  0  0  0  0  0  0  0  0  0
  136.0745   76.9629  222.4230 H   0  0  0  0  0  0  0  0  0  0  0  0
  137.2428   77.4568  223.8354 H   0  0  0  0  0  0  0  0  0  0  0  0
  137.8095   77.0118  221.1777 H   0  0  0  0  0  0  0  0  0  0  0  0
  139.3640   74.8670  222.4110 H   0  0  0  0  0  0  0  0  0  0  0  0
  137.8701   72.9062  219.6763 H   0  0  0  0  0  0  0  0  0  0  0  0
  139.5786   73.4421  220.0196 H   0  0  0  0  0  0  0  0  0  0  0  0
  137.8460   71.7800  221.7290 H   0  0  0  0  0  0  0  0  0  0  0  0
  138.5740   70.0610  222.5499 H   0  0  0  0  0  0  0  0  0  0  0  0
  138.5545   68.4759  224.4700 H   0  0  0  0  0  0  0  0  0  0  0  0
  139.2404   67.9747  226.8220 H   0  0  0  0  0  0  0  0  0  0  0  0
  141.5443   70.9631  228.9266 H   0  0  0  0  0  0  0  0  0  0  0  0
  141.4862   72.4576  226.9349 H   0  0  0  0  0  0  0  0  0  0  0  0
  140.8431   76.4826  222.2281 H   0  0  0  0  0  0  0  0  0  0  0  0
  142.4962   78.0897  223.1080 H   0  0  0  0  0  0  0  0  0  0  0  0
  141.7347   80.2302  224.1226 H   0  0  0  0  0  0  0  0  0  0  0  0
  139.3003   80.7220  224.2252 H   0  0  0  0  0  0  0  0  0  0  0  0
  137.6739   79.1145  223.3441 H   0  0  0  0  0  0  0  0  0  0  0  0
  1  2  1  0
  2  3  1  0
  3  4  1  0
  4  5  1  0
  5  6  1  0
  6  7  2  0
  6  8  1  0
  8  9  1  0
  9 10  1  0
 10 11  2  0
 10 12  1  0
 12 13  2  0
 13 14  1  0
 14 15  2  0
 15 16  1  0
 16 17  2  0
 17 18  1  0
 17 19  1  0
 19 20  2  0
 20 21  1  0
 21 22  2  0
  4 23  1  0
 23 24  2  0
 24 25  1  0
 25 26  2  0
 26 27  1  0
 27 28  2  0
 22 12  1  0
 28 23  1  0
 21 15  1  0
  1 29  1  0
  1 30  1  0
  1 31  1  0
  3 32  1  0
  3 33  1  0
  4 34  1  6
  5 35  1  0
  8 36  1  0
  8 37  1  0
  9 38  1  0
 13 39  1  0
 14 40  1  0
 16 41  1  0
 19 42  1  0
 20 43  1  0
 24 44  1  0
 25 45  1  0
 26 46  1  0
 27 47  1  0
 28 48  1  0
M  END
>  <smiles>  (5) 
COC[C@H](NC(=O)CNC(=O)c1ccc2cc(F)ccc2n1)c1ccccc1

>  <score_type>  (5) 
oracle

>  <origin>  (5) 
autodockgpu

>  <m_score__min__energy>  (5) 
-8.3699999999999992

>  <m_primary>  (5) 
energy

>  <rmsd>  (5) 
4.6442434006286675

>  <m_score__min__rmsd>  (5) 
4.6442434006286675

>  <meeko>  (5) 
{"free_energy": -7.18, "intermolecular_energy": -9.26, "internal_energy": -2.16, "cluster_size": 30, "cluster_id": 1, "rank_in_cluster": 28}

>  <energy>  (5) 
-8.31

>  <cluster_rmsd>  (5) 
1.59

>  <cluster>  (5) 
1

$$$$

     RDKit          3D

 48 50  0  0  0  0  0  0  0  0999 V2000
  139.4170   72.9320  221.7160 C   0  0  0  0  0  0  0  0  0  0  0  0
  140.0890   72.9440  222.8860 O   0  0  0  0  0  0  0  0  0  0  0  0
  140.6060   71.8730  223.4880 C   0  0  0  0  0  0  0  0  0  0  0  0
  139.7680   70.8990  224.2290 C   0  0  2  0  0  0  0  0  0  0  0  0
  138.3760   71.0540  224.0560 N   0  0  0  0  0  0  0  0  0  0  0  0
  137.5630   69.8510  224.1570 C   0  0  0  0  0  0  0  0  0  0  0  0
  138.0820   68.7310  224.3890 O   0  0  0  0  0  0  0  0  0  0  0  0
  136.0880   69.9250  223.9870 C   0  0  0  0  0  0  0  0  0  0  0  0
  135.5090   71.0580  224.6260 N   0  0  0  0  0  0  0  0  0  0  0  0
  135.6650   72.3670  224.1000 C   0  0  0  0  0  0  0  0  0  0  0  0
  136.3340   72.5780  223.0300 O   0  0  0  0  0  0  0  0  0  0  0  0
  135.0340   73.4840  224.8200 C   0  0  0  0  0  0  0  0  0  0  0  0
  135.4410   74.7850  224.6130 C   0  0  0  0  0  0  0  0  0  0  0  0
  134.8480   75.8520  225.2930 C   0  0  0  0  0  0  0  0  0  0  0  0
  133.8310   75.6020  226.1940 C   0  0  0  0  0  0  0  0  0  0  0  0
  133.1980   76.6040  226.9020 C   0  0  0  0  0  0  0  0  0  0  0  0
  132.1790   76.2410  227.7910 C   0  0  0  0  0  0  0  0  0  0  0  0
  131.5260   77.1880  228.5110 F   0  0  0  0  0  0  0  0  0  0  0  0
  131.8140   74.9200  227.9570 C   0  0  0  0  0  0  0  0  0  0  0  0
  132.4430   73.9150  227.2530 C   0  0  0  0  0  0  0  0  0  0  0  0
  133.4530   74.2840  226.3730 C   0  0  0  0  0  0  0  0  0  0  0  0
  134.0450   73.2790  225.7010 N   0  0  0  0  0  0  0  0  0  0  0  0
  140.2140   70.8850  225.6600 C   0  0  0  0  0  0  0  0  0  0  0  0
  139.8620   69.8980  226.5440 C   0  0  0  0  0  0  0  0  0  0  0  0
  140.2770   69.8900  227.8700 C   0  0  0  0  0  0  0  0  0  0  0  0
  141.0760   70.9080  228.3430 C   0  0  0  0  0  0  0  0  0  0  0  0
  141.4500   71.9160  227.4800 C   0  0  0  0  0  0  0  0  0  0  0  0
  141.0280   71.9010  226.1740 C   0  0  0  0  0  0  0  0  0  0  0  0
  138.3353   72.9127  221.9147 H   0  0  0  0  0  0  0  0  0  0  0  0
  139.6679   73.8348  221.1398 H   0  0  0  0  0  0  0  0  0  0  0  0
  139.7000   72.0388  221.1398 H   0  0  0  0  0  0  0  0  0  0  0  0
  141.1215   71.2995  222.7036 H   0  0  0  0  0  0  0  0  0  0  0  0
  141.1952   72.3288  224.2974 H   0  0  0  0  0  0  0  0  0  0  0  0
  139.9309   69.9029  223.7916 H   0  0  0  0  0  0  0  0  0  0  0  0
  137.8220   71.9100  223.8840 H   0  0  0  0  0  0  0  0  0  0  0  0
  135.8615   69.9755  222.9118 H   0  0  0  0  0  0  0  0  0  0  0  0
  135.6580   69.0279  224.4564 H   0  0  0  0  0  0  0  0  0  0  0  0
  134.9470   70.9420  225.5120 H   0  0  0  0  0  0  0  0  0  0  0  0
  136.2507   74.9875  223.8965 H   0  0  0  0  0  0  0  0  0  0  0  0
  135.1881   76.8824  225.1124 H   0  0  0  0  0  0  0  0  0  0  0  0
  133.4860   77.6576  226.7714 H   0  0  0  0  0  0  0  0  0  0  0  0
  131.0088   74.6652  228.6619 H   0  0  0  0  0  0  0  0  0  0  0  0
  132.1561   72.8611  227.3831 H   0  0  0  0  0  0  0  0  0  0  0  0
  139.2230   69.0764  226.1879 H   0  0  0  0  0  0  0  0  0  0  0  0
  139.9687   69.0738  228.5398 H   0  0  0  0  0  0  0  0  0  0  0  0
  141.4097   70.9163  229.3911 H   0  0  0  0  0  0  0  0  0  0  0  0
  142.0893   72.7357  227.8396 H   0  0  0  0  0  0  0  0  0  0  0  0
  141.3411   72.7175  225.5067 H   0  0  0  0  0  0  0  0  0  0  0  0
  1  2  1  0
  2  3  1  0
  3  4  1  0
  4  5  1  0
  5  6  1  0
  6  7  2  0
  6  8  1  0
  8  9  1  0
  9 10  1  0
 10 11  2  0
 10 12  1  0
 12 13  2  0
 13 14  1  0
 14 15  2  0
 15 16  1  0
 16 17  2  0
 17 18  1  0
 17 19  1  0
 19 20  2  0
 20 21  1  0
 21 22  2  0
  4 23  1  0
 23 24  2  0
 24 25  1  0
 25 26  2  0
 26 27  1  0
 27 28  2  0
 22 12  1  0
 28 23  1  0
 21 15  1  0
  1 29  1  0
  1 30  1  0
  1 31  1  0
  3 32  1  0
  3 33  1  0
  4 34  1  6
  5 35  1  0
  8 36  1  0
  8 37  1  0
  9 38  1  0
 13 39  1  0
 14 40  1  0
 16 41  1  0
 19 42  1  0
 20 43  1  0
 24 44  1  0
 25 45  1  0
 26 46  1  0
 27 47  1  0
 28 48  1  0
M  END
>  <smiles>  (6) 
COC[C@H](NC(=O)CNC(=O)c1ccc2cc(F)ccc2n1)c1ccccc1

>  <score_type>  (6) 
oracle

>  <origin>  (6) 
autodockgpu

>  <m_score__min__energy>  (6) 
-8.3699999999999992

>  <m_primary>  (6) 
energy

>  <rmsd>  (6) 
9.636570082151701

>  <m_score__min__rmsd>  (6) 
9.636570082151701

>  <meeko>  (6) 
{"free_energy": -7.45, "intermolecular_energy": -9.54, "internal_energy": -2.54, "cluster_size": 14, "cluster_id": 2, "rank_in_cluster": 3}

>  <energy>  (6) 
-8.31

>  <cluster_rmsd>  (6) 
1.93

>  <cluster>  (6) 
1

$$$$

     RDKit          3D

 48 50  0  0  0  0  0  0  0  0999 V2000
  139.5650   73.1310  221.7760 C   0  0  0  0  0  0  0  0  0  0  0  0
  140.1220   72.9550  222.9920 O   0  0  0  0  0  0  0  0  0  0  0  0
  140.5610   71.7940  223.4770 C   0  0  0  0  0  0  0  0  0  0  0  0
  139.6840   70.8710  224.2390 C   0  0  2  0  0  0  0  0  0  0  0  0
  138.3000   71.0670  224.0470 N   0  0  0  0  0  0  0  0  0  0  0  0
  137.5690   69.9940  223.3900 C   0  0  0  0  0  0  0  0  0  0  0  0
  138.1490   68.9450  223.0140 O   0  0  0  0  0  0  0  0  0  0  0  0
  136.1080   70.1190  223.1480 C   0  0  0  0  0  0  0  0  0  0  0  0
  135.4960   71.1340  223.9390 N   0  0  0  0  0  0  0  0  0  0  0  0
  135.7620   72.5100  223.7150 C   0  0  0  0  0  0  0  0  0  0  0  0
  136.5630   72.8910  222.7940 O   0  0  0  0  0  0  0  0  0  0  0  0
  135.0890   73.4950  224.5760 C   0  0  0  0  0  0  0  0  0  0  0  0
  135.4590   74.8230  224.5620 C   0  0  0  0  0  0  0  0  0  0  0  0
  134.8260   75.7660  225.3760 C   0  0  0  0  0  0  0  0  0  0  0  0
  133.8060   75.3620  226.2160 C   0  0  0  0  0  0  0  0  0  0  0  0
  133.1340   76.2350  227.0480 C   0  0  0  0  0  0  0  0  0  0  0  0
  132.1160   75.7220  227.8600 C   0  0  0  0  0  0  0  0  0  0  0  0
  131.4260   76.5370  228.6950 F   0  0  0  0  0  0  0  0  0  0  0  0
  131.7890   74.3800  227.8320 C   0  0  0  0  0  0  0  0  0  0  0  0
  132.4560   73.5040  227.0030 C   0  0  0  0  0  0  0  0  0  0  0  0
  133.4650   74.0220  226.2000 C   0  0  0  0  0  0  0  0  0  0  0  0
  134.0960   73.1400  225.4030 N   0  0  0  0  0  0  0  0  0  0  0  0
  140.1170   70.8860  225.6740 C   0  0  0  0  0  0  0  0  0  0  0  0
  139.7180   69.9430  226.5850 C   0  0  0  0  0  0  0  0  0  0  0  0
  140.1200   69.9610  227.9150 C   0  0  0  0  0  0  0  0  0  0  0  0
  140.9560   70.9620  228.3630 C   0  0  0  0  0  0  0  0  0  0  0  0
  141.3760   71.9260  227.4730 C   0  0  0  0  0  0  0  0  0  0  0  0
  140.9660   71.8860  226.1630 C   0  0  0  0  0  0  0  0  0  0  0  0
  138.5222   73.4605  221.8946 H   0  0  0  0  0  0  0  0  0  0  0  0
  140.1299   73.8944  221.2210 H   0  0  0  0  0  0  0  0  0  0  0  0
  139.5887   72.1816  221.2210 H   0  0  0  0  0  0  0  0  0  0  0  0
  140.9318   71.2218  222.6138 H   0  0  0  0  0  0  0  0  0  0  0  0
  141.2709   72.1238  224.2499 H   0  0  0  0  0  0  0  0  0  0  0  0
  139.8169   69.8568  223.8342 H   0  0  0  0  0  0  0  0  0  0  0  0
  137.7000   71.8630  224.3240 H   0  0  0  0  0  0  0  0  0  0  0  0
  135.9481   70.3583  222.0863 H   0  0  0  0  0  0  0  0  0  0  0  0
  135.6456   69.1610  223.4280 H   0  0  0  0  0  0  0  0  0  0  0  0
  134.8270   70.8760  224.7130 H   0  0  0  0  0  0  0  0  0  0  0  0
  136.2711   75.1477  223.8948 H   0  0  0  0  0  0  0  0  0  0  0  0
  135.1370   76.8208  225.3483 H   0  0  0  0  0  0  0  0  0  0  0  0
  133.3915   77.3042  227.0721 H   0  0  0  0  0  0  0  0  0  0  0  0
  130.9841   74.0050  228.4812 H   0  0  0  0  0  0  0  0  0  0  0  0
  132.1992   72.4347  226.9779 H   0  0  0  0  0  0  0  0  0  0  0  0
  139.0501   69.1364  226.2485 H   0  0  0  0  0  0  0  0  0  0  0  0
  139.7728   69.1801  228.6075 H   0  0  0  0  0  0  0  0  0  0  0  0
  141.2820   70.9903  229.4132 H   0  0  0  0  0  0  0  0  0  0  0  0
  142.0431   72.7317  227.8134 H   0  0  0  0  0  0  0  0  0  0  0  0
  141.3172   72.6676  225.4732 H   0  0  0  0  0  0  0  0  0  0  0  0
  1  2  1  0
  2  3  1  0
  3  4  1  0
  4  5  1  0
  5  6  1  0
  6  7  2  0
  6  8  1  0
  8  9  1  0
  9 10  1  0
 10 11  2  0
 10 12  1  0
 12 13  2  0
 13 14  1  0
 14 15  2  0
 15 16  1  0
 16 17  2  0
 17 18  1  0
 17 19  1  0
 19 20  2  0
 20 21  1  0
 21 22  2  0
  4 23  1  0
 23 24  2  0
 24 25  1  0
 25 26  2  0
 26 27  1  0
 27 28  2  0
 22 12  1  0
 28 23  1  0
 21 15  1  0
  1 29  1  0
  1 30  1  0
  1 31  1  0
  3 32  1  0
  3 33  1  0
  4 34  1  6
  5 35  1  0
  8 36  1  0
  8 37  1  0
  9 38  1  0
 13 39  1  0
 14 40  1  0
 16 41  1  0
 19 42  1  0
 20 43  1  0
 24 44  1  0
 25 45  1  0
 26 46  1  0
 27 47  1  0
 28 48  1  0
M  END
>  <smiles>  (7) 
COC[C@H](NC(=O)CNC(=O)c1ccc2cc(F)ccc2n1)c1ccccc1

>  <score_type>  (7) 
oracle

>  <origin>  (7) 
autodockgpu

>  <m_score__min__energy>  (7) 
-8.3699999999999992

>  <m_primary>  (7) 
energy

>  <rmsd>  (7) 
9.512652146419372

>  <m_score__min__rmsd>  (7) 
9.512652146419372

>  <meeko>  (7) 
{"free_energy": -7.19, "intermolecular_energy": -9.28, "internal_energy": -2.44, "cluster_size": 14, "cluster_id": 2, "rank_in_cluster": 13}

>  <energy>  (7) 
-8.29

>  <cluster_rmsd>  (7) 
1.75

>  <cluster>  (7) 
1

$$$$

     RDKit          3D

 48 50  0  0  0  0  0  0  0  0999 V2000
  142.9190   77.1330  217.6090 C   0  0  0  0  0  0  0  0  0  0  0  0
  141.9160   77.1800  218.5100 O   0  0  0  0  0  0  0  0  0  0  0  0
  141.8930   77.9530  219.5960 C   0  0  0  0  0  0  0  0  0  0  0  0
  141.5580   77.4210  220.9400 C   0  0  2  0  0  0  0  0  0  0  0  0
  140.3400   76.7140  221.0160 N   0  0  0  0  0  0  0  0  0  0  0  0
  140.4180   75.2620  220.9710 C   0  0  0  0  0  0  0  0  0  0  0  0
  141.5220   74.6710  220.8680 O   0  0  0  0  0  0  0  0  0  0  0  0
  139.1820   74.4400  221.0450 C   0  0  0  0  0  0  0  0  0  0  0  0
  139.1720   73.5480  222.1560 N   0  0  0  0  0  0  0  0  0  0  0  0
  140.0140   72.4060  222.1980 C   0  0  0  0  0  0  0  0  0  0  0  0
  140.8140   72.1340  221.2380 O   0  0  0  0  0  0  0  0  0  0  0  0
  139.9430   71.5350  223.3820 C   0  0  0  0  0  0  0  0  0  0  0  0
  139.2800   70.3270  223.3390 C   0  0  0  0  0  0  0  0  0  0  0  0
  139.2070   69.4950  224.4580 C   0  0  0  0  0  0  0  0  0  0  0  0
  139.8110   69.8870  225.6380 C   0  0  0  0  0  0  0  0  0  0  0  0
  139.7810   69.1170  226.7840 C   0  0  0  0  0  0  0  0  0  0  0  0
  140.4250   69.6090  227.9250 C   0  0  0  0  0  0  0  0  0  0  0  0
  140.4260   68.8920  229.0760 F   0  0  0  0  0  0  0  0  0  0  0  0
  141.0750   70.8280  227.9090 C   0  0  0  0  0  0  0  0  0  0  0  0
  141.1070   71.6010  226.7670 C   0  0  0  0  0  0  0  0  0  0  0  0
  140.4650   71.1050  225.6390 C   0  0  0  0  0  0  0  0  0  0  0  0
  140.5170   71.8830  224.5420 N   0  0  0  0  0  0  0  0  0  0  0  0
  141.6890   78.5340  221.9350 C   0  0  0  0  0  0  0  0  0  0  0  0
  141.4610   78.3700  223.2760 C   0  0  0  0  0  0  0  0  0  0  0  0
  141.5820   79.4060  224.1940 C   0  0  0  0  0  0  0  0  0  0  0  0
  141.9450   80.6630  223.7630 C   0  0  0  0  0  0  0  0  0  0  0  0
  142.1830   80.8640  222.4200 C   0  0  0  0  0  0  0  0  0  0  0  0
  142.0570   79.8240  221.5320 C   0  0  0  0  0  0  0  0  0  0  0  0
  143.8835   77.0878  218.1360 H   0  0  0  0  0  0  0  0  0  0  0  0
  142.8036   76.2393  216.9782 H   0  0  0  0  0  0  0  0  0  0  0  0
  142.8877   78.0336  216.9782 H   0  0  0  0  0  0  0  0  0  0  0  0
  142.8982   78.3914  219.6816 H   0  0  0  0  0  0  0  0  0  0  0  0
  141.0349   78.6097  219.3903 H   0  0  0  0  0  0  0  0  0  0  0  0
  142.2826   76.6312  221.1875 H   0  0  0  0  0  0  0  0  0  0  0  0
  139.3740   77.0690  221.1230 H   0  0  0  0  0  0  0  0  0  0  0  0
  138.3171   75.1144  221.1292 H   0  0  0  0  0  0  0  0  0  0  0  0
  139.1386   73.8284  220.1317 H   0  0  0  0  0  0  0  0  0  0  0  0
  138.5310   73.7240  222.9750 H   0  0  0  0  0  0  0  0  0  0  0  0
  138.7977   70.0115  222.4021 H   0  0  0  0  0  0  0  0  0  0  0  0
  138.6730   68.5350  224.4010 H   0  0  0  0  0  0  0  0  0  0  0  0
  139.2659   68.1452  226.7996 H   0  0  0  0  0  0  0  0  0  0  0  0
  141.5745   71.1876  228.8207 H   0  0  0  0  0  0  0  0  0  0  0  0
  141.6213   72.5732  226.7500 H   0  0  0  0  0  0  0  0  0  0  0  0
  141.1694   77.3745  223.6420 H   0  0  0  0  0  0  0  0  0  0  0  0
  141.3886   79.2230  225.2613 H   0  0  0  0  0  0  0  0  0  0  0  0
  142.0434   81.4927  224.4785 H   0  0  0  0  0  0  0  0  0  0  0  0
  142.4749   81.8610  222.0584 H   0  0  0  0  0  0  0  0  0  0  0  0
  142.2522   80.0108  220.4657 H   0  0  0  0  0  0  0  0  0  0  0  0
  1  2  1  0
  2  3  1  0
  3  4  1  0
  4  5  1  0
  5  6  1  0
  6  7  2  0
  6  8  1  0
  8  9  1  0
  9 10  1  0
 10 11  2  0
 10 12  1  0
 12 13  2  0
 13 14  1  0
 14 15  2  0
 15 16  1  0
 16 17  2  0
 17 18  1  0
 17 19  1  0
 19 20  2  0
 20 21  1  0
 21 22  2  0
  4 23  1  0
 23 24  2  0
 24 25  1  0
 25 26  2  0
 26 27  1  0
 27 28  2  0
 22 12  1  0
 28 23  1  0
 21 15  1  0
  1 29  1  0
  1 30  1  0
  1 31  1  0
  3 32  1  0
  3 33  1  0
  4 34  1  1
  5 35  1  0
  8 36  1  0
  8 37  1  0
  9 38  1  0
 13 39  1  0
 14 40  1  0
 16 41  1  0
 19 42  1  0
 20 43  1  0
 24 44  1  0
 25 45  1  0
 26 46  1  0
 27 47  1  0
 28 48  1  0
M  END
>  <smiles>  (8) 
COC[C@H](NC(=O)CNC(=O)c1ccc2cc(F)ccc2n1)c1ccccc1

>  <score_type>  (8) 
oracle

>  <origin>  (8) 
autodockgpu

>  <m_score__min__energy>  (8) 
-8.3699999999999992

>  <m_primary>  (8) 
energy

>  <rmsd>  (8) 
3.899844146074602

>  <m_score__min__rmsd>  (8) 
3.899844146074602

>  <meeko>  (8) 
{"free_energy": -8.04, "intermolecular_energy": -10.13, "internal_energy": -1.16, "cluster_size": 30, "cluster_id": 1, "rank_in_cluster": 15}

>  <energy>  (8) 
-8.29

>  <cluster_rmsd>  (8) 
1.84

>  <cluster>  (8) 
1

$$$$

     RDKit          3D

 48 50  0  0  0  0  0  0  0  0999 V2000
  142.5210   77.9710  217.0910 C   0  0  0  0  0  0  0  0  0  0  0  0
  141.7400   78.0770  218.1860 O   0  0  0  0  0  0  0  0  0  0  0  0
  142.1720   78.3650  219.4130 C   0  0  0  0  0  0  0  0  0  0  0  0
  141.7460   77.5900  220.6050 C   0  0  2  0  0  0  0  0  0  0  0  0
  140.7150   76.6550  220.3740 N   0  0  0  0  0  0  0  0  0  0  0  0
  140.5790   75.5750  221.3380 C   0  0  0  0  0  0  0  0  0  0  0  0
  141.3460   75.4840  222.3300 O   0  0  0  0  0  0  0  0  0  0  0  0
  139.5190   74.5460  221.1700 C   0  0  0  0  0  0  0  0  0  0  0  0
  139.4650   73.6200  222.2500 N   0  0  0  0  0  0  0  0  0  0  0  0
  140.2760   72.4550  222.2700 C   0  0  0  0  0  0  0  0  0  0  0  0
  141.0860   72.1930  221.3170 O   0  0  0  0  0  0  0  0  0  0  0  0
  140.1600   71.5490  223.4240 C   0  0  0  0  0  0  0  0  0  0  0  0
  139.5570   70.3150  223.3020 C   0  0  0  0  0  0  0  0  0  0  0  0
  139.4420   69.4490  224.3920 C   0  0  0  0  0  0  0  0  0  0  0  0
  139.9420   69.8330  225.6220 C   0  0  0  0  0  0  0  0  0  0  0  0
  139.8660   69.0310  226.7430 C   0  0  0  0  0  0  0  0  0  0  0  0
  140.4050   69.5170  227.9400 C   0  0  0  0  0  0  0  0  0  0  0  0
  140.3550   68.7690  229.0700 F   0  0  0  0  0  0  0  0  0  0  0  0
  140.9980   70.7630  228.0020 C   0  0  0  0  0  0  0  0  0  0  0  0
  141.0770   71.5680  226.8850 C   0  0  0  0  0  0  0  0  0  0  0  0
  140.5400   71.0780  225.7010 C   0  0  0  0  0  0  0  0  0  0  0  0
  140.6340   71.8880  224.6310 N   0  0  0  0  0  0  0  0  0  0  0  0
  141.4680   78.5530  221.7190 C   0  0  0  0  0  0  0  0  0  0  0  0
  140.2160   78.7550  222.2390 C   0  0  0  0  0  0  0  0  0  0  0  0
  139.9630   79.6500  223.2710 C   0  0  0  0  0  0  0  0  0  0  0  0
  140.9990   80.3800  223.8130 C   0  0  0  0  0  0  0  0  0  0  0  0
  142.2720   80.2010  223.3150 C   0  0  0  0  0  0  0  0  0  0  0  0
  142.4960   79.3090  222.2950 C   0  0  0  0  0  0  0  0  0  0  0  0
  143.5673   77.8290  217.3993 H   0  0  0  0  0  0  0  0  0  0  0  0
  142.1954   77.1088  216.4905 H   0  0  0  0  0  0  0  0  0  0  0  0
  142.4370   78.8888  216.4905 H   0  0  0  0  0  0  0  0  0  0  0  0
  143.2691   78.2933  219.3766 H   0  0  0  0  0  0  0  0  0  0  0  0
  141.7023   79.3426  219.5966 H   0  0  0  0  0  0  0  0  0  0  0  0
  142.5745   76.9289  220.8992 H   0  0  0  0  0  0  0  0  0  0  0  0
  140.0080   76.6230  219.6190 H   0  0  0  0  0  0  0  0  0  0  0  0
  138.5462   75.0541  221.0952 H   0  0  0  0  0  0  0  0  0  0  0  0
  139.7561   73.9757  220.2598 H   0  0  0  0  0  0  0  0  0  0  0  0
  138.8140   73.7860  223.0630 H   0  0  0  0  0  0  0  0  0  0  0  0
  139.1577   70.0057  222.3248 H   0  0  0  0  0  0  0  0  0  0  0  0
  138.9572   68.4689  224.2723 H   0  0  0  0  0  0  0  0  0  0  0  0
  139.3951   68.0379  226.6969 H   0  0  0  0  0  0  0  0  0  0  0  0
  141.4134   71.1185  228.9565 H   0  0  0  0  0  0  0  0  0  0  0  0
  141.5477   72.5612  226.9298 H   0  0  0  0  0  0  0  0  0  0  0  0
  139.3745   78.1833  221.8208 H   0  0  0  0  0  0  0  0  0  0  0  0
  138.9396   79.7756  223.6542 H   0  0  0  0  0  0  0  0  0  0  0  0
  140.8131   81.0935  224.6293 H   0  0  0  0  0  0  0  0  0  0  0  0
  143.1110   80.7744  223.7360 H   0  0  0  0  0  0  0  0  0  0  0  0
  143.5212   79.1839  221.9165 H   0  0  0  0  0  0  0  0  0  0  0  0
  1  2  1  0
  2  3  1  0
  3  4  1  0
  4  5  1  0
  5  6  1  0
  6  7  2  0
  6  8  1  0
  8  9  1  0
  9 10  1  0
 10 11  2  0
 10 12  1  0
 12 13  2  0
 13 14  1  0
 14 15  2  0
 15 16  1  0
 16 17  2  0
 17 18  1  0
 17 19  1  0
 19 20  2  0
 20 21  1  0
 21 22  2  0
  4 23  1  0
 23 24  2  0
 24 25  1  0
 25 26  2  0
 26 27  1  0
 27 28  2  0
 22 12  1  0
 28 23  1  0
 21 15  1  0
  1 29  1  0
  1 30  1  0
  1 31  1  0
  3 32  1  0
  3 33  1  0
  4 34  1  1
  5 35  1  0
  8 36  1  0
  8 37  1  0
  9 38  1  0
 13 39  1  0
 14 40  1  0
 16 41  1  0
 19 42  1  0
 20 43  1  0
 24 44  1  0
 25 45  1  0
 26 46  1  0
 27 47  1  0
 28 48  1  0
M  END
>  <smiles>  (9) 
COC[C@H](NC(=O)CNC(=O)c1ccc2cc(F)ccc2n1)c1ccccc1

>  <score_type>  (9) 
oracle

>  <origin>  (9) 
autodockgpu

>  <m_score__min__energy>  (9) 
-8.3699999999999992

>  <m_primary>  (9) 
energy

>  <rmsd>  (9) 
3.8623698129525423

>  <m_score__min__rmsd>  (9) 
3.8623698129525423

>  <meeko>  (9) 
{"free_energy": -7.96, "intermolecular_energy": -10.04, "internal_energy": -1.46, "cluster_size": 30, "cluster_id": 1, "rank_in_cluster": 16}

>  <energy>  (9) 
-8.29

>  <cluster_rmsd>  (9) 
1.86

>  <cluster>  (9) 
1

$$$$

     RDKit          3D

 48 50  0  0  0  0  0  0  0  0999 V2000
  139.5330   72.9360  221.6750 C   0  0  0  0  0  0  0  0  0  0  0  0
  140.2360   72.9340  222.8270 O   0  0  0  0  0  0  0  0  0  0  0  0
  140.6980   71.8470  223.4440 C   0  0  0  0  0  0  0  0  0  0  0  0
  139.8070   70.9070  224.1690 C   0  0  2  0  0  0  0  0  0  0  0  0
  138.4280   71.0940  223.9380 N   0  0  0  0  0  0  0  0  0  0  0  0
  137.5780   69.9180  224.0480 C   0  0  0  0  0  0  0  0  0  0  0  0
  138.0560   68.7920  224.3360 O   0  0  0  0  0  0  0  0  0  0  0  0
  136.1130   70.0250  223.8200 C   0  0  0  0  0  0  0  0  0  0  0  0
  135.5250   71.1390  224.4860 N   0  0  0  0  0  0  0  0  0  0  0  0
  135.7220   72.4670  224.0250 C   0  0  0  0  0  0  0  0  0  0  0  0
  136.4370   72.7140  222.9940 O   0  0  0  0  0  0  0  0  0  0  0  0
  135.0790   73.5620  224.7690 C   0  0  0  0  0  0  0  0  0  0  0  0
  135.4740   74.8710  224.5920 C   0  0  0  0  0  0  0  0  0  0  0  0
  134.8700   75.9160  225.2940 C   0  0  0  0  0  0  0  0  0  0  0  0
  133.8540   75.6370  226.1880 C   0  0  0  0  0  0  0  0  0  0  0  0
  133.2100   76.6170  226.9170 C   0  0  0  0  0  0  0  0  0  0  0  0
  132.1930   76.2250  227.7950 C   0  0  0  0  0  0  0  0  0  0  0  0
  131.5300   77.1480  228.5340 F   0  0  0  0  0  0  0  0  0  0  0  0
  131.8400   74.8960  227.9310 C   0  0  0  0  0  0  0  0  0  0  0  0
  132.4800   73.9140  227.2060 C   0  0  0  0  0  0  0  0  0  0  0  0
  133.4880   74.3110  226.3360 C   0  0  0  0  0  0  0  0  0  0  0  0
  134.0910   73.3280  225.6430 N   0  0  0  0  0  0  0  0  0  0  0  0
  140.1970   70.9080  225.6160 C   0  0  0  0  0  0  0  0  0  0  0  0
  139.7490   69.9720  226.5110 C   0  0  0  0  0  0  0  0  0  0  0  0
  140.1120   69.9770  227.8530 C   0  0  0  0  0  0  0  0  0  0  0  0
  140.9560   70.9570  228.3290 C   0  0  0  0  0  0  0  0  0  0  0  0
  141.4260   71.9140  227.4550 C   0  0  0  0  0  0  0  0  0  0  0  0
  141.0540   71.8860  226.1340 C   0  0  0  0  0  0  0  0  0  0  0  0
  138.4567   72.9391  221.9022 H   0  0  0  0  0  0  0  0  0  0  0  0
  139.7872   73.8334  221.0919 H   0  0  0  0  0  0  0  0  0  0  0  0
  139.7821   72.0371  221.0919 H   0  0  0  0  0  0  0  0  0  0  0  0
  141.2096   71.2515  222.6735 H   0  0  0  0  0  0  0  0  0  0  0  0
  141.2846   72.2839  224.2656 H   0  0  0  0  0  0  0  0  0  0  0  0
  139.9609   69.8988  223.7569 H   0  0  0  0  0  0  0  0  0  0  0  0
  137.9050   71.9590  223.7170 H   0  0  0  0  0  0  0  0  0  0  0  0
  135.9331   70.1278  222.7397 H   0  0  0  0  0  0  0  0  0  0  0  0
  135.6494   69.1153  224.2292 H   0  0  0  0  0  0  0  0  0  0  0  0
  134.9260   70.9930  225.3420 H   0  0  0  0  0  0  0  0  0  0  0  0
  136.2831   75.0972  223.8819 H   0  0  0  0  0  0  0  0  0  0  0  0
  135.2004   76.9533  225.1366 H   0  0  0  0  0  0  0  0  0  0  0  0
  133.4884   77.6759  226.8107 H   0  0  0  0  0  0  0  0  0  0  0  0
  131.0361   74.6176  228.6284 H   0  0  0  0  0  0  0  0  0  0  0  0
  132.2029   72.8548  227.3122 H   0  0  0  0  0  0  0  0  0  0  0  0
  139.0727   69.1823  226.1520 H   0  0  0  0  0  0  0  0  0  0  0  0
  139.7272   69.2019  228.5321 H   0  0  0  0  0  0  0  0  0  0  0  0
  141.2498   70.9753  229.3889 H   0  0  0  0  0  0  0  0  0  0  0  0
  142.1015   72.7028  227.8175 H   0  0  0  0  0  0  0  0  0  0  0  0
  141.4438   72.6608  225.4574 H   0  0  0  0  0  0  0  0  0  0  0  0
  1  2  1  0
  2  3  1  0
  3  4  1  0
  4  5  1  0
  5  6  1  0
  6  7  2  0
  6  8  1  0
  8  9  1  0
  9 10  1  0
 10 11  2  0
 10 12  1  0
 12 13  2  0
 13 14  1  0
 14 15  2  0
 15 16  1  0
 16 17  2  0
 17 18  1  0
 17 19  1  0
 19 20  2  0
 20 21  1  0
 21 22  2  0
  4 23  1  0
 23 24  2  0
 24 25  1  0
 25 26  2  0
 26 27  1  0
 27 28  2  0
 22 12  1  0
 28 23  1  0
 21 15  1  0
  1 29  1  0
  1 30  1  0
  1 31  1  0
  3 32  1  0
  3 33  1  0
  4 34  1  6
  5 35  1  0
  8 36  1  0
  8 37  1  0
  9 38  1  0
 13 39  1  0
 14 40  1  0
 16 41  1  0
 19 42  1  0
 20 43  1  0
 24 44  1  0
 25 45  1  0
 26 46  1  0
 27 47  1  0
 28 48  1  0
M  END
>  <smiles>  (10) 
COC[C@H](NC(=O)CNC(=O)c1ccc2cc(F)ccc2n1)c1ccccc1

>  <score_type>  (10) 
oracle

>  <origin>  (10) 
autodockgpu

>  <m_score__min__energy>  (10) 
-8.3699999999999992

>  <m_primary>  (10) 
energy

>  <rmsd>  (10) 
9.588094264247415

>  <m_score__min__rmsd>  (10) 
9.588094264247415

>  <meeko>  (10) 
{"free_energy": -7.4, "intermolecular_energy": -9.49, "internal_energy": -2.55, "cluster_size": 14, "cluster_id": 2, "rank_in_cluster": 5}

>  <energy>  (10) 
-8.29

>  <cluster_rmsd>  (10) 
1.71

>  <cluster>  (10) 
1

$$$$

     RDKit          3D

 48 50  0  0  0  0  0  0  0  0999 V2000
  139.5990   73.1280  221.7840 C   0  0  0  0  0  0  0  0  0  0  0  0
  140.3060   72.9200  222.9130 O   0  0  0  0  0  0  0  0  0  0  0  0
  140.6540   71.7260  223.3940 C   0  0  0  0  0  0  0  0  0  0  0  0
  139.7090   70.8720  224.1540 C   0  0  2  0  0  0  0  0  0  0  0  0
  138.3430   71.1100  223.8910 N   0  0  0  0  0  0  0  0  0  0  0  0
  137.4930   69.9420  223.7170 C   0  0  0  0  0  0  0  0  0  0  0  0
  137.9600   68.7780  223.7990 O   0  0  0  0  0  0  0  0  0  0  0  0
  136.0430   70.1030  223.4360 C   0  0  0  0  0  0  0  0  0  0  0  0
  135.4420   71.1520  224.1900 N   0  0  0  0  0  0  0  0  0  0  0  0
  135.6640   72.5170  223.8690 C   0  0  0  0  0  0  0  0  0  0  0  0
  136.4130   72.8560  222.8900 O   0  0  0  0  0  0  0  0  0  0  0  0
  135.0050   73.5400  224.6970 C   0  0  0  0  0  0  0  0  0  0  0  0
  135.3840   74.8630  224.6290 C   0  0  0  0  0  0  0  0  0  0  0  0
  134.7650   75.8410  225.4110 C   0  0  0  0  0  0  0  0  0  0  0  0
  133.7490   75.4770  226.2750 C   0  0  0  0  0  0  0  0  0  0  0  0
  133.0900   76.3870  227.0780 C   0  0  0  0  0  0  0  0  0  0  0  0
  132.0760   75.9120  227.9170 C   0  0  0  0  0  0  0  0  0  0  0  0
  131.3980   76.7640  228.7260 F   0  0  0  0  0  0  0  0  0  0  0  0
  131.7390   74.5730  227.9430 C   0  0  0  0  0  0  0  0  0  0  0  0
  132.3930   73.6600  227.1430 C   0  0  0  0  0  0  0  0  0  0  0  0
  133.3990   74.1400  226.3130 C   0  0  0  0  0  0  0  0  0  0  0  0
  134.0160   73.2230  225.5450 N   0  0  0  0  0  0  0  0  0  0  0  0
  140.0780   70.9340  225.6050 C   0  0  0  0  0  0  0  0  0  0  0  0
  140.8670   71.9210  226.1350 C   0  0  0  0  0  0  0  0  0  0  0  0
  141.2090   71.9730  227.4810 C   0  0  0  0  0  0  0  0  0  0  0  0
  140.7470   71.0020  228.3420 C   0  0  0  0  0  0  0  0  0  0  0  0
  139.9490   69.9940  227.8420 C   0  0  0  0  0  0  0  0  0  0  0  0
  139.6250   69.9650  226.5090 C   0  0  0  0  0  0  0  0  0  0  0  0
  138.5736   73.4297  222.0438 H   0  0  0  0  0  0  0  0  0  0  0  0
  140.0768   73.9236  221.1935 H   0  0  0  0  0  0  0  0  0  0  0  0
  139.5698   72.2004  221.1935 H   0  0  0  0  0  0  0  0  0  0  0  0
  140.9781   71.1295  222.5285 H   0  0  0  0  0  0  0  0  0  0  0  0
  141.3883   71.9969  224.1669 H   0  0  0  0  0  0  0  0  0  0  0  0
  139.8203   69.8369  223.7989 H   0  0  0  0  0  0  0  0  0  0  0  0
  137.8300   72.0060  223.8190 H   0  0  0  0  0  0  0  0  0  0  0  0
  135.9159   70.3235  222.3659 H   0  0  0  0  0  0  0  0  0  0  0  0
  135.5463   69.1648  223.7243 H   0  0  0  0  0  0  0  0  0  0  0  0
  134.8140   70.9290  225.0070 H   0  0  0  0  0  0  0  0  0  0  0  0
  136.1926   75.1557  223.9431 H   0  0  0  0  0  0  0  0  0  0  0  0
  135.0832   76.8916  225.3400 H   0  0  0  0  0  0  0  0  0  0  0  0
  133.3546   77.4545  227.0586 H   0  0  0  0  0  0  0  0  0  0  0  0
  130.9364   74.2295  228.6122 H   0  0  0  0  0  0  0  0  0  0  0  0
  132.1286   72.5924  227.1611 H   0  0  0  0  0  0  0  0  0  0  0  0
  141.2465   72.7069  225.4655 H   0  0  0  0  0  0  0  0  0  0  0  0
  141.8464   72.7866  227.8575 H   0  0  0  0  0  0  0  0  0  0  0  0
  141.0099   71.0299  229.4098 H   0  0  0  0  0  0  0  0  0  0  0  0
  139.5708   69.2102  228.5147 H   0  0  0  0  0  0  0  0  0  0  0  0
  138.9860   69.1507  226.1367 H   0  0  0  0  0  0  0  0  0  0  0  0
  1  2  1  0
  2  3  1  0
  3  4  1  0
  4  5  1  0
  5  6  1  0
  6  7  2  0
  6  8  1  0
  8  9  1  0
  9 10  1  0
 10 11  2  0
 10 12  1  0
 12 13  2  0
 13 14  1  0
 14 15  2  0
 15 16  1  0
 16 17  2  0
 17 18  1  0
 17 19  1  0
 19 20  2  0
 20 21  1  0
 21 22  2  0
  4 23  1  0
 23 24  2  0
 24 25  1  0
 25 26  2  0
 26 27  1  0
 27 28  2  0
 22 12  1  0
 28 23  1  0
 21 15  1  0
  1 29  1  0
  1 30  1  0
  1 31  1  0
  3 32  1  0
  3 33  1  0
  4 34  1  6
  5 35  1  0
  8 36  1  0
  8 37  1  0
  9 38  1  0
 13 39  1  0
 14 40  1  0
 16 41  1  0
 19 42  1  0
 20 43  1  0
 24 44  1  0
 25 45  1  0
 26 46  1  0
 27 47  1  0
 28 48  1  0
M  END
>  <smiles>  (11) 
COC[C@H](NC(=O)CNC(=O)c1ccc2cc(F)ccc2n1)c1ccccc1

>  <score_type>  (11) 
oracle

>  <origin>  (11) 
autodockgpu

>  <m_score__min__energy>  (11) 
-8.3699999999999992

>  <m_primary>  (11) 
energy

>  <rmsd>  (11) 
9.72655128163122

>  <m_score__min__rmsd>  (11) 
9.72655128163122

>  <meeko>  (11) 
{"free_energy": -7.31, "intermolecular_energy": -9.4, "internal_energy": -2.54, "cluster_size": 14, "cluster_id": 2, "rank_in_cluster": 9}

>  <energy>  (11) 
-8.27

>  <cluster_rmsd>  (11) 
1.53

>  <cluster>  (11) 
1

$$$$

     RDKit          3D

 48 50  0  0  0  0  0  0  0  0999 V2000
  142.1720   80.4330  218.6660 C   0  0  0  0  0  0  0  0  0  0  0  0
  141.4290   79.4180  219.1540 O   0  0  0  0  0  0  0  0  0  0  0  0
  141.8860   78.1990  219.4430 C   0  0  0  0  0  0  0  0  0  0  0  0
  141.4580   77.4600  220.6560 C   0  0  2  0  0  0  0  0  0  0  0  0
  140.3730   76.5790  220.4680 N   0  0  0  0  0  0  0  0  0  0  0  0
  140.2550   75.4710  221.4040 C   0  0  0  0  0  0  0  0  0  0  0  0
  141.0850   75.3120  222.3340 O   0  0  0  0  0  0  0  0  0  0  0  0
  139.1410   74.4960  221.2780 C   0  0  0  0  0  0  0  0  0  0  0  0
  139.1180   73.5360  222.3300 N   0  0  0  0  0  0  0  0  0  0  0  0
  140.1420   72.5630  222.4710 C   0  0  0  0  0  0  0  0  0  0  0  0
  141.1250   72.5110  221.6540 O   0  0  0  0  0  0  0  0  0  0  0  0
  140.0440   71.6090  223.5860 C   0  0  0  0  0  0  0  0  0  0  0  0
  139.4190   70.3910  223.4270 C   0  0  0  0  0  0  0  0  0  0  0  0
  139.3210   69.4780  224.4810 C   0  0  0  0  0  0  0  0  0  0  0  0
  139.8610   69.8010  225.7110 C   0  0  0  0  0  0  0  0  0  0  0  0
  139.8040   68.9510  226.7980 C   0  0  0  0  0  0  0  0  0  0  0  0
  140.3820   69.3760  227.9990 C   0  0  0  0  0  0  0  0  0  0  0  0
  140.3530   68.5780  229.0960 F   0  0  0  0  0  0  0  0  0  0  0  0
  140.9970   70.6090  228.0990 C   0  0  0  0  0  0  0  0  0  0  0  0
  141.0570   71.4620  227.0170 C   0  0  0  0  0  0  0  0  0  0  0  0
  140.4800   71.0320  225.8280 C   0  0  0  0  0  0  0  0  0  0  0  0
  140.5570   71.8880  224.7930 N   0  0  0  0  0  0  0  0  0  0  0  0
  141.2680   78.4470  221.7680 C   0  0  0  0  0  0  0  0  0  0  0  0
  140.1050   78.5500  222.4850 C   0  0  0  0  0  0  0  0  0  0  0  0
  139.9320   79.4680  223.5140 C   0  0  0  0  0  0  0  0  0  0  0  0
  140.9590   80.3250  223.8460 C   0  0  0  0  0  0  0  0  0  0  0  0
  142.1440   80.2470  223.1450 C   0  0  0  0  0  0  0  0  0  0  0  0
  142.2900   79.3310  222.1330 C   0  0  0  0  0  0  0  0  0  0  0  0
  142.5955   81.0115  219.5003 H   0  0  0  0  0  0  0  0  0  0  0  0
  142.9879   80.0270  218.0499 H   0  0  0  0  0  0  0  0  0  0  0  0
  141.5384   81.0880  218.0499 H   0  0  0  0  0  0  0  0  0  0  0  0
  141.6219   77.5614  218.5864 H   0  0  0  0  0  0  0  0  0  0  0  0
  142.9460   78.3981  219.6593 H   0  0  0  0  0  0  0  0  0  0  0  0
  142.2592   76.7586  220.9318 H   0  0  0  0  0  0  0  0  0  0  0  0
  139.6140   76.6050  219.7650 H   0  0  0  0  0  0  0  0  0  0  0  0
  138.1897   75.0481  221.2868 H   0  0  0  0  0  0  0  0  0  0  0  0
  139.2897   73.9475  220.3362 H   0  0  0  0  0  0  0  0  0  0  0  0
  138.3310   73.5340  223.0320 H   0  0  0  0  0  0  0  0  0  0  0  0
  138.9877   70.1315  222.4489 H   0  0  0  0  0  0  0  0  0  0  0  0
  138.8184   68.5109  224.3324 H   0  0  0  0  0  0  0  0  0  0  0  0
  139.3177   67.9673  226.7216 H   0  0  0  0  0  0  0  0  0  0  0  0
  141.4454   70.9149  229.0557 H   0  0  0  0  0  0  0  0  0  0  0  0
  141.5433   72.4458  227.0922 H   0  0  0  0  0  0  0  0  0  0  0  0
  139.2718   77.8767  222.2353 H   0  0  0  0  0  0  0  0  0  0  0  0
  138.9789   79.5104  224.0615 H   0  0  0  0  0  0  0  0  0  0  0  0
  140.8356   81.0587  224.6562 H   0  0  0  0  0  0  0  0  0  0  0  0
  142.9755   80.9214  223.3977 H   0  0  0  0  0  0  0  0  0  0  0  0
  143.2452   79.2902  221.5890 H   0  0  0  0  0  0  0  0  0  0  0  0
  1  2  1  0
  2  3  1  0
  3  4  1  0
  4  5  1  0
  5  6  1  0
  6  7  2  0
  6  8  1  0
  8  9  1  0
  9 10  1  0
 10 11  2  0
 10 12  1  0
 12 13  2  0
 13 14  1  0
 14 15  2  0
 15 16  1  0
 16 17  2  0
 17 18  1  0
 17 19  1  0
 19 20  2  0
 20 21  1  0
 21 22  2  0
  4 23  1  0
 23 24  2  0
 24 25  1  0
 25 26  2  0
 26 27  1  0
 27 28  2  0
 22 12  1  0
 28 23  1  0
 21 15  1  0
  1 29  1  0
  1 30  1  0
  1 31  1  0
  3 32  1  0
  3 33  1  0
  4 34  1  1
  5 35  1  0
  8 36  1  0
  8 37  1  0
  9 38  1  0
 13 39  1  0
 14 40  1  0
 16 41  1  0
 19 42  1  0
 20 43  1  0
 24 44  1  0
 25 45  1  0
 26 46  1  0
 27 47  1  0
 28 48  1  0
M  END
>  <smiles>  (12) 
COC[C@H](NC(=O)CNC(=O)c1ccc2cc(F)ccc2n1)c1ccccc1

>  <score_type>  (12) 
oracle

>  <origin>  (12) 
autodockgpu

>  <m_score__min__energy>  (12) 
-8.3699999999999992

>  <m_primary>  (12) 
energy

>  <rmsd>  (12) 
3.9110770854925487

>  <m_score__min__rmsd>  (12) 
3.9110770854925487

>  <meeko>  (12) 
{"free_energy": -8.17, "intermolecular_energy": -10.26, "internal_energy": -1.28, "cluster_size": 30, "cluster_id": 1, "rank_in_cluster": 14}

>  <energy>  (12) 
-8.21

>  <cluster_rmsd>  (12) 
1.64

>  <cluster>  (12) 
1

$$$$

     RDKit          3D

 48 50  0  0  0  0  0  0  0  0999 V2000
  139.3530   72.7840  221.6690 C   0  0  0  0  0  0  0  0  0  0  0  0
  139.9820   72.9230  222.8540 O   0  0  0  0  0  0  0  0  0  0  0  0
  140.4980   71.9270  223.5730 C   0  0  0  0  0  0  0  0  0  0  0  0
  139.6500   70.9060  224.2360 C   0  0  2  0  0  0  0  0  0  0  0  0
  138.2610   71.0840  224.0710 N   0  0  0  0  0  0  0  0  0  0  0  0
  137.4950   69.9240  223.6390 C   0  0  0  0  0  0  0  0  0  0  0  0
  138.0520   68.8180  223.4260 O   0  0  0  0  0  0  0  0  0  0  0  0
  136.0260   70.0250  223.4400 C   0  0  0  0  0  0  0  0  0  0  0  0
  135.4300   71.0690  224.2040 N   0  0  0  0  0  0  0  0  0  0  0  0
  135.5980   72.4340  223.8520 C   0  0  0  0  0  0  0  0  0  0  0  0
  136.2920   72.7770  222.8340 O   0  0  0  0  0  0  0  0  0  0  0  0
  134.9480   73.4520  224.6920 C   0  0  0  0  0  0  0  0  0  0  0  0
  135.3320   74.7750  224.6330 C   0  0  0  0  0  0  0  0  0  0  0  0
  134.7220   75.7480  225.4280 C   0  0  0  0  0  0  0  0  0  0  0  0
  133.7100   75.3810  226.2940 C   0  0  0  0  0  0  0  0  0  0  0  0
  133.0600   76.2860  227.1100 C   0  0  0  0  0  0  0  0  0  0  0  0
  132.0480   75.8080  227.9510 C   0  0  0  0  0  0  0  0  0  0  0  0
  131.3790   76.6560  228.7710 F   0  0  0  0  0  0  0  0  0  0  0  0
  131.7060   74.4700  227.9670 C   0  0  0  0  0  0  0  0  0  0  0  0
  132.3520   73.5620  227.1550 C   0  0  0  0  0  0  0  0  0  0  0  0
  133.3550   74.0450  226.3230 C   0  0  0  0  0  0  0  0  0  0  0  0
  133.9640   73.1320  225.5430 N   0  0  0  0  0  0  0  0  0  0  0  0
  140.0910   70.7790  225.6630 C   0  0  0  0  0  0  0  0  0  0  0  0
  139.9310   69.6330  226.3960 C   0  0  0  0  0  0  0  0  0  0  0  0
  140.3390   69.5210  227.7200 C   0  0  0  0  0  0  0  0  0  0  0  0
  140.9330   70.5950  228.3460 C   0  0  0  0  0  0  0  0  0  0  0  0
  141.1110   71.7640  227.6360 C   0  0  0  0  0  0  0  0  0  0  0  0
  140.7000   71.8500  226.3300 C   0  0  0  0  0  0  0  0  0  0  0  0
  138.2923   72.5496  221.8422 H   0  0  0  0  0  0  0  0  0  0  0  0
  139.4330   73.7215  221.0992 H   0  0  0  0  0  0  0  0  0  0  0  0
  139.8207   71.9675  221.0992 H   0  0  0  0  0  0  0  0  0  0  0  0
  141.1686   71.3764  222.8969 H   0  0  0  0  0  0  0  0  0  0  0  0
  140.9230   72.4640  224.4338 H   0  0  0  0  0  0  0  0  0  0  0  0
  139.8071   69.9448  223.7248 H   0  0  0  0  0  0  0  0  0  0  0  0
  137.6780   71.9240  224.2300 H   0  0  0  0  0  0  0  0  0  0  0  0
  135.8291   70.2145  222.3745 H   0  0  0  0  0  0  0  0  0  0  0  0
  135.5828   69.0766  223.7780 H   0  0  0  0  0  0  0  0  0  0  0  0
  134.8470   70.8430  225.0530 H   0  0  0  0  0  0  0  0  0  0  0  0
  136.1370   75.0709  223.9442 H   0  0  0  0  0  0  0  0  0  0  0  0
  135.0446   76.7977  225.3651 H   0  0  0  0  0  0  0  0  0  0  0  0
  133.3298   77.3523  227.0994 H   0  0  0  0  0  0  0  0  0  0  0  0
  130.9060   74.1234  228.6378 H   0  0  0  0  0  0  0  0  0  0  0  0
  132.0836   72.4953  227.1653 H   0  0  0  0  0  0  0  0  0  0  0  0
  139.4589   68.7632  225.9158 H   0  0  0  0  0  0  0  0  0  0  0  0
  140.1882   68.5781  228.2661 H   0  0  0  0  0  0  0  0  0  0  0  0
  141.2596   70.5215  229.3938 H   0  0  0  0  0  0  0  0  0  0  0  0
  141.5847   72.6313  228.1192 H   0  0  0  0  0  0  0  0  0  0  0  0
  140.8542   72.7940  225.7868 H   0  0  0  0  0  0  0  0  0  0  0  0
  1  2  1  0
  2  3  1  0
  3  4  1  0
  4  5  1  0
  5  6  1  0
  6  7  2  0
  6  8  1  0
  8  9  1  0
  9 10  1  0
 10 11  2  0
 10 12  1  0
 12 13  2  0
 13 14  1  0
 14 15  2  0
 15 16  1  0
 16 17  2  0
 17 18  1  0
 17 19  1  0
 19 20  2  0
 20 21  1  0
 21 22  2  0
  4 23  1  0
 23 24  2  0
 24 25  1  0
 25 26  2  0
 26 27  1  0
 27 28  2  0
 22 12  1  0
 28 23  1  0
 21 15  1  0
  1 29  1  0
  1 30  1  0
  1 31  1  0
  3 32  1  0
  3 33  1  0
  4 34  1  6
  5 35  1  0
  8 36  1  0
  8 37  1  0
  9 38  1  0
 13 39  1  0
 14 40  1  0
 16 41  1  0
 19 42  1  0
 20 43  1  0
 24 44  1  0
 25 45  1  0
 26 46  1  0
 27 47  1  0
 28 48  1  0
M  END
>  <smiles>  (13) 
COC[C@H](NC(=O)CNC(=O)c1ccc2cc(F)ccc2n1)c1ccccc1

>  <score_type>  (13) 
oracle

>  <origin>  (13) 
autodockgpu

>  <m_score__min__energy>  (13) 
-8.3699999999999992

>  <m_primary>  (13) 
energy

>  <rmsd>  (13) 
9.648552602665857

>  <m_score__min__rmsd>  (13) 
9.648552602665857

>  <meeko>  (13) 
{"free_energy": -7.29, "intermolecular_energy": -9.38, "internal_energy": -2.48, "cluster_size": 14, "cluster_id": 2, "rank_in_cluster": 11}

>  <energy>  (13) 
-8.19

>  <cluster_rmsd>  (13) 
1.57

>  <cluster>  (13) 
1

$$$$

     RDKit          3D

 48 50  0  0  0  0  0  0  0  0999 V2000
  142.2800   78.3040  216.9400 C   0  0  0  0  0  0  0  0  0  0  0  0
  141.5540   78.2130  218.0730 O   0  0  0  0  0  0  0  0  0  0  0  0
  141.9910   78.5210  219.2940 C   0  0  0  0  0  0  0  0  0  0  0  0
  141.7160   77.6630  220.4730 C   0  0  2  0  0  0  0  0  0  0  0  0
  140.7570   76.6490  220.2650 N   0  0  0  0  0  0  0  0  0  0  0  0
  140.6270   75.6440  221.3090 C   0  0  0  0  0  0  0  0  0  0  0  0
  141.3370   75.6820  222.3450 O   0  0  0  0  0  0  0  0  0  0  0  0
  139.6410   74.5400  221.1690 C   0  0  0  0  0  0  0  0  0  0  0  0
  139.6580   73.6360  222.2700 N   0  0  0  0  0  0  0  0  0  0  0  0
  139.7970   72.2360  222.0790 C   0  0  0  0  0  0  0  0  0  0  0  0
  139.9130   71.7340  220.9080 O   0  0  0  0  0  0  0  0  0  0  0  0
  139.8050   71.3700  223.2690 C   0  0  0  0  0  0  0  0  0  0  0  0
  139.2890   70.0930  223.2230 C   0  0  0  0  0  0  0  0  0  0  0  0
  139.2920   69.2650  224.3480 C   0  0  0  0  0  0  0  0  0  0  0  0
  139.8230   69.7320  225.5350 C   0  0  0  0  0  0  0  0  0  0  0  0
  139.8610   68.9720  226.6870 C   0  0  0  0  0  0  0  0  0  0  0  0
  140.4210   69.5420  227.8360 C   0  0  0  0  0  0  0  0  0  0  0  0
  140.4830   68.8380  228.9930 F   0  0  0  0  0  0  0  0  0  0  0  0
  140.9240   70.8290  227.8210 C   0  0  0  0  0  0  0  0  0  0  0  0
  140.8890   71.5930  226.6740 C   0  0  0  0  0  0  0  0  0  0  0  0
  140.3310   71.0190  225.5380 C   0  0  0  0  0  0  0  0  0  0  0  0
  140.3120   71.7910  224.4360 N   0  0  0  0  0  0  0  0  0  0  0  0
  141.4310   78.5510  221.6470 C   0  0  0  0  0  0  0  0  0  0  0  0
  140.2020   78.6250  222.2470 C   0  0  0  0  0  0  0  0  0  0  0  0
  139.9420   79.4520  223.3340 C   0  0  0  0  0  0  0  0  0  0  0  0
  140.9460   80.2420  223.8480 C   0  0  0  0  0  0  0  0  0  0  0  0
  142.1960   80.1920  223.2680 C   0  0  0  0  0  0  0  0  0  0  0  0
  142.4280   79.3660  222.1960 C   0  0  0  0  0  0  0  0  0  0  0  0
  143.3418   78.4371  217.1946 H   0  0  0  0  0  0  0  0  0  0  0  0
  142.1569   77.3834  216.3507 H   0  0  0  0  0  0  0  0  0  0  0  0
  141.9334   79.1657  216.3507 H   0  0  0  0  0  0  0  0  0  0  0  0
  143.0858   78.5962  219.2181 H   0  0  0  0  0  0  0  0  0  0  0  0
  141.4045   79.4223  219.5258 H   0  0  0  0  0  0  0  0  0  0  0  0
  142.6172   77.0680  220.6823 H   0  0  0  0  0  0  0  0  0  0  0  0
  140.1000   76.5120  219.4780 H   0  0  0  0  0  0  0  0  0  0  0  0
  138.6346   74.9768  221.0895 H   0  0  0  0  0  0  0  0  0  0  0  0
  139.9125   73.9682  220.2694 H   0  0  0  0  0  0  0  0  0  0  0  0
  139.5660   73.9960  223.2570 H   0  0  0  0  0  0  0  0  0  0  0  0
  138.8655   69.7175  222.2798 H   0  0  0  0  0  0  0  0  0  0  0  0
  138.8748   68.2489  224.2894 H   0  0  0  0  0  0  0  0  0  0  0  0
  139.4622   67.9469  226.7014 H   0  0  0  0  0  0  0  0  0  0  0  0
  141.3593   71.2506  228.7390 H   0  0  0  0  0  0  0  0  0  0  0  0
  141.2877   72.6181  226.6585 H   0  0  0  0  0  0  0  0  0  0  0  0
  139.3852   78.0032  221.8517 H   0  0  0  0  0  0  0  0  0  0  0  0
  138.9376   79.4752  223.7819 H   0  0  0  0  0  0  0  0  0  0  0  0
  140.7540   80.9019  224.7069 H   0  0  0  0  0  0  0  0  0  0  0  0
  143.0101   80.8160  223.6655 H   0  0  0  0  0  0  0  0  0  0  0  0
  143.4343   79.3439  221.7523 H   0  0  0  0  0  0  0  0  0  0  0  0
  1  2  1  0
  2  3  1  0
  3  4  1  0
  4  5  1  0
  5  6  1  0
  6  7  2  0
  6  8  1  0
  8  9  1  0
  9 10  1  0
 10 11  2  0
 10 12  1  0
 12 13  2  0
 13 14  1  0
 14 15  2  0
 15 16  1  0
 16 17  2  0
 17 18  1  0
 17 19  1  0
 19 20  2  0
 20 21  1  0
 21 22  2  0
  4 23  1  0
 23 24  2  0
 24 25  1  0
 25 26  2  0
 26 27  1  0
 27 28  2  0
 22 12  1  0
 28 23  1  0
 21 15  1  0
  1 29  1  0
  1 30  1  0
  1 31  1  0
  3 32  1  0
  3 33  1  0
  4 34  1  1
  5 35  1  0
  8 36  1  0
  8 37  1  0
  9 38  1  0
 13 39  1  0
 14 40  1  0
 16 41  1  0
 19 42  1  0
 20 43  1  0
 24 44  1  0
 25 45  1  0
 26 46  1  0
 27 47  1  0
 28 48  1  0
M  END
>  <smiles>  (14) 
COC[C@H](NC(=O)CNC(=O)c1ccc2cc(F)ccc2n1)c1ccccc1

>  <score_type>  (14) 
oracle

>  <origin>  (14) 
autodockgpu

>  <m_score__min__energy>  (14) 
-8.3699999999999992

>  <m_primary>  (14) 
energy

>  <rmsd>  (14) 
3.8637404552425467

>  <m_score__min__rmsd>  (14) 
3.8637404552425467

>  <meeko>  (14) 
{"free_energy": -7.63, "intermolecular_energy": -9.72, "internal_energy": -1.71, "cluster_size": 30, "cluster_id": 1, "rank_in_cluster": 22}

>  <energy>  (14) 
-8.17

>  <cluster_rmsd>  (14) 
1.77

>  <cluster>  (14) 
1

$$$$

     RDKit          3D

 48 50  0  0  0  0  0  0  0  0999 V2000
  142.3290   80.1810  218.2790 C   0  0  0  0  0  0  0  0  0  0  0  0
  141.7330   79.4890  219.2710 O   0  0  0  0  0  0  0  0  0  0  0  0
  142.0000   78.2230  219.5940 C   0  0  0  0  0  0  0  0  0  0  0  0
  141.5160   77.6080  220.8550 C   0  0  2  0  0  0  0  0  0  0  0  0
  140.3650   76.8040  220.7250 N   0  0  0  0  0  0  0  0  0  0  0  0
  140.4060   75.4910  221.3510 C   0  0  0  0  0  0  0  0  0  0  0  0
  141.4220   75.0980  221.9770 O   0  0  0  0  0  0  0  0  0  0  0  0
  139.2350   74.5790  221.2610 C   0  0  0  0  0  0  0  0  0  0  0  0
  139.1860   73.6300  222.3220 N   0  0  0  0  0  0  0  0  0  0  0  0
  140.0840   72.5320  222.3780 C   0  0  0  0  0  0  0  0  0  0  0  0
  140.9730   72.3540  221.4760 O   0  0  0  0  0  0  0  0  0  0  0  0
  139.9670   71.5970  223.5090 C   0  0  0  0  0  0  0  0  0  0  0  0
  139.3100   70.3930  223.3710 C   0  0  0  0  0  0  0  0  0  0  0  0
  139.1940   69.5000  224.4390 C   0  0  0  0  0  0  0  0  0  0  0  0
  139.7480   69.8260  225.6620 C   0  0  0  0  0  0  0  0  0  0  0  0
  139.6740   68.9940  226.7610 C   0  0  0  0  0  0  0  0  0  0  0  0
  140.2690   69.4220  227.9540 C   0  0  0  0  0  0  0  0  0  0  0  0
  140.2250   68.6430  229.0620 F   0  0  0  0  0  0  0  0  0  0  0  0
  140.9150   70.6410  228.0320 C   0  0  0  0  0  0  0  0  0  0  0  0
  140.9920   71.4750  226.9370 C   0  0  0  0  0  0  0  0  0  0  0  0
  140.3980   71.0430  225.7570 C   0  0  0  0  0  0  0  0  0  0  0  0
  140.4930   71.8810  224.7090 N   0  0  0  0  0  0  0  0  0  0  0  0
  141.4040   78.6840  221.8920 C   0  0  0  0  0  0  0  0  0  0  0  0
  142.4800   79.4000  222.3460 C   0  0  0  0  0  0  0  0  0  0  0  0
  142.3720   80.3960  223.3100 C   0  0  0  0  0  0  0  0  0  0  0  0
  141.1400   80.6930  223.8500 C   0  0  0  0  0  0  0  0  0  0  0  0
  140.0350   79.9920  223.4150 C   0  0  0  0  0  0  0  0  0  0  0  0
  140.1680   79.0140  222.4610 C   0  0  0  0  0  0  0  0  0  0  0  0
  142.9890   80.9473  218.7117 H   0  0  0  0  0  0  0  0  0  0  0  0
  142.9226   79.4940  217.6580 H   0  0  0  0  0  0  0  0  0  0  0  0
  141.5616   80.6662  217.6580 H   0  0  0  0  0  0  0  0  0  0  0  0
  141.5960   77.6065  218.7774 H   0  0  0  0  0  0  0  0  0  0  0  0
  143.0873   78.2540  219.7581 H   0  0  0  0  0  0  0  0  0  0  0  0
  142.2600   76.8676  221.1841 H   0  0  0  0  0  0  0  0  0  0  0  0
  139.4630   77.0090  220.2600 H   0  0  0  0  0  0  0  0  0  0  0  0
  138.3166   75.1839  221.2890 H   0  0  0  0  0  0  0  0  0  0  0  0
  139.3276   74.0164  220.3203 H   0  0  0  0  0  0  0  0  0  0  0  0
  138.4730   73.7290  223.0930 H   0  0  0  0  0  0  0  0  0  0  0  0
  138.8675   70.1297  222.3989 H   0  0  0  0  0  0  0  0  0  0  0  0
  138.6655   68.5443  224.3072 H   0  0  0  0  0  0  0  0  0  0  0  0
  139.1620   68.0222  226.7012 H   0  0  0  0  0  0  0  0  0  0  0  0
  141.3747   70.9506  228.9821 H   0  0  0  0  0  0  0  0  0  0  0  0
  141.5046   72.4465  226.9950 H   0  0  0  0  0  0  0  0  0  0  0  0
  143.4734   79.1771  221.9294 H   0  0  0  0  0  0  0  0  0  0  0  0
  143.2665   80.9445  223.6401 H   0  0  0  0  0  0  0  0  0  0  0  0
  141.0393   81.4764  224.6156 H   0  0  0  0  0  0  0  0  0  0  0  0
  139.0432   80.2174  223.8341 H   0  0  0  0  0  0  0  0  0  0  0  0
  139.2707   78.4696  222.1315 H   0  0  0  0  0  0  0  0  0  0  0  0
  1  2  1  0
  2  3  1  0
  3  4  1  0
  4  5  1  0
  5  6  1  0
  6  7  2  0
  6  8  1  0
  8  9  1  0
  9 10  1  0
 10 11  2  0
 10 12  1  0
 12 13  2  0
 13 14  1  0
 14 15  2  0
 15 16  1  0
 16 17  2  0
 17 18  1  0
 17 19  1  0
 19 20  2  0
 20 21  1  0
 21 22  2  0
  4 23  1  0
 23 24  2  0
 24 25  1  0
 25 26  2  0
 26 27  1  0
 27 28  2  0
 22 12  1  0
 28 23  1  0
 21 15  1  0
  1 29  1  0
  1 30  1  0
  1 31  1  0
  3 32  1  0
  3 33  1  0
  4 34  1  1
  5 35  1  0
  8 36  1  0
  8 37  1  0
  9 38  1  0
 13 39  1  0
 14 40  1  0
 16 41  1  0
 19 42  1  0
 20 43  1  0
 24 44  1  0
 25 45  1  0
 26 46  1  0
 27 47  1  0
 28 48  1  0
M  END
>  <smiles>  (15) 
COC[C@H](NC(=O)CNC(=O)c1ccc2cc(F)ccc2n1)c1ccccc1

>  <score_type>  (15) 
oracle

>  <origin>  (15) 
autodockgpu

>  <m_score__min__energy>  (15) 
-8.3699999999999992

>  <m_primary>  (15) 
energy

>  <rmsd>  (15) 
4.0352423502553405

>  <m_score__min__rmsd>  (15) 
4.0352423502553405

>  <meeko>  (15) 
{"free_energy": -8.29, "intermolecular_energy": -10.38, "internal_energy": -1.23, "cluster_size": 30, "cluster_id": 1, "rank_in_cluster": 7}

>  <energy>  (15) 
-8.04

>  <cluster_rmsd>  (15) 
1.72

>  <cluster>  (15) 
1

$$$$

     RDKit          3D

 48 50  0  0  0  0  0  0  0  0999 V2000
  142.9310   76.1940  218.6960 C   0  0  0  0  0  0  0  0  0  0  0  0
  142.9420   77.3720  219.3530 O   0  0  0  0  0  0  0  0  0  0  0  0
  141.8910   77.9250  219.9590 C   0  0  0  0  0  0  0  0  0  0  0  0
  141.4440   77.5010  221.3090 C   0  0  2  0  0  0  0  0  0  0  0  0
  140.2580   76.7380  221.3340 N   0  0  0  0  0  0  0  0  0  0  0  0
  140.4000   75.2970  221.1920 C   0  0  0  0  0  0  0  0  0  0  0  0
  141.5290   74.7630  221.0540 O   0  0  0  0  0  0  0  0  0  0  0  0
  139.2010   74.4180  221.2060 C   0  0  0  0  0  0  0  0  0  0  0  0
  139.2060   73.4870  222.2840 N   0  0  0  0  0  0  0  0  0  0  0  0
  140.1200   72.4010  222.3220 C   0  0  0  0  0  0  0  0  0  0  0  0
  140.9730   72.2180  221.3870 O   0  0  0  0  0  0  0  0  0  0  0  0
  140.0600   71.4840  223.4710 C   0  0  0  0  0  0  0  0  0  0  0  0
  139.4750   70.2400  223.3590 C   0  0  0  0  0  0  0  0  0  0  0  0
  139.4130   69.3630  224.4450 C   0  0  0  0  0  0  0  0  0  0  0  0
  139.9480   69.7470  225.6600 C   0  0  0  0  0  0  0  0  0  0  0  0
  139.9250   68.9350  226.7760 C   0  0  0  0  0  0  0  0  0  0  0  0
  140.4950   69.4210  227.9580 C   0  0  0  0  0  0  0  0  0  0  0  0
  140.4980   68.6630  229.0830 F   0  0  0  0  0  0  0  0  0  0  0  0
  141.0680   70.6780  228.0100 C   0  0  0  0  0  0  0  0  0  0  0  0
  141.0940   71.4930  226.8990 C   0  0  0  0  0  0  0  0  0  0  0  0
  140.5250   71.0020  225.7290 C   0  0  0  0  0  0  0  0  0  0  0  0
  140.5680   71.8220  224.6640 N   0  0  0  0  0  0  0  0  0  0  0  0
  141.4200   78.7070  222.1990 C   0  0  0  0  0  0  0  0  0  0  0  0
  140.2800   79.1720  222.8000 C   0  0  0  0  0  0  0  0  0  0  0  0
  140.2630   80.2920  223.6220 C   0  0  0  0  0  0  0  0  0  0  0  0
  141.4310   80.9840  223.8590 C   0  0  0  0  0  0  0  0  0  0  0  0
  142.5970   80.5430  223.2710 C   0  0  0  0  0  0  0  0  0  0  0  0
  142.5880   79.4340  222.4630 C   0  0  0  0  0  0  0  0  0  0  0  0
  142.9233   75.3687  219.4232 H   0  0  0  0  0  0  0  0  0  0  0  0
  142.0323   76.1347  218.0645 H   0  0  0  0  0  0  0  0  0  0  0  0
  143.8285   76.1180  218.0645 H   0  0  0  0  0  0  0  0  0  0  0  0
  142.1093   79.0007  220.0316 H   0  0  0  0  0  0  0  0  0  0  0  0
  141.0575   77.5877  219.3253 H   0  0  0  0  0  0  0  0  0  0  0  0
  142.1748   76.7785  221.7014 H   0  0  0  0  0  0  0  0  0  0  0  0
  139.2770   77.0430  221.4600 H   0  0  0  0  0  0  0  0  0  0  0  0
  138.3044   75.0494  221.2923 H   0  0  0  0  0  0  0  0  0  0  0  0
  139.2068   73.8387  220.2709 H   0  0  0  0  0  0  0  0  0  0  0  0
  138.5230   73.5900  223.0810 H   0  0  0  0  0  0  0  0  0  0  0  0
  139.0478   69.9315  222.3934 H   0  0  0  0  0  0  0  0  0  0  0  0
  138.9422   68.3751  224.3338 H   0  0  0  0  0  0  0  0  0  0  0  0
  139.4712   67.9337  226.7373 H   0  0  0  0  0  0  0  0  0  0  0  0
  141.5100   71.0331  228.9526 H   0  0  0  0  0  0  0  0  0  0  0  0
  141.5478   72.4943  226.9363 H   0  0  0  0  0  0  0  0  0  0  0  0
  139.3364   78.6348  222.6240 H   0  0  0  0  0  0  0  0  0  0  0  0
  139.3209   80.6251  224.0818 H   0  0  0  0  0  0  0  0  0  0  0  0
  141.4327   81.8733  224.5065 H   0  0  0  0  0  0  0  0  0  0  0  0
  143.5388   81.0824  223.4502 H   0  0  0  0  0  0  0  0  0  0  0  0
  143.5324   79.1038  222.0059 H   0  0  0  0  0  0  0  0  0  0  0  0
  1  2  1  0
  2  3  1  0
  3  4  1  0
  4  5  1  0
  5  6  1  0
  6  7  2  0
  6  8  1  0
  8  9  1  0
  9 10  1  0
 10 11  2  0
 10 12  1  0
 12 13  2  0
 13 14  1  0
 14 15  2  0
 15 16  1  0
 16 17  2  0
 17 18  1  0
 17 19  1  0
 19 20  2  0
 20 21  1  0
 21 22  2  0
  4 23  1  0
 23 24  2  0
 24 25  1  0
 25 26  2  0
 26 27  1  0
 27 28  2  0
 22 12  1  0
 28 23  1  0
 21 15  1  0
  1 29  1  0
  1 30  1  0
  1 31  1  0
  3 32  1  0
  3 33  1  0
  4 34  1  1
  5 35  1  0
  8 36  1  0
  8 37  1  0
  9 38  1  0
 13 39  1  0
 14 40  1  0
 16 41  1  0
 19 42  1  0
 20 43  1  0
 24 44  1  0
 25 45  1  0
 26 46  1  0
 27 47  1  0
 28 48  1  0
M  END
>  <smiles>  (16) 
COC[C@H](NC(=O)CNC(=O)c1ccc2cc(F)ccc2n1)c1ccccc1

>  <score_type>  (16) 
oracle

>  <origin>  (16) 
autodockgpu

>  <m_score__min__energy>  (16) 
-8.3699999999999992

>  <m_primary>  (16) 
energy

>  <rmsd>  (16) 
3.8450496978266138

>  <m_score__min__rmsd>  (16) 
3.8450496978266138

>  <meeko>  (16) 
{"free_energy": -8.19, "intermolecular_energy": -10.28, "internal_energy": -1.15, "cluster_size": 30, "cluster_id": 1, "rank_in_cluster": 13}

>  <energy>  (16) 
-7.96

>  <cluster_rmsd>  (16) 
1.81

>  <cluster>  (16) 
1

$$$$

     RDKit          3D

 48 50  0  0  0  0  0  0  0  0999 V2000
  142.6480   77.6290  218.0310 C   0  0  0  0  0  0  0  0  0  0  0  0
  142.2020   77.5840  219.3030 O   0  0  0  0  0  0  0  0  0  0  0  0
  142.1950   76.4990  220.0780 C   0  0  0  0  0  0  0  0  0  0  0  0
  142.1190   75.1270  219.5180 C   0  0  2  0  0  0  0  0  0  0  0  0
  140.8670   74.4920  219.6590 N   0  0  0  0  0  0  0  0  0  0  0  0
  140.3360   74.3770  221.0090 C   0  0  0  0  0  0  0  0  0  0  0  0
  140.9680   74.8250  221.9990 O   0  0  0  0  0  0  0  0  0  0  0  0
  139.0240   73.7220  221.2470 C   0  0  0  0  0  0  0  0  0  0  0  0
  139.0420   72.8230  222.3520 N   0  0  0  0  0  0  0  0  0  0  0  0
  139.9130   71.7020  222.3820 C   0  0  0  0  0  0  0  0  0  0  0  0
  140.7130   71.4560  221.4160 O   0  0  0  0  0  0  0  0  0  0  0  0
  139.8710   70.8220  223.5610 C   0  0  0  0  0  0  0  0  0  0  0  0
  139.2530   69.5910  223.5080 C   0  0  0  0  0  0  0  0  0  0  0  0
  139.2070   68.7490  224.6220 C   0  0  0  0  0  0  0  0  0  0  0  0
  139.7930   69.1560  225.8060 C   0  0  0  0  0  0  0  0  0  0  0  0
  139.7890   68.3790  226.9470 C   0  0  0  0  0  0  0  0  0  0  0  0
  140.4110   68.8880  228.0940 C   0  0  0  0  0  0  0  0  0  0  0  0
  140.4350   68.1640  229.2410 F   0  0  0  0  0  0  0  0  0  0  0  0
  141.0150   70.1300  228.0870 C   0  0  0  0  0  0  0  0  0  0  0  0
  141.0230   70.9100  226.9500 C   0  0  0  0  0  0  0  0  0  0  0  0
  140.4020   70.3980  225.8160 C   0  0  0  0  0  0  0  0  0  0  0  0
  140.4280   71.1840  224.7240 N   0  0  0  0  0  0  0  0  0  0  0  0
  143.2760   74.3350  220.0480 C   0  0  0  0  0  0  0  0  0  0  0  0
  144.5070   74.8840  220.2950 C   0  0  0  0  0  0  0  0  0  0  0  0
  145.5770   74.1450  220.7850 C   0  0  0  0  0  0  0  0  0  0  0  0
  145.4210   72.8010  221.0400 C   0  0  0  0  0  0  0  0  0  0  0  0
  144.1950   72.2160  220.8030 C   0  0  0  0  0  0  0  0  0  0  0  0
  143.1520   72.9670  220.3200 C   0  0  0  0  0  0  0  0  0  0  0  0
  143.7424   77.7394  218.0299 H   0  0  0  0  0  0  0  0  0  0  0  0
  142.3728   76.6985  217.5128 H   0  0  0  0  0  0  0  0  0  0  0  0
  142.1925   78.4857  217.5128 H   0  0  0  0  0  0  0  0  0  0  0  0
  143.1219   76.5382  220.6691 H   0  0  0  0  0  0  0  0  0  0  0  0
  141.2260   76.5906  220.5905 H   0  0  0  0  0  0  0  0  0  0  0  0
  142.2037   75.1979  218.4236 H   0  0  0  0  0  0  0  0  0  0  0  0
  140.2380   74.1010  218.9360 H   0  0  0  0  0  0  0  0  0  0  0  0
  138.2733   74.5020  221.4421 H   0  0  0  0  0  0  0  0  0  0  0  0
  138.7824   73.1343  220.3491 H   0  0  0  0  0  0  0  0  0  0  0  0
  138.4020   72.9780  223.1760 H   0  0  0  0  0  0  0  0  0  0  0  0
  138.7855   69.2642  222.5674 H   0  0  0  0  0  0  0  0  0  0  0  0
  138.7087   67.7705  224.5574 H   0  0  0  0  0  0  0  0  0  0  0  0
  139.3109   67.3883  226.9551 H   0  0  0  0  0  0  0  0  0  0  0  0
  141.4972   70.5027  229.0027 H   0  0  0  0  0  0  0  0  0  0  0  0
  141.5025   71.8999  226.9403 H   0  0  0  0  0  0  0  0  0  0  0  0
  144.6546   75.9559  220.0969 H   0  0  0  0  0  0  0  0  0  0  0  0
  146.5459   74.6324  220.9686 H   0  0  0  0  0  0  0  0  0  0  0  0
  146.2602   72.2040  221.4263 H   0  0  0  0  0  0  0  0  0  0  0  0
  144.0521   71.1436  221.0016 H   0  0  0  0  0  0  0  0  0  0  0  0
  142.1840   72.4763  220.1402 H   0  0  0  0  0  0  0  0  0  0  0  0
  1  2  1  0
  2  3  1  0
  3  4  1  0
  4  5  1  0
  5  6  1  0
  6  7  2  0
  6  8  1  0
  8  9  1  0
  9 10  1  0
 10 11  2  0
 10 12  1  0
 12 13  2  0
 13 14  1  0
 14 15  2  0
 15 16  1  0
 16 17  2  0
 17 18  1  0
 17 19  1  0
 19 20  2  0
 20 21  1  0
 21 22  2  0
  4 23  1  0
 23 24  2  0
 24 25  1  0
 25 26  2  0
 26 27  1  0
 27 28  2  0
 22 12  1  0
 28 23  1  0
 21 15  1  0
  1 29  1  0
  1 30  1  0
  1 31  1  0
  3 32  1  0
  3 33  1  0
  4 34  1  6
  5 35  1  0
  8 36  1  0
  8 37  1  0
  9 38  1  0
 13 39  1  0
 14 40  1  0
 16 41  1  0
 19 42  1  0
 20 43  1  0
 24 44  1  0
 25 45  1  0
 26 46  1  0
 27 47  1  0
 28 48  1  0
M  END
>  <smiles>  (17) 
COC[C@H](NC(=O)CNC(=O)c1ccc2cc(F)ccc2n1)c1ccccc1

>  <score_type>  (17) 
oracle

>  <origin>  (17) 
autodockgpu

>  <m_score__min__energy>  (17) 
-8.3699999999999992

>  <m_primary>  (17) 
energy

>  <rmsd>  (17) 
6.410209561094251

>  <m_score__min__rmsd>  (17) 
6.410209561094251

>  <meeko>  (17) 
{"free_energy": -7.75, "intermolecular_energy": -9.84, "internal_energy": -1.54, "cluster_size": 3, "cluster_id": 4, "rank_in_cluster": 1}

>  <energy>  (17) 
-7.94

>  <cluster_rmsd>  (17) 
1.76

>  <cluster>  (17) 
1

$$$$

     RDKit          3D

 48 50  0  0  0  0  0  0  0  0999 V2000
  140.5540   73.4030  221.6790 C   0  0  0  0  0  0  0  0  0  0  0  0
  139.9550   72.9030  222.7800 O   0  0  0  0  0  0  0  0  0  0  0  0
  140.4920   72.0070  223.6080 C   0  0  0  0  0  0  0  0  0  0  0  0
  139.6810   70.9580  224.2730 C   0  0  2  0  0  0  0  0  0  0  0  0
  138.2840   71.1200  224.1600 N   0  0  0  0  0  0  0  0  0  0  0  0
  137.5380   70.0150  223.5770 C   0  0  0  0  0  0  0  0  0  0  0  0
  138.1170   68.9680  223.1940 O   0  0  0  0  0  0  0  0  0  0  0  0
  136.0630   70.1040  223.4200 C   0  0  0  0  0  0  0  0  0  0  0  0
  135.4940   71.2080  224.1180 N   0  0  0  0  0  0  0  0  0  0  0  0
  135.7910   72.5480  223.7540 C   0  0  0  0  0  0  0  0  0  0  0  0
  136.5830   72.8140  222.7860 O   0  0  0  0  0  0  0  0  0  0  0  0
  135.1610   73.6320  224.5250 C   0  0  0  0  0  0  0  0  0  0  0  0
  135.5570   74.9420  224.3640 C   0  0  0  0  0  0  0  0  0  0  0  0
  134.9650   75.9770  225.0920 C   0  0  0  0  0  0  0  0  0  0  0  0
  133.9590   75.6860  225.9940 C   0  0  0  0  0  0  0  0  0  0  0  0
  133.3270   76.6550  226.7470 C   0  0  0  0  0  0  0  0  0  0  0  0
  132.3210   76.2510  227.6320 C   0  0  0  0  0  0  0  0  0  0  0  0
  131.6700   77.1630  228.3950 F   0  0  0  0  0  0  0  0  0  0  0  0
  131.9670   74.9210  227.7510 C   0  0  0  0  0  0  0  0  0  0  0  0
  132.5940   73.9490  227.0010 C   0  0  0  0  0  0  0  0  0  0  0  0
  133.5920   74.3590  226.1250 C   0  0  0  0  0  0  0  0  0  0  0  0
  134.1830   73.3850  225.4080 N   0  0  0  0  0  0  0  0  0  0  0  0
  140.1730   70.8010  225.6800 C   0  0  0  0  0  0  0  0  0  0  0  0
  140.1590   69.6050  226.3480 C   0  0  0  0  0  0  0  0  0  0  0  0
  140.6150   69.4660  227.6540 C   0  0  0  0  0  0  0  0  0  0  0  0
  141.1050   70.5630  228.3290 C   0  0  0  0  0  0  0  0  0  0  0  0
  141.1330   71.7820  227.6850 C   0  0  0  0  0  0  0  0  0  0  0  0
  140.6780   71.8940  226.3950 C   0  0  0  0  0  0  0  0  0  0  0  0
  141.3663   74.0811  221.9795 H   0  0  0  0  0  0  0  0  0  0  0  0
  140.9675   72.5782  221.0800 H   0  0  0  0  0  0  0  0  0  0  0  0
  139.8164   73.9572  221.0800 H   0  0  0  0  0  0  0  0  0  0  0  0
  141.2629   71.4776  223.0289 H   0  0  0  0  0  0  0  0  0  0  0  0
  140.7947   72.6351  224.4588 H   0  0  0  0  0  0  0  0  0  0  0  0
  139.8328   70.0124  223.7320 H   0  0  0  0  0  0  0  0  0  0  0  0
  137.6840   71.9120  224.4510 H   0  0  0  0  0  0  0  0  0  0  0  0
  135.8301   70.2083  222.3500 H   0  0  0  0  0  0  0  0  0  0  0  0
  135.6310   69.1870  223.8471 H   0  0  0  0  0  0  0  0  0  0  0  0
  134.8330   71.0460  224.9240 H   0  0  0  0  0  0  0  0  0  0  0  0
  136.3568   75.1779  223.6466 H   0  0  0  0  0  0  0  0  0  0  0  0
  135.2970   77.0158  224.9484 H   0  0  0  0  0  0  0  0  0  0  0  0
  133.6062   77.7149  226.6540 H   0  0  0  0  0  0  0  0  0  0  0  0
  131.1725   74.6331  228.4552 H   0  0  0  0  0  0  0  0  0  0  0  0
  132.3149   72.8889  227.0925 H   0  0  0  0  0  0  0  0  0  0  0  0
  139.7703   68.7166  225.8288 H   0  0  0  0  0  0  0  0  0  0  0  0
  140.5848   68.4832  228.1471 H   0  0  0  0  0  0  0  0  0  0  0  0
  141.4674   70.4679  229.3632 H   0  0  0  0  0  0  0  0  0  0  0  0
  141.5217   72.6685  228.2075 H   0  0  0  0  0  0  0  0  0  0  0  0
  140.7112   72.8782  225.9049 H   0  0  0  0  0  0  0  0  0  0  0  0
  1  2  1  0
  2  3  1  0
  3  4  1  0
  4  5  1  0
  5  6  1  0
  6  7  2  0
  6  8  1  0
  8  9  1  0
  9 10  1  0
 10 11  2  0
 10 12  1  0
 12 13  2  0
 13 14  1  0
 14 15  2  0
 15 16  1  0
 16 17  2  0
 17 18  1  0
 17 19  1  0
 19 20  2  0
 20 21  1  0
 21 22  2  0
  4 23  1  0
 23 24  2  0
 24 25  1  0
 25 26  2  0
 26 27  1  0
 27 28  2  0
 22 12  1  0
 28 23  1  0
 21 15  1  0
  1 29  1  0
  1 30  1  0
  1 31  1  0
  3 32  1  0
  3 33  1  0
  4 34  1  6
  5 35  1  0
  8 36  1  0
  8 37  1  0
  9 38  1  0
 13 39  1  0
 14 40  1  0
 16 41  1  0
 19 42  1  0
 20 43  1  0
 24 44  1  0
 25 45  1  0
 26 46  1  0
 27 47  1  0
 28 48  1  0
M  END
>  <smiles>  (18) 
COC[C@H](NC(=O)CNC(=O)c1ccc2cc(F)ccc2n1)c1ccccc1

>  <score_type>  (18) 
oracle

>  <origin>  (18) 
autodockgpu

>  <m_score__min__energy>  (18) 
-8.3699999999999992

>  <m_primary>  (18) 
energy

>  <rmsd>  (18) 
9.61962045998955

>  <m_score__min__rmsd>  (18) 
9.61962045998955

>  <meeko>  (18) 
{"free_energy": -7.2, "intermolecular_energy": -9.29, "internal_energy": -2.3, "cluster_size": 14, "cluster_id": 2, "rank_in_cluster": 12}

>  <energy>  (18) 
-7.93

>  <cluster_rmsd>  (18) 
1.12

>  <cluster>  (18) 
1

$$$$

     RDKit          3D

 48 50  0  0  0  0  0  0  0  0999 V2000
  135.4490   74.2180  223.7380 C   0  0  0  0  0  0  0  0  0  0  0  0
  136.2180   75.2550  224.1300 O   0  0  0  0  0  0  0  0  0  0  0  0
  136.5900   76.2730  223.3550 C   0  0  0  0  0  0  0  0  0  0  0  0
  137.6090   76.1250  222.2860 C   0  0  2  0  0  0  0  0  0  0  0  0
  138.0160   74.7990  222.0280 N   0  0  0  0  0  0  0  0  0  0  0  0
  138.1490   74.4120  220.6320 C   0  0  0  0  0  0  0  0  0  0  0  0
  137.9110   75.2250  219.7040 O   0  0  0  0  0  0  0  0  0  0  0  0
  138.5720   73.0340  220.2710 C   0  0  0  0  0  0  0  0  0  0  0  0
  138.7030   72.1770  221.4020 N   0  0  0  0  0  0  0  0  0  0  0  0
  139.6360   72.4500  222.4360 C   0  0  0  0  0  0  0  0  0  0  0  0
  140.3960   73.4770  222.3910 O   0  0  0  0  0  0  0  0  0  0  0  0
  139.7070   71.5150  223.5710 C   0  0  0  0  0  0  0  0  0  0  0  0
  139.1680   70.2490  223.4840 C   0  0  0  0  0  0  0  0  0  0  0  0
  139.2310   69.3550  224.5560 C   0  0  0  0  0  0  0  0  0  0  0  0
  139.8450   69.7450  225.7310 C   0  0  0  0  0  0  0  0  0  0  0  0
  139.9460   68.9170  226.8320 C   0  0  0  0  0  0  0  0  0  0  0  0
  140.5880   69.4110  227.9730 C   0  0  0  0  0  0  0  0  0  0  0  0
  140.7130   68.6380  229.0800 F   0  0  0  0  0  0  0  0  0  0  0  0
  141.1090   70.6900  228.0010 C   0  0  0  0  0  0  0  0  0  0  0  0
  141.0110   71.5210  226.9050 C   0  0  0  0  0  0  0  0  0  0  0  0
  140.3720   71.0230  225.7760 C   0  0  0  0  0  0  0  0  0  0  0  0
  140.2950   71.8590  224.7250 N   0  0  0  0  0  0  0  0  0  0  0  0
  138.7350   77.0720  222.5730 C   0  0  0  0  0  0  0  0  0  0  0  0
  140.0520   76.7500  222.3750 C   0  0  0  0  0  0  0  0  0  0  0  0
  141.0930   77.6310  222.6440 C   0  0  0  0  0  0  0  0  0  0  0  0
  140.8150   78.8890  223.1320 C   0  0  0  0  0  0  0  0  0  0  0  0
  139.5000   79.2460  223.3420 C   0  0  0  0  0  0  0  0  0  0  0  0
  138.4890   78.3580  223.0680 C   0  0  0  0  0  0  0  0  0  0  0  0
  135.0605   73.6942  224.6238 H   0  0  0  0  0  0  0  0  0  0  0  0
  134.6083   74.5922  223.1353 H   0  0  0  0  0  0  0  0  0  0  0  0
  136.0512   73.5222  223.1353 H   0  0  0  0  0  0  0  0  0  0  0  0
  135.6756   76.6308  222.8592 H   0  0  0  0  0  0  0  0  0  0  0  0
  137.1060   76.9283  224.0721 H   0  0  0  0  0  0  0  0  0  0  0  0
  137.1445   76.3991  221.3273 H   0  0  0  0  0  0  0  0  0  0  0  0
  138.2620   74.0420  222.6890 H   0  0  0  0  0  0  0  0  0  0  0  0
  137.8221   72.6042  219.5906 H   0  0  0  0  0  0  0  0  0  0  0  0
  139.5622   73.1074  219.7976 H   0  0  0  0  0  0  0  0  0  0  0  0
  138.1000   71.3160  221.4910 H   0  0  0  0  0  0  0  0  0  0  0  0
  138.6777   69.9359  222.5504 H   0  0  0  0  0  0  0  0  0  0  0  0
  138.7954   68.3490  224.4654 H   0  0  0  0  0  0  0  0  0  0  0  0
  139.5332   67.8976  226.8124 H   0  0  0  0  0  0  0  0  0  0  0  0
  141.6097   71.0511  228.9115 H   0  0  0  0  0  0  0  0  0  0  0  0
  141.4235   72.5406  226.9237 H   0  0  0  0  0  0  0  0  0  0  0  0
  140.2962   75.7504  221.9861 H   0  0  0  0  0  0  0  0  0  0  0  0
  142.1348   77.3249  222.4679 H   0  0  0  0  0  0  0  0  0  0  0  0
  141.6284   79.5966  223.3504 H   0  0  0  0  0  0  0  0  0  0  0  0
  139.2596   80.2465  223.7307 H   0  0  0  0  0  0  0  0  0  0  0  0
  137.4485   78.6684  223.2438 H   0  0  0  0  0  0  0  0  0  0  0  0
  1  2  1  0
  2  3  1  0
  3  4  1  0
  4  5  1  0
  5  6  1  0
  6  7  2  0
  6  8  1  0
  8  9  1  0
  9 10  1  0
 10 11  2  0
 10 12  1  0
 12 13  2  0
 13 14  1  0
 14 15  2  0
 15 16  1  0
 16 17  2  0
 17 18  1  0
 17 19  1  0
 19 20  2  0
 20 21  1  0
 21 22  2  0
  4 23  1  0
 23 24  2  0
 24 25  1  0
 25 26  2  0
 26 27  1  0
 27 28  2  0
 22 12  1  0
 28 23  1  0
 21 15  1  0
  1 29  1  0
  1 30  1  0
  1 31  1  0
  3 32  1  0
  3 33  1  0
  4 34  1  6
  5 35  1  0
  8 36  1  0
  8 37  1  0
  9 38  1  0
 13 39  1  0
 14 40  1  0
 16 41  1  0
 19 42  1  0
 20 43  1  0
 24 44  1  0
 25 45  1  0
 26 46  1  0
 27 47  1  0
 28 48  1  0
M  END
>  <smiles>  (19) 
COC[C@H](NC(=O)CNC(=O)c1ccc2cc(F)ccc2n1)c1ccccc1

>  <score_type>  (19) 
oracle

>  <origin>  (19) 
autodockgpu

>  <m_score__min__energy>  (19) 
-8.3699999999999992

>  <m_primary>  (19) 
energy

>  <rmsd>  (19) 
4.8726876050475

>  <m_score__min__rmsd>  (19) 
4.8726876050475

>  <meeko>  (19) 
{"free_energy": -7.36, "intermolecular_energy": -9.45, "internal_energy": -2.13, "cluster_size": 30, "cluster_id": 1, "rank_in_cluster": 27}

>  <energy>  (19) 
-7.92

>  <cluster_rmsd>  (19) 
1.09

>  <cluster>  (19) 
1

$$$$

     RDKit          3D

 48 50  0  0  0  0  0  0  0  0999 V2000
  143.2850   76.2580  218.8600 C   0  0  0  0  0  0  0  0  0  0  0  0
  142.8170   77.5190  218.7500 O   0  0  0  0  0  0  0  0  0  0  0  0
  141.9230   78.0810  219.5620 C   0  0  0  0  0  0  0  0  0  0  0  0
  141.5700   77.4960  220.8790 C   0  0  2  0  0  0  0  0  0  0  0  0
  140.3570   76.7770  220.9080 N   0  0  0  0  0  0  0  0  0  0  0  0
  140.4480   75.3410  221.1250 C   0  0  0  0  0  0  0  0  0  0  0  0
  141.5580   74.7740  221.2780 O   0  0  0  0  0  0  0  0  0  0  0  0
  139.2180   74.5080  221.1690 C   0  0  0  0  0  0  0  0  0  0  0  0
  139.2060   73.5890  222.2570 N   0  0  0  0  0  0  0  0  0  0  0  0
  140.0500   72.4480  222.2740 C   0  0  0  0  0  0  0  0  0  0  0  0
  140.8540   72.2020  221.3100 O   0  0  0  0  0  0  0  0  0  0  0  0
  139.9780   71.5480  223.4360 C   0  0  0  0  0  0  0  0  0  0  0  0
  139.3510   70.3230  223.3490 C   0  0  0  0  0  0  0  0  0  0  0  0
  139.2770   69.4630  224.4470 C   0  0  0  0  0  0  0  0  0  0  0  0
  139.8420   69.8440  225.6490 C   0  0  0  0  0  0  0  0  0  0  0  0
  139.8090   69.0470  226.7760 C   0  0  0  0  0  0  0  0  0  0  0  0
  140.4130   69.5290  227.9430 C   0  0  0  0  0  0  0  0  0  0  0  0
  140.4070   68.7860  229.0770 F   0  0  0  0  0  0  0  0  0  0  0  0
  141.0270   70.7670  227.9700 C   0  0  0  0  0  0  0  0  0  0  0  0
  141.0630   71.5660  226.8470 C   0  0  0  0  0  0  0  0  0  0  0  0
  140.4610   71.0800  225.6930 C   0  0  0  0  0  0  0  0  0  0  0  0
  140.5150   71.8850  224.6160 N   0  0  0  0  0  0  0  0  0  0  0  0
  141.6770   78.5710  221.9180 C   0  0  0  0  0  0  0  0  0  0  0  0
  141.4120   78.3570  223.2450 C   0  0  0  0  0  0  0  0  0  0  0  0
  141.5100   79.3580  224.2040 C   0  0  0  0  0  0  0  0  0  0  0  0
  141.8870   80.6300  223.8300 C   0  0  0  0  0  0  0  0  0  0  0  0
  142.1610   80.8790  222.5020 C   0  0  0  0  0  0  0  0  0  0  0  0
  142.0580   79.8740  221.5740 C   0  0  0  0  0  0  0  0  0  0  0  0
  143.3827   75.9946  219.9235 H   0  0  0  0  0  0  0  0  0  0  0  0
  142.5848   75.5633  218.3731 H   0  0  0  0  0  0  0  0  0  0  0  0
  144.2689   76.1883  218.3731 H   0  0  0  0  0  0  0  0  0  0  0  0
  142.2912   79.0971  219.7668 H   0  0  0  0  0  0  0  0  0  0  0  0
  140.9884   77.9501  218.9969 H   0  0  0  0  0  0  0  0  0  0  0  0
  142.2964   76.7024  221.1083 H   0  0  0  0  0  0  0  0  0  0  0  0
  139.3840   77.1180  220.8180 H   0  0  0  0  0  0  0  0  0  0  0  0
  138.3473   75.1736  221.2629 H   0  0  0  0  0  0  0  0  0  0  0  0
  139.1867   73.9187  220.2407 H   0  0  0  0  0  0  0  0  0  0  0  0
  138.5620   73.7430  223.0790 H   0  0  0  0  0  0  0  0  0  0  0  0
  138.8993   70.0164  222.3940 H   0  0  0  0  0  0  0  0  0  0  0  0
  138.7727   68.4897  224.3556 H   0  0  0  0  0  0  0  0  0  0  0  0
  139.3218   68.0610  226.7572 H   0  0  0  0  0  0  0  0  0  0  0  0
  141.4939   71.1200  228.9013 H   0  0  0  0  0  0  0  0  0  0  0  0
  141.5504   72.5520  226.8640 H   0  0  0  0  0  0  0  0  0  0  0  0
  141.1086   77.3493  223.5652 H   0  0  0  0  0  0  0  0  0  0  0  0
  141.2874   79.1360  225.2581 H   0  0  0  0  0  0  0  0  0  0  0  0
  141.9678   81.4324  224.5781 H   0  0  0  0  0  0  0  0  0  0  0  0
  142.4635   81.8880  222.1851 H   0  0  0  0  0  0  0  0  0  0  0  0
  142.2829   80.0998  220.5212 H   0  0  0  0  0  0  0  0  0  0  0  0
  1  2  1  0
  2  3  1  0
  3  4  1  0
  4  5  1  0
  5  6  1  0
  6  7  2  0
  6  8  1  0
  8  9  1  0
  9 10  1  0
 10 11  2  0
 10 12  1  0
 12 13  2  0
 13 14  1  0
 14 15  2  0
 15 16  1  0
 16 17  2  0
 17 18  1  0
 17 19  1  0
 19 20  2  0
 20 21  1  0
 21 22  2  0
  4 23  1  0
 23 24  2  0
 24 25  1  0
 25 26  2  0
 26 27  1  0
 27 28  2  0
 22 12  1  0
 28 23  1  0
 21 15  1  0
  1 29  1  0
  1 30  1  0
  1 31  1  0
  3 32  1  0
  3 33  1  0
  4 34  1  1
  5 35  1  0
  8 36  1  0
  8 37  1  0
  9 38  1  0
 13 39  1  0
 14 40  1  0
 16 41  1  0
 19 42  1  0
 20 43  1  0
 24 44  1  0
 25 45  1  0
 26 46  1  0
 27 47  1  0
 28 48  1  0
M  END
>  <smiles>  (20) 
COC[C@H](NC(=O)CNC(=O)c1ccc2cc(F)ccc2n1)c1ccccc1

>  <score_type>  (20) 
oracle

>  <origin>  (20) 
autodockgpu

>  <m_score__min__energy>  (20) 
-8.3699999999999992

>  <m_primary>  (20) 
energy

>  <rmsd>  (20) 
3.9024018786316432

>  <m_score__min__rmsd>  (20) 
3.9024018786316432

>  <meeko>  (20) 
{"free_energy": -8.29, "intermolecular_energy": -10.38, "internal_energy": -1.22, "cluster_size": 30, "cluster_id": 1, "rank_in_cluster": 10}

>  <energy>  (20) 
-7.91

>  <cluster_rmsd>  (20) 
1.68

>  <cluster>  (20) 
1

$$$$

     RDKit          3D

 48 50  0  0  0  0  0  0  0  0999 V2000
  143.1060   80.5620  223.8500 C   0  0  0  0  0  0  0  0  0  0  0  0
  142.0480   79.8000  224.1950 O   0  0  0  0  0  0  0  0  0  0  0  0
  141.8120   78.5650  223.7510 C   0  0  0  0  0  0  0  0  0  0  0  0
  140.9300   78.2980  222.5880 C   0  0  2  0  0  0  0  0  0  0  0  0
  141.0530   77.0090  222.0280 N   0  0  0  0  0  0  0  0  0  0  0  0
  139.8420   76.2070  221.9480 C   0  0  0  0  0  0  0  0  0  0  0  0
  138.7400   76.6480  222.3610 O   0  0  0  0  0  0  0  0  0  0  0  0
  139.8840   74.8380  221.3730 C   0  0  0  0  0  0  0  0  0  0  0  0
  139.7000   73.8170  222.3490 N   0  0  0  0  0  0  0  0  0  0  0  0
  140.5480   72.6790  222.4020 C   0  0  0  0  0  0  0  0  0  0  0  0
  141.5090   72.5280  221.5730 O   0  0  0  0  0  0  0  0  0  0  0  0
  140.2910   71.6710  223.4420 C   0  0  0  0  0  0  0  0  0  0  0  0
  139.5910   70.5180  223.1580 C   0  0  0  0  0  0  0  0  0  0  0  0
  139.3420   69.5550  224.1390 C   0  0  0  0  0  0  0  0  0  0  0  0
  139.8060   69.7590  225.4250 C   0  0  0  0  0  0  0  0  0  0  0  0
  139.5990   68.8530  226.4460 C   0  0  0  0  0  0  0  0  0  0  0  0
  140.1120   69.1580  227.7120 C   0  0  0  0  0  0  0  0  0  0  0  0
  139.9360   68.3010  228.7490 F   0  0  0  0  0  0  0  0  0  0  0  0
  140.8060   70.3300  227.9380 C   0  0  0  0  0  0  0  0  0  0  0  0
  141.0160   71.2380  226.9220 C   0  0  0  0  0  0  0  0  0  0  0  0
  140.5030   70.9280  225.6680 C   0  0  0  0  0  0  0  0  0  0  0  0
  140.7260   71.8350  224.6990 N   0  0  0  0  0  0  0  0  0  0  0  0
  141.0910   79.4170  221.6050 C   0  0  0  0  0  0  0  0  0  0  0  0
  140.5490   80.6610  221.7920 C   0  0  0  0  0  0  0  0  0  0  0  0
  140.7000   81.6950  220.8760 C   0  0  0  0  0  0  0  0  0  0  0  0
  141.4210   81.4860  219.7210 C   0  0  0  0  0  0  0  0  0  0  0  0
  141.9810   80.2460  219.5010 C   0  0  0  0  0  0  0  0  0  0  0  0
  141.8190   79.2400  220.4210 C   0  0  0  0  0  0  0  0  0  0  0  0
  143.6089   80.9242  224.7588 H   0  0  0  0  0  0  0  0  0  0  0  0
  143.8109   79.9628  223.2549 H   0  0  0  0  0  0  0  0  0  0  0  0
  142.7611   81.4204  223.2549 H   0  0  0  0  0  0  0  0  0  0  0  0
  142.7931   78.1375  223.4967 H   0  0  0  0  0  0  0  0  0  0  0  0
  141.2349   78.1301  224.5804 H   0  0  0  0  0  0  0  0  0  0  0  0
  139.8891   78.2806  222.9433 H   0  0  0  0  0  0  0  0  0  0  0  0
  141.8850   76.5350  221.6350 H   0  0  0  0  0  0  0  0  0  0  0  0
  139.0874   74.7500  220.6196 H   0  0  0  0  0  0  0  0  0  0  0  0
  140.8827   74.6966  220.9342 H   0  0  0  0  0  0  0  0  0  0  0  0
  138.9220   73.8900  223.0580 H   0  0  0  0  0  0  0  0  0  0  0  0
  139.2200   70.3524  222.1358 H   0  0  0  0  0  0  0  0  0  0  0  0
  138.7813   68.6419  223.8901 H   0  0  0  0  0  0  0  0  0  0  0  0
  139.0467   67.9182  226.2695 H   0  0  0  0  0  0  0  0  0  0  0  0
  141.1973   70.5425  228.9439 H   0  0  0  0  0  0  0  0  0  0  0  0
  141.5688   72.1727  227.0973 H   0  0  0  0  0  0  0  0  0  0  0  0
  139.9688   80.8498  222.7073 H   0  0  0  0  0  0  0  0  0  0  0  0
  140.2453   82.6771  221.0726 H   0  0  0  0  0  0  0  0  0  0  0  0
  141.5477   82.2951  218.9866 H   0  0  0  0  0  0  0  0  0  0  0  0
  142.5603   80.0616  218.5843 H   0  0  0  0  0  0  0  0  0  0  0  0
  142.2771   78.2600  220.2215 H   0  0  0  0  0  0  0  0  0  0  0  0
  1  2  1  0
  2  3  1  0
  3  4  1  0
  4  5  1  0
  5  6  1  0
  6  7  2  0
  6  8  1  0
  8  9  1  0
  9 10  1  0
 10 11  2  0
 10 12  1  0
 12 13  2  0
 13 14  1  0
 14 15  2  0
 15 16  1  0
 16 17  2  0
 17 18  1  0
 17 19  1  0
 19 20  2  0
 20 21  1  0
 21 22  2  0
  4 23  1  0
 23 24  2  0
 24 25  1  0
 25 26  2  0
 26 27  1  0
 27 28  2  0
 22 12  1  0
 28 23  1  0
 21 15  1  0
  1 29  1  0
  1 30  1  0
  1 31  1  0
  3 32  1  0
  3 33  1  0
  4 34  1  1
  5 35  1  0
  8 36  1  0
  8 37  1  0
  9 38  1  0
 13 39  1  0
 14 40  1  0
 16 41  1  0
 19 42  1  0
 20 43  1  0
 24 44  1  0
 25 45  1  0
 26 46  1  0
 27 47  1  0
 28 48  1  0
M  END
>  <smiles>  (21) 
COC[C@H](NC(=O)CNC(=O)c1ccc2cc(F)ccc2n1)c1ccccc1

>  <score_type>  (21) 
oracle

>  <origin>  (21) 
autodockgpu

>  <m_score__min__energy>  (21) 
-8.3699999999999992

>  <m_primary>  (21) 
energy

>  <rmsd>  (21) 
3.254496681680625

>  <m_score__min__rmsd>  (21) 
3.254496681680625

>  <meeko>  (21) 
{"free_energy": -8.37, "intermolecular_energy": -10.46, "internal_energy": -1.19, "cluster_size": 30, "cluster_id": 1, "rank_in_cluster": 2}

>  <energy>  (21) 
-7.86

>  <cluster_rmsd>  (21) 
1.67

>  <cluster>  (21) 
1

$$$$

     RDKit          3D

 48 50  0  0  0  0  0  0  0  0999 V2000
  135.4320   75.2680  224.8820 C   0  0  0  0  0  0  0  0  0  0  0  0
  136.2000   75.2470  223.7730 O   0  0  0  0  0  0  0  0  0  0  0  0
  136.7150   76.3210  223.1740 C   0  0  0  0  0  0  0  0  0  0  0  0
  137.8150   76.2230  222.1830 C   0  0  2  0  0  0  0  0  0  0  0  0
  138.3040   74.9190  221.9580 N   0  0  0  0  0  0  0  0  0  0  0  0
  138.3550   74.4640  220.5770 C   0  0  0  0  0  0  0  0  0  0  0  0
  137.9800   75.2030  219.6330 O   0  0  0  0  0  0  0  0  0  0  0  0
  138.8570   73.1040  220.2530 C   0  0  0  0  0  0  0  0  0  0  0  0
  138.9010   72.2410  221.3850 N   0  0  0  0  0  0  0  0  0  0  0  0
  139.8370   72.4400  222.4340 C   0  0  0  0  0  0  0  0  0  0  0  0
  140.6780   73.4030  222.3990 O   0  0  0  0  0  0  0  0  0  0  0  0
  139.8160   71.5040  223.5690 C   0  0  0  0  0  0  0  0  0  0  0  0
  139.1840   70.2830  223.4730 C   0  0  0  0  0  0  0  0  0  0  0  0
  139.1580   69.3890  224.5460 C   0  0  0  0  0  0  0  0  0  0  0  0
  139.7800   69.7320  225.7320 C   0  0  0  0  0  0  0  0  0  0  0  0
  139.7970   68.9000  226.8340 C   0  0  0  0  0  0  0  0  0  0  0  0
  140.4550   69.3460  227.9860 C   0  0  0  0  0  0  0  0  0  0  0  0
  140.5010   68.5670  229.0960 F   0  0  0  0  0  0  0  0  0  0  0  0
  141.0730   70.5810  228.0230 C   0  0  0  0  0  0  0  0  0  0  0  0
  141.0590   71.4150  226.9260 C   0  0  0  0  0  0  0  0  0  0  0  0
  140.4030   70.9650  225.7860 C   0  0  0  0  0  0  0  0  0  0  0  0
  140.4090   71.8040  224.7330 N   0  0  0  0  0  0  0  0  0  0  0  0
  138.8690   77.2250  222.5470 C   0  0  0  0  0  0  0  0  0  0  0  0
  140.2090   76.9920  222.3840 C   0  0  0  0  0  0  0  0  0  0  0  0
  141.1830   77.9230  222.7250 C   0  0  0  0  0  0  0  0  0  0  0  0
  140.8110   79.1400  223.2530 C   0  0  0  0  0  0  0  0  0  0  0  0
  139.4700   79.4070  223.4300 C   0  0  0  0  0  0  0  0  0  0  0  0
  138.5270   78.4720  223.0840 C   0  0  0  0  0  0  0  0  0  0  0  0
  136.0755   75.2504  225.7740 H   0  0  0  0  0  0  0  0  0  0  0  0
  134.8217   76.1832  224.8881 H   0  0  0  0  0  0  0  0  0  0  0  0
  134.7726   74.3875  224.8881 H   0  0  0  0  0  0  0  0  0  0  0  0
  135.8789   76.8142  222.6566 H   0  0  0  0  0  0  0  0  0  0  0  0
  137.2076   76.8358  224.0120 H   0  0  0  0  0  0  0  0  0  0  0  0
  137.4083   76.4735  221.1921 H   0  0  0  0  0  0  0  0  0  0  0  0
  138.6620   74.2220  222.6340 H   0  0  0  0  0  0  0  0  0  0  0  0
  138.1943   72.6569  219.4974 H   0  0  0  0  0  0  0  0  0  0  0  0
  139.8873   73.2138  219.8837 H   0  0  0  0  0  0  0  0  0  0  0  0
  138.2300   71.4310  221.4650 H   0  0  0  0  0  0  0  0  0  0  0  0
  138.6890   70.0063  222.5304 H   0  0  0  0  0  0  0  0  0  0  0  0
  138.6468   68.4200  224.4481 H   0  0  0  0  0  0  0  0  0  0  0  0
  139.3076   67.9152  226.8072 H   0  0  0  0  0  0  0  0  0  0  0  0
  141.5840   70.9036  228.9421 H   0  0  0  0  0  0  0  0  0  0  0  0
  141.5485   72.3997  226.9515 H   0  0  0  0  0  0  0  0  0  0  0  0
  140.5280   76.0262  221.9651 H   0  0  0  0  0  0  0  0  0  0  0  0
  142.2471   77.6890  222.5739 H   0  0  0  0  0  0  0  0  0  0  0  0
  141.5710   79.8859  223.5287 H   0  0  0  0  0  0  0  0  0  0  0  0
  139.1547   80.3734  223.8502 H   0  0  0  0  0  0  0  0  0  0  0  0
  137.4638   78.7109  223.2340 H   0  0  0  0  0  0  0  0  0  0  0  0
  1  2  1  0
  2  3  1  0
  3  4  1  0
  4  5  1  0
  5  6  1  0
  6  7  2  0
  6  8  1  0
  8  9  1  0
  9 10  1  0
 10 11  2  0
 10 12  1  0
 12 13  2  0
 13 14  1  0
 14 15  2  0
 15 16  1  0
 16 17  2  0
 17 18  1  0
 17 19  1  0
 19 20  2  0
 20 21  1  0
 21 22  2  0
  4 23  1  0
 23 24  2  0
 24 25  1  0
 25 26  2  0
 26 27  1  0
 27 28  2  0
 22 12  1  0
 28 23  1  0
 21 15  1  0
  1 29  1  0
  1 30  1  0
  1 31  1  0
  3 32  1  0
  3 33  1  0
  4 34  1  6
  5 35  1  0
  8 36  1  0
  8 37  1  0
  9 38  1  0
 13 39  1  0
 14 40  1  0
 16 41  1  0
 19 42  1  0
 20 43  1  0
 24 44  1  0
 25 45  1  0
 26 46  1  0
 27 47  1  0
 28 48  1  0
M  END
>  <smiles>  (22) 
COC[C@H](NC(=O)CNC(=O)c1ccc2cc(F)ccc2n1)c1ccccc1

>  <score_type>  (22) 
oracle

>  <origin>  (22) 
autodockgpu

>  <m_score__min__energy>  (22) 
-8.3699999999999992

>  <m_primary>  (22) 
energy

>  <rmsd>  (22) 
4.776830531244113

>  <m_score__min__rmsd>  (22) 
4.776830531244113

>  <meeko>  (22) 
{"free_energy": -7.52, "intermolecular_energy": -9.61, "internal_energy": -2.07, "cluster_size": 30, "cluster_id": 1, "rank_in_cluster": 23}

>  <energy>  (22) 
-7.63

>  <cluster_rmsd>  (22) 
1.87

>  <cluster>  (22) 
1

$$$$

     RDKit          3D

 48 50  0  0  0  0  0  0  0  0999 V2000
  135.8250   74.4940  223.3180 C   0  0  0  0  0  0  0  0  0  0  0  0
  136.4680   75.5740  223.8100 O   0  0  0  0  0  0  0  0  0  0  0  0
  136.8880   76.6140  223.0890 C   0  0  0  0  0  0  0  0  0  0  0  0
  138.0540   76.5250  222.1770 C   0  0  2  0  0  0  0  0  0  0  0  0
  138.5430   75.2200  221.9550 N   0  0  0  0  0  0  0  0  0  0  0  0
  138.3330   74.6550  220.6310 C   0  0  0  0  0  0  0  0  0  0  0  0
  137.7440   75.3040  219.7310 O   0  0  0  0  0  0  0  0  0  0  0  0
  138.8160   73.2860  220.3140 C   0  0  0  0  0  0  0  0  0  0  0  0
  138.8250   72.4210  221.4460 N   0  0  0  0  0  0  0  0  0  0  0  0
  139.8470   72.4960  222.4280 C   0  0  0  0  0  0  0  0  0  0  0  0
  140.8000   73.3440  222.3330 O   0  0  0  0  0  0  0  0  0  0  0  0
  139.7830   71.5680  223.5680 C   0  0  0  0  0  0  0  0  0  0  0  0
  139.0650   70.3940  223.4900 C   0  0  0  0  0  0  0  0  0  0  0  0
  138.9980   69.5070  224.5670 C   0  0  0  0  0  0  0  0  0  0  0  0
  139.6640   69.8090  225.7390 C   0  0  0  0  0  0  0  0  0  0  0  0
  139.6440   68.9820  226.8450 C   0  0  0  0  0  0  0  0  0  0  0  0
  140.3530   69.3840  227.9820 C   0  0  0  0  0  0  0  0  0  0  0  0
  140.3660   68.6080  229.0940 F   0  0  0  0  0  0  0  0  0  0  0  0
  141.0560   70.5740  228.0020 C   0  0  0  0  0  0  0  0  0  0  0  0
  141.0790   71.4030  226.9020 C   0  0  0  0  0  0  0  0  0  0  0  0
  140.3720   70.9970  225.7760 C   0  0  0  0  0  0  0  0  0  0  0  0
  140.4160   71.8290  224.7200 N   0  0  0  0  0  0  0  0  0  0  0  0
  139.0920   77.5030  222.6400 C   0  0  0  0  0  0  0  0  0  0  0  0
  138.7830   78.7400  223.1390 C   0  0  0  0  0  0  0  0  0  0  0  0
  139.7480   79.6450  223.5660 C   0  0  0  0  0  0  0  0  0  0  0  0
  141.0820   79.3070  223.4920 C   0  0  0  0  0  0  0  0  0  0  0  0
  141.4280   78.0680  222.9940 C   0  0  0  0  0  0  0  0  0  0  0  0
  140.4560   77.1920  222.5810 C   0  0  0  0  0  0  0  0  0  0  0  0
  135.4569   73.8758  224.1501 H   0  0  0  0  0  0  0  0  0  0  0  0
  134.9753   74.8225  222.7015 H   0  0  0  0  0  0  0  0  0  0  0  0
  136.5187   73.9036  222.7015 H   0  0  0  0  0  0  0  0  0  0  0  0
  136.0344   76.9205  222.4666 H   0  0  0  0  0  0  0  0  0  0  0  0
  137.2587   77.2969  223.8676 H   0  0  0  0  0  0  0  0  0  0  0  0
  137.7211   76.8051  221.1667 H   0  0  0  0  0  0  0  0  0  0  0  0
  139.0580   74.5900  222.5940 H   0  0  0  0  0  0  0  0  0  0  0  0
  138.1584   72.8516  219.5466 H   0  0  0  0  0  0  0  0  0  0  0  0
  139.8543   73.3775  219.9625 H   0  0  0  0  0  0  0  0  0  0  0  0
  138.0630   71.7040  221.5750 H   0  0  0  0  0  0  0  0  0  0  0  0
  138.5328   70.1501  222.5587 H   0  0  0  0  0  0  0  0  0  0  0  0
  138.4194   68.5753  224.4825 H   0  0  0  0  0  0  0  0  0  0  0  0
  139.0863   68.0340  226.8322 H   0  0  0  0  0  0  0  0  0  0  0  0
  141.6054   70.8634  228.9100 H   0  0  0  0  0  0  0  0  0  0  0  0
  141.6363   72.3513  226.9142 H   0  0  0  0  0  0  0  0  0  0  0  0
  137.7241   79.0306  223.2050 H   0  0  0  0  0  0  0  0  0  0  0  0
  139.4481   80.6267  223.9612 H   0  0  0  0  0  0  0  0  0  0  0  0
  141.8574   80.0130  223.8243 H   0  0  0  0  0  0  0  0  0  0  0  0
  142.4878   77.7810  222.9277 H   0  0  0  0  0  0  0  0  0  0  0  0
  140.7593   76.2098  222.1894 H   0  0  0  0  0  0  0  0  0  0  0  0
  1  2  1  0
  2  3  1  0
  3  4  1  0
  4  5  1  0
  5  6  1  0
  6  7  2  0
  6  8  1  0
  8  9  1  0
  9 10  1  0
 10 11  2  0
 10 12  1  0
 12 13  2  0
 13 14  1  0
 14 15  2  0
 15 16  1  0
 16 17  2  0
 17 18  1  0
 17 19  1  0
 19 20  2  0
 20 21  1  0
 21 22  2  0
  4 23  1  0
 23 24  2  0
 24 25  1  0
 25 26  2  0
 26 27  1  0
 27 28  2  0
 22 12  1  0
 28 23  1  0
 21 15  1  0
  1 29  1  0
  1 30  1  0
  1 31  1  0
  3 32  1  0
  3 33  1  0
  4 34  1  6
  5 35  1  0
  8 36  1  0
  8 37  1  0
  9 38  1  0
 13 39  1  0
 14 40  1  0
 16 41  1  0
 19 42  1  0
 20 43  1  0
 24 44  1  0
 25 45  1  0
 26 46  1  0
 27 47  1  0
 28 48  1  0
M  END
>  <smiles>  (23) 
COC[C@H](NC(=O)CNC(=O)c1ccc2cc(F)ccc2n1)c1ccccc1

>  <score_type>  (23) 
oracle

>  <origin>  (23) 
autodockgpu

>  <m_score__min__energy>  (23) 
-8.3699999999999992

>  <m_primary>  (23) 
energy

>  <rmsd>  (23) 
4.543620806786364

>  <m_score__min__rmsd>  (23) 
4.543620806786364

>  <meeko>  (23) 
{"free_energy": -7.37, "intermolecular_energy": -9.46, "internal_energy": -2.18, "cluster_size": 30, "cluster_id": 1, "rank_in_cluster": 25}

>  <energy>  (23) 
-7.52

>  <cluster_rmsd>  (23) 
1.67

>  <cluster>  (23) 
1

$$$$

     RDKit          3D

 48 50  0  0  0  0  0  0  0  0999 V2000
  135.4580   74.2830  223.4090 C   0  0  0  0  0  0  0  0  0  0  0  0
  136.2200   75.2730  223.9180 O   0  0  0  0  0  0  0  0  0  0  0  0
  136.6360   76.3470  223.2450 C   0  0  0  0  0  0  0  0  0  0  0  0
  137.7250   76.2790  222.2400 C   0  0  2  0  0  0  0  0  0  0  0  0
  138.2420   74.9880  222.0040 N   0  0  0  0  0  0  0  0  0  0  0  0
  138.1970   74.5020  220.6330 C   0  0  0  0  0  0  0  0  0  0  0  0
  137.7190   75.2050  219.7070 O   0  0  0  0  0  0  0  0  0  0  0  0
  138.7190   73.1520  220.2960 C   0  0  0  0  0  0  0  0  0  0  0  0
  138.7880   72.2840  221.4240 N   0  0  0  0  0  0  0  0  0  0  0  0
  139.7730   72.4550  222.4320 C   0  0  0  0  0  0  0  0  0  0  0  0
  140.6370   73.3950  222.3640 O   0  0  0  0  0  0  0  0  0  0  0  0
  139.7760   71.5160  223.5650 C   0  0  0  0  0  0  0  0  0  0  0  0
  139.1740   70.2800  223.4660 C   0  0  0  0  0  0  0  0  0  0  0  0
  139.1710   69.3820  224.5370 C   0  0  0  0  0  0  0  0  0  0  0  0
  139.7840   69.7380  225.7230 C   0  0  0  0  0  0  0  0  0  0  0  0
  139.8230   68.9040  226.8230 C   0  0  0  0  0  0  0  0  0  0  0  0
  140.4700   69.3620  227.9760 C   0  0  0  0  0  0  0  0  0  0  0  0
  140.5350   68.5820  229.0840 F   0  0  0  0  0  0  0  0  0  0  0  0
  141.0560   70.6120  228.0160 C   0  0  0  0  0  0  0  0  0  0  0  0
  141.0210   71.4490  226.9210 C   0  0  0  0  0  0  0  0  0  0  0  0
  140.3760   70.9860  225.7800 C   0  0  0  0  0  0  0  0  0  0  0  0
  140.3610   71.8270  224.7300 N   0  0  0  0  0  0  0  0  0  0  0  0
  138.7610   77.3020  222.5960 C   0  0  0  0  0  0  0  0  0  0  0  0
  138.4480   78.5430  223.0880 C   0  0  0  0  0  0  0  0  0  0  0  0
  139.4120   79.4890  223.4150 C   0  0  0  0  0  0  0  0  0  0  0  0
  140.7470   79.1930  223.2450 C   0  0  0  0  0  0  0  0  0  0  0  0
  141.0960   77.9540  222.7530 C   0  0  0  0  0  0  0  0  0  0  0  0
  140.1260   77.0350  222.4380 C   0  0  0  0  0  0  0  0  0  0  0  0
  135.0122   73.7038  224.2311 H   0  0  0  0  0  0  0  0  0  0  0  0
  134.6585   74.7168  222.7904 H   0  0  0  0  0  0  0  0  0  0  0  0
  136.0819   73.6211  222.7904 H   0  0  0  0  0  0  0  0  0  0  0  0
  135.7544   76.7377  222.7158 H   0  0  0  0  0  0  0  0  0  0  0  0
  137.0974   76.9502  224.0408 H   0  0  0  0  0  0  0  0  0  0  0  0
  137.2991   76.5249  221.2561 H   0  0  0  0  0  0  0  0  0  0  0  0
  138.6770   74.3190  222.6620 H   0  0  0  0  0  0  0  0  0  0  0  0
  138.0568   72.6978  219.5442 H   0  0  0  0  0  0  0  0  0  0  0  0
  139.7435   73.2807  219.9168 H   0  0  0  0  0  0  0  0  0  0  0  0
  138.1000   71.4920  221.5300 H   0  0  0  0  0  0  0  0  0  0  0  0
  138.6850   69.9940  222.5231 H   0  0  0  0  0  0  0  0  0  0  0  0
  138.6849   68.4004  224.4366 H   0  0  0  0  0  0  0  0  0  0  0  0
  139.3584   67.9074  226.7936 H   0  0  0  0  0  0  0  0  0  0  0  0
  141.5586   70.9450  228.9361 H   0  0  0  0  0  0  0  0  0  0  0  0
  141.4859   72.4455  226.9492 H   0  0  0  0  0  0  0  0  0  0  0  0
  137.3881   78.8009  223.2300 H   0  0  0  0  0  0  0  0  0  0  0  0
  139.1103   80.4710  223.8083 H   0  0  0  0  0  0  0  0  0  0  0  0
  141.5207   79.9329  223.4976 H   0  0  0  0  0  0  0  0  0  0  0  0
  142.1570   77.7001  222.6120 H   0  0  0  0  0  0  0  0  0  0  0  0
  140.4325   76.0534  222.0474 H   0  0  0  0  0  0  0  0  0  0  0  0
  1  2  1  0
  2  3  1  0
  3  4  1  0
  4  5  1  0
  5  6  1  0
  6  7  2  0
  6  8  1  0
  8  9  1  0
  9 10  1  0
 10 11  2  0
 10 12  1  0
 12 13  2  0
 13 14  1  0
 14 15  2  0
 15 16  1  0
 16 17  2  0
 17 18  1  0
 17 19  1  0
 19 20  2  0
 20 21  1  0
 21 22  2  0
  4 23  1  0
 23 24  2  0
 24 25  1  0
 25 26  2  0
 26 27  1  0
 27 28  2  0
 22 12  1  0
 28 23  1  0
 21 15  1  0
  1 29  1  0
  1 30  1  0
  1 31  1  0
  3 32  1  0
  3 33  1  0
  4 34  1  6
  5 35  1  0
  8 36  1  0
  8 37  1  0
  9 38  1  0
 13 39  1  0
 14 40  1  0
 16 41  1  0
 19 42  1  0
 20 43  1  0
 24 44  1  0
 25 45  1  0
 26 46  1  0
 27 47  1  0
 28 48  1  0
M  END
>  <smiles>  (24) 
COC[C@H](NC(=O)CNC(=O)c1ccc2cc(F)ccc2n1)c1ccccc1

>  <score_type>  (24) 
oracle

>  <origin>  (24) 
autodockgpu

>  <m_score__min__energy>  (24) 
-8.3699999999999992

>  <m_primary>  (24) 
energy

>  <rmsd>  (24) 
4.647252590196157

>  <m_score__min__rmsd>  (24) 
4.647252590196157

>  <meeko>  (24) 
{"free_energy": -7.41, "intermolecular_energy": -9.5, "internal_energy": -2.17, "cluster_size": 30, "cluster_id": 1, "rank_in_cluster": 24}

>  <energy>  (24) 
-7.41

>  <cluster_rmsd>  (24) 
1.68

>  <cluster>  (24) 
1

$$$$

     RDKit          3D

 48 50  0  0  0  0  0  0  0  0999 V2000
  138.9790   72.7680  221.9270 C   0  0  0  0  0  0  0  0  0  0  0  0
  139.8360   72.6570  222.9630 O   0  0  0  0  0  0  0  0  0  0  0  0
  140.3670   71.5170  223.4040 C   0  0  0  0  0  0  0  0  0  0  0  0
  139.6420   70.6120  224.3300 C   0  0  2  0  0  0  0  0  0  0  0  0
  138.2390   70.6080  224.1860 N   0  0  0  0  0  0  0  0  0  0  0  0
  137.5490   69.3680  224.5070 C   0  0  0  0  0  0  0  0  0  0  0  0
  138.1790   68.3520  224.8930 O   0  0  0  0  0  0  0  0  0  0  0  0
  136.0710   69.2770  224.3820 C   0  0  0  0  0  0  0  0  0  0  0  0
  135.3970   70.4280  224.8820 N   0  0  0  0  0  0  0  0  0  0  0  0
  134.3620   70.3210  225.8470 C   0  0  0  0  0  0  0  0  0  0  0  0
  133.9940   69.1850  226.3040 O   0  0  0  0  0  0  0  0  0  0  0  0
  133.7170   71.5590  226.3130 C   0  0  0  0  0  0  0  0  0  0  0  0
  132.5790   71.5200  227.0890 C   0  0  0  0  0  0  0  0  0  0  0  0
  131.9590   72.6900  227.5360 C   0  0  0  0  0  0  0  0  0  0  0  0
  132.4960   73.9160  227.1930 C   0  0  0  0  0  0  0  0  0  0  0  0
  131.9410   75.1140  227.5970 C   0  0  0  0  0  0  0  0  0  0  0  0
  132.5650   76.3000  227.1940 C   0  0  0  0  0  0  0  0  0  0  0  0
  132.0600   77.5030  227.5640 F   0  0  0  0  0  0  0  0  0  0  0  0
  133.7060   76.2770  226.4150 C   0  0  0  0  0  0  0  0  0  0  0  0
  134.2650   75.0840  226.0090 C   0  0  0  0  0  0  0  0  0  0  0  0
  133.6390   73.9110  226.4140 C   0  0  0  0  0  0  0  0  0  0  0  0
  134.2100   72.7650  226.0000 N   0  0  0  0  0  0  0  0  0  0  0  0
  140.1200   70.8830  225.7250 C   0  0  0  0  0  0  0  0  0  0  0  0
  140.9650   71.9140  226.0390 C   0  0  0  0  0  0  0  0  0  0  0  0
  141.4070   72.1600  227.3330 C   0  0  0  0  0  0  0  0  0  0  0  0
  140.9920   71.3450  228.3640 C   0  0  0  0  0  0  0  0  0  0  0  0
  140.1410   70.2980  228.0830 C   0  0  0  0  0  0  0  0  0  0  0  0
  139.7180   70.0760  226.7960 C   0  0  0  0  0  0  0  0  0  0  0  0
  137.9563   72.9005  222.3097 H   0  0  0  0  0  0  0  0  0  0  0  0
  139.2564   73.6377  221.3133 H   0  0  0  0  0  0  0  0  0  0  0  0
  139.0256   71.8563  221.3133 H   0  0  0  0  0  0  0  0  0  0  0  0
  140.5977   70.9198  222.5095 H   0  0  0  0  0  0  0  0  0  0  0  0
  141.1909   71.8787  224.0367 H   0  0  0  0  0  0  0  0  0  0  0  0
  139.8888   69.5744  224.0609 H   0  0  0  0  0  0  0  0  0  0  0  0
  137.6010   71.3710  223.9010 H   0  0  0  0  0  0  0  0  0  0  0  0
  135.8162   69.1561  223.3188 H   0  0  0  0  0  0  0  0  0  0  0  0
  135.7428   68.4168  224.9840 H   0  0  0  0  0  0  0  0  0  0  0  0
  135.6600   71.3910  224.5400 H   0  0  0  0  0  0  0  0  0  0  0  0
  132.1486   70.5455  227.3630 H   0  0  0  0  0  0  0  0  0  0  0  0
  131.0516   72.6354  228.1554 H   0  0  0  0  0  0  0  0  0  0  0  0
  131.0336   75.1356  228.2184 H   0  0  0  0  0  0  0  0  0  0  0  0
  134.1755   77.2252  226.1141 H   0  0  0  0  0  0  0  0  0  0  0  0
  135.1725   75.0613  225.3878 H   0  0  0  0  0  0  0  0  0  0  0  0
  141.3089   72.5766  225.2311 H   0  0  0  0  0  0  0  0  0  0  0  0
  142.0856   73.0021  227.5338 H   0  0  0  0  0  0  0  0  0  0  0  0
  141.3341   71.5271  229.3935 H   0  0  0  0  0  0  0  0  0  0  0  0
  139.7993   69.6374  228.8934 H   0  0  0  0  0  0  0  0  0  0  0  0
  139.0386   69.2336  226.5992 H   0  0  0  0  0  0  0  0  0  0  0  0
  1  2  1  0
  2  3  1  0
  3  4  1  0
  4  5  1  0
  5  6  1  0
  6  7  2  0
  6  8  1  0
  8  9  1  0
  9 10  1  0
 10 11  2  0
 10 12  1  0
 12 13  2  0
 13 14  1  0
 14 15  2  0
 15 16  1  0
 16 17  2  0
 17 18  1  0
 17 19  1  0
 19 20  2  0
 20 21  1  0
 21 22  2  0
  4 23  1  0
 23 24  2  0
 24 25  1  0
 25 26  2  0
 26 27  1  0
 27 28  2  0
 22 12  1  0
 28 23  1  0
 21 15  1  0
  1 29  1  0
  1 30  1  0
  1 31  1  0
  3 32  1  0
  3 33  1  0
  4 34  1  6
  5 35  1  0
  8 36  1  0
  8 37  1  0
  9 38  1  0
 13 39  1  0
 14 40  1  0
 16 41  1  0
 19 42  1  0
 20 43  1  0
 24 44  1  0
 25 45  1  0
 26 46  1  0
 27 47  1  0
 28 48  1  0
M  END
>  <smiles>  (25) 
COC[C@H](NC(=O)CNC(=O)c1ccc2cc(F)ccc2n1)c1ccccc1

>  <score_type>  (25) 
oracle

>  <origin>  (25) 
autodockgpu

>  <m_score__min__energy>  (25) 
-8.3699999999999992

>  <m_primary>  (25) 
energy

>  <rmsd>  (25) 
10.131338918753617

>  <m_score__min__rmsd>  (25) 
10.131338918753617

>  <meeko>  (25) 
{"free_energy": -8.19, "intermolecular_energy": -10.27, "internal_energy": -1.71, "cluster_size": 14, "cluster_id": 2, "rank_in_cluster": 1}

>  <energy>  (25) 
-7.37

>  <cluster_rmsd>  (25) 
1.54

>  <cluster>  (25) 
1

$$$$

     RDKit          3D

 48 50  0  0  0  0  0  0  0  0999 V2000
  142.7740   80.6990  223.8570 C   0  0  0  0  0  0  0  0  0  0  0  0
  142.6470   79.4140  223.4690 O   0  0  0  0  0  0  0  0  0  0  0  0
  141.5090   78.7200  223.4640 C   0  0  0  0  0  0  0  0  0  0  0  0
  140.8380   78.3070  222.2060 C   0  0  2  0  0  0  0  0  0  0  0  0
  141.0840   76.9770  221.8060 N   0  0  0  0  0  0  0  0  0  0  0  0
  139.9260   76.1080  221.6670 C   0  0  0  0  0  0  0  0  0  0  0  0
  138.7630   76.5280  221.8930 O   0  0  0  0  0  0  0  0  0  0  0  0
  140.0950   74.6910  221.2500 C   0  0  0  0  0  0  0  0  0  0  0  0
  139.8920   73.7680  222.3170 N   0  0  0  0  0  0  0  0  0  0  0  0
  140.5300   72.5000  222.3320 C   0  0  0  0  0  0  0  0  0  0  0  0
  141.3100   72.1380  221.3870 O   0  0  0  0  0  0  0  0  0  0  0  0
  140.2680   71.6060  223.4710 C   0  0  0  0  0  0  0  0  0  0  0  0
  139.5660   70.4310  223.3060 C   0  0  0  0  0  0  0  0  0  0  0  0
  139.3120   69.5760  224.3820 C   0  0  0  0  0  0  0  0  0  0  0  0
  139.7730   69.9120  225.6400 C   0  0  0  0  0  0  0  0  0  0  0  0
  139.5610   69.1180  226.7500 C   0  0  0  0  0  0  0  0  0  0  0  0
  140.0710   69.5520  227.9790 C   0  0  0  0  0  0  0  0  0  0  0  0
  139.8900   68.8090  229.0990 F   0  0  0  0  0  0  0  0  0  0  0  0
  140.7680   70.7400  228.0830 C   0  0  0  0  0  0  0  0  0  0  0  0
  140.9820   71.5370  226.9790 C   0  0  0  0  0  0  0  0  0  0  0  0
  140.4720   71.0990  225.7620 C   0  0  0  0  0  0  0  0  0  0  0  0
  140.7000   71.9000  224.7050 N   0  0  0  0  0  0  0  0  0  0  0  0
  141.1350   79.3330  221.1540 C   0  0  0  0  0  0  0  0  0  0  0  0
  140.8120   80.6580  221.2900 C   0  0  0  0  0  0  0  0  0  0  0  0
  141.0870   81.6050  220.3100 C   0  0  0  0  0  0  0  0  0  0  0  0
  141.7090   81.2210  219.1430 C   0  0  0  0  0  0  0  0  0  0  0  0
  142.0480   79.8960  218.9740 C   0  0  0  0  0  0  0  0  0  0  0  0
  141.7670   78.9790  219.9560 C   0  0  0  0  0  0  0  0  0  0  0  0
  142.7792   80.7514  224.9557 H   0  0  0  0  0  0  0  0  0  0  0  0
  143.7170   81.1086  223.4659 H   0  0  0  0  0  0  0  0  0  0  0  0
  141.9294   81.2853  223.4659 H   0  0  0  0  0  0  0  0  0  0  0  0
  141.7124   77.7937  224.0214 H   0  0  0  0  0  0  0  0  0  0  0  0
  140.7953   79.4496  223.8741 H   0  0  0  0  0  0  0  0  0  0  0  0
  139.7533   78.2812  222.3873 H   0  0  0  0  0  0  0  0  0  0  0  0
  141.9770   76.5110  221.5700 H   0  0  0  0  0  0  0  0  0  0  0  0
  139.3689   74.4711  220.4535 H   0  0  0  0  0  0  0  0  0  0  0  0
  141.1325   74.5714  220.9046 H   0  0  0  0  0  0  0  0  0  0  0  0
  139.2580   74.0160  223.1230 H   0  0  0  0  0  0  0  0  0  0  0  0
  139.1977   70.1605  222.3054 H   0  0  0  0  0  0  0  0  0  0  0  0
  138.7496   68.6432  224.2283 H   0  0  0  0  0  0  0  0  0  0  0  0
  139.0069   68.1711  226.6704 H   0  0  0  0  0  0  0  0  0  0  0  0
  141.1583   71.0549  229.0620 H   0  0  0  0  0  0  0  0  0  0  0  0
  141.5356   72.4843  227.0579 H   0  0  0  0  0  0  0  0  0  0  0  0
  140.3138   80.9862  222.2142 H   0  0  0  0  0  0  0  0  0  0  0  0
  140.8086   82.6577  220.4663 H   0  0  0  0  0  0  0  0  0  0  0  0
  141.9316   81.9596  218.3588 H   0  0  0  0  0  0  0  0  0  0  0  0
  142.5459   79.5719  218.0482 H   0  0  0  0  0  0  0  0  0  0  0  0
  142.0486   77.9278  219.7958 H   0  0  0  0  0  0  0  0  0  0  0  0
  1  2  1  0
  2  3  1  0
  3  4  1  0
  4  5  1  0
  5  6  1  0
  6  7  2  0
  6  8  1  0
  8  9  1  0
  9 10  1  0
 10 11  2  0
 10 12  1  0
 12 13  2  0
 13 14  1  0
 14 15  2  0
 15 16  1  0
 16 17  2  0
 17 18  1  0
 17 19  1  0
 19 20  2  0
 20 21  1  0
 21 22  2  0
  4 23  1  0
 23 24  2  0
 24 25  1  0
 25 26  2  0
 26 27  1  0
 27 28  2  0
 22 12  1  0
 28 23  1  0
 21 15  1  0
  1 29  1  0
  1 30  1  0
  1 31  1  0
  3 32  1  0
  3 33  1  0
  4 34  1  1
  5 35  1  0
  8 36  1  0
  8 37  1  0
  9 38  1  0
 13 39  1  0
 14 40  1  0
 16 41  1  0
 19 42  1  0
 20 43  1  0
 24 44  1  0
 25 45  1  0
 26 46  1  0
 27 47  1  0
 28 48  1  0
M  END
>  <smiles>  (26) 
COC[C@H](NC(=O)CNC(=O)c1ccc2cc(F)ccc2n1)c1ccccc1

>  <score_type>  (26) 
oracle

>  <origin>  (26) 
autodockgpu

>  <m_score__min__energy>  (26) 
-8.3699999999999992

>  <m_primary>  (26) 
energy

>  <rmsd>  (26) 
3.3794849565947254

>  <m_score__min__rmsd>  (26) 
3.3794849565947254

>  <meeko>  (26) 
{"free_energy": -8.31, "intermolecular_energy": -10.4, "internal_energy": -1.26, "cluster_size": 30, "cluster_id": 1, "rank_in_cluster": 6}

>  <energy>  (26) 
-7.37

>  <cluster_rmsd>  (26) 
1.59

>  <cluster>  (26) 
1

$$$$

     RDKit          3D

 48 50  0  0  0  0  0  0  0  0999 V2000
  146.1720   73.7150  221.2560 C   0  0  0  0  0  0  0  0  0  0  0  0
  144.9620   73.1700  221.0110 O   0  0  0  0  0  0  0  0  0  0  0  0
  144.1040   73.5870  220.0800 C   0  0  0  0  0  0  0  0  0  0  0  0
  142.9490   74.4610  220.4020 C   0  0  2  0  0  0  0  0  0  0  0  0
  141.7100   73.7970  220.5180 N   0  0  0  0  0  0  0  0  0  0  0  0
  140.7090   74.4170  221.3720 C   0  0  0  0  0  0  0  0  0  0  0  0
  140.9430   75.4940  221.9750 O   0  0  0  0  0  0  0  0  0  0  0  0
  139.3770   73.7830  221.5500 C   0  0  0  0  0  0  0  0  0  0  0  0
  139.3430   72.8500  222.6260 N   0  0  0  0  0  0  0  0  0  0  0  0
  140.1960   71.7160  222.6520 C   0  0  0  0  0  0  0  0  0  0  0  0
  141.0280   71.4890  221.7080 O   0  0  0  0  0  0  0  0  0  0  0  0
  140.1000   70.8020  223.8010 C   0  0  0  0  0  0  0  0  0  0  0  0
  139.4980   69.5670  223.6790 C   0  0  0  0  0  0  0  0  0  0  0  0
  139.4020   68.6920  224.7640 C   0  0  0  0  0  0  0  0  0  0  0  0
  139.9180   69.0690  225.9890 C   0  0  0  0  0  0  0  0  0  0  0  0
  139.8610   68.2590  227.1050 C   0  0  0  0  0  0  0  0  0  0  0  0
  140.4150   68.7380  228.2980 C   0  0  0  0  0  0  0  0  0  0  0  0
  140.3840   67.9810  229.4230 F   0  0  0  0  0  0  0  0  0  0  0  0
  141.0050   69.9860  228.3600 C   0  0  0  0  0  0  0  0  0  0  0  0
  141.0660   70.7990  227.2480 C   0  0  0  0  0  0  0  0  0  0  0  0
  140.5130   70.3150  226.0690 C   0  0  0  0  0  0  0  0  0  0  0  0
  140.5900   71.1340  225.0030 N   0  0  0  0  0  0  0  0  0  0  0  0
  142.9460   75.6120  219.4410 C   0  0  0  0  0  0  0  0  0  0  0  0
  142.5560   76.8780  219.7920 C   0  0  0  0  0  0  0  0  0  0  0  0
  142.5520   77.9410  218.8970 C   0  0  0  0  0  0  0  0  0  0  0  0
  142.9530   77.7400  217.5940 C   0  0  0  0  0  0  0  0  0  0  0  0
  143.3530   76.4780  217.2080 C   0  0  0  0  0  0  0  0  0  0  0  0
  143.3480   75.4440  218.1110 C   0  0  0  0  0  0  0  0  0  0  0  0
  146.3291   73.7858  222.3424 H   0  0  0  0  0  0  0  0  0  0  0  0
  146.9554   73.0828  220.8126 H   0  0  0  0  0  0  0  0  0  0  0  0
  146.2177   74.7206  220.8126 H   0  0  0  0  0  0  0  0  0  0  0  0
  144.7017   74.1311  219.3339 H   0  0  0  0  0  0  0  0  0  0  0  0
  143.6069   72.6491  219.7915 H   0  0  0  0  0  0  0  0  0  0  0  0
  143.0834   74.8459  221.4237 H   0  0  0  0  0  0  0  0  0  0  0  0
  141.3820   72.9260  220.0660 H   0  0  0  0  0  0  0  0  0  0  0  0
  138.6368   74.5724  221.7473 H   0  0  0  0  0  0  0  0  0  0  0  0
  139.1509   73.2287  220.6272 H   0  0  0  0  0  0  0  0  0  0  0  0
  138.6760   72.9890  223.4320 H   0  0  0  0  0  0  0  0  0  0  0  0
  139.0843   69.2642  222.7058 H   0  0  0  0  0  0  0  0  0  0  0  0
  138.9194   67.7108  224.6439 H   0  0  0  0  0  0  0  0  0  0  0  0
  139.3932   67.2645  227.0583 H   0  0  0  0  0  0  0  0  0  0  0  0
  141.4326   70.3363  229.3111 H   0  0  0  0  0  0  0  0  0  0  0  0
  141.5347   71.7931  227.2927 H   0  0  0  0  0  0  0  0  0  0  0  0
  142.2320   77.0607  220.8272 H   0  0  0  0  0  0  0  0  0  0  0  0
  142.2298   78.9395  219.2275 H   0  0  0  0  0  0  0  0  0  0  0  0
  142.9540   78.5718  216.8742 H   0  0  0  0  0  0  0  0  0  0  0  0
  143.6774   76.2991  216.1723 H   0  0  0  0  0  0  0  0  0  0  0  0
  143.6718   74.4472  217.7771 H   0  0  0  0  0  0  0  0  0  0  0  0
  1  2  1  0
  2  3  1  0
  3  4  1  0
  4  5  1  0
  5  6  1  0
  6  7  2  0
  6  8  1  0
  8  9  1  0
  9 10  1  0
 10 11  2  0
 10 12  1  0
 12 13  2  0
 13 14  1  0
 14 15  2  0
 15 16  1  0
 16 17  2  0
 17 18  1  0
 17 19  1  0
 19 20  2  0
 20 21  1  0
 21 22  2  0
  4 23  1  0
 23 24  2  0
 24 25  1  0
 25 26  2  0
 26 27  1  0
 27 28  2  0
 22 12  1  0
 28 23  1  0
 21 15  1  0
  1 29  1  0
  1 30  1  0
  1 31  1  0
  3 32  1  0
  3 33  1  0
  4 34  1  1
  5 35  1  0
  8 36  1  0
  8 37  1  0
  9 38  1  0
 13 39  1  0
 14 40  1  0
 16 41  1  0
 19 42  1  0
 20 43  1  0
 24 44  1  0
 25 45  1  0
 26 46  1  0
 27 47  1  0
 28 48  1  0
M  END
>  <smiles>  (27) 
COC[C@H](NC(=O)CNC(=O)c1ccc2cc(F)ccc2n1)c1ccccc1

>  <score_type>  (27) 
oracle

>  <origin>  (27) 
autodockgpu

>  <m_score__min__energy>  (27) 
-8.3699999999999992

>  <m_primary>  (27) 
energy

>  <rmsd>  (27) 
5.452894410829602

>  <m_score__min__rmsd>  (27) 
5.452894410829602

>  <meeko>  (27) 
{"free_energy": -7.48, "intermolecular_energy": -9.57, "internal_energy": -1.89, "cluster_size": 3, "cluster_id": 4, "rank_in_cluster": 2}

>  <energy>  (27) 
-7.36

>  <cluster_rmsd>  (27) 
1.78

>  <cluster>  (27) 
1

$$$$

     RDKit          3D

 48 50  0  0  0  0  0  0  0  0999 V2000
  143.3220   76.2360  219.1090 C   0  0  0  0  0  0  0  0  0  0  0  0
  142.3500   77.1610  218.9660 O   0  0  0  0  0  0  0  0  0  0  0  0
  141.9670   78.0250  219.9060 C   0  0  0  0  0  0  0  0  0  0  0  0
  141.4780   77.5850  221.2350 C   0  0  2  0  0  0  0  0  0  0  0  0
  140.2940   76.8180  221.2130 N   0  0  0  0  0  0  0  0  0  0  0  0
  140.4450   75.3720  221.2490 C   0  0  0  0  0  0  0  0  0  0  0  0
  141.5810   74.8360  221.2970 O   0  0  0  0  0  0  0  0  0  0  0  0
  139.2490   74.4900  221.2270 C   0  0  0  0  0  0  0  0  0  0  0  0
  139.2260   73.5570  222.3040 N   0  0  0  0  0  0  0  0  0  0  0  0
  140.1230   72.4580  222.3530 C   0  0  0  0  0  0  0  0  0  0  0  0
  140.9860   72.2630  221.4300 O   0  0  0  0  0  0  0  0  0  0  0  0
  140.0340   71.5400  223.5000 C   0  0  0  0  0  0  0  0  0  0  0  0
  139.4090   70.3160  223.3850 C   0  0  0  0  0  0  0  0  0  0  0  0
  139.3190   69.4390  224.4690 C   0  0  0  0  0  0  0  0  0  0  0  0
  139.8670   69.8030  225.6850 C   0  0  0  0  0  0  0  0  0  0  0  0
  139.8180   68.9890  226.7990 C   0  0  0  0  0  0  0  0  0  0  0  0
  140.4040   69.4540  227.9820 C   0  0  0  0  0  0  0  0  0  0  0  0
  140.3820   68.6930  229.1040 F   0  0  0  0  0  0  0  0  0  0  0  0
  141.0170   70.6910  228.0370 C   0  0  0  0  0  0  0  0  0  0  0  0
  141.0690   71.5070  226.9270 C   0  0  0  0  0  0  0  0  0  0  0  0
  140.4840   71.0380  225.7570 C   0  0  0  0  0  0  0  0  0  0  0  0
  140.5530   71.8590  224.6930 N   0  0  0  0  0  0  0  0  0  0  0  0
  141.4230   78.7790  222.1380 C   0  0  0  0  0  0  0  0  0  0  0  0
  142.5400   79.4640  222.5410 C   0  0  0  0  0  0  0  0  0  0  0  0
  142.4840   80.5710  223.3800 C   0  0  0  0  0  0  0  0  0  0  0  0
  141.2660   81.0180  223.8430 C   0  0  0  0  0  0  0  0  0  0  0  0
  140.1220   80.3520  223.4570 C   0  0  0  0  0  0  0  0  0  0  0  0
  140.2030   79.2620  222.6260 C   0  0  0  0  0  0  0  0  0  0  0  0
  143.5065   76.0604  220.1791 H   0  0  0  0  0  0  0  0  0  0  0  0
  143.0068   75.2962  218.6322 H   0  0  0  0  0  0  0  0  0  0  0  0
  144.2451   76.5974  218.6322 H   0  0  0  0  0  0  0  0  0  0  0  0
  142.8346   78.6734  220.0980 H   0  0  0  0  0  0  0  0  0  0  0  0
  141.0587   78.4576  219.4611 H   0  0  0  0  0  0  0  0  0  0  0  0
  142.1979   76.8598  221.6423 H   0  0  0  0  0  0  0  0  0  0  0  0
  139.3060   77.1270  221.1950 H   0  0  0  0  0  0  0  0  0  0  0  0
  138.3485   75.1187  221.2885 H   0  0  0  0  0  0  0  0  0  0  0  0
  139.2830   73.9123  220.2915 H   0  0  0  0  0  0  0  0  0  0  0  0
  138.5340   73.6690  223.0920 H   0  0  0  0  0  0  0  0  0  0  0  0
  138.9718   70.0238  222.4188 H   0  0  0  0  0  0  0  0  0  0  0  0
  138.8164   68.4671  224.3559 H   0  0  0  0  0  0  0  0  0  0  0  0
  139.3322   68.0029  226.7580 H   0  0  0  0  0  0  0  0  0  0  0  0
  141.4702   71.0297  228.9803 H   0  0  0  0  0  0  0  0  0  0  0  0
  141.5555   72.4928  226.9660 H   0  0  0  0  0  0  0  0  0  0  0  0
  143.5233   79.1229  222.1850 H   0  0  0  0  0  0  0  0  0  0  0  0
  143.4094   81.0884  223.6733 H   0  0  0  0  0  0  0  0  0  0  0  0
  141.2071   81.8913  224.5092 H   0  0  0  0  0  0  0  0  0  0  0  0
  139.1406   80.6953  223.8162 H   0  0  0  0  0  0  0  0  0  0  0  0
  139.2750   78.7493  222.3329 H   0  0  0  0  0  0  0  0  0  0  0  0
  1  2  1  0
  2  3  1  0
  3  4  1  0
  4  5  1  0
  5  6  1  0
  6  7  2  0
  6  8  1  0
  8  9  1  0
  9 10  1  0
 10 11  2  0
 10 12  1  0
 12 13  2  0
 13 14  1  0
 14 15  2  0
 15 16  1  0
 16 17  2  0
 17 18  1  0
 17 19  1  0
 19 20  2  0
 20 21  1  0
 21 22  2  0
  4 23  1  0
 23 24  2  0
 24 25  1  0
 25 26  2  0
 26 27  1  0
 27 28  2  0
 22 12  1  0
 28 23  1  0
 21 15  1  0
  1 29  1  0
  1 30  1  0
  1 31  1  0
  3 32  1  0
  3 33  1  0
  4 34  1  1
  5 35  1  0
  8 36  1  0
  8 37  1  0
  9 38  1  0
 13 39  1  0
 14 40  1  0
 16 41  1  0
 19 42  1  0
 20 43  1  0
 24 44  1  0
 25 45  1  0
 26 46  1  0
 27 47  1  0
 28 48  1  0
M  END
>  <smiles>  (28) 
COC[C@H](NC(=O)CNC(=O)c1ccc2cc(F)ccc2n1)c1ccccc1

>  <score_type>  (28) 
oracle

>  <origin>  (28) 
autodockgpu

>  <m_score__min__energy>  (28) 
-8.3699999999999992

>  <m_primary>  (28) 
energy

>  <rmsd>  (28) 
3.985310246426011

>  <m_score__min__rmsd>  (28) 
3.985310246426011

>  <meeko>  (28) 
{"free_energy": -8.27, "intermolecular_energy": -10.35, "internal_energy": -1.19, "cluster_size": 30, "cluster_id": 1, "rank_in_cluster": 11}

>  <energy>  (28) 
-7.18

>  <cluster_rmsd>  (28) 
1.55

>  <cluster>  (28) 
1

$$$$

     RDKit          3D

 48 50  0  0  0  0  0  0  0  0999 V2000
  135.7900   74.3810  223.5380 C   0  0  0  0  0  0  0  0  0  0  0  0
  135.8280   75.6450  223.0690 O   0  0  0  0  0  0  0  0  0  0  0  0
  136.8910   76.4480  223.1030 C   0  0  0  0  0  0  0  0  0  0  0  0
  138.0070   76.3260  222.1330 C   0  0  2  0  0  0  0  0  0  0  0  0
  138.4640   75.0100  221.9080 N   0  0  0  0  0  0  0  0  0  0  0  0
  138.5220   74.5600  220.5260 C   0  0  0  0  0  0  0  0  0  0  0  0
  138.1800   75.3140  219.5800 O   0  0  0  0  0  0  0  0  0  0  0  0
  138.9900   73.1880  220.2010 C   0  0  0  0  0  0  0  0  0  0  0  0
  139.0120   72.3240  221.3330 N   0  0  0  0  0  0  0  0  0  0  0  0
  139.9490   72.5020  222.3840 C   0  0  0  0  0  0  0  0  0  0  0  0
  140.8100   73.4470  222.3540 O   0  0  0  0  0  0  0  0  0  0  0  0
  139.9040   71.5670  223.5190 C   0  0  0  0  0  0  0  0  0  0  0  0
  139.2750   70.3450  223.4100 C   0  0  0  0  0  0  0  0  0  0  0  0
  139.2270   69.4510  224.4820 C   0  0  0  0  0  0  0  0  0  0  0  0
  139.8230   69.7940  225.6810 C   0  0  0  0  0  0  0  0  0  0  0  0
  139.8170   68.9630  226.7830 C   0  0  0  0  0  0  0  0  0  0  0  0
  140.4500   69.4090  227.9490 C   0  0  0  0  0  0  0  0  0  0  0  0
  140.4720   68.6300  229.0600 F   0  0  0  0  0  0  0  0  0  0  0  0
  141.0650   70.6450  228.0000 C   0  0  0  0  0  0  0  0  0  0  0  0
  141.0740   71.4790  226.9020 C   0  0  0  0  0  0  0  0  0  0  0  0
  140.4430   71.0280  225.7480 C   0  0  0  0  0  0  0  0  0  0  0  0
  140.4710   71.8670  224.6960 N   0  0  0  0  0  0  0  0  0  0  0  0
  139.0820   77.2940  222.5250 C   0  0  0  0  0  0  0  0  0  0  0  0
  140.4180   77.0260  222.3830 C   0  0  0  0  0  0  0  0  0  0  0  0
  141.4110   77.9260  222.7500 C   0  0  0  0  0  0  0  0  0  0  0  0
  141.0640   79.1480  223.2830 C   0  0  0  0  0  0  0  0  0  0  0  0
  139.7280   79.4510  223.4380 C   0  0  0  0  0  0  0  0  0  0  0  0
  138.7650   78.5450  223.0670 C   0  0  0  0  0  0  0  0  0  0  0  0
  135.7905   74.3978  224.6379 H   0  0  0  0  0  0  0  0  0  0  0  0
  134.8765   73.8841  223.1793 H   0  0  0  0  0  0  0  0  0  0  0  0
  136.6720   73.8301  223.1793 H   0  0  0  0  0  0  0  0  0  0  0  0
  136.5047   77.4726  222.9987 H   0  0  0  0  0  0  0  0  0  0  0  0
  137.3736   76.1478  224.0448 H   0  0  0  0  0  0  0  0  0  0  0  0
  137.6262   76.5955  221.1368 H   0  0  0  0  0  0  0  0  0  0  0  0
  138.7920   74.2990  222.5850 H   0  0  0  0  0  0  0  0  0  0  0  0
  138.3165   72.7580  219.4450 H   0  0  0  0  0  0  0  0  0  0  0  0
  140.0227   73.2719  219.8314 H   0  0  0  0  0  0  0  0  0  0  0  0
  138.3230   71.5280  221.4100 H   0  0  0  0  0  0  0  0  0  0  0  0
  138.8002   70.0679  222.4572 H   0  0  0  0  0  0  0  0  0  0  0  0
  138.7189   68.4815  224.3729 H   0  0  0  0  0  0  0  0  0  0  0  0
  139.3286   67.9781  226.7460 H   0  0  0  0  0  0  0  0  0  0  0  0
  141.5547   70.9686  228.9303 H   0  0  0  0  0  0  0  0  0  0  0  0
  141.5621   72.4641  226.9377 H   0  0  0  0  0  0  0  0  0  0  0  0
  140.7177   76.0559  221.9599 H   0  0  0  0  0  0  0  0  0  0  0  0
  142.4707   77.6636  222.6154 H   0  0  0  0  0  0  0  0  0  0  0  0
  141.8395   79.8695  223.5798 H   0  0  0  0  0  0  0  0  0  0  0  0
  139.4322   80.4225  223.8606 H   0  0  0  0  0  0  0  0  0  0  0  0
  137.7063   78.8120  223.2006 H   0  0  0  0  0  0  0  0  0  0  0  0
  1  2  1  0
  2  3  1  0
  3  4  1  0
  4  5  1  0
  5  6  1  0
  6  7  2  0
  6  8  1  0
  8  9  1  0
  9 10  1  0
 10 11  2  0
 10 12  1  0
 12 13  2  0
 13 14  1  0
 14 15  2  0
 15 16  1  0
 16 17  2  0
 17 18  1  0
 17 19  1  0
 19 20  2  0
 20 21  1  0
 21 22  2  0
  4 23  1  0
 23 24  2  0
 24 25  1  0
 25 26  2  0
 26 27  1  0
 27 28  2  0
 22 12  1  0
 28 23  1  0
 21 15  1  0
  1 29  1  0
  1 30  1  0
  1 31  1  0
  3 32  1  0
  3 33  1  0
  4 34  1  6
  5 35  1  0
  8 36  1  0
  8 37  1  0
  9 38  1  0
 13 39  1  0
 14 40  1  0
 16 41  1  0
 19 42  1  0
 20 43  1  0
 24 44  1  0
 25 45  1  0
 26 46  1  0
 27 47  1  0
 28 48  1  0
M  END
>  <smiles>  (29) 
COC[C@H](NC(=O)CNC(=O)c1ccc2cc(F)ccc2n1)c1ccccc1

>  <score_type>  (29) 
oracle

>  <origin>  (29) 
autodockgpu

>  <m_score__min__energy>  (29) 
-8.3699999999999992

>  <m_primary>  (29) 
energy

>  <rmsd>  (29) 
4.6883866335921995

>  <m_score__min__rmsd>  (29) 
4.6883866335921995

>  <meeko>  (29) 
{"free_energy": -7.37, "intermolecular_energy": -9.46, "internal_energy": -2.06, "cluster_size": 30, "cluster_id": 1, "rank_in_cluster": 26}

>  <energy>  (29) 
-7.14

>  <cluster_rmsd>  (29) 
1.3

>  <cluster>  (29) 
1

$$$$

     RDKit          3D

 48 50  0  0  0  0  0  0  0  0999 V2000
  139.6120   72.9730  221.5950 C   0  0  0  0  0  0  0  0  0  0  0  0
  140.2060   72.9660  222.8060 O   0  0  0  0  0  0  0  0  0  0  0  0
  140.6290   71.8780  223.4490 C   0  0  0  0  0  0  0  0  0  0  0  0
  139.6960   70.9480  224.1310 C   0  0  2  0  0  0  0  0  0  0  0  0
  138.3270   71.1860  223.8850 N   0  0  0  0  0  0  0  0  0  0  0  0
  137.5180   70.0380  223.5040 C   0  0  0  0  0  0  0  0  0  0  0  0
  138.0200   68.8910  223.4020 O   0  0  0  0  0  0  0  0  0  0  0  0
  136.0670   70.2010  223.2260 C   0  0  0  0  0  0  0  0  0  0  0  0
  135.4610   71.2250  224.0090 N   0  0  0  0  0  0  0  0  0  0  0  0
  135.6840   72.6000  223.7350 C   0  0  0  0  0  0  0  0  0  0  0  0
  136.4410   72.9710  222.7740 O   0  0  0  0  0  0  0  0  0  0  0  0
  135.0190   73.5940  224.5910 C   0  0  0  0  0  0  0  0  0  0  0  0
  135.3820   74.9240  224.5520 C   0  0  0  0  0  0  0  0  0  0  0  0
  134.7570   75.8750  225.3610 C   0  0  0  0  0  0  0  0  0  0  0  0
  133.7510   75.4790  226.2230 C   0  0  0  0  0  0  0  0  0  0  0  0
  133.0870   76.3620  227.0520 C   0  0  0  0  0  0  0  0  0  0  0  0
  132.0840   75.8550  227.8860 C   0  0  0  0  0  0  0  0  0  0  0  0
  131.4020   76.6800  228.7190 F   0  0  0  0  0  0  0  0  0  0  0  0
  131.7630   74.5120  227.8820 C   0  0  0  0  0  0  0  0  0  0  0  0
  132.4230   73.6260  227.0560 C   0  0  0  0  0  0  0  0  0  0  0  0
  133.4170   74.1370  226.2310 C   0  0  0  0  0  0  0  0  0  0  0  0
  134.0400   73.2460  225.4380 N   0  0  0  0  0  0  0  0  0  0  0  0
  140.0610   70.8940  225.5840 C   0  0  0  0  0  0  0  0  0  0  0  0
  139.6420   69.8960  226.4240 C   0  0  0  0  0  0  0  0  0  0  0  0
  139.9820   69.8500  227.7710 C   0  0  0  0  0  0  0  0  0  0  0  0
  140.7730   70.8410  228.3100 C   0  0  0  0  0  0  0  0  0  0  0  0
  141.2140   71.8600  227.4930 C   0  0  0  0  0  0  0  0  0  0  0  0
  140.8650   71.8820  226.1650 C   0  0  0  0  0  0  0  0  0  0  0  0
  138.5195   72.9859  221.7225 H   0  0  0  0  0  0  0  0  0  0  0  0
  139.9266   73.8675  221.0374 H   0  0  0  0  0  0  0  0  0  0  0  0
  139.9055   72.0713  221.0374 H   0  0  0  0  0  0  0  0  0  0  0  0
  141.1742   71.2760  222.7071 H   0  0  0  0  0  0  0  0  0  0  0  0
  141.1775   72.3134  224.2973 H   0  0  0  0  0  0  0  0  0  0  0  0
  139.8246   69.9485  223.6900 H   0  0  0  0  0  0  0  0  0  0  0  0
  137.7860   72.0660  223.9520 H   0  0  0  0  0  0  0  0  0  0  0  0
  135.9400   70.4517  222.1625 H   0  0  0  0  0  0  0  0  0  0  0  0
  135.5739   69.2528  223.4866 H   0  0  0  0  0  0  0  0  0  0  0  0
  134.8270   70.9750  224.8150 H   0  0  0  0  0  0  0  0  0  0  0  0
  136.1822   75.2428  223.8679 H   0  0  0  0  0  0  0  0  0  0  0  0
  135.0624   76.9307  225.3130 H   0  0  0  0  0  0  0  0  0  0  0  0
  133.3392   77.4327  227.0566 H   0  0  0  0  0  0  0  0  0  0  0  0
  130.9688   74.1430  228.5477 H   0  0  0  0  0  0  0  0  0  0  0  0
  132.1717   72.5551  227.0508 H   0  0  0  0  0  0  0  0  0  0  0  0
  139.0084   69.0956  226.0142 H   0  0  0  0  0  0  0  0  0  0  0  0
  139.6211   69.0259  228.4039 H   0  0  0  0  0  0  0  0  0  0  0  0
  141.0481   70.8194  229.3748 H   0  0  0  0  0  0  0  0  0  0  0  0
  141.8478   72.6584  227.9063 H   0  0  0  0  0  0  0  0  0  0  0  0
  141.2305   72.7061  225.5347 H   0  0  0  0  0  0  0  0  0  0  0  0
  1  2  1  0
  2  3  1  0
  3  4  1  0
  4  5  1  0
  5  6  1  0
  6  7  2  0
  6  8  1  0
  8  9  1  0
  9 10  1  0
 10 11  2  0
 10 12  1  0
 12 13  2  0
 13 14  1  0
 14 15  2  0
 15 16  1  0
 16 17  2  0
 17 18  1  0
 17 19  1  0
 19 20  2  0
 20 21  1  0
 21 22  2  0
  4 23  1  0
 23 24  2  0
 24 25  1  0
 25 26  2  0
 26 27  1  0
 27 28  2  0
 22 12  1  0
 28 23  1  0
 21 15  1  0
  1 29  1  0
  1 30  1  0
  1 31  1  0
  3 32  1  0
  3 33  1  0
  4 34  1  6
  5 35  1  0
  8 36  1  0
  8 37  1  0
  9 38  1  0
 13 39  1  0
 14 40  1  0
 16 41  1  0
 19 42  1  0
 20 43  1  0
 24 44  1  0
 25 45  1  0
 26 46  1  0
 27 47  1  0
 28 48  1  0
M  END
>  <smiles>  (30) 
COC[C@H](NC(=O)CNC(=O)c1ccc2cc(F)ccc2n1)c1ccccc1

>  <score_type>  (30) 
oracle

>  <origin>  (30) 
autodockgpu

>  <m_score__min__energy>  (30) 
-8.3699999999999992

>  <m_primary>  (30) 
energy

>  <rmsd>  (30) 
9.534652400867605

>  <m_score__min__rmsd>  (30) 
9.534652400867605

>  <meeko>  (30) 
{"free_energy": -7.29, "intermolecular_energy": -9.38, "internal_energy": -2.51, "cluster_size": 14, "cluster_id": 2, "rank_in_cluster": 10}

>  <energy>  (30) 
-7.1

>  <cluster_rmsd>  (30) 
1.33

>  <cluster>  (30) 
1

$$$$

     RDKit          3D

 48 50  0  0  0  0  0  0  0  0999 V2000
  137.8090   80.0990  223.4360 C   0  0  0  0  0  0  0  0  0  0  0  0
  138.1590   78.8790  222.9780 O   0  0  0  0  0  0  0  0  0  0  0  0
  138.3300   78.5590  221.6950 C   0  0  0  0  0  0  0  0  0  0  0  0
  139.6750   78.4500  221.0790 C   0  0  2  0  0  0  0  0  0  0  0  0
  140.0380   77.1520  220.6620 N   0  0  0  0  0  0  0  0  0  0  0  0
  139.7790   76.0650  221.5930 C   0  0  0  0  0  0  0  0  0  0  0  0
  139.2540   76.2790  222.7150 O   0  0  0  0  0  0  0  0  0  0  0  0
  140.1320   74.6670  221.2340 C   0  0  0  0  0  0  0  0  0  0  0  0
  139.9530   73.7520  222.3110 N   0  0  0  0  0  0  0  0  0  0  0  0
  140.4840   72.4370  222.2630 C   0  0  0  0  0  0  0  0  0  0  0  0
  141.1440   72.0230  221.2490 O   0  0  0  0  0  0  0  0  0  0  0  0
  140.2560   71.5540  223.4180 C   0  0  0  0  0  0  0  0  0  0  0  0
  139.5930   70.3540  223.2760 C   0  0  0  0  0  0  0  0  0  0  0  0
  139.3710   69.5100  224.3670 C   0  0  0  0  0  0  0  0  0  0  0  0
  139.8240   69.8830  225.6180 C   0  0  0  0  0  0  0  0  0  0  0  0
  139.6430   69.1010  226.7420 C   0  0  0  0  0  0  0  0  0  0  0  0
  140.1420   69.5730  227.9620 C   0  0  0  0  0  0  0  0  0  0  0  0
  139.9900   68.8440  229.0950 F   0  0  0  0  0  0  0  0  0  0  0  0
  140.7990   70.7860  228.0430 C   0  0  0  0  0  0  0  0  0  0  0  0
  140.9830   71.5700  226.9240 C   0  0  0  0  0  0  0  0  0  0  0  0
  140.4850   71.0940  225.7170 C   0  0  0  0  0  0  0  0  0  0  0  0
  140.6820   71.8840  224.6460 N   0  0  0  0  0  0  0  0  0  0  0  0
  140.6670   79.1070  221.9900 C   0  0  0  0  0  0  0  0  0  0  0  0
  141.0520   80.4150  221.8580 C   0  0  0  0  0  0  0  0  0  0  0  0
  141.9740   81.0190  222.7050 C   0  0  0  0  0  0  0  0  0  0  0  0
  142.5420   80.2920  223.7280 C   0  0  0  0  0  0  0  0  0  0  0  0
  142.1770   78.9720  223.8890 C   0  0  0  0  0  0  0  0  0  0  0  0
  141.2630   78.3980  223.0410 C   0  0  0  0  0  0  0  0  0  0  0  0
  137.8110   80.0921  224.5360 H   0  0  0  0  0  0  0  0  0  0  0  0
  138.5287   80.8474  223.0727 H   0  0  0  0  0  0  0  0  0  0  0  0
  136.8020   80.3520  223.0727 H   0  0  0  0  0  0  0  0  0  0  0  0
  137.8489   77.5795  221.5564 H   0  0  0  0  0  0  0  0  0  0  0  0
  137.9151   79.4396  221.1828 H   0  0  0  0  0  0  0  0  0  0  0  0
  139.6585   78.9880  220.1197 H   0  0  0  0  0  0  0  0  0  0  0  0
  140.4530   76.8370  219.7680 H   0  0  0  0  0  0  0  0  0  0  0  0
  139.4953   74.3494  220.3951 H   0  0  0  0  0  0  0  0  0  0  0  0
  141.1992   74.6559  220.9677 H   0  0  0  0  0  0  0  0  0  0  0  0
  139.4170   74.0410  223.1720 H   0  0  0  0  0  0  0  0  0  0  0  0
  139.2306   70.0542  222.2816 H   0  0  0  0  0  0  0  0  0  0  0  0
  138.8399   68.5563  224.2312 H   0  0  0  0  0  0  0  0  0  0  0  0
  139.1214   68.1345  226.6804 H   0  0  0  0  0  0  0  0  0  0  0  0
  141.1810   71.1313  229.0151 H   0  0  0  0  0  0  0  0  0  0  0  0
  141.5047   72.5365  226.9843 H   0  0  0  0  0  0  0  0  0  0  0  0
  140.6124   81.0134  221.0464 H   0  0  0  0  0  0  0  0  0  0  0  0
  142.2491   82.0740  222.5589 H   0  0  0  0  0  0  0  0  0  0  0  0
  143.2742   80.7565  224.4049 H   0  0  0  0  0  0  0  0  0  0  0  0
  142.6203   78.3764  224.7006 H   0  0  0  0  0  0  0  0  0  0  0  0
  140.9887   77.3435  223.1921 H   0  0  0  0  0  0  0  0  0  0  0  0
  1  2  1  0
  2  3  1  0
  3  4  1  0
  4  5  1  0
  5  6  1  0
  6  7  2  0
  6  8  1  0
  8  9  1  0
  9 10  1  0
 10 11  2  0
 10 12  1  0
 12 13  2  0
 13 14  1  0
 14 15  2  0
 15 16  1  0
 16 17  2  0
 17 18  1  0
 17 19  1  0
 19 20  2  0
 20 21  1  0
 21 22  2  0
  4 23  1  0
 23 24  2  0
 24 25  1  0
 25 26  2  0
 26 27  1  0
 27 28  2  0
 22 12  1  0
 28 23  1  0
 21 15  1  0
  1 29  1  0
  1 30  1  0
  1 31  1  0
  3 32  1  0
  3 33  1  0
  4 34  1  6
  5 35  1  0
  8 36  1  0
  8 37  1  0
  9 38  1  0
 13 39  1  0
 14 40  1  0
 16 41  1  0
 19 42  1  0
 20 43  1  0
 24 44  1  0
 25 45  1  0
 26 46  1  0
 27 47  1  0
 28 48  1  0
M  END
>  <smiles>  (31) 
COC[C@H](NC(=O)CNC(=O)c1ccc2cc(F)ccc2n1)c1ccccc1

>  <score_type>  (31) 
oracle

>  <origin>  (31) 
autodockgpu

>  <m_score__min__energy>  (31) 
-8.3699999999999992

>  <m_primary>  (31) 
energy

>  <rmsd>  (31) 
4.128497667182584

>  <m_score__min__rmsd>  (31) 
4.128497667182584

>  <meeko>  (31) 
{"free_energy": -7.92, "intermolecular_energy": -10.01, "internal_energy": -1.58, "cluster_size": 30, "cluster_id": 1, "rank_in_cluster": 19}

>  <energy>  (31) 
-8.19

>  <cluster_rmsd>  (31) 
0.0

>  <cluster>  (31) 
2

$$$$

     RDKit          3D

 48 50  0  0  0  0  0  0  0  0999 V2000
  142.2550   79.7810  218.3670 C   0  0  0  0  0  0  0  0  0  0  0  0
  141.7780   79.2720  219.5220 O   0  0  0  0  0  0  0  0  0  0  0  0
  141.8450   77.9910  219.8850 C   0  0  0  0  0  0  0  0  0  0  0  0
  141.5100   77.5380  221.2570 C   0  0  2  0  0  0  0  0  0  0  0  0
  140.3720   76.7090  221.3520 N   0  0  0  0  0  0  0  0  0  0  0  0
  140.5860   75.2780  221.1980 C   0  0  0  0  0  0  0  0  0  0  0  0
  141.7330   74.8090  220.9900 O   0  0  0  0  0  0  0  0  0  0  0  0
  139.4410   74.3340  221.2830 C   0  0  0  0  0  0  0  0  0  0  0  0
  139.5400   73.4370  222.3850 N   0  0  0  0  0  0  0  0  0  0  0  0
  139.6340   72.0330  222.1930 C   0  0  0  0  0  0  0  0  0  0  0  0
  139.6330   71.5220  221.0210 O   0  0  0  0  0  0  0  0  0  0  0  0
  139.7340   71.1750  223.3840 C   0  0  0  0  0  0  0  0  0  0  0  0
  139.3020   69.8660  223.3560 C   0  0  0  0  0  0  0  0  0  0  0  0
  139.3930   69.0440  224.4810 C   0  0  0  0  0  0  0  0  0  0  0  0
  139.9260   69.5500  225.6520 C   0  0  0  0  0  0  0  0  0  0  0  0
  140.0480   68.7980  226.8030 C   0  0  0  0  0  0  0  0  0  0  0  0
  140.6020   69.4090  227.9340 C   0  0  0  0  0  0  0  0  0  0  0  0
  140.7430   68.7140  229.0910 F   0  0  0  0  0  0  0  0  0  0  0  0
  141.0170   70.7260  227.9030 C   0  0  0  0  0  0  0  0  0  0  0  0
  140.8980   71.4810  226.7560 C   0  0  0  0  0  0  0  0  0  0  0  0
  140.3470   70.8670  225.6370 C   0  0  0  0  0  0  0  0  0  0  0  0
  140.2460   71.6320  224.5350 N   0  0  0  0  0  0  0  0  0  0  0  0
  141.4780   78.7370  222.1560 C   0  0  0  0  0  0  0  0  0  0  0  0
  142.6070   79.4050  222.5520 C   0  0  0  0  0  0  0  0  0  0  0  0
  142.5720   80.5150  223.3880 C   0  0  0  0  0  0  0  0  0  0  0  0
  141.3630   80.9830  223.8530 C   0  0  0  0  0  0  0  0  0  0  0  0
  140.2070   80.3350  223.4730 C   0  0  0  0  0  0  0  0  0  0  0  0
  140.2670   79.2410  222.6460 C   0  0  0  0  0  0  0  0  0  0  0  0
  142.9917   80.5671  218.5893 H   0  0  0  0  0  0  0  0  0  0  0  0
  142.7365   78.9813  217.7851 H   0  0  0  0  0  0  0  0  0  0  0  0
  141.4258   80.2096  217.7851 H   0  0  0  0  0  0  0  0  0  0  0  0
  141.1708   77.4451  219.2087 H   0  0  0  0  0  0  0  0  0  0  0  0
  142.9268   77.7973  219.8388 H   0  0  0  0  0  0  0  0  0  0  0  0
  142.3031   76.8557  221.5969 H   0  0  0  0  0  0  0  0  0  0  0  0
  139.3860   76.9590  221.5390 H   0  0  0  0  0  0  0  0  0  0  0  0
  138.5136   74.9163  221.3872 H   0  0  0  0  0  0  0  0  0  0  0  0
  139.4447   73.7286  220.3646 H   0  0  0  0  0  0  0  0  0  0  0  0
  139.5460   73.8040  223.3740 H   0  0  0  0  0  0  0  0  0  0  0  0
  138.8761   69.4601  222.4266 H   0  0  0  0  0  0  0  0  0  0  0  0
  139.0434   68.0020  224.4359 H   0  0  0  0  0  0  0  0  0  0  0  0
  139.7193   67.7486  226.8307 H   0  0  0  0  0  0  0  0  0  0  0  0
  141.4490   71.1792  228.8074 H   0  0  0  0  0  0  0  0  0  0  0  0
  141.2268   72.5303  226.7271 H   0  0  0  0  0  0  0  0  0  0  0  0
  143.5832   79.0474  222.1928 H   0  0  0  0  0  0  0  0  0  0  0  0
  143.5066   81.0178  223.6772 H   0  0  0  0  0  0  0  0  0  0  0  0
  141.3205   81.8593  224.5166 H   0  0  0  0  0  0  0  0  0  0  0  0
  139.2327   80.6961  223.8340 H   0  0  0  0  0  0  0  0  0  0  0  0
  139.3299   78.7423  222.3578 H   0  0  0  0  0  0  0  0  0  0  0  0
  1  2  1  0
  2  3  1  0
  3  4  1  0
  4  5  1  0
  5  6  1  0
  6  7  2  0
  6  8  1  0
  8  9  1  0
  9 10  1  0
 10 11  2  0
 10 12  1  0
 12 13  2  0
 13 14  1  0
 14 15  2  0
 15 16  1  0
 16 17  2  0
 17 18  1  0
 17 19  1  0
 19 20  2  0
 20 21  1  0
 21 22  2  0
  4 23  1  0
 23 24  2  0
 24 25  1  0
 25 26  2  0
 26 27  1  0
 27 28  2  0
 22 12  1  0
 28 23  1  0
 21 15  1  0
  1 29  1  0
  1 30  1  0
  1 31  1  0
  3 32  1  0
  3 33  1  0
  4 34  1  1
  5 35  1  0
  8 36  1  0
  8 37  1  0
  9 38  1  0
 13 39  1  0
 14 40  1  0
 16 41  1  0
 19 42  1  0
 20 43  1  0
 24 44  1  0
 25 45  1  0
 26 46  1  0
 27 47  1  0
 28 48  1  0
M  END
>  <smiles>  (32) 
COC[C@H](NC(=O)CNC(=O)c1ccc2cc(F)ccc2n1)c1ccccc1

>  <score_type>  (32) 
oracle

>  <origin>  (32) 
autodockgpu

>  <m_score__min__energy>  (32) 
-8.3699999999999992

>  <m_primary>  (32) 
energy

>  <rmsd>  (32) 
4.06358963971818

>  <m_score__min__rmsd>  (32) 
4.06358963971818

>  <meeko>  (32) 
{"free_energy": -7.91, "intermolecular_energy": -10.0, "internal_energy": -1.39, "cluster_size": 30, "cluster_id": 1, "rank_in_cluster": 20}

>  <energy>  (32) 
-7.82

>  <cluster_rmsd>  (32) 
0.57

>  <cluster>  (32) 
2

$$$$

     RDKit          3D

 48 50  0  0  0  0  0  0  0  0999 V2000
  136.7480   76.7450  223.0090 C   0  0  0  0  0  0  0  0  0  0  0  0
  138.0790   76.9450  223.1000 O   0  0  0  0  0  0  0  0  0  0  0  0
  138.7210   78.0440  222.7030 C   0  0  0  0  0  0  0  0  0  0  0  0
  140.0500   77.9920  222.0470 C   0  0  2  0  0  0  0  0  0  0  0  0
  140.6510   76.7160  222.0140 N   0  0  0  0  0  0  0  0  0  0  0  0
  139.9830   75.6940  221.2240 C   0  0  0  0  0  0  0  0  0  0  0  0
  138.9200   75.9420  220.6020 O   0  0  0  0  0  0  0  0  0  0  0  0
  140.5480   74.3220  221.1360 C   0  0  0  0  0  0  0  0  0  0  0  0
  140.2180   73.5110  222.2590 N   0  0  0  0  0  0  0  0  0  0  0  0
  140.6920   72.1780  222.3760 C   0  0  0  0  0  0  0  0  0  0  0  0
  141.4340   71.6550  221.4760 O   0  0  0  0  0  0  0  0  0  0  0  0
  140.3060   71.4060  223.5690 C   0  0  0  0  0  0  0  0  0  0  0  0
  139.5660   70.2490  223.4580 C   0  0  0  0  0  0  0  0  0  0  0  0
  139.1940   69.5100  224.5840 C   0  0  0  0  0  0  0  0  0  0  0  0
  139.5750   69.9460  225.8390 C   0  0  0  0  0  0  0  0  0  0  0  0
  139.2460   69.2690  226.9970 C   0  0  0  0  0  0  0  0  0  0  0  0
  139.6820   69.7990  228.2170 C   0  0  0  0  0  0  0  0  0  0  0  0
  139.3850   69.1720  229.3820 F   0  0  0  0  0  0  0  0  0  0  0  0
  140.4220   70.9640  228.2660 C   0  0  0  0  0  0  0  0  0  0  0  0
  140.7540   71.6440  227.1130 C   0  0  0  0  0  0  0  0  0  0  0  0
  140.3170   71.1110  225.9060 C   0  0  0  0  0  0  0  0  0  0  0  0
  140.6580   71.7990  224.8000 N   0  0  0  0  0  0  0  0  0  0  0  0
  140.9120   79.0660  222.6380 C   0  0  0  0  0  0  0  0  0  0  0  0
  142.2810   79.0390  222.5880 C   0  0  0  0  0  0  0  0  0  0  0  0
  143.0760   80.0370  223.1400 C   0  0  0  0  0  0  0  0  0  0  0  0
  142.4860   81.1100  223.7720 C   0  0  0  0  0  0  0  0  0  0  0  0
  141.1110   81.1690  223.8400 C   0  0  0  0  0  0  0  0  0  0  0  0
  140.3470   80.1710  223.2870 C   0  0  0  0  0  0  0  0  0  0  0  0
  136.3170   76.6802  224.0190 H   0  0  0  0  0  0  0  0  0  0  0  0
  136.2874   77.5840  222.4669 H   0  0  0  0  0  0  0  0  0  0  0  0
  136.5543   75.8077  222.4669 H   0  0  0  0  0  0  0  0  0  0  0  0
  138.0496   78.5523  221.9953 H   0  0  0  0  0  0  0  0  0  0  0  0
  138.9592   78.5275  223.6619 H   0  0  0  0  0  0  0  0  0  0  0  0
  139.9115   78.1933  220.9745 H   0  0  0  0  0  0  0  0  0  0  0  0
  141.5260   76.3860  222.4570 H   0  0  0  0  0  0  0  0  0  0  0  0
  140.1569   73.8395  220.2282 H   0  0  0  0  0  0  0  0  0  0  0  0
  141.6435   74.4184  221.1105 H   0  0  0  0  0  0  0  0  0  0  0  0
  139.6090   73.8920  223.0320 H   0  0  0  0  0  0  0  0  0  0  0  0
  139.2613   69.8993  222.4606 H   0  0  0  0  0  0  0  0  0  0  0  0
  138.6029   68.5890  224.4726 H   0  0  0  0  0  0  0  0  0  0  0  0
  138.6582   68.3399  226.9616 H   0  0  0  0  0  0  0  0  0  0  0  0
  140.7517   71.3556  229.2396 H   0  0  0  0  0  0  0  0  0  0  0  0
  141.3423   72.5728  227.1473 H   0  0  0  0  0  0  0  0  0  0  0  0
  142.7725   78.1906  222.0893 H   0  0  0  0  0  0  0  0  0  0  0  0
  144.1719   79.9704  223.0725 H   0  0  0  0  0  0  0  0  0  0  0  0
  143.1024   81.9062  224.2149 H   0  0  0  0  0  0  0  0  0  0  0  0
  140.6233   82.0192  224.3394 H   0  0  0  0  0  0  0  0  0  0  0  0
  139.2515   80.2420  223.3563 H   0  0  0  0  0  0  0  0  0  0  0  0
  1  2  1  0
  2  3  1  0
  3  4  1  0
  4  5  1  0
  5  6  1  0
  6  7  2  0
  6  8  1  0
  8  9  1  0
  9 10  1  0
 10 11  2  0
 10 12  1  0
 12 13  2  0
 13 14  1  0
 14 15  2  0
 15 16  1  0
 16 17  2  0
 17 18  1  0
 17 19  1  0
 19 20  2  0
 20 21  1  0
 21 22  2  0
  4 23  1  0
 23 24  2  0
 24 25  1  0
 25 26  2  0
 26 27  1  0
 27 28  2  0
 22 12  1  0
 28 23  1  0
 21 15  1  0
  1 29  1  0
  1 30  1  0
  1 31  1  0
  3 32  1  0
  3 33  1  0
  4 34  1  6
  5 35  1  0
  8 36  1  0
  8 37  1  0
  9 38  1  0
 13 39  1  0
 14 40  1  0
 16 41  1  0
 19 42  1  0
 20 43  1  0
 24 44  1  0
 25 45  1  0
 26 46  1  0
 27 47  1  0
 28 48  1  0
M  END
>  <smiles>  (33) 
COC[C@H](NC(=O)CNC(=O)c1ccc2cc(F)ccc2n1)c1ccccc1

>  <score_type>  (33) 
oracle

>  <origin>  (33) 
autodockgpu

>  <m_score__min__energy>  (33) 
-8.3699999999999992

>  <m_primary>  (33) 
energy

>  <rmsd>  (33) 
4.050556587106305

>  <m_score__min__rmsd>  (33) 
4.050556587106305

>  <meeko>  (33) 
{"free_energy": -8.32, "intermolecular_energy": -10.41, "internal_energy": -1.24, "cluster_size": 30, "cluster_id": 1, "rank_in_cluster": 3}

>  <energy>  (33) 
-7.45

>  <cluster_rmsd>  (33) 
1.15

>  <cluster>  (33) 
2

$$$$

     RDKit          3D

 48 50  0  0  0  0  0  0  0  0999 V2000
  143.2910   76.1510  218.3650 C   0  0  0  0  0  0  0  0  0  0  0  0
  142.9590   77.4580  218.3840 O   0  0  0  0  0  0  0  0  0  0  0  0
  142.0640   78.0130  219.2020 C   0  0  0  0  0  0  0  0  0  0  0  0
  141.6480   77.3710  220.4730 C   0  0  2  0  0  0  0  0  0  0  0  0
  140.4660   76.6030  220.3970 N   0  0  0  0  0  0  0  0  0  0  0  0
  140.3780   75.4440  221.2710 C   0  0  0  0  0  0  0  0  0  0  0  0
  141.3130   75.1450  222.0550 O   0  0  0  0  0  0  0  0  0  0  0  0
  139.1690   74.5800  221.2540 C   0  0  0  0  0  0  0  0  0  0  0  0
  139.1610   73.6100  222.2970 N   0  0  0  0  0  0  0  0  0  0  0  0
  140.1100   72.5550  222.3350 C   0  0  0  0  0  0  0  0  0  0  0  0
  141.0070   72.4350  221.4320 O   0  0  0  0  0  0  0  0  0  0  0  0
  140.0340   71.5950  223.4480 C   0  0  0  0  0  0  0  0  0  0  0  0
  139.4270   70.3680  223.2890 C   0  0  0  0  0  0  0  0  0  0  0  0
  139.3500   69.4500  224.3390 C   0  0  0  0  0  0  0  0  0  0  0  0
  139.8940   69.7760  225.5670 C   0  0  0  0  0  0  0  0  0  0  0  0
  139.8570   68.9210  226.6510 C   0  0  0  0  0  0  0  0  0  0  0  0
  140.4380   69.3500  227.8500 C   0  0  0  0  0  0  0  0  0  0  0  0
  140.4280   68.5480  228.9440 F   0  0  0  0  0  0  0  0  0  0  0  0
  141.0340   70.5920  227.9500 C   0  0  0  0  0  0  0  0  0  0  0  0
  141.0740   71.4500  226.8710 C   0  0  0  0  0  0  0  0  0  0  0  0
  140.4940   71.0160  225.6850 C   0  0  0  0  0  0  0  0  0  0  0  0
  140.5510   71.8770  224.6520 N   0  0  0  0  0  0  0  0  0  0  0  0
  141.6380   78.4150  221.5480 C   0  0  0  0  0  0  0  0  0  0  0  0
  141.4150   78.1260  222.8690 C   0  0  0  0  0  0  0  0  0  0  0  0
  141.4050   79.0980  223.8620 C   0  0  0  0  0  0  0  0  0  0  0  0
  141.6240   80.4170  223.5310 C   0  0  0  0  0  0  0  0  0  0  0  0
  141.8520   80.7430  222.2110 C   0  0  0  0  0  0  0  0  0  0  0  0
  141.8580   79.7650  221.2480 C   0  0  0  0  0  0  0  0  0  0  0  0
  143.3849   75.7815  219.3968 H   0  0  0  0  0  0  0  0  0  0  0  0
  142.5090   75.5816  217.8413 H   0  0  0  0  0  0  0  0  0  0  0  0
  144.2500   76.0239  217.8413 H   0  0  0  0  0  0  0  0  0  0  0  0
  142.4677   78.9993  219.4744 H   0  0  0  0  0  0  0  0  0  0  0  0
  141.1421   77.9550  218.6047 H   0  0  0  0  0  0  0  0  0  0  0  0
  142.3902   76.6001  220.7275 H   0  0  0  0  0  0  0  0  0  0  0  0
  139.6210   76.7470  219.8180 H   0  0  0  0  0  0  0  0  0  0  0  0
  138.2804   75.2191  221.3634 H   0  0  0  0  0  0  0  0  0  0  0  0
  139.1689   74.0346  220.2987 H   0  0  0  0  0  0  0  0  0  0  0  0
  138.4430   73.6620  223.0680 H   0  0  0  0  0  0  0  0  0  0  0  0
  138.9932   70.1055  222.3128 H   0  0  0  0  0  0  0  0  0  0  0  0
  138.8607   68.4762  224.1898 H   0  0  0  0  0  0  0  0  0  0  0  0
  139.3842   67.9307  226.5743 H   0  0  0  0  0  0  0  0  0  0  0  0
  141.4837   70.9016  228.9050 H   0  0  0  0  0  0  0  0  0  0  0  0
  141.5470   72.4402  226.9463 H   0  0  0  0  0  0  0  0  0  0  0  0
  141.2362   77.0792  223.1556 H   0  0  0  0  0  0  0  0  0  0  0  0
  141.2228   78.8150  224.9092 H   0  0  0  0  0  0  0  0  0  0  0  0
  141.6171   81.1969  224.3067 H   0  0  0  0  0  0  0  0  0  0  0  0
  142.0298   81.7911  221.9284 H   0  0  0  0  0  0  0  0  0  0  0  0
  142.0424   80.0522  220.2023 H   0  0  0  0  0  0  0  0  0  0  0  0
  1  2  1  0
  2  3  1  0
  3  4  1  0
  4  5  1  0
  5  6  1  0
  6  7  2  0
  6  8  1  0
  8  9  1  0
  9 10  1  0
 10 11  2  0
 10 12  1  0
 12 13  2  0
 13 14  1  0
 14 15  2  0
 15 16  1  0
 16 17  2  0
 17 18  1  0
 17 19  1  0
 19 20  2  0
 20 21  1  0
 21 22  2  0
  4 23  1  0
 23 24  2  0
 24 25  1  0
 25 26  2  0
 26 27  1  0
 27 28  2  0
 22 12  1  0
 28 23  1  0
 21 15  1  0
  1 29  1  0
  1 30  1  0
  1 31  1  0
  3 32  1  0
  3 33  1  0
  4 34  1  1
  5 35  1  0
  8 36  1  0
  8 37  1  0
  9 38  1  0
 13 39  1  0
 14 40  1  0
 16 41  1  0
 19 42  1  0
 20 43  1  0
 24 44  1  0
 25 45  1  0
 26 46  1  0
 27 47  1  0
 28 48  1  0
M  END
>  <smiles>  (34) 
COC[C@H](NC(=O)CNC(=O)c1ccc2cc(F)ccc2n1)c1ccccc1

>  <score_type>  (34) 
oracle

>  <origin>  (34) 
autodockgpu

>  <m_score__min__energy>  (34) 
-8.3699999999999992

>  <m_primary>  (34) 
energy

>  <rmsd>  (34) 
3.9148883063591478

>  <m_score__min__rmsd>  (34) 
3.9148883063591478

>  <meeko>  (34) 
{"free_energy": -8.29, "intermolecular_energy": -10.38, "internal_energy": -1.22, "cluster_size": 30, "cluster_id": 1, "rank_in_cluster": 9}

>  <energy>  (34) 
-7.41

>  <cluster_rmsd>  (34) 
1.45

>  <cluster>  (34) 
2

$$$$

     RDKit          3D

 48 50  0  0  0  0  0  0  0  0999 V2000
  140.3700   71.8510  228.3190 C   0  0  0  0  0  0  0  0  0  0  0  0
  141.0390   72.4320  227.3020 O   0  0  0  0  0  0  0  0  0  0  0  0
  141.7170   71.7820  226.3560 C   0  0  0  0  0  0  0  0  0  0  0  0
  141.0420   71.1090  225.2180 C   0  0  2  0  0  0  0  0  0  0  0  0
  140.0870   71.8940  224.5400 N   0  0  0  0  0  0  0  0  0  0  0  0
  140.2800   72.0750  223.1090 C   0  0  0  0  0  0  0  0  0  0  0  0
  141.2540   71.5520  222.5110 O   0  0  0  0  0  0  0  0  0  0  0  0
  139.3200   72.8880  222.3180 C   0  0  0  0  0  0  0  0  0  0  0  0
  139.6740   74.2670  222.2600 N   0  0  0  0  0  0  0  0  0  0  0  0
  140.6860   74.7370  221.3820 C   0  0  0  0  0  0  0  0  0  0  0  0
  141.3200   73.9380  220.6110 O   0  0  0  0  0  0  0  0  0  0  0  0
  140.9910   76.1770  221.3830 C   0  0  0  0  0  0  0  0  0  0  0  0
  141.5160   76.7930  220.2670 C   0  0  0  0  0  0  0  0  0  0  0  0
  141.8080   78.1590  220.2580 C   0  0  0  0  0  0  0  0  0  0  0  0
  141.5680   78.9130  221.3910 C   0  0  0  0  0  0  0  0  0  0  0  0
  141.8310   80.2670  221.4570 C   0  0  0  0  0  0  0  0  0  0  0  0
  141.5510   80.9360  222.6540 C   0  0  0  0  0  0  0  0  0  0  0  0
  141.7910   82.2650  222.7700 F   0  0  0  0  0  0  0  0  0  0  0  0
  141.0240   80.2650  223.7400 C   0  0  0  0  0  0  0  0  0  0  0  0
  140.7590   78.9130  223.6800 C   0  0  0  0  0  0  0  0  0  0  0  0
  141.0410   78.2560  222.4880 C   0  0  0  0  0  0  0  0  0  0  0  0
  140.7700   76.9380  222.4630 N   0  0  0  0  0  0  0  0  0  0  0  0
  140.5280   69.7830  225.6920 C   0  0  0  0  0  0  0  0  0  0  0  0
  139.3300   69.2580  225.2870 C   0  0  0  0  0  0  0  0  0  0  0  0
  138.8560   68.0280  225.7300 C   0  0  0  0  0  0  0  0  0  0  0  0
  139.6050   67.2860  226.6170 C   0  0  0  0  0  0  0  0  0  0  0  0
  140.8170   67.7850  227.0450 C   0  0  0  0  0  0  0  0  0  0  0  0
  141.2640   69.0020  226.5920 C   0  0  0  0  0  0  0  0  0  0  0  0
  140.7785   72.2058  229.2767 H   0  0  0  0  0  0  0  0  0  0  0  0
  139.3040   72.1148  228.2548 H   0  0  0  0  0  0  0  0  0  0  0  0
  140.4819   70.7586  228.2548 H   0  0  0  0  0  0  0  0  0  0  0  0
  142.4059   72.5163  225.9131 H   0  0  0  0  0  0  0  0  0  0  0  0
  142.1271   70.9281  226.9152 H   0  0  0  0  0  0  0  0  0  0  0  0
  141.7866   70.9437  224.4254 H   0  0  0  0  0  0  0  0  0  0  0  0
  139.2360   72.3590  224.9010 H   0  0  0  0  0  0  0  0  0  0  0  0
  139.2863   72.4913  221.2926 H   0  0  0  0  0  0  0  0  0  0  0  0
  138.3420   72.8200  222.8168 H   0  0  0  0  0  0  0  0  0  0  0  0
  139.1830   74.9700  222.8750 H   0  0  0  0  0  0  0  0  0  0  0  0
  141.7092   76.1957  219.3637 H   0  0  0  0  0  0  0  0  0  0  0  0
  142.2256   78.6307  219.3563 H   0  0  0  0  0  0  0  0  0  0  0  0
  142.2488   80.8047  220.5931 H   0  0  0  0  0  0  0  0  0  0  0  0
  140.8123   80.8176  224.6673 H   0  0  0  0  0  0  0  0  0  0  0  0
  140.3402   78.3747  224.5430 H   0  0  0  0  0  0  0  0  0  0  0  0
  138.7154   69.8346  224.5800 H   0  0  0  0  0  0  0  0  0  0  0  0
  137.8868   67.6489  225.3736 H   0  0  0  0  0  0  0  0  0  0  0  0
  139.2422   66.3121  226.9776 H   0  0  0  0  0  0  0  0  0  0  0  0
  141.4286   67.2058  227.7524 H   0  0  0  0  0  0  0  0  0  0  0  0
  142.2347   69.3768  226.9487 H   0  0  0  0  0  0  0  0  0  0  0  0
  1  2  1  0
  2  3  1  0
  3  4  1  0
  4  5  1  0
  5  6  1  0
  6  7  2  0
  6  8  1  0
  8  9  1  0
  9 10  1  0
 10 11  2  0
 10 12  1  0
 12 13  2  0
 13 14  1  0
 14 15  2  0
 15 16  1  0
 16 17  2  0
 17 18  1  0
 17 19  1  0
 19 20  2  0
 20 21  1  0
 21 22  2  0
  4 23  1  0
 23 24  2  0
 24 25  1  0
 25 26  2  0
 26 27  1  0
 27 28  2  0
 22 12  1  0
 28 23  1  0
 21 15  1  0
  1 29  1  0
  1 30  1  0
  1 31  1  0
  3 32  1  0
  3 33  1  0
  4 34  1  6
  5 35  1  0
  8 36  1  0
  8 37  1  0
  9 38  1  0
 13 39  1  0
 14 40  1  0
 16 41  1  0
 19 42  1  0
 20 43  1  0
 24 44  1  0
 25 45  1  0
 26 46  1  0
 27 47  1  0
 28 48  1  0
M  END
>  <smiles>  (35) 
COC[C@H](NC(=O)CNC(=O)c1ccc2cc(F)ccc2n1)c1ccccc1

>  <score_type>  (35) 
oracle

>  <origin>  (35) 
autodockgpu

>  <m_score__min__energy>  (35) 
-8.3699999999999992

>  <m_primary>  (35) 
energy

>  <rmsd>  (35) 
10.284597382073501

>  <m_score__min__rmsd>  (35) 
10.284597382073501

>  <meeko>  (35) 
{"free_energy": -7.99, "intermolecular_energy": -10.08, "internal_energy": -1.55, "cluster_size": 1, "cluster_id": 3, "rank_in_cluster": 1}

>  <energy>  (35) 
-7.4

>  <cluster_rmsd>  (35) 
1.17

>  <cluster>  (35) 
2

$$$$

     RDKit          3D

 48 50  0  0  0  0  0  0  0  0999 V2000
  139.3340   72.8740  222.0020 C   0  0  0  0  0  0  0  0  0  0  0  0
  140.2460   72.1700  222.7020 O   0  0  0  0  0  0  0  0  0  0  0  0
  140.1740   71.8980  224.0050 C   0  0  0  0  0  0  0  0  0  0  0  0
  139.5310   70.6650  224.5220 C   0  0  2  0  0  0  0  0  0  0  0  0
  138.1210   70.6650  224.4880 N   0  0  0  0  0  0  0  0  0  0  0  0
  137.4630   69.3680  224.4730 C   0  0  0  0  0  0  0  0  0  0  0  0
  138.1250   68.3000  224.4900 O   0  0  0  0  0  0  0  0  0  0  0  0
  135.9800   69.2780  224.4370 C   0  0  0  0  0  0  0  0  0  0  0  0
  135.3380   70.4510  224.9270 N   0  0  0  0  0  0  0  0  0  0  0  0
  134.3170   70.3820  225.9110 C   0  0  0  0  0  0  0  0  0  0  0  0
  133.9330   69.2610  226.3930 O   0  0  0  0  0  0  0  0  0  0  0  0
  133.7050   71.6400  226.3650 C   0  0  0  0  0  0  0  0  0  0  0  0
  132.5700   71.6380  227.1480 C   0  0  0  0  0  0  0  0  0  0  0  0
  131.9820   72.8280  227.5830 C   0  0  0  0  0  0  0  0  0  0  0  0
  132.5460   74.0370  227.2230 C   0  0  0  0  0  0  0  0  0  0  0  0
  132.0230   75.2520  227.6160 C   0  0  0  0  0  0  0  0  0  0  0  0
  132.6730   76.4180  227.1950 C   0  0  0  0  0  0  0  0  0  0  0  0
  132.1990   77.6370  227.5530 F   0  0  0  0  0  0  0  0  0  0  0  0
  133.8090   76.3580  226.4110 C   0  0  0  0  0  0  0  0  0  0  0  0
  134.3360   75.1470  226.0160 C   0  0  0  0  0  0  0  0  0  0  0  0
  133.6840   73.9950  226.4380 C   0  0  0  0  0  0  0  0  0  0  0  0
  134.2250   72.8300  226.0350 N   0  0  0  0  0  0  0  0  0  0  0  0
  140.1170   70.3550  225.8670 C   0  0  0  0  0  0  0  0  0  0  0  0
  140.3000   69.0780  226.3270 C   0  0  0  0  0  0  0  0  0  0  0  0
  140.8420   68.7960  227.5750 C   0  0  0  0  0  0  0  0  0  0  0  0
  141.2170   69.8280  228.4070 C   0  0  0  0  0  0  0  0  0  0  0  0
  141.0460   71.1260  227.9750 C   0  0  0  0  0  0  0  0  0  0  0  0
  140.5100   71.3790  226.7370 C   0  0  0  0  0  0  0  0  0  0  0  0
  138.6597   73.3945  222.6979 H   0  0  0  0  0  0  0  0  0  0  0  0
  139.8479   73.6119  221.3684 H   0  0  0  0  0  0  0  0  0  0  0  0
  138.7503   72.1900  221.3684 H   0  0  0  0  0  0  0  0  0  0  0  0
  141.2107   71.8804  224.3724 H   0  0  0  0  0  0  0  0  0  0  0  0
  139.4890   72.6803  224.3639 H   0  0  0  0  0  0  0  0  0  0  0  0
  139.7625   69.8415  223.8304 H   0  0  0  0  0  0  0  0  0  0  0  0
  137.4600   71.4610  224.4920 H   0  0  0  0  0  0  0  0  0  0  0  0
  135.6642   69.1147  223.3960 H   0  0  0  0  0  0  0  0  0  0  0  0
  135.6855   68.4446  225.0917 H   0  0  0  0  0  0  0  0  0  0  0  0
  135.6150   71.4020  224.5640 H   0  0  0  0  0  0  0  0  0  0  0  0
  132.1175   70.6778  227.4365 H   0  0  0  0  0  0  0  0  0  0  0  0
  131.0768   72.8029  228.2074 H   0  0  0  0  0  0  0  0  0  0  0  0
  131.1204   75.3028  228.2427 H   0  0  0  0  0  0  0  0  0  0  0  0
  134.3004   77.2908  226.0972 H   0  0  0  0  0  0  0  0  0  0  0  0
  135.2390   75.0947  225.3901 H   0  0  0  0  0  0  0  0  0  0  0  0
  140.0049   68.2387  225.6800 H   0  0  0  0  0  0  0  0  0  0  0  0
  140.9712   67.7523  227.8975 H   0  0  0  0  0  0  0  0  0  0  0  0
  141.6453   69.6200  229.3986 H   0  0  0  0  0  0  0  0  0  0  0  0
  141.3405   71.9628  228.6255 H   0  0  0  0  0  0  0  0  0  0  0  0
  140.3847   72.4239  226.4169 H   0  0  0  0  0  0  0  0  0  0  0  0
  1  2  1  0
  2  3  1  0
  3  4  1  0
  4  5  1  0
  5  6  1  0
  6  7  2  0
  6  8  1  0
  8  9  1  0
  9 10  1  0
 10 11  2  0
 10 12  1  0
 12 13  2  0
 13 14  1  0
 14 15  2  0
 15 16  1  0
 16 17  2  0
 17 18  1  0
 17 19  1  0
 19 20  2  0
 20 21  1  0
 21 22  2  0
  4 23  1  0
 23 24  2  0
 24 25  1  0
 25 26  2  0
 26 27  1  0
 27 28  2  0
 22 12  1  0
 28 23  1  0
 21 15  1  0
  1 29  1  0
  1 30  1  0
  1 31  1  0
  3 32  1  0
  3 33  1  0
  4 34  1  6
  5 35  1  0
  8 36  1  0
  8 37  1  0
  9 38  1  0
 13 39  1  0
 14 40  1  0
 16 41  1  0
 19 42  1  0
 20 43  1  0
 24 44  1  0
 25 45  1  0
 26 46  1  0
 27 47  1  0
 28 48  1  0
M  END
>  <smiles>  (36) 
COC[C@H](NC(=O)CNC(=O)c1ccc2cc(F)ccc2n1)c1ccccc1

>  <score_type>  (36) 
oracle

>  <origin>  (36) 
autodockgpu

>  <m_score__min__energy>  (36) 
-8.3699999999999992

>  <m_primary>  (36) 
energy

>  <rmsd>  (36) 
10.285084544973142

>  <m_score__min__rmsd>  (36) 
10.285084544973142

>  <meeko>  (36) 
{"free_energy": -7.82, "intermolecular_energy": -9.91, "internal_energy": -1.55, "cluster_size": 14, "cluster_id": 2, "rank_in_cluster": 2}

>  <energy>  (36) 
-7.4

>  <cluster_rmsd>  (36) 
1.36

>  <cluster>  (36) 
2

$$$$

     RDKit          3D

 48 50  0  0  0  0  0  0  0  0999 V2000
  144.1410   72.2670  220.8160 C   0  0  0  0  0  0  0  0  0  0  0  0
  144.1030   73.2490  219.8910 O   0  0  0  0  0  0  0  0  0  0  0  0
  144.0590   74.5540  220.1560 C   0  0  0  0  0  0  0  0  0  0  0  0
  142.7890   75.2610  220.4530 C   0  0  2  0  0  0  0  0  0  0  0  0
  141.6390   74.4430  220.4670 N   0  0  0  0  0  0  0  0  0  0  0  0
  140.4830   74.9460  221.1940 C   0  0  0  0  0  0  0  0  0  0  0  0
  140.5140   76.0570  221.7800 O   0  0  0  0  0  0  0  0  0  0  0  0
  139.2320   74.1480  221.2600 C   0  0  0  0  0  0  0  0  0  0  0  0
  139.2210   73.2150  222.3370 N   0  0  0  0  0  0  0  0  0  0  0  0
  140.1810   72.1730  222.4240 C   0  0  0  0  0  0  0  0  0  0  0  0
  141.0920   72.0320  221.5380 O   0  0  0  0  0  0  0  0  0  0  0  0
  140.1020   71.2510  223.5690 C   0  0  0  0  0  0  0  0  0  0  0  0
  139.5160   70.0100  223.4430 C   0  0  0  0  0  0  0  0  0  0  0  0
  139.4360   69.1290  224.5240 C   0  0  0  0  0  0  0  0  0  0  0  0
  139.9540   69.5060  225.7490 C   0  0  0  0  0  0  0  0  0  0  0  0
  139.9120   68.6890  226.8610 C   0  0  0  0  0  0  0  0  0  0  0  0
  140.4660   69.1700  228.0540 C   0  0  0  0  0  0  0  0  0  0  0  0
  140.4500   68.4070  229.1750 F   0  0  0  0  0  0  0  0  0  0  0  0
  141.0400   70.4240  228.1190 C   0  0  0  0  0  0  0  0  0  0  0  0
  141.0850   71.2440  227.0120 C   0  0  0  0  0  0  0  0  0  0  0  0
  140.5330   70.7590  225.8320 C   0  0  0  0  0  0  0  0  0  0  0  0
  140.5940   71.5840  224.7700 N   0  0  0  0  0  0  0  0  0  0  0  0
  142.6880   76.4520  219.5500 C   0  0  0  0  0  0  0  0  0  0  0  0
  143.0640   76.4260  218.2330 C   0  0  0  0  0  0  0  0  0  0  0  0
  142.9710   77.5350  217.3990 C   0  0  0  0  0  0  0  0  0  0  0  0
  142.4850   78.7240  217.8960 C   0  0  0  0  0  0  0  0  0  0  0  0
  142.0970   78.7860  219.2170 C   0  0  0  0  0  0  0  0  0  0  0  0
  142.1970   77.6770  220.0200 C   0  0  0  0  0  0  0  0  0  0  0  0
  144.1238   72.7105  221.8225 H   0  0  0  0  0  0  0  0  0  0  0  0
  143.2676   71.6103  220.6897 H   0  0  0  0  0  0  0  0  0  0  0  0
  145.0626   71.6798  220.6897 H   0  0  0  0  0  0  0  0  0  0  0  0
  144.7086   74.7112  221.0297 H   0  0  0  0  0  0  0  0  0  0  0  0
  144.3420   74.9922  219.1876 H   0  0  0  0  0  0  0  0  0  0  0  0
  142.8235   75.6048  221.4973 H   0  0  0  0  0  0  0  0  0  0  0  0
  141.4730   73.5280  220.0150 H   0  0  0  0  0  0  0  0  0  0  0  0
  138.3834   74.8368  221.3846 H   0  0  0  0  0  0  0  0  0  0  0  0
  139.1605   73.5718  220.3257 H   0  0  0  0  0  0  0  0  0  0  0  0
  138.4920   73.2850  223.0960 H   0  0  0  0  0  0  0  0  0  0  0  0
  139.1023   69.7067  222.4699 H   0  0  0  0  0  0  0  0  0  0  0  0
  138.9644   68.1428  224.4015 H   0  0  0  0  0  0  0  0  0  0  0  0
  139.4565   67.6890  226.8115 H   0  0  0  0  0  0  0  0  0  0  0  0
  141.4683   70.7744  229.0697 H   0  0  0  0  0  0  0  0  0  0  0  0
  141.5404   72.2441  227.0605 H   0  0  0  0  0  0  0  0  0  0  0  0
  143.4568   75.4866  217.8168 H   0  0  0  0  0  0  0  0  0  0  0  0
  143.2842   77.4629  216.3470 H   0  0  0  0  0  0  0  0  0  0  0  0
  142.4078   79.6101  217.2488 H   0  0  0  0  0  0  0  0  0  0  0  0
  141.7057   79.7277  219.6295 H   0  0  0  0  0  0  0  0  0  0  0  0
  141.8801   77.7530  221.0706 H   0  0  0  0  0  0  0  0  0  0  0  0
  1  2  1  0
  2  3  1  0
  3  4  1  0
  4  5  1  0
  5  6  1  0
  6  7  2  0
  6  8  1  0
  8  9  1  0
  9 10  1  0
 10 11  2  0
 10 12  1  0
 12 13  2  0
 13 14  1  0
 14 15  2  0
 15 16  1  0
 16 17  2  0
 17 18  1  0
 17 19  1  0
 19 20  2  0
 20 21  1  0
 21 22  2  0
  4 23  1  0
 23 24  2  0
 24 25  1  0
 25 26  2  0
 26 27  1  0
 27 28  2  0
 22 12  1  0
 28 23  1  0
 21 15  1  0
  1 29  1  0
  1 30  1  0
  1 31  1  0
  3 32  1  0
  3 33  1  0
  4 34  1  1
  5 35  1  0
  8 36  1  0
  8 37  1  0
  9 38  1  0
 13 39  1  0
 14 40  1  0
 16 41  1  0
 19 42  1  0
 20 43  1  0
 24 44  1  0
 25 45  1  0
 26 46  1  0
 27 47  1  0
 28 48  1  0
M  END
>  <smiles>  (37) 
COC[C@H](NC(=O)CNC(=O)c1ccc2cc(F)ccc2n1)c1ccccc1

>  <score_type>  (37) 
oracle

>  <origin>  (37) 
autodockgpu

>  <m_score__min__energy>  (37) 
-8.3699999999999992

>  <m_primary>  (37) 
energy

>  <rmsd>  (37) 
4.8972090658573135

>  <m_score__min__rmsd>  (37) 
4.8972090658573135

>  <meeko>  (37) 
{"free_energy": -7.1, "intermolecular_energy": -9.19, "internal_energy": -2.21, "cluster_size": 1, "cluster_id": 6, "rank_in_cluster": 1}

>  <energy>  (37) 
-7.4

>  <cluster_rmsd>  (37) 
1.12

>  <cluster>  (37) 
2

$$$$

     RDKit          3D

 48 50  0  0  0  0  0  0  0  0999 V2000
  140.3330   67.0340  226.4430 C   0  0  0  0  0  0  0  0  0  0  0  0
  139.2630   67.4680  225.7460 O   0  0  0  0  0  0  0  0  0  0  0  0
  139.2910   68.4040  224.7970 C   0  0  0  0  0  0  0  0  0  0  0  0
  138.8130   69.7880  225.0360 C   0  0  2  0  0  0  0  0  0  0  0  0
  138.6090   70.5590  223.8720 N   0  0  0  0  0  0  0  0  0  0  0  0
  137.2400   70.9580  223.5800 C   0  0  0  0  0  0  0  0  0  0  0  0
  136.2900   70.6290  224.3320 O   0  0  0  0  0  0  0  0  0  0  0  0
  136.9370   71.7710  222.3730 C   0  0  0  0  0  0  0  0  0  0  0  0
  137.6600   72.9980  222.3310 N   0  0  0  0  0  0  0  0  0  0  0  0
  138.9770   73.0660  221.8060 C   0  0  0  0  0  0  0  0  0  0  0  0
  139.5640   72.0250  221.3510 O   0  0  0  0  0  0  0  0  0  0  0  0
  139.6540   74.3720  221.7980 C   0  0  0  0  0  0  0  0  0  0  0  0
  140.9070   74.5210  221.2420 C   0  0  0  0  0  0  0  0  0  0  0  0
  141.5580   75.7570  221.2300 C   0  0  0  0  0  0  0  0  0  0  0  0
  140.9360   76.8580  221.7870 C   0  0  0  0  0  0  0  0  0  0  0  0
  141.5160   78.1100  221.8120 C   0  0  0  0  0  0  0  0  0  0  0  0
  140.7990   79.1580  222.4020 C   0  0  0  0  0  0  0  0  0  0  0  0
  141.3240   80.4070  222.4520 F   0  0  0  0  0  0  0  0  0  0  0  0
  139.5450   78.9490  222.9440 C   0  0  0  0  0  0  0  0  0  0  0  0
  138.9610   77.7000  222.9220 C   0  0  0  0  0  0  0  0  0  0  0  0
  139.6800   76.6660  222.3340 C   0  0  0  0  0  0  0  0  0  0  0  0
  139.0810   75.4610  222.3290 N   0  0  0  0  0  0  0  0  0  0  0  0
  139.7090   70.4290  226.0520 C   0  0  0  0  0  0  0  0  0  0  0  0
  139.7020   70.0840  227.3780 C   0  0  0  0  0  0  0  0  0  0  0  0
  140.5340   70.6820  228.3170 C   0  0  0  0  0  0  0  0  0  0  0  0
  141.4110   71.6690  227.9240 C   0  0  0  0  0  0  0  0  0  0  0  0
  141.4440   72.0400  226.5970 C   0  0  0  0  0  0  0  0  0  0  0  0
  140.6130   71.4340  225.6880 C   0  0  0  0  0  0  0  0  0  0  0  0
  140.1272   67.1175  227.5203 H   0  0  0  0  0  0  0  0  0  0  0  0
  140.5346   65.9830  226.1885 H   0  0  0  0  0  0  0  0  0  0  0  0
  141.2098   67.6476  226.1885 H   0  0  0  0  0  0  0  0  0  0  0  0
  140.3419   68.4922  224.4841 H   0  0  0  0  0  0  0  0  0  0  0  0
  138.5463   68.0257  224.0812 H   0  0  0  0  0  0  0  0  0  0  0  0
  137.7920   69.7337  225.4416 H   0  0  0  0  0  0  0  0  0  0  0  0
  139.2960   70.9140  223.1850 H   0  0  0  0  0  0  0  0  0  0  0  0
  137.1943   71.1821  221.4803 H   0  0  0  0  0  0  0  0  0  0  0  0
  135.8664   72.0215  222.4059 H   0  0  0  0  0  0  0  0  0  0  0  0
  137.2220   73.8870  222.6930 H   0  0  0  0  0  0  0  0  0  0  0  0
  141.4053   73.6467  220.7978 H   0  0  0  0  0  0  0  0  0  0  0  0
  142.5575   75.8530  220.7808 H   0  0  0  0  0  0  0  0  0  0  0  0
  142.5135   78.2798  221.3806 H   0  0  0  0  0  0  0  0  0  0  0  0
  139.0046   79.7917  223.3998 H   0  0  0  0  0  0  0  0  0  0  0  0
  137.9638   77.5285  223.3535 H   0  0  0  0  0  0  0  0  0  0  0  0
  139.0077   69.2997  227.7139 H   0  0  0  0  0  0  0  0  0  0  0  0
  140.4924   70.3682  229.3705 H   0  0  0  0  0  0  0  0  0  0  0  0
  142.0736   72.1528  228.6567 H   0  0  0  0  0  0  0  0  0  0  0  0
  142.1393   72.8251  226.2650 H   0  0  0  0  0  0  0  0  0  0  0  0
  140.6591   71.7495  224.6352 H   0  0  0  0  0  0  0  0  0  0  0  0
  1  2  1  0
  2  3  1  0
  3  4  1  0
  4  5  1  0
  5  6  1  0
  6  7  2  0
  6  8  1  0
  8  9  1  0
  9 10  1  0
 10 11  2  0
 10 12  1  0
 12 13  2  0
 13 14  1  0
 14 15  2  0
 15 16  1  0
 16 17  2  0
 17 18  1  0
 17 19  1  0
 19 20  2  0
 20 21  1  0
 21 22  2  0
  4 23  1  0
 23 24  2  0
 24 25  1  0
 25 26  2  0
 26 27  1  0
 27 28  2  0
 22 12  1  0
 28 23  1  0
 21 15  1  0
  1 29  1  0
  1 30  1  0
  1 31  1  0
  3 32  1  0
  3 33  1  0
  4 34  1  1
  5 35  1  0
  8 36  1  0
  8 37  1  0
  9 38  1  0
 13 39  1  0
 14 40  1  0
 16 41  1  0
 19 42  1  0
 20 43  1  0
 24 44  1  0
 25 45  1  0
 26 46  1  0
 27 47  1  0
 28 48  1  0
M  END
>  <smiles>  (38) 
COC[C@H](NC(=O)CNC(=O)c1ccc2cc(F)ccc2n1)c1ccccc1

>  <score_type>  (38) 
oracle

>  <origin>  (38) 
autodockgpu

>  <m_score__min__energy>  (38) 
-8.3699999999999992

>  <m_primary>  (38) 
energy

>  <rmsd>  (38) 
9.456783776651864

>  <m_score__min__rmsd>  (38) 
9.456783776651864

>  <meeko>  (38) 
{"free_energy": -7.36, "intermolecular_energy": -9.45, "internal_energy": -2.36, "cluster_size": 1, "cluster_id": 5, "rank_in_cluster": 1}

>  <energy>  (38) 
-7.4

>  <cluster_rmsd>  (38) 
1.13

>  <cluster>  (38) 
2

$$$$

     RDKit          3D

 48 50  0  0  0  0  0  0  0  0999 V2000
  141.3050   79.3710  217.4780 C   0  0  0  0  0  0  0  0  0  0  0  0
  141.2350   78.3460  218.3510 O   0  0  0  0  0  0  0  0  0  0  0  0
  142.0100   78.1950  219.4250 C   0  0  0  0  0  0  0  0  0  0  0  0
  141.5620   77.4480  220.6270 C   0  0  2  0  0  0  0  0  0  0  0  0
  140.4860   76.5610  220.4130 N   0  0  0  0  0  0  0  0  0  0  0  0
  140.3320   75.4730  221.3680 C   0  0  0  0  0  0  0  0  0  0  0  0
  141.1220   75.3370  222.3350 O   0  0  0  0  0  0  0  0  0  0  0  0
  139.2250   74.4930  221.2160 C   0  0  0  0  0  0  0  0  0  0  0  0
  139.1760   73.5410  222.2750 N   0  0  0  0  0  0  0  0  0  0  0  0
  140.1830   72.5520  222.4320 C   0  0  0  0  0  0  0  0  0  0  0  0
  141.1730   72.4800  221.6260 O   0  0  0  0  0  0  0  0  0  0  0  0
  140.0580   71.6070  223.5520 C   0  0  0  0  0  0  0  0  0  0  0  0
  139.3980   70.4060  223.4000 C   0  0  0  0  0  0  0  0  0  0  0  0
  139.2740   69.5020  224.4580 C   0  0  0  0  0  0  0  0  0  0  0  0
  139.8230   69.8150  225.6870 C   0  0  0  0  0  0  0  0  0  0  0  0
  139.7420   68.9730  226.7770 C   0  0  0  0  0  0  0  0  0  0  0  0
  140.3330   69.3870  227.9770 C   0  0  0  0  0  0  0  0  0  0  0  0
  140.2810   68.5960  229.0770 F   0  0  0  0  0  0  0  0  0  0  0  0
  140.9820   70.6030  228.0700 C   0  0  0  0  0  0  0  0  0  0  0  0
  141.0670   71.4480  226.9840 C   0  0  0  0  0  0  0  0  0  0  0  0
  140.4770   71.0290  225.7970 C   0  0  0  0  0  0  0  0  0  0  0  0
  140.5790   71.8770  224.7570 N   0  0  0  0  0  0  0  0  0  0  0  0
  141.3420   78.4300  221.7380 C   0  0  0  0  0  0  0  0  0  0  0  0
  142.2930   79.3300  222.1400 C   0  0  0  0  0  0  0  0  0  0  0  0
  142.0850   80.2370  223.1720 C   0  0  0  0  0  0  0  0  0  0  0  0
  140.8790   80.2510  223.8370 C   0  0  0  0  0  0  0  0  0  0  0  0
  139.8990   79.3590  223.4580 C   0  0  0  0  0  0  0  0  0  0  0  0
  140.1280   78.4730  222.4340 C   0  0  0  0  0  0  0  0  0  0  0  0
  141.3698   80.3198  218.0309 H   0  0  0  0  0  0  0  0  0  0  0  0
  142.1972   79.2536  216.8454 H   0  0  0  0  0  0  0  0  0  0  0  0
  140.4051   79.3760  216.8454 H   0  0  0  0  0  0  0  0  0  0  0  0
  142.9242   77.6931  219.0752 H   0  0  0  0  0  0  0  0  0  0  0  0
  142.0734   79.2246  219.8070 H   0  0  0  0  0  0  0  0  0  0  0  0
  142.3619   76.7508  220.9170 H   0  0  0  0  0  0  0  0  0  0  0  0
  139.7570   76.5690  219.6790 H   0  0  0  0  0  0  0  0  0  0  0  0
  138.2718   75.0415  221.1931 H   0  0  0  0  0  0  0  0  0  0  0  0
  139.4018   73.9385  220.2825 H   0  0  0  0  0  0  0  0  0  0  0  0
  138.3810   73.5550  222.9680 H   0  0  0  0  0  0  0  0  0  0  0  0
  138.9590   70.1538  222.4234 H   0  0  0  0  0  0  0  0  0  0  0  0
  138.7438   68.5490  224.3139 H   0  0  0  0  0  0  0  0  0  0  0  0
  139.2275   68.0034  226.7053 H   0  0  0  0  0  0  0  0  0  0  0  0
  141.4380   70.9017  229.0254 H   0  0  0  0  0  0  0  0  0  0  0  0
  141.5823   72.4173  227.0541 H   0  0  0  0  0  0  0  0  0  0  0  0
  143.2640   79.3350  221.6232 H   0  0  0  0  0  0  0  0  0  0  0  0
  142.8806   80.9412  223.4568 H   0  0  0  0  0  0  0  0  0  0  0  0
  140.7009   80.9623  224.6570 H   0  0  0  0  0  0  0  0  0  0  0  0
  138.9296   79.3568  223.9778 H   0  0  0  0  0  0  0  0  0  0  0  0
  139.3290   77.7721  222.1505 H   0  0  0  0  0  0  0  0  0  0  0  0
  1  2  1  0
  2  3  1  0
  3  4  1  0
  4  5  1  0
  5  6  1  0
  6  7  2  0
  6  8  1  0
  8  9  1  0
  9 10  1  0
 10 11  2  0
 10 12  1  0
 12 13  2  0
 13 14  1  0
 14 15  2  0
 15 16  1  0
 16 17  2  0
 17 18  1  0
 17 19  1  0
 19 20  2  0
 20 21  1  0
 21 22  2  0
  4 23  1  0
 23 24  2  0
 24 25  1  0
 25 26  2  0
 26 27  1  0
 27 28  2  0
 22 12  1  0
 28 23  1  0
 21 15  1  0
  1 29  1  0
  1 30  1  0
  1 31  1  0
  3 32  1  0
  3 33  1  0
  4 34  1  1
  5 35  1  0
  8 36  1  0
  8 37  1  0
  9 38  1  0
 13 39  1  0
 14 40  1  0
 16 41  1  0
 19 42  1  0
 20 43  1  0
 24 44  1  0
 25 45  1  0
 26 46  1  0
 27 47  1  0
 28 48  1  0
M  END
>  <smiles>  (39) 
COC[C@H](NC(=O)CNC(=O)c1ccc2cc(F)ccc2n1)c1ccccc1

>  <score_type>  (39) 
oracle

>  <origin>  (39) 
autodockgpu

>  <m_score__min__energy>  (39) 
-8.3699999999999992

>  <m_primary>  (39) 
energy

>  <rmsd>  (39) 
4.08572356139119

>  <m_score__min__rmsd>  (39) 
4.08572356139119

>  <meeko>  (39) 
{"free_energy": -7.94, "intermolecular_energy": -10.03, "internal_energy": -1.42, "cluster_size": 30, "cluster_id": 1, "rank_in_cluster": 17}

>  <energy>  (39) 
-7.31

>  <cluster_rmsd>  (39) 
1.22

>  <cluster>  (39) 
2

$$$$

     RDKit          3D

 48 50  0  0  0  0  0  0  0  0999 V2000
  141.7930   78.0800  219.9260 C   0  0  0  0  0  0  0  0  0  0  0  0
  141.9130   76.7720  219.6200 O   0  0  0  0  0  0  0  0  0  0  0  0
  141.8620   75.7690  220.4960 C   0  0  0  0  0  0  0  0  0  0  0  0
  141.8720   74.3470  220.0730 C   0  0  2  0  0  0  0  0  0  0  0  0
  140.9060   73.5300  220.6970 N   0  0  0  0  0  0  0  0  0  0  0  0
  139.5100   73.8430  220.4310 C   0  0  0  0  0  0  0  0  0  0  0  0
  139.1870   74.7970  219.6800 O   0  0  0  0  0  0  0  0  0  0  0  0
  138.4270   73.0340  221.0500 C   0  0  0  0  0  0  0  0  0  0  0  0
  138.7620   72.5550  222.3490 N   0  0  0  0  0  0  0  0  0  0  0  0
  139.7060   71.5110  222.5340 C   0  0  0  0  0  0  0  0  0  0  0  0
  140.2910   70.9590  221.5390 O   0  0  0  0  0  0  0  0  0  0  0  0
  139.9970   71.0740  223.9090 C   0  0  0  0  0  0  0  0  0  0  0  0
  140.6930   71.8850  224.7800 C   0  0  0  0  0  0  0  0  0  0  0  0
  140.9740   71.4790  226.0870 C   0  0  0  0  0  0  0  0  0  0  0  0
  140.5470   70.2380  226.5200 C   0  0  0  0  0  0  0  0  0  0  0  0
  140.7870   69.7690  227.7960 C   0  0  0  0  0  0  0  0  0  0  0  0
  140.3100   68.4960  228.1320 C   0  0  0  0  0  0  0  0  0  0  0  0
  140.5190   67.9900  229.3720 F   0  0  0  0  0  0  0  0  0  0  0  0
  139.6170   67.7290  227.2160 C   0  0  0  0  0  0  0  0  0  0  0  0
  139.3750   68.1920  225.9400 C   0  0  0  0  0  0  0  0  0  0  0  0
  139.8520   69.4560  225.6150 C   0  0  0  0  0  0  0  0  0  0  0  0
  139.5980   69.8780  224.3630 N   0  0  0  0  0  0  0  0  0  0  0  0
  143.2760   73.8320  220.1780 C   0  0  0  0  0  0  0  0  0  0  0  0
  144.3510   74.6410  220.4370 C   0  0  0  0  0  0  0  0  0  0  0  0
  145.6520   74.1600  220.5310 C   0  0  0  0  0  0  0  0  0  0  0  0
  145.8970   72.8150  220.3600 C   0  0  0  0  0  0  0  0  0  0  0  0
  144.8380   71.9720  220.1000 C   0  0  0  0  0  0  0  0  0  0  0  0
  143.5620   72.4720  220.0120 C   0  0  0  0  0  0  0  0  0  0  0  0
  141.7819   78.2013  221.0192 H   0  0  0  0  0  0  0  0  0  0  0  0
  142.6440   78.6348  219.5042 H   0  0  0  0  0  0  0  0  0  0  0  0
  140.8552   78.4707  219.5042 H   0  0  0  0  0  0  0  0  0  0  0  0
  142.7294   75.8975  221.1601 H   0  0  0  0  0  0  0  0  0  0  0  0
  140.8479   75.8773  220.9081 H   0  0  0  0  0  0  0  0  0  0  0  0
  141.5492   74.2999  219.0225 H   0  0  0  0  0  0  0  0  0  0  0  0
  141.0320   72.7100  221.3150 H   0  0  0  0  0  0  0  0  0  0  0  0
  137.5247   73.6582  221.1287 H   0  0  0  0  0  0  0  0  0  0  0  0
  138.2647   72.1559  220.4077 H   0  0  0  0  0  0  0  0  0  0  0  0
  138.3100   72.9740  223.2050 H   0  0  0  0  0  0  0  0  0  0  0  0
  141.0345   72.8733  224.4385 H   0  0  0  0  0  0  0  0  0  0  0  0
  141.5306   72.1418  226.7659 H   0  0  0  0  0  0  0  0  0  0  0  0
  141.3374   70.3781  228.5282 H   0  0  0  0  0  0  0  0  0  0  0  0
  139.2525   66.7334  227.5090 H   0  0  0  0  0  0  0  0  0  0  0  0
  138.8250   67.5837  225.2069 H   0  0  0  0  0  0  0  0  0  0  0  0
  144.1771   75.7181  220.5767 H   0  0  0  0  0  0  0  0  0  0  0  0
  146.4823   74.8503  220.7410 H   0  0  0  0  0  0  0  0  0  0  0  0
  146.9214   72.4203  220.4298 H   0  0  0  0  0  0  0  0  0  0  0  0
  145.0155   70.8952  219.9626 H   0  0  0  0  0  0  0  0  0  0  0  0
  142.7343   71.7782  219.8034 H   0  0  0  0  0  0  0  0  0  0  0  0
  1  2  1  0
  2  3  1  0
  3  4  1  0
  4  5  1  0
  5  6  1  0
  6  7  2  0
  6  8  1  0
  8  9  1  0
  9 10  1  0
 10 11  2  0
 10 12  1  0
 12 13  2  0
 13 14  1  0
 14 15  2  0
 15 16  1  0
 16 17  2  0
 17 18  1  0
 17 19  1  0
 19 20  2  0
 20 21  1  0
 21 22  2  0
  4 23  1  0
 23 24  2  0
 24 25  1  0
 25 26  2  0
 26 27  1  0
 27 28  2  0
 22 12  1  0
 28 23  1  0
 21 15  1  0
  1 29  1  0
  1 30  1  0
  1 31  1  0
  3 32  1  0
  3 33  1  0
  4 34  1  6
  5 35  1  0
  8 36  1  0
  8 37  1  0
  9 38  1  0
 13 39  1  0
 14 40  1  0
 16 41  1  0
 19 42  1  0
 20 43  1  0
 24 44  1  0
 25 45  1  0
 26 46  1  0
 27 47  1  0
 28 48  1  0
M  END
>  <smiles>  (40) 
COC[C@H](NC(=O)CNC(=O)c1ccc2cc(F)ccc2n1)c1ccccc1

>  <score_type>  (40) 
oracle

>  <origin>  (40) 
autodockgpu

>  <m_score__min__energy>  (40) 
-8.3699999999999992

>  <m_primary>  (40) 
energy

>  <rmsd>  (40) 
6.405911538640634

>  <m_score__min__rmsd>  (40) 
6.405911538640634

>  <meeko>  (40) 
{"free_energy": -7.05, "intermolecular_energy": -9.14, "internal_energy": -1.92, "cluster_size": 3, "cluster_id": 4, "rank_in_cluster": 3}

>  <energy>  (40) 
-7.29

>  <cluster_rmsd>  (40) 
1.28

>  <cluster>  (40) 
2

$$$$

     RDKit          3D

 48 50  0  0  0  0  0  0  0  0999 V2000
  139.9560   73.0560  221.5550 C   0  0  0  0  0  0  0  0  0  0  0  0
  140.3870   73.0040  222.8330 O   0  0  0  0  0  0  0  0  0  0  0  0
  140.7210   71.8910  223.4870 C   0  0  0  0  0  0  0  0  0  0  0  0
  139.7070   70.9930  224.0920 C   0  0  2  0  0  0  0  0  0  0  0  0
  138.3700   71.2780  223.7410 N   0  0  0  0  0  0  0  0  0  0  0  0
  137.4610   70.1470  223.6440 C   0  0  0  0  0  0  0  0  0  0  0  0
  137.8530   68.9730  223.8650 O   0  0  0  0  0  0  0  0  0  0  0  0
  136.0360   70.3570  223.2780 C   0  0  0  0  0  0  0  0  0  0  0  0
  135.4080   71.3780  224.0490 N   0  0  0  0  0  0  0  0  0  0  0  0
  135.7060   72.7510  223.8460 C   0  0  0  0  0  0  0  0  0  0  0  0
  136.5530   73.1230  222.9630 O   0  0  0  0  0  0  0  0  0  0  0  0
  135.0130   73.7430  224.6830 C   0  0  0  0  0  0  0  0  0  0  0  0
  135.3170   75.0840  224.5960 C   0  0  0  0  0  0  0  0  0  0  0  0
  134.6650   76.0330  225.3870 C   0  0  0  0  0  0  0  0  0  0  0  0
  133.6920   75.6220  226.2780 C   0  0  0  0  0  0  0  0  0  0  0  0
  133.0050   76.5000  227.0920 C   0  0  0  0  0  0  0  0  0  0  0  0
  132.0390   75.9780  227.9600 C   0  0  0  0  0  0  0  0  0  0  0  0
  131.3360   76.7990  228.7790 F   0  0  0  0  0  0  0  0  0  0  0  0
  131.7760   74.6220  228.0030 C   0  0  0  0  0  0  0  0  0  0  0  0
  132.4600   73.7410  227.1930 C   0  0  0  0  0  0  0  0  0  0  0  0
  133.4170   74.2670  226.3340 C   0  0  0  0  0  0  0  0  0  0  0  0
  134.0650   73.3800  225.5580 N   0  0  0  0  0  0  0  0  0  0  0  0
  139.9560   70.9260  225.5680 C   0  0  0  0  0  0  0  0  0  0  0  0
  140.6570   71.8840  226.2530 C   0  0  0  0  0  0  0  0  0  0  0  0
  140.8870   71.8150  227.6220 C   0  0  0  0  0  0  0  0  0  0  0  0
  140.4020   70.7470  228.3450 C   0  0  0  0  0  0  0  0  0  0  0  0
  139.6930   69.7660  227.6870 C   0  0  0  0  0  0  0  0  0  0  0  0
  139.4770   69.8560  226.3350 C   0  0  0  0  0  0  0  0  0  0  0  0
  138.8640   73.1878  221.5414 H   0  0  0  0  0  0  0  0  0  0  0  0
  140.4339   73.9030  221.0410 H   0  0  0  0  0  0  0  0  0  0  0  0
  140.2188   72.1196  221.0410 H   0  0  0  0  0  0  0  0  0  0  0  0
  141.2893   71.2754  222.7742 H   0  0  0  0  0  0  0  0  0  0  0  0
  141.2289   72.2929  224.3761 H   0  0  0  0  0  0  0  0  0  0  0  0
  139.8354   69.9897  223.6597 H   0  0  0  0  0  0  0  0  0  0  0  0
  137.9150   72.1880  223.5550 H   0  0  0  0  0  0  0  0  0  0  0  0
  135.9846   70.6381  222.2158 H   0  0  0  0  0  0  0  0  0  0  0  0
  135.5022   69.4166  223.4800 H   0  0  0  0  0  0  0  0  0  0  0  0
  134.7010   71.1270  224.7910 H   0  0  0  0  0  0  0  0  0  0  0  0
  136.0907   75.4149  223.8876 H   0  0  0  0  0  0  0  0  0  0  0  0
  134.9240   77.0986  225.3013 H   0  0  0  0  0  0  0  0  0  0  0  0
  133.2110   77.5800  227.0594 H   0  0  0  0  0  0  0  0  0  0  0  0
  131.0097   74.2401  228.6936 H   0  0  0  0  0  0  0  0  0  0  0  0
  132.2556   72.6607  227.2255 H   0  0  0  0  0  0  0  0  0  0  0  0
  141.0548   72.7446  225.6953 H   0  0  0  0  0  0  0  0  0  0  0  0
  141.4545   72.6107  228.1268 H   0  0  0  0  0  0  0  0  0  0  0  0
  140.5778   70.6789  229.4287 H   0  0  0  0  0  0  0  0  0  0  0  0
  139.2981   68.9063  228.2483 H   0  0  0  0  0  0  0  0  0  0  0  0
  138.9070   69.0590  225.8352 H   0  0  0  0  0  0  0  0  0  0  0  0
  1  2  1  0
  2  3  1  0
  3  4  1  0
  4  5  1  0
  5  6  1  0
  6  7  2  0
  6  8  1  0
  8  9  1  0
  9 10  1  0
 10 11  2  0
 10 12  1  0
 12 13  2  0
 13 14  1  0
 14 15  2  0
 15 16  1  0
 16 17  2  0
 17 18  1  0
 17 19  1  0
 19 20  2  0
 20 21  1  0
 21 22  2  0
  4 23  1  0
 23 24  2  0
 24 25  1  0
 25 26  2  0
 26 27  1  0
 27 28  2  0
 22 12  1  0
 28 23  1  0
 21 15  1  0
  1 29  1  0
  1 30  1  0
  1 31  1  0
  3 32  1  0
  3 33  1  0
  4 34  1  6
  5 35  1  0
  8 36  1  0
  8 37  1  0
  9 38  1  0
 13 39  1  0
 14 40  1  0
 16 41  1  0
 19 42  1  0
 20 43  1  0
 24 44  1  0
 25 45  1  0
 26 46  1  0
 27 47  1  0
 28 48  1  0
M  END
>  <smiles>  (41) 
COC[C@H](NC(=O)CNC(=O)c1ccc2cc(F)ccc2n1)c1ccccc1

>  <score_type>  (41) 
oracle

>  <origin>  (41) 
autodockgpu

>  <m_score__min__energy>  (41) 
-8.3699999999999992

>  <m_primary>  (41) 
energy

>  <rmsd>  (41) 
9.722372532699463

>  <m_score__min__rmsd>  (41) 
9.722372532699463

>  <meeko>  (41) 
{"free_energy": -7.17, "intermolecular_energy": -9.26, "internal_energy": -2.6, "cluster_size": 14, "cluster_id": 2, "rank_in_cluster": 14}

>  <energy>  (41) 
-7.29

>  <cluster_rmsd>  (41) 
1.26

>  <cluster>  (41) 
2

$$$$

     RDKit          3D

 48 50  0  0  0  0  0  0  0  0999 V2000
  137.1290   76.4550  222.8350 C   0  0  0  0  0  0  0  0  0  0  0  0
  138.3590   76.9510  223.0850 O   0  0  0  0  0  0  0  0  0  0  0  0
  138.9030   78.0020  222.4730 C   0  0  0  0  0  0  0  0  0  0  0  0
  140.2630   77.9590  221.8830 C   0  0  2  0  0  0  0  0  0  0  0  0
  140.8710   76.6860  221.8730 N   0  0  0  0  0  0  0  0  0  0  0  0
  140.1650   75.6260  221.1690 C   0  0  0  0  0  0  0  0  0  0  0  0
  139.0660   75.8410  220.5990 O   0  0  0  0  0  0  0  0  0  0  0  0
  140.7340   74.2540  221.1110 C   0  0  0  0  0  0  0  0  0  0  0  0
  140.3950   73.4610  222.2450 N   0  0  0  0  0  0  0  0  0  0  0  0
  140.7040   72.0770  222.3020 C   0  0  0  0  0  0  0  0  0  0  0  0
  141.2980   71.4890  221.3340 O   0  0  0  0  0  0  0  0  0  0  0  0
  140.3210   71.3290  223.5100 C   0  0  0  0  0  0  0  0  0  0  0  0
  139.5990   70.1580  223.4230 C   0  0  0  0  0  0  0  0  0  0  0  0
  139.2300   69.4420  224.5640 C   0  0  0  0  0  0  0  0  0  0  0  0
  139.5950   69.9150  225.8100 C   0  0  0  0  0  0  0  0  0  0  0  0
  139.2670   69.2620  226.9820 C   0  0  0  0  0  0  0  0  0  0  0  0
  139.6860   69.8280  228.1920 C   0  0  0  0  0  0  0  0  0  0  0  0
  139.3890   69.2270  229.3710 F   0  0  0  0  0  0  0  0  0  0  0  0
  140.4070   71.0060  228.2170 C   0  0  0  0  0  0  0  0  0  0  0  0
  140.7370   71.6620  227.0500 C   0  0  0  0  0  0  0  0  0  0  0  0
  140.3180   71.0930  225.8530 C   0  0  0  0  0  0  0  0  0  0  0  0
  140.6570   71.7580  224.7340 N   0  0  0  0  0  0  0  0  0  0  0  0
  141.0910   79.0330  222.5220 C   0  0  0  0  0  0  0  0  0  0  0  0
  142.4580   79.0670  222.4490 C   0  0  0  0  0  0  0  0  0  0  0  0
  143.2210   80.0640  223.0460 C   0  0  0  0  0  0  0  0  0  0  0  0
  142.5990   81.0730  223.7490 C   0  0  0  0  0  0  0  0  0  0  0  0
  141.2240   81.0690  223.8420 C   0  0  0  0  0  0  0  0  0  0  0  0
  140.4920   80.0740  223.2430 C   0  0  0  0  0  0  0  0  0  0  0  0
  136.6167   76.2484  223.7862 H   0  0  0  0  0  0  0  0  0  0  0  0
  136.5480   77.1891  222.2575 H   0  0  0  0  0  0  0  0  0  0  0  0
  137.2198   75.5232  222.2575 H   0  0  0  0  0  0  0  0  0  0  0  0
  138.2207   78.2652  221.6513 H   0  0  0  0  0  0  0  0  0  0  0  0
  139.0388   78.7061  223.3072 H   0  0  0  0  0  0  0  0  0  0  0  0
  140.1756   78.1658  220.8062 H   0  0  0  0  0  0  0  0  0  0  0  0
  141.7720   76.3790  222.2800 H   0  0  0  0  0  0  0  0  0  0  0  0
  140.3530   73.7547  220.2079 H   0  0  0  0  0  0  0  0  0  0  0  0
  141.8294   74.3531  221.0951 H   0  0  0  0  0  0  0  0  0  0  0  0
  139.9050   73.8950  223.0720 H   0  0  0  0  0  0  0  0  0  0  0  0
  139.3069   69.7789  222.4326 H   0  0  0  0  0  0  0  0  0  0  0  0
  138.6538   68.5096  224.4716 H   0  0  0  0  0  0  0  0  0  0  0  0
  138.6929   68.3239  226.9652 H   0  0  0  0  0  0  0  0  0  0  0  0
  140.7228   71.4272  229.1828 H   0  0  0  0  0  0  0  0  0  0  0  0
  141.3104   72.6006  227.0657 H   0  0  0  0  0  0  0  0  0  0  0  0
  142.9750   78.2706  221.8937 H   0  0  0  0  0  0  0  0  0  0  0  0
  144.3173   80.0476  222.9576 H   0  0  0  0  0  0  0  0  0  0  0  0
  143.1898   81.8679  224.2276 H   0  0  0  0  0  0  0  0  0  0  0  0
  140.7106   81.8668  224.3988 H   0  0  0  0  0  0  0  0  0  0  0  0
  139.3958   80.0949  223.3324 H   0  0  0  0  0  0  0  0  0  0  0  0
  1  2  1  0
  2  3  1  0
  3  4  1  0
  4  5  1  0
  5  6  1  0
  6  7  2  0
  6  8  1  0
  8  9  1  0
  9 10  1  0
 10 11  2  0
 10 12  1  0
 12 13  2  0
 13 14  1  0
 14 15  2  0
 15 16  1  0
 16 17  2  0
 17 18  1  0
 17 19  1  0
 19 20  2  0
 20 21  1  0
 21 22  2  0
  4 23  1  0
 23 24  2  0
 24 25  1  0
 25 26  2  0
 26 27  1  0
 27 28  2  0
 22 12  1  0
 28 23  1  0
 21 15  1  0
  1 29  1  0
  1 30  1  0
  1 31  1  0
  3 32  1  0
  3 33  1  0
  4 34  1  6
  5 35  1  0
  8 36  1  0
  8 37  1  0
  9 38  1  0
 13 39  1  0
 14 40  1  0
 16 41  1  0
 19 42  1  0
 20 43  1  0
 24 44  1  0
 25 45  1  0
 26 46  1  0
 27 47  1  0
 28 48  1  0
M  END
>  <smiles>  (42) 
COC[C@H](NC(=O)CNC(=O)c1ccc2cc(F)ccc2n1)c1ccccc1

>  <score_type>  (42) 
oracle

>  <origin>  (42) 
autodockgpu

>  <m_score__min__energy>  (42) 
-8.3699999999999992

>  <m_primary>  (42) 
energy

>  <rmsd>  (42) 
4.065046833934498

>  <m_score__min__rmsd>  (42) 
4.065046833934498

>  <meeko>  (42) 
{"free_energy": -8.32, "intermolecular_energy": -10.41, "internal_energy": -1.26, "cluster_size": 30, "cluster_id": 1, "rank_in_cluster": 4}

>  <energy>  (42) 
-7.2

>  <cluster_rmsd>  (42) 
1.32

>  <cluster>  (42) 
2

$$$$

     RDKit          3D

 48 50  0  0  0  0  0  0  0  0999 V2000
  142.1330   80.1680  218.5780 C   0  0  0  0  0  0  0  0  0  0  0  0
  141.4070   79.2500  219.2480 O   0  0  0  0  0  0  0  0  0  0  0  0
  141.8890   78.1250  219.7770 C   0  0  0  0  0  0  0  0  0  0  0  0
  141.4370   77.6120  221.0940 C   0  0  2  0  0  0  0  0  0  0  0  0
  140.2690   76.8230  221.0600 N   0  0  0  0  0  0  0  0  0  0  0  0
  140.4410   75.3860  221.2120 C   0  0  0  0  0  0  0  0  0  0  0  0
  141.5800   74.8790  221.3680 O   0  0  0  0  0  0  0  0  0  0  0  0
  139.2630   74.4810  221.1860 C   0  0  0  0  0  0  0  0  0  0  0  0
  139.2460   73.5570  222.2710 N   0  0  0  0  0  0  0  0  0  0  0  0
  140.0950   72.4200  222.2910 C   0  0  0  0  0  0  0  0  0  0  0  0
  140.9090   72.1820  221.3340 O   0  0  0  0  0  0  0  0  0  0  0  0
  140.0170   71.5160  223.4490 C   0  0  0  0  0  0  0  0  0  0  0  0
  139.4230   70.2760  223.3440 C   0  0  0  0  0  0  0  0  0  0  0  0
  139.3440   69.4110  224.4380 C   0  0  0  0  0  0  0  0  0  0  0  0
  139.8690   69.8030  225.6540 C   0  0  0  0  0  0  0  0  0  0  0  0
  139.8290   69.0020  226.7790 C   0  0  0  0  0  0  0  0  0  0  0  0
  140.3910   69.4970  227.9610 C   0  0  0  0  0  0  0  0  0  0  0  0
  140.3760   68.7500  229.0940 F   0  0  0  0  0  0  0  0  0  0  0  0
  140.9730   70.7490  228.0060 C   0  0  0  0  0  0  0  0  0  0  0  0
  141.0170   71.5520  226.8870 C   0  0  0  0  0  0  0  0  0  0  0  0
  140.4560   71.0540  225.7170 C   0  0  0  0  0  0  0  0  0  0  0  0
  140.5160   71.8630  224.6430 N   0  0  0  0  0  0  0  0  0  0  0  0
  141.3770   78.7620  222.0540 C   0  0  0  0  0  0  0  0  0  0  0  0
  140.2100   79.2040  222.6200 C   0  0  0  0  0  0  0  0  0  0  0  0
  140.1580   80.2720  223.5070 C   0  0  0  0  0  0  0  0  0  0  0  0
  141.3180   80.9340  223.8480 C   0  0  0  0  0  0  0  0  0  0  0  0
  142.5100   80.5160  223.2970 C   0  0  0  0  0  0  0  0  0  0  0  0
  142.5350   79.4570  222.4230 C   0  0  0  0  0  0  0  0  0  0  0  0
  142.6500   80.8217  219.2959 H   0  0  0  0  0  0  0  0  0  0  0  0
  142.8751   79.6584  217.9458 H   0  0  0  0  0  0  0  0  0  0  0  0
  141.4661   80.7727  217.9458 H   0  0  0  0  0  0  0  0  0  0  0  0
  141.6774   77.3284  219.0486 H   0  0  0  0  0  0  0  0  0  0  0  0
  142.9334   78.4002  219.9856 H   0  0  0  0  0  0  0  0  0  0  0  0
  142.1796   76.8834  221.4513 H   0  0  0  0  0  0  0  0  0  0  0  0
  139.2790   77.1090  220.9600 H   0  0  0  0  0  0  0  0  0  0  0  0
  138.3500   75.0928  221.2324 H   0  0  0  0  0  0  0  0  0  0  0  0
  139.3186   73.8956  220.2564 H   0  0  0  0  0  0  0  0  0  0  0  0
  138.5940   73.7050  223.0870 H   0  0  0  0  0  0  0  0  0  0  0  0
  139.0022   69.9611  222.3777 H   0  0  0  0  0  0  0  0  0  0  0  0
  138.8674   68.4253  224.3319 H   0  0  0  0  0  0  0  0  0  0  0  0
  139.3685   68.0036  226.7464 H   0  0  0  0  0  0  0  0  0  0  0  0
  141.4080   71.1105  228.9495 H   0  0  0  0  0  0  0  0  0  0  0  0
  141.4789   72.5498  226.9186 H   0  0  0  0  0  0  0  0  0  0  0  0
  139.2726   78.6903  222.3605 H   0  0  0  0  0  0  0  0  0  0  0  0
  139.1953   80.5880  223.9353 H   0  0  0  0  0  0  0  0  0  0  0  0
  141.2926   81.7819  224.5483 H   0  0  0  0  0  0  0  0  0  0  0  0
  143.4453   81.0327  223.5583 H   0  0  0  0  0  0  0  0  0  0  0  0
  143.4997   79.1435  221.9975 H   0  0  0  0  0  0  0  0  0  0  0  0
  1  2  1  0
  2  3  1  0
  3  4  1  0
  4  5  1  0
  5  6  1  0
  6  7  2  0
  6  8  1  0
  8  9  1  0
  9 10  1  0
 10 11  2  0
 10 12  1  0
 12 13  2  0
 13 14  1  0
 14 15  2  0
 15 16  1  0
 16 17  2  0
 17 18  1  0
 17 19  1  0
 19 20  2  0
 20 21  1  0
 21 22  2  0
  4 23  1  0
 23 24  2  0
 24 25  1  0
 25 26  2  0
 26 27  1  0
 27 28  2  0
 22 12  1  0
 28 23  1  0
 21 15  1  0
  1 29  1  0
  1 30  1  0
  1 31  1  0
  3 32  1  0
  3 33  1  0
  4 34  1  1
  5 35  1  0
  8 36  1  0
  8 37  1  0
  9 38  1  0
 13 39  1  0
 14 40  1  0
 16 41  1  0
 19 42  1  0
 20 43  1  0
 24 44  1  0
 25 45  1  0
 26 46  1  0
 27 47  1  0
 28 48  1  0
M  END
>  <smiles>  (43) 
COC[C@H](NC(=O)CNC(=O)c1ccc2cc(F)ccc2n1)c1ccccc1

>  <score_type>  (43) 
oracle

>  <origin>  (43) 
autodockgpu

>  <m_score__min__energy>  (43) 
-8.3699999999999992

>  <m_primary>  (43) 
energy

>  <rmsd>  (43) 
3.8447413804169313

>  <m_score__min__rmsd>  (43) 
3.8447413804169313

>  <meeko>  (43) 
{"free_energy": -8.21, "intermolecular_energy": -10.3, "internal_energy": -1.22, "cluster_size": 30, "cluster_id": 1, "rank_in_cluster": 12}

>  <energy>  (43) 
-7.19

>  <cluster_rmsd>  (43) 
1.28

>  <cluster>  (43) 
2

$$$$

     RDKit          3D

 48 50  0  0  0  0  0  0  0  0999 V2000
  139.2480   69.7310  221.1410 C   0  0  0  0  0  0  0  0  0  0  0  0
  138.9830   69.2710  222.3810 O   0  0  0  0  0  0  0  0  0  0  0  0
  139.5800   69.6840  223.4990 C   0  0  0  0  0  0  0  0  0  0  0  0
  139.2160   69.1510  224.8350 C   0  0  2  0  0  0  0  0  0  0  0  0
  137.8370   68.9250  225.0330 N   0  0  0  0  0  0  0  0  0  0  0  0
  136.9350   70.0120  224.6840 C   0  0  0  0  0  0  0  0  0  0  0  0
  137.3700   71.0990  224.2270 O   0  0  0  0  0  0  0  0  0  0  0  0
  135.4680   69.8580  224.8630 C   0  0  0  0  0  0  0  0  0  0  0  0
  134.8390   71.0380  225.3530 N   0  0  0  0  0  0  0  0  0  0  0  0
  133.6770   70.9770  226.1660 C   0  0  0  0  0  0  0  0  0  0  0  0
  133.1500   69.8580  226.4880 O   0  0  0  0  0  0  0  0  0  0  0  0
  133.0900   72.2430  226.6330 C   0  0  0  0  0  0  0  0  0  0  0  0
  131.8860   72.2640  227.3040 C   0  0  0  0  0  0  0  0  0  0  0  0
  131.3200   73.4610  227.7500 C   0  0  0  0  0  0  0  0  0  0  0  0
  131.9780   74.6530  227.5150 C   0  0  0  0  0  0  0  0  0  0  0  0
  131.4810   75.8740  227.9260 C   0  0  0  0  0  0  0  0  0  0  0  0
  132.2290   77.0210  227.6360 C   0  0  0  0  0  0  0  0  0  0  0  0
  131.7850   78.2450  228.0170 F   0  0  0  0  0  0  0  0  0  0  0  0
  133.4300   76.9390  226.9590 C   0  0  0  0  0  0  0  0  0  0  0  0
  133.9310   75.7220  226.5470 C   0  0  0  0  0  0  0  0  0  0  0  0
  133.1830   74.5880  226.8380 C   0  0  0  0  0  0  0  0  0  0  0  0
  133.7000   73.4170  226.4220 N   0  0  0  0  0  0  0  0  0  0  0  0
  139.8570   70.0140  225.8790 C   0  0  0  0  0  0  0  0  0  0  0  0
  140.6770   71.0690  225.5770 C   0  0  0  0  0  0  0  0  0  0  0  0
  141.2710   71.8660  226.5490 C   0  0  0  0  0  0  0  0  0  0  0  0
  141.0420   71.6030  227.8820 C   0  0  0  0  0  0  0  0  0  0  0  0
  140.2210   70.5480  228.2210 C   0  0  0  0  0  0  0  0  0  0  0  0
  139.6450   69.7770  227.2430 C   0  0  0  0  0  0  0  0  0  0  0  0
  139.7959   70.6822  221.2121 H   0  0  0  0  0  0  0  0  0  0  0  0
  139.8603   68.9947  220.5998 H   0  0  0  0  0  0  0  0  0  0  0  0
  138.3038   69.8913  220.5998 H   0  0  0  0  0  0  0  0  0  0  0  0
  140.6524   69.4772  223.3682 H   0  0  0  0  0  0  0  0  0  0  0  0
  139.2372   70.7269  223.5685 H   0  0  0  0  0  0  0  0  0  0  0  0
  139.6165   68.1299  224.9186 H   0  0  0  0  0  0  0  0  0  0  0  0
  137.3480   68.0810  225.3780 H   0  0  0  0  0  0  0  0  0  0  0  0
  135.0216   69.6009  223.8911 H   0  0  0  0  0  0  0  0  0  0  0  0
  135.3096   69.0668  225.6106 H   0  0  0  0  0  0  0  0  0  0  0  0
  135.2320   71.9890  225.1180 H   0  0  0  0  0  0  0  0  0  0  0  0
  131.3590   71.3170  227.4925 H   0  0  0  0  0  0  0  0  0  0  0  0
  130.3583   73.4545  228.2839 H   0  0  0  0  0  0  0  0  0  0  0  0
  130.5250   75.9433  228.4656 H   0  0  0  0  0  0  0  0  0  0  0  0
  133.9953   77.8581  226.7452 H   0  0  0  0  0  0  0  0  0  0  0  0
  134.8873   75.6518  226.0080 H   0  0  0  0  0  0  0  0  0  0  0  0
  140.8742   71.2955  224.5188 H   0  0  0  0  0  0  0  0  0  0  0  0
  141.9212   72.7032  226.2551 H   0  0  0  0  0  0  0  0  0  0  0  0
  141.5061   72.2239  228.6625 H   0  0  0  0  0  0  0  0  0  0  0  0
  140.0270   70.3236  229.2802 H   0  0  0  0  0  0  0  0  0  0  0  0
  138.9932   68.9426  227.5410 H   0  0  0  0  0  0  0  0  0  0  0  0
  1  2  1  0
  2  3  1  0
  3  4  1  0
  4  5  1  0
  5  6  1  0
  6  7  2  0
  6  8  1  0
  8  9  1  0
  9 10  1  0
 10 11  2  0
 10 12  1  0
 12 13  2  0
 13 14  1  0
 14 15  2  0
 15 16  1  0
 16 17  2  0
 17 18  1  0
 17 19  1  0
 19 20  2  0
 20 21  1  0
 21 22  2  0
  4 23  1  0
 23 24  2  0
 24 25  1  0
 25 26  2  0
 26 27  1  0
 27 28  2  0
 22 12  1  0
 28 23  1  0
 21 15  1  0
  1 29  1  0
  1 30  1  0
  1 31  1  0
  3 32  1  0
  3 33  1  0
  4 34  1  6
  5 35  1  0
  8 36  1  0
  8 37  1  0
  9 38  1  0
 13 39  1  0
 14 40  1  0
 16 41  1  0
 19 42  1  0
 20 43  1  0
 24 44  1  0
 25 45  1  0
 26 46  1  0
 27 47  1  0
 28 48  1  0
M  END
>  <smiles>  (44) 
COC[C@H](NC(=O)CNC(=O)c1ccc2cc(F)ccc2n1)c1ccccc1

>  <score_type>  (44) 
oracle

>  <origin>  (44) 
autodockgpu

>  <m_score__min__energy>  (44) 
-8.3699999999999992

>  <m_primary>  (44) 
energy

>  <rmsd>  (44) 
10.734807553281444

>  <m_score__min__rmsd>  (44) 
10.734807553281444

>  <meeko>  (44) 
{"free_energy": -7.41, "intermolecular_energy": -9.5, "internal_energy": -1.77, "cluster_size": 14, "cluster_id": 2, "rank_in_cluster": 4}

>  <energy>  (44) 
-7.17

>  <cluster_rmsd>  (44) 
1.29

>  <cluster>  (44) 
2

$$$$

     RDKit          3D

 48 50  0  0  0  0  0  0  0  0999 V2000
  139.2780   73.0030  221.9300 C   0  0  0  0  0  0  0  0  0  0  0  0
  140.0100   72.7640  223.0380 O   0  0  0  0  0  0  0  0  0  0  0  0
  140.4370   71.5660  223.4350 C   0  0  0  0  0  0  0  0  0  0  0  0
  139.6350   70.6940  224.3280 C   0  0  2  0  0  0  0  0  0  0  0  0
  138.2380   70.8630  224.2310 N   0  0  0  0  0  0  0  0  0  0  0  0
  137.4200   69.6640  224.3450 C   0  0  0  0  0  0  0  0  0  0  0  0
  137.9410   68.5340  224.5210 O   0  0  0  0  0  0  0  0  0  0  0  0
  135.9400   69.7530  224.2540 C   0  0  0  0  0  0  0  0  0  0  0  0
  135.4150   70.9400  224.8410 N   0  0  0  0  0  0  0  0  0  0  0  0
  135.5050   72.1950  224.1830 C   0  0  0  0  0  0  0  0  0  0  0  0
  136.0630   72.3070  223.0380 O   0  0  0  0  0  0  0  0  0  0  0  0
  134.9370   73.3740  224.8570 C   0  0  0  0  0  0  0  0  0  0  0  0
  135.4130   74.6410  224.5960 C   0  0  0  0  0  0  0  0  0  0  0  0
  134.8810   75.7650  225.2320 C   0  0  0  0  0  0  0  0  0  0  0  0
  133.8540   75.6080  226.1430 C   0  0  0  0  0  0  0  0  0  0  0  0
  133.2770   76.6710  226.8090 C   0  0  0  0  0  0  0  0  0  0  0  0
  132.2420   76.4010  227.7120 C   0  0  0  0  0  0  0  0  0  0  0  0
  131.6430   77.4100  228.3920 F   0  0  0  0  0  0  0  0  0  0  0  0
  131.8060   75.1090  227.9320 C   0  0  0  0  0  0  0  0  0  0  0  0
  132.3780   74.0440  227.2700 C   0  0  0  0  0  0  0  0  0  0  0  0
  133.4050   74.3210  226.3750 C   0  0  0  0  0  0  0  0  0  0  0  0
  133.9410   73.2590  225.7460 N   0  0  0  0  0  0  0  0  0  0  0  0
  140.1770   70.8160  225.7190 C   0  0  0  0  0  0  0  0  0  0  0  0
  140.9100   71.8930  226.1440 C   0  0  0  0  0  0  0  0  0  0  0  0
  141.4130   72.0010  227.4360 C   0  0  0  0  0  0  0  0  0  0  0  0
  141.1790   70.9950  228.3470 C   0  0  0  0  0  0  0  0  0  0  0  0
  140.4440   69.8970  227.9530 C   0  0  0  0  0  0  0  0  0  0  0  0
  139.9570   69.8140  226.6720 C   0  0  0  0  0  0  0  0  0  0  0  0
  138.2695   73.3323  222.2208 H   0  0  0  0  0  0  0  0  0  0  0  0
  139.7626   73.7896  221.3330 H   0  0  0  0  0  0  0  0  0  0  0  0
  139.2051   72.0820  221.3330 H   0  0  0  0  0  0  0  0  0  0  0  0
  140.6148   70.9848  222.5181 H   0  0  0  0  0  0  0  0  0  0  0  0
  141.2884   71.8301  224.0795 H   0  0  0  0  0  0  0  0  0  0  0  0
  139.7509   69.6543  223.9881 H   0  0  0  0  0  0  0  0  0  0  0  0
  137.6830   71.7280  224.1090 H   0  0  0  0  0  0  0  0  0  0  0  0
  135.6524   69.7305  223.1925 H   0  0  0  0  0  0  0  0  0  0  0  0
  135.5250   68.9001  224.8110 H   0  0  0  0  0  0  0  0  0  0  0  0
  134.9440   70.9060  225.7840 H   0  0  0  0  0  0  0  0  0  0  0  0
  136.2300   74.7698  223.8707 H   0  0  0  0  0  0  0  0  0  0  0  0
  135.2764   76.7671  225.0094 H   0  0  0  0  0  0  0  0  0  0  0  0
  133.6210   77.7012  226.6349 H   0  0  0  0  0  0  0  0  0  0  0  0
  130.9897   74.9272  228.6466 H   0  0  0  0  0  0  0  0  0  0  0  0
  132.0347   73.0134  227.4434 H   0  0  0  0  0  0  0  0  0  0  0  0
  141.1092   72.7076  225.4322 H   0  0  0  0  0  0  0  0  0  0  0  0
  141.9956   72.8867  227.7293 H   0  0  0  0  0  0  0  0  0  0  0  0
  141.5720   71.0663  229.3719 H   0  0  0  0  0  0  0  0  0  0  0  0
  140.2470   69.0844  228.6677 H   0  0  0  0  0  0  0  0  0  0  0  0
  139.3725   68.9278  226.3838 H   0  0  0  0  0  0  0  0  0  0  0  0
  1  2  1  0
  2  3  1  0
  3  4  1  0
  4  5  1  0
  5  6  1  0
  6  7  2  0
  6  8  1  0
  8  9  1  0
  9 10  1  0
 10 11  2  0
 10 12  1  0
 12 13  2  0
 13 14  1  0
 14 15  2  0
 15 16  1  0
 16 17  2  0
 17 18  1  0
 17 19  1  0
 19 20  2  0
 20 21  1  0
 21 22  2  0
  4 23  1  0
 23 24  2  0
 24 25  1  0
 25 26  2  0
 26 27  1  0
 27 28  2  0
 22 12  1  0
 28 23  1  0
 21 15  1  0
  1 29  1  0
  1 30  1  0
  1 31  1  0
  3 32  1  0
  3 33  1  0
  4 34  1  6
  5 35  1  0
  8 36  1  0
  8 37  1  0
  9 38  1  0
 13 39  1  0
 14 40  1  0
 16 41  1  0
 19 42  1  0
 20 43  1  0
 24 44  1  0
 25 45  1  0
 26 46  1  0
 27 47  1  0
 28 48  1  0
M  END
>  <smiles>  (45) 
COC[C@H](NC(=O)CNC(=O)c1ccc2cc(F)ccc2n1)c1ccccc1

>  <score_type>  (45) 
oracle

>  <origin>  (45) 
autodockgpu

>  <m_score__min__energy>  (45) 
-8.3699999999999992

>  <m_primary>  (45) 
energy

>  <rmsd>  (45) 
9.917573187055192

>  <m_score__min__rmsd>  (45) 
9.917573187055192

>  <meeko>  (45) 
{"free_energy": -7.4, "intermolecular_energy": -9.48, "internal_energy": -2.49, "cluster_size": 14, "cluster_id": 2, "rank_in_cluster": 8}

>  <energy>  (45) 
-7.99

>  <cluster_rmsd>  (45) 
0.0

>  <cluster>  (45) 
3

$$$$

     RDKit          3D

 48 50  0  0  0  0  0  0  0  0999 V2000
  136.1820   74.6550  222.8430 C   0  0  0  0  0  0  0  0  0  0  0  0
  136.9120   75.6250  223.4330 O   0  0  0  0  0  0  0  0  0  0  0  0
  137.4150   76.6930  222.8130 C   0  0  0  0  0  0  0  0  0  0  0  0
  138.7210   76.6600  222.1120 C   0  0  2  0  0  0  0  0  0  0  0  0
  139.3160   75.3840  222.0140 N   0  0  0  0  0  0  0  0  0  0  0  0
  140.2920   75.1930  220.9520 C   0  0  0  0  0  0  0  0  0  0  0  0
  140.5880   76.1250  220.1630 O   0  0  0  0  0  0  0  0  0  0  0  0
  140.9650   73.8800  220.7780 C   0  0  0  0  0  0  0  0  0  0  0  0
  140.8430   73.0350  221.9180 N   0  0  0  0  0  0  0  0  0  0  0  0
  139.5970   72.4670  222.2910 C   0  0  0  0  0  0  0  0  0  0  0  0
  138.5350   72.6930  221.6160 O   0  0  0  0  0  0  0  0  0  0  0  0
  139.5570   71.6040  223.4830 C   0  0  0  0  0  0  0  0  0  0  0  0
  138.7630   70.4780  223.5190 C   0  0  0  0  0  0  0  0  0  0  0  0
  138.7170   69.6530  224.6460 C   0  0  0  0  0  0  0  0  0  0  0  0
  139.4840   69.9710  225.7510 C   0  0  0  0  0  0  0  0  0  0  0  0
  139.4920   69.2040  226.9000 C   0  0  0  0  0  0  0  0  0  0  0  0
  140.3040   69.6160  227.9620 C   0  0  0  0  0  0  0  0  0  0  0  0
  140.3480   68.8990  229.1120 F   0  0  0  0  0  0  0  0  0  0  0  0
  141.0800   70.7560  227.8680 C   0  0  0  0  0  0  0  0  0  0  0  0
  141.0760   71.5250  226.7240 C   0  0  0  0  0  0  0  0  0  0  0  0
  140.2660   71.1090  225.6740 C   0  0  0  0  0  0  0  0  0  0  0  0
  140.2860   71.8810  224.5720 N   0  0  0  0  0  0  0  0  0  0  0  0
  139.6070   77.7090  222.7120 C   0  0  0  0  0  0  0  0  0  0  0  0
  139.1370   78.9110  223.1720 C   0  0  0  0  0  0  0  0  0  0  0  0
  139.9620   79.8820  223.7260 C   0  0  0  0  0  0  0  0  0  0  0  0
  141.3170   79.6520  223.8280 C   0  0  0  0  0  0  0  0  0  0  0  0
  141.8230   78.4520  223.3760 C   0  0  0  0  0  0  0  0  0  0  0  0
  140.9870   77.5080  222.8330 C   0  0  0  0  0  0  0  0  0  0  0  0
  135.7111   74.0293  223.6155 H   0  0  0  0  0  0  0  0  0  0  0  0
  135.4024   75.1127  222.2163 H   0  0  0  0  0  0  0  0  0  0  0  0
  136.8376   74.0325  222.2163 H   0  0  0  0  0  0  0  0  0  0  0  0
  136.6702   76.9890  222.0596 H   0  0  0  0  0  0  0  0  0  0  0  0
  137.6261   77.3673  223.6561 H   0  0  0  0  0  0  0  0  0  0  0  0
  138.5470   76.8996  221.0526 H   0  0  0  0  0  0  0  0  0  0  0  0
  139.1810   74.5450  222.6030 H   0  0  0  0  0  0  0  0  0  0  0  0
  140.5168   73.3686  219.9134 H   0  0  0  0  0  0  0  0  0  0  0  0
  142.0368   74.0776  220.6290 H   0  0  0  0  0  0  0  0  0  0  0  0
  141.6880   72.8150  222.5110 H   0  0  0  0  0  0  0  0  0  0  0  0
  138.1517   70.2230  222.6408 H   0  0  0  0  0  0  0  0  0  0  0  0
  138.0763   68.7589  224.6536 H   0  0  0  0  0  0  0  0  0  0  0  0
  138.8773   68.2951  226.9776 H   0  0  0  0  0  0  0  0  0  0  0  0
  141.7102   71.0540  228.7189 H   0  0  0  0  0  0  0  0  0  0  0  0
  141.6908   72.4337  226.6451 H   0  0  0  0  0  0  0  0  0  0  0  0
  138.0588   79.1163  223.0995 H   0  0  0  0  0  0  0  0  0  0  0  0
  139.5351   80.8312  224.0820 H   0  0  0  0  0  0  0  0  0  0  0  0
  141.9828   80.4123  224.2623 H   0  0  0  0  0  0  0  0  0  0  0  0
  142.9017   78.2499  223.4508 H   0  0  0  0  0  0  0  0  0  0  0  0
  141.4173   76.5591  222.4801 H   0  0  0  0  0  0  0  0  0  0  0  0
  1  2  1  0
  2  3  1  0
  3  4  1  0
  4  5  1  0
  5  6  1  0
  6  7  2  0
  6  8  1  0
  8  9  1  0
  9 10  1  0
 10 11  2  0
 10 12  1  0
 12 13  2  0
 13 14  1  0
 14 15  2  0
 15 16  1  0
 16 17  2  0
 17 18  1  0
 17 19  1  0
 19 20  2  0
 20 21  1  0
 21 22  2  0
  4 23  1  0
 23 24  2  0
 24 25  1  0
 25 26  2  0
 26 27  1  0
 27 28  2  0
 22 12  1  0
 28 23  1  0
 21 15  1  0
  1 29  1  0
  1 30  1  0
  1 31  1  0
  3 32  1  0
  3 33  1  0
  4 34  1  6
  5 35  1  0
  8 36  1  0
  8 37  1  0
  9 38  1  0
 13 39  1  0
 14 40  1  0
 16 41  1  0
 19 42  1  0
 20 43  1  0
 24 44  1  0
 25 45  1  0
 26 46  1  0
 27 47  1  0
 28 48  1  0
M  END
>  <smiles>  (46) 
COC[C@H](NC(=O)CNC(=O)c1ccc2cc(F)ccc2n1)c1ccccc1

>  <score_type>  (46) 
oracle

>  <origin>  (46) 
autodockgpu

>  <m_score__min__energy>  (46) 
-8.3699999999999992

>  <m_primary>  (46) 
energy

>  <rmsd>  (46) 
4.32223036116541

>  <m_score__min__rmsd>  (46) 
4.32223036116541

>  <meeko>  (46) 
{"free_energy": -7.1, "intermolecular_energy": -9.19, "internal_energy": -2.35, "cluster_size": 30, "cluster_id": 1, "rank_in_cluster": 30}

>  <energy>  (46) 
-7.75

>  <cluster_rmsd>  (46) 
0.0

>  <cluster>  (46) 
4

$$$$

     RDKit          3D

 48 50  0  0  0  0  0  0  0  0999 V2000
  143.3330   76.2100  219.3190 C   0  0  0  0  0  0  0  0  0  0  0  0
  142.7600   77.3850  218.9850 O   0  0  0  0  0  0  0  0  0  0  0  0
  141.9380   78.0880  219.7640 C   0  0  0  0  0  0  0  0  0  0  0  0
  141.4650   77.5840  221.0770 C   0  0  2  0  0  0  0  0  0  0  0  0
  140.2870   76.8090  221.0310 N   0  0  0  0  0  0  0  0  0  0  0  0
  140.4320   75.3780  221.2550 C   0  0  0  0  0  0  0  0  0  0  0  0
  141.5560   74.8630  221.4780 O   0  0  0  0  0  0  0  0  0  0  0  0
  139.2410   74.4890  221.2230 C   0  0  0  0  0  0  0  0  0  0  0  0
  139.2160   73.5530  222.2970 N   0  0  0  0  0  0  0  0  0  0  0  0
  140.1100   72.4520  222.3420 C   0  0  0  0  0  0  0  0  0  0  0  0
  140.9730   72.2580  221.4180 O   0  0  0  0  0  0  0  0  0  0  0  0
  140.0200   71.5310  223.4860 C   0  0  0  0  0  0  0  0  0  0  0  0
  139.3980   70.3060  223.3670 C   0  0  0  0  0  0  0  0  0  0  0  0
  139.3060   69.4260  224.4480 C   0  0  0  0  0  0  0  0  0  0  0  0
  139.8500   69.7880  225.6660 C   0  0  0  0  0  0  0  0  0  0  0  0
  139.7990   68.9710  226.7780 C   0  0  0  0  0  0  0  0  0  0  0  0
  140.3810   69.4340  227.9640 C   0  0  0  0  0  0  0  0  0  0  0  0
  140.3570   68.6700  229.0850 F   0  0  0  0  0  0  0  0  0  0  0  0
  140.9910   70.6720  228.0240 C   0  0  0  0  0  0  0  0  0  0  0  0
  141.0450   71.4910  226.9160 C   0  0  0  0  0  0  0  0  0  0  0  0
  140.4640   71.0240  225.7430 C   0  0  0  0  0  0  0  0  0  0  0  0
  140.5350   71.8480  224.6820 N   0  0  0  0  0  0  0  0  0  0  0  0
  141.4100   78.7360  222.0340 C   0  0  0  0  0  0  0  0  0  0  0  0
  142.5180   79.4470  222.4130 C   0  0  0  0  0  0  0  0  0  0  0  0
  142.4620   80.5130  223.3020 C   0  0  0  0  0  0  0  0  0  0  0  0
  141.2520   80.8910  223.8420 C   0  0  0  0  0  0  0  0  0  0  0  0
  140.1170   80.1980  223.4810 C   0  0  0  0  0  0  0  0  0  0  0  0
  140.1980   79.1480  222.6000 C   0  0  0  0  0  0  0  0  0  0  0  0
  143.3762   76.1214  220.4146 H   0  0  0  0  0  0  0  0  0  0  0  0
  142.7377   75.3816  218.9074 H   0  0  0  0  0  0  0  0  0  0  0  0
  144.3522   76.1690  218.9074 H   0  0  0  0  0  0  0  0  0  0  0  0
  142.4488   79.0407  219.9675 H   0  0  0  0  0  0  0  0  0  0  0  0
  141.0102   78.0892  219.1731 H   0  0  0  0  0  0  0  0  0  0  0  0
  142.1940   76.8469  221.4447 H   0  0  0  0  0  0  0  0  0  0  0  0
  139.3070   77.1040  220.8800 H   0  0  0  0  0  0  0  0  0  0  0  0
  138.3366   75.1125  221.2803 H   0  0  0  0  0  0  0  0  0  0  0  0
  139.2847   73.9140  220.2863 H   0  0  0  0  0  0  0  0  0  0  0  0
  138.5250   73.6650  223.0850 H   0  0  0  0  0  0  0  0  0  0  0  0
  138.9644   70.0152  222.3988 H   0  0  0  0  0  0  0  0  0  0  0  0
  138.8051   68.4537  224.3310 H   0  0  0  0  0  0  0  0  0  0  0  0
  139.3148   67.9843  226.7332 H   0  0  0  0  0  0  0  0  0  0  0  0
  141.4403   71.0094  228.9697 H   0  0  0  0  0  0  0  0  0  0  0  0
  141.5299   72.4774  226.9589 H   0  0  0  0  0  0  0  0  0  0  0  0
  143.4946   79.1613  221.9951 H   0  0  0  0  0  0  0  0  0  0  0  0
  143.3806   81.0536  223.5740 H   0  0  0  0  0  0  0  0  0  0  0  0
  141.1931   81.7315  224.5491 H   0  0  0  0  0  0  0  0  0  0  0  0
  139.1421   80.4872  223.9004 H   0  0  0  0  0  0  0  0  0  0  0  0
  139.2769   78.6111  222.3292 H   0  0  0  0  0  0  0  0  0  0  0  0
  1  2  1  0
  2  3  1  0
  3  4  1  0
  4  5  1  0
  5  6  1  0
  6  7  2  0
  6  8  1  0
  8  9  1  0
  9 10  1  0
 10 11  2  0
 10 12  1  0
 12 13  2  0
 13 14  1  0
 14 15  2  0
 15 16  1  0
 16 17  2  0
 17 18  1  0
 17 19  1  0
 19 20  2  0
 20 21  1  0
 21 22  2  0
  4 23  1  0
 23 24  2  0
 24 25  1  0
 25 26  2  0
 26 27  1  0
 27 28  2  0
 22 12  1  0
 28 23  1  0
 21 15  1  0
  1 29  1  0
  1 30  1  0
  1 31  1  0
  3 32  1  0
  3 33  1  0
  4 34  1  1
  5 35  1  0
  8 36  1  0
  8 37  1  0
  9 38  1  0
 13 39  1  0
 14 40  1  0
 16 41  1  0
 19 42  1  0
 20 43  1  0
 24 44  1  0
 25 45  1  0
 26 46  1  0
 27 47  1  0
 28 48  1  0
M  END
>  <smiles>  (47) 
COC[C@H](NC(=O)CNC(=O)c1ccc2cc(F)ccc2n1)c1ccccc1

>  <score_type>  (47) 
oracle

>  <origin>  (47) 
autodockgpu

>  <m_score__min__energy>  (47) 
-8.3699999999999992

>  <m_primary>  (47) 
energy

>  <rmsd>  (47) 
4.009030291718616

>  <m_score__min__rmsd>  (47) 
4.009030291718616

>  <meeko>  (47) 
{"free_energy": -8.31, "intermolecular_energy": -10.4, "internal_energy": -1.2, "cluster_size": 30, "cluster_id": 1, "rank_in_cluster": 5}

>  <energy>  (47) 
-7.48

>  <cluster_rmsd>  (47) 
1.98

>  <cluster>  (47) 
4

$$$$

     RDKit          3D

 48 50  0  0  0  0  0  0  0  0999 V2000
  136.8810   76.5590  222.7950 C   0  0  0  0  0  0  0  0  0  0  0  0
  138.1310   76.9450  223.1240 O   0  0  0  0  0  0  0  0  0  0  0  0
  138.7390   78.0440  222.6770 C   0  0  0  0  0  0  0  0  0  0  0  0
  140.0780   78.0030  222.0380 C   0  0  2  0  0  0  0  0  0  0  0  0
  140.6890   76.7320  222.0100 N   0  0  0  0  0  0  0  0  0  0  0  0
  139.9980   75.6870  221.2700 C   0  0  0  0  0  0  0  0  0  0  0  0
  138.9080   75.9120  220.6870 O   0  0  0  0  0  0  0  0  0  0  0  0
  140.5720   74.3180  221.1900 C   0  0  0  0  0  0  0  0  0  0  0  0
  140.2380   73.5070  222.3130 N   0  0  0  0  0  0  0  0  0  0  0  0
  140.6900   72.1660  222.4200 C   0  0  0  0  0  0  0  0  0  0  0  0
  141.4140   71.6340  221.5100 O   0  0  0  0  0  0  0  0  0  0  0  0
  140.3010   71.3960  223.6120 C   0  0  0  0  0  0  0  0  0  0  0  0
  139.5690   70.2330  223.5010 C   0  0  0  0  0  0  0  0  0  0  0  0
  139.1950   69.4960  224.6270 C   0  0  0  0  0  0  0  0  0  0  0  0
  139.5660   69.9390  225.8830 C   0  0  0  0  0  0  0  0  0  0  0  0
  139.2340   69.2640  227.0410 C   0  0  0  0  0  0  0  0  0  0  0  0
  139.6600   69.7990  228.2620 C   0  0  0  0  0  0  0  0  0  0  0  0
  139.3600   69.1750  229.4280 F   0  0  0  0  0  0  0  0  0  0  0  0
  140.3930   70.9690  228.3110 C   0  0  0  0  0  0  0  0  0  0  0  0
  140.7270   71.6470  227.1580 C   0  0  0  0  0  0  0  0  0  0  0  0
  140.3000   71.1090  225.9500 C   0  0  0  0  0  0  0  0  0  0  0  0
  140.6440   71.7950  224.8450 N   0  0  0  0  0  0  0  0  0  0  0  0
  140.9240   79.0810  222.6460 C   0  0  0  0  0  0  0  0  0  0  0  0
  140.3990   80.1630  223.3030 C   0  0  0  0  0  0  0  0  0  0  0  0
  141.1870   81.1610  223.8630 C   0  0  0  0  0  0  0  0  0  0  0  0
  142.5590   81.0850  223.7650 C   0  0  0  0  0  0  0  0  0  0  0  0
  143.1210   80.0090  223.1100 C   0  0  0  0  0  0  0  0  0  0  0  0
  142.3210   79.0350  222.5660 C   0  0  0  0  0  0  0  0  0  0  0  0
  136.2996   76.3795  223.7114 H   0  0  0  0  0  0  0  0  0  0  0  0
  136.3971   77.3496  222.2027 H   0  0  0  0  0  0  0  0  0  0  0  0
  136.9271   75.6332  222.2027 H   0  0  0  0  0  0  0  0  0  0  0  0
  138.0593   78.4912  221.9368 H   0  0  0  0  0  0  0  0  0  0  0  0
  138.9480   78.5857  223.6113 H   0  0  0  0  0  0  0  0  0  0  0  0
  139.9526   78.2061  220.9642 H   0  0  0  0  0  0  0  0  0  0  0  0
  141.5840   76.4190  222.4240 H   0  0  0  0  0  0  0  0  0  0  0  0
  140.1910   73.8309  220.2803 H   0  0  0  0  0  0  0  0  0  0  0  0
  141.6670   74.4212  221.1731 H   0  0  0  0  0  0  0  0  0  0  0  0
  139.6430   73.8950  223.0930 H   0  0  0  0  0  0  0  0  0  0  0  0
  139.2728   69.8774  222.5031 H   0  0  0  0  0  0  0  0  0  0  0  0
  138.6103   68.5710  224.5154 H   0  0  0  0  0  0  0  0  0  0  0  0
  138.6510   68.3319  227.0048 H   0  0  0  0  0  0  0  0  0  0  0  0
  140.7151   71.3658  229.2851 H   0  0  0  0  0  0  0  0  0  0  0  0
  141.3099   72.5792  227.1930 H   0  0  0  0  0  0  0  0  0  0  0  0
  139.3056   80.2450  223.3909 H   0  0  0  0  0  0  0  0  0  0  0  0
  140.7169   82.0089  224.3828 H   0  0  0  0  0  0  0  0  0  0  0  0
  143.1954   81.8689  224.2016 H   0  0  0  0  0  0  0  0  0  0  0  0
  144.2148   79.9310  223.0232 H   0  0  0  0  0  0  0  0  0  0  0  0
  142.7947   78.1878  222.0485 H   0  0  0  0  0  0  0  0  0  0  0  0
  1  2  1  0
  2  3  1  0
  3  4  1  0
  4  5  1  0
  5  6  1  0
  6  7  2  0
  6  8  1  0
  8  9  1  0
  9 10  1  0
 10 11  2  0
 10 12  1  0
 12 13  2  0
 13 14  1  0
 14 15  2  0
 15 16  1  0
 16 17  2  0
 17 18  1  0
 17 19  1  0
 19 20  2  0
 20 21  1  0
 21 22  2  0
  4 23  1  0
 23 24  2  0
 24 25  1  0
 25 26  2  0
 26 27  1  0
 27 28  2  0
 22 12  1  0
 28 23  1  0
 21 15  1  0
  1 29  1  0
  1 30  1  0
  1 31  1  0
  3 32  1  0
  3 33  1  0
  4 34  1  6
  5 35  1  0
  8 36  1  0
  8 37  1  0
  9 38  1  0
 13 39  1  0
 14 40  1  0
 16 41  1  0
 19 42  1  0
 20 43  1  0
 24 44  1  0
 25 45  1  0
 26 46  1  0
 27 47  1  0
 28 48  1  0
M  END
>  <smiles>  (48) 
COC[C@H](NC(=O)CNC(=O)c1ccc2cc(F)ccc2n1)c1ccccc1

>  <score_type>  (48) 
oracle

>  <origin>  (48) 
autodockgpu

>  <m_score__min__energy>  (48) 
-8.3699999999999992

>  <m_primary>  (48) 
energy

>  <rmsd>  (48) 
3.884987248259069

>  <m_score__min__rmsd>  (48) 
3.884987248259069

>  <meeko>  (48) 
{"free_energy": -8.37, "intermolecular_energy": -10.46, "internal_energy": -1.22, "cluster_size": 30, "cluster_id": 1, "rank_in_cluster": 1}

>  <energy>  (48) 
-7.05

>  <cluster_rmsd>  (48) 
1.14

>  <cluster>  (48) 
4

$$$$

     RDKit          3D

 48 50  0  0  0  0  0  0  0  0999 V2000
  143.3180   75.9920  218.5020 C   0  0  0  0  0  0  0  0  0  0  0  0
  142.9360   77.2770  218.3550 O   0  0  0  0  0  0  0  0  0  0  0  0
  142.1870   77.9610  219.2200 C   0  0  0  0  0  0  0  0  0  0  0  0
  141.7210   77.3740  220.5010 C   0  0  2  0  0  0  0  0  0  0  0  0
  140.5360   76.6130  220.4140 N   0  0  0  0  0  0  0  0  0  0  0  0
  140.4290   75.4600  221.2960 C   0  0  0  0  0  0  0  0  0  0  0  0
  141.3510   75.1620  222.0960 O   0  0  0  0  0  0  0  0  0  0  0  0
  139.2150   74.6040  221.2690 C   0  0  0  0  0  0  0  0  0  0  0  0
  139.1890   73.6390  222.3170 N   0  0  0  0  0  0  0  0  0  0  0  0
  140.1080   72.5580  222.3520 C   0  0  0  0  0  0  0  0  0  0  0  0
  140.9940   72.4090  221.4430 O   0  0  0  0  0  0  0  0  0  0  0  0
  140.0150   71.6050  223.4700 C   0  0  0  0  0  0  0  0  0  0  0  0
  139.3790   70.3920  223.3200 C   0  0  0  0  0  0  0  0  0  0  0  0
  139.2860   69.4810  224.3750 C   0  0  0  0  0  0  0  0  0  0  0  0
  139.8420   69.8010  225.6000 C   0  0  0  0  0  0  0  0  0  0  0  0
  139.7900   68.9530  226.6880 C   0  0  0  0  0  0  0  0  0  0  0  0
  140.3850   69.3750  227.8820 C   0  0  0  0  0  0  0  0  0  0  0  0
  140.3610   68.5790  228.9800 F   0  0  0  0  0  0  0  0  0  0  0  0
  141.0090   70.6040  227.9740 C   0  0  0  0  0  0  0  0  0  0  0  0
  141.0640   71.4550  226.8900 C   0  0  0  0  0  0  0  0  0  0  0  0
  140.4710   71.0280  225.7080 C   0  0  0  0  0  0  0  0  0  0  0  0
  140.5430   71.8820  224.6710 N   0  0  0  0  0  0  0  0  0  0  0  0
  141.6830   78.4600  221.5320 C   0  0  0  0  0  0  0  0  0  0  0  0
  141.8700   79.7840  221.2320 C   0  0  0  0  0  0  0  0  0  0  0  0
  141.8350   80.7880  222.1920 C   0  0  0  0  0  0  0  0  0  0  0  0
  141.6070   80.4650  223.5120 C   0  0  0  0  0  0  0  0  0  0  0  0
  141.4140   79.1420  223.8490 C   0  0  0  0  0  0  0  0  0  0  0  0
  141.4510   78.1680  222.8820 C   0  0  0  0  0  0  0  0  0  0  0  0
  143.3896   75.7510  219.5729 H   0  0  0  0  0  0  0  0  0  0  0  0
  142.5770   75.3325  218.0265 H   0  0  0  0  0  0  0  0  0  0  0  0
  144.2989   75.8444  218.0265 H   0  0  0  0  0  0  0  0  0  0  0  0
  142.7668   78.8571  219.4862 H   0  0  0  0  0  0  0  0  0  0  0  0
  141.2442   78.0754  218.6650 H   0  0  0  0  0  0  0  0  0  0  0  0
  142.4470   76.6085  220.8125 H   0  0  0  0  0  0  0  0  0  0  0  0
  139.7000   76.7560  219.8230 H   0  0  0  0  0  0  0  0  0  0  0  0
  138.3293   75.2492  221.3650 H   0  0  0  0  0  0  0  0  0  0  0  0
  139.2221   74.0540  220.3164 H   0  0  0  0  0  0  0  0  0  0  0  0
  138.4790   73.7140  223.0930 H   0  0  0  0  0  0  0  0  0  0  0  0
  138.9343   70.1350  222.3473 H   0  0  0  0  0  0  0  0  0  0  0  0
  138.7749   68.5174  224.2325 H   0  0  0  0  0  0  0  0  0  0  0  0
  139.2948   67.9732  226.6183 H   0  0  0  0  0  0  0  0  0  0  0  0
  141.4688   70.9084  228.9258 H   0  0  0  0  0  0  0  0  0  0  0  0
  141.5588   72.4351  226.9585 H   0  0  0  0  0  0  0  0  0  0  0  0
  142.0561   80.0644  220.1847 H   0  0  0  0  0  0  0  0  0  0  0  0
  141.9888   81.8371  221.8992 H   0  0  0  0  0  0  0  0  0  0  0  0
  141.5794   81.2488  224.2833 H   0  0  0  0  0  0  0  0  0  0  0  0
  141.2295   78.8655  224.8976 H   0  0  0  0  0  0  0  0  0  0  0  0
  141.2927   77.1205  223.1783 H   0  0  0  0  0  0  0  0  0  0  0  0
  1  2  1  0
  2  3  1  0
  3  4  1  0
  4  5  1  0
  5  6  1  0
  6  7  2  0
  6  8  1  0
  8  9  1  0
  9 10  1  0
 10 11  2  0
 10 12  1  0
 12 13  2  0
 13 14  1  0
 14 15  2  0
 15 16  1  0
 16 17  2  0
 17 18  1  0
 17 19  1  0
 19 20  2  0
 20 21  1  0
 21 22  2  0
  4 23  1  0
 23 24  2  0
 24 25  1  0
 25 26  2  0
 26 27  1  0
 27 28  2  0
 22 12  1  0
 28 23  1  0
 21 15  1  0
  1 29  1  0
  1 30  1  0
  1 31  1  0
  3 32  1  0
  3 33  1  0
  4 34  1  1
  5 35  1  0
  8 36  1  0
  8 37  1  0
  9 38  1  0
 13 39  1  0
 14 40  1  0
 16 41  1  0
 19 42  1  0
 20 43  1  0
 24 44  1  0
 25 45  1  0
 26 46  1  0
 27 47  1  0
 28 48  1  0
M  END
>  <smiles>  (49) 
COC[C@H](NC(=O)CNC(=O)c1ccc2cc(F)ccc2n1)c1ccccc1

>  <score_type>  (49) 
oracle

>  <origin>  (49) 
autodockgpu

>  <m_score__min__energy>  (49) 
-8.3699999999999992

>  <m_primary>  (49) 
energy

>  <rmsd>  (49) 
4.1160904939248955

>  <m_score__min__rmsd>  (49) 
4.1160904939248955

>  <meeko>  (49) 
{"free_energy": -8.29, "intermolecular_energy": -10.38, "internal_energy": -1.25, "cluster_size": 30, "cluster_id": 1, "rank_in_cluster": 8}

>  <energy>  (49) 
-7.36

>  <cluster_rmsd>  (49) 
0.0

>  <cluster>  (49) 
5

$$$$

     RDKit          3D

 48 50  0  0  0  0  0  0  0  0999 V2000
  143.6150   76.1400  219.7220 C   0  0  0  0  0  0  0  0  0  0  0  0
  142.5800   76.8860  219.2830 O   0  0  0  0  0  0  0  0  0  0  0  0
  141.7820   77.6260  220.0530 C   0  0  0  0  0  0  0  0  0  0  0  0
  141.4430   77.2370  221.4440 C   0  0  2  0  0  0  0  0  0  0  0  0
  140.3070   76.4090  221.5740 N   0  0  0  0  0  0  0  0  0  0  0  0
  140.5280   74.9730  221.5020 C   0  0  0  0  0  0  0  0  0  0  0  0
  141.6790   74.4980  221.3330 O   0  0  0  0  0  0  0  0  0  0  0  0
  139.3870   74.0300  221.6280 C   0  0  0  0  0  0  0  0  0  0  0  0
  139.5570   73.0860  222.6820 N   0  0  0  0  0  0  0  0  0  0  0  0
  139.2210   71.7170  222.5120 C   0  0  0  0  0  0  0  0  0  0  0  0
  138.7520   71.2800  221.4060 O   0  0  0  0  0  0  0  0  0  0  0  0
  139.4290   70.8060  223.6500 C   0  0  0  0  0  0  0  0  0  0  0  0
  139.0320   69.4880  223.5870 C   0  0  0  0  0  0  0  0  0  0  0  0
  139.2240   68.6160  224.6620 C   0  0  0  0  0  0  0  0  0  0  0  0
  139.8240   69.0820  225.8160 C   0  0  0  0  0  0  0  0  0  0  0  0
  140.0480   68.2810  226.9170 C   0  0  0  0  0  0  0  0  0  0  0  0
  140.6640   68.8540  228.0360 C   0  0  0  0  0  0  0  0  0  0  0  0
  140.9060   68.1100  229.1440 F   0  0  0  0  0  0  0  0  0  0  0  0
  141.0410   70.1830  228.0410 C   0  0  0  0  0  0  0  0  0  0  0  0
  140.8200   70.9880  226.9440 C   0  0  0  0  0  0  0  0  0  0  0  0
  140.2080   70.4110  225.8370 C   0  0  0  0  0  0  0  0  0  0  0  0
  140.0080   71.2240  224.7840 N   0  0  0  0  0  0  0  0  0  0  0  0
  141.4030   78.4770  222.2850 C   0  0  0  0  0  0  0  0  0  0  0  0
  140.3050   78.8510  223.0150 C   0  0  0  0  0  0  0  0  0  0  0  0
  140.2710   80.0030  223.7910 C   0  0  0  0  0  0  0  0  0  0  0  0
  141.3770   80.8220  223.8460 C   0  0  0  0  0  0  0  0  0  0  0  0
  142.5000   80.4760  223.1250 C   0  0  0  0  0  0  0  0  0  0  0  0
  142.5080   79.3320  222.3660 C   0  0  0  0  0  0  0  0  0  0  0  0
  143.6225   76.1346  220.8220 H   0  0  0  0  0  0  0  0  0  0  0  0
  143.5080   75.1100  219.3510 H   0  0  0  0  0  0  0  0  0  0  0  0
  144.5583   76.5672  219.3510 H   0  0  0  0  0  0  0  0  0  0  0  0
  142.2519   78.6185  220.1177 H   0  0  0  0  0  0  0  0  0  0  0  0
  140.8125   77.5227  219.5437 H   0  0  0  0  0  0  0  0  0  0  0  0
  142.2371   76.5744  221.8186 H   0  0  0  0  0  0  0  0  0  0  0  0
  139.3180   76.6650  221.7360 H   0  0  0  0  0  0  0  0  0  0  0  0
  138.4727   74.6102  221.8215 H   0  0  0  0  0  0  0  0  0  0  0  0
  139.3233   73.4638  220.6871 H   0  0  0  0  0  0  0  0  0  0  0  0
  139.9410   73.3920  223.6150 H   0  0  0  0  0  0  0  0  0  0  0  0
  138.5532   69.1139  222.6700 H   0  0  0  0  0  0  0  0  0  0  0  0
  138.9001   67.5672  224.5900 H   0  0  0  0  0  0  0  0  0  0  0  0
  139.7509   67.2219  226.9155 H   0  0  0  0  0  0  0  0  0  0  0  0
  141.5249   70.6053  228.9340 H   0  0  0  0  0  0  0  0  0  0  0  0
  141.1168   72.0472  226.9445 H   0  0  0  0  0  0  0  0  0  0  0  0
  139.4110   78.2107  222.9852 H   0  0  0  0  0  0  0  0  0  0  0  0
  139.3647   80.2598  224.3590 H   0  0  0  0  0  0  0  0  0  0  0  0
  141.3645   81.7376  224.4555 H   0  0  0  0  0  0  0  0  0  0  0  0
  143.3923   81.1184  223.1580 H   0  0  0  0  0  0  0  0  0  0  0  0
  143.4167   79.0780  221.8005 H   0  0  0  0  0  0  0  0  0  0  0  0
  1  2  1  0
  2  3  1  0
  3  4  1  0
  4  5  1  0
  5  6  1  0
  6  7  2  0
  6  8  1  0
  8  9  1  0
  9 10  1  0
 10 11  2  0
 10 12  1  0
 12 13  2  0
 13 14  1  0
 14 15  2  0
 15 16  1  0
 16 17  2  0
 17 18  1  0
 17 19  1  0
 19 20  2  0
 20 21  1  0
 21 22  2  0
  4 23  1  0
 23 24  2  0
 24 25  1  0
 25 26  2  0
 26 27  1  0
 27 28  2  0
 22 12  1  0
 28 23  1  0
 21 15  1  0
  1 29  1  0
  1 30  1  0
  1 31  1  0
  3 32  1  0
  3 33  1  0
  4 34  1  1
  5 35  1  0
  8 36  1  0
  8 37  1  0
  9 38  1  0
 13 39  1  0
 14 40  1  0
 16 41  1  0
 19 42  1  0
 20 43  1  0
 24 44  1  0
 25 45  1  0
 26 46  1  0
 27 47  1  0
 28 48  1  0
M  END
>  <smiles>  (50) 
COC[C@H](NC(=O)CNC(=O)c1ccc2cc(F)ccc2n1)c1ccccc1

>  <score_type>  (50) 
oracle

>  <origin>  (50) 
autodockgpu

>  <m_score__min__energy>  (50) 
-8.3699999999999992

>  <m_primary>  (50) 
energy

>  <rmsd>  (50) 
3.9998232199100445

>  <m_score__min__rmsd>  (50) 
3.9998232199100445

>  <meeko>  (50) 
{"free_energy": -7.86, "intermolecular_energy": -9.95, "internal_energy": -1.5, "cluster_size": 30, "cluster_id": 1, "rank_in_cluster": 21}

>  <energy>  (50) 
-7.1

>  <cluster_rmsd>  (50) 
0.0

>  <cluster>  (50) 
6

$$$$
