
     RDKit          3D

 52 56  0  0  0  0  0  0  0  0999 V2000
  141.9380   80.8280  223.9010 O   0  0  0  0  0  0  0  0  0  0  0  0
  141.3700   80.0700  223.0940 C   0  0  0  0  0  0  0  0  0  0  0  0
  142.1800   79.3500  222.0820 C   0  0  0  0  0  0  0  0  0  0  0  0
  141.3240   78.4920  221.2390 C   0  0  0  0  0  0  0  0  0  0  0  0
  141.9700   77.6440  220.2210 C   0  0  0  0  0  0  0  0  0  0  0  0
  142.3760   78.1720  219.0270 C   0  0  0  0  0  0  0  0  0  0  0  0
  142.9490   77.4310  218.0220 C   0  0  0  0  0  0  0  0  0  0  0  0
  143.1240   76.0700  218.2390 C   0  0  0  0  0  0  0  0  0  0  0  0
  142.7150   75.5230  219.4540 C   0  0  0  0  0  0  0  0  0  0  0  0
  142.8800   74.1020  219.6530 C   0  0  0  0  0  0  0  0  0  0  0  0
  141.9430   73.3440  219.2320 O   0  0  0  0  0  0  0  0  0  0  0  0
  143.9740   73.4680  220.2640 N   0  0  0  0  0  0  0  0  0  0  0  0
  143.9670   71.9950  220.3590 C   0  0  0  0  0  0  0  0  0  0  0  0
  145.1250   71.5600  219.4800 C   0  0  0  0  0  0  0  0  0  0  0  0
  145.9590   72.6040  219.1050 O   0  0  0  0  0  0  0  0  0  0  0  0
  146.3270   73.4630  220.1110 C   0  0  0  0  0  0  0  0  0  0  0  0
  145.1370   74.1090  220.8230 C   0  0  0  0  0  0  0  0  0  0  0  0
  142.1410   76.2840  220.4500 C   0  0  0  0  0  0  0  0  0  0  0  0
  140.0480   78.3880  221.3520 N   0  0  0  0  0  0  0  0  0  0  0  0
  139.2760   79.0790  222.3100 C   0  0  0  0  0  0  0  0  0  0  0  0
  137.9210   78.9060  222.3720 C   0  0  0  0  0  0  0  0  0  0  0  0
  137.1350   79.5670  223.3150 C   0  0  0  0  0  0  0  0  0  0  0  0
  137.7700   80.4010  224.1840 C   0  0  0  0  0  0  0  0  0  0  0  0
  137.0150   81.0960  225.2000 C   0  0  0  0  0  0  0  0  0  0  0  0
  135.6930   80.8580  225.4790 C   0  0  0  0  0  0  0  0  0  0  0  0
  134.9980   81.5360  226.4820 C   0  0  0  0  0  0  0  0  0  0  0  0
  133.2980   81.1620  226.7680 Cl  0  0  0  0  0  0  0  0  0  0  0  0
  135.6710   82.4700  227.2040 C   0  0  0  0  0  0  0  0  0  0  0  0
  137.0170   82.7160  226.9280 C   0  0  0  0  0  0  0  0  0  0  0  0
  137.6570   82.0430  225.9550 N   0  0  0  0  0  0  0  0  0  0  0  0
  139.1470   80.5750  224.1190 C   0  0  0  0  0  0  0  0  0  0  0  0
  139.9320   79.9220  223.1860 C   0  0  0  0  0  0  0  0  0  0  0  0
  142.6950   80.0834  221.4441 H   0  0  0  0  0  0  0  0  0  0  0  0
  142.9116   78.7149  222.6029 H   0  0  0  0  0  0  0  0  0  0  0  0
  142.2360   79.2505  218.8618 H   0  0  0  0  0  0  0  0  0  0  0  0
  143.2591   77.8999  217.0765 H   0  0  0  0  0  0  0  0  0  0  0  0
  143.5780   75.4344  217.4645 H   0  0  0  0  0  0  0  0  0  0  0  0
  144.1227   71.6703  221.3984 H   0  0  0  0  0  0  0  0  0  0  0  0
  143.0093   71.5568  220.0417 H   0  0  0  0  0  0  0  0  0  0  0  0
  145.7217   70.8190  220.0321 H   0  0  0  0  0  0  0  0  0  0  0  0
  144.6925   71.1446  218.5578 H   0  0  0  0  0  0  0  0  0  0  0  0
  146.9139   72.9009  220.8524 H   0  0  0  0  0  0  0  0  0  0  0  0
  146.9089   74.2742  219.6491 H   0  0  0  0  0  0  0  0  0  0  0  0
  145.1925   73.9315  221.9072 H   0  0  0  0  0  0  0  0  0  0  0  0
  145.1146   75.1998  220.6828 H   0  0  0  0  0  0  0  0  0  0  0  0
  141.8269   75.8272  221.4001 H   0  0  0  0  0  0  0  0  0  0  0  0
  137.4367   78.2251  221.6566 H   0  0  0  0  0  0  0  0  0  0  0  0
  136.0455   79.4206  223.3553 H   0  0  0  0  0  0  0  0  0  0  0  0
  135.1579   80.1007  224.8872 H   0  0  0  0  0  0  0  0  0  0  0  0
  135.1583   83.0287  228.0009 H   0  0  0  0  0  0  0  0  0  0  0  0
  137.5618   83.4706  227.5143 H   0  0  0  0  0  0  0  0  0  0  0  0
  139.6300   81.2563  224.8350 H   0  0  0  0  0  0  0  0  0  0  0  0
  1  2  2  0
  2  3  1  0
  3  4  1  0
  4  5  1  0
  5  6  2  0
  6  7  1  0
  7  8  2  0
  8  9  1  0
  9 10  1  0
 10 11  2  0
 10 12  1  0
 12 13  1  0
 13 14  1  0
 14 15  1  0
 15 16  1  0
 16 17  1  0
  9 18  2  0
  4 19  2  0
 19 20  1  0
 20 21  2  0
 21 22  1  0
 22 23  2  0
 23 24  1  0
 24 25  2  0
 25 26  1  0
 26 27  1  0
 26 28  2  0
 28 29  1  0
 29 30  2  0
 23 31  1  0
 31 32  2  0
 32  2  1  0
 18  5  1  0
 32 20  1  0
 17 12  1  0
 30 24  1  0
  3 33  1  0
  3 34  1  0
  6 35  1  0
  7 36  1  0
  8 37  1  0
 13 38  1  0
 13 39  1  0
 14 40  1  0
 14 41  1  0
 16 42  1  0
 16 43  1  0
 17 44  1  0
 17 45  1  0
 18 46  1  0
 21 47  1  0
 22 48  1  0
 25 49  1  0
 28 50  1  0
 29 51  1  0
 31 52  1  0
M  END
>  <smiles>  (1) 
O=C1CC(c2cccc(C(=O)N3CCOCC3)c2)=Nc2ccc(-c3cc(Cl)ccn3)cc21

>  <score_type>  (1) 
oracle

>  <origin>  (1) 
autodockgpu

>  <m_score__min__energy>  (1) 
-8.6899999999999995

>  <m_primary>  (1) 
energy

>  <rmsd>  (1) 
8.896777864722734

>  <m_score__min__rmsd>  (1) 
8.896777864722734

>  <meeko>  (1) 
{"free_energy": -8.69, "intermolecular_energy": -9.59, "internal_energy": -1.0, "cluster_size": 41, "cluster_id": 1, "rank_in_cluster": 3}

>  <energy>  (1) 
-8.69

>  <cluster_rmsd>  (1) 
0.0

>  <cluster>  (1) 
1

$$$$

     RDKit          3D

 52 56  0  0  0  0  0  0  0  0999 V2000
  142.0670   80.3130  224.2010 O   0  0  0  0  0  0  0  0  0  0  0  0
  141.5040   79.8390  223.1980 C   0  0  0  0  0  0  0  0  0  0  0  0
  142.2860   79.0110  222.2500 C   0  0  0  0  0  0  0  0  0  0  0  0
  141.4340   78.5300  221.1440 C   0  0  0  0  0  0  0  0  0  0  0  0
  142.0290   77.6300  220.1410 C   0  0  0  0  0  0  0  0  0  0  0  0
  142.3890   78.0980  218.9080 C   0  0  0  0  0  0  0  0  0  0  0  0
  142.9140   77.3060  217.9150 C   0  0  0  0  0  0  0  0  0  0  0  0
  143.0860   75.9540  218.1890 C   0  0  0  0  0  0  0  0  0  0  0  0
  142.7230   75.4690  219.4440 C   0  0  0  0  0  0  0  0  0  0  0  0
  142.8850   74.0560  219.7010 C   0  0  0  0  0  0  0  0  0  0  0  0
  141.9300   73.2880  219.3430 O   0  0  0  0  0  0  0  0  0  0  0  0
  143.9920   73.4410  220.3070 N   0  0  0  0  0  0  0  0  0  0  0  0
  143.9790   71.9750  220.4680 C   0  0  0  0  0  0  0  0  0  0  0  0
  145.1050   71.4900  219.5740 C   0  0  0  0  0  0  0  0  0  0  0  0
  145.9350   72.5090  219.1270 O   0  0  0  0  0  0  0  0  0  0  0  0
  146.3400   73.4100  220.0810 C   0  0  0  0  0  0  0  0  0  0  0  0
  145.1770   74.0970  220.8000 C   0  0  0  0  0  0  0  0  0  0  0  0
  142.1980   76.2800  220.4260 C   0  0  0  0  0  0  0  0  0  0  0  0
  140.1850   78.8020  221.0080 N   0  0  0  0  0  0  0  0  0  0  0  0
  139.4410   79.5970  221.9060 C   0  0  0  0  0  0  0  0  0  0  0  0
  138.1100   79.8300  221.6950 C   0  0  0  0  0  0  0  0  0  0  0  0
  137.3490   80.6020  222.5710 C   0  0  0  0  0  0  0  0  0  0  0  0
  137.9820   81.1220  223.6590 C   0  0  0  0  0  0  0  0  0  0  0  0
  137.2430   81.9100  224.6170 C   0  0  0  0  0  0  0  0  0  0  0  0
  136.9150   81.4840  225.8790 C   0  0  0  0  0  0  0  0  0  0  0  0
  136.2150   82.2790  226.7870 C   0  0  0  0  0  0  0  0  0  0  0  0
  135.8370   81.6450  228.3900 Cl  0  0  0  0  0  0  0  0  0  0  0  0
  135.8480   83.5270  226.3920 C   0  0  0  0  0  0  0  0  0  0  0  0
  136.1800   83.9680  225.1100 C   0  0  0  0  0  0  0  0  0  0  0  0
  136.8570   83.1750  224.2600 N   0  0  0  0  0  0  0  0  0  0  0  0
  139.3340   80.8840  223.8700 C   0  0  0  0  0  0  0  0  0  0  0  0
  140.0950   80.1180  223.0050 C   0  0  0  0  0  0  0  0  0  0  0  0
  143.1065   79.6154  221.8360 H   0  0  0  0  0  0  0  0  0  0  0  0
  142.6853   78.1401  222.7905 H   0  0  0  0  0  0  0  0  0  0  0  0
  142.2507   79.1690  218.6988 H   0  0  0  0  0  0  0  0  0  0  0  0
  143.1887   77.7275  216.9368 H   0  0  0  0  0  0  0  0  0  0  0  0
  143.5019   75.2779  217.4275 H   0  0  0  0  0  0  0  0  0  0  0  0
  144.1656   71.6963  221.5156 H   0  0  0  0  0  0  0  0  0  0  0  0
  143.0088   71.5313  220.2002 H   0  0  0  0  0  0  0  0  0  0  0  0
  145.7129   70.7688  220.1399 H   0  0  0  0  0  0  0  0  0  0  0  0
  144.6407   71.0375  218.6854 H   0  0  0  0  0  0  0  0  0  0  0  0
  146.9465   72.8776  220.8285 H   0  0  0  0  0  0  0  0  0  0  0  0
  146.9119   74.1950  219.5646 H   0  0  0  0  0  0  0  0  0  0  0  0
  145.2655   73.9678  221.8888 H   0  0  0  0  0  0  0  0  0  0  0  0
  145.1575   75.1805  220.6113 H   0  0  0  0  0  0  0  0  0  0  0  0
  141.9202   75.8706  221.4085 H   0  0  0  0  0  0  0  0  0  0  0  0
  137.6259   79.3954  220.8080 H   0  0  0  0  0  0  0  0  0  0  0  0
  136.2793   80.7841  222.3907 H   0  0  0  0  0  0  0  0  0  0  0  0
  137.2167   80.4724  226.1883 H   0  0  0  0  0  0  0  0  0  0  0  0
  135.2935   84.1845  227.0777 H   0  0  0  0  0  0  0  0  0  0  0  0
  135.8839   84.9780  224.7903 H   0  0  0  0  0  0  0  0  0  0  0  0
  139.8171   81.3202  224.7567 H   0  0  0  0  0  0  0  0  0  0  0  0
  1  2  2  0
  2  3  1  0
  3  4  1  0
  4  5  1  0
  5  6  2  0
  6  7  1  0
  7  8  2  0
  8  9  1  0
  9 10  1  0
 10 11  2  0
 10 12  1  0
 12 13  1  0
 13 14  1  0
 14 15  1  0
 15 16  1  0
 16 17  1  0
  9 18  2  0
  4 19  2  0
 19 20  1  0
 20 21  2  0
 21 22  1  0
 22 23  2  0
 23 24  1  0
 24 25  2  0
 25 26  1  0
 26 27  1  0
 26 28  2  0
 28 29  1  0
 29 30  2  0
 23 31  1  0
 31 32  2  0
 32  2  1  0
 18  5  1  0
 32 20  1  0
 17 12  1  0
 30 24  1  0
  3 33  1  0
  3 34  1  0
  6 35  1  0
  7 36  1  0
  8 37  1  0
 13 38  1  0
 13 39  1  0
 14 40  1  0
 14 41  1  0
 16 42  1  0
 16 43  1  0
 17 44  1  0
 17 45  1  0
 18 46  1  0
 21 47  1  0
 22 48  1  0
 25 49  1  0
 28 50  1  0
 29 51  1  0
 31 52  1  0
M  END
>  <smiles>  (2) 
O=C1CC(c2cccc(C(=O)N3CCOCC3)c2)=Nc2ccc(-c3cc(Cl)ccn3)cc21

>  <score_type>  (2) 
oracle

>  <origin>  (2) 
autodockgpu

>  <m_score__min__energy>  (2) 
-8.6899999999999995

>  <m_primary>  (2) 
energy

>  <rmsd>  (2) 
8.909406972668352

>  <m_score__min__rmsd>  (2) 
8.909406972668352

>  <meeko>  (2) 
{"free_energy": -8.63, "intermolecular_energy": -9.53, "internal_energy": -1.01, "cluster_size": 41, "cluster_id": 1, "rank_in_cluster": 26}

>  <energy>  (2) 
-8.69

>  <cluster_rmsd>  (2) 
0.01

>  <cluster>  (2) 
1

$$$$

     RDKit          3D

 52 56  0  0  0  0  0  0  0  0999 V2000
  142.1960   81.0570  223.7210 O   0  0  0  0  0  0  0  0  0  0  0  0
  141.5860   80.2820  222.9620 C   0  0  0  0  0  0  0  0  0  0  0  0
  142.3470   79.4960  221.9620 C   0  0  0  0  0  0  0  0  0  0  0  0
  141.4460   78.6280  221.1790 C   0  0  0  0  0  0  0  0  0  0  0  0
  142.0400   77.7190  220.1830 C   0  0  0  0  0  0  0  0  0  0  0  0
  142.4150   78.1810  218.9510 C   0  0  0  0  0  0  0  0  0  0  0  0
  142.9390   77.3810  217.9650 C   0  0  0  0  0  0  0  0  0  0  0  0
  143.0950   76.0280  218.2420 C   0  0  0  0  0  0  0  0  0  0  0  0
  142.7170   75.5490  219.4960 C   0  0  0  0  0  0  0  0  0  0  0  0
  142.8620   74.1360  219.7580 C   0  0  0  0  0  0  0  0  0  0  0  0
  141.8880   73.3810  219.4260 O   0  0  0  0  0  0  0  0  0  0  0  0
  143.9740   73.5070  220.3420 N   0  0  0  0  0  0  0  0  0  0  0  0
  143.9410   72.0410  220.5120 C   0  0  0  0  0  0  0  0  0  0  0  0
  145.0390   71.5340  219.5960 C   0  0  0  0  0  0  0  0  0  0  0  0
  145.8750   72.5370  219.1250 O   0  0  0  0  0  0  0  0  0  0  0  0
  146.3140   73.4370  220.0640 C   0  0  0  0  0  0  0  0  0  0  0  0
  145.1790   74.1460  220.8040 C   0  0  0  0  0  0  0  0  0  0  0  0
  142.1930   76.3680  220.4720 C   0  0  0  0  0  0  0  0  0  0  0  0
  140.1710   78.5660  221.3290 N   0  0  0  0  0  0  0  0  0  0  0  0
  139.4440   79.3200  222.2760 C   0  0  0  0  0  0  0  0  0  0  0  0
  138.0870   79.1890  222.3800 C   0  0  0  0  0  0  0  0  0  0  0  0
  137.3460   79.9120  223.3140 C   0  0  0  0  0  0  0  0  0  0  0  0
  138.0270   80.7630  224.1290 C   0  0  0  0  0  0  0  0  0  0  0  0
  137.3200   81.5230  225.1330 C   0  0  0  0  0  0  0  0  0  0  0  0
  136.9320   82.8300  224.9820 C   0  0  0  0  0  0  0  0  0  0  0  0
  136.2320   83.5290  225.9670 C   0  0  0  0  0  0  0  0  0  0  0  0
  135.7740   85.2090  225.6830 Cl  0  0  0  0  0  0  0  0  0  0  0  0
  135.9300   82.8760  227.1200 C   0  0  0  0  0  0  0  0  0  0  0  0
  136.3200   81.5460  227.2800 C   0  0  0  0  0  0  0  0  0  0  0  0
  136.9920   80.9010  226.3100 N   0  0  0  0  0  0  0  0  0  0  0  0
  139.4060   80.8950  224.0210 C   0  0  0  0  0  0  0  0  0  0  0  0
  140.1470   80.1800  223.0970 C   0  0  0  0  0  0  0  0  0  0  0  0
  142.8651   80.1861  221.2799 H   0  0  0  0  0  0  0  0  0  0  0  0
  143.0735   78.8622  222.4916 H   0  0  0  0  0  0  0  0  0  0  0  0
  142.2899   79.2529  218.7382 H   0  0  0  0  0  0  0  0  0  0  0  0
  143.2258   77.7975  216.9881 H   0  0  0  0  0  0  0  0  0  0  0  0
  143.5097   75.3464  217.4848 H   0  0  0  0  0  0  0  0  0  0  0  0
  144.1464   71.7649  221.5568 H   0  0  0  0  0  0  0  0  0  0  0  0
  142.9581   71.6112  220.2687 H   0  0  0  0  0  0  0  0  0  0  0  0
  145.6478   70.8060  220.1522 H   0  0  0  0  0  0  0  0  0  0  0  0
  144.5477   71.0848  218.7203 H   0  0  0  0  0  0  0  0  0  0  0  0
  146.9286   72.8996  220.8012 H   0  0  0  0  0  0  0  0  0  0  0  0
  146.8858   74.2101  219.5299 H   0  0  0  0  0  0  0  0  0  0  0  0
  145.2897   74.0216  221.8913 H   0  0  0  0  0  0  0  0  0  0  0  0
  145.1725   75.2286  220.6091 H   0  0  0  0  0  0  0  0  0  0  0  0
  141.9036   75.9638  221.4533 H   0  0  0  0  0  0  0  0  0  0  0  0
  137.5646   78.4929  221.7072 H   0  0  0  0  0  0  0  0  0  0  0  0
  136.2544   79.7990  223.3891 H   0  0  0  0  0  0  0  0  0  0  0  0
  137.1830   83.3492  224.0453 H   0  0  0  0  0  0  0  0  0  0  0  0
  135.3818   83.3926  227.9216 H   0  0  0  0  0  0  0  0  0  0  0  0
  136.0743   81.0174  228.2129 H   0  0  0  0  0  0  0  0  0  0  0  0
  139.9267   81.5924  224.6937 H   0  0  0  0  0  0  0  0  0  0  0  0
  1  2  2  0
  2  3  1  0
  3  4  1  0
  4  5  1  0
  5  6  2  0
  6  7  1  0
  7  8  2  0
  8  9  1  0
  9 10  1  0
 10 11  2  0
 10 12  1  0
 12 13  1  0
 13 14  1  0
 14 15  1  0
 15 16  1  0
 16 17  1  0
  9 18  2  0
  4 19  2  0
 19 20  1  0
 20 21  2  0
 21 22  1  0
 22 23  2  0
 23 24  1  0
 24 25  2  0
 25 26  1  0
 26 27  1  0
 26 28  2  0
 28 29  1  0
 29 30  2  0
 23 31  1  0
 31 32  2  0
 32  2  1  0
 18  5  1  0
 32 20  1  0
 17 12  1  0
 30 24  1  0
  3 33  1  0
  3 34  1  0
  6 35  1  0
  7 36  1  0
  8 37  1  0
 13 38  1  0
 13 39  1  0
 14 40  1  0
 14 41  1  0
 16 42  1  0
 16 43  1  0
 17 44  1  0
 17 45  1  0
 18 46  1  0
 21 47  1  0
 22 48  1  0
 25 49  1  0
 28 50  1  0
 29 51  1  0
 31 52  1  0
M  END
>  <smiles>  (3) 
O=C1CC(c2cccc(C(=O)N3CCOCC3)c2)=Nc2ccc(-c3cc(Cl)ccn3)cc21

>  <score_type>  (3) 
oracle

>  <origin>  (3) 
autodockgpu

>  <m_score__min__energy>  (3) 
-8.6899999999999995

>  <m_primary>  (3) 
energy

>  <rmsd>  (3) 
9.030936724958831

>  <m_score__min__rmsd>  (3) 
9.030936724958831

>  <meeko>  (3) 
{"free_energy": -8.64, "intermolecular_energy": -9.53, "internal_energy": -1.0, "cluster_size": 41, "cluster_id": 1, "rank_in_cluster": 23}

>  <energy>  (3) 
-8.69

>  <cluster_rmsd>  (3) 
0.03

>  <cluster>  (3) 
1

$$$$

     RDKit          3D

 52 56  0  0  0  0  0  0  0  0999 V2000
  142.7480   74.0240  220.8340 O   0  0  0  0  0  0  0  0  0  0  0  0
  141.5850   73.8070  221.2170 C   0  0  0  0  0  0  0  0  0  0  0  0
  141.0950   72.4110  221.2990 C   0  0  0  0  0  0  0  0  0  0  0  0
  139.7040   72.3690  221.7910 C   0  0  0  0  0  0  0  0  0  0  0  0
  139.0760   71.0540  222.0050 C   0  0  0  0  0  0  0  0  0  0  0  0
  138.1190   70.5880  221.1450 C   0  0  0  0  0  0  0  0  0  0  0  0
  137.4680   69.3890  221.3070 C   0  0  0  0  0  0  0  0  0  0  0  0
  137.8070   68.6110  222.4070 C   0  0  0  0  0  0  0  0  0  0  0  0
  138.7820   69.0770  223.2870 C   0  0  0  0  0  0  0  0  0  0  0  0
  139.1030   68.2670  224.4400 C   0  0  0  0  0  0  0  0  0  0  0  0
  139.2160   67.0090  224.2520 O   0  0  0  0  0  0  0  0  0  0  0  0
  139.3060   68.7270  225.7510 N   0  0  0  0  0  0  0  0  0  0  0  0
  139.6450   67.7420  226.7950 C   0  0  0  0  0  0  0  0  0  0  0  0
  141.0560   68.1110  227.2140 C   0  0  0  0  0  0  0  0  0  0  0  0
  141.4720   69.3450  226.7330 O   0  0  0  0  0  0  0  0  0  0  0  0
  140.5710   70.3720  226.8710 C   0  0  0  0  0  0  0  0  0  0  0  0
  139.2230   70.0920  226.2060 C   0  0  0  0  0  0  0  0  0  0  0  0
  139.4240   70.2830  223.1070 C   0  0  0  0  0  0  0  0  0  0  0  0
  139.0010   73.4010  222.0960 N   0  0  0  0  0  0  0  0  0  0  0  0
  139.4640   74.7320  222.0110 C   0  0  0  0  0  0  0  0  0  0  0  0
  138.6550   75.7770  222.3640 C   0  0  0  0  0  0  0  0  0  0  0  0
  139.0890   77.1000  222.3010 C   0  0  0  0  0  0  0  0  0  0  0  0
  140.3620   77.3200  221.8700 C   0  0  0  0  0  0  0  0  0  0  0  0
  140.8800   78.6670  221.8050 C   0  0  0  0  0  0  0  0  0  0  0  0
  141.4080   79.3440  222.8750 C   0  0  0  0  0  0  0  0  0  0  0  0
  141.9170   80.6400  222.7730 C   0  0  0  0  0  0  0  0  0  0  0  0
  142.5770   81.4310  224.2050 Cl  0  0  0  0  0  0  0  0  0  0  0  0
  141.8800   81.2450  221.5570 C   0  0  0  0  0  0  0  0  0  0  0  0
  141.3460   80.5620  220.4630 C   0  0  0  0  0  0  0  0  0  0  0  0
  140.8650   79.3130  220.5970 N   0  0  0  0  0  0  0  0  0  0  0  0
  141.1810   76.2570  221.5110 C   0  0  0  0  0  0  0  0  0  0  0  0
  140.7560   74.9420  221.5720 C   0  0  0  0  0  0  0  0  0  0  0  0
  141.1371   71.9552  220.2988 H   0  0  0  0  0  0  0  0  0  0  0  0
  141.7332   71.8552  222.0017 H   0  0  0  0  0  0  0  0  0  0  0  0
  137.8562   71.2081  220.2753 H   0  0  0  0  0  0  0  0  0  0  0  0
  136.7036   69.0560  220.5895 H   0  0  0  0  0  0  0  0  0  0  0  0
  137.3140   67.6431  222.5805 H   0  0  0  0  0  0  0  0  0  0  0  0
  138.9523   67.8218  227.6458 H   0  0  0  0  0  0  0  0  0  0  0  0
  139.5709   66.7053  226.4349 H   0  0  0  0  0  0  0  0  0  0  0  0
  141.0981   68.1336  228.3130 H   0  0  0  0  0  0  0  0  0  0  0  0
  141.7290   67.3535  226.7860 H   0  0  0  0  0  0  0  0  0  0  0  0
  140.4011   70.5447  227.9440 H   0  0  0  0  0  0  0  0  0  0  0  0
  141.0028   71.2516  226.3710 H   0  0  0  0  0  0  0  0  0  0  0  0
  138.4033   70.2086  226.9302 H   0  0  0  0  0  0  0  0  0  0  0  0
  139.0172   70.7899  225.3811 H   0  0  0  0  0  0  0  0  0  0  0  0
  140.1913   70.6259  223.8167 H   0  0  0  0  0  0  0  0  0  0  0  0
  137.6314   75.5670  222.7078 H   0  0  0  0  0  0  0  0  0  0  0  0
  138.4300   77.9327  222.5878 H   0  0  0  0  0  0  0  0  0  0  0  0
  141.4313   78.8446  223.8548 H   0  0  0  0  0  0  0  0  0  0  0  0
  142.2685   82.2669  221.4354 H   0  0  0  0  0  0  0  0  0  0  0  0
  141.3182   81.0516  219.4784 H   0  0  0  0  0  0  0  0  0  0  0  0
  142.2039   76.4684  221.1659 H   0  0  0  0  0  0  0  0  0  0  0  0
  1  2  2  0
  2  3  1  0
  3  4  1  0
  4  5  1  0
  5  6  2  0
  6  7  1  0
  7  8  2  0
  8  9  1  0
  9 10  1  0
 10 11  2  0
 10 12  1  0
 12 13  1  0
 13 14  1  0
 14 15  1  0
 15 16  1  0
 16 17  1  0
  9 18  2  0
  4 19  2  0
 19 20  1  0
 20 21  2  0
 21 22  1  0
 22 23  2  0
 23 24  1  0
 24 25  2  0
 25 26  1  0
 26 27  1  0
 26 28  2  0
 28 29  1  0
 29 30  2  0
 23 31  1  0
 31 32  2  0
 32  2  1  0
 18  5  1  0
 32 20  1  0
 17 12  1  0
 30 24  1  0
  3 33  1  0
  3 34  1  0
  6 35  1  0
  7 36  1  0
  8 37  1  0
 13 38  1  0
 13 39  1  0
 14 40  1  0
 14 41  1  0
 16 42  1  0
 16 43  1  0
 17 44  1  0
 17 45  1  0
 18 46  1  0
 21 47  1  0
 22 48  1  0
 25 49  1  0
 28 50  1  0
 29 51  1  0
 31 52  1  0
M  END
>  <smiles>  (4) 
O=C1CC(c2cccc(C(=O)N3CCOCC3)c2)=Nc2ccc(-c3cc(Cl)ccn3)cc21

>  <score_type>  (4) 
oracle

>  <origin>  (4) 
autodockgpu

>  <m_score__min__energy>  (4) 
-8.6899999999999995

>  <m_primary>  (4) 
energy

>  <rmsd>  (4) 
6.637729138092646

>  <m_score__min__rmsd>  (4) 
6.637729138092646

>  <meeko>  (4) 
{"free_energy": -8.51, "intermolecular_energy": -9.41, "internal_energy": -0.98, "cluster_size": 9, "cluster_id": 2, "rank_in_cluster": 6}

>  <energy>  (4) 
-8.69

>  <cluster_rmsd>  (4) 
0.03

>  <cluster>  (4) 
1

$$$$

     RDKit          3D

 52 56  0  0  0  0  0  0  0  0999 V2000
  142.0120   80.1540  224.2370 O   0  0  0  0  0  0  0  0  0  0  0  0
  141.4700   79.7550  223.1900 C   0  0  0  0  0  0  0  0  0  0  0  0
  142.2550   78.9420  222.2300 C   0  0  0  0  0  0  0  0  0  0  0  0
  141.4280   78.5550  221.0700 C   0  0  0  0  0  0  0  0  0  0  0  0
  142.0240   77.6810  220.0460 C   0  0  0  0  0  0  0  0  0  0  0  0
  142.3850   78.1800  218.8240 C   0  0  0  0  0  0  0  0  0  0  0  0
  142.9110   77.4130  217.8130 C   0  0  0  0  0  0  0  0  0  0  0  0
  143.0840   76.0550  218.0520 C   0  0  0  0  0  0  0  0  0  0  0  0
  142.7210   75.5380  219.2950 C   0  0  0  0  0  0  0  0  0  0  0  0
  142.8840   74.1200  219.5170 C   0  0  0  0  0  0  0  0  0  0  0  0
  141.9690   73.3530  219.0650 O   0  0  0  0  0  0  0  0  0  0  0  0
  143.9530   73.4980  220.1830 N   0  0  0  0  0  0  0  0  0  0  0  0
  143.9490   72.0270  220.2940 C   0  0  0  0  0  0  0  0  0  0  0  0
  145.1450   71.5870  219.4710 C   0  0  0  0  0  0  0  0  0  0  0  0
  145.9900   72.6300  219.1200 O   0  0  0  0  0  0  0  0  0  0  0  0
  146.3100   73.5030  220.1310 C   0  0  0  0  0  0  0  0  0  0  0  0
  145.0890   74.1510  220.7830 C   0  0  0  0  0  0  0  0  0  0  0  0
  142.1950   76.3240  220.2970 C   0  0  0  0  0  0  0  0  0  0  0  0
  140.1980   78.8880  220.9000 N   0  0  0  0  0  0  0  0  0  0  0  0
  139.4520   79.6690  221.8100 C   0  0  0  0  0  0  0  0  0  0  0  0
  138.1420   79.9710  221.5600 C   0  0  0  0  0  0  0  0  0  0  0  0
  137.3800   80.7320  222.4460 C   0  0  0  0  0  0  0  0  0  0  0  0
  137.9900   81.1680  223.5820 C   0  0  0  0  0  0  0  0  0  0  0  0
  137.2470   81.9390  224.5500 C   0  0  0  0  0  0  0  0  0  0  0  0
  136.9480   81.5060  225.8170 C   0  0  0  0  0  0  0  0  0  0  0  0
  136.2430   82.2860  226.7360 C   0  0  0  0  0  0  0  0  0  0  0  0
  135.9060   81.6450  228.3440 Cl  0  0  0  0  0  0  0  0  0  0  0  0
  135.8410   83.5240  226.3450 C   0  0  0  0  0  0  0  0  0  0  0  0
  136.1420   83.9720  225.0580 C   0  0  0  0  0  0  0  0  0  0  0  0
  136.8250   83.1940  224.1980 N   0  0  0  0  0  0  0  0  0  0  0  0
  139.3210   80.8600  223.8320 C   0  0  0  0  0  0  0  0  0  0  0  0
  140.0840   80.1060  222.9580 C   0  0  0  0  0  0  0  0  0  0  0  0
  143.1156   79.5303  221.8788 H   0  0  0  0  0  0  0  0  0  0  0  0
  142.5968   78.0288  222.7391 H   0  0  0  0  0  0  0  0  0  0  0  0
  142.2462   79.2557  218.6410 H   0  0  0  0  0  0  0  0  0  0  0  0
  143.1862   77.8591  216.8459 H   0  0  0  0  0  0  0  0  0  0  0  0
  143.5004   75.3989  217.2735 H   0  0  0  0  0  0  0  0  0  0  0  0
  144.0613   71.7149  221.3428 H   0  0  0  0  0  0  0  0  0  0  0  0
  143.0078   71.5809  219.9403 H   0  0  0  0  0  0  0  0  0  0  0  0
  145.7203   70.8551  220.0569 H   0  0  0  0  0  0  0  0  0  0  0  0
  144.7542   71.1590  218.5361 H   0  0  0  0  0  0  0  0  0  0  0  0
  146.8669   72.9526  220.9036 H   0  0  0  0  0  0  0  0  0  0  0  0
  146.9071   74.3118  219.6846 H   0  0  0  0  0  0  0  0  0  0  0  0
  145.0991   73.9867  221.8706 H   0  0  0  0  0  0  0  0  0  0  0  0
  145.0680   75.2399  220.6283 H   0  0  0  0  0  0  0  0  0  0  0  0
  141.9179   75.8899  221.2690 H   0  0  0  0  0  0  0  0  0  0  0  0
  137.6761   79.6033  220.6339 H   0  0  0  0  0  0  0  0  0  0  0  0
  136.3271   80.9706  222.2351 H   0  0  0  0  0  0  0  0  0  0  0  0
  137.2776   80.5018  226.1219 H   0  0  0  0  0  0  0  0  0  0  0  0
  135.2818   84.1690  227.0388 H   0  0  0  0  0  0  0  0  0  0  0  0
  135.8167   84.9743  224.7423 H   0  0  0  0  0  0  0  0  0  0  0  0
  139.7854   81.2288  224.7584 H   0  0  0  0  0  0  0  0  0  0  0  0
  1  2  2  0
  2  3  1  0
  3  4  1  0
  4  5  1  0
  5  6  2  0
  6  7  1  0
  7  8  2  0
  8  9  1  0
  9 10  1  0
 10 11  2  0
 10 12  1  0
 12 13  1  0
 13 14  1  0
 14 15  1  0
 15 16  1  0
 16 17  1  0
  9 18  2  0
  4 19  2  0
 19 20  1  0
 20 21  2  0
 21 22  1  0
 22 23  2  0
 23 24  1  0
 24 25  2  0
 25 26  1  0
 26 27  1  0
 26 28  2  0
 28 29  1  0
 29 30  2  0
 23 31  1  0
 31 32  2  0
 32  2  1  0
 18  5  1  0
 32 20  1  0
 17 12  1  0
 30 24  1  0
  3 33  1  0
  3 34  1  0
  6 35  1  0
  7 36  1  0
  8 37  1  0
 13 38  1  0
 13 39  1  0
 14 40  1  0
 14 41  1  0
 16 42  1  0
 16 43  1  0
 17 44  1  0
 17 45  1  0
 18 46  1  0
 21 47  1  0
 22 48  1  0
 25 49  1  0
 28 50  1  0
 29 51  1  0
 31 52  1  0
M  END
>  <smiles>  (5) 
O=C1CC(c2cccc(C(=O)N3CCOCC3)c2)=Nc2ccc(-c3cc(Cl)ccn3)cc21

>  <score_type>  (5) 
oracle

>  <origin>  (5) 
autodockgpu

>  <m_score__min__energy>  (5) 
-8.6899999999999995

>  <m_primary>  (5) 
energy

>  <rmsd>  (5) 
8.914624657755837

>  <m_score__min__rmsd>  (5) 
8.914624657755837

>  <meeko>  (5) 
{"free_energy": -8.49, "intermolecular_energy": -9.39, "internal_energy": -1.01, "cluster_size": 41, "cluster_id": 1, "rank_in_cluster": 34}

>  <energy>  (5) 
-8.69

>  <cluster_rmsd>  (5) 
0.06

>  <cluster>  (5) 
1

$$$$

     RDKit          3D

 52 56  0  0  0  0  0  0  0  0999 V2000
  141.7300   81.5730  223.7730 O   0  0  0  0  0  0  0  0  0  0  0  0
  141.1390   80.6640  223.1620 C   0  0  0  0  0  0  0  0  0  0  0  0
  141.8980   79.8150  222.2130 C   0  0  0  0  0  0  0  0  0  0  0  0
  141.0230   78.7890  221.6110 C   0  0  0  0  0  0  0  0  0  0  0  0
  141.6260   77.8060  220.6940 C   0  0  0  0  0  0  0  0  0  0  0  0
  142.1610   78.2010  219.4980 C   0  0  0  0  0  0  0  0  0  0  0  0
  142.7030   77.3320  218.5820 C   0  0  0  0  0  0  0  0  0  0  0  0
  142.7060   75.9780  218.8960 C   0  0  0  0  0  0  0  0  0  0  0  0
  142.1640   75.5670  220.1130 C   0  0  0  0  0  0  0  0  0  0  0  0
  142.1520   74.1540  220.4110 C   0  0  0  0  0  0  0  0  0  0  0  0
  143.2830   73.5660  220.4850 O   0  0  0  0  0  0  0  0  0  0  0  0
  141.0150   73.3590  220.6310 N   0  0  0  0  0  0  0  0  0  0  0  0
  141.2090   71.9290  220.9410 C   0  0  0  0  0  0  0  0  0  0  0  0
  140.7020   71.7840  222.3630 C   0  0  0  0  0  0  0  0  0  0  0  0
  139.9960   72.8900  222.8160 O   0  0  0  0  0  0  0  0  0  0  0  0
  139.0600   73.3950  221.9480 C   0  0  0  0  0  0  0  0  0  0  0  0
  139.6420   73.7920  220.5900 C   0  0  0  0  0  0  0  0  0  0  0  0
  141.6250   76.4550  221.0190 C   0  0  0  0  0  0  0  0  0  0  0  0
  139.7700   78.6550  221.8590 N   0  0  0  0  0  0  0  0  0  0  0  0
  139.0440   79.4690  222.7560 C   0  0  0  0  0  0  0  0  0  0  0  0
  137.7110   79.2540  222.9730 C   0  0  0  0  0  0  0  0  0  0  0  0
  136.9730   80.0350  223.8610 C   0  0  0  0  0  0  0  0  0  0  0  0
  137.6330   81.0310  224.5150 C   0  0  0  0  0  0  0  0  0  0  0  0
  136.9300   81.8590  225.4660 C   0  0  0  0  0  0  0  0  0  0  0  0
  136.5670   81.4520  226.7250 C   0  0  0  0  0  0  0  0  0  0  0  0
  135.9040   82.2860  227.6270 C   0  0  0  0  0  0  0  0  0  0  0  0
  135.4770   81.6750  229.2260 Cl  0  0  0  0  0  0  0  0  0  0  0  0
  135.6110   83.5520  227.2280 C   0  0  0  0  0  0  0  0  0  0  0  0
  135.9780   83.9740  225.9500 C   0  0  0  0  0  0  0  0  0  0  0  0
  136.6180   83.1440  225.1060 N   0  0  0  0  0  0  0  0  0  0  0  0
  138.9870   81.2470  224.2920 C   0  0  0  0  0  0  0  0  0  0  0  0
  139.7250   80.4760  223.4120 C   0  0  0  0  0  0  0  0  0  0  0  0
  142.3128   80.4484  221.4150 H   0  0  0  0  0  0  0  0  0  0  0  0
  142.7071   79.3103  222.7613 H   0  0  0  0  0  0  0  0  0  0  0  0
  142.1569   79.2741  219.2564 H   0  0  0  0  0  0  0  0  0  0  0  0
  143.1207   77.6958  217.6317 H   0  0  0  0  0  0  0  0  0  0  0  0
  143.1291   75.2427  218.1957 H   0  0  0  0  0  0  0  0  0  0  0  0
  140.6268   71.2983  220.2531 H   0  0  0  0  0  0  0  0  0  0  0  0
  142.2572   71.6132  220.8333 H   0  0  0  0  0  0  0  0  0  0  0  0
  140.0404   70.9063  222.4087 H   0  0  0  0  0  0  0  0  0  0  0  0
  141.5843   71.6765  223.0110 H   0  0  0  0  0  0  0  0  0  0  0  0
  138.2865   72.6299  221.7856 H   0  0  0  0  0  0  0  0  0  0  0  0
  138.6521   74.3082  222.4058 H   0  0  0  0  0  0  0  0  0  0  0  0
  139.1017   73.2873  219.7755 H   0  0  0  0  0  0  0  0  0  0  0  0
  139.5553   74.8726  220.4037 H   0  0  0  0  0  0  0  0  0  0  0  0
  141.2055   76.1038  221.9733 H   0  0  0  0  0  0  0  0  0  0  0  0
  137.2063   78.4408  222.4309 H   0  0  0  0  0  0  0  0  0  0  0  0
  135.9007   79.8542  224.0269 H   0  0  0  0  0  0  0  0  0  0  0  0
  136.8086   80.4252  227.0368 H   0  0  0  0  0  0  0  0  0  0  0  0
  135.0877   84.2395  227.9087 H   0  0  0  0  0  0  0  0  0  0  0  0
  135.7411   84.9988  225.6279 H   0  0  0  0  0  0  0  0  0  0  0  0
  139.4905   82.0605  224.8348 H   0  0  0  0  0  0  0  0  0  0  0  0
  1  2  2  0
  2  3  1  0
  3  4  1  0
  4  5  1  0
  5  6  2  0
  6  7  1  0
  7  8  2  0
  8  9  1  0
  9 10  1  0
 10 11  2  0
 10 12  1  0
 12 13  1  0
 13 14  1  0
 14 15  1  0
 15 16  1  0
 16 17  1  0
  9 18  2  0
  4 19  2  0
 19 20  1  0
 20 21  2  0
 21 22  1  0
 22 23  2  0
 23 24  1  0
 24 25  2  0
 25 26  1  0
 26 27  1  0
 26 28  2  0
 28 29  1  0
 29 30  2  0
 23 31  1  0
 31 32  2  0
 32  2  1  0
 18  5  1  0
 32 20  1  0
 17 12  1  0
 30 24  1  0
  3 33  1  0
  3 34  1  0
  6 35  1  0
  7 36  1  0
  8 37  1  0
 13 38  1  0
 13 39  1  0
 14 40  1  0
 14 41  1  0
 16 42  1  0
 16 43  1  0
 17 44  1  0
 17 45  1  0
 18 46  1  0
 21 47  1  0
 22 48  1  0
 25 49  1  0
 28 50  1  0
 29 51  1  0
 31 52  1  0
M  END
>  <smiles>  (6) 
O=C1CC(c2cccc(C(=O)N3CCOCC3)c2)=Nc2ccc(-c3cc(Cl)ccn3)cc21

>  <score_type>  (6) 
oracle

>  <origin>  (6) 
autodockgpu

>  <m_score__min__energy>  (6) 
-8.6899999999999995

>  <m_primary>  (6) 
energy

>  <rmsd>  (6) 
8.745882874334217

>  <m_score__min__rmsd>  (6) 
8.745882874334217

>  <meeko>  (6) 
{"free_energy": -8.12, "intermolecular_energy": -9.02, "internal_energy": -1.04, "cluster_size": 41, "cluster_id": 1, "rank_in_cluster": 40}

>  <energy>  (6) 
-8.69

>  <cluster_rmsd>  (6) 
0.04

>  <cluster>  (6) 
1

$$$$

     RDKit          3D

 52 56  0  0  0  0  0  0  0  0999 V2000
  142.2330   80.6440  224.0800 O   0  0  0  0  0  0  0  0  0  0  0  0
  141.6140   80.0190  223.2000 C   0  0  0  0  0  0  0  0  0  0  0  0
  142.3740   79.2440  222.1900 C   0  0  0  0  0  0  0  0  0  0  0  0
  141.4590   78.5640  221.2530 C   0  0  0  0  0  0  0  0  0  0  0  0
  142.0380   77.6860  220.2210 C   0  0  0  0  0  0  0  0  0  0  0  0
  142.3840   78.1830  218.9940 C   0  0  0  0  0  0  0  0  0  0  0  0
  142.8940   77.4140  217.9770 C   0  0  0  0  0  0  0  0  0  0  0  0
  143.0660   76.0560  218.2150 C   0  0  0  0  0  0  0  0  0  0  0  0
  142.7180   75.5410  219.4630 C   0  0  0  0  0  0  0  0  0  0  0  0
  142.8800   74.1220  219.6850 C   0  0  0  0  0  0  0  0  0  0  0  0
  141.9300   73.3630  219.2950 O   0  0  0  0  0  0  0  0  0  0  0  0
  143.9810   73.4930  220.2870 N   0  0  0  0  0  0  0  0  0  0  0  0
  143.9690   72.0230  220.4080 C   0  0  0  0  0  0  0  0  0  0  0  0
  145.1070   71.5650  219.5160 C   0  0  0  0  0  0  0  0  0  0  0  0
  145.9400   72.5970  219.1060 O   0  0  0  0  0  0  0  0  0  0  0  0
  146.3310   73.4720  220.0890 C   0  0  0  0  0  0  0  0  0  0  0  0
  145.1590   74.1370  220.8110 C   0  0  0  0  0  0  0  0  0  0  0  0
  142.2080   76.3300  220.4710 C   0  0  0  0  0  0  0  0  0  0  0  0
  140.1760   78.6400  221.2920 N   0  0  0  0  0  0  0  0  0  0  0  0
  139.4520   79.3840  222.2490 C   0  0  0  0  0  0  0  0  0  0  0  0
  138.0850   79.4050  222.2280 C   0  0  0  0  0  0  0  0  0  0  0  0
  137.3450   80.1220  223.1670 C   0  0  0  0  0  0  0  0  0  0  0  0
  138.0370   80.8090  224.1180 C   0  0  0  0  0  0  0  0  0  0  0  0
  137.3270   81.5510  225.1330 C   0  0  0  0  0  0  0  0  0  0  0  0
  136.9310   82.8570  224.9990 C   0  0  0  0  0  0  0  0  0  0  0  0
  136.2290   83.5400  225.9940 C   0  0  0  0  0  0  0  0  0  0  0  0
  135.7610   85.2210  225.7320 Cl  0  0  0  0  0  0  0  0  0  0  0  0
  135.9350   82.8710  227.1390 C   0  0  0  0  0  0  0  0  0  0  0  0
  136.3330   81.5410  227.2820 C   0  0  0  0  0  0  0  0  0  0  0  0
  137.0070   80.9130  226.3020 N   0  0  0  0  0  0  0  0  0  0  0  0
  139.4260   80.7860  224.1350 C   0  0  0  0  0  0  0  0  0  0  0  0
  140.1660   80.0760  223.2070 C   0  0  0  0  0  0  0  0  0  0  0  0
  143.0249   79.9280  221.6257 H   0  0  0  0  0  0  0  0  0  0  0  0
  142.9757   78.4835  222.7092 H   0  0  0  0  0  0  0  0  0  0  0  0
  142.2459   79.2590  218.8120 H   0  0  0  0  0  0  0  0  0  0  0  0
  143.1576   77.8585  217.0060 H   0  0  0  0  0  0  0  0  0  0  0  0
  143.4701   75.3980  217.4316 H   0  0  0  0  0  0  0  0  0  0  0  0
  144.1427   71.7162  221.4500 H   0  0  0  0  0  0  0  0  0  0  0  0
  143.0032   71.5849  220.1160 H   0  0  0  0  0  0  0  0  0  0  0  0
  145.7098   70.8306  220.0703 H   0  0  0  0  0  0  0  0  0  0  0  0
  144.6547   71.1354  218.6100 H   0  0  0  0  0  0  0  0  0  0  0  0
  146.9288   72.9202  220.8294 H   0  0  0  0  0  0  0  0  0  0  0  0
  146.9079   74.2716  219.6014 H   0  0  0  0  0  0  0  0  0  0  0  0
  145.2347   73.9791  221.8970 H   0  0  0  0  0  0  0  0  0  0  0  0
  145.1398   75.2250  220.6504 H   0  0  0  0  0  0  0  0  0  0  0  0
  141.9426   75.8979  221.4472 H   0  0  0  0  0  0  0  0  0  0  0  0
  137.5539   78.8399  221.4478 H   0  0  0  0  0  0  0  0  0  0  0  0
  136.2454   80.1325  223.1409 H   0  0  0  0  0  0  0  0  0  0  0  0
  137.1768   83.3891  224.0681 H   0  0  0  0  0  0  0  0  0  0  0  0
  135.3865   83.3745  227.9487 H   0  0  0  0  0  0  0  0  0  0  0  0
  136.0923   80.9991  228.2085 H   0  0  0  0  0  0  0  0  0  0  0  0
  139.9562   81.3528  224.9145 H   0  0  0  0  0  0  0  0  0  0  0  0
  1  2  2  0
  2  3  1  0
  3  4  1  0
  4  5  1  0
  5  6  2  0
  6  7  1  0
  7  8  2  0
  8  9  1  0
  9 10  1  0
 10 11  2  0
 10 12  1  0
 12 13  1  0
 13 14  1  0
 14 15  1  0
 15 16  1  0
 16 17  1  0
  9 18  2  0
  4 19  2  0
 19 20  1  0
 20 21  2  0
 21 22  1  0
 22 23  2  0
 23 24  1  0
 24 25  2  0
 25 26  1  0
 26 27  1  0
 26 28  2  0
 28 29  1  0
 29 30  2  0
 23 31  1  0
 31 32  2  0
 32  2  1  0
 18  5  1  0
 32 20  1  0
 17 12  1  0
 30 24  1  0
  3 33  1  0
  3 34  1  0
  6 35  1  0
  7 36  1  0
  8 37  1  0
 13 38  1  0
 13 39  1  0
 14 40  1  0
 14 41  1  0
 16 42  1  0
 16 43  1  0
 17 44  1  0
 17 45  1  0
 18 46  1  0
 21 47  1  0
 22 48  1  0
 25 49  1  0
 28 50  1  0
 29 51  1  0
 31 52  1  0
M  END
>  <smiles>  (7) 
O=C1CC(c2cccc(C(=O)N3CCOCC3)c2)=Nc2ccc(-c3cc(Cl)ccn3)cc21

>  <score_type>  (7) 
oracle

>  <origin>  (7) 
autodockgpu

>  <m_score__min__energy>  (7) 
-8.6899999999999995

>  <m_primary>  (7) 
energy

>  <rmsd>  (7) 
8.927987559200776

>  <m_score__min__rmsd>  (7) 
8.927987559200776

>  <meeko>  (7) 
{"free_energy": -8.62, "intermolecular_energy": -9.51, "internal_energy": -1.0, "cluster_size": 41, "cluster_id": 1, "rank_in_cluster": 30}

>  <energy>  (7) 
-8.69

>  <cluster_rmsd>  (7) 
0.04

>  <cluster>  (7) 
1

$$$$

     RDKit          3D

 52 56  0  0  0  0  0  0  0  0999 V2000
  143.0180   74.2840  220.5350 O   0  0  0  0  0  0  0  0  0  0  0  0
  141.9030   73.9910  221.0010 C   0  0  0  0  0  0  0  0  0  0  0  0
  141.4990   72.5670  221.0760 C   0  0  0  0  0  0  0  0  0  0  0  0
  140.1560   72.4320  221.6740 C   0  0  0  0  0  0  0  0  0  0  0  0
  139.6200   71.0770  221.8940 C   0  0  0  0  0  0  0  0  0  0  0  0
  138.9520   70.4190  220.8980 C   0  0  0  0  0  0  0  0  0  0  0  0
  138.3960   69.1720  221.0490 C   0  0  0  0  0  0  0  0  0  0  0  0
  138.5250   68.5500  222.2850 C   0  0  0  0  0  0  0  0  0  0  0  0
  139.2060   69.2120  223.3050 C   0  0  0  0  0  0  0  0  0  0  0  0
  139.3070   68.5620  224.5910 C   0  0  0  0  0  0  0  0  0  0  0  0
  139.2230   67.2880  224.6060 O   0  0  0  0  0  0  0  0  0  0  0  0
  139.4920   69.1940  225.8320 N   0  0  0  0  0  0  0  0  0  0  0  0
  139.5890   68.3520  227.0400 C   0  0  0  0  0  0  0  0  0  0  0  0
  141.0090   68.5660  227.5300 C   0  0  0  0  0  0  0  0  0  0  0  0
  141.6560   69.6270  226.9110 O   0  0  0  0  0  0  0  0  0  0  0  0
  140.9300   70.7880  226.8080 C   0  0  0  0  0  0  0  0  0  0  0  0
  139.6040   70.6110  226.0670 C   0  0  0  0  0  0  0  0  0  0  0  0
  139.7560   70.4640  223.1340 C   0  0  0  0  0  0  0  0  0  0  0  0
  139.4240   73.4130  222.0650 N   0  0  0  0  0  0  0  0  0  0  0  0
  139.8040   74.7700  221.9870 C   0  0  0  0  0  0  0  0  0  0  0  0
  138.9690   75.7570  222.4350 C   0  0  0  0  0  0  0  0  0  0  0  0
  139.3240   77.1040  222.3790 C   0  0  0  0  0  0  0  0  0  0  0  0
  140.5440   77.4090  221.8580 C   0  0  0  0  0  0  0  0  0  0  0  0
  140.9800   78.7840  221.7960 C   0  0  0  0  0  0  0  0  0  0  0  0
  141.4750   79.4870  222.8650 C   0  0  0  0  0  0  0  0  0  0  0  0
  141.9050   80.8110  222.7650 C   0  0  0  0  0  0  0  0  0  0  0  0
  142.5280   81.6350  224.1950 Cl  0  0  0  0  0  0  0  0  0  0  0  0
  141.8230   81.4180  221.5520 C   0  0  0  0  0  0  0  0  0  0  0  0
  141.3220   80.7090  220.4590 C   0  0  0  0  0  0  0  0  0  0  0  0
  140.9170   79.4330  220.5900 N   0  0  0  0  0  0  0  0  0  0  0  0
  141.3890   76.4050  221.4030 C   0  0  0  0  0  0  0  0  0  0  0  0
  141.0440   75.0660  221.4550 C   0  0  0  0  0  0  0  0  0  0  0  0
  141.4860   72.1423  220.0614 H   0  0  0  0  0  0  0  0  0  0  0  0
  142.2211   72.0293  221.7080 H   0  0  0  0  0  0  0  0  0  0  0  0
  138.8546   70.9162  219.9216 H   0  0  0  0  0  0  0  0  0  0  0  0
  137.8661   68.6819  220.2189 H   0  0  0  0  0  0  0  0  0  0  0  0
  138.0965   67.5513  222.4556 H   0  0  0  0  0  0  0  0  0  0  0  0
  138.8615   68.6742  227.7995 H   0  0  0  0  0  0  0  0  0  0  0  0
  139.3691   67.2939  226.8348 H   0  0  0  0  0  0  0  0  0  0  0  0
  140.9779   68.7611  228.6121 H   0  0  0  0  0  0  0  0  0  0  0  0
  141.5756   67.6554  227.2855 H   0  0  0  0  0  0  0  0  0  0  0  0
  140.7163   71.1568  227.8221 H   0  0  0  0  0  0  0  0  0  0  0  0
  141.5350   71.4989  226.2261 H   0  0  0  0  0  0  0  0  0  0  0  0
  138.7661   70.9676  226.6841 H   0  0  0  0  0  0  0  0  0  0  0  0
  139.5747   71.1878  225.1308 H   0  0  0  0  0  0  0  0  0  0  0  0
  140.2881   70.9645  223.9564 H   0  0  0  0  0  0  0  0  0  0  0  0
  137.9893   75.4797  222.8514 H   0  0  0  0  0  0  0  0  0  0  0  0
  138.6448   77.8896  222.7416 H   0  0  0  0  0  0  0  0  0  0  0  0
  141.5356   78.9859  223.8424 H   0  0  0  0  0  0  0  0  0  0  0  0
  142.1494   82.4616  221.4322 H   0  0  0  0  0  0  0  0  0  0  0  0
  141.2575   81.2005  219.4770 H   0  0  0  0  0  0  0  0  0  0  0  0
  142.3679   76.6844  220.9862 H   0  0  0  0  0  0  0  0  0  0  0  0
  1  2  2  0
  2  3  1  0
  3  4  1  0
  4  5  1  0
  5  6  2  0
  6  7  1  0
  7  8  2  0
  8  9  1  0
  9 10  1  0
 10 11  2  0
 10 12  1  0
 12 13  1  0
 13 14  1  0
 14 15  1  0
 15 16  1  0
 16 17  1  0
  9 18  2  0
  4 19  2  0
 19 20  1  0
 20 21  2  0
 21 22  1  0
 22 23  2  0
 23 24  1  0
 24 25  2  0
 25 26  1  0
 26 27  1  0
 26 28  2  0
 28 29  1  0
 29 30  2  0
 23 31  1  0
 31 32  2  0
 32  2  1  0
 18  5  1  0
 32 20  1  0
 17 12  1  0
 30 24  1  0
  3 33  1  0
  3 34  1  0
  6 35  1  0
  7 36  1  0
  8 37  1  0
 13 38  1  0
 13 39  1  0
 14 40  1  0
 14 41  1  0
 16 42  1  0
 16 43  1  0
 17 44  1  0
 17 45  1  0
 18 46  1  0
 21 47  1  0
 22 48  1  0
 25 49  1  0
 28 50  1  0
 29 51  1  0
 31 52  1  0
M  END
>  <smiles>  (8) 
O=C1CC(c2cccc(C(=O)N3CCOCC3)c2)=Nc2ccc(-c3cc(Cl)ccn3)cc21

>  <score_type>  (8) 
oracle

>  <origin>  (8) 
autodockgpu

>  <m_score__min__energy>  (8) 
-8.6899999999999995

>  <m_primary>  (8) 
energy

>  <rmsd>  (8) 
6.685034983060618

>  <m_score__min__rmsd>  (8) 
6.685034983060618

>  <meeko>  (8) 
{"free_energy": -8.69, "intermolecular_energy": -9.58, "internal_energy": -0.87, "cluster_size": 9, "cluster_id": 2, "rank_in_cluster": 1}

>  <energy>  (8) 
-8.69

>  <cluster_rmsd>  (8) 
0.03

>  <cluster>  (8) 
1

$$$$

     RDKit          3D

 52 56  0  0  0  0  0  0  0  0999 V2000
  141.9340   80.5020  224.1660 O   0  0  0  0  0  0  0  0  0  0  0  0
  141.3580   79.8630  223.2680 C   0  0  0  0  0  0  0  0  0  0  0  0
  142.1670   79.1490  222.2510 C   0  0  0  0  0  0  0  0  0  0  0  0
  141.2980   78.4410  221.2910 C   0  0  0  0  0  0  0  0  0  0  0  0
  141.9340   77.6150  220.2490 C   0  0  0  0  0  0  0  0  0  0  0  0
  142.3180   78.1670  219.0580 C   0  0  0  0  0  0  0  0  0  0  0  0
  142.8810   77.4480  218.0310 C   0  0  0  0  0  0  0  0  0  0  0  0
  143.0680   76.0840  218.2220 C   0  0  0  0  0  0  0  0  0  0  0  0
  142.6800   75.5140  219.4340 C   0  0  0  0  0  0  0  0  0  0  0  0
  142.8580   74.0900  219.6050 C   0  0  0  0  0  0  0  0  0  0  0  0
  141.9420   73.3310  219.1400 O   0  0  0  0  0  0  0  0  0  0  0  0
  143.9420   73.4550  220.2320 N   0  0  0  0  0  0  0  0  0  0  0  0
  143.9520   71.9810  220.2930 C   0  0  0  0  0  0  0  0  0  0  0  0
  145.1380   71.5800  219.4380 C   0  0  0  0  0  0  0  0  0  0  0  0
  145.9700   72.6410  219.1100 O   0  0  0  0  0  0  0  0  0  0  0  0
  146.2980   73.4820  220.1450 C   0  0  0  0  0  0  0  0  0  0  0  0
  145.0810   74.0970  220.8380 C   0  0  0  0  0  0  0  0  0  0  0  0
  142.1170   76.2530  220.4510 C   0  0  0  0  0  0  0  0  0  0  0  0
  140.0130   78.4490  221.3170 N   0  0  0  0  0  0  0  0  0  0  0  0
  139.2420   79.1350  222.2800 C   0  0  0  0  0  0  0  0  0  0  0  0
  137.8750   79.0860  222.2450 C   0  0  0  0  0  0  0  0  0  0  0  0
  137.0890   79.7450  223.1890 C   0  0  0  0  0  0  0  0  0  0  0  0
  137.7350   80.4470  224.1600 C   0  0  0  0  0  0  0  0  0  0  0  0
  136.9770   81.1310  225.1810 C   0  0  0  0  0  0  0  0  0  0  0  0
  135.6570   80.8840  225.4600 C   0  0  0  0  0  0  0  0  0  0  0  0
  134.9590   81.5510  226.4680 C   0  0  0  0  0  0  0  0  0  0  0  0
  133.2620   81.1660  226.7540 Cl  0  0  0  0  0  0  0  0  0  0  0  0
  135.6280   82.4840  227.1960 C   0  0  0  0  0  0  0  0  0  0  0  0
  136.9710   82.7400  226.9190 C   0  0  0  0  0  0  0  0  0  0  0  0
  137.6140   82.0780  225.9410 N   0  0  0  0  0  0  0  0  0  0  0  0
  139.1230   80.4960  224.1920 C   0  0  0  0  0  0  0  0  0  0  0  0
  139.9090   79.8440  223.2590 C   0  0  0  0  0  0  0  0  0  0  0  0
  142.7866   79.8772  221.7071 H   0  0  0  0  0  0  0  0  0  0  0  0
  142.8025   78.4105  222.7617 H   0  0  0  0  0  0  0  0  0  0  0  0
  142.1677   79.2471  218.9141 H   0  0  0  0  0  0  0  0  0  0  0  0
  143.1738   77.9356  217.0895 H   0  0  0  0  0  0  0  0  0  0  0  0
  143.5146   75.4645  217.4303 H   0  0  0  0  0  0  0  0  0  0  0  0
  144.0831   71.6345  221.3287 H   0  0  0  0  0  0  0  0  0  0  0  0
  143.0092   71.5388  219.9387 H   0  0  0  0  0  0  0  0  0  0  0  0
  145.7278   70.8332  219.9897 H   0  0  0  0  0  0  0  0  0  0  0  0
  144.7359   71.1817  218.4948 H   0  0  0  0  0  0  0  0  0  0  0  0
  146.8715   72.9108  220.8898 H   0  0  0  0  0  0  0  0  0  0  0  0
  146.8810   74.3109  219.7172 H   0  0  0  0  0  0  0  0  0  0  0  0
  145.1087   73.8951  221.9190 H   0  0  0  0  0  0  0  0  0  0  0  0
  145.0487   75.1904  220.7223 H   0  0  0  0  0  0  0  0  0  0  0  0
  141.8204   75.7774  221.3975 H   0  0  0  0  0  0  0  0  0  0  0  0
  137.3818   78.5096  221.4485 H   0  0  0  0  0  0  0  0  0  0  0  0
  135.9906   79.6996  223.1508 H   0  0  0  0  0  0  0  0  0  0  0  0
  135.1256   80.1277  224.8637 H   0  0  0  0  0  0  0  0  0  0  0  0
  135.1137   83.0335  227.9982 H   0  0  0  0  0  0  0  0  0  0  0  0
  137.5119   83.4944  227.5092 H   0  0  0  0  0  0  0  0  0  0  0  0
  139.6148   81.0742  224.9881 H   0  0  0  0  0  0  0  0  0  0  0  0
  1  2  2  0
  2  3  1  0
  3  4  1  0
  4  5  1  0
  5  6  2  0
  6  7  1  0
  7  8  2  0
  8  9  1  0
  9 10  1  0
 10 11  2  0
 10 12  1  0
 12 13  1  0
 13 14  1  0
 14 15  1  0
 15 16  1  0
 16 17  1  0
  9 18  2  0
  4 19  2  0
 19 20  1  0
 20 21  2  0
 21 22  1  0
 22 23  2  0
 23 24  1  0
 24 25  2  0
 25 26  1  0
 26 27  1  0
 26 28  2  0
 28 29  1  0
 29 30  2  0
 23 31  1  0
 31 32  2  0
 32  2  1  0
 18  5  1  0
 32 20  1  0
 17 12  1  0
 30 24  1  0
  3 33  1  0
  3 34  1  0
  6 35  1  0
  7 36  1  0
  8 37  1  0
 13 38  1  0
 13 39  1  0
 14 40  1  0
 14 41  1  0
 16 42  1  0
 16 43  1  0
 17 44  1  0
 17 45  1  0
 18 46  1  0
 21 47  1  0
 22 48  1  0
 25 49  1  0
 28 50  1  0
 29 51  1  0
 31 52  1  0
M  END
>  <smiles>  (9) 
O=C1CC(c2cccc(C(=O)N3CCOCC3)c2)=Nc2ccc(-c3cc(Cl)ccn3)cc21

>  <score_type>  (9) 
oracle

>  <origin>  (9) 
autodockgpu

>  <m_score__min__energy>  (9) 
-8.6899999999999995

>  <m_primary>  (9) 
energy

>  <rmsd>  (9) 
8.80817862087264

>  <m_score__min__rmsd>  (9) 
8.80817862087264

>  <meeko>  (9) 
{"free_energy": -8.65, "intermolecular_energy": -9.55, "internal_energy": -1.0, "cluster_size": 41, "cluster_id": 1, "rank_in_cluster": 21}

>  <energy>  (9) 
-8.69

>  <cluster_rmsd>  (9) 
0.05

>  <cluster>  (9) 
1

$$$$

     RDKit          3D

 52 56  0  0  0  0  0  0  0  0999 V2000
  141.9550   80.9080  223.8420 O   0  0  0  0  0  0  0  0  0  0  0  0
  141.3880   80.1290  223.0540 C   0  0  0  0  0  0  0  0  0  0  0  0
  142.1940   79.4040  222.0440 C   0  0  0  0  0  0  0  0  0  0  0  0
  141.3400   78.5200  221.2260 C   0  0  0  0  0  0  0  0  0  0  0  0
  141.9840   77.6640  220.2140 C   0  0  0  0  0  0  0  0  0  0  0  0
  142.3910   78.1840  219.0150 C   0  0  0  0  0  0  0  0  0  0  0  0
  142.9630   77.4350  218.0150 C   0  0  0  0  0  0  0  0  0  0  0  0
  143.1360   76.0750  218.2430 C   0  0  0  0  0  0  0  0  0  0  0  0
  142.7270   75.5380  219.4620 C   0  0  0  0  0  0  0  0  0  0  0  0
  142.8900   74.1180  219.6700 C   0  0  0  0  0  0  0  0  0  0  0  0
  141.9480   73.3590  219.2640 O   0  0  0  0  0  0  0  0  0  0  0  0
  143.9880   73.4860  220.2770 N   0  0  0  0  0  0  0  0  0  0  0  0
  143.9800   72.0140  220.3830 C   0  0  0  0  0  0  0  0  0  0  0  0
  145.1280   71.5690  219.4970 C   0  0  0  0  0  0  0  0  0  0  0  0
  145.9610   72.6080  219.1060 O   0  0  0  0  0  0  0  0  0  0  0  0
  146.3400   73.4740  220.1010 C   0  0  0  0  0  0  0  0  0  0  0  0
  145.1590   74.1290  220.8190 C   0  0  0  0  0  0  0  0  0  0  0  0
  142.1540   76.3060  220.4520 C   0  0  0  0  0  0  0  0  0  0  0  0
  140.0670   78.4020  221.3560 N   0  0  0  0  0  0  0  0  0  0  0  0
  139.2970   79.0980  222.3130 C   0  0  0  0  0  0  0  0  0  0  0  0
  137.9460   78.9080  222.3950 C   0  0  0  0  0  0  0  0  0  0  0  0
  137.1630   79.5740  223.3370 C   0  0  0  0  0  0  0  0  0  0  0  0
  137.7970   80.4300  224.1850 C   0  0  0  0  0  0  0  0  0  0  0  0
  137.0460   81.1310  225.1990 C   0  0  0  0  0  0  0  0  0  0  0  0
  135.7270   80.8900  225.4880 C   0  0  0  0  0  0  0  0  0  0  0  0
  135.0350   81.5740  226.4890 C   0  0  0  0  0  0  0  0  0  0  0  0
  133.3380   81.1960  226.7900 Cl  0  0  0  0  0  0  0  0  0  0  0  0
  135.7090   82.5180  227.1980 C   0  0  0  0  0  0  0  0  0  0  0  0
  137.0510   82.7680  226.9110 C   0  0  0  0  0  0  0  0  0  0  0  0
  137.6880   82.0890  225.9400 N   0  0  0  0  0  0  0  0  0  0  0  0
  139.1700   80.6210  224.0980 C   0  0  0  0  0  0  0  0  0  0  0  0
  139.9530   79.9630  223.1660 C   0  0  0  0  0  0  0  0  0  0  0  0
  142.6904   80.1338  221.3875 H   0  0  0  0  0  0  0  0  0  0  0  0
  142.9407   78.7876  222.5660 H   0  0  0  0  0  0  0  0  0  0  0  0
  142.2525   79.2615  218.8424 H   0  0  0  0  0  0  0  0  0  0  0  0
  143.2735   77.8963  217.0659 H   0  0  0  0  0  0  0  0  0  0  0  0
  143.5887   75.4326  217.4733 H   0  0  0  0  0  0  0  0  0  0  0  0
  144.1451   71.6972  221.4234 H   0  0  0  0  0  0  0  0  0  0  0  0
  143.0185   71.5755  220.0775 H   0  0  0  0  0  0  0  0  0  0  0  0
  145.7280   70.8308  220.0493 H   0  0  0  0  0  0  0  0  0  0  0  0
  144.6859   71.1473  218.5823 H   0  0  0  0  0  0  0  0  0  0  0  0
  146.9324   72.9165  220.8414 H   0  0  0  0  0  0  0  0  0  0  0  0
  146.9190   74.2800  219.6266 H   0  0  0  0  0  0  0  0  0  0  0  0
  145.2249   73.9607  221.9040 H   0  0  0  0  0  0  0  0  0  0  0  0
  145.1380   75.2186  220.6694 H   0  0  0  0  0  0  0  0  0  0  0  0
  141.8396   75.8559  221.4052 H   0  0  0  0  0  0  0  0  0  0  0  0
  137.4621   78.2089  221.6971 H   0  0  0  0  0  0  0  0  0  0  0  0
  136.0761   79.4142  223.3929 H   0  0  0  0  0  0  0  0  0  0  0  0
  135.1917   80.1252  224.9062 H   0  0  0  0  0  0  0  0  0  0  0  0
  135.1991   83.0814  227.9933 H   0  0  0  0  0  0  0  0  0  0  0  0
  137.5958   83.5308  227.4865 H   0  0  0  0  0  0  0  0  0  0  0  0
  139.6527   81.3211  224.7957 H   0  0  0  0  0  0  0  0  0  0  0  0
  1  2  2  0
  2  3  1  0
  3  4  1  0
  4  5  1  0
  5  6  2  0
  6  7  1  0
  7  8  2  0
  8  9  1  0
  9 10  1  0
 10 11  2  0
 10 12  1  0
 12 13  1  0
 13 14  1  0
 14 15  1  0
 15 16  1  0
 16 17  1  0
  9 18  2  0
  4 19  2  0
 19 20  1  0
 20 21  2  0
 21 22  1  0
 22 23  2  0
 23 24  1  0
 24 25  2  0
 25 26  1  0
 26 27  1  0
 26 28  2  0
 28 29  1  0
 29 30  2  0
 23 31  1  0
 31 32  2  0
 32  2  1  0
 18  5  1  0
 32 20  1  0
 17 12  1  0
 30 24  1  0
  3 33  1  0
  3 34  1  0
  6 35  1  0
  7 36  1  0
  8 37  1  0
 13 38  1  0
 13 39  1  0
 14 40  1  0
 14 41  1  0
 16 42  1  0
 16 43  1  0
 17 44  1  0
 17 45  1  0
 18 46  1  0
 21 47  1  0
 22 48  1  0
 25 49  1  0
 28 50  1  0
 29 51  1  0
 31 52  1  0
M  END
>  <smiles>  (10) 
O=C1CC(c2cccc(C(=O)N3CCOCC3)c2)=Nc2ccc(-c3cc(Cl)ccn3)cc21

>  <score_type>  (10) 
oracle

>  <origin>  (10) 
autodockgpu

>  <m_score__min__energy>  (10) 
-8.6899999999999995

>  <m_primary>  (10) 
energy

>  <rmsd>  (10) 
8.929962020997202

>  <m_score__min__rmsd>  (10) 
8.929962020997202

>  <meeko>  (10) 
{"free_energy": -8.69, "intermolecular_energy": -9.58, "internal_energy": -1.0, "cluster_size": 41, "cluster_id": 1, "rank_in_cluster": 8}

>  <energy>  (10) 
-8.69

>  <cluster_rmsd>  (10) 
0.03

>  <cluster>  (10) 
1

$$$$

     RDKit          3D

 52 56  0  0  0  0  0  0  0  0999 V2000
  143.0190   74.8250  220.3160 O   0  0  0  0  0  0  0  0  0  0  0  0
  141.9560   74.4900  220.8690 C   0  0  0  0  0  0  0  0  0  0  0  0
  141.5830   73.0560  220.9150 C   0  0  0  0  0  0  0  0  0  0  0  0
  140.3040   72.8690  221.6280 C   0  0  0  0  0  0  0  0  0  0  0  0
  139.8110   71.4960  221.8340 C   0  0  0  0  0  0  0  0  0  0  0  0
  139.2710   70.7840  220.7990 C   0  0  0  0  0  0  0  0  0  0  0  0
  138.7600   69.5160  220.9310 C   0  0  0  0  0  0  0  0  0  0  0  0
  138.7990   68.9300  222.1910 C   0  0  0  0  0  0  0  0  0  0  0  0
  139.3490   69.6470  223.2510 C   0  0  0  0  0  0  0  0  0  0  0  0
  139.3580   69.0330  224.5590 C   0  0  0  0  0  0  0  0  0  0  0  0
  139.1010   67.7830  224.6140 O   0  0  0  0  0  0  0  0  0  0  0  0
  139.6230   69.6750  225.7790 N   0  0  0  0  0  0  0  0  0  0  0  0
  139.6010   68.8680  227.0150 C   0  0  0  0  0  0  0  0  0  0  0  0
  141.0360   68.9040  227.5080 C   0  0  0  0  0  0  0  0  0  0  0  0
  141.8220   69.8460  226.8600 O   0  0  0  0  0  0  0  0  0  0  0  0
  141.2610   71.0900  226.7130 C   0  0  0  0  0  0  0  0  0  0  0  0
  139.9260   71.0710  225.9690 C   0  0  0  0  0  0  0  0  0  0  0  0
  139.8570   70.9190  223.0980 C   0  0  0  0  0  0  0  0  0  0  0  0
  139.5960   73.8180  222.1290 N   0  0  0  0  0  0  0  0  0  0  0  0
  139.9470   75.1840  222.0790 C   0  0  0  0  0  0  0  0  0  0  0  0
  139.1430   76.1340  222.6470 C   0  0  0  0  0  0  0  0  0  0  0  0
  139.4700   77.4890  222.6210 C   0  0  0  0  0  0  0  0  0  0  0  0
  140.6320   77.8400  222.0040 C   0  0  0  0  0  0  0  0  0  0  0  0
  141.0390   79.2250  221.9640 C   0  0  0  0  0  0  0  0  0  0  0  0
  141.0550   79.9930  220.8280 C   0  0  0  0  0  0  0  0  0  0  0  0
  141.4360   81.3360  220.8280 C   0  0  0  0  0  0  0  0  0  0  0  0
  141.4250   82.2450  219.3170 Cl  0  0  0  0  0  0  0  0  0  0  0  0
  141.8080   81.8920  222.0120 C   0  0  0  0  0  0  0  0  0  0  0  0
  141.7930   81.1170  223.1720 C   0  0  0  0  0  0  0  0  0  0  0  0
  141.4180   79.8260  223.1360 N   0  0  0  0  0  0  0  0  0  0  0  0
  141.4460   76.8730  221.4260 C   0  0  0  0  0  0  0  0  0  0  0  0
  141.1270   75.5270  221.4490 C   0  0  0  0  0  0  0  0  0  0  0  0
  141.4817   72.6767  219.8874 H   0  0  0  0  0  0  0  0  0  0  0  0
  142.3692   72.5045  221.4513 H   0  0  0  0  0  0  0  0  0  0  0  0
  139.2443   71.2533  219.8045 H   0  0  0  0  0  0  0  0  0  0  0  0
  138.3342   68.9821  220.0687 H   0  0  0  0  0  0  0  0  0  0  0  0
  138.4019   67.9163  222.3484 H   0  0  0  0  0  0  0  0  0  0  0  0
  138.9218   69.3110  227.7583 H   0  0  0  0  0  0  0  0  0  0  0  0
  139.2399   67.8433  226.8431 H   0  0  0  0  0  0  0  0  0  0  0  0
  141.0287   69.1372  228.5830 H   0  0  0  0  0  0  0  0  0  0  0  0
  141.4746   67.9175  227.2971 H   0  0  0  0  0  0  0  0  0  0  0  0
  141.0967   71.5185  227.7127 H   0  0  0  0  0  0  0  0  0  0  0  0
  141.9587   71.6913  226.1117 H   0  0  0  0  0  0  0  0  0  0  0  0
  139.1428   71.5583  226.5683 H   0  0  0  0  0  0  0  0  0  0  0  0
  139.9778   71.6155  225.0146 H   0  0  0  0  0  0  0  0  0  0  0  0
  140.2869   71.4626  223.9523 H   0  0  0  0  0  0  0  0  0  0  0  0
  138.2108   75.8194  223.1389 H   0  0  0  0  0  0  0  0  0  0  0  0
  138.8155   78.2443  223.0805 H   0  0  0  0  0  0  0  0  0  0  0  0
  140.7547   79.5310  219.8760 H   0  0  0  0  0  0  0  0  0  0  0  0
  142.1188   82.9463  222.0548 H   0  0  0  0  0  0  0  0  0  0  0  0
  142.0921   81.5683  224.1295 H   0  0  0  0  0  0  0  0  0  0  0  0
  142.3770   77.1891  220.9327 H   0  0  0  0  0  0  0  0  0  0  0  0
  1  2  2  0
  2  3  1  0
  3  4  1  0
  4  5  1  0
  5  6  2  0
  6  7  1  0
  7  8  2  0
  8  9  1  0
  9 10  1  0
 10 11  2  0
 10 12  1  0
 12 13  1  0
 13 14  1  0
 14 15  1  0
 15 16  1  0
 16 17  1  0
  9 18  2  0
  4 19  2  0
 19 20  1  0
 20 21  2  0
 21 22  1  0
 22 23  2  0
 23 24  1  0
 24 25  2  0
 25 26  1  0
 26 27  1  0
 26 28  2  0
 28 29  1  0
 29 30  2  0
 23 31  1  0
 31 32  2  0
 32  2  1  0
 18  5  1  0
 32 20  1  0
 17 12  1  0
 30 24  1  0
  3 33  1  0
  3 34  1  0
  6 35  1  0
  7 36  1  0
  8 37  1  0
 13 38  1  0
 13 39  1  0
 14 40  1  0
 14 41  1  0
 16 42  1  0
 16 43  1  0
 17 44  1  0
 17 45  1  0
 18 46  1  0
 21 47  1  0
 22 48  1  0
 25 49  1  0
 28 50  1  0
 29 51  1  0
 31 52  1  0
M  END
>  <smiles>  (11) 
O=C1CC(c2cccc(C(=O)N3CCOCC3)c2)=Nc2ccc(-c3cc(Cl)ccn3)cc21

>  <score_type>  (11) 
oracle

>  <origin>  (11) 
autodockgpu

>  <m_score__min__energy>  (11) 
-8.6899999999999995

>  <m_primary>  (11) 
energy

>  <rmsd>  (11) 
6.755567623166924

>  <m_score__min__rmsd>  (11) 
6.755567623166924

>  <meeko>  (11) 
{"free_energy": -8.6, "intermolecular_energy": -9.49, "internal_energy": -0.81, "cluster_size": 9, "cluster_id": 2, "rank_in_cluster": 4}

>  <energy>  (11) 
-8.69

>  <cluster_rmsd>  (11) 
0.05

>  <cluster>  (11) 
1

$$$$

     RDKit          3D

 52 56  0  0  0  0  0  0  0  0999 V2000
  141.9590   80.8470  223.8810 O   0  0  0  0  0  0  0  0  0  0  0  0
  141.3890   80.0850  223.0790 C   0  0  0  0  0  0  0  0  0  0  0  0
  142.1950   79.3600  222.0690 C   0  0  0  0  0  0  0  0  0  0  0  0
  141.3370   78.4980  221.2320 C   0  0  0  0  0  0  0  0  0  0  0  0
  141.9790   77.6440  220.2170 C   0  0  0  0  0  0  0  0  0  0  0  0
  142.3830   78.1660  219.0190 C   0  0  0  0  0  0  0  0  0  0  0  0
  142.9530   77.4200  218.0160 C   0  0  0  0  0  0  0  0  0  0  0  0
  143.1280   76.0590  218.2410 C   0  0  0  0  0  0  0  0  0  0  0  0
  142.7210   75.5200  219.4600 C   0  0  0  0  0  0  0  0  0  0  0  0
  142.8860   74.0990  219.6650 C   0  0  0  0  0  0  0  0  0  0  0  0
  141.9480   73.3400  219.2490 O   0  0  0  0  0  0  0  0  0  0  0  0
  143.9800   73.4680  220.2780 N   0  0  0  0  0  0  0  0  0  0  0  0
  143.9730   71.9960  220.3800 C   0  0  0  0  0  0  0  0  0  0  0  0
  145.1290   71.5550  219.5020 C   0  0  0  0  0  0  0  0  0  0  0  0
  145.9640   72.5960  219.1210 O   0  0  0  0  0  0  0  0  0  0  0  0
  146.3330   73.4610  220.1220 C   0  0  0  0  0  0  0  0  0  0  0  0
  145.1450   74.1110  220.8320 C   0  0  0  0  0  0  0  0  0  0  0  0
  142.1510   76.2860  220.4530 C   0  0  0  0  0  0  0  0  0  0  0  0
  140.0610   78.3960  221.3480 N   0  0  0  0  0  0  0  0  0  0  0  0
  139.2910   79.0930  222.3050 C   0  0  0  0  0  0  0  0  0  0  0  0
  137.9360   78.9220  222.3700 C   0  0  0  0  0  0  0  0  0  0  0  0
  137.1530   79.5880  223.3120 C   0  0  0  0  0  0  0  0  0  0  0  0
  137.7910   80.4250  224.1760 C   0  0  0  0  0  0  0  0  0  0  0  0
  137.0390   81.1260  225.1900 C   0  0  0  0  0  0  0  0  0  0  0  0
  135.7200   80.8860  225.4770 C   0  0  0  0  0  0  0  0  0  0  0  0
  135.0270   81.5690  226.4780 C   0  0  0  0  0  0  0  0  0  0  0  0
  133.3300   81.1920  226.7770 Cl  0  0  0  0  0  0  0  0  0  0  0  0
  135.7010   82.5120  227.1890 C   0  0  0  0  0  0  0  0  0  0  0  0
  137.0440   82.7610  226.9040 C   0  0  0  0  0  0  0  0  0  0  0  0
  137.6810   82.0820  225.9330 N   0  0  0  0  0  0  0  0  0  0  0  0
  139.1680   80.5980  224.1060 C   0  0  0  0  0  0  0  0  0  0  0  0
  139.9500   79.9390  223.1750 C   0  0  0  0  0  0  0  0  0  0  0  0
  142.7087   80.0900  221.4262 H   0  0  0  0  0  0  0  0  0  0  0  0
  142.9272   78.7268  222.5914 H   0  0  0  0  0  0  0  0  0  0  0  0
  142.2436   79.2438  218.8491 H   0  0  0  0  0  0  0  0  0  0  0  0
  143.2605   77.8836  217.0671 H   0  0  0  0  0  0  0  0  0  0  0  0
  143.5802   75.4184  217.4696 H   0  0  0  0  0  0  0  0  0  0  0  0
  144.1300   71.6766  221.4208 H   0  0  0  0  0  0  0  0  0  0  0  0
  143.0146   71.5571  220.0656 H   0  0  0  0  0  0  0  0  0  0  0  0
  145.7253   70.8158  220.0570 H   0  0  0  0  0  0  0  0  0  0  0  0
  144.6948   71.1357  218.5824 H   0  0  0  0  0  0  0  0  0  0  0  0
  146.9209   72.9031  220.8657 H   0  0  0  0  0  0  0  0  0  0  0  0
  146.9137   74.2697  219.6543 H   0  0  0  0  0  0  0  0  0  0  0  0
  145.2020   73.9389  221.9170 H   0  0  0  0  0  0  0  0  0  0  0  0
  145.1232   75.2011  220.6860 H   0  0  0  0  0  0  0  0  0  0  0  0
  141.8405   75.8345  221.4068 H   0  0  0  0  0  0  0  0  0  0  0  0
  137.4494   78.2389  221.6582 H   0  0  0  0  0  0  0  0  0  0  0  0
  136.0635   79.4431  223.3555 H   0  0  0  0  0  0  0  0  0  0  0  0
  135.1848   80.1224  224.8934 H   0  0  0  0  0  0  0  0  0  0  0  0
  135.1905   83.0752  227.9841 H   0  0  0  0  0  0  0  0  0  0  0  0
  137.5891   83.5226  227.4809 H   0  0  0  0  0  0  0  0  0  0  0  0
  139.6533   81.2835  224.8164 H   0  0  0  0  0  0  0  0  0  0  0  0
  1  2  2  0
  2  3  1  0
  3  4  1  0
  4  5  1  0
  5  6  2  0
  6  7  1  0
  7  8  2  0
  8  9  1  0
  9 10  1  0
 10 11  2  0
 10 12  1  0
 12 13  1  0
 13 14  1  0
 14 15  1  0
 15 16  1  0
 16 17  1  0
  9 18  2  0
  4 19  2  0
 19 20  1  0
 20 21  2  0
 21 22  1  0
 22 23  2  0
 23 24  1  0
 24 25  2  0
 25 26  1  0
 26 27  1  0
 26 28  2  0
 28 29  1  0
 29 30  2  0
 23 31  1  0
 31 32  2  0
 32  2  1  0
 18  5  1  0
 32 20  1  0
 17 12  1  0
 30 24  1  0
  3 33  1  0
  3 34  1  0
  6 35  1  0
  7 36  1  0
  8 37  1  0
 13 38  1  0
 13 39  1  0
 14 40  1  0
 14 41  1  0
 16 42  1  0
 16 43  1  0
 17 44  1  0
 17 45  1  0
 18 46  1  0
 21 47  1  0
 22 48  1  0
 25 49  1  0
 28 50  1  0
 29 51  1  0
 31 52  1  0
M  END
>  <smiles>  (12) 
O=C1CC(c2cccc(C(=O)N3CCOCC3)c2)=Nc2ccc(-c3cc(Cl)ccn3)cc21

>  <score_type>  (12) 
oracle

>  <origin>  (12) 
autodockgpu

>  <m_score__min__energy>  (12) 
-8.6899999999999995

>  <m_primary>  (12) 
energy

>  <rmsd>  (12) 
8.907681502564937

>  <m_score__min__rmsd>  (12) 
8.907681502564937

>  <meeko>  (12) 
{"free_energy": -8.69, "intermolecular_energy": -9.59, "internal_energy": -1.0, "cluster_size": 41, "cluster_id": 1, "rank_in_cluster": 2}

>  <energy>  (12) 
-8.68

>  <cluster_rmsd>  (12) 
0.05

>  <cluster>  (12) 
1

$$$$

     RDKit          3D

 52 56  0  0  0  0  0  0  0  0999 V2000
  142.2000   80.7390  223.9850 O   0  0  0  0  0  0  0  0  0  0  0  0
  141.5830   80.0740  223.1330 C   0  0  0  0  0  0  0  0  0  0  0  0
  142.3440   79.2940  222.1290 C   0  0  0  0  0  0  0  0  0  0  0  0
  141.4310   78.5650  221.2270 C   0  0  0  0  0  0  0  0  0  0  0  0
  142.0150   77.6770  220.2070 C   0  0  0  0  0  0  0  0  0  0  0  0
  142.3620   78.1600  218.9750 C   0  0  0  0  0  0  0  0  0  0  0  0
  142.8760   77.3800  217.9670 C   0  0  0  0  0  0  0  0  0  0  0  0
  143.0510   76.0250  218.2230 C   0  0  0  0  0  0  0  0  0  0  0  0
  142.7020   75.5250  219.4760 C   0  0  0  0  0  0  0  0  0  0  0  0
  142.8670   74.1090  219.7150 C   0  0  0  0  0  0  0  0  0  0  0  0
  141.9160   73.3430  219.3400 O   0  0  0  0  0  0  0  0  0  0  0  0
  143.9730   73.4890  220.3180 N   0  0  0  0  0  0  0  0  0  0  0  0
  143.9630   72.0210  220.4590 C   0  0  0  0  0  0  0  0  0  0  0  0
  145.0960   71.5520  219.5660 C   0  0  0  0  0  0  0  0  0  0  0  0
  145.9260   72.5800  219.1380 O   0  0  0  0  0  0  0  0  0  0  0  0
  146.3210   73.4680  220.1070 C   0  0  0  0  0  0  0  0  0  0  0  0
  145.1520   74.1420  220.8280 C   0  0  0  0  0  0  0  0  0  0  0  0
  142.1880   76.3240  220.4730 C   0  0  0  0  0  0  0  0  0  0  0  0
  140.1480   78.6080  221.2880 N   0  0  0  0  0  0  0  0  0  0  0  0
  139.4220   79.3570  222.2390 C   0  0  0  0  0  0  0  0  0  0  0  0
  138.0540   79.3420  222.2440 C   0  0  0  0  0  0  0  0  0  0  0  0
  137.3120   80.0630  223.1780 C   0  0  0  0  0  0  0  0  0  0  0  0
  138.0030   80.7920  224.0980 C   0  0  0  0  0  0  0  0  0  0  0  0
  137.2920   81.5410  225.1070 C   0  0  0  0  0  0  0  0  0  0  0  0
  136.8940   82.8460  224.9630 C   0  0  0  0  0  0  0  0  0  0  0  0
  136.1910   83.5360  225.9520 C   0  0  0  0  0  0  0  0  0  0  0  0
  135.7200   85.2130  225.6770 Cl  0  0  0  0  0  0  0  0  0  0  0  0
  135.8970   82.8750  227.1030 C   0  0  0  0  0  0  0  0  0  0  0  0
  136.2980   81.5470  227.2570 C   0  0  0  0  0  0  0  0  0  0  0  0
  136.9730   80.9120  226.2820 N   0  0  0  0  0  0  0  0  0  0  0  0
  139.3920   80.8070  224.0890 C   0  0  0  0  0  0  0  0  0  0  0  0
  140.1340   80.0930  223.1650 C   0  0  0  0  0  0  0  0  0  0  0  0
  142.9653   79.9804  221.5349 H   0  0  0  0  0  0  0  0  0  0  0  0
  142.9753   78.5635  222.6560 H   0  0  0  0  0  0  0  0  0  0  0  0
  142.2217   79.2335  218.7802 H   0  0  0  0  0  0  0  0  0  0  0  0
  143.1399   77.8132  216.9909 H   0  0  0  0  0  0  0  0  0  0  0  0
  143.4584   75.3581  217.4489 H   0  0  0  0  0  0  0  0  0  0  0  0
  144.1435   71.7285  221.5039 H   0  0  0  0  0  0  0  0  0  0  0  0
  142.9958   71.5781  220.1791 H   0  0  0  0  0  0  0  0  0  0  0  0
  145.7026   70.8250  220.1260 H   0  0  0  0  0  0  0  0  0  0  0  0
  144.6388   71.1103  218.6683 H   0  0  0  0  0  0  0  0  0  0  0  0
  146.9238   72.9266  220.8510 H   0  0  0  0  0  0  0  0  0  0  0  0
  146.8936   74.2619  219.6052 H   0  0  0  0  0  0  0  0  0  0  0  0
  145.2338   73.9982  221.9155 H   0  0  0  0  0  0  0  0  0  0  0  0
  145.1305   75.2281  220.6547 H   0  0  0  0  0  0  0  0  0  0  0  0
  141.9216   75.9026  221.4535 H   0  0  0  0  0  0  0  0  0  0  0  0
  137.5240   78.7433  221.4886 H   0  0  0  0  0  0  0  0  0  0  0  0
  136.2122   80.0441  223.1723 H   0  0  0  0  0  0  0  0  0  0  0  0
  137.1394   83.3711  224.0281 H   0  0  0  0  0  0  0  0  0  0  0  0
  135.3464   83.3837  227.9081 H   0  0  0  0  0  0  0  0  0  0  0  0
  136.0588   81.0125  228.1882 H   0  0  0  0  0  0  0  0  0  0  0  0
  139.9208   81.4080  224.8434 H   0  0  0  0  0  0  0  0  0  0  0  0
  1  2  2  0
  2  3  1  0
  3  4  1  0
  4  5  1  0
  5  6  2  0
  6  7  1  0
  7  8  2  0
  8  9  1  0
  9 10  1  0
 10 11  2  0
 10 12  1  0
 12 13  1  0
 13 14  1  0
 14 15  1  0
 15 16  1  0
 16 17  1  0
  9 18  2  0
  4 19  2  0
 19 20  1  0
 20 21  2  0
 21 22  1  0
 22 23  2  0
 23 24  1  0
 24 25  2  0
 25 26  1  0
 26 27  1  0
 26 28  2  0
 28 29  1  0
 29 30  2  0
 23 31  1  0
 31 32  2  0
 32  2  1  0
 18  5  1  0
 32 20  1  0
 17 12  1  0
 30 24  1  0
  3 33  1  0
  3 34  1  0
  6 35  1  0
  7 36  1  0
  8 37  1  0
 13 38  1  0
 13 39  1  0
 14 40  1  0
 14 41  1  0
 16 42  1  0
 16 43  1  0
 17 44  1  0
 17 45  1  0
 18 46  1  0
 21 47  1  0
 22 48  1  0
 25 49  1  0
 28 50  1  0
 29 51  1  0
 31 52  1  0
M  END
>  <smiles>  (13) 
O=C1CC(c2cccc(C(=O)N3CCOCC3)c2)=Nc2ccc(-c3cc(Cl)ccn3)cc21

>  <score_type>  (13) 
oracle

>  <origin>  (13) 
autodockgpu

>  <m_score__min__energy>  (13) 
-8.6899999999999995

>  <m_primary>  (13) 
energy

>  <rmsd>  (13) 
8.945065618670746

>  <m_score__min__rmsd>  (13) 
8.945065618670746

>  <meeko>  (13) 
{"free_energy": -8.64, "intermolecular_energy": -9.53, "internal_energy": -1.0, "cluster_size": 41, "cluster_id": 1, "rank_in_cluster": 25}

>  <energy>  (13) 
-8.68

>  <cluster_rmsd>  (13) 
0.05

>  <cluster>  (13) 
1

$$$$

     RDKit          3D

 52 56  0  0  0  0  0  0  0  0999 V2000
  142.7190   74.1820  219.9130 O   0  0  0  0  0  0  0  0  0  0  0  0
  141.7090   73.9070  220.5850 C   0  0  0  0  0  0  0  0  0  0  0  0
  141.2540   72.4980  220.6690 C   0  0  0  0  0  0  0  0  0  0  0  0
  140.0570   72.3830  221.5260 C   0  0  0  0  0  0  0  0  0  0  0  0
  139.5070   71.0400  221.7820 C   0  0  0  0  0  0  0  0  0  0  0  0
  138.7920   70.3820  220.8190 C   0  0  0  0  0  0  0  0  0  0  0  0
  138.2210   69.1460  221.0060 C   0  0  0  0  0  0  0  0  0  0  0  0
  138.3840   68.5380  222.2450 C   0  0  0  0  0  0  0  0  0  0  0  0
  139.1120   69.2010  223.2310 C   0  0  0  0  0  0  0  0  0  0  0  0
  139.2490   68.5650  224.5210 C   0  0  0  0  0  0  0  0  0  0  0  0
  139.1720   67.2910  224.5510 O   0  0  0  0  0  0  0  0  0  0  0  0
  139.4610   69.2110  225.7500 N   0  0  0  0  0  0  0  0  0  0  0  0
  139.5930   68.3830  226.9640 C   0  0  0  0  0  0  0  0  0  0  0  0
  141.0240   68.6090  227.4160 C   0  0  0  0  0  0  0  0  0  0  0  0
  141.6490   69.6660  226.7700 O   0  0  0  0  0  0  0  0  0  0  0  0
  140.9150   70.8220  226.6730 C   0  0  0  0  0  0  0  0  0  0  0  0
  139.5720   70.6310  225.9670 C   0  0  0  0  0  0  0  0  0  0  0  0
  139.6770   70.4400  223.0240 C   0  0  0  0  0  0  0  0  0  0  0  0
  139.4730   73.3670  222.1100 N   0  0  0  0  0  0  0  0  0  0  0  0
  139.9010   74.7100  222.0240 C   0  0  0  0  0  0  0  0  0  0  0  0
  139.2290   75.7010  222.6850 C   0  0  0  0  0  0  0  0  0  0  0  0
  139.6350   77.0330  222.6270 C   0  0  0  0  0  0  0  0  0  0  0  0
  140.7380   77.3190  221.8800 C   0  0  0  0  0  0  0  0  0  0  0  0
  141.2230   78.6760  221.7990 C   0  0  0  0  0  0  0  0  0  0  0  0
  141.5970   79.4290  222.8830 C   0  0  0  0  0  0  0  0  0  0  0  0
  142.0810   80.7330  222.7670 C   0  0  0  0  0  0  0  0  0  0  0  0
  142.5380   81.6250  224.2190 Cl  0  0  0  0  0  0  0  0  0  0  0  0
  142.1780   81.2690  221.5220 C   0  0  0  0  0  0  0  0  0  0  0  0
  141.8010   80.5090  220.4140 C   0  0  0  0  0  0  0  0  0  0  0  0
  141.3400   79.2540  220.5610 N   0  0  0  0  0  0  0  0  0  0  0  0
  141.4170   76.3100  221.2080 C   0  0  0  0  0  0  0  0  0  0  0  0
  141.0190   74.9870  221.2620 C   0  0  0  0  0  0  0  0  0  0  0  0
  141.0102   72.1371  219.6589 H   0  0  0  0  0  0  0  0  0  0  0  0
  142.0609   71.8928  221.1079 H   0  0  0  0  0  0  0  0  0  0  0  0
  138.6672   70.8693  219.8407 H   0  0  0  0  0  0  0  0  0  0  0  0
  137.6539   68.6544  220.2018 H   0  0  0  0  0  0  0  0  0  0  0  0
  137.9453   67.5491  222.4442 H   0  0  0  0  0  0  0  0  0  0  0  0
  138.8832   68.7100  227.7382 H   0  0  0  0  0  0  0  0  0  0  0  0
  139.3736   67.3217  226.7757 H   0  0  0  0  0  0  0  0  0  0  0  0
  141.0192   68.8154  228.4965 H   0  0  0  0  0  0  0  0  0  0  0  0
  141.5891   67.6986  227.1671 H   0  0  0  0  0  0  0  0  0  0  0  0
  140.7246   71.2004  227.6882 H   0  0  0  0  0  0  0  0  0  0  0  0
  141.5018   71.5296  226.0689 H   0  0  0  0  0  0  0  0  0  0  0  0
  138.7479   70.9904  226.6008 H   0  0  0  0  0  0  0  0  0  0  0  0
  139.5168   71.1975  225.0257 H   0  0  0  0  0  0  0  0  0  0  0  0
  140.2473   70.9410  223.8201 H   0  0  0  0  0  0  0  0  0  0  0  0
  138.3417   75.4390  223.2801 H   0  0  0  0  0  0  0  0  0  0  0  0
  139.0868   77.8219  223.1629 H   0  0  0  0  0  0  0  0  0  0  0  0
  141.5118   78.9862  223.8863 H   0  0  0  0  0  0  0  0  0  0  0  0
  142.5512   82.2951  221.3885 H   0  0  0  0  0  0  0  0  0  0  0  0
  141.8820   80.9424  219.4062 H   0  0  0  0  0  0  0  0  0  0  0  0
  142.3030   76.5732  220.6116 H   0  0  0  0  0  0  0  0  0  0  0  0
  1  2  2  0
  2  3  1  0
  3  4  1  0
  4  5  1  0
  5  6  2  0
  6  7  1  0
  7  8  2  0
  8  9  1  0
  9 10  1  0
 10 11  2  0
 10 12  1  0
 12 13  1  0
 13 14  1  0
 14 15  1  0
 15 16  1  0
 16 17  1  0
  9 18  2  0
  4 19  2  0
 19 20  1  0
 20 21  2  0
 21 22  1  0
 22 23  2  0
 23 24  1  0
 24 25  2  0
 25 26  1  0
 26 27  1  0
 26 28  2  0
 28 29  1  0
 29 30  2  0
 23 31  1  0
 31 32  2  0
 32  2  1  0
 18  5  1  0
 32 20  1  0
 17 12  1  0
 30 24  1  0
  3 33  1  0
  3 34  1  0
  6 35  1  0
  7 36  1  0
  8 37  1  0
 13 38  1  0
 13 39  1  0
 14 40  1  0
 14 41  1  0
 16 42  1  0
 16 43  1  0
 17 44  1  0
 17 45  1  0
 18 46  1  0
 21 47  1  0
 22 48  1  0
 25 49  1  0
 28 50  1  0
 29 51  1  0
 31 52  1  0
M  END
>  <smiles>  (14) 
O=C1CC(c2cccc(C(=O)N3CCOCC3)c2)=Nc2ccc(-c3cc(Cl)ccn3)cc21

>  <score_type>  (14) 
oracle

>  <origin>  (14) 
autodockgpu

>  <m_score__min__energy>  (14) 
-8.6899999999999995

>  <m_primary>  (14) 
energy

>  <rmsd>  (14) 
6.724655544489373

>  <m_score__min__rmsd>  (14) 
6.724655544489373

>  <meeko>  (14) 
{"free_energy": -8.47, "intermolecular_energy": -9.36, "internal_energy": -0.89, "cluster_size": 9, "cluster_id": 2, "rank_in_cluster": 9}

>  <energy>  (14) 
-8.67

>  <cluster_rmsd>  (14) 
0.06

>  <cluster>  (14) 
1

$$$$

     RDKit          3D

 52 56  0  0  0  0  0  0  0  0999 V2000
  141.9580   80.8460  223.8890 O   0  0  0  0  0  0  0  0  0  0  0  0
  141.3860   80.0870  223.0850 C   0  0  0  0  0  0  0  0  0  0  0  0
  142.1910   79.3630  222.0730 C   0  0  0  0  0  0  0  0  0  0  0  0
  141.3320   78.5050  221.2330 C   0  0  0  0  0  0  0  0  0  0  0  0
  141.9730   77.6530  220.2160 C   0  0  0  0  0  0  0  0  0  0  0  0
  142.3740   78.1770  219.0170 C   0  0  0  0  0  0  0  0  0  0  0  0
  142.9430   77.4310  218.0130 C   0  0  0  0  0  0  0  0  0  0  0  0
  143.1180   76.0710  218.2360 C   0  0  0  0  0  0  0  0  0  0  0  0
  142.7140   75.5300  219.4550 C   0  0  0  0  0  0  0  0  0  0  0  0
  142.8800   74.1090  219.6590 C   0  0  0  0  0  0  0  0  0  0  0  0
  141.9410   73.3500  219.2430 O   0  0  0  0  0  0  0  0  0  0  0  0
  143.9760   73.4780  220.2690 N   0  0  0  0  0  0  0  0  0  0  0  0
  143.9700   72.0050  220.3700 C   0  0  0  0  0  0  0  0  0  0  0  0
  145.1240   71.5660  219.4890 C   0  0  0  0  0  0  0  0  0  0  0  0
  145.9580   72.6080  219.1060 O   0  0  0  0  0  0  0  0  0  0  0  0
  146.3280   73.4720  220.1070 C   0  0  0  0  0  0  0  0  0  0  0  0
  145.1410   74.1210  220.8210 C   0  0  0  0  0  0  0  0  0  0  0  0
  142.1450   76.2940  220.4500 C   0  0  0  0  0  0  0  0  0  0  0  0
  140.0560   78.4070  221.3480 N   0  0  0  0  0  0  0  0  0  0  0  0
  139.2870   79.1020  222.3060 C   0  0  0  0  0  0  0  0  0  0  0  0
  137.9310   78.9340  222.3700 C   0  0  0  0  0  0  0  0  0  0  0  0
  137.1500   79.6000  223.3130 C   0  0  0  0  0  0  0  0  0  0  0  0
  137.7890   80.4330  224.1800 C   0  0  0  0  0  0  0  0  0  0  0  0
  137.0380   81.1330  225.1960 C   0  0  0  0  0  0  0  0  0  0  0  0
  135.7190   80.8920  225.4850 C   0  0  0  0  0  0  0  0  0  0  0  0
  135.0280   81.5750  226.4870 C   0  0  0  0  0  0  0  0  0  0  0  0
  133.3310   81.1970  226.7870 Cl  0  0  0  0  0  0  0  0  0  0  0  0
  135.7020   82.5160  227.1980 C   0  0  0  0  0  0  0  0  0  0  0  0
  137.0450   82.7660  226.9110 C   0  0  0  0  0  0  0  0  0  0  0  0
  137.6810   82.0880  225.9390 N   0  0  0  0  0  0  0  0  0  0  0  0
  139.1660   80.6020  224.1120 C   0  0  0  0  0  0  0  0  0  0  0  0
  139.9470   79.9450  223.1790 C   0  0  0  0  0  0  0  0  0  0  0  0
  142.7064   80.0939  221.4326 H   0  0  0  0  0  0  0  0  0  0  0  0
  142.9215   78.7267  222.5941 H   0  0  0  0  0  0  0  0  0  0  0  0
  142.2330   79.2547  218.8477 H   0  0  0  0  0  0  0  0  0  0  0  0
  143.2498   77.8953  217.0642 H   0  0  0  0  0  0  0  0  0  0  0  0
  143.5683   75.4314  217.4626 H   0  0  0  0  0  0  0  0  0  0  0  0
  144.1297   71.6848  221.4102 H   0  0  0  0  0  0  0  0  0  0  0  0
  143.0112   71.5655  220.0578 H   0  0  0  0  0  0  0  0  0  0  0  0
  145.7222   70.8269  220.0420 H   0  0  0  0  0  0  0  0  0  0  0  0
  144.6876   71.1474  218.5701 H   0  0  0  0  0  0  0  0  0  0  0  0
  146.9179   72.9136  220.8488 H   0  0  0  0  0  0  0  0  0  0  0  0
  146.9067   74.2818  219.6386 H   0  0  0  0  0  0  0  0  0  0  0  0
  145.2006   73.9478  221.9056 H   0  0  0  0  0  0  0  0  0  0  0  0
  145.1182   75.2113  220.6767 H   0  0  0  0  0  0  0  0  0  0  0  0
  141.8354   75.8409  221.4033 H   0  0  0  0  0  0  0  0  0  0  0  0
  137.4428   78.2537  221.6567 H   0  0  0  0  0  0  0  0  0  0  0  0
  136.0600   79.4582  223.3551 H   0  0  0  0  0  0  0  0  0  0  0  0
  135.1832   80.1281  224.9024 H   0  0  0  0  0  0  0  0  0  0  0  0
  135.1926   83.0775  227.9950 H   0  0  0  0  0  0  0  0  0  0  0  0
  137.5904   83.5277  227.4875 H   0  0  0  0  0  0  0  0  0  0  0  0
  139.6526   81.2828  224.8259 H   0  0  0  0  0  0  0  0  0  0  0  0
  1  2  2  0
  2  3  1  0
  3  4  1  0
  4  5  1  0
  5  6  2  0
  6  7  1  0
  7  8  2  0
  8  9  1  0
  9 10  1  0
 10 11  2  0
 10 12  1  0
 12 13  1  0
 13 14  1  0
 14 15  1  0
 15 16  1  0
 16 17  1  0
  9 18  2  0
  4 19  2  0
 19 20  1  0
 20 21  2  0
 21 22  1  0
 22 23  2  0
 23 24  1  0
 24 25  2  0
 25 26  1  0
 26 27  1  0
 26 28  2  0
 28 29  1  0
 29 30  2  0
 23 31  1  0
 31 32  2  0
 32  2  1  0
 18  5  1  0
 32 20  1  0
 17 12  1  0
 30 24  1  0
  3 33  1  0
  3 34  1  0
  6 35  1  0
  7 36  1  0
  8 37  1  0
 13 38  1  0
 13 39  1  0
 14 40  1  0
 14 41  1  0
 16 42  1  0
 16 43  1  0
 17 44  1  0
 17 45  1  0
 18 46  1  0
 21 47  1  0
 22 48  1  0
 25 49  1  0
 28 50  1  0
 29 51  1  0
 31 52  1  0
M  END
>  <smiles>  (15) 
O=C1CC(c2cccc(C(=O)N3CCOCC3)c2)=Nc2ccc(-c3cc(Cl)ccn3)cc21

>  <score_type>  (15) 
oracle

>  <origin>  (15) 
autodockgpu

>  <m_score__min__energy>  (15) 
-8.6899999999999995

>  <m_primary>  (15) 
energy

>  <rmsd>  (15) 
8.909338262800222

>  <m_score__min__rmsd>  (15) 
8.909338262800222

>  <meeko>  (15) 
{"free_energy": -8.69, "intermolecular_energy": -9.59, "internal_energy": -1.0, "cluster_size": 41, "cluster_id": 1, "rank_in_cluster": 1}

>  <energy>  (15) 
-8.67

>  <cluster_rmsd>  (15) 
0.09

>  <cluster>  (15) 
1

$$$$

     RDKit          3D

 52 56  0  0  0  0  0  0  0  0999 V2000
  142.1580   80.9530  223.8120 O   0  0  0  0  0  0  0  0  0  0  0  0
  141.5530   80.2550  222.9790 C   0  0  0  0  0  0  0  0  0  0  0  0
  142.3280   79.4220  222.0290 C   0  0  0  0  0  0  0  0  0  0  0  0
  141.4280   78.6590  221.1430 C   0  0  0  0  0  0  0  0  0  0  0  0
  142.0250   77.7190  220.1790 C   0  0  0  0  0  0  0  0  0  0  0  0
  142.4110   78.1430  218.9360 C   0  0  0  0  0  0  0  0  0  0  0  0
  142.9390   77.3130  217.9780 C   0  0  0  0  0  0  0  0  0  0  0  0
  143.0880   75.9680  218.2960 C   0  0  0  0  0  0  0  0  0  0  0  0
  142.7000   75.5280  219.5600 C   0  0  0  0  0  0  0  0  0  0  0  0
  142.8380   74.1220  219.8650 C   0  0  0  0  0  0  0  0  0  0  0  0
  141.8320   73.3750  219.6210 O   0  0  0  0  0  0  0  0  0  0  0  0
  143.9730   73.4940  220.4020 N   0  0  0  0  0  0  0  0  0  0  0  0
  143.9260   72.0360  220.6280 C   0  0  0  0  0  0  0  0  0  0  0  0
  144.9570   71.4770  219.6660 C   0  0  0  0  0  0  0  0  0  0  0  0
  145.7780   72.4470  219.1080 O   0  0  0  0  0  0  0  0  0  0  0  0
  146.2900   73.3710  219.9850 C   0  0  0  0  0  0  0  0  0  0  0  0
  145.2150   74.1270  220.7670 C   0  0  0  0  0  0  0  0  0  0  0  0
  142.1710   76.3770  220.5080 C   0  0  0  0  0  0  0  0  0  0  0  0
  140.1440   78.7150  221.1750 N   0  0  0  0  0  0  0  0  0  0  0  0
  139.4050   79.5130  222.0750 C   0  0  0  0  0  0  0  0  0  0  0  0
  138.0370   79.5090  222.0510 C   0  0  0  0  0  0  0  0  0  0  0  0
  137.2820   80.2790  222.9340 C   0  0  0  0  0  0  0  0  0  0  0  0
  137.9600   81.0450  223.8330 C   0  0  0  0  0  0  0  0  0  0  0  0
  137.2350   81.8470  224.7910 C   0  0  0  0  0  0  0  0  0  0  0  0
  136.8980   81.4260  226.0520 C   0  0  0  0  0  0  0  0  0  0  0  0
  136.2130   82.2350  226.9610 C   0  0  0  0  0  0  0  0  0  0  0  0
  135.8220   81.6070  228.5620 Cl  0  0  0  0  0  0  0  0  0  0  0  0
  135.8690   83.4890  226.5650 C   0  0  0  0  0  0  0  0  0  0  0  0
  136.2100   83.9240  225.2840 C   0  0  0  0  0  0  0  0  0  0  0  0
  136.8730   83.1190  224.4340 N   0  0  0  0  0  0  0  0  0  0  0  0
  139.3490   81.0480  223.8540 C   0  0  0  0  0  0  0  0  0  0  0  0
  140.1040   80.2860  222.9800 C   0  0  0  0  0  0  0  0  0  0  0  0
  142.9680   80.0745  221.4169 H   0  0  0  0  0  0  0  0  0  0  0  0
  142.9412   78.7119  222.6032 H   0  0  0  0  0  0  0  0  0  0  0  0
  142.2915   79.2086  218.6908 H   0  0  0  0  0  0  0  0  0  0  0  0
  143.2343   77.6997  216.9914 H   0  0  0  0  0  0  0  0  0  0  0  0
  143.5052   75.2628  217.5621 H   0  0  0  0  0  0  0  0  0  0  0  0
  144.1908   71.7936  221.6678 H   0  0  0  0  0  0  0  0  0  0  0  0
  142.9231   71.6159  220.4617 H   0  0  0  0  0  0  0  0  0  0  0  0
  145.5875   70.7586  220.2104 H   0  0  0  0  0  0  0  0  0  0  0  0
  144.4054   71.0058  218.8391 H   0  0  0  0  0  0  0  0  0  0  0  0
  146.9400   72.8483  220.7021 H   0  0  0  0  0  0  0  0  0  0  0  0
  146.8408   74.1137  219.3892 H   0  0  0  0  0  0  0  0  0  0  0  0
  145.3904   74.0387  221.8493 H   0  0  0  0  0  0  0  0  0  0  0  0
  145.2145   75.2021  220.5345 H   0  0  0  0  0  0  0  0  0  0  0  0
  141.8725   76.0024  221.4982 H   0  0  0  0  0  0  0  0  0  0  0  0
  137.5178   78.8796  221.3132 H   0  0  0  0  0  0  0  0  0  0  0  0
  136.1824   80.2684  222.9059 H   0  0  0  0  0  0  0  0  0  0  0  0
  137.1791   80.4082  226.3603 H   0  0  0  0  0  0  0  0  0  0  0  0
  135.3254   84.1563  227.2499 H   0  0  0  0  0  0  0  0  0  0  0  0
  135.9329   84.9394  224.9645 H   0  0  0  0  0  0  0  0  0  0  0  0
  139.8670   81.6785  224.5916 H   0  0  0  0  0  0  0  0  0  0  0  0
  1  2  2  0
  2  3  1  0
  3  4  1  0
  4  5  1  0
  5  6  2  0
  6  7  1  0
  7  8  2  0
  8  9  1  0
  9 10  1  0
 10 11  2  0
 10 12  1  0
 12 13  1  0
 13 14  1  0
 14 15  1  0
 15 16  1  0
 16 17  1  0
  9 18  2  0
  4 19  2  0
 19 20  1  0
 20 21  2  0
 21 22  1  0
 22 23  2  0
 23 24  1  0
 24 25  2  0
 25 26  1  0
 26 27  1  0
 26 28  2  0
 28 29  1  0
 29 30  2  0
 23 31  1  0
 31 32  2  0
 32  2  1  0
 18  5  1  0
 32 20  1  0
 17 12  1  0
 30 24  1  0
  3 33  1  0
  3 34  1  0
  6 35  1  0
  7 36  1  0
  8 37  1  0
 13 38  1  0
 13 39  1  0
 14 40  1  0
 14 41  1  0
 16 42  1  0
 16 43  1  0
 17 44  1  0
 17 45  1  0
 18 46  1  0
 21 47  1  0
 22 48  1  0
 25 49  1  0
 28 50  1  0
 29 51  1  0
 31 52  1  0
M  END
>  <smiles>  (16) 
O=C1CC(c2cccc(C(=O)N3CCOCC3)c2)=Nc2ccc(-c3cc(Cl)ccn3)cc21

>  <score_type>  (16) 
oracle

>  <origin>  (16) 
autodockgpu

>  <m_score__min__energy>  (16) 
-8.6899999999999995

>  <m_primary>  (16) 
energy

>  <rmsd>  (16) 
9.050384149783566

>  <m_score__min__rmsd>  (16) 
9.050384149783566

>  <meeko>  (16) 
{"free_energy": -8.57, "intermolecular_energy": -9.46, "internal_energy": -1.0, "cluster_size": 41, "cluster_id": 1, "rank_in_cluster": 31}

>  <energy>  (16) 
-8.67

>  <cluster_rmsd>  (16) 
0.09

>  <cluster>  (16) 
1

$$$$

     RDKit          3D

 52 56  0  0  0  0  0  0  0  0999 V2000
  141.9240   80.9170  223.8270 O   0  0  0  0  0  0  0  0  0  0  0  0
  141.3600   80.1320  223.0430 C   0  0  0  0  0  0  0  0  0  0  0  0
  142.1690   79.4070  222.0350 C   0  0  0  0  0  0  0  0  0  0  0  0
  141.3190   78.5160  221.2210 C   0  0  0  0  0  0  0  0  0  0  0  0
  141.9670   77.6600  220.2120 C   0  0  0  0  0  0  0  0  0  0  0  0
  142.3760   78.1780  219.0140 C   0  0  0  0  0  0  0  0  0  0  0  0
  142.9510   77.4290  218.0160 C   0  0  0  0  0  0  0  0  0  0  0  0
  143.1250   76.0690  218.2450 C   0  0  0  0  0  0  0  0  0  0  0  0
  142.7130   75.5330  219.4640 C   0  0  0  0  0  0  0  0  0  0  0  0
  142.8780   74.1130  219.6750 C   0  0  0  0  0  0  0  0  0  0  0  0
  141.9350   73.3530  219.2700 O   0  0  0  0  0  0  0  0  0  0  0  0
  143.9770   73.4830  220.2800 N   0  0  0  0  0  0  0  0  0  0  0  0
  143.9690   72.0110  220.3890 C   0  0  0  0  0  0  0  0  0  0  0  0
  145.1160   71.5650  219.5030 C   0  0  0  0  0  0  0  0  0  0  0  0
  145.9490   72.6040  219.1090 O   0  0  0  0  0  0  0  0  0  0  0  0
  146.3290   73.4720  220.1020 C   0  0  0  0  0  0  0  0  0  0  0  0
  145.1480   74.1270  220.8200 C   0  0  0  0  0  0  0  0  0  0  0  0
  142.1380   76.3020  220.4520 C   0  0  0  0  0  0  0  0  0  0  0  0
  140.0470   78.3910  221.3530 N   0  0  0  0  0  0  0  0  0  0  0  0
  139.2740   79.0860  222.3090 C   0  0  0  0  0  0  0  0  0  0  0  0
  137.9240   78.8900  222.3920 C   0  0  0  0  0  0  0  0  0  0  0  0
  137.1380   79.5550  223.3320 C   0  0  0  0  0  0  0  0  0  0  0  0
  137.7690   80.4180  224.1760 C   0  0  0  0  0  0  0  0  0  0  0  0
  137.0150   81.1190  225.1880 C   0  0  0  0  0  0  0  0  0  0  0  0
  135.6930   80.8830  225.4690 C   0  0  0  0  0  0  0  0  0  0  0  0
  134.9980   81.5670  226.4680 C   0  0  0  0  0  0  0  0  0  0  0  0
  133.2990   81.1940  226.7580 Cl  0  0  0  0  0  0  0  0  0  0  0  0
  135.6720   82.5050  227.1840 C   0  0  0  0  0  0  0  0  0  0  0  0
  137.0170   82.7500  226.9060 C   0  0  0  0  0  0  0  0  0  0  0  0
  137.6570   82.0710  225.9360 N   0  0  0  0  0  0  0  0  0  0  0  0
  139.1410   80.6160  224.0880 C   0  0  0  0  0  0  0  0  0  0  0  0
  139.9260   79.9590  223.1570 C   0  0  0  0  0  0  0  0  0  0  0  0
  142.6614   80.1368  221.3755 H   0  0  0  0  0  0  0  0  0  0  0  0
  142.9190   78.7961  222.5588 H   0  0  0  0  0  0  0  0  0  0  0  0
  142.2367   79.2551  218.8397 H   0  0  0  0  0  0  0  0  0  0  0  0
  143.2633   77.8901  217.0674 H   0  0  0  0  0  0  0  0  0  0  0  0
  143.5803   75.4264  217.4770 H   0  0  0  0  0  0  0  0  0  0  0  0
  144.1350   71.6962  221.4298 H   0  0  0  0  0  0  0  0  0  0  0  0
  143.0073   71.5717  220.0855 H   0  0  0  0  0  0  0  0  0  0  0  0
  145.7167   70.8279  220.0561 H   0  0  0  0  0  0  0  0  0  0  0  0
  144.6730   71.1417  218.5894 H   0  0  0  0  0  0  0  0  0  0  0  0
  146.9228   72.9163  220.8427 H   0  0  0  0  0  0  0  0  0  0  0  0
  146.9072   74.2776  219.6259 H   0  0  0  0  0  0  0  0  0  0  0  0
  145.2149   73.9600  221.9052 H   0  0  0  0  0  0  0  0  0  0  0  0
  145.1262   75.2164  220.6689 H   0  0  0  0  0  0  0  0  0  0  0  0
  141.8227   75.8530  221.4054 H   0  0  0  0  0  0  0  0  0  0  0  0
  137.4432   78.1865  221.6963 H   0  0  0  0  0  0  0  0  0  0  0  0
  136.0521   79.3894  223.3897 H   0  0  0  0  0  0  0  0  0  0  0  0
  135.1577   80.1222  224.8819 H   0  0  0  0  0  0  0  0  0  0  0  0
  135.1599   83.0679  227.9783 H   0  0  0  0  0  0  0  0  0  0  0  0
  137.5618   83.5084  227.4874 H   0  0  0  0  0  0  0  0  0  0  0  0
  139.6207   81.3204  224.7834 H   0  0  0  0  0  0  0  0  0  0  0  0
  1  2  2  0
  2  3  1  0
  3  4  1  0
  4  5  1  0
  5  6  2  0
  6  7  1  0
  7  8  2  0
  8  9  1  0
  9 10  1  0
 10 11  2  0
 10 12  1  0
 12 13  1  0
 13 14  1  0
 14 15  1  0
 15 16  1  0
 16 17  1  0
  9 18  2  0
  4 19  2  0
 19 20  1  0
 20 21  2  0
 21 22  1  0
 22 23  2  0
 23 24  1  0
 24 25  2  0
 25 26  1  0
 26 27  1  0
 26 28  2  0
 28 29  1  0
 29 30  2  0
 23 31  1  0
 31 32  2  0
 32  2  1  0
 18  5  1  0
 32 20  1  0
 17 12  1  0
 30 24  1  0
  3 33  1  0
  3 34  1  0
  6 35  1  0
  7 36  1  0
  8 37  1  0
 13 38  1  0
 13 39  1  0
 14 40  1  0
 14 41  1  0
 16 42  1  0
 16 43  1  0
 17 44  1  0
 17 45  1  0
 18 46  1  0
 21 47  1  0
 22 48  1  0
 25 49  1  0
 28 50  1  0
 29 51  1  0
 31 52  1  0
M  END
>  <smiles>  (17) 
O=C1CC(c2cccc(C(=O)N3CCOCC3)c2)=Nc2ccc(-c3cc(Cl)ccn3)cc21

>  <score_type>  (17) 
oracle

>  <origin>  (17) 
autodockgpu

>  <m_score__min__energy>  (17) 
-8.6899999999999995

>  <m_primary>  (17) 
energy

>  <rmsd>  (17) 
8.926195938644621

>  <m_score__min__rmsd>  (17) 
8.926195938644621

>  <meeko>  (17) 
{"free_energy": -8.69, "intermolecular_energy": -9.59, "internal_energy": -1.0, "cluster_size": 41, "cluster_id": 1, "rank_in_cluster": 4}

>  <energy>  (17) 
-8.66

>  <cluster_rmsd>  (17) 
0.08

>  <cluster>  (17) 
1

$$$$

     RDKit          3D

 52 56  0  0  0  0  0  0  0  0999 V2000
  141.9240   80.9210  223.8180 O   0  0  0  0  0  0  0  0  0  0  0  0
  141.3640   80.1260  223.0410 C   0  0  0  0  0  0  0  0  0  0  0  0
  142.1750   79.4040  222.0330 C   0  0  0  0  0  0  0  0  0  0  0  0
  141.3300   78.5000  221.2280 C   0  0  0  0  0  0  0  0  0  0  0  0
  141.9810   77.6450  220.2200 C   0  0  0  0  0  0  0  0  0  0  0  0
  142.3990   78.1660  219.0260 C   0  0  0  0  0  0  0  0  0  0  0  0
  142.9790   77.4180  218.0300 C   0  0  0  0  0  0  0  0  0  0  0  0
  143.1470   76.0570  218.2560 C   0  0  0  0  0  0  0  0  0  0  0  0
  142.7260   75.5180  219.4700 C   0  0  0  0  0  0  0  0  0  0  0  0
  142.8840   74.0980  219.6780 C   0  0  0  0  0  0  0  0  0  0  0  0
  141.9390   73.3420  219.2690 O   0  0  0  0  0  0  0  0  0  0  0  0
  143.9800   73.4620  220.2840 N   0  0  0  0  0  0  0  0  0  0  0  0
  143.9660   71.9900  220.3890 C   0  0  0  0  0  0  0  0  0  0  0  0
  145.1130   71.5410  219.5040 C   0  0  0  0  0  0  0  0  0  0  0  0
  145.9510   72.5780  219.1150 O   0  0  0  0  0  0  0  0  0  0  0  0
  146.3310   73.4420  220.1110 C   0  0  0  0  0  0  0  0  0  0  0  0
  145.1510   74.1000  220.8290 C   0  0  0  0  0  0  0  0  0  0  0  0
  142.1460   76.2860  220.4570 C   0  0  0  0  0  0  0  0  0  0  0  0
  140.0600   78.3640  221.3660 N   0  0  0  0  0  0  0  0  0  0  0  0
  139.2850   79.0580  222.3210 C   0  0  0  0  0  0  0  0  0  0  0  0
  137.9370   78.8490  222.4120 C   0  0  0  0  0  0  0  0  0  0  0  0
  137.1490   79.5110  223.3520 C   0  0  0  0  0  0  0  0  0  0  0  0
  137.7760   80.3840  224.1890 C   0  0  0  0  0  0  0  0  0  0  0  0
  137.0190   81.0840  225.2010 C   0  0  0  0  0  0  0  0  0  0  0  0
  135.6990   80.8420  225.4840 C   0  0  0  0  0  0  0  0  0  0  0  0
  135.0030   81.5240  226.4830 C   0  0  0  0  0  0  0  0  0  0  0  0
  133.3050   81.1450  226.7750 Cl  0  0  0  0  0  0  0  0  0  0  0  0
  135.6730   82.4670  227.1970 C   0  0  0  0  0  0  0  0  0  0  0  0
  137.0160   82.7170  226.9160 C   0  0  0  0  0  0  0  0  0  0  0  0
  137.6580   82.0400  225.9470 N   0  0  0  0  0  0  0  0  0  0  0  0
  139.1450   80.5950  224.0930 C   0  0  0  0  0  0  0  0  0  0  0  0
  139.9320   79.9410  223.1630 C   0  0  0  0  0  0  0  0  0  0  0  0
  142.6567   80.1352  221.3671 H   0  0  0  0  0  0  0  0  0  0  0  0
  142.9337   78.8036  222.5563 H   0  0  0  0  0  0  0  0  0  0  0  0
  142.2632   79.2439  218.8538 H   0  0  0  0  0  0  0  0  0  0  0  0
  143.2997   77.8810  217.0851 H   0  0  0  0  0  0  0  0  0  0  0  0
  143.6050   75.4155  217.4887 H   0  0  0  0  0  0  0  0  0  0  0  0
  144.1287   71.6719  221.4293 H   0  0  0  0  0  0  0  0  0  0  0  0
  143.0031   71.5556  220.0822 H   0  0  0  0  0  0  0  0  0  0  0  0
  145.7094   70.7998  220.0562 H   0  0  0  0  0  0  0  0  0  0  0  0
  144.6704   71.1217  218.5884 H   0  0  0  0  0  0  0  0  0  0  0  0
  146.9213   72.8823  220.8515 H   0  0  0  0  0  0  0  0  0  0  0  0
  146.9123   74.2470  219.6376 H   0  0  0  0  0  0  0  0  0  0  0  0
  145.2147   73.9294  221.9138 H   0  0  0  0  0  0  0  0  0  0  0  0
  145.1338   75.1900  220.6820 H   0  0  0  0  0  0  0  0  0  0  0  0
  141.8225   75.8350  221.4067 H   0  0  0  0  0  0  0  0  0  0  0  0
  137.4599   78.1369  221.7226 H   0  0  0  0  0  0  0  0  0  0  0  0
  136.0649   79.3357  223.4154 H   0  0  0  0  0  0  0  0  0  0  0  0
  135.1664   80.0780  224.8987 H   0  0  0  0  0  0  0  0  0  0  0  0
  135.1594   83.0290  227.9910 H   0  0  0  0  0  0  0  0  0  0  0  0
  137.5582   83.4789  227.4952 H   0  0  0  0  0  0  0  0  0  0  0  0
  139.6208   81.3084  224.7819 H   0  0  0  0  0  0  0  0  0  0  0  0
  1  2  2  0
  2  3  1  0
  3  4  1  0
  4  5  1  0
  5  6  2  0
  6  7  1  0
  7  8  2  0
  8  9  1  0
  9 10  1  0
 10 11  2  0
 10 12  1  0
 12 13  1  0
 13 14  1  0
 14 15  1  0
 15 16  1  0
 16 17  1  0
  9 18  2  0
  4 19  2  0
 19 20  1  0
 20 21  2  0
 21 22  1  0
 22 23  2  0
 23 24  1  0
 24 25  2  0
 25 26  1  0
 26 27  1  0
 26 28  2  0
 28 29  1  0
 29 30  2  0
 23 31  1  0
 31 32  2  0
 32  2  1  0
 18  5  1  0
 32 20  1  0
 17 12  1  0
 30 24  1  0
  3 33  1  0
  3 34  1  0
  6 35  1  0
  7 36  1  0
  8 37  1  0
 13 38  1  0
 13 39  1  0
 14 40  1  0
 14 41  1  0
 16 42  1  0
 16 43  1  0
 17 44  1  0
 17 45  1  0
 18 46  1  0
 21 47  1  0
 22 48  1  0
 25 49  1  0
 28 50  1  0
 29 51  1  0
 31 52  1  0
M  END
>  <smiles>  (18) 
O=C1CC(c2cccc(C(=O)N3CCOCC3)c2)=Nc2ccc(-c3cc(Cl)ccn3)cc21

>  <score_type>  (18) 
oracle

>  <origin>  (18) 
autodockgpu

>  <m_score__min__energy>  (18) 
-8.6899999999999995

>  <m_primary>  (18) 
energy

>  <rmsd>  (18) 
8.917558966323789

>  <m_score__min__rmsd>  (18) 
8.917558966323789

>  <meeko>  (18) 
{"free_energy": -8.68, "intermolecular_energy": -9.58, "internal_energy": -1.0, "cluster_size": 41, "cluster_id": 1, "rank_in_cluster": 13}

>  <energy>  (18) 
-8.66

>  <cluster_rmsd>  (18) 
1.02

>  <cluster>  (18) 
1

$$$$

     RDKit          3D

 52 56  0  0  0  0  0  0  0  0999 V2000
  142.1070   81.3150  223.4430 O   0  0  0  0  0  0  0  0  0  0  0  0
  141.5150   80.4460  222.7780 C   0  0  0  0  0  0  0  0  0  0  0  0
  142.2730   79.6530  221.7810 C   0  0  0  0  0  0  0  0  0  0  0  0
  141.3960   78.6670  221.1180 C   0  0  0  0  0  0  0  0  0  0  0  0
  141.9970   77.7390  220.1440 C   0  0  0  0  0  0  0  0  0  0  0  0
  142.3870   78.1780  218.9090 C   0  0  0  0  0  0  0  0  0  0  0  0
  142.9180   77.3590  217.9420 C   0  0  0  0  0  0  0  0  0  0  0  0
  143.0670   76.0110  218.2450 C   0  0  0  0  0  0  0  0  0  0  0  0
  142.6750   75.5550  219.5030 C   0  0  0  0  0  0  0  0  0  0  0  0
  142.8120   74.1460  219.7910 C   0  0  0  0  0  0  0  0  0  0  0  0
  141.8160   73.3970  219.5130 O   0  0  0  0  0  0  0  0  0  0  0  0
  143.9370   73.5160  220.3470 N   0  0  0  0  0  0  0  0  0  0  0  0
  143.8920   72.0550  220.5510 C   0  0  0  0  0  0  0  0  0  0  0  0
  144.9480   71.5130  219.6060 C   0  0  0  0  0  0  0  0  0  0  0  0
  145.7780   72.4940  219.0810 O   0  0  0  0  0  0  0  0  0  0  0  0
  146.2640   73.4080  219.9830 C   0  0  0  0  0  0  0  0  0  0  0  0
  145.1670   74.1490  220.7490 C   0  0  0  0  0  0  0  0  0  0  0  0
  142.1430   76.3930  220.4590 C   0  0  0  0  0  0  0  0  0  0  0  0
  140.1420   78.5210  221.3570 N   0  0  0  0  0  0  0  0  0  0  0  0
  139.4180   79.2810  222.3010 C   0  0  0  0  0  0  0  0  0  0  0  0
  138.0840   79.0560  222.5040 C   0  0  0  0  0  0  0  0  0  0  0  0
  137.3480   79.7840  223.4370 C   0  0  0  0  0  0  0  0  0  0  0  0
  138.0080   80.7380  224.1490 C   0  0  0  0  0  0  0  0  0  0  0  0
  137.3070   81.5090  225.1480 C   0  0  0  0  0  0  0  0  0  0  0  0
  136.9220   82.8160  224.9850 C   0  0  0  0  0  0  0  0  0  0  0  0
  136.2280   83.5280  225.9650 C   0  0  0  0  0  0  0  0  0  0  0  0
  135.7740   85.2060  225.6660 Cl  0  0  0  0  0  0  0  0  0  0  0  0
  135.9280   82.8870  227.1250 C   0  0  0  0  0  0  0  0  0  0  0  0
  136.3140   81.5570  227.2980 C   0  0  0  0  0  0  0  0  0  0  0  0
  136.9810   80.9010  226.3320 N   0  0  0  0  0  0  0  0  0  0  0  0
  139.3630   80.9650  223.9400 C   0  0  0  0  0  0  0  0  0  0  0  0
  140.1000   80.2460  223.0160 C   0  0  0  0  0  0  0  0  0  0  0  0
  142.6905   80.3316  221.0226 H   0  0  0  0  0  0  0  0  0  0  0  0
  143.0801   79.1144  222.2991 H   0  0  0  0  0  0  0  0  0  0  0  0
  142.2690   79.2467  218.6767 H   0  0  0  0  0  0  0  0  0  0  0  0
  143.2153   77.7571  216.9606 H   0  0  0  0  0  0  0  0  0  0  0  0
  143.4874   75.3149  217.5043 H   0  0  0  0  0  0  0  0  0  0  0  0
  144.1333   71.7993  221.5933 H   0  0  0  0  0  0  0  0  0  0  0  0
  142.8952   71.6333  220.3545 H   0  0  0  0  0  0  0  0  0  0  0  0
  145.5684   70.7896  220.1554 H   0  0  0  0  0  0  0  0  0  0  0  0
  144.4182   71.0510  218.7599 H   0  0  0  0  0  0  0  0  0  0  0  0
  146.8986   72.8781  220.7086 H   0  0  0  0  0  0  0  0  0  0  0  0
  146.8256   74.1612  219.4109 H   0  0  0  0  0  0  0  0  0  0  0  0
  145.3172   74.0474  221.8339 H   0  0  0  0  0  0  0  0  0  0  0  0
  145.1670   75.2270  220.5300 H   0  0  0  0  0  0  0  0  0  0  0  0
  141.8422   76.0073  221.4443 H   0  0  0  0  0  0  0  0  0  0  0  0
  137.5777   78.2780  221.9138 H   0  0  0  0  0  0  0  0  0  0  0  0
  136.2755   79.5950  223.5920 H   0  0  0  0  0  0  0  0  0  0  0  0
  137.1708   83.3244  224.0418 H   0  0  0  0  0  0  0  0  0  0  0  0
  135.3840   83.4134  227.9231 H   0  0  0  0  0  0  0  0  0  0  0  0
  136.0694   81.0385  228.2368 H   0  0  0  0  0  0  0  0  0  0  0  0
  139.8675   81.7441  224.5303 H   0  0  0  0  0  0  0  0  0  0  0  0
  1  2  2  0
  2  3  1  0
  3  4  1  0
  4  5  1  0
  5  6  2  0
  6  7  1  0
  7  8  2  0
  8  9  1  0
  9 10  1  0
 10 11  2  0
 10 12  1  0
 12 13  1  0
 13 14  1  0
 14 15  1  0
 15 16  1  0
 16 17  1  0
  9 18  2  0
  4 19  2  0
 19 20  1  0
 20 21  2  0
 21 22  1  0
 22 23  2  0
 23 24  1  0
 24 25  2  0
 25 26  1  0
 26 27  1  0
 26 28  2  0
 28 29  1  0
 29 30  2  0
 23 31  1  0
 31 32  2  0
 32  2  1  0
 18  5  1  0
 32 20  1  0
 17 12  1  0
 30 24  1  0
  3 33  1  0
  3 34  1  0
  6 35  1  0
  7 36  1  0
  8 37  1  0
 13 38  1  0
 13 39  1  0
 14 40  1  0
 14 41  1  0
 16 42  1  0
 16 43  1  0
 17 44  1  0
 17 45  1  0
 18 46  1  0
 21 47  1  0
 22 48  1  0
 25 49  1  0
 28 50  1  0
 29 51  1  0
 31 52  1  0
M  END
>  <smiles>  (19) 
O=C1CC(c2cccc(C(=O)N3CCOCC3)c2)=Nc2ccc(-c3cc(Cl)ccn3)cc21

>  <score_type>  (19) 
oracle

>  <origin>  (19) 
autodockgpu

>  <m_score__min__energy>  (19) 
-8.6899999999999995

>  <m_primary>  (19) 
energy

>  <rmsd>  (19) 
9.090443172731897

>  <m_score__min__rmsd>  (19) 
9.090443172731897

>  <meeko>  (19) 
{"free_energy": -8.54, "intermolecular_energy": -9.43, "internal_energy": -1.0, "cluster_size": 41, "cluster_id": 1, "rank_in_cluster": 32}

>  <energy>  (19) 
-8.65

>  <cluster_rmsd>  (19) 
0.1

>  <cluster>  (19) 
1

$$$$

     RDKit          3D

 52 56  0  0  0  0  0  0  0  0999 V2000
  142.9950   74.8300  220.2680 O   0  0  0  0  0  0  0  0  0  0  0  0
  141.9440   74.4890  220.8410 C   0  0  0  0  0  0  0  0  0  0  0  0
  141.5720   73.0540  220.8820 C   0  0  0  0  0  0  0  0  0  0  0  0
  140.3090   72.8600  221.6200 C   0  0  0  0  0  0  0  0  0  0  0  0
  139.8220   71.4840  221.8240 C   0  0  0  0  0  0  0  0  0  0  0  0
  139.2930   70.7690  220.7850 C   0  0  0  0  0  0  0  0  0  0  0  0
  138.7870   69.4980  220.9150 C   0  0  0  0  0  0  0  0  0  0  0  0
  138.8200   68.9130  222.1750 C   0  0  0  0  0  0  0  0  0  0  0  0
  139.3590   69.6340  223.2390 C   0  0  0  0  0  0  0  0  0  0  0  0
  139.3610   69.0200  224.5470 C   0  0  0  0  0  0  0  0  0  0  0  0
  139.1130   67.7690  224.6010 O   0  0  0  0  0  0  0  0  0  0  0  0
  139.6120   69.6650  225.7690 N   0  0  0  0  0  0  0  0  0  0  0  0
  139.5860   68.8600  227.0050 C   0  0  0  0  0  0  0  0  0  0  0  0
  141.0160   68.9050  227.5100 C   0  0  0  0  0  0  0  0  0  0  0  0
  141.8010   69.8520  226.8670 O   0  0  0  0  0  0  0  0  0  0  0  0
  141.2330   71.0930  226.7150 C   0  0  0  0  0  0  0  0  0  0  0  0
  139.9040   71.0630  225.9600 C   0  0  0  0  0  0  0  0  0  0  0  0
  139.8610   70.9080  223.0880 C   0  0  0  0  0  0  0  0  0  0  0  0
  139.6120   73.8030  222.1460 N   0  0  0  0  0  0  0  0  0  0  0  0
  139.9610   75.1700  222.1000 C   0  0  0  0  0  0  0  0  0  0  0  0
  139.1690   76.1130  222.6940 C   0  0  0  0  0  0  0  0  0  0  0  0
  139.4950   77.4690  222.6740 C   0  0  0  0  0  0  0  0  0  0  0  0
  140.6430   77.8260  222.0350 C   0  0  0  0  0  0  0  0  0  0  0  0
  141.0480   79.2120  222.0000 C   0  0  0  0  0  0  0  0  0  0  0  0
  141.0630   79.9840  220.8670 C   0  0  0  0  0  0  0  0  0  0  0  0
  141.4430   81.3270  220.8710 C   0  0  0  0  0  0  0  0  0  0  0  0
  141.4300   82.2410  219.3630 Cl  0  0  0  0  0  0  0  0  0  0  0  0
  141.8130   81.8800  222.0560 C   0  0  0  0  0  0  0  0  0  0  0  0
  141.7990   81.1020  223.2140 C   0  0  0  0  0  0  0  0  0  0  0  0
  141.4260   79.8100  223.1740 N   0  0  0  0  0  0  0  0  0  0  0  0
  141.4440   76.8660  221.4320 C   0  0  0  0  0  0  0  0  0  0  0  0
  141.1270   75.5200  221.4490 C   0  0  0  0  0  0  0  0  0  0  0  0
  141.4490   72.6840  219.8534 H   0  0  0  0  0  0  0  0  0  0  0  0
  142.3695   72.4980  221.3966 H   0  0  0  0  0  0  0  0  0  0  0  0
  139.2714   71.2374  219.7900 H   0  0  0  0  0  0  0  0  0  0  0  0
  138.3696   68.9614  220.0502 H   0  0  0  0  0  0  0  0  0  0  0  0
  138.4271   67.8973  222.3301 H   0  0  0  0  0  0  0  0  0  0  0  0
  138.8981   69.2996  227.7423 H   0  0  0  0  0  0  0  0  0  0  0  0
  139.2333   67.8327  226.8309 H   0  0  0  0  0  0  0  0  0  0  0  0
  140.9985   69.1390  228.5847 H   0  0  0  0  0  0  0  0  0  0  0  0
  141.4627   67.9211  227.3043 H   0  0  0  0  0  0  0  0  0  0  0  0
  141.0577   71.5210  227.7130 H   0  0  0  0  0  0  0  0  0  0  0  0
  141.9315   71.6996  226.1198 H   0  0  0  0  0  0  0  0  0  0  0  0
  139.1125   71.5454  226.5523 H   0  0  0  0  0  0  0  0  0  0  0  0
  139.9601   71.6064  225.0053 H   0  0  0  0  0  0  0  0  0  0  0  0
  140.2814   71.4546  223.9450 H   0  0  0  0  0  0  0  0  0  0  0  0
  138.2477   75.7929  223.2026 H   0  0  0  0  0  0  0  0  0  0  0  0
  138.8506   78.2196  223.1550 H   0  0  0  0  0  0  0  0  0  0  0  0
  140.7625   79.5250  219.9136 H   0  0  0  0  0  0  0  0  0  0  0  0
  142.1217   82.9348  222.1019 H   0  0  0  0  0  0  0  0  0  0  0  0
  142.0970   81.5511  224.1729 H   0  0  0  0  0  0  0  0  0  0  0  0
  142.3642   77.1875  220.9222 H   0  0  0  0  0  0  0  0  0  0  0  0
  1  2  2  0
  2  3  1  0
  3  4  1  0
  4  5  1  0
  5  6  2  0
  6  7  1  0
  7  8  2  0
  8  9  1  0
  9 10  1  0
 10 11  2  0
 10 12  1  0
 12 13  1  0
 13 14  1  0
 14 15  1  0
 15 16  1  0
 16 17  1  0
  9 18  2  0
  4 19  2  0
 19 20  1  0
 20 21  2  0
 21 22  1  0
 22 23  2  0
 23 24  1  0
 24 25  2  0
 25 26  1  0
 26 27  1  0
 26 28  2  0
 28 29  1  0
 29 30  2  0
 23 31  1  0
 31 32  2  0
 32  2  1  0
 18  5  1  0
 32 20  1  0
 17 12  1  0
 30 24  1  0
  3 33  1  0
  3 34  1  0
  6 35  1  0
  7 36  1  0
  8 37  1  0
 13 38  1  0
 13 39  1  0
 14 40  1  0
 14 41  1  0
 16 42  1  0
 16 43  1  0
 17 44  1  0
 17 45  1  0
 18 46  1  0
 21 47  1  0
 22 48  1  0
 25 49  1  0
 28 50  1  0
 29 51  1  0
 31 52  1  0
M  END
>  <smiles>  (20) 
O=C1CC(c2cccc(C(=O)N3CCOCC3)c2)=Nc2ccc(-c3cc(Cl)ccn3)cc21

>  <score_type>  (20) 
oracle

>  <origin>  (20) 
autodockgpu

>  <m_score__min__energy>  (20) 
-8.6899999999999995

>  <m_primary>  (20) 
energy

>  <rmsd>  (20) 
6.755953986246887

>  <m_score__min__rmsd>  (20) 
6.755953986246887

>  <meeko>  (20) 
{"free_energy": -8.6, "intermolecular_energy": -9.49, "internal_energy": -0.81, "cluster_size": 9, "cluster_id": 2, "rank_in_cluster": 3}

>  <energy>  (20) 
-8.65

>  <cluster_rmsd>  (20) 
0.92

>  <cluster>  (20) 
1

$$$$

     RDKit          3D

 52 56  0  0  0  0  0  0  0  0999 V2000
  141.9320   80.6290  224.0470 O   0  0  0  0  0  0  0  0  0  0  0  0
  141.3610   79.9390  223.1830 C   0  0  0  0  0  0  0  0  0  0  0  0
  142.1740   79.2230  222.1720 C   0  0  0  0  0  0  0  0  0  0  0  0
  141.3120   78.4500  221.2560 C   0  0  0  0  0  0  0  0  0  0  0  0
  141.9550   77.6140  220.2270 C   0  0  0  0  0  0  0  0  0  0  0  0
  142.3520   78.1560  219.0340 C   0  0  0  0  0  0  0  0  0  0  0  0
  142.9230   77.4270  218.0190 C   0  0  0  0  0  0  0  0  0  0  0  0
  143.1050   76.0640  218.2230 C   0  0  0  0  0  0  0  0  0  0  0  0
  142.7060   75.5050  219.4360 C   0  0  0  0  0  0  0  0  0  0  0  0
  142.8790   74.0820  219.6210 C   0  0  0  0  0  0  0  0  0  0  0  0
  141.9600   73.3220  219.1650 O   0  0  0  0  0  0  0  0  0  0  0  0
  143.9630   73.4500  220.2520 N   0  0  0  0  0  0  0  0  0  0  0  0
  143.9680   71.9770  220.3270 C   0  0  0  0  0  0  0  0  0  0  0  0
  145.1510   71.5630  219.4730 C   0  0  0  0  0  0  0  0  0  0  0  0
  145.9860   72.6190  219.1330 O   0  0  0  0  0  0  0  0  0  0  0  0
  146.3190   73.4690  220.1590 C   0  0  0  0  0  0  0  0  0  0  0  0
  145.1060   74.0940  220.8480 C   0  0  0  0  0  0  0  0  0  0  0  0
  142.1350   76.2530  220.4420 C   0  0  0  0  0  0  0  0  0  0  0  0
  140.0290   78.4110  221.3120 N   0  0  0  0  0  0  0  0  0  0  0  0
  139.2530   79.0990  222.2700 C   0  0  0  0  0  0  0  0  0  0  0  0
  137.8890   78.9970  222.2680 C   0  0  0  0  0  0  0  0  0  0  0  0
  137.1000   79.6570  223.2080 C   0  0  0  0  0  0  0  0  0  0  0  0
  137.7390   80.4150  224.1410 C   0  0  0  0  0  0  0  0  0  0  0  0
  136.9790   81.1040  225.1570 C   0  0  0  0  0  0  0  0  0  0  0  0
  135.6610   80.8510  225.4400 C   0  0  0  0  0  0  0  0  0  0  0  0
  134.9610   81.5230  226.4430 C   0  0  0  0  0  0  0  0  0  0  0  0
  133.2660   81.1290  226.7370 Cl  0  0  0  0  0  0  0  0  0  0  0  0
  135.6240   82.4680  227.1600 C   0  0  0  0  0  0  0  0  0  0  0  0
  136.9650   82.7310  226.8790 C   0  0  0  0  0  0  0  0  0  0  0  0
  137.6110   82.0630  225.9060 N   0  0  0  0  0  0  0  0  0  0  0  0
  139.1250   80.5180  224.1390 C   0  0  0  0  0  0  0  0  0  0  0  0
  139.9140   79.8650  223.2090 C   0  0  0  0  0  0  0  0  0  0  0  0
  142.7525   79.9556  221.5902 H   0  0  0  0  0  0  0  0  0  0  0  0
  142.8488   78.5269  222.6917 H   0  0  0  0  0  0  0  0  0  0  0  0
  142.2057   79.2352  218.8796 H   0  0  0  0  0  0  0  0  0  0  0  0
  143.2261   77.9060  217.0763 H   0  0  0  0  0  0  0  0  0  0  0  0
  143.5564   75.4369  217.4401 H   0  0  0  0  0  0  0  0  0  0  0  0
  144.1002   71.6400  221.3657 H   0  0  0  0  0  0  0  0  0  0  0  0
  143.0228   71.5350  219.9788 H   0  0  0  0  0  0  0  0  0  0  0  0
  145.7395   70.8195  220.0306 H   0  0  0  0  0  0  0  0  0  0  0  0
  144.7457   71.1563  218.5347 H   0  0  0  0  0  0  0  0  0  0  0  0
  146.8924   72.9033  220.9082 H   0  0  0  0  0  0  0  0  0  0  0  0
  146.9037   74.2918  219.7220 H   0  0  0  0  0  0  0  0  0  0  0  0
  145.1359   73.9030  221.9309 H   0  0  0  0  0  0  0  0  0  0  0  0
  145.0768   75.1862  220.7206 H   0  0  0  0  0  0  0  0  0  0  0  0
  141.8298   75.7856  221.3898 H   0  0  0  0  0  0  0  0  0  0  0  0
  137.4009   78.3761  221.5023 H   0  0  0  0  0  0  0  0  0  0  0  0
  136.0036   79.5690  223.1966 H   0  0  0  0  0  0  0  0  0  0  0  0
  135.1334   80.0860  224.8515 H   0  0  0  0  0  0  0  0  0  0  0  0
  135.1066   83.0221  227.9570 H   0  0  0  0  0  0  0  0  0  0  0  0
  137.5015   83.4949  227.4609 H   0  0  0  0  0  0  0  0  0  0  0  0
  139.6118   81.1408  224.9040 H   0  0  0  0  0  0  0  0  0  0  0  0
  1  2  2  0
  2  3  1  0
  3  4  1  0
  4  5  1  0
  5  6  2  0
  6  7  1  0
  7  8  2  0
  8  9  1  0
  9 10  1  0
 10 11  2  0
 10 12  1  0
 12 13  1  0
 13 14  1  0
 14 15  1  0
 15 16  1  0
 16 17  1  0
  9 18  2  0
  4 19  2  0
 19 20  1  0
 20 21  2  0
 21 22  1  0
 22 23  2  0
 23 24  1  0
 24 25  2  0
 25 26  1  0
 26 27  1  0
 26 28  2  0
 28 29  1  0
 29 30  2  0
 23 31  1  0
 31 32  2  0
 32  2  1  0
 18  5  1  0
 32 20  1  0
 17 12  1  0
 30 24  1  0
  3 33  1  0
  3 34  1  0
  6 35  1  0
  7 36  1  0
  8 37  1  0
 13 38  1  0
 13 39  1  0
 14 40  1  0
 14 41  1  0
 16 42  1  0
 16 43  1  0
 17 44  1  0
 17 45  1  0
 18 46  1  0
 21 47  1  0
 22 48  1  0
 25 49  1  0
 28 50  1  0
 29 51  1  0
 31 52  1  0
M  END
>  <smiles>  (21) 
O=C1CC(c2cccc(C(=O)N3CCOCC3)c2)=Nc2ccc(-c3cc(Cl)ccn3)cc21

>  <score_type>  (21) 
oracle

>  <origin>  (21) 
autodockgpu

>  <m_score__min__energy>  (21) 
-8.6899999999999995

>  <m_primary>  (21) 
energy

>  <rmsd>  (21) 
8.844030746719207

>  <m_score__min__rmsd>  (21) 
8.844030746719207

>  <meeko>  (21) 
{"free_energy": -8.67, "intermolecular_energy": -9.56, "internal_energy": -1.0, "cluster_size": 41, "cluster_id": 1, "rank_in_cluster": 15}

>  <energy>  (21) 
-8.65

>  <cluster_rmsd>  (21) 
0.14

>  <cluster>  (21) 
1

$$$$

     RDKit          3D

 52 56  0  0  0  0  0  0  0  0999 V2000
  142.7040   74.0210  220.8520 O   0  0  0  0  0  0  0  0  0  0  0  0
  141.5400   73.8160  221.2400 C   0  0  0  0  0  0  0  0  0  0  0  0
  141.0380   72.4240  221.3280 C   0  0  0  0  0  0  0  0  0  0  0  0
  139.6490   72.3970  221.8260 C   0  0  0  0  0  0  0  0  0  0  0  0
  139.0090   71.0880  222.0460 C   0  0  0  0  0  0  0  0  0  0  0  0
  138.0140   70.6480  221.2170 C   0  0  0  0  0  0  0  0  0  0  0  0
  137.3510   69.4570  221.3870 C   0  0  0  0  0  0  0  0  0  0  0  0
  137.7200   68.6590  222.4640 C   0  0  0  0  0  0  0  0  0  0  0  0
  138.7340   69.0980  223.3130 C   0  0  0  0  0  0  0  0  0  0  0  0
  139.0860   68.2680  224.4410 C   0  0  0  0  0  0  0  0  0  0  0  0
  139.2100   67.0160  224.2250 O   0  0  0  0  0  0  0  0  0  0  0  0
  139.3080   68.7040  225.7580 N   0  0  0  0  0  0  0  0  0  0  0  0
  139.6780   67.7000  226.7750 C   0  0  0  0  0  0  0  0  0  0  0  0
  141.0920   68.0780  227.1750 C   0  0  0  0  0  0  0  0  0  0  0  0
  141.4840   69.3270  226.7130 O   0  0  0  0  0  0  0  0  0  0  0  0
  140.5740   70.3400  226.8900 C   0  0  0  0  0  0  0  0  0  0  0  0
  139.2170   70.0570  226.2430 C   0  0  0  0  0  0  0  0  0  0  0  0
  139.3870   70.2970  223.1250 C   0  0  0  0  0  0  0  0  0  0  0  0
  138.9560   73.4360  222.1300 N   0  0  0  0  0  0  0  0  0  0  0  0
  139.4310   74.7630  222.0400 C   0  0  0  0  0  0  0  0  0  0  0  0
  138.6330   75.8160  222.3930 C   0  0  0  0  0  0  0  0  0  0  0  0
  139.0790   77.1350  222.3240 C   0  0  0  0  0  0  0  0  0  0  0  0
  140.3520   77.3420  221.8880 C   0  0  0  0  0  0  0  0  0  0  0  0
  140.8810   78.6840  221.8170 C   0  0  0  0  0  0  0  0  0  0  0  0
  141.4020   79.3660  222.8870 C   0  0  0  0  0  0  0  0  0  0  0  0
  141.9240   80.6570  222.7790 C   0  0  0  0  0  0  0  0  0  0  0  0
  142.5730   81.4560  224.2110 Cl  0  0  0  0  0  0  0  0  0  0  0  0
  141.9070   81.2510  221.5570 C   0  0  0  0  0  0  0  0  0  0  0  0
  141.3800   80.5620  220.4630 C   0  0  0  0  0  0  0  0  0  0  0  0
  140.8870   79.3190  220.6020 N   0  0  0  0  0  0  0  0  0  0  0  0
  141.1600   76.2710  221.5290 C   0  0  0  0  0  0  0  0  0  0  0  0
  140.7230   74.9600  221.5950 C   0  0  0  0  0  0  0  0  0  0  0  0
  141.0717   71.9649  220.3290 H   0  0  0  0  0  0  0  0  0  0  0  0
  141.6743   71.8640  222.0291 H   0  0  0  0  0  0  0  0  0  0  0  0
  137.7286   71.2839  220.3660 H   0  0  0  0  0  0  0  0  0  0  0  0
  136.5552   69.1453  220.6945 H   0  0  0  0  0  0  0  0  0  0  0  0
  137.2193   67.6961  222.6431 H   0  0  0  0  0  0  0  0  0  0  0  0
  139.0006   67.7531  227.6400 H   0  0  0  0  0  0  0  0  0  0  0  0
  139.6091   66.6702  226.3946 H   0  0  0  0  0  0  0  0  0  0  0  0
  141.1548   68.0778  228.2732 H   0  0  0  0  0  0  0  0  0  0  0  0
  141.7658   67.3383  226.7179 H   0  0  0  0  0  0  0  0  0  0  0  0
  140.4218   70.4874  227.9694 H   0  0  0  0  0  0  0  0  0  0  0  0
  140.9860   71.2358  226.4023 H   0  0  0  0  0  0  0  0  0  0  0  0
  138.4092   70.1482  226.9841 H   0  0  0  0  0  0  0  0  0  0  0  0
  138.9879   70.7695  225.4368 H   0  0  0  0  0  0  0  0  0  0  0  0
  140.1853   70.6192  223.8098 H   0  0  0  0  0  0  0  0  0  0  0  0
  137.6090   75.6163  222.7417 H   0  0  0  0  0  0  0  0  0  0  0  0
  138.4286   77.9747  222.6103 H   0  0  0  0  0  0  0  0  0  0  0  0
  141.4090   78.8755  223.8716 H   0  0  0  0  0  0  0  0  0  0  0  0
  142.3059   82.2683  221.4305 H   0  0  0  0  0  0  0  0  0  0  0  0
  141.3680   81.0428  219.4737 H   0  0  0  0  0  0  0  0  0  0  0  0
  142.1835   76.4722  221.1799 H   0  0  0  0  0  0  0  0  0  0  0  0
  1  2  2  0
  2  3  1  0
  3  4  1  0
  4  5  1  0
  5  6  2  0
  6  7  1  0
  7  8  2  0
  8  9  1  0
  9 10  1  0
 10 11  2  0
 10 12  1  0
 12 13  1  0
 13 14  1  0
 14 15  1  0
 15 16  1  0
 16 17  1  0
  9 18  2  0
  4 19  2  0
 19 20  1  0
 20 21  2  0
 21 22  1  0
 22 23  2  0
 23 24  1  0
 24 25  2  0
 25 26  1  0
 26 27  1  0
 26 28  2  0
 28 29  1  0
 29 30  2  0
 23 31  1  0
 31 32  2  0
 32  2  1  0
 18  5  1  0
 32 20  1  0
 17 12  1  0
 30 24  1  0
  3 33  1  0
  3 34  1  0
  6 35  1  0
  7 36  1  0
  8 37  1  0
 13 38  1  0
 13 39  1  0
 14 40  1  0
 14 41  1  0
 16 42  1  0
 16 43  1  0
 17 44  1  0
 17 45  1  0
 18 46  1  0
 21 47  1  0
 22 48  1  0
 25 49  1  0
 28 50  1  0
 29 51  1  0
 31 52  1  0
M  END
>  <smiles>  (22) 
O=C1CC(c2cccc(C(=O)N3CCOCC3)c2)=Nc2ccc(-c3cc(Cl)ccn3)cc21

>  <score_type>  (22) 
oracle

>  <origin>  (22) 
autodockgpu

>  <m_score__min__energy>  (22) 
-8.6899999999999995

>  <m_primary>  (22) 
energy

>  <rmsd>  (22) 
6.63735721612735

>  <m_score__min__rmsd>  (22) 
6.63735721612735

>  <meeko>  (22) 
{"free_energy": -8.5, "intermolecular_energy": -9.39, "internal_energy": -0.99, "cluster_size": 9, "cluster_id": 2, "rank_in_cluster": 8}

>  <energy>  (22) 
-8.65

>  <cluster_rmsd>  (22) 
0.1

>  <cluster>  (22) 
1

$$$$

     RDKit          3D

 52 56  0  0  0  0  0  0  0  0999 V2000
  141.6400   80.5600  224.2050 O   0  0  0  0  0  0  0  0  0  0  0  0
  141.1170   79.9010  223.2890 C   0  0  0  0  0  0  0  0  0  0  0  0
  141.9840   79.1950  222.3150 C   0  0  0  0  0  0  0  0  0  0  0  0
  141.1730   78.4590  221.3260 C   0  0  0  0  0  0  0  0  0  0  0  0
  141.8700   77.6380  220.3210 C   0  0  0  0  0  0  0  0  0  0  0  0
  142.3110   78.1910  219.1500 C   0  0  0  0  0  0  0  0  0  0  0  0
  142.9340   77.4750  218.1560 C   0  0  0  0  0  0  0  0  0  0  0  0
  143.1230   76.1130  218.3600 C   0  0  0  0  0  0  0  0  0  0  0  0
  142.6780   75.5420  219.5510 C   0  0  0  0  0  0  0  0  0  0  0  0
  142.8590   74.1200  219.7350 C   0  0  0  0  0  0  0  0  0  0  0  0
  141.9210   73.3580  219.3260 O   0  0  0  0  0  0  0  0  0  0  0  0
  143.9710   73.4910  220.3180 N   0  0  0  0  0  0  0  0  0  0  0  0
  143.9790   72.0180  220.4010 C   0  0  0  0  0  0  0  0  0  0  0  0
  145.1220   71.5990  219.4950 C   0  0  0  0  0  0  0  0  0  0  0  0
  145.9400   72.6530  219.1120 O   0  0  0  0  0  0  0  0  0  0  0  0
  146.3210   73.5080  220.1170 C   0  0  0  0  0  0  0  0  0  0  0  0
  145.1400   74.1370  220.8580 C   0  0  0  0  0  0  0  0  0  0  0  0
  142.0550   76.2770  220.5360 C   0  0  0  0  0  0  0  0  0  0  0  0
  139.8880   78.4400  221.2960 N   0  0  0  0  0  0  0  0  0  0  0  0
  139.0610   79.1190  222.2180 C   0  0  0  0  0  0  0  0  0  0  0  0
  137.6990   79.0400  222.1240 C   0  0  0  0  0  0  0  0  0  0  0  0
  136.8590   79.6910  223.0270 C   0  0  0  0  0  0  0  0  0  0  0  0
  137.4470   80.4160  224.0180 C   0  0  0  0  0  0  0  0  0  0  0  0
  136.6320   81.0930  224.9980 C   0  0  0  0  0  0  0  0  0  0  0  0
  136.9280   82.3210  225.5340 C   0  0  0  0  0  0  0  0  0  0  0  0
  136.1070   82.9570  226.4670 C   0  0  0  0  0  0  0  0  0  0  0  0
  136.5700   84.5370  227.1000 Cl  0  0  0  0  0  0  0  0  0  0  0  0
  134.9710   82.3200  226.8540 C   0  0  0  0  0  0  0  0  0  0  0  0
  134.6620   81.0720  226.3120 C   0  0  0  0  0  0  0  0  0  0  0  0
  135.4750   80.4880  225.4140 N   0  0  0  0  0  0  0  0  0  0  0  0
  138.8310   80.4950  224.1090 C   0  0  0  0  0  0  0  0  0  0  0  0
  139.6700   79.8510  223.2180 C   0  0  0  0  0  0  0  0  0  0  0  0
  142.6107   79.9314  221.7906 H   0  0  0  0  0  0  0  0  0  0  0  0
  142.6122   78.4753  222.8603 H   0  0  0  0  0  0  0  0  0  0  0  0
  142.1584   79.2693  218.9953 H   0  0  0  0  0  0  0  0  0  0  0  0
  143.2718   77.9633  217.2300 H   0  0  0  0  0  0  0  0  0  0  0  0
  143.6157   75.4960  217.5941 H   0  0  0  0  0  0  0  0  0  0  0  0
  144.1590   71.6867  221.4344 H   0  0  0  0  0  0  0  0  0  0  0  0
  143.0187   71.5743  220.0995 H   0  0  0  0  0  0  0  0  0  0  0  0
  145.7356   70.8582  220.0285 H   0  0  0  0  0  0  0  0  0  0  0  0
  144.6741   71.1875  218.5784 H   0  0  0  0  0  0  0  0  0  0  0  0
  146.9283   72.9459  220.8418 H   0  0  0  0  0  0  0  0  0  0  0  0
  146.8858   74.3281  219.6497 H   0  0  0  0  0  0  0  0  0  0  0  0
  145.2192   73.9510  221.9393 H   0  0  0  0  0  0  0  0  0  0  0  0
  145.1053   75.2286  220.7268 H   0  0  0  0  0  0  0  0  0  0  0  0
  141.7135   75.8002  221.4666 H   0  0  0  0  0  0  0  0  0  0  0  0
  137.2532   78.4458  221.3127 H   0  0  0  0  0  0  0  0  0  0  0  0
  135.7645   79.6215  222.9419 H   0  0  0  0  0  0  0  0  0  0  0  0
  137.8517   82.8259  225.2149 H   0  0  0  0  0  0  0  0  0  0  0  0
  134.2990   82.7853  227.5901 H   0  0  0  0  0  0  0  0  0  0  0  0
  133.7404   80.5586  226.6236 H   0  0  0  0  0  0  0  0  0  0  0  0
  139.2757   81.0915  224.9192 H   0  0  0  0  0  0  0  0  0  0  0  0
  1  2  2  0
  2  3  1  0
  3  4  1  0
  4  5  1  0
  5  6  2  0
  6  7  1  0
  7  8  2  0
  8  9  1  0
  9 10  1  0
 10 11  2  0
 10 12  1  0
 12 13  1  0
 13 14  1  0
 14 15  1  0
 15 16  1  0
 16 17  1  0
  9 18  2  0
  4 19  2  0
 19 20  1  0
 20 21  2  0
 21 22  1  0
 22 23  2  0
 23 24  1  0
 24 25  2  0
 25 26  1  0
 26 27  1  0
 26 28  2  0
 28 29  1  0
 29 30  2  0
 23 31  1  0
 31 32  2  0
 32  2  1  0
 18  5  1  0
 32 20  1  0
 17 12  1  0
 30 24  1  0
  3 33  1  0
  3 34  1  0
  6 35  1  0
  7 36  1  0
  8 37  1  0
 13 38  1  0
 13 39  1  0
 14 40  1  0
 14 41  1  0
 16 42  1  0
 16 43  1  0
 17 44  1  0
 17 45  1  0
 18 46  1  0
 21 47  1  0
 22 48  1  0
 25 49  1  0
 28 50  1  0
 29 51  1  0
 31 52  1  0
M  END
>  <smiles>  (23) 
O=C1CC(c2cccc(C(=O)N3CCOCC3)c2)=Nc2ccc(-c3cc(Cl)ccn3)cc21

>  <score_type>  (23) 
oracle

>  <origin>  (23) 
autodockgpu

>  <m_score__min__energy>  (23) 
-8.6899999999999995

>  <m_primary>  (23) 
energy

>  <rmsd>  (23) 
8.81124767792223

>  <m_score__min__rmsd>  (23) 
8.81124767792223

>  <meeko>  (23) 
{"free_energy": -8.42, "intermolecular_energy": -9.31, "internal_energy": -1.01, "cluster_size": 41, "cluster_id": 1, "rank_in_cluster": 37}

>  <energy>  (23) 
-8.64

>  <cluster_rmsd>  (23) 
1.02

>  <cluster>  (23) 
1

$$$$

     RDKit          3D

 52 56  0  0  0  0  0  0  0  0999 V2000
  141.8520   81.1930  223.8650 O   0  0  0  0  0  0  0  0  0  0  0  0
  141.2340   80.3460  223.1960 C   0  0  0  0  0  0  0  0  0  0  0  0
  141.9840   79.4660  222.2680 C   0  0  0  0  0  0  0  0  0  0  0  0
  141.0740   78.5230  221.5880 C   0  0  0  0  0  0  0  0  0  0  0  0
  141.6570   77.5210  220.6780 C   0  0  0  0  0  0  0  0  0  0  0  0
  142.1940   77.8960  219.4770 C   0  0  0  0  0  0  0  0  0  0  0  0
  142.7180   77.0100  218.5680 C   0  0  0  0  0  0  0  0  0  0  0  0
  142.7000   75.6590  218.8940 C   0  0  0  0  0  0  0  0  0  0  0  0
  142.1560   75.2690  220.1160 C   0  0  0  0  0  0  0  0  0  0  0  0
  142.1210   73.8580  220.4280 C   0  0  0  0  0  0  0  0  0  0  0  0
  143.2430   73.2530  220.5070 O   0  0  0  0  0  0  0  0  0  0  0  0
  140.9720   73.0840  220.6550 N   0  0  0  0  0  0  0  0  0  0  0  0
  141.1430   71.6540  220.9790 C   0  0  0  0  0  0  0  0  0  0  0  0
  140.6330   71.5300  222.4020 C   0  0  0  0  0  0  0  0  0  0  0  0
  139.9460   72.6520  222.8450 O   0  0  0  0  0  0  0  0  0  0  0  0
  139.0170   73.1640  221.9720 C   0  0  0  0  0  0  0  0  0  0  0  0
  139.6050   73.5390  220.6110 C   0  0  0  0  0  0  0  0  0  0  0  0
  141.6340   76.1730  221.0150 C   0  0  0  0  0  0  0  0  0  0  0  0
  139.8020   78.4750  221.7610 N   0  0  0  0  0  0  0  0  0  0  0  0
  139.0860   79.3170  222.6400 C   0  0  0  0  0  0  0  0  0  0  0  0
  137.7310   79.1950  222.7750 C   0  0  0  0  0  0  0  0  0  0  0  0
  137.0000   80.0050  223.6430 C   0  0  0  0  0  0  0  0  0  0  0  0
  137.6900   80.9340  224.3610 C   0  0  0  0  0  0  0  0  0  0  0  0
  136.9950   81.7880  225.2950 C   0  0  0  0  0  0  0  0  0  0  0  0
  136.5810   81.3930  226.5420 C   0  0  0  0  0  0  0  0  0  0  0  0
  135.9270   82.2510  227.4280 C   0  0  0  0  0  0  0  0  0  0  0  0
  135.4320   81.6540  229.0120 Cl  0  0  0  0  0  0  0  0  0  0  0  0
  135.6950   83.5280  227.0240 C   0  0  0  0  0  0  0  0  0  0  0  0
  136.1140   83.9370  225.7580 C   0  0  0  0  0  0  0  0  0  0  0  0
  136.7430   83.0850  224.9300 N   0  0  0  0  0  0  0  0  0  0  0  0
  139.0670   81.0570  224.2200 C   0  0  0  0  0  0  0  0  0  0  0  0
  139.7970   80.2550  223.3610 C   0  0  0  0  0  0  0  0  0  0  0  0
  142.4903   80.0859  221.5135 H   0  0  0  0  0  0  0  0  0  0  0  0
  142.7203   78.8894  222.8471 H   0  0  0  0  0  0  0  0  0  0  0  0
  142.2068   78.9668  219.2254 H   0  0  0  0  0  0  0  0  0  0  0  0
  143.1383   77.3582  217.6129 H   0  0  0  0  0  0  0  0  0  0  0  0
  143.1083   74.9104  218.1991 H   0  0  0  0  0  0  0  0  0  0  0  0
  140.5513   71.0261  220.2966 H   0  0  0  0  0  0  0  0  0  0  0  0
  142.1862   71.3209  220.8753 H   0  0  0  0  0  0  0  0  0  0  0  0
  139.9564   70.6643  222.4549 H   0  0  0  0  0  0  0  0  0  0  0  0
  141.5130   71.4128  223.0514 H   0  0  0  0  0  0  0  0  0  0  0  0
  138.2315   72.4097  221.8167 H   0  0  0  0  0  0  0  0  0  0  0  0
  138.6233   74.0876  222.4214 H   0  0  0  0  0  0  0  0  0  0  0  0
  139.0563   73.0358  219.8012 H   0  0  0  0  0  0  0  0  0  0  0  0
  139.5360   74.6193  220.4154 H   0  0  0  0  0  0  0  0  0  0  0  0
  141.2107   75.8371  221.9731 H   0  0  0  0  0  0  0  0  0  0  0  0
  137.2018   78.4352  222.1811 H   0  0  0  0  0  0  0  0  0  0  0  0
  135.9099   79.8980  223.7438 H   0  0  0  0  0  0  0  0  0  0  0  0
  136.7725   80.3566  226.8569 H   0  0  0  0  0  0  0  0  0  0  0  0
  135.1800   84.2346  227.6914 H   0  0  0  0  0  0  0  0  0  0  0  0
  135.9271   84.9710  225.4326 H   0  0  0  0  0  0  0  0  0  0  0  0
  139.5951   81.8188  224.8122 H   0  0  0  0  0  0  0  0  0  0  0  0
  1  2  2  0
  2  3  1  0
  3  4  1  0
  4  5  1  0
  5  6  2  0
  6  7  1  0
  7  8  2  0
  8  9  1  0
  9 10  1  0
 10 11  2  0
 10 12  1  0
 12 13  1  0
 13 14  1  0
 14 15  1  0
 15 16  1  0
 16 17  1  0
  9 18  2  0
  4 19  2  0
 19 20  1  0
 20 21  2  0
 21 22  1  0
 22 23  2  0
 23 24  1  0
 24 25  2  0
 25 26  1  0
 26 27  1  0
 26 28  2  0
 28 29  1  0
 29 30  2  0
 23 31  1  0
 31 32  2  0
 32  2  1  0
 18  5  1  0
 32 20  1  0
 17 12  1  0
 30 24  1  0
  3 33  1  0
  3 34  1  0
  6 35  1  0
  7 36  1  0
  8 37  1  0
 13 38  1  0
 13 39  1  0
 14 40  1  0
 14 41  1  0
 16 42  1  0
 16 43  1  0
 17 44  1  0
 17 45  1  0
 18 46  1  0
 21 47  1  0
 22 48  1  0
 25 49  1  0
 28 50  1  0
 29 51  1  0
 31 52  1  0
M  END
>  <smiles>  (24) 
O=C1CC(c2cccc(C(=O)N3CCOCC3)c2)=Nc2ccc(-c3cc(Cl)ccn3)cc21

>  <score_type>  (24) 
oracle

>  <origin>  (24) 
autodockgpu

>  <m_score__min__energy>  (24) 
-8.6899999999999995

>  <m_primary>  (24) 
energy

>  <rmsd>  (24) 
8.562601526346972

>  <m_score__min__rmsd>  (24) 
8.562601526346972

>  <meeko>  (24) 
{"free_energy": -8.08, "intermolecular_energy": -8.98, "internal_energy": -1.04, "cluster_size": 41, "cluster_id": 1, "rank_in_cluster": 41}

>  <energy>  (24) 
-8.64

>  <cluster_rmsd>  (24) 
0.92

>  <cluster>  (24) 
1

$$$$

     RDKit          3D

 52 56  0  0  0  0  0  0  0  0999 V2000
  141.9070   80.9070  223.8030 O   0  0  0  0  0  0  0  0  0  0  0  0
  141.3470   80.1120  223.0260 C   0  0  0  0  0  0  0  0  0  0  0  0
  142.1580   79.3920  222.0150 C   0  0  0  0  0  0  0  0  0  0  0  0
  141.3120   78.4880  221.2110 C   0  0  0  0  0  0  0  0  0  0  0  0
  141.9630   77.6350  220.2010 C   0  0  0  0  0  0  0  0  0  0  0  0
  142.3780   78.1570  219.0070 C   0  0  0  0  0  0  0  0  0  0  0  0
  142.9560   77.4110  218.0090 C   0  0  0  0  0  0  0  0  0  0  0  0
  143.1270   76.0500  218.2340 C   0  0  0  0  0  0  0  0  0  0  0  0
  142.7080   75.5100  219.4480 C   0  0  0  0  0  0  0  0  0  0  0  0
  142.8690   74.0890  219.6540 C   0  0  0  0  0  0  0  0  0  0  0  0
  141.9230   73.3330  219.2480 O   0  0  0  0  0  0  0  0  0  0  0  0
  143.9670   73.4530  220.2570 N   0  0  0  0  0  0  0  0  0  0  0  0
  143.9550   71.9810  220.3610 C   0  0  0  0  0  0  0  0  0  0  0  0
  145.1000   71.5350  219.4710 C   0  0  0  0  0  0  0  0  0  0  0  0
  145.9350   72.5720  219.0800 O   0  0  0  0  0  0  0  0  0  0  0  0
  146.3180   73.4360  220.0760 C   0  0  0  0  0  0  0  0  0  0  0  0
  145.1400   74.0920  220.7980 C   0  0  0  0  0  0  0  0  0  0  0  0
  142.1290   76.2760  220.4370 C   0  0  0  0  0  0  0  0  0  0  0  0
  140.0420   78.3500  221.3520 N   0  0  0  0  0  0  0  0  0  0  0  0
  139.2680   79.0420  222.3090 C   0  0  0  0  0  0  0  0  0  0  0  0
  137.9200   78.8310  222.4010 C   0  0  0  0  0  0  0  0  0  0  0  0
  137.1340   79.4920  223.3440 C   0  0  0  0  0  0  0  0  0  0  0  0
  137.7600   80.3650  224.1800 C   0  0  0  0  0  0  0  0  0  0  0  0
  137.0050   81.0620  225.1940 C   0  0  0  0  0  0  0  0  0  0  0  0
  135.6820   80.8270  225.4700 C   0  0  0  0  0  0  0  0  0  0  0  0
  134.9860   81.5070  226.4710 C   0  0  0  0  0  0  0  0  0  0  0  0
  133.2850   81.1370  226.7550 Cl  0  0  0  0  0  0  0  0  0  0  0  0
  135.6600   82.4400  227.1940 C   0  0  0  0  0  0  0  0  0  0  0  0
  137.0060   82.6840  226.9200 C   0  0  0  0  0  0  0  0  0  0  0  0
  137.6470   82.0090  225.9490 N   0  0  0  0  0  0  0  0  0  0  0  0
  139.1290   80.5780  224.0820 C   0  0  0  0  0  0  0  0  0  0  0  0
  139.9160   79.9250  223.1500 C   0  0  0  0  0  0  0  0  0  0  0  0
  142.6374   80.1246  221.3490 H   0  0  0  0  0  0  0  0  0  0  0  0
  142.9191   78.7923  222.5357 H   0  0  0  0  0  0  0  0  0  0  0  0
  142.2412   79.2350  218.8363 H   0  0  0  0  0  0  0  0  0  0  0  0
  143.2729   77.8751  217.0634 H   0  0  0  0  0  0  0  0  0  0  0  0
  143.5857   75.4098  217.4660 H   0  0  0  0  0  0  0  0  0  0  0  0
  144.1219   71.6621  221.4004 H   0  0  0  0  0  0  0  0  0  0  0  0
  142.9916   71.5453  220.0577 H   0  0  0  0  0  0  0  0  0  0  0  0
  145.6993   70.7940  220.0202 H   0  0  0  0  0  0  0  0  0  0  0  0
  144.6542   71.1169  218.5564 H   0  0  0  0  0  0  0  0  0  0  0  0
  146.9112   72.8762  220.8141 H   0  0  0  0  0  0  0  0  0  0  0  0
  146.8973   74.2418  219.6016 H   0  0  0  0  0  0  0  0  0  0  0  0
  145.2077   73.9210  221.8825 H   0  0  0  0  0  0  0  0  0  0  0  0
  145.1211   75.1820  220.6511 H   0  0  0  0  0  0  0  0  0  0  0  0
  141.8073   75.8238  221.3867 H   0  0  0  0  0  0  0  0  0  0  0  0
  137.4422   78.1195  221.7114 H   0  0  0  0  0  0  0  0  0  0  0  0
  136.0503   79.3149  223.4098 H   0  0  0  0  0  0  0  0  0  0  0  0
  135.1467   80.0705  224.8773 H   0  0  0  0  0  0  0  0  0  0  0  0
  135.1473   82.9993  227.9904 H   0  0  0  0  0  0  0  0  0  0  0  0
  137.5506   83.4389  227.5061 H   0  0  0  0  0  0  0  0  0  0  0  0
  139.6049   81.2919  224.7704 H   0  0  0  0  0  0  0  0  0  0  0  0
  1  2  2  0
  2  3  1  0
  3  4  1  0
  4  5  1  0
  5  6  2  0
  6  7  1  0
  7  8  2  0
  8  9  1  0
  9 10  1  0
 10 11  2  0
 10 12  1  0
 12 13  1  0
 13 14  1  0
 14 15  1  0
 15 16  1  0
 16 17  1  0
  9 18  2  0
  4 19  2  0
 19 20  1  0
 20 21  2  0
 21 22  1  0
 22 23  2  0
 23 24  1  0
 24 25  2  0
 25 26  1  0
 26 27  1  0
 26 28  2  0
 28 29  1  0
 29 30  2  0
 23 31  1  0
 31 32  2  0
 32  2  1  0
 18  5  1  0
 32 20  1  0
 17 12  1  0
 30 24  1  0
  3 33  1  0
  3 34  1  0
  6 35  1  0
  7 36  1  0
  8 37  1  0
 13 38  1  0
 13 39  1  0
 14 40  1  0
 14 41  1  0
 16 42  1  0
 16 43  1  0
 17 44  1  0
 17 45  1  0
 18 46  1  0
 21 47  1  0
 22 48  1  0
 25 49  1  0
 28 50  1  0
 29 51  1  0
 31 52  1  0
M  END
>  <smiles>  (25) 
O=C1CC(c2cccc(C(=O)N3CCOCC3)c2)=Nc2ccc(-c3cc(Cl)ccn3)cc21

>  <score_type>  (25) 
oracle

>  <origin>  (25) 
autodockgpu

>  <m_score__min__energy>  (25) 
-8.6899999999999995

>  <m_primary>  (25) 
energy

>  <rmsd>  (25) 
8.910324803473713

>  <m_score__min__rmsd>  (25) 
8.910324803473713

>  <meeko>  (25) 
{"free_energy": -8.67, "intermolecular_energy": -9.56, "internal_energy": -1.0, "cluster_size": 41, "cluster_id": 1, "rank_in_cluster": 14}

>  <energy>  (25) 
-8.64

>  <cluster_rmsd>  (25) 
1.02

>  <cluster>  (25) 
1

$$$$

     RDKit          3D

 52 56  0  0  0  0  0  0  0  0999 V2000
  141.9100   80.9040  223.8530 O   0  0  0  0  0  0  0  0  0  0  0  0
  141.3470   80.1220  223.0650 C   0  0  0  0  0  0  0  0  0  0  0  0
  142.1570   79.3990  222.0560 C   0  0  0  0  0  0  0  0  0  0  0  0
  141.3080   78.5120  221.2380 C   0  0  0  0  0  0  0  0  0  0  0  0
  141.9560   77.6580  220.2270 C   0  0  0  0  0  0  0  0  0  0  0  0
  142.3680   78.1790  219.0320 C   0  0  0  0  0  0  0  0  0  0  0  0
  142.9440   77.4320  218.0330 C   0  0  0  0  0  0  0  0  0  0  0  0
  143.1160   76.0720  218.2580 C   0  0  0  0  0  0  0  0  0  0  0  0
  142.7020   75.5320  219.4750 C   0  0  0  0  0  0  0  0  0  0  0  0
  142.8640   74.1120  219.6820 C   0  0  0  0  0  0  0  0  0  0  0  0
  141.9230   73.3540  219.2690 O   0  0  0  0  0  0  0  0  0  0  0  0
  143.9600   73.4790  220.2920 N   0  0  0  0  0  0  0  0  0  0  0  0
  143.9500   72.0070  220.3960 C   0  0  0  0  0  0  0  0  0  0  0  0
  145.1020   71.5630  219.5140 C   0  0  0  0  0  0  0  0  0  0  0  0
  145.9380   72.6030  219.1290 O   0  0  0  0  0  0  0  0  0  0  0  0
  146.3120   73.4670  220.1270 C   0  0  0  0  0  0  0  0  0  0  0  0
  145.1270   74.1210  220.8410 C   0  0  0  0  0  0  0  0  0  0  0  0
  142.1250   76.2990  220.4640 C   0  0  0  0  0  0  0  0  0  0  0  0
  140.0350   78.3890  221.3670 N   0  0  0  0  0  0  0  0  0  0  0  0
  139.2610   79.0820  222.3220 C   0  0  0  0  0  0  0  0  0  0  0  0
  137.9100   78.8880  222.4020 C   0  0  0  0  0  0  0  0  0  0  0  0
  137.1240   79.5510  223.3430 C   0  0  0  0  0  0  0  0  0  0  0  0
  137.7540   80.4100  224.1910 C   0  0  0  0  0  0  0  0  0  0  0  0
  136.9990   81.1100  225.2030 C   0  0  0  0  0  0  0  0  0  0  0  0
  135.6760   80.8760  225.4800 C   0  0  0  0  0  0  0  0  0  0  0  0
  134.9800   81.5570  226.4790 C   0  0  0  0  0  0  0  0  0  0  0  0
  133.2780   81.1890  226.7630 Cl  0  0  0  0  0  0  0  0  0  0  0  0
  135.6540   82.4910  227.2010 C   0  0  0  0  0  0  0  0  0  0  0  0
  137.0000   82.7340  226.9270 C   0  0  0  0  0  0  0  0  0  0  0  0
  137.6410   82.0570  225.9570 N   0  0  0  0  0  0  0  0  0  0  0  0
  139.1260   80.6070  224.1060 C   0  0  0  0  0  0  0  0  0  0  0  0
  139.9120   79.9510  223.1760 C   0  0  0  0  0  0  0  0  0  0  0  0
  142.6515   80.1303  221.3997 H   0  0  0  0  0  0  0  0  0  0  0  0
  142.9052   78.7855  222.5793 H   0  0  0  0  0  0  0  0  0  0  0  0
  142.2306   79.2569  218.8607 H   0  0  0  0  0  0  0  0  0  0  0  0
  143.2586   77.8955  217.0863 H   0  0  0  0  0  0  0  0  0  0  0  0
  143.5715   75.4314  217.4884 H   0  0  0  0  0  0  0  0  0  0  0  0
  144.1102   71.6884  221.4366 H   0  0  0  0  0  0  0  0  0  0  0  0
  142.9895   71.5695  220.0860 H   0  0  0  0  0  0  0  0  0  0  0  0
  145.6990   70.8231  220.0673 H   0  0  0  0  0  0  0  0  0  0  0  0
  144.6638   71.1436  218.5963 H   0  0  0  0  0  0  0  0  0  0  0  0
  146.9010   72.9083  220.8692 H   0  0  0  0  0  0  0  0  0  0  0  0
  146.8931   74.2740  219.6568 H   0  0  0  0  0  0  0  0  0  0  0  0
  145.1875   73.9506  221.9260 H   0  0  0  0  0  0  0  0  0  0  0  0
  145.1065   75.2109  220.6939 H   0  0  0  0  0  0  0  0  0  0  0  0
  141.8068   75.8477  221.4154 H   0  0  0  0  0  0  0  0  0  0  0  0
  137.4291   78.1879  221.7030 H   0  0  0  0  0  0  0  0  0  0  0  0
  136.0377   79.3867  223.3983 H   0  0  0  0  0  0  0  0  0  0  0  0
  135.1407   80.1185  224.8887 H   0  0  0  0  0  0  0  0  0  0  0  0
  135.1412   83.0517  227.9964 H   0  0  0  0  0  0  0  0  0  0  0  0
  137.5448   83.4896  227.5121 H   0  0  0  0  0  0  0  0  0  0  0  0
  139.6049   81.3101  224.8034 H   0  0  0  0  0  0  0  0  0  0  0  0
  1  2  2  0
  2  3  1  0
  3  4  1  0
  4  5  1  0
  5  6  2  0
  6  7  1  0
  7  8  2  0
  8  9  1  0
  9 10  1  0
 10 11  2  0
 10 12  1  0
 12 13  1  0
 13 14  1  0
 14 15  1  0
 15 16  1  0
 16 17  1  0
  9 18  2  0
  4 19  2  0
 19 20  1  0
 20 21  2  0
 21 22  1  0
 22 23  2  0
 23 24  1  0
 24 25  2  0
 25 26  1  0
 26 27  1  0
 26 28  2  0
 28 29  1  0
 29 30  2  0
 23 31  1  0
 31 32  2  0
 32  2  1  0
 18  5  1  0
 32 20  1  0
 17 12  1  0
 30 24  1  0
  3 33  1  0
  3 34  1  0
  6 35  1  0
  7 36  1  0
  8 37  1  0
 13 38  1  0
 13 39  1  0
 14 40  1  0
 14 41  1  0
 16 42  1  0
 16 43  1  0
 17 44  1  0
 17 45  1  0
 18 46  1  0
 21 47  1  0
 22 48  1  0
 25 49  1  0
 28 50  1  0
 29 51  1  0
 31 52  1  0
M  END
>  <smiles>  (26) 
O=C1CC(c2cccc(C(=O)N3CCOCC3)c2)=Nc2ccc(-c3cc(Cl)ccn3)cc21

>  <score_type>  (26) 
oracle

>  <origin>  (26) 
autodockgpu

>  <m_score__min__energy>  (26) 
-8.6899999999999995

>  <m_primary>  (26) 
energy

>  <rmsd>  (26) 
8.912946819846224

>  <m_score__min__rmsd>  (26) 
8.912946819846224

>  <meeko>  (26) 
{"free_energy": -8.69, "intermolecular_energy": -9.58, "internal_energy": -1.0, "cluster_size": 41, "cluster_id": 1, "rank_in_cluster": 6}

>  <energy>  (26) 
-8.63

>  <cluster_rmsd>  (26) 
0.94

>  <cluster>  (26) 
1

$$$$

     RDKit          3D

 52 56  0  0  0  0  0  0  0  0999 V2000
  141.9320   80.7710  223.9670 O   0  0  0  0  0  0  0  0  0  0  0  0
  141.3620   80.0390  223.1380 C   0  0  0  0  0  0  0  0  0  0  0  0
  142.1720   79.3190  222.1260 C   0  0  0  0  0  0  0  0  0  0  0  0
  141.3120   78.4940  221.2550 C   0  0  0  0  0  0  0  0  0  0  0  0
  141.9550   77.6490  220.2340 C   0  0  0  0  0  0  0  0  0  0  0  0
  142.3540   78.1800  219.0380 C   0  0  0  0  0  0  0  0  0  0  0  0
  142.9250   77.4420  218.0290 C   0  0  0  0  0  0  0  0  0  0  0  0
  143.1050   76.0810  218.2450 C   0  0  0  0  0  0  0  0  0  0  0  0
  142.7030   75.5320  219.4610 C   0  0  0  0  0  0  0  0  0  0  0  0
  142.8730   74.1110  219.6580 C   0  0  0  0  0  0  0  0  0  0  0  0
  141.9450   73.3500  219.2230 O   0  0  0  0  0  0  0  0  0  0  0  0
  143.9630   73.4810  220.2790 N   0  0  0  0  0  0  0  0  0  0  0  0
  143.9640   72.0080  220.3700 C   0  0  0  0  0  0  0  0  0  0  0  0
  145.1330   71.5810  219.5020 C   0  0  0  0  0  0  0  0  0  0  0  0
  145.9660   72.6300  219.1400 O   0  0  0  0  0  0  0  0  0  0  0  0
  146.3180   73.4880  220.1520 C   0  0  0  0  0  0  0  0  0  0  0  0
  145.1170   74.1260  220.8520 C   0  0  0  0  0  0  0  0  0  0  0  0
  142.1320   76.2900  220.4600 C   0  0  0  0  0  0  0  0  0  0  0  0
  140.0320   78.4180  221.3450 N   0  0  0  0  0  0  0  0  0  0  0  0
  139.2590   79.1100  222.3030 C   0  0  0  0  0  0  0  0  0  0  0  0
  137.9000   78.9660  222.3390 C   0  0  0  0  0  0  0  0  0  0  0  0
  137.1130   79.6290  223.2800 C   0  0  0  0  0  0  0  0  0  0  0  0
  137.7520   80.4330  224.1740 C   0  0  0  0  0  0  0  0  0  0  0  0
  136.9960   81.1280  225.1900 C   0  0  0  0  0  0  0  0  0  0  0  0
  135.6750   80.8860  225.4700 C   0  0  0  0  0  0  0  0  0  0  0  0
  134.9790   81.5630  226.4730 C   0  0  0  0  0  0  0  0  0  0  0  0
  133.2810   81.1840  226.7620 Cl  0  0  0  0  0  0  0  0  0  0  0  0
  135.6500   82.5010  227.1920 C   0  0  0  0  0  0  0  0  0  0  0  0
  136.9940   82.7520  226.9140 C   0  0  0  0  0  0  0  0  0  0  0  0
  137.6350   82.0790  225.9410 N   0  0  0  0  0  0  0  0  0  0  0  0
  139.1330   80.5770  224.1340 C   0  0  0  0  0  0  0  0  0  0  0  0
  139.9190   79.9230  223.2030 C   0  0  0  0  0  0  0  0  0  0  0  0
  142.7124   80.0520  221.5090 H   0  0  0  0  0  0  0  0  0  0  0  0
  142.8813   78.6593  222.6472 H   0  0  0  0  0  0  0  0  0  0  0  0
  142.2097   79.2582  218.8748 H   0  0  0  0  0  0  0  0  0  0  0  0
  143.2293   77.9126  217.0825 H   0  0  0  0  0  0  0  0  0  0  0  0
  143.5577   75.4471  217.4683 H   0  0  0  0  0  0  0  0  0  0  0  0
  144.1110   71.6817  221.4101 H   0  0  0  0  0  0  0  0  0  0  0  0
  143.0121   71.5654  220.0414 H   0  0  0  0  0  0  0  0  0  0  0  0
  145.7270   70.8405  220.0577 H   0  0  0  0  0  0  0  0  0  0  0  0
  144.7124   71.1668  218.5738 H   0  0  0  0  0  0  0  0  0  0  0  0
  146.8993   72.9270  220.8985 H   0  0  0  0  0  0  0  0  0  0  0  0
  146.9008   74.3034  219.6987 H   0  0  0  0  0  0  0  0  0  0  0  0
  145.1615   73.9461  221.9363 H   0  0  0  0  0  0  0  0  0  0  0  0
  145.0908   75.2170  220.7137 H   0  0  0  0  0  0  0  0  0  0  0  0
  141.8245   75.8311  221.4112 H   0  0  0  0  0  0  0  0  0  0  0  0
  137.4131   78.3079  221.6042 H   0  0  0  0  0  0  0  0  0  0  0  0
  136.0199   79.5074  223.2993 H   0  0  0  0  0  0  0  0  0  0  0  0
  135.1418   80.1265  224.8793 H   0  0  0  0  0  0  0  0  0  0  0  0
  135.1364   83.0592  227.9886 H   0  0  0  0  0  0  0  0  0  0  0  0
  137.5367   83.5100  227.4979 H   0  0  0  0  0  0  0  0  0  0  0  0
  139.6189   81.2350  224.8694 H   0  0  0  0  0  0  0  0  0  0  0  0
  1  2  2  0
  2  3  1  0
  3  4  1  0
  4  5  1  0
  5  6  2  0
  6  7  1  0
  7  8  2  0
  8  9  1  0
  9 10  1  0
 10 11  2  0
 10 12  1  0
 12 13  1  0
 13 14  1  0
 14 15  1  0
 15 16  1  0
 16 17  1  0
  9 18  2  0
  4 19  2  0
 19 20  1  0
 20 21  2  0
 21 22  1  0
 22 23  2  0
 23 24  1  0
 24 25  2  0
 25 26  1  0
 26 27  1  0
 26 28  2  0
 28 29  1  0
 29 30  2  0
 23 31  1  0
 31 32  2  0
 32  2  1  0
 18  5  1  0
 32 20  1  0
 17 12  1  0
 30 24  1  0
  3 33  1  0
  3 34  1  0
  6 35  1  0
  7 36  1  0
  8 37  1  0
 13 38  1  0
 13 39  1  0
 14 40  1  0
 14 41  1  0
 16 42  1  0
 16 43  1  0
 17 44  1  0
 17 45  1  0
 18 46  1  0
 21 47  1  0
 22 48  1  0
 25 49  1  0
 28 50  1  0
 29 51  1  0
 31 52  1  0
M  END
>  <smiles>  (27) 
O=C1CC(c2cccc(C(=O)N3CCOCC3)c2)=Nc2ccc(-c3cc(Cl)ccn3)cc21

>  <score_type>  (27) 
oracle

>  <origin>  (27) 
autodockgpu

>  <m_score__min__energy>  (27) 
-8.6899999999999995

>  <m_primary>  (27) 
energy

>  <rmsd>  (27) 
8.884374659119594

>  <m_score__min__rmsd>  (27) 
8.884374659119594

>  <meeko>  (27) 
{"free_energy": -8.68, "intermolecular_energy": -9.58, "internal_energy": -1.0, "cluster_size": 41, "cluster_id": 1, "rank_in_cluster": 12}

>  <energy>  (27) 
-8.63

>  <cluster_rmsd>  (27) 
0.18

>  <cluster>  (27) 
1

$$$$

     RDKit          3D

 52 56  0  0  0  0  0  0  0  0999 V2000
  141.9300   80.9300  223.8220 O   0  0  0  0  0  0  0  0  0  0  0  0
  141.3670   80.1340  223.0480 C   0  0  0  0  0  0  0  0  0  0  0  0
  142.1750   79.4100  222.0380 C   0  0  0  0  0  0  0  0  0  0  0  0
  141.3260   78.5060  221.2370 C   0  0  0  0  0  0  0  0  0  0  0  0
  141.9730   77.6490  220.2280 C   0  0  0  0  0  0  0  0  0  0  0  0
  142.3820   78.1670  219.0300 C   0  0  0  0  0  0  0  0  0  0  0  0
  142.9570   77.4170  218.0320 C   0  0  0  0  0  0  0  0  0  0  0  0
  143.1310   76.0570  218.2620 C   0  0  0  0  0  0  0  0  0  0  0  0
  142.7190   75.5220  219.4820 C   0  0  0  0  0  0  0  0  0  0  0  0
  142.8840   74.1020  219.6930 C   0  0  0  0  0  0  0  0  0  0  0  0
  141.9360   73.3430  219.2980 O   0  0  0  0  0  0  0  0  0  0  0  0
  143.9870   73.4710  220.2900 N   0  0  0  0  0  0  0  0  0  0  0  0
  143.9780   72.0000  220.4020 C   0  0  0  0  0  0  0  0  0  0  0  0
  145.1160   71.5500  219.5060 C   0  0  0  0  0  0  0  0  0  0  0  0
  145.9470   72.5870  219.1020 O   0  0  0  0  0  0  0  0  0  0  0  0
  146.3370   73.4560  220.0910 C   0  0  0  0  0  0  0  0  0  0  0  0
  145.1630   74.1140  220.8190 C   0  0  0  0  0  0  0  0  0  0  0  0
  142.1440   76.2910  220.4690 C   0  0  0  0  0  0  0  0  0  0  0  0
  140.0570   78.3710  221.3800 N   0  0  0  0  0  0  0  0  0  0  0  0
  139.2850   79.0660  222.3370 C   0  0  0  0  0  0  0  0  0  0  0  0
  137.9370   78.8570  222.4330 C   0  0  0  0  0  0  0  0  0  0  0  0
  137.1530   79.5220  223.3750 C   0  0  0  0  0  0  0  0  0  0  0  0
  137.7830   80.3960  224.2080 C   0  0  0  0  0  0  0  0  0  0  0  0
  137.0310   81.0970  225.2220 C   0  0  0  0  0  0  0  0  0  0  0  0
  135.7110   80.8580  225.5070 C   0  0  0  0  0  0  0  0  0  0  0  0
  135.0180   81.5420  226.5080 C   0  0  0  0  0  0  0  0  0  0  0  0
  133.3200   81.1670  226.8040 Cl  0  0  0  0  0  0  0  0  0  0  0  0
  135.6920   82.4830  227.2210 C   0  0  0  0  0  0  0  0  0  0  0  0
  137.0360   82.7300  226.9370 C   0  0  0  0  0  0  0  0  0  0  0  0
  137.6730   82.0510  225.9670 N   0  0  0  0  0  0  0  0  0  0  0  0
  139.1520   80.6060  224.1080 C   0  0  0  0  0  0  0  0  0  0  0  0
  139.9360   79.9500  223.1750 C   0  0  0  0  0  0  0  0  0  0  0  0
  142.6552   80.1400  221.3698 H   0  0  0  0  0  0  0  0  0  0  0  0
  142.9353   78.8098  222.5592 H   0  0  0  0  0  0  0  0  0  0  0  0
  142.2430   79.2441  218.8555 H   0  0  0  0  0  0  0  0  0  0  0  0
  143.2691   77.8775  217.0830 H   0  0  0  0  0  0  0  0  0  0  0  0
  143.5861   75.4138  217.4944 H   0  0  0  0  0  0  0  0  0  0  0  0
  144.1534   71.6871  221.4419 H   0  0  0  0  0  0  0  0  0  0  0  0
  143.0128   71.5617  220.1083 H   0  0  0  0  0  0  0  0  0  0  0  0
  145.7207   70.8131  220.0549 H   0  0  0  0  0  0  0  0  0  0  0  0
  144.6638   71.1254  218.5976 H   0  0  0  0  0  0  0  0  0  0  0  0
  146.9365   72.9003  220.8271 H   0  0  0  0  0  0  0  0  0  0  0  0
  146.9121   74.2602  219.6087 H   0  0  0  0  0  0  0  0  0  0  0  0
  145.2391   73.9482  221.9038 H   0  0  0  0  0  0  0  0  0  0  0  0
  145.1414   75.2032  220.6671 H   0  0  0  0  0  0  0  0  0  0  0  0
  141.8285   75.8425  221.4226 H   0  0  0  0  0  0  0  0  0  0  0  0
  137.4571   78.1434  221.7470 H   0  0  0  0  0  0  0  0  0  0  0  0
  136.0690   79.3476  223.4426 H   0  0  0  0  0  0  0  0  0  0  0  0
  135.1755   80.0954  224.9225 H   0  0  0  0  0  0  0  0  0  0  0  0
  135.1816   83.0459  228.0163 H   0  0  0  0  0  0  0  0  0  0  0  0
  137.5816   83.4906  227.5147 H   0  0  0  0  0  0  0  0  0  0  0  0
  139.6305   81.3194  224.7950 H   0  0  0  0  0  0  0  0  0  0  0  0
  1  2  2  0
  2  3  1  0
  3  4  1  0
  4  5  1  0
  5  6  2  0
  6  7  1  0
  7  8  2  0
  8  9  1  0
  9 10  1  0
 10 11  2  0
 10 12  1  0
 12 13  1  0
 13 14  1  0
 14 15  1  0
 15 16  1  0
 16 17  1  0
  9 18  2  0
  4 19  2  0
 19 20  1  0
 20 21  2  0
 21 22  1  0
 22 23  2  0
 23 24  1  0
 24 25  2  0
 25 26  1  0
 26 27  1  0
 26 28  2  0
 28 29  1  0
 29 30  2  0
 23 31  1  0
 31 32  2  0
 32  2  1  0
 18  5  1  0
 32 20  1  0
 17 12  1  0
 30 24  1  0
  3 33  1  0
  3 34  1  0
  6 35  1  0
  7 36  1  0
  8 37  1  0
 13 38  1  0
 13 39  1  0
 14 40  1  0
 14 41  1  0
 16 42  1  0
 16 43  1  0
 17 44  1  0
 17 45  1  0
 18 46  1  0
 21 47  1  0
 22 48  1  0
 25 49  1  0
 28 50  1  0
 29 51  1  0
 31 52  1  0
M  END
>  <smiles>  (28) 
O=C1CC(c2cccc(C(=O)N3CCOCC3)c2)=Nc2ccc(-c3cc(Cl)ccn3)cc21

>  <score_type>  (28) 
oracle

>  <origin>  (28) 
autodockgpu

>  <m_score__min__energy>  (28) 
-8.6899999999999995

>  <m_primary>  (28) 
energy

>  <rmsd>  (28) 
8.920493934215434

>  <m_score__min__rmsd>  (28) 
8.920493934215434

>  <meeko>  (28) 
{"free_energy": -8.69, "intermolecular_energy": -9.58, "internal_energy": -1.0, "cluster_size": 41, "cluster_id": 1, "rank_in_cluster": 11}

>  <energy>  (28) 
-8.63

>  <cluster_rmsd>  (28) 
0.91

>  <cluster>  (28) 
1

$$$$

     RDKit          3D

 52 56  0  0  0  0  0  0  0  0999 V2000
  142.1410   80.7900  223.8980 O   0  0  0  0  0  0  0  0  0  0  0  0
  141.5360   80.1500  223.0190 C   0  0  0  0  0  0  0  0  0  0  0  0
  142.3090   79.3190  222.0660 C   0  0  0  0  0  0  0  0  0  0  0  0
  141.4080   78.6290  221.1210 C   0  0  0  0  0  0  0  0  0  0  0  0
  141.9990   77.6990  220.1430 C   0  0  0  0  0  0  0  0  0  0  0  0
  142.3700   78.1340  218.9000 C   0  0  0  0  0  0  0  0  0  0  0  0
  142.8910   77.3130  217.9300 C   0  0  0  0  0  0  0  0  0  0  0  0
  143.0480   75.9660  218.2360 C   0  0  0  0  0  0  0  0  0  0  0  0
  142.6750   75.5150  219.5010 C   0  0  0  0  0  0  0  0  0  0  0  0
  142.8210   74.1070  219.7930 C   0  0  0  0  0  0  0  0  0  0  0  0
  141.8400   73.3480  219.4920 O   0  0  0  0  0  0  0  0  0  0  0  0
  143.9400   73.4890  220.3750 N   0  0  0  0  0  0  0  0  0  0  0  0
  143.9070   72.0280  220.5790 C   0  0  0  0  0  0  0  0  0  0  0  0
  144.9900   71.4980  219.6590 C   0  0  0  0  0  0  0  0  0  0  0  0
  145.8210   72.4880  219.1520 O   0  0  0  0  0  0  0  0  0  0  0  0
  146.2760   73.4080  220.0650 C   0  0  0  0  0  0  0  0  0  0  0  0
  145.1530   74.1360  220.8050 C   0  0  0  0  0  0  0  0  0  0  0  0
  142.1540   76.3550  220.4610 C   0  0  0  0  0  0  0  0  0  0  0  0
  140.1280   78.7410  221.1110 N   0  0  0  0  0  0  0  0  0  0  0  0
  139.3920   79.5380  222.0140 C   0  0  0  0  0  0  0  0  0  0  0  0
  138.0270   79.5960  221.9430 C   0  0  0  0  0  0  0  0  0  0  0  0
  137.2750   80.3670  222.8280 C   0  0  0  0  0  0  0  0  0  0  0  0
  137.9520   81.0690  223.7780 C   0  0  0  0  0  0  0  0  0  0  0  0
  137.2290   81.8670  224.7390 C   0  0  0  0  0  0  0  0  0  0  0  0
  136.9110   81.4490  226.0070 C   0  0  0  0  0  0  0  0  0  0  0  0
  136.2260   82.2540  226.9190 C   0  0  0  0  0  0  0  0  0  0  0  0
  135.8620   81.6310  228.5280 Cl  0  0  0  0  0  0  0  0  0  0  0  0
  135.8630   83.5020  226.5200 C   0  0  0  0  0  0  0  0  0  0  0  0
  136.1840   83.9340  225.2330 C   0  0  0  0  0  0  0  0  0  0  0  0
  136.8470   83.1330  224.3800 N   0  0  0  0  0  0  0  0  0  0  0  0
  139.3390   81.0090  223.8460 C   0  0  0  0  0  0  0  0  0  0  0  0
  140.0910   80.2460  222.9710 C   0  0  0  0  0  0  0  0  0  0  0  0
  142.9980   79.9644  221.5014 H   0  0  0  0  0  0  0  0  0  0  0  0
  142.8710   78.5625  222.6333 H   0  0  0  0  0  0  0  0  0  0  0  0
  142.2439   79.2010  218.6643 H   0  0  0  0  0  0  0  0  0  0  0  0
  143.1747   77.7083  216.9435 H   0  0  0  0  0  0  0  0  0  0  0  0
  143.4597   75.2679  217.4923 H   0  0  0  0  0  0  0  0  0  0  0  0
  144.1274   71.7755  221.6267 H   0  0  0  0  0  0  0  0  0  0  0  0
  142.9199   71.5948  220.3603 H   0  0  0  0  0  0  0  0  0  0  0  0
  145.6058   70.7819  220.2229 H   0  0  0  0  0  0  0  0  0  0  0  0
  144.4847   71.0300  218.8013 H   0  0  0  0  0  0  0  0  0  0  0  0
  146.8998   72.8855  220.8052 H   0  0  0  0  0  0  0  0  0  0  0  0
  146.8422   74.1676  219.5060 H   0  0  0  0  0  0  0  0  0  0  0  0
  145.2792   74.0361  221.8931 H   0  0  0  0  0  0  0  0  0  0  0  0
  145.1456   75.2139  220.5856 H   0  0  0  0  0  0  0  0  0  0  0  0
  141.8686   75.9723  221.4520 H   0  0  0  0  0  0  0  0  0  0  0  0
  137.5077   79.0174  221.1648 H   0  0  0  0  0  0  0  0  0  0  0  0
  136.1777   80.4067  222.7614 H   0  0  0  0  0  0  0  0  0  0  0  0
  137.2085   80.4367  226.3179 H   0  0  0  0  0  0  0  0  0  0  0  0
  135.3197   84.1668  227.2076 H   0  0  0  0  0  0  0  0  0  0  0  0
  135.8907   84.9442  224.9113 H   0  0  0  0  0  0  0  0  0  0  0  0
  139.8573   81.5892  224.6236 H   0  0  0  0  0  0  0  0  0  0  0  0
  1  2  2  0
  2  3  1  0
  3  4  1  0
  4  5  1  0
  5  6  2  0
  6  7  1  0
  7  8  2  0
  8  9  1  0
  9 10  1  0
 10 11  2  0
 10 12  1  0
 12 13  1  0
 13 14  1  0
 14 15  1  0
 15 16  1  0
 16 17  1  0
  9 18  2  0
  4 19  2  0
 19 20  1  0
 20 21  2  0
 21 22  1  0
 22 23  2  0
 23 24  1  0
 24 25  2  0
 25 26  1  0
 26 27  1  0
 26 28  2  0
 28 29  1  0
 29 30  2  0
 23 31  1  0
 31 32  2  0
 32  2  1  0
 18  5  1  0
 32 20  1  0
 17 12  1  0
 30 24  1  0
  3 33  1  0
  3 34  1  0
  6 35  1  0
  7 36  1  0
  8 37  1  0
 13 38  1  0
 13 39  1  0
 14 40  1  0
 14 41  1  0
 16 42  1  0
 16 43  1  0
 17 44  1  0
 17 45  1  0
 18 46  1  0
 21 47  1  0
 22 48  1  0
 25 49  1  0
 28 50  1  0
 29 51  1  0
 31 52  1  0
M  END
>  <smiles>  (29) 
O=C1CC(c2cccc(C(=O)N3CCOCC3)c2)=Nc2ccc(-c3cc(Cl)ccn3)cc21

>  <score_type>  (29) 
oracle

>  <origin>  (29) 
autodockgpu

>  <m_score__min__energy>  (29) 
-8.6899999999999995

>  <m_primary>  (29) 
energy

>  <rmsd>  (29) 
9.013047183679543

>  <m_score__min__rmsd>  (29) 
9.013047183679543

>  <meeko>  (29) 
{"free_energy": -8.63, "intermolecular_energy": -9.52, "internal_energy": -1.0, "cluster_size": 41, "cluster_id": 1, "rank_in_cluster": 29}

>  <energy>  (29) 
-8.63

>  <cluster_rmsd>  (29) 
0.89

>  <cluster>  (29) 
1

$$$$

     RDKit          3D

 52 56  0  0  0  0  0  0  0  0999 V2000
  141.9670   80.3610  224.2180 O   0  0  0  0  0  0  0  0  0  0  0  0
  141.3940   79.7540  223.2950 C   0  0  0  0  0  0  0  0  0  0  0  0
  142.2060   79.0470  222.2770 C   0  0  0  0  0  0  0  0  0  0  0  0
  141.3400   78.3770  221.2870 C   0  0  0  0  0  0  0  0  0  0  0  0
  141.9770   77.5620  220.2370 C   0  0  0  0  0  0  0  0  0  0  0  0
  142.3610   78.1260  219.0510 C   0  0  0  0  0  0  0  0  0  0  0  0
  142.9250   77.4170  218.0180 C   0  0  0  0  0  0  0  0  0  0  0  0
  143.1140   76.0520  218.1970 C   0  0  0  0  0  0  0  0  0  0  0  0
  142.7280   75.4700  219.4020 C   0  0  0  0  0  0  0  0  0  0  0  0
  142.9080   74.0450  219.5600 C   0  0  0  0  0  0  0  0  0  0  0  0
  142.0080   73.2880  219.0640 O   0  0  0  0  0  0  0  0  0  0  0  0
  143.9790   73.4070  220.2070 N   0  0  0  0  0  0  0  0  0  0  0  0
  143.9940   71.9320  220.2500 C   0  0  0  0  0  0  0  0  0  0  0  0
  145.2040   71.5470  219.4200 C   0  0  0  0  0  0  0  0  0  0  0  0
  146.0390   72.6170  219.1260 O   0  0  0  0  0  0  0  0  0  0  0  0
  146.3370   73.4450  220.1790 C   0  0  0  0  0  0  0  0  0  0  0  0
  145.1000   74.0460  220.8480 C   0  0  0  0  0  0  0  0  0  0  0  0
  142.1630   76.1980  220.4270 C   0  0  0  0  0  0  0  0  0  0  0  0
  140.0560   78.4110  221.2910 N   0  0  0  0  0  0  0  0  0  0  0  0
  139.2810   79.0900  222.2560 C   0  0  0  0  0  0  0  0  0  0  0  0
  137.9150   79.0700  222.1960 C   0  0  0  0  0  0  0  0  0  0  0  0
  137.1260   79.7230  223.1420 C   0  0  0  0  0  0  0  0  0  0  0  0
  137.7680   80.3900  224.1390 C   0  0  0  0  0  0  0  0  0  0  0  0
  137.0070   81.0670  225.1630 C   0  0  0  0  0  0  0  0  0  0  0  0
  135.6880   80.8120  225.4400 C   0  0  0  0  0  0  0  0  0  0  0  0
  134.9860   81.4720  226.4500 C   0  0  0  0  0  0  0  0  0  0  0  0
  133.2900   81.0770  226.7330 Cl  0  0  0  0  0  0  0  0  0  0  0  0
  135.6500   82.4050  227.1820 C   0  0  0  0  0  0  0  0  0  0  0  0
  136.9920   82.6690  226.9080 C   0  0  0  0  0  0  0  0  0  0  0  0
  137.6390   82.0130  225.9270 N   0  0  0  0  0  0  0  0  0  0  0  0
  139.1560   80.4110  224.1960 C   0  0  0  0  0  0  0  0  0  0  0  0
  139.9450   79.7640  223.2620 C   0  0  0  0  0  0  0  0  0  0  0  0
  142.8487   79.7746  221.7598 H   0  0  0  0  0  0  0  0  0  0  0  0
  142.8183   78.2853  222.7819 H   0  0  0  0  0  0  0  0  0  0  0  0
  142.2097   79.2073  218.9171 H   0  0  0  0  0  0  0  0  0  0  0  0
  143.2171   77.9133  217.0808 H   0  0  0  0  0  0  0  0  0  0  0  0
  143.5615   75.4407  217.3995 H   0  0  0  0  0  0  0  0  0  0  0  0
  144.1004   71.5731  221.2843 H   0  0  0  0  0  0  0  0  0  0  0  0
  143.0625   71.4901  219.8665 H   0  0  0  0  0  0  0  0  0  0  0  0
  145.7836   70.7963  219.9773 H   0  0  0  0  0  0  0  0  0  0  0  0
  144.8280   71.1582  218.4622 H   0  0  0  0  0  0  0  0  0  0  0  0
  146.8936   72.8664  220.9309 H   0  0  0  0  0  0  0  0  0  0  0  0
  146.9277   74.2815  219.7773 H   0  0  0  0  0  0  0  0  0  0  0  0
  145.1018   73.8314  221.9269 H   0  0  0  0  0  0  0  0  0  0  0  0
  145.0656   75.1405  220.7436 H   0  0  0  0  0  0  0  0  0  0  0  0
  141.8676   75.7129  221.3690 H   0  0  0  0  0  0  0  0  0  0  0  0
  137.4244   78.5228  221.3775 H   0  0  0  0  0  0  0  0  0  0  0  0
  136.0278   79.6998  223.0846 H   0  0  0  0  0  0  0  0  0  0  0  0
  135.1609   80.0551  224.8406 H   0  0  0  0  0  0  0  0  0  0  0  0
  135.1321   82.9488  227.9858 H   0  0  0  0  0  0  0  0  0  0  0  0
  137.5287   83.4236  227.5018 H   0  0  0  0  0  0  0  0  0  0  0  0
  139.6450   80.9618  225.0130 H   0  0  0  0  0  0  0  0  0  0  0  0
  1  2  2  0
  2  3  1  0
  3  4  1  0
  4  5  1  0
  5  6  2  0
  6  7  1  0
  7  8  2  0
  8  9  1  0
  9 10  1  0
 10 11  2  0
 10 12  1  0
 12 13  1  0
 13 14  1  0
 14 15  1  0
 15 16  1  0
 16 17  1  0
  9 18  2  0
  4 19  2  0
 19 20  1  0
 20 21  2  0
 21 22  1  0
 22 23  2  0
 23 24  1  0
 24 25  2  0
 25 26  1  0
 26 27  1  0
 26 28  2  0
 28 29  1  0
 29 30  2  0
 23 31  1  0
 31 32  2  0
 32  2  1  0
 18  5  1  0
 32 20  1  0
 17 12  1  0
 30 24  1  0
  3 33  1  0
  3 34  1  0
  6 35  1  0
  7 36  1  0
  8 37  1  0
 13 38  1  0
 13 39  1  0
 14 40  1  0
 14 41  1  0
 16 42  1  0
 16 43  1  0
 17 44  1  0
 17 45  1  0
 18 46  1  0
 21 47  1  0
 22 48  1  0
 25 49  1  0
 28 50  1  0
 29 51  1  0
 31 52  1  0
M  END
>  <smiles>  (30) 
O=C1CC(c2cccc(C(=O)N3CCOCC3)c2)=Nc2ccc(-c3cc(Cl)ccn3)cc21

>  <score_type>  (30) 
oracle

>  <origin>  (30) 
autodockgpu

>  <m_score__min__energy>  (30) 
-8.6899999999999995

>  <m_primary>  (30) 
energy

>  <rmsd>  (30) 
8.771746837193428

>  <m_score__min__rmsd>  (30) 
8.771746837193428

>  <meeko>  (30) 
{"free_energy": -8.63, "intermolecular_energy": -9.53, "internal_energy": -1.0, "cluster_size": 41, "cluster_id": 1, "rank_in_cluster": 27}

>  <energy>  (30) 
-8.62

>  <cluster_rmsd>  (30) 
1.02

>  <cluster>  (30) 
1

$$$$

     RDKit          3D

 52 56  0  0  0  0  0  0  0  0999 V2000
  142.7460   73.8990  220.7620 O   0  0  0  0  0  0  0  0  0  0  0  0
  141.5920   73.7190  221.1900 C   0  0  0  0  0  0  0  0  0  0  0  0
  141.0620   72.3390  221.2920 C   0  0  0  0  0  0  0  0  0  0  0  0
  139.6910   72.3410  221.8380 C   0  0  0  0  0  0  0  0  0  0  0  0
  139.0300   71.0460  222.0770 C   0  0  0  0  0  0  0  0  0  0  0  0
  138.0100   70.6220  221.2700 C   0  0  0  0  0  0  0  0  0  0  0  0
  137.3280   69.4450  221.4590 C   0  0  0  0  0  0  0  0  0  0  0  0
  137.7010   68.6450  222.5320 C   0  0  0  0  0  0  0  0  0  0  0  0
  138.7400   69.0680  223.3590 C   0  0  0  0  0  0  0  0  0  0  0  0
  139.0980   68.2370  224.4850 C   0  0  0  0  0  0  0  0  0  0  0  0
  139.2340   66.9870  224.2640 O   0  0  0  0  0  0  0  0  0  0  0  0
  139.3120   68.6690  225.8040 N   0  0  0  0  0  0  0  0  0  0  0  0
  139.6890   67.6650  226.8180 C   0  0  0  0  0  0  0  0  0  0  0  0
  141.0980   68.0540  227.2230 C   0  0  0  0  0  0  0  0  0  0  0  0
  141.4790   69.3090  226.7680 O   0  0  0  0  0  0  0  0  0  0  0  0
  140.5590   70.3120  226.9470 C   0  0  0  0  0  0  0  0  0  0  0  0
  139.2070   70.0190  226.2950 C   0  0  0  0  0  0  0  0  0  0  0  0
  139.4130   70.2530  223.1520 C   0  0  0  0  0  0  0  0  0  0  0  0
  139.0340   73.3940  222.1690 N   0  0  0  0  0  0  0  0  0  0  0  0
  139.5340   74.7100  222.0660 C   0  0  0  0  0  0  0  0  0  0  0  0
  138.7740   75.7800  222.4500 C   0  0  0  0  0  0  0  0  0  0  0  0
  139.2470   77.0890  222.3680 C   0  0  0  0  0  0  0  0  0  0  0  0
  140.5080   77.2690  221.8880 C   0  0  0  0  0  0  0  0  0  0  0  0
  141.0650   78.5980  221.8020 C   0  0  0  0  0  0  0  0  0  0  0  0
  141.4730   79.3360  222.8840 C   0  0  0  0  0  0  0  0  0  0  0  0
  142.0260   80.6130  222.7630 C   0  0  0  0  0  0  0  0  0  0  0  0
  142.5230   81.4870  224.2130 Cl  0  0  0  0  0  0  0  0  0  0  0  0
  142.1570   81.1350  221.5160 C   0  0  0  0  0  0  0  0  0  0  0  0
  141.7450   80.3900  220.4100 C   0  0  0  0  0  0  0  0  0  0  0  0
  141.2180   79.1620  220.5620 N   0  0  0  0  0  0  0  0  0  0  0  0
  141.2780   76.1810  221.4980 C   0  0  0  0  0  0  0  0  0  0  0  0
  140.8150   74.8800  221.5770 C   0  0  0  0  0  0  0  0  0  0  0  0
  141.0505   71.8826  220.2912 H   0  0  0  0  0  0  0  0  0  0  0  0
  141.7094   71.7628  221.9694 H   0  0  0  0  0  0  0  0  0  0  0  0
  137.7197   71.2597  220.4220 H   0  0  0  0  0  0  0  0  0  0  0  0
  136.5134   69.1455  220.7832 H   0  0  0  0  0  0  0  0  0  0  0  0
  137.1846   67.6932  222.7256 H   0  0  0  0  0  0  0  0  0  0  0  0
  139.0090   67.7087  227.6815 H   0  0  0  0  0  0  0  0  0  0  0  0
  139.6307   66.6361  226.4333 H   0  0  0  0  0  0  0  0  0  0  0  0
  141.1584   68.0489  228.3213 H   0  0  0  0  0  0  0  0  0  0  0  0
  141.7798   67.3230  226.7639 H   0  0  0  0  0  0  0  0  0  0  0  0
  140.4023   70.4529  228.0266 H   0  0  0  0  0  0  0  0  0  0  0  0
  140.9637   71.2139  226.4646 H   0  0  0  0  0  0  0  0  0  0  0  0
  138.3963   70.0991  227.0342 H   0  0  0  0  0  0  0  0  0  0  0  0
  138.9736   70.7329  225.4913 H   0  0  0  0  0  0  0  0  0  0  0  0
  140.2308   70.5625  223.8194 H   0  0  0  0  0  0  0  0  0  0  0  0
  137.7590   75.6027  222.8352 H   0  0  0  0  0  0  0  0  0  0  0  0
  138.6260   77.9421  222.6787 H   0  0  0  0  0  0  0  0  0  0  0  0
  141.3599   78.9039  223.8893 H   0  0  0  0  0  0  0  0  0  0  0  0
  142.5852   82.1389  221.3786 H   0  0  0  0  0  0  0  0  0  0  0  0
  141.8528   80.8130  219.4003 H   0  0  0  0  0  0  0  0  0  0  0  0
  142.2925   76.3603  221.1124 H   0  0  0  0  0  0  0  0  0  0  0  0
  1  2  2  0
  2  3  1  0
  3  4  1  0
  4  5  1  0
  5  6  2  0
  6  7  1  0
  7  8  2  0
  8  9  1  0
  9 10  1  0
 10 11  2  0
 10 12  1  0
 12 13  1  0
 13 14  1  0
 14 15  1  0
 15 16  1  0
 16 17  1  0
  9 18  2  0
  4 19  2  0
 19 20  1  0
 20 21  2  0
 21 22  1  0
 22 23  2  0
 23 24  1  0
 24 25  2  0
 25 26  1  0
 26 27  1  0
 26 28  2  0
 28 29  1  0
 29 30  2  0
 23 31  1  0
 31 32  2  0
 32  2  1  0
 18  5  1  0
 32 20  1  0
 17 12  1  0
 30 24  1  0
  3 33  1  0
  3 34  1  0
  6 35  1  0
  7 36  1  0
  8 37  1  0
 13 38  1  0
 13 39  1  0
 14 40  1  0
 14 41  1  0
 16 42  1  0
 16 43  1  0
 17 44  1  0
 17 45  1  0
 18 46  1  0
 21 47  1  0
 22 48  1  0
 25 49  1  0
 28 50  1  0
 29 51  1  0
 31 52  1  0
M  END
>  <smiles>  (31) 
O=C1CC(c2cccc(C(=O)N3CCOCC3)c2)=Nc2ccc(-c3cc(Cl)ccn3)cc21

>  <score_type>  (31) 
oracle

>  <origin>  (31) 
autodockgpu

>  <m_score__min__energy>  (31) 
-8.6899999999999995

>  <m_primary>  (31) 
energy

>  <rmsd>  (31) 
6.646557537185428

>  <m_score__min__rmsd>  (31) 
6.646557537185428

>  <meeko>  (31) 
{"free_energy": -8.5, "intermolecular_energy": -9.39, "internal_energy": -1.0, "cluster_size": 9, "cluster_id": 2, "rank_in_cluster": 7}

>  <energy>  (31) 
-8.57

>  <cluster_rmsd>  (31) 
0.88

>  <cluster>  (31) 
1

$$$$

     RDKit          3D

 52 56  0  0  0  0  0  0  0  0999 V2000
  141.9770   80.5870  224.0690 O   0  0  0  0  0  0  0  0  0  0  0  0
  141.4020   79.9160  223.1940 C   0  0  0  0  0  0  0  0  0  0  0  0
  142.2110   79.1990  222.1800 C   0  0  0  0  0  0  0  0  0  0  0  0
  141.3450   78.4500  221.2490 C   0  0  0  0  0  0  0  0  0  0  0  0
  141.9820   77.6170  220.2140 C   0  0  0  0  0  0  0  0  0  0  0  0
  142.3710   78.1610  219.0210 C   0  0  0  0  0  0  0  0  0  0  0  0
  142.9360   77.4350  218.0010 C   0  0  0  0  0  0  0  0  0  0  0  0
  143.1210   76.0720  218.2010 C   0  0  0  0  0  0  0  0  0  0  0  0
  142.7300   75.5100  219.4150 C   0  0  0  0  0  0  0  0  0  0  0  0
  142.9050   74.0870  219.5960 C   0  0  0  0  0  0  0  0  0  0  0  0
  141.9880   73.3270  219.1370 O   0  0  0  0  0  0  0  0  0  0  0  0
  143.9900   73.4550  220.2260 N   0  0  0  0  0  0  0  0  0  0  0  0
  143.9970   71.9810  220.2970 C   0  0  0  0  0  0  0  0  0  0  0  0
  145.1820   71.5720  219.4430 C   0  0  0  0  0  0  0  0  0  0  0  0
  146.0150   72.6310  219.1070 O   0  0  0  0  0  0  0  0  0  0  0  0
  146.3460   73.4780  220.1350 C   0  0  0  0  0  0  0  0  0  0  0  0
  145.1310   74.1000  220.8250 C   0  0  0  0  0  0  0  0  0  0  0  0
  142.1640   76.2560  220.4260 C   0  0  0  0  0  0  0  0  0  0  0  0
  140.0600   78.4290  221.2960 N   0  0  0  0  0  0  0  0  0  0  0  0
  139.2880   79.1170  222.2570 C   0  0  0  0  0  0  0  0  0  0  0  0
  137.9230   79.0360  222.2460 C   0  0  0  0  0  0  0  0  0  0  0  0
  137.1370   79.6960  223.1880 C   0  0  0  0  0  0  0  0  0  0  0  0
  137.7810   80.4340  224.1340 C   0  0  0  0  0  0  0  0  0  0  0  0
  137.0250   81.1220  225.1530 C   0  0  0  0  0  0  0  0  0  0  0  0
  135.7070   80.8690  225.4400 C   0  0  0  0  0  0  0  0  0  0  0  0
  135.0100   81.5410  226.4460 C   0  0  0  0  0  0  0  0  0  0  0  0
  133.3160   81.1470  226.7430 Cl  0  0  0  0  0  0  0  0  0  0  0  0
  135.6760   82.4840  227.1620 C   0  0  0  0  0  0  0  0  0  0  0  0
  137.0170   82.7460  226.8770 C   0  0  0  0  0  0  0  0  0  0  0  0
  137.6590   82.0790  225.9020 N   0  0  0  0  0  0  0  0  0  0  0  0
  139.1680   80.5160  224.1420 C   0  0  0  0  0  0  0  0  0  0  0  0
  139.9540   79.8630  223.2100 C   0  0  0  0  0  0  0  0  0  0  0  0
  142.8048   79.9294  221.6109 H   0  0  0  0  0  0  0  0  0  0  0  0
  142.8708   78.4864  222.6966 H   0  0  0  0  0  0  0  0  0  0  0  0
  142.2231   79.2405  218.8698 H   0  0  0  0  0  0  0  0  0  0  0  0
  143.2322   77.9163  217.0573 H   0  0  0  0  0  0  0  0  0  0  0  0
  143.5686   75.4472  217.4141 H   0  0  0  0  0  0  0  0  0  0  0  0
  144.1285   71.6412  221.3349 H   0  0  0  0  0  0  0  0  0  0  0  0
  143.0529   71.5382  219.9468 H   0  0  0  0  0  0  0  0  0  0  0  0
  145.7716   70.8283  219.9991 H   0  0  0  0  0  0  0  0  0  0  0  0
  144.7787   71.1670  218.5031 H   0  0  0  0  0  0  0  0  0  0  0  0
  146.9194   72.9109  220.8831 H   0  0  0  0  0  0  0  0  0  0  0  0
  146.9302   74.3027  219.7008 H   0  0  0  0  0  0  0  0  0  0  0  0
  145.1602   73.9065  221.9075 H   0  0  0  0  0  0  0  0  0  0  0  0
  145.1000   75.1925  220.7007 H   0  0  0  0  0  0  0  0  0  0  0  0
  141.8645   75.7868  221.3748 H   0  0  0  0  0  0  0  0  0  0  0  0
  137.4308   78.4315  221.4699 H   0  0  0  0  0  0  0  0  0  0  0  0
  136.0395   79.6238  223.1684 H   0  0  0  0  0  0  0  0  0  0  0  0
  135.1774   80.1045  224.8526 H   0  0  0  0  0  0  0  0  0  0  0  0
  135.1617   83.0376  227.9614 H   0  0  0  0  0  0  0  0  0  0  0  0
  137.5560   83.5087  227.4581 H   0  0  0  0  0  0  0  0  0  0  0  0
  139.6587   81.1222  224.9177 H   0  0  0  0  0  0  0  0  0  0  0  0
  1  2  2  0
  2  3  1  0
  3  4  1  0
  4  5  1  0
  5  6  2  0
  6  7  1  0
  7  8  2  0
  8  9  1  0
  9 10  1  0
 10 11  2  0
 10 12  1  0
 12 13  1  0
 13 14  1  0
 14 15  1  0
 15 16  1  0
 16 17  1  0
  9 18  2  0
  4 19  2  0
 19 20  1  0
 20 21  2  0
 21 22  1  0
 22 23  2  0
 23 24  1  0
 24 25  2  0
 25 26  1  0
 26 27  1  0
 26 28  2  0
 28 29  1  0
 29 30  2  0
 23 31  1  0
 31 32  2  0
 32  2  1  0
 18  5  1  0
 32 20  1  0
 17 12  1  0
 30 24  1  0
  3 33  1  0
  3 34  1  0
  6 35  1  0
  7 36  1  0
  8 37  1  0
 13 38  1  0
 13 39  1  0
 14 40  1  0
 14 41  1  0
 16 42  1  0
 16 43  1  0
 17 44  1  0
 17 45  1  0
 18 46  1  0
 21 47  1  0
 22 48  1  0
 25 49  1  0
 28 50  1  0
 29 51  1  0
 31 52  1  0
M  END
>  <smiles>  (32) 
O=C1CC(c2cccc(C(=O)N3CCOCC3)c2)=Nc2ccc(-c3cc(Cl)ccn3)cc21

>  <score_type>  (32) 
oracle

>  <origin>  (32) 
autodockgpu

>  <m_score__min__energy>  (32) 
-8.6899999999999995

>  <m_primary>  (32) 
energy

>  <rmsd>  (32) 
8.84925186347584

>  <m_score__min__rmsd>  (32) 
8.84925186347584

>  <meeko>  (32) 
{"free_energy": -8.65, "intermolecular_energy": -9.55, "internal_energy": -1.0, "cluster_size": 41, "cluster_id": 1, "rank_in_cluster": 19}

>  <energy>  (32) 
-8.54

>  <cluster_rmsd>  (32) 
1.03

>  <cluster>  (32) 
1

$$$$

     RDKit          3D

 52 56  0  0  0  0  0  0  0  0999 V2000
  141.9820   80.6330  224.0580 O   0  0  0  0  0  0  0  0  0  0  0  0
  141.4050   79.9460  223.1960 C   0  0  0  0  0  0  0  0  0  0  0  0
  142.2110   79.2320  222.1780 C   0  0  0  0  0  0  0  0  0  0  0  0
  141.3430   78.4630  221.2650 C   0  0  0  0  0  0  0  0  0  0  0  0
  141.9790   77.6300  220.2290 C   0  0  0  0  0  0  0  0  0  0  0  0
  142.3660   78.1730  219.0350 C   0  0  0  0  0  0  0  0  0  0  0  0
  142.9290   77.4470  218.0140 C   0  0  0  0  0  0  0  0  0  0  0  0
  143.1150   76.0840  218.2150 C   0  0  0  0  0  0  0  0  0  0  0  0
  142.7260   75.5220  219.4290 C   0  0  0  0  0  0  0  0  0  0  0  0
  142.9020   74.1000  219.6100 C   0  0  0  0  0  0  0  0  0  0  0  0
  141.9800   73.3390  219.1610 O   0  0  0  0  0  0  0  0  0  0  0  0
  143.9910   73.4680  220.2320 N   0  0  0  0  0  0  0  0  0  0  0  0
  143.9980   71.9940  220.3050 C   0  0  0  0  0  0  0  0  0  0  0  0
  145.1750   71.5830  219.4410 C   0  0  0  0  0  0  0  0  0  0  0  0
  146.0060   72.6400  219.0960 O   0  0  0  0  0  0  0  0  0  0  0  0
  146.3470   73.4890  220.1210 C   0  0  0  0  0  0  0  0  0  0  0  0
  145.1380   74.1120  220.8200 C   0  0  0  0  0  0  0  0  0  0  0  0
  142.1620   76.2680  220.4410 C   0  0  0  0  0  0  0  0  0  0  0  0
  140.0600   78.4250  221.3280 N   0  0  0  0  0  0  0  0  0  0  0  0
  139.2910   79.1110  222.2930 C   0  0  0  0  0  0  0  0  0  0  0  0
  137.9270   79.0110  222.2990 C   0  0  0  0  0  0  0  0  0  0  0  0
  137.1430   79.6680  223.2460 C   0  0  0  0  0  0  0  0  0  0  0  0
  137.7900   80.4230  224.1770 C   0  0  0  0  0  0  0  0  0  0  0  0
  137.0360   81.1100  225.2000 C   0  0  0  0  0  0  0  0  0  0  0  0
  135.7160   80.8660  225.4820 C   0  0  0  0  0  0  0  0  0  0  0  0
  135.0220   81.5360  226.4910 C   0  0  0  0  0  0  0  0  0  0  0  0
  133.3250   81.1540  226.7820 Cl  0  0  0  0  0  0  0  0  0  0  0  0
  135.6950   82.4680  227.2160 C   0  0  0  0  0  0  0  0  0  0  0  0
  137.0380   82.7210  226.9360 C   0  0  0  0  0  0  0  0  0  0  0  0
  137.6770   82.0560  225.9570 N   0  0  0  0  0  0  0  0  0  0  0  0
  139.1750   80.5250  224.1670 C   0  0  0  0  0  0  0  0  0  0  0  0
  139.9580   79.8740  223.2310 C   0  0  0  0  0  0  0  0  0  0  0  0
  142.7870   79.9657  221.5949 H   0  0  0  0  0  0  0  0  0  0  0  0
  142.8879   78.5335  222.6916 H   0  0  0  0  0  0  0  0  0  0  0  0
  142.2180   79.2524  218.8837 H   0  0  0  0  0  0  0  0  0  0  0  0
  143.2228   77.9277  217.0692 H   0  0  0  0  0  0  0  0  0  0  0  0
  143.5623   75.4591  217.4279 H   0  0  0  0  0  0  0  0  0  0  0  0
  144.1387   71.6556  221.3422 H   0  0  0  0  0  0  0  0  0  0  0  0
  143.0506   71.5512  219.9638 H   0  0  0  0  0  0  0  0  0  0  0  0
  145.7688   70.8394  219.9928 H   0  0  0  0  0  0  0  0  0  0  0  0
  144.7627   71.1776  218.5052 H   0  0  0  0  0  0  0  0  0  0  0  0
  146.9265   72.9226  220.8649 H   0  0  0  0  0  0  0  0  0  0  0  0
  146.9284   74.3127  219.6811 H   0  0  0  0  0  0  0  0  0  0  0  0
  145.1762   73.9195  221.9024 H   0  0  0  0  0  0  0  0  0  0  0  0
  145.1069   75.2043  220.6940 H   0  0  0  0  0  0  0  0  0  0  0  0
  141.8647   75.7989  221.3905 H   0  0  0  0  0  0  0  0  0  0  0  0
  137.4339   78.3937  221.5336 H   0  0  0  0  0  0  0  0  0  0  0  0
  136.0465   79.5803  223.2416 H   0  0  0  0  0  0  0  0  0  0  0  0
  135.1816   80.1102  224.8878 H   0  0  0  0  0  0  0  0  0  0  0  0
  135.1838   83.0195  228.0188 H   0  0  0  0  0  0  0  0  0  0  0  0
  137.5819   83.4749  227.5241 H   0  0  0  0  0  0  0  0  0  0  0  0
  139.6667   81.1456  224.9306 H   0  0  0  0  0  0  0  0  0  0  0  0
  1  2  2  0
  2  3  1  0
  3  4  1  0
  4  5  1  0
  5  6  2  0
  6  7  1  0
  7  8  2  0
  8  9  1  0
  9 10  1  0
 10 11  2  0
 10 12  1  0
 12 13  1  0
 13 14  1  0
 14 15  1  0
 15 16  1  0
 16 17  1  0
  9 18  2  0
  4 19  2  0
 19 20  1  0
 20 21  2  0
 21 22  1  0
 22 23  2  0
 23 24  1  0
 24 25  2  0
 25 26  1  0
 26 27  1  0
 26 28  2  0
 28 29  1  0
 29 30  2  0
 23 31  1  0
 31 32  2  0
 32  2  1  0
 18  5  1  0
 32 20  1  0
 17 12  1  0
 30 24  1  0
  3 33  1  0
  3 34  1  0
  6 35  1  0
  7 36  1  0
  8 37  1  0
 13 38  1  0
 13 39  1  0
 14 40  1  0
 14 41  1  0
 16 42  1  0
 16 43  1  0
 17 44  1  0
 17 45  1  0
 18 46  1  0
 21 47  1  0
 22 48  1  0
 25 49  1  0
 28 50  1  0
 29 51  1  0
 31 52  1  0
M  END
>  <smiles>  (33) 
O=C1CC(c2cccc(C(=O)N3CCOCC3)c2)=Nc2ccc(-c3cc(Cl)ccn3)cc21

>  <score_type>  (33) 
oracle

>  <origin>  (33) 
autodockgpu

>  <m_score__min__energy>  (33) 
-8.6899999999999995

>  <m_primary>  (33) 
energy

>  <rmsd>  (33) 
8.856521570965477

>  <m_score__min__rmsd>  (33) 
8.856521570965477

>  <meeko>  (33) 
{"free_energy": -8.66, "intermolecular_energy": -9.56, "internal_energy": -1.0, "cluster_size": 41, "cluster_id": 1, "rank_in_cluster": 17}

>  <energy>  (33) 
-8.52

>  <cluster_rmsd>  (33) 
0.89

>  <cluster>  (33) 
1

$$$$

     RDKit          3D

 52 56  0  0  0  0  0  0  0  0999 V2000
  141.8790   81.0760  223.6870 O   0  0  0  0  0  0  0  0  0  0  0  0
  141.3310   80.2280  222.9600 C   0  0  0  0  0  0  0  0  0  0  0  0
  142.1420   79.5010  221.9550 C   0  0  0  0  0  0  0  0  0  0  0  0
  141.3120   78.5310  221.2120 C   0  0  0  0  0  0  0  0  0  0  0  0
  141.9680   77.6640  220.2180 C   0  0  0  0  0  0  0  0  0  0  0  0
  142.3950   78.1710  219.0210 C   0  0  0  0  0  0  0  0  0  0  0  0
  142.9790   77.4120  218.0370 C   0  0  0  0  0  0  0  0  0  0  0  0
  143.1440   76.0530  218.2790 C   0  0  0  0  0  0  0  0  0  0  0  0
  142.7150   75.5280  219.4970 C   0  0  0  0  0  0  0  0  0  0  0  0
  142.8710   74.1100  219.7210 C   0  0  0  0  0  0  0  0  0  0  0  0
  141.9160   73.3540  219.3380 O   0  0  0  0  0  0  0  0  0  0  0  0
  143.9730   73.4770  220.3180 N   0  0  0  0  0  0  0  0  0  0  0  0
  143.9540   72.0070  220.4440 C   0  0  0  0  0  0  0  0  0  0  0  0
  145.0850   71.5410  219.5460 C   0  0  0  0  0  0  0  0  0  0  0  0
  145.9200   72.5680  219.1290 O   0  0  0  0  0  0  0  0  0  0  0  0
  146.3210   73.4440  220.1080 C   0  0  0  0  0  0  0  0  0  0  0  0
  145.1560   74.1170  220.8350 C   0  0  0  0  0  0  0  0  0  0  0  0
  142.1300   76.3070  220.4720 C   0  0  0  0  0  0  0  0  0  0  0  0
  140.0530   78.3480  221.3970 N   0  0  0  0  0  0  0  0  0  0  0  0
  139.2790   79.0460  222.3480 C   0  0  0  0  0  0  0  0  0  0  0  0
  137.9440   78.7850  222.4900 C   0  0  0  0  0  0  0  0  0  0  0  0
  137.1580   79.4510  223.4290 C   0  0  0  0  0  0  0  0  0  0  0  0
  137.7710   80.3820  224.2100 C   0  0  0  0  0  0  0  0  0  0  0  0
  137.0160   81.0900  225.2180 C   0  0  0  0  0  0  0  0  0  0  0  0
  135.6960   80.8520  225.5030 C   0  0  0  0  0  0  0  0  0  0  0  0
  135.0010   81.5420  226.4970 C   0  0  0  0  0  0  0  0  0  0  0  0
  133.3020   81.1680  226.7930 Cl  0  0  0  0  0  0  0  0  0  0  0  0
  135.6730   82.4880  227.2050 C   0  0  0  0  0  0  0  0  0  0  0  0
  137.0170   82.7340  226.9230 C   0  0  0  0  0  0  0  0  0  0  0  0
  137.6570   82.0490  225.9580 N   0  0  0  0  0  0  0  0  0  0  0  0
  139.1270   80.6460  224.0630 C   0  0  0  0  0  0  0  0  0  0  0  0
  139.9130   79.9880  223.1340 C   0  0  0  0  0  0  0  0  0  0  0  0
  142.5717   80.2247  221.2468 H   0  0  0  0  0  0  0  0  0  0  0  0
  142.9413   78.9539  222.4764 H   0  0  0  0  0  0  0  0  0  0  0  0
  142.2630   79.2474  218.8366 H   0  0  0  0  0  0  0  0  0  0  0  0
  143.3054   77.8642  217.0889 H   0  0  0  0  0  0  0  0  0  0  0  0
  143.6056   75.4025  217.5216 H   0  0  0  0  0  0  0  0  0  0  0  0
  144.1325   71.7025  221.4858 H   0  0  0  0  0  0  0  0  0  0  0  0
  142.9843   71.5726  220.1596 H   0  0  0  0  0  0  0  0  0  0  0  0
  145.6876   70.8050  220.0985 H   0  0  0  0  0  0  0  0  0  0  0  0
  144.6255   71.1111  218.6437 H   0  0  0  0  0  0  0  0  0  0  0  0
  146.9202   72.8912  220.8465 H   0  0  0  0  0  0  0  0  0  0  0  0
  146.8992   74.2394  219.6151 H   0  0  0  0  0  0  0  0  0  0  0  0
  145.2364   73.9613  221.9210 H   0  0  0  0  0  0  0  0  0  0  0  0
  145.1413   75.2049  220.6727 H   0  0  0  0  0  0  0  0  0  0  0  0
  141.8004   75.8670  221.4248 H   0  0  0  0  0  0  0  0  0  0  0  0
  137.4767   78.0271  221.8441 H   0  0  0  0  0  0  0  0  0  0  0  0
  136.0850   79.2328  223.5346 H   0  0  0  0  0  0  0  0  0  0  0  0
  135.1622   80.0845  224.9234 H   0  0  0  0  0  0  0  0  0  0  0  0
  135.1603   83.0560  227.9953 H   0  0  0  0  0  0  0  0  0  0  0  0
  137.5608   83.4984  227.4975 H   0  0  0  0  0  0  0  0  0  0  0  0
  139.5924   81.4055  224.7085 H   0  0  0  0  0  0  0  0  0  0  0  0
  1  2  2  0
  2  3  1  0
  3  4  1  0
  4  5  1  0
  5  6  2  0
  6  7  1  0
  7  8  2  0
  8  9  1  0
  9 10  1  0
 10 11  2  0
 10 12  1  0
 12 13  1  0
 13 14  1  0
 14 15  1  0
 15 16  1  0
 16 17  1  0
  9 18  2  0
  4 19  2  0
 19 20  1  0
 20 21  2  0
 21 22  1  0
 22 23  2  0
 23 24  1  0
 24 25  2  0
 25 26  1  0
 26 27  1  0
 26 28  2  0
 28 29  1  0
 29 30  2  0
 23 31  1  0
 31 32  2  0
 32  2  1  0
 18  5  1  0
 32 20  1  0
 17 12  1  0
 30 24  1  0
  3 33  1  0
  3 34  1  0
  6 35  1  0
  7 36  1  0
  8 37  1  0
 13 38  1  0
 13 39  1  0
 14 40  1  0
 14 41  1  0
 16 42  1  0
 16 43  1  0
 17 44  1  0
 17 45  1  0
 18 46  1  0
 21 47  1  0
 22 48  1  0
 25 49  1  0
 28 50  1  0
 29 51  1  0
 31 52  1  0
M  END
>  <smiles>  (34) 
O=C1CC(c2cccc(C(=O)N3CCOCC3)c2)=Nc2ccc(-c3cc(Cl)ccn3)cc21

>  <score_type>  (34) 
oracle

>  <origin>  (34) 
autodockgpu

>  <m_score__min__energy>  (34) 
-8.6899999999999995

>  <m_primary>  (34) 
energy

>  <rmsd>  (34) 
8.954676672587963

>  <m_score__min__rmsd>  (34) 
8.954676672587963

>  <meeko>  (34) 
{"free_energy": -8.65, "intermolecular_energy": -9.54, "internal_energy": -1.0, "cluster_size": 41, "cluster_id": 1, "rank_in_cluster": 22}

>  <energy>  (34) 
-8.49

>  <cluster_rmsd>  (34) 
0.99

>  <cluster>  (34) 
1

$$$$

     RDKit          3D

 52 56  0  0  0  0  0  0  0  0999 V2000
  141.9680   80.6180  224.0720 O   0  0  0  0  0  0  0  0  0  0  0  0
  141.3930   79.9300  223.2100 C   0  0  0  0  0  0  0  0  0  0  0  0
  142.2020   79.2120  222.1960 C   0  0  0  0  0  0  0  0  0  0  0  0
  141.3370   78.4420  221.2810 C   0  0  0  0  0  0  0  0  0  0  0  0
  141.9760   77.6060  220.2500 C   0  0  0  0  0  0  0  0  0  0  0  0
  142.3670   78.1470  219.0560 C   0  0  0  0  0  0  0  0  0  0  0  0
  142.9340   77.4180  218.0390 C   0  0  0  0  0  0  0  0  0  0  0  0
  143.1170   76.0550  218.2430 C   0  0  0  0  0  0  0  0  0  0  0  0
  142.7230   75.4960  219.4570 C   0  0  0  0  0  0  0  0  0  0  0  0
  142.8960   74.0740  219.6410 C   0  0  0  0  0  0  0  0  0  0  0  0
  141.9660   73.3150  219.2080 O   0  0  0  0  0  0  0  0  0  0  0  0
  143.9920   73.4410  220.2500 N   0  0  0  0  0  0  0  0  0  0  0  0
  143.9950   71.9670  220.3300 C   0  0  0  0  0  0  0  0  0  0  0  0
  145.1590   71.5490  219.4510 C   0  0  0  0  0  0  0  0  0  0  0  0
  145.9880   72.6020  219.0910 O   0  0  0  0  0  0  0  0  0  0  0  0
  146.3460   73.4530  220.1070 C   0  0  0  0  0  0  0  0  0  0  0  0
  145.1490   74.0830  220.8200 C   0  0  0  0  0  0  0  0  0  0  0  0
  142.1560   76.2450  220.4650 C   0  0  0  0  0  0  0  0  0  0  0  0
  140.0530   78.4060  221.3400 N   0  0  0  0  0  0  0  0  0  0  0  0
  139.2810   79.0950  222.3010 C   0  0  0  0  0  0  0  0  0  0  0  0
  137.9170   78.9960  222.3020 C   0  0  0  0  0  0  0  0  0  0  0  0
  137.1310   79.6570  223.2450 C   0  0  0  0  0  0  0  0  0  0  0  0
  137.7750   80.4130  224.1770 C   0  0  0  0  0  0  0  0  0  0  0  0
  137.0180   81.1030  225.1950 C   0  0  0  0  0  0  0  0  0  0  0  0
  135.7000   80.8530  225.4800 C   0  0  0  0  0  0  0  0  0  0  0  0
  135.0030   81.5250  226.4860 C   0  0  0  0  0  0  0  0  0  0  0  0
  133.3080   81.1360  226.7810 Cl  0  0  0  0  0  0  0  0  0  0  0  0
  135.6710   82.4670  227.2030 C   0  0  0  0  0  0  0  0  0  0  0  0
  137.0130   82.7260  226.9200 C   0  0  0  0  0  0  0  0  0  0  0  0
  137.6540   82.0580  225.9450 N   0  0  0  0  0  0  0  0  0  0  0  0
  139.1600   80.5120  224.1710 C   0  0  0  0  0  0  0  0  0  0  0  0
  139.9460   79.8590  223.2390 C   0  0  0  0  0  0  0  0  0  0  0  0
  142.7813   79.9436  221.6136 H   0  0  0  0  0  0  0  0  0  0  0  0
  142.8755   78.5134  222.7141 H   0  0  0  0  0  0  0  0  0  0  0  0
  142.2192   79.2260  218.9016 H   0  0  0  0  0  0  0  0  0  0  0  0
  143.2332   77.8967  217.0949 H   0  0  0  0  0  0  0  0  0  0  0  0
  143.5657   75.4279  217.4585 H   0  0  0  0  0  0  0  0  0  0  0  0
  144.1492   71.6329  221.3666 H   0  0  0  0  0  0  0  0  0  0  0  0
  143.0415   71.5254  220.0047 H   0  0  0  0  0  0  0  0  0  0  0  0
  145.7581   70.8055  219.9972 H   0  0  0  0  0  0  0  0  0  0  0  0
  144.7327   71.1414  218.5225 H   0  0  0  0  0  0  0  0  0  0  0  0
  146.9337   72.8874  220.8451 H   0  0  0  0  0  0  0  0  0  0  0  0
  146.9243   74.2728  219.6560 H   0  0  0  0  0  0  0  0  0  0  0  0
  145.2012   73.8944  221.9025 H   0  0  0  0  0  0  0  0  0  0  0  0
  145.1201   75.1750  220.6904 H   0  0  0  0  0  0  0  0  0  0  0  0
  141.8540   75.7782  221.4142 H   0  0  0  0  0  0  0  0  0  0  0  0
  137.4258   78.3770  221.5368 H   0  0  0  0  0  0  0  0  0  0  0  0
  136.0344   79.5713  223.2366 H   0  0  0  0  0  0  0  0  0  0  0  0
  135.1693   80.0905  224.8909 H   0  0  0  0  0  0  0  0  0  0  0  0
  135.1569   83.0220  228.0016 H   0  0  0  0  0  0  0  0  0  0  0  0
  137.5534   83.4868  227.5024 H   0  0  0  0  0  0  0  0  0  0  0  0
  139.6501   81.1326  224.9356 H   0  0  0  0  0  0  0  0  0  0  0  0
  1  2  2  0
  2  3  1  0
  3  4  1  0
  4  5  1  0
  5  6  2  0
  6  7  1  0
  7  8  2  0
  8  9  1  0
  9 10  1  0
 10 11  2  0
 10 12  1  0
 12 13  1  0
 13 14  1  0
 14 15  1  0
 15 16  1  0
 16 17  1  0
  9 18  2  0
  4 19  2  0
 19 20  1  0
 20 21  2  0
 21 22  1  0
 22 23  2  0
 23 24  1  0
 24 25  2  0
 25 26  1  0
 26 27  1  0
 26 28  2  0
 28 29  1  0
 29 30  2  0
 23 31  1  0
 31 32  2  0
 32  2  1  0
 18  5  1  0
 32 20  1  0
 17 12  1  0
 30 24  1  0
  3 33  1  0
  3 34  1  0
  6 35  1  0
  7 36  1  0
  8 37  1  0
 13 38  1  0
 13 39  1  0
 14 40  1  0
 14 41  1  0
 16 42  1  0
 16 43  1  0
 17 44  1  0
 17 45  1  0
 18 46  1  0
 21 47  1  0
 22 48  1  0
 25 49  1  0
 28 50  1  0
 29 51  1  0
 31 52  1  0
M  END
>  <smiles>  (35) 
O=C1CC(c2cccc(C(=O)N3CCOCC3)c2)=Nc2ccc(-c3cc(Cl)ccn3)cc21

>  <score_type>  (35) 
oracle

>  <origin>  (35) 
autodockgpu

>  <m_score__min__energy>  (35) 
-8.6899999999999995

>  <m_primary>  (35) 
energy

>  <rmsd>  (35) 
8.838899407138417

>  <m_score__min__rmsd>  (35) 
8.838899407138417

>  <meeko>  (35) 
{"free_energy": -8.67, "intermolecular_energy": -9.56, "internal_energy": -1.0, "cluster_size": 41, "cluster_id": 1, "rank_in_cluster": 16}

>  <energy>  (35) 
-8.49

>  <cluster_rmsd>  (35) 
0.91

>  <cluster>  (35) 
1

$$$$

     RDKit          3D

 52 56  0  0  0  0  0  0  0  0999 V2000
  142.0860   80.4010  224.1880 O   0  0  0  0  0  0  0  0  0  0  0  0
  141.5150   79.8950  223.2040 C   0  0  0  0  0  0  0  0  0  0  0  0
  142.2990   79.0690  222.2550 C   0  0  0  0  0  0  0  0  0  0  0  0
  141.4370   78.5490  221.1750 C   0  0  0  0  0  0  0  0  0  0  0  0
  142.0350   77.6450  220.1770 C   0  0  0  0  0  0  0  0  0  0  0  0
  142.4010   78.1110  218.9440 C   0  0  0  0  0  0  0  0  0  0  0  0
  142.9280   77.3150  217.9550 C   0  0  0  0  0  0  0  0  0  0  0  0
  143.0960   75.9640  218.2320 C   0  0  0  0  0  0  0  0  0  0  0  0
  142.7270   75.4810  219.4860 C   0  0  0  0  0  0  0  0  0  0  0  0
  142.8840   74.0690  219.7470 C   0  0  0  0  0  0  0  0  0  0  0  0
  141.9230   73.3040  219.3990 O   0  0  0  0  0  0  0  0  0  0  0  0
  143.9940   73.4510  220.3460 N   0  0  0  0  0  0  0  0  0  0  0  0
  143.9760   71.9850  220.5120 C   0  0  0  0  0  0  0  0  0  0  0  0
  145.0930   71.4930  219.6120 C   0  0  0  0  0  0  0  0  0  0  0  0
  145.9240   72.5070  219.1540 O   0  0  0  0  0  0  0  0  0  0  0  0
  146.3400   73.4090  220.1020 C   0  0  0  0  0  0  0  0  0  0  0  0
  145.1860   74.1030  220.8270 C   0  0  0  0  0  0  0  0  0  0  0  0
  142.2000   76.2960  220.4650 C   0  0  0  0  0  0  0  0  0  0  0  0
  140.1800   78.7880  221.0590 N   0  0  0  0  0  0  0  0  0  0  0  0
  139.4340   79.5810  221.9580 C   0  0  0  0  0  0  0  0  0  0  0  0
  138.0940   79.7790  221.7690 C   0  0  0  0  0  0  0  0  0  0  0  0
  137.3310   80.5480  222.6460 C   0  0  0  0  0  0  0  0  0  0  0  0
  137.9730   81.1010  223.7120 C   0  0  0  0  0  0  0  0  0  0  0  0
  137.2330   81.8890  224.6710 C   0  0  0  0  0  0  0  0  0  0  0  0
  136.9120   81.4640  225.9350 C   0  0  0  0  0  0  0  0  0  0  0  0
  136.2120   82.2590  226.8440 C   0  0  0  0  0  0  0  0  0  0  0  0
  135.8440   81.6280  228.4500 Cl  0  0  0  0  0  0  0  0  0  0  0  0
  135.8370   83.5030  226.4460 C   0  0  0  0  0  0  0  0  0  0  0  0
  136.1610   83.9430  225.1620 C   0  0  0  0  0  0  0  0  0  0  0  0
  136.8390   83.1510  224.3110 N   0  0  0  0  0  0  0  0  0  0  0  0
  139.3340   80.9000  223.9010 C   0  0  0  0  0  0  0  0  0  0  0  0
  140.0960   80.1370  223.0340 C   0  0  0  0  0  0  0  0  0  0  0  0
  143.0966   79.6853  221.8145 H   0  0  0  0  0  0  0  0  0  0  0  0
  142.7302   78.2177  222.8021 H   0  0  0  0  0  0  0  0  0  0  0  0
  142.2661   79.1820  218.7323 H   0  0  0  0  0  0  0  0  0  0  0  0
  143.2074   77.7337  216.9769 H   0  0  0  0  0  0  0  0  0  0  0  0
  143.5138   75.2860  217.4732 H   0  0  0  0  0  0  0  0  0  0  0  0
  144.1689   71.7089  221.5592 H   0  0  0  0  0  0  0  0  0  0  0  0
  143.0020   71.5443  220.2527 H   0  0  0  0  0  0  0  0  0  0  0  0
  145.7025   70.7719  220.1763 H   0  0  0  0  0  0  0  0  0  0  0  0
  144.6200   71.0392  218.7286 H   0  0  0  0  0  0  0  0  0  0  0  0
  146.9496   72.8762  220.8466 H   0  0  0  0  0  0  0  0  0  0  0  0
  146.9116   74.1898  219.5789 H   0  0  0  0  0  0  0  0  0  0  0  0
  145.2825   73.9772  221.9155 H   0  0  0  0  0  0  0  0  0  0  0  0
  145.1699   75.1858  220.6341 H   0  0  0  0  0  0  0  0  0  0  0  0
  141.9178   75.8893  221.4473 H   0  0  0  0  0  0  0  0  0  0  0  0
  137.6039   79.3176  220.8990 H   0  0  0  0  0  0  0  0  0  0  0  0
  136.2540   80.7019  222.4836 H   0  0  0  0  0  0  0  0  0  0  0  0
  137.2191   80.4543  226.2453 H   0  0  0  0  0  0  0  0  0  0  0  0
  135.2813   84.1593  227.1319 H   0  0  0  0  0  0  0  0  0  0  0  0
  135.8582   84.9506  224.8411 H   0  0  0  0  0  0  0  0  0  0  0  0
  139.8234   81.3635  224.7703 H   0  0  0  0  0  0  0  0  0  0  0  0
  1  2  2  0
  2  3  1  0
  3  4  1  0
  4  5  1  0
  5  6  2  0
  6  7  1  0
  7  8  2  0
  8  9  1  0
  9 10  1  0
 10 11  2  0
 10 12  1  0
 12 13  1  0
 13 14  1  0
 14 15  1  0
 15 16  1  0
 16 17  1  0
  9 18  2  0
  4 19  2  0
 19 20  1  0
 20 21  2  0
 21 22  1  0
 22 23  2  0
 23 24  1  0
 24 25  2  0
 25 26  1  0
 26 27  1  0
 26 28  2  0
 28 29  1  0
 29 30  2  0
 23 31  1  0
 31 32  2  0
 32  2  1  0
 18  5  1  0
 32 20  1  0
 17 12  1  0
 30 24  1  0
  3 33  1  0
  3 34  1  0
  6 35  1  0
  7 36  1  0
  8 37  1  0
 13 38  1  0
 13 39  1  0
 14 40  1  0
 14 41  1  0
 16 42  1  0
 16 43  1  0
 17 44  1  0
 17 45  1  0
 18 46  1  0
 21 47  1  0
 22 48  1  0
 25 49  1  0
 28 50  1  0
 29 51  1  0
 31 52  1  0
M  END
>  <smiles>  (36) 
O=C1CC(c2cccc(C(=O)N3CCOCC3)c2)=Nc2ccc(-c3cc(Cl)ccn3)cc21

>  <score_type>  (36) 
oracle

>  <origin>  (36) 
autodockgpu

>  <m_score__min__energy>  (36) 
-8.6899999999999995

>  <m_primary>  (36) 
energy

>  <rmsd>  (36) 
8.92094397917173

>  <m_score__min__rmsd>  (36) 
8.92094397917173

>  <meeko>  (36) 
{"free_energy": -8.65, "intermolecular_energy": -9.55, "internal_energy": -1.01, "cluster_size": 41, "cluster_id": 1, "rank_in_cluster": 20}

>  <energy>  (36) 
-8.47

>  <cluster_rmsd>  (36) 
0.91

>  <cluster>  (36) 
1

$$$$

     RDKit          3D

 52 56  0  0  0  0  0  0  0  0999 V2000
  141.6820   81.5750  223.8240 O   0  0  0  0  0  0  0  0  0  0  0  0
  141.0900   80.6810  223.1930 C   0  0  0  0  0  0  0  0  0  0  0  0
  141.8510   79.8420  222.2360 C   0  0  0  0  0  0  0  0  0  0  0  0
  140.9750   78.8340  221.6090 C   0  0  0  0  0  0  0  0  0  0  0  0
  141.5780   77.8620  220.6810 C   0  0  0  0  0  0  0  0  0  0  0  0
  142.1140   78.2710  219.4910 C   0  0  0  0  0  0  0  0  0  0  0  0
  142.6580   77.4140  218.5650 C   0  0  0  0  0  0  0  0  0  0  0  0
  142.6600   76.0560  218.8620 C   0  0  0  0  0  0  0  0  0  0  0  0
  142.1170   75.6300  220.0730 C   0  0  0  0  0  0  0  0  0  0  0  0
  142.1040   74.2130  220.3540 C   0  0  0  0  0  0  0  0  0  0  0  0
  143.2350   73.6240  220.4160 O   0  0  0  0  0  0  0  0  0  0  0  0
  140.9680   73.4170  220.5680 N   0  0  0  0  0  0  0  0  0  0  0  0
  141.1610   71.9830  220.8600 C   0  0  0  0  0  0  0  0  0  0  0  0
  140.6580   71.8210  222.2820 C   0  0  0  0  0  0  0  0  0  0  0  0
  139.9550   72.9220  222.7510 O   0  0  0  0  0  0  0  0  0  0  0  0
  139.0170   73.4390  221.8920 C   0  0  0  0  0  0  0  0  0  0  0  0
  139.5940   73.8520  220.5380 C   0  0  0  0  0  0  0  0  0  0  0  0
  141.5760   76.5070  220.9890 C   0  0  0  0  0  0  0  0  0  0  0  0
  139.7180   78.7040  221.8440 N   0  0  0  0  0  0  0  0  0  0  0  0
  138.9900   79.5080  222.7490 C   0  0  0  0  0  0  0  0  0  0  0  0
  137.6540   79.2990  222.9500 C   0  0  0  0  0  0  0  0  0  0  0  0
  136.9140   80.0710  223.8450 C   0  0  0  0  0  0  0  0  0  0  0  0
  137.5750   81.0510  224.5210 C   0  0  0  0  0  0  0  0  0  0  0  0
  136.8690   81.8680  225.4800 C   0  0  0  0  0  0  0  0  0  0  0  0
  136.5090   81.4490  226.7350 C   0  0  0  0  0  0  0  0  0  0  0  0
  135.8430   82.2720  227.6450 C   0  0  0  0  0  0  0  0  0  0  0  0
  135.4200   81.6450  229.2390 Cl  0  0  0  0  0  0  0  0  0  0  0  0
  135.5450   83.5400  227.2580 C   0  0  0  0  0  0  0  0  0  0  0  0
  135.9100   83.9740  225.9830 C   0  0  0  0  0  0  0  0  0  0  0  0
  136.5520   83.1550  225.1310 N   0  0  0  0  0  0  0  0  0  0  0  0
  138.9320   81.2610  224.3130 C   0  0  0  0  0  0  0  0  0  0  0  0
  139.6720   80.4990  223.4270 C   0  0  0  0  0  0  0  0  0  0  0  0
  142.2778   80.4857  221.4527 H   0  0  0  0  0  0  0  0  0  0  0  0
  142.6509   79.3216  222.7831 H   0  0  0  0  0  0  0  0  0  0  0  0
  142.1093   79.3470  219.2623 H   0  0  0  0  0  0  0  0  0  0  0  0
  143.0779   77.7899  217.6203 H   0  0  0  0  0  0  0  0  0  0  0  0
  143.0832   75.3294  218.1528 H   0  0  0  0  0  0  0  0  0  0  0  0
  140.5759   71.3615  220.1662 H   0  0  0  0  0  0  0  0  0  0  0  0
  142.2085   71.6673  220.7454 H   0  0  0  0  0  0  0  0  0  0  0  0
  139.9954   70.9437  222.3188 H   0  0  0  0  0  0  0  0  0  0  0  0
  141.5422   71.7044  222.9259 H   0  0  0  0  0  0  0  0  0  0  0  0
  138.2420   72.6769  221.7227 H   0  0  0  0  0  0  0  0  0  0  0  0
  138.6123   74.3472  222.3625 H   0  0  0  0  0  0  0  0  0  0  0  0
  139.0501   73.3580  219.7194 H   0  0  0  0  0  0  0  0  0  0  0  0
  139.5078   74.9350  220.3658 H   0  0  0  0  0  0  0  0  0  0  0  0
  141.1543   76.1439  221.9378 H   0  0  0  0  0  0  0  0  0  0  0  0
  137.1482   78.4989  222.3896 H   0  0  0  0  0  0  0  0  0  0  0  0
  135.8391   79.8953  223.9988 H   0  0  0  0  0  0  0  0  0  0  0  0
  136.7555   80.4206  227.0377 H   0  0  0  0  0  0  0  0  0  0  0  0
  135.0196   84.2197  227.9450 H   0  0  0  0  0  0  0  0  0  0  0  0
  135.6692   85.0007  225.6703 H   0  0  0  0  0  0  0  0  0  0  0  0
  139.4365   82.0622  224.8730 H   0  0  0  0  0  0  0  0  0  0  0  0
  1  2  2  0
  2  3  1  0
  3  4  1  0
  4  5  1  0
  5  6  2  0
  6  7  1  0
  7  8  2  0
  8  9  1  0
  9 10  1  0
 10 11  2  0
 10 12  1  0
 12 13  1  0
 13 14  1  0
 14 15  1  0
 15 16  1  0
 16 17  1  0
  9 18  2  0
  4 19  2  0
 19 20  1  0
 20 21  2  0
 21 22  1  0
 22 23  2  0
 23 24  1  0
 24 25  2  0
 25 26  1  0
 26 27  1  0
 26 28  2  0
 28 29  1  0
 29 30  2  0
 23 31  1  0
 31 32  2  0
 32  2  1  0
 18  5  1  0
 32 20  1  0
 17 12  1  0
 30 24  1  0
  3 33  1  0
  3 34  1  0
  6 35  1  0
  7 36  1  0
  8 37  1  0
 13 38  1  0
 13 39  1  0
 14 40  1  0
 14 41  1  0
 16 42  1  0
 16 43  1  0
 17 44  1  0
 17 45  1  0
 18 46  1  0
 21 47  1  0
 22 48  1  0
 25 49  1  0
 28 50  1  0
 29 51  1  0
 31 52  1  0
M  END
>  <smiles>  (37) 
O=C1CC(c2cccc(C(=O)N3CCOCC3)c2)=Nc2ccc(-c3cc(Cl)ccn3)cc21

>  <score_type>  (37) 
oracle

>  <origin>  (37) 
autodockgpu

>  <m_score__min__energy>  (37) 
-8.6899999999999995

>  <m_primary>  (37) 
energy

>  <rmsd>  (37) 
8.756797931498664

>  <m_score__min__rmsd>  (37) 
8.756797931498664

>  <meeko>  (37) 
{"free_energy": -8.14, "intermolecular_energy": -9.03, "internal_energy": -1.04, "cluster_size": 41, "cluster_id": 1, "rank_in_cluster": 39}

>  <energy>  (37) 
-8.42

>  <cluster_rmsd>  (37) 
1.04

>  <cluster>  (37) 
1

$$$$

     RDKit          3D

 52 56  0  0  0  0  0  0  0  0999 V2000
  142.1100   81.1930  223.5980 O   0  0  0  0  0  0  0  0  0  0  0  0
  141.5000   80.4160  222.8420 C   0  0  0  0  0  0  0  0  0  0  0  0
  142.2660   79.5820  221.8850 C   0  0  0  0  0  0  0  0  0  0  0  0
  141.3620   78.7200  221.0990 C   0  0  0  0  0  0  0  0  0  0  0  0
  141.9560   77.7670  220.1450 C   0  0  0  0  0  0  0  0  0  0  0  0
  142.3390   78.1750  218.8960 C   0  0  0  0  0  0  0  0  0  0  0  0
  142.8650   77.3320  217.9470 C   0  0  0  0  0  0  0  0  0  0  0  0
  143.0140   75.9920  218.2830 C   0  0  0  0  0  0  0  0  0  0  0  0
  142.6280   75.5680  219.5530 C   0  0  0  0  0  0  0  0  0  0  0  0
  142.7660   74.1660  219.8760 C   0  0  0  0  0  0  0  0  0  0  0  0
  141.7320   73.4320  219.7260 O   0  0  0  0  0  0  0  0  0  0  0  0
  143.9290   73.5280  220.3370 N   0  0  0  0  0  0  0  0  0  0  0  0
  143.8760   72.0760  220.5960 C   0  0  0  0  0  0  0  0  0  0  0  0
  144.8200   71.4790  219.5690 C   0  0  0  0  0  0  0  0  0  0  0  0
  145.6110   72.4230  218.9280 O   0  0  0  0  0  0  0  0  0  0  0  0
  146.2040   73.3540  219.7440 C   0  0  0  0  0  0  0  0  0  0  0  0
  145.2060   74.1450  220.5900 C   0  0  0  0  0  0  0  0  0  0  0  0
  142.1030   76.4300  220.4920 C   0  0  0  0  0  0  0  0  0  0  0  0
  140.0820   78.7010  221.2110 N   0  0  0  0  0  0  0  0  0  0  0  0
  139.3500   79.5000  222.1160 C   0  0  0  0  0  0  0  0  0  0  0  0
  137.9870   79.4130  222.1820 C   0  0  0  0  0  0  0  0  0  0  0  0
  137.2420   80.1830  223.0740 C   0  0  0  0  0  0  0  0  0  0  0  0
  137.9240   81.0350  223.8880 C   0  0  0  0  0  0  0  0  0  0  0  0
  137.2110   81.8420  224.8500 C   0  0  0  0  0  0  0  0  0  0  0  0
  136.9010   81.4330  226.1220 C   0  0  0  0  0  0  0  0  0  0  0  0
  136.2260   82.2470  227.0340 C   0  0  0  0  0  0  0  0  0  0  0  0
  135.8710   81.6350  228.6500 Cl  0  0  0  0  0  0  0  0  0  0  0  0
  135.8660   83.4930  226.6300 C   0  0  0  0  0  0  0  0  0  0  0  0
  136.1790   83.9170  225.3380 C   0  0  0  0  0  0  0  0  0  0  0  0
  136.8320   83.1070  224.4850 N   0  0  0  0  0  0  0  0  0  0  0  0
  139.3090   81.1220  223.8170 C   0  0  0  0  0  0  0  0  0  0  0  0
  140.0550   80.3610  222.9350 C   0  0  0  0  0  0  0  0  0  0  0  0
  142.8234   80.2385  221.2007 H   0  0  0  0  0  0  0  0  0  0  0  0
  142.9585   78.9420  222.4515 H   0  0  0  0  0  0  0  0  0  0  0  0
  142.2190   79.2374  218.6374 H   0  0  0  0  0  0  0  0  0  0  0  0
  143.1583   77.7053  216.9547 H   0  0  0  0  0  0  0  0  0  0  0  0
  143.4301   75.2771  217.5579 H   0  0  0  0  0  0  0  0  0  0  0  0
  144.2167   71.8493  221.6170 H   0  0  0  0  0  0  0  0  0  0  0  0
  142.8564   71.6711  220.5160 H   0  0  0  0  0  0  0  0  0  0  0  0
  145.4792   70.7606  220.0783 H   0  0  0  0  0  0  0  0  0  0  0  0
  144.1982   71.0010  218.7978 H   0  0  0  0  0  0  0  0  0  0  0  0
  146.8981   72.8332  220.4200 H   0  0  0  0  0  0  0  0  0  0  0  0
  146.7196   74.0748  219.0924 H   0  0  0  0  0  0  0  0  0  0  0  0
  145.4639   74.0758  221.6571 H   0  0  0  0  0  0  0  0  0  0  0  0
  145.2052   75.2148  220.3342 H   0  0  0  0  0  0  0  0  0  0  0  0
  141.8086   76.0690  221.4885 H   0  0  0  0  0  0  0  0  0  0  0  0
  137.4632   78.7153  221.5120 H   0  0  0  0  0  0  0  0  0  0  0  0
  136.1457   80.1052  223.1184 H   0  0  0  0  0  0  0  0  0  0  0  0
  137.1965   80.4213  226.4369 H   0  0  0  0  0  0  0  0  0  0  0  0
  135.3306   84.1641  227.3177 H   0  0  0  0  0  0  0  0  0  0  0  0
  135.8881   84.9267  225.0126 H   0  0  0  0  0  0  0  0  0  0  0  0
  139.8312   81.8214  224.4865 H   0  0  0  0  0  0  0  0  0  0  0  0
  1  2  2  0
  2  3  1  0
  3  4  1  0
  4  5  1  0
  5  6  2  0
  6  7  1  0
  7  8  2  0
  8  9  1  0
  9 10  1  0
 10 11  2  0
 10 12  1  0
 12 13  1  0
 13 14  1  0
 14 15  1  0
 15 16  1  0
 16 17  1  0
  9 18  2  0
  4 19  2  0
 19 20  1  0
 20 21  2  0
 21 22  1  0
 22 23  2  0
 23 24  1  0
 24 25  2  0
 25 26  1  0
 26 27  1  0
 26 28  2  0
 28 29  1  0
 29 30  2  0
 23 31  1  0
 31 32  2  0
 32  2  1  0
 18  5  1  0
 32 20  1  0
 17 12  1  0
 30 24  1  0
  3 33  1  0
  3 34  1  0
  6 35  1  0
  7 36  1  0
  8 37  1  0
 13 38  1  0
 13 39  1  0
 14 40  1  0
 14 41  1  0
 16 42  1  0
 16 43  1  0
 17 44  1  0
 17 45  1  0
 18 46  1  0
 21 47  1  0
 22 48  1  0
 25 49  1  0
 28 50  1  0
 29 51  1  0
 31 52  1  0
M  END
>  <smiles>  (38) 
O=C1CC(c2cccc(C(=O)N3CCOCC3)c2)=Nc2ccc(-c3cc(Cl)ccn3)cc21

>  <score_type>  (38) 
oracle

>  <origin>  (38) 
autodockgpu

>  <m_score__min__energy>  (38) 
-8.6899999999999995

>  <m_primary>  (38) 
energy

>  <rmsd>  (38) 
9.110865901731565

>  <m_score__min__rmsd>  (38) 
9.110865901731565

>  <meeko>  (38) 
{"free_energy": -8.52, "intermolecular_energy": -9.41, "internal_energy": -1.0, "cluster_size": 41, "cluster_id": 1, "rank_in_cluster": 33}

>  <energy>  (38) 
-8.4

>  <cluster_rmsd>  (38) 
0.92

>  <cluster>  (38) 
1

$$$$

     RDKit          3D

 52 56  0  0  0  0  0  0  0  0999 V2000
  142.1340   80.4290  224.1510 O   0  0  0  0  0  0  0  0  0  0  0  0
  141.5490   79.9030  223.1880 C   0  0  0  0  0  0  0  0  0  0  0  0
  142.3200   79.0670  222.2380 C   0  0  0  0  0  0  0  0  0  0  0  0
  141.4420   78.5210  221.1850 C   0  0  0  0  0  0  0  0  0  0  0  0
  142.0270   77.6050  220.1900 C   0  0  0  0  0  0  0  0  0  0  0  0
  142.3750   78.0540  218.9460 C   0  0  0  0  0  0  0  0  0  0  0  0
  142.8900   77.2460  217.9610 C   0  0  0  0  0  0  0  0  0  0  0  0
  143.0630   75.8990  218.2530 C   0  0  0  0  0  0  0  0  0  0  0  0
  142.7130   75.4330  219.5190 C   0  0  0  0  0  0  0  0  0  0  0  0
  142.8760   74.0240  219.7970 C   0  0  0  0  0  0  0  0  0  0  0  0
  141.9110   73.2540  219.4740 O   0  0  0  0  0  0  0  0  0  0  0  0
  143.9950   73.4160  220.3870 N   0  0  0  0  0  0  0  0  0  0  0  0
  143.9810   71.9520  220.5740 C   0  0  0  0  0  0  0  0  0  0  0  0
  145.0860   71.4490  219.6630 C   0  0  0  0  0  0  0  0  0  0  0  0
  145.9080   72.4580  219.1800 O   0  0  0  0  0  0  0  0  0  0  0  0
  146.3370   73.3730  220.1100 C   0  0  0  0  0  0  0  0  0  0  0  0
  145.1930   74.0760  220.8420 C   0  0  0  0  0  0  0  0  0  0  0  0
  142.1980   76.2600  220.4940 C   0  0  0  0  0  0  0  0  0  0  0  0
  140.1810   78.7480  221.0890 N   0  0  0  0  0  0  0  0  0  0  0  0
  139.4460   79.5510  221.9890 C   0  0  0  0  0  0  0  0  0  0  0  0
  138.1010   79.7350  221.8230 C   0  0  0  0  0  0  0  0  0  0  0  0
  137.3500   80.5140  222.7020 C   0  0  0  0  0  0  0  0  0  0  0  0
  138.0070   81.0910  223.7450 C   0  0  0  0  0  0  0  0  0  0  0  0
  137.2810   81.8890  224.7050 C   0  0  0  0  0  0  0  0  0  0  0  0
  136.9460   81.4650  225.9660 C   0  0  0  0  0  0  0  0  0  0  0  0
  136.2590   82.2700  226.8760 C   0  0  0  0  0  0  0  0  0  0  0  0
  135.8710   81.6390  228.4770 Cl  0  0  0  0  0  0  0  0  0  0  0  0
  135.9110   83.5240  226.4820 C   0  0  0  0  0  0  0  0  0  0  0  0
  136.2500   83.9620  225.2020 C   0  0  0  0  0  0  0  0  0  0  0  0
  136.9140   83.1610  224.3500 N   0  0  0  0  0  0  0  0  0  0  0  0
  139.3740   80.9020  223.9100 C   0  0  0  0  0  0  0  0  0  0  0  0
  140.1250   80.1310  223.0420 C   0  0  0  0  0  0  0  0  0  0  0  0
  143.1034   79.6819  221.7708 H   0  0  0  0  0  0  0  0  0  0  0  0
  142.7686   78.2288  222.7913 H   0  0  0  0  0  0  0  0  0  0  0  0
  142.2348   79.1216  218.7213 H   0  0  0  0  0  0  0  0  0  0  0  0
  143.1564   77.6523  216.9741 H   0  0  0  0  0  0  0  0  0  0  0  0
  143.4698   75.2111  217.4971 H   0  0  0  0  0  0  0  0  0  0  0  0
  144.1902   71.6907  221.6218 H   0  0  0  0  0  0  0  0  0  0  0  0
  143.0038   71.5065  220.3363 H   0  0  0  0  0  0  0  0  0  0  0  0
  145.7049   70.7360  220.2274 H   0  0  0  0  0  0  0  0  0  0  0  0
  144.6007   70.9828  218.7928 H   0  0  0  0  0  0  0  0  0  0  0  0
  146.9576   72.8505  220.8529 H   0  0  0  0  0  0  0  0  0  0  0  0
  146.9006   74.1470  219.5685 H   0  0  0  0  0  0  0  0  0  0  0  0
  145.3052   73.9654  221.9306 H   0  0  0  0  0  0  0  0  0  0  0  0
  145.1728   75.1561  220.6347 H   0  0  0  0  0  0  0  0  0  0  0  0
  141.9298   75.8661  221.4854 H   0  0  0  0  0  0  0  0  0  0  0  0
  137.5972   79.2545  220.9713 H   0  0  0  0  0  0  0  0  0  0  0  0
  136.2688   80.6567  222.5582 H   0  0  0  0  0  0  0  0  0  0  0  0
  137.2308   80.4478  226.2728 H   0  0  0  0  0  0  0  0  0  0  0  0
  135.3657   84.1886  227.1682 H   0  0  0  0  0  0  0  0  0  0  0  0
  135.9702   84.9774  224.8848 H   0  0  0  0  0  0  0  0  0  0  0  0
  139.8766   81.3832  224.7619 H   0  0  0  0  0  0  0  0  0  0  0  0
  1  2  2  0
  2  3  1  0
  3  4  1  0
  4  5  1  0
  5  6  2  0
  6  7  1  0
  7  8  2  0
  8  9  1  0
  9 10  1  0
 10 11  2  0
 10 12  1  0
 12 13  1  0
 13 14  1  0
 14 15  1  0
 15 16  1  0
 16 17  1  0
  9 18  2  0
  4 19  2  0
 19 20  1  0
 20 21  2  0
 21 22  1  0
 22 23  2  0
 23 24  1  0
 24 25  2  0
 25 26  1  0
 26 27  1  0
 26 28  2  0
 28 29  1  0
 29 30  2  0
 23 31  1  0
 31 32  2  0
 32  2  1  0
 18  5  1  0
 32 20  1  0
 17 12  1  0
 30 24  1  0
  3 33  1  0
  3 34  1  0
  6 35  1  0
  7 36  1  0
  8 37  1  0
 13 38  1  0
 13 39  1  0
 14 40  1  0
 14 41  1  0
 16 42  1  0
 16 43  1  0
 17 44  1  0
 17 45  1  0
 18 46  1  0
 21 47  1  0
 22 48  1  0
 25 49  1  0
 28 50  1  0
 29 51  1  0
 31 52  1  0
M  END
>  <smiles>  (39) 
O=C1CC(c2cccc(C(=O)N3CCOCC3)c2)=Nc2ccc(-c3cc(Cl)ccn3)cc21

>  <score_type>  (39) 
oracle

>  <origin>  (39) 
autodockgpu

>  <m_score__min__energy>  (39) 
-8.6899999999999995

>  <m_primary>  (39) 
energy

>  <rmsd>  (39) 
8.911177543601097

>  <m_score__min__rmsd>  (39) 
8.911177543601097

>  <meeko>  (39) 
{"free_energy": -8.64, "intermolecular_energy": -9.53, "internal_energy": -1.01, "cluster_size": 41, "cluster_id": 1, "rank_in_cluster": 24}

>  <energy>  (39) 
-8.14

>  <cluster_rmsd>  (39) 
1.89

>  <cluster>  (39) 
1

$$$$

     RDKit          3D

 52 56  0  0  0  0  0  0  0  0999 V2000
  142.1590   80.7460  223.9570 O   0  0  0  0  0  0  0  0  0  0  0  0
  141.5590   80.1300  223.0580 C   0  0  0  0  0  0  0  0  0  0  0  0
  142.3320   79.2980  222.1050 C   0  0  0  0  0  0  0  0  0  0  0  0
  141.4370   78.6390  221.1350 C   0  0  0  0  0  0  0  0  0  0  0  0
  142.0280   77.7130  220.1530 C   0  0  0  0  0  0  0  0  0  0  0  0
  142.3920   78.1510  218.9100 C   0  0  0  0  0  0  0  0  0  0  0  0
  142.9130   77.3330  217.9360 C   0  0  0  0  0  0  0  0  0  0  0  0
  143.0770   75.9870  218.2410 C   0  0  0  0  0  0  0  0  0  0  0  0
  142.7100   75.5320  219.5060 C   0  0  0  0  0  0  0  0  0  0  0  0
  142.8630   74.1250  219.7960 C   0  0  0  0  0  0  0  0  0  0  0  0
  141.8930   73.3590  219.4780 O   0  0  0  0  0  0  0  0  0  0  0  0
  143.9770   73.5140  220.3930 N   0  0  0  0  0  0  0  0  0  0  0  0
  143.9520   72.0520  220.5920 C   0  0  0  0  0  0  0  0  0  0  0  0
  145.0540   71.5340  219.6870 C   0  0  0  0  0  0  0  0  0  0  0  0
  145.8850   72.5320  219.1970 O   0  0  0  0  0  0  0  0  0  0  0  0
  146.3180   73.4520  220.1190 C   0  0  0  0  0  0  0  0  0  0  0  0
  145.1790   74.1690  220.8440 C   0  0  0  0  0  0  0  0  0  0  0  0
  142.1890   76.3690  220.4690 C   0  0  0  0  0  0  0  0  0  0  0  0
  140.1590   78.7750  221.1040 N   0  0  0  0  0  0  0  0  0  0  0  0
  139.4220   79.5730  222.0050 C   0  0  0  0  0  0  0  0  0  0  0  0
  138.0600   79.6570  221.9110 C   0  0  0  0  0  0  0  0  0  0  0  0
  137.3060   80.4290  222.7940 C   0  0  0  0  0  0  0  0  0  0  0  0
  137.9790   81.1040  223.7670 C   0  0  0  0  0  0  0  0  0  0  0  0
  137.2540   81.9010  224.7270 C   0  0  0  0  0  0  0  0  0  0  0  0
  136.9360   81.4840  225.9940 C   0  0  0  0  0  0  0  0  0  0  0  0
  136.2490   82.2880  226.9050 C   0  0  0  0  0  0  0  0  0  0  0  0
  135.8840   81.6650  228.5150 Cl  0  0  0  0  0  0  0  0  0  0  0  0
  135.8840   83.5350  226.5060 C   0  0  0  0  0  0  0  0  0  0  0  0
  136.2050   83.9670  225.2190 C   0  0  0  0  0  0  0  0  0  0  0  0
  136.8700   83.1670  224.3670 N   0  0  0  0  0  0  0  0  0  0  0  0
  139.3630   81.0180  223.8580 C   0  0  0  0  0  0  0  0  0  0  0  0
  140.1170   80.2530  222.9860 C   0  0  0  0  0  0  0  0  0  0  0  0
  143.0425   79.9385  221.5619 H   0  0  0  0  0  0  0  0  0  0  0  0
  142.8688   78.5224  222.6710 H   0  0  0  0  0  0  0  0  0  0  0  0
  142.2605   79.2178  218.6764 H   0  0  0  0  0  0  0  0  0  0  0  0
  143.1907   77.7302  216.9485 H   0  0  0  0  0  0  0  0  0  0  0  0
  143.4901   75.2917  217.4954 H   0  0  0  0  0  0  0  0  0  0  0  0
  144.1579   71.7977  221.6422 H   0  0  0  0  0  0  0  0  0  0  0  0
  142.9719   71.6116  220.3567 H   0  0  0  0  0  0  0  0  0  0  0  0
  145.6664   70.8206  220.2579 H   0  0  0  0  0  0  0  0  0  0  0  0
  144.5659   71.0655  218.8196 H   0  0  0  0  0  0  0  0  0  0  0  0
  146.9345   72.9321  220.8670 H   0  0  0  0  0  0  0  0  0  0  0  0
  146.8862   74.2178  219.5707 H   0  0  0  0  0  0  0  0  0  0  0  0
  145.2894   74.0663  221.9336 H   0  0  0  0  0  0  0  0  0  0  0  0
  145.1669   75.2476  220.6282 H   0  0  0  0  0  0  0  0  0  0  0  0
  141.9083   75.9840  221.4605 H   0  0  0  0  0  0  0  0  0  0  0  0
  137.5444   79.0991  221.1154 H   0  0  0  0  0  0  0  0  0  0  0  0
  136.2111   80.4905  222.7082 H   0  0  0  0  0  0  0  0  0  0  0  0
  137.2352   80.4724  226.3058 H   0  0  0  0  0  0  0  0  0  0  0  0
  135.3392   84.1990  227.1932 H   0  0  0  0  0  0  0  0  0  0  0  0
  135.9099   84.9764  224.8965 H   0  0  0  0  0  0  0  0  0  0  0  0
  139.8778   81.5785  224.6522 H   0  0  0  0  0  0  0  0  0  0  0  0
  1  2  2  0
  2  3  1  0
  3  4  1  0
  4  5  1  0
  5  6  2  0
  6  7  1  0
  7  8  2  0
  8  9  1  0
  9 10  1  0
 10 11  2  0
 10 12  1  0
 12 13  1  0
 13 14  1  0
 14 15  1  0
 15 16  1  0
 16 17  1  0
  9 18  2  0
  4 19  2  0
 19 20  1  0
 20 21  2  0
 21 22  1  0
 22 23  2  0
 23 24  1  0
 24 25  2  0
 25 26  1  0
 26 27  1  0
 26 28  2  0
 28 29  1  0
 29 30  2  0
 23 31  1  0
 31 32  2  0
 32  2  1  0
 18  5  1  0
 32 20  1  0
 17 12  1  0
 30 24  1  0
  3 33  1  0
  3 34  1  0
  6 35  1  0
  7 36  1  0
  8 37  1  0
 13 38  1  0
 13 39  1  0
 14 40  1  0
 14 41  1  0
 16 42  1  0
 16 43  1  0
 17 44  1  0
 17 45  1  0
 18 46  1  0
 21 47  1  0
 22 48  1  0
 25 49  1  0
 28 50  1  0
 29 51  1  0
 31 52  1  0
M  END
>  <smiles>  (40) 
O=C1CC(c2cccc(C(=O)N3CCOCC3)c2)=Nc2ccc(-c3cc(Cl)ccn3)cc21

>  <score_type>  (40) 
oracle

>  <origin>  (40) 
autodockgpu

>  <m_score__min__energy>  (40) 
-8.6899999999999995

>  <m_primary>  (40) 
energy

>  <rmsd>  (40) 
9.019819736430119

>  <m_score__min__rmsd>  (40) 
9.019819736430119

>  <meeko>  (40) 
{"free_energy": -8.63, "intermolecular_energy": -9.53, "internal_energy": -1.0, "cluster_size": 41, "cluster_id": 1, "rank_in_cluster": 28}

>  <energy>  (40) 
-8.12

>  <cluster_rmsd>  (40) 
1.88

>  <cluster>  (40) 
1

$$$$

     RDKit          3D

 52 56  0  0  0  0  0  0  0  0999 V2000
  141.9810   81.4610  223.4000 O   0  0  0  0  0  0  0  0  0  0  0  0
  141.4070   80.5850  222.7280 C   0  0  0  0  0  0  0  0  0  0  0  0
  142.1970   79.7620  221.7810 C   0  0  0  0  0  0  0  0  0  0  0  0
  141.3370   78.7740  221.1000 C   0  0  0  0  0  0  0  0  0  0  0  0
  141.9680   77.8180  220.1730 C   0  0  0  0  0  0  0  0  0  0  0  0
  142.3980   78.2220  218.9390 C   0  0  0  0  0  0  0  0  0  0  0  0
  142.9590   77.3760  218.0130 C   0  0  0  0  0  0  0  0  0  0  0  0
  143.0950   76.0360  218.3580 C   0  0  0  0  0  0  0  0  0  0  0  0
  142.6600   75.6170  219.6140 C   0  0  0  0  0  0  0  0  0  0  0  0
  142.7850   74.2160  219.9450 C   0  0  0  0  0  0  0  0  0  0  0  0
  141.7610   73.4790  219.7460 O   0  0  0  0  0  0  0  0  0  0  0  0
  143.9240   73.5810  220.4650 N   0  0  0  0  0  0  0  0  0  0  0  0
  143.8610   72.1300  220.7240 C   0  0  0  0  0  0  0  0  0  0  0  0
  144.8570   71.5330  219.7470 C   0  0  0  0  0  0  0  0  0  0  0  0
  145.6770   72.4770  219.1450 O   0  0  0  0  0  0  0  0  0  0  0  0
  146.2270   73.4110  219.9870 C   0  0  0  0  0  0  0  0  0  0  0  0
  145.1860   74.2010  220.7810 C   0  0  0  0  0  0  0  0  0  0  0  0
  142.0990   76.4810  220.5290 C   0  0  0  0  0  0  0  0  0  0  0  0
  140.0720   78.6480  221.2870 N   0  0  0  0  0  0  0  0  0  0  0  0
  139.3170   79.4360  222.1830 C   0  0  0  0  0  0  0  0  0  0  0  0
  137.9730   79.2320  222.3320 C   0  0  0  0  0  0  0  0  0  0  0  0
  137.2060   79.9890  223.2160 C   0  0  0  0  0  0  0  0  0  0  0  0
  137.8480   80.9490  223.9370 C   0  0  0  0  0  0  0  0  0  0  0  0
  137.1140   81.7500  224.8890 C   0  0  0  0  0  0  0  0  0  0  0  0
  136.8800   81.3830  226.1890 C   0  0  0  0  0  0  0  0  0  0  0  0
  136.1820   82.1910  227.0890 C   0  0  0  0  0  0  0  0  0  0  0  0
  135.9290   81.6350  228.7440 Cl  0  0  0  0  0  0  0  0  0  0  0  0
  135.7180   83.3880  226.6430 C   0  0  0  0  0  0  0  0  0  0  0  0
  135.9540   83.7690  225.3210 C   0  0  0  0  0  0  0  0  0  0  0  0
  136.6320   82.9670  224.4810 N   0  0  0  0  0  0  0  0  0  0  0  0
  139.2130   81.1550  223.7830 C   0  0  0  0  0  0  0  0  0  0  0  0
  139.9800   80.4070  222.9070 C   0  0  0  0  0  0  0  0  0  0  0  0
  142.6563   80.4196  221.0283 H   0  0  0  0  0  0  0  0  0  0  0  0
  142.9733   79.2239  222.3448 H   0  0  0  0  0  0  0  0  0  0  0  0
  142.2885   79.2837  218.6730 H   0  0  0  0  0  0  0  0  0  0  0  0
  143.2895   77.7465  217.0314 H   0  0  0  0  0  0  0  0  0  0  0  0
  143.5384   75.3188  217.6516 H   0  0  0  0  0  0  0  0  0  0  0  0
  144.1502   71.9061  221.7614 H   0  0  0  0  0  0  0  0  0  0  0  0
  142.8475   71.7227  220.5936 H   0  0  0  0  0  0  0  0  0  0  0  0
  145.4911   70.8171  220.2904 H   0  0  0  0  0  0  0  0  0  0  0  0
  144.2758   71.0522  218.9463 H   0  0  0  0  0  0  0  0  0  0  0  0
  146.8883   72.8934  220.6975 H   0  0  0  0  0  0  0  0  0  0  0  0
  146.7727   74.1317  219.3602 H   0  0  0  0  0  0  0  0  0  0  0  0
  145.3902   74.1335  221.8598 H   0  0  0  0  0  0  0  0  0  0  0  0
  145.1959   75.2705  220.5241 H   0  0  0  0  0  0  0  0  0  0  0  0
  141.7642   76.1226  221.5136 H   0  0  0  0  0  0  0  0  0  0  0  0
  137.4829   78.4475  221.7368 H   0  0  0  0  0  0  0  0  0  0  0  0
  136.1251   79.8176  223.3267 H   0  0  0  0  0  0  0  0  0  0  0  0
  137.2581   80.4108  226.5380 H   0  0  0  0  0  0  0  0  0  0  0  0
  135.1601   84.0523  227.3194 H   0  0  0  0  0  0  0  0  0  0  0  0
  135.5801   84.7389  224.9612 H   0  0  0  0  0  0  0  0  0  0  0  0
  139.7016   81.9404  224.3784 H   0  0  0  0  0  0  0  0  0  0  0  0
  1  2  2  0
  2  3  1  0
  3  4  1  0
  4  5  1  0
  5  6  2  0
  6  7  1  0
  7  8  2  0
  8  9  1  0
  9 10  1  0
 10 11  2  0
 10 12  1  0
 12 13  1  0
 13 14  1  0
 14 15  1  0
 15 16  1  0
 16 17  1  0
  9 18  2  0
  4 19  2  0
 19 20  1  0
 20 21  2  0
 21 22  1  0
 22 23  2  0
 23 24  1  0
 24 25  2  0
 25 26  1  0
 26 27  1  0
 26 28  2  0
 28 29  1  0
 29 30  2  0
 23 31  1  0
 31 32  2  0
 32  2  1  0
 18  5  1  0
 32 20  1  0
 17 12  1  0
 30 24  1  0
  3 33  1  0
  3 34  1  0
  6 35  1  0
  7 36  1  0
  8 37  1  0
 13 38  1  0
 13 39  1  0
 14 40  1  0
 14 41  1  0
 16 42  1  0
 16 43  1  0
 17 44  1  0
 17 45  1  0
 18 46  1  0
 21 47  1  0
 22 48  1  0
 25 49  1  0
 28 50  1  0
 29 51  1  0
 31 52  1  0
M  END
>  <smiles>  (41) 
O=C1CC(c2cccc(C(=O)N3CCOCC3)c2)=Nc2ccc(-c3cc(Cl)ccn3)cc21

>  <score_type>  (41) 
oracle

>  <origin>  (41) 
autodockgpu

>  <m_score__min__energy>  (41) 
-8.6899999999999995

>  <m_primary>  (41) 
energy

>  <rmsd>  (41) 
9.169127806587692

>  <m_score__min__rmsd>  (41) 
9.169127806587692

>  <meeko>  (41) 
{"free_energy": -8.47, "intermolecular_energy": -9.37, "internal_energy": -1.0, "cluster_size": 41, "cluster_id": 1, "rank_in_cluster": 36}

>  <energy>  (41) 
-8.08

>  <cluster_rmsd>  (41) 
1.88

>  <cluster>  (41) 
1

$$$$

     RDKit          3D

 52 56  0  0  0  0  0  0  0  0999 V2000
  142.0550   81.5410  223.2650 O   0  0  0  0  0  0  0  0  0  0  0  0
  141.4700   80.6440  222.6310 C   0  0  0  0  0  0  0  0  0  0  0  0
  142.2400   79.8070  221.6800 C   0  0  0  0  0  0  0  0  0  0  0  0
  141.3710   78.7950  221.0490 C   0  0  0  0  0  0  0  0  0  0  0  0
  141.9830   77.8240  220.1250 C   0  0  0  0  0  0  0  0  0  0  0  0
  142.3890   78.2070  218.8760 C   0  0  0  0  0  0  0  0  0  0  0  0
  142.9320   77.3460  217.9540 C   0  0  0  0  0  0  0  0  0  0  0  0
  143.0750   76.0120  218.3190 C   0  0  0  0  0  0  0  0  0  0  0  0
  142.6660   75.6140  219.5900 C   0  0  0  0  0  0  0  0  0  0  0  0
  142.7980   74.2190  219.9420 C   0  0  0  0  0  0  0  0  0  0  0  0
  141.7640   73.4840  219.8000 O   0  0  0  0  0  0  0  0  0  0  0  0
  143.9560   73.5880  220.4260 N   0  0  0  0  0  0  0  0  0  0  0  0
  143.8980   72.1420  220.7140 C   0  0  0  0  0  0  0  0  0  0  0  0
  144.8480   71.5210  219.7080 C   0  0  0  0  0  0  0  0  0  0  0  0
  145.6460   72.4500  219.0540 O   0  0  0  0  0  0  0  0  0  0  0  0
  146.2360   73.3970  219.8540 C   0  0  0  0  0  0  0  0  0  0  0  0
  145.2320   74.2070  220.6760 C   0  0  0  0  0  0  0  0  0  0  0  0
  142.1230   76.4930  220.5010 C   0  0  0  0  0  0  0  0  0  0  0  0
  140.1130   78.6610  221.2760 N   0  0  0  0  0  0  0  0  0  0  0  0
  139.3770   79.4630  222.1760 C   0  0  0  0  0  0  0  0  0  0  0  0
  138.0410   79.2490  222.3690 C   0  0  0  0  0  0  0  0  0  0  0  0
  137.2920   80.0190  223.2590 C   0  0  0  0  0  0  0  0  0  0  0  0
  137.9450   81.0020  223.9380 C   0  0  0  0  0  0  0  0  0  0  0  0
  137.2310   81.8180  224.8920 C   0  0  0  0  0  0  0  0  0  0  0  0
  136.9100   81.4170  226.1640 C   0  0  0  0  0  0  0  0  0  0  0  0
  136.2350   82.2380  227.0680 C   0  0  0  0  0  0  0  0  0  0  0  0
  135.8650   81.6360  228.6840 Cl  0  0  0  0  0  0  0  0  0  0  0  0
  135.8860   83.4860  226.6570 C   0  0  0  0  0  0  0  0  0  0  0  0
  136.2100   83.9020  225.3650 C   0  0  0  0  0  0  0  0  0  0  0  0
  136.8630   83.0840  224.5200 N   0  0  0  0  0  0  0  0  0  0  0  0
  139.3030   81.2170  223.7380 C   0  0  0  0  0  0  0  0  0  0  0  0
  140.0510   80.4570  222.8570 C   0  0  0  0  0  0  0  0  0  0  0  0
  142.6693   80.4513  220.8985 H   0  0  0  0  0  0  0  0  0  0  0  0
  143.0388   79.2903  222.2323 H   0  0  0  0  0  0  0  0  0  0  0  0
  142.2741   79.2641  218.5943 H   0  0  0  0  0  0  0  0  0  0  0  0
  143.2433   77.6999  216.9601 H   0  0  0  0  0  0  0  0  0  0  0  0
  143.5040   75.2829  217.6159 H   0  0  0  0  0  0  0  0  0  0  0  0
  144.2300   71.9359  221.7422 H   0  0  0  0  0  0  0  0  0  0  0  0
  142.8780   71.7381  220.6336 H   0  0  0  0  0  0  0  0  0  0  0  0
  145.5014   70.8121  220.2376 H   0  0  0  0  0  0  0  0  0  0  0  0
  144.2315   71.0276  218.9422 H   0  0  0  0  0  0  0  0  0  0  0  0
  146.9245   72.8896  220.5457 H   0  0  0  0  0  0  0  0  0  0  0  0
  146.7585   74.1027  219.1915 H   0  0  0  0  0  0  0  0  0  0  0  0
  145.4813   74.1591  221.7463 H   0  0  0  0  0  0  0  0  0  0  0  0
  145.2352   75.2713  220.3979 H   0  0  0  0  0  0  0  0  0  0  0  0
  141.8089   76.1513  221.4983 H   0  0  0  0  0  0  0  0  0  0  0  0
  137.5419   78.4464  221.8063 H   0  0  0  0  0  0  0  0  0  0  0  0
  136.2169   79.8392  223.4063 H   0  0  0  0  0  0  0  0  0  0  0  0
  137.1971   80.4048  226.4851 H   0  0  0  0  0  0  0  0  0  0  0  0
  135.3514   84.1638  227.3388 H   0  0  0  0  0  0  0  0  0  0  0  0
  135.9277   84.9121  225.0332 H   0  0  0  0  0  0  0  0  0  0  0  0
  139.8012   82.0204  224.3005 H   0  0  0  0  0  0  0  0  0  0  0  0
  1  2  2  0
  2  3  1  0
  3  4  1  0
  4  5  1  0
  5  6  2  0
  6  7  1  0
  7  8  2  0
  8  9  1  0
  9 10  1  0
 10 11  2  0
 10 12  1  0
 12 13  1  0
 13 14  1  0
 14 15  1  0
 15 16  1  0
 16 17  1  0
  9 18  2  0
  4 19  2  0
 19 20  1  0
 20 21  2  0
 21 22  1  0
 22 23  2  0
 23 24  1  0
 24 25  2  0
 25 26  1  0
 26 27  1  0
 26 28  2  0
 28 29  1  0
 29 30  2  0
 23 31  1  0
 31 32  2  0
 32  2  1  0
 18  5  1  0
 32 20  1  0
 17 12  1  0
 30 24  1  0
  3 33  1  0
  3 34  1  0
  6 35  1  0
  7 36  1  0
  8 37  1  0
 13 38  1  0
 13 39  1  0
 14 40  1  0
 14 41  1  0
 16 42  1  0
 16 43  1  0
 17 44  1  0
 17 45  1  0
 18 46  1  0
 21 47  1  0
 22 48  1  0
 25 49  1  0
 28 50  1  0
 29 51  1  0
 31 52  1  0
M  END
>  <smiles>  (42) 
O=C1CC(c2cccc(C(=O)N3CCOCC3)c2)=Nc2ccc(-c3cc(Cl)ccn3)cc21

>  <score_type>  (42) 
oracle

>  <origin>  (42) 
autodockgpu

>  <m_score__min__energy>  (42) 
-8.6899999999999995

>  <m_primary>  (42) 
energy

>  <rmsd>  (42) 
9.217771399159416

>  <m_score__min__rmsd>  (42) 
9.217771399159416

>  <meeko>  (42) 
{"free_energy": -8.49, "intermolecular_energy": -9.38, "internal_energy": -1.0, "cluster_size": 41, "cluster_id": 1, "rank_in_cluster": 35}

>  <energy>  (42) 
-8.69

>  <cluster_rmsd>  (42) 
0.0

>  <cluster>  (42) 
2

$$$$

     RDKit          3D

 52 56  0  0  0  0  0  0  0  0999 V2000
  141.8910   80.9250  223.8270 O   0  0  0  0  0  0  0  0  0  0  0  0
  141.3320   80.1340  223.0470 C   0  0  0  0  0  0  0  0  0  0  0  0
  142.1440   79.4120  222.0380 C   0  0  0  0  0  0  0  0  0  0  0  0
  141.2990   78.5120  221.2290 C   0  0  0  0  0  0  0  0  0  0  0  0
  141.9500   77.6580  220.2210 C   0  0  0  0  0  0  0  0  0  0  0  0
  142.3610   78.1780  219.0240 C   0  0  0  0  0  0  0  0  0  0  0  0
  142.9410   77.4310  218.0270 C   0  0  0  0  0  0  0  0  0  0  0  0
  143.1170   76.0720  218.2560 C   0  0  0  0  0  0  0  0  0  0  0  0
  142.7030   75.5340  219.4730 C   0  0  0  0  0  0  0  0  0  0  0  0
  142.8700   74.1140  219.6830 C   0  0  0  0  0  0  0  0  0  0  0  0
  141.9320   73.3520  219.2710 O   0  0  0  0  0  0  0  0  0  0  0  0
  143.9660   73.4860  220.2960 N   0  0  0  0  0  0  0  0  0  0  0  0
  143.9620   72.0140  220.4030 C   0  0  0  0  0  0  0  0  0  0  0  0
  145.1160   71.5720  219.5250 C   0  0  0  0  0  0  0  0  0  0  0  0
  145.9490   72.6130  219.1380 O   0  0  0  0  0  0  0  0  0  0  0  0
  146.3190   73.4820  220.1350 C   0  0  0  0  0  0  0  0  0  0  0  0
  145.1310   74.1320  220.8460 C   0  0  0  0  0  0  0  0  0  0  0  0
  142.1230   76.3000  220.4610 C   0  0  0  0  0  0  0  0  0  0  0  0
  140.0280   78.3780  221.3640 N   0  0  0  0  0  0  0  0  0  0  0  0
  139.2520   79.0710  222.3190 C   0  0  0  0  0  0  0  0  0  0  0  0
  137.9030   78.8650  222.4060 C   0  0  0  0  0  0  0  0  0  0  0  0
  137.1150   79.5270  223.3460 C   0  0  0  0  0  0  0  0  0  0  0  0
  137.7410   80.3960  224.1860 C   0  0  0  0  0  0  0  0  0  0  0  0
  136.9830   81.0950  225.1980 C   0  0  0  0  0  0  0  0  0  0  0  0
  135.6630   80.8540  225.4780 C   0  0  0  0  0  0  0  0  0  0  0  0
  134.9650   81.5350  226.4770 C   0  0  0  0  0  0  0  0  0  0  0  0
  133.2660   81.1570  226.7660 Cl  0  0  0  0  0  0  0  0  0  0  0  0
  135.6350   82.4760  227.1930 C   0  0  0  0  0  0  0  0  0  0  0  0
  136.9790   82.7260  226.9150 C   0  0  0  0  0  0  0  0  0  0  0  0
  137.6210   82.0500  225.9460 N   0  0  0  0  0  0  0  0  0  0  0  0
  139.1110   80.6050  224.0940 C   0  0  0  0  0  0  0  0  0  0  0  0
  139.8990   79.9510  223.1640 C   0  0  0  0  0  0  0  0  0  0  0  0
  142.6287   80.1438  221.3750 H   0  0  0  0  0  0  0  0  0  0  0  0
  142.9001   78.8084  222.5614 H   0  0  0  0  0  0  0  0  0  0  0  0
  142.2191   79.2548  218.8499 H   0  0  0  0  0  0  0  0  0  0  0  0
  143.2553   77.8934  217.0797 H   0  0  0  0  0  0  0  0  0  0  0  0
  143.5758   75.4309  217.4889 H   0  0  0  0  0  0  0  0  0  0  0  0
  144.1217   71.6985  221.4446 H   0  0  0  0  0  0  0  0  0  0  0  0
  143.0038   71.5724  220.0918 H   0  0  0  0  0  0  0  0  0  0  0  0
  145.7146   70.8358  220.0816 H   0  0  0  0  0  0  0  0  0  0  0  0
  144.6805   71.1487  218.6079 H   0  0  0  0  0  0  0  0  0  0  0  0
  146.9100   72.9278  220.8790 H   0  0  0  0  0  0  0  0  0  0  0  0
  146.8970   74.2903  219.6633 H   0  0  0  0  0  0  0  0  0  0  0  0
  145.1905   73.9626  221.9312 H   0  0  0  0  0  0  0  0  0  0  0  0
  145.1072   75.2217  220.6974 H   0  0  0  0  0  0  0  0  0  0  0  0
  141.8058   75.8492  221.4129 H   0  0  0  0  0  0  0  0  0  0  0  0
  137.4256   78.1559  221.7137 H   0  0  0  0  0  0  0  0  0  0  0  0
  136.0304   79.3540  223.4066 H   0  0  0  0  0  0  0  0  0  0  0  0
  135.1309   80.0914  224.8904 H   0  0  0  0  0  0  0  0  0  0  0  0
  135.1206   83.0372  227.9870 H   0  0  0  0  0  0  0  0  0  0  0  0
  137.5209   83.4865  227.4964 H   0  0  0  0  0  0  0  0  0  0  0  0
  139.5865   81.3161  224.7855 H   0  0  0  0  0  0  0  0  0  0  0  0
  1  2  2  0
  2  3  1  0
  3  4  1  0
  4  5  1  0
  5  6  2  0
  6  7  1  0
  7  8  2  0
  8  9  1  0
  9 10  1  0
 10 11  2  0
 10 12  1  0
 12 13  1  0
 13 14  1  0
 14 15  1  0
 15 16  1  0
 16 17  1  0
  9 18  2  0
  4 19  2  0
 19 20  1  0
 20 21  2  0
 21 22  1  0
 22 23  2  0
 23 24  1  0
 24 25  2  0
 25 26  1  0
 26 27  1  0
 26 28  2  0
 28 29  1  0
 29 30  2  0
 23 31  1  0
 31 32  2  0
 32  2  1  0
 18  5  1  0
 32 20  1  0
 17 12  1  0
 30 24  1  0
  3 33  1  0
  3 34  1  0
  6 35  1  0
  7 36  1  0
  8 37  1  0
 13 38  1  0
 13 39  1  0
 14 40  1  0
 14 41  1  0
 16 42  1  0
 16 43  1  0
 17 44  1  0
 17 45  1  0
 18 46  1  0
 21 47  1  0
 22 48  1  0
 25 49  1  0
 28 50  1  0
 29 51  1  0
 31 52  1  0
M  END
>  <smiles>  (43) 
O=C1CC(c2cccc(C(=O)N3CCOCC3)c2)=Nc2ccc(-c3cc(Cl)ccn3)cc21

>  <score_type>  (43) 
oracle

>  <origin>  (43) 
autodockgpu

>  <m_score__min__energy>  (43) 
-8.6899999999999995

>  <m_primary>  (43) 
energy

>  <rmsd>  (43) 
8.91944933061154

>  <m_score__min__rmsd>  (43) 
8.91944933061154

>  <meeko>  (43) 
{"free_energy": -8.69, "intermolecular_energy": -9.59, "internal_energy": -1.0, "cluster_size": 41, "cluster_id": 1, "rank_in_cluster": 5}

>  <energy>  (43) 
-8.62

>  <cluster_rmsd>  (43) 
1.15

>  <cluster>  (43) 
2

$$$$

     RDKit          3D

 52 56  0  0  0  0  0  0  0  0999 V2000
  142.2130   80.8970  223.8600 O   0  0  0  0  0  0  0  0  0  0  0  0
  141.5990   80.1810  223.0500 C   0  0  0  0  0  0  0  0  0  0  0  0
  142.3610   79.3980  222.0490 C   0  0  0  0  0  0  0  0  0  0  0  0
  141.4520   78.6030  221.1990 C   0  0  0  0  0  0  0  0  0  0  0  0
  142.0410   77.7050  220.1910 C   0  0  0  0  0  0  0  0  0  0  0  0
  142.4080   78.1790  218.9610 C   0  0  0  0  0  0  0  0  0  0  0  0
  142.9270   77.3890  217.9650 C   0  0  0  0  0  0  0  0  0  0  0  0
  143.0880   76.0340  218.2290 C   0  0  0  0  0  0  0  0  0  0  0  0
  142.7190   75.5430  219.4800 C   0  0  0  0  0  0  0  0  0  0  0  0
  142.8690   74.1280  219.7290 C   0  0  0  0  0  0  0  0  0  0  0  0
  141.9060   73.3710  219.3700 O   0  0  0  0  0  0  0  0  0  0  0  0
  143.9740   73.4990  220.3250 N   0  0  0  0  0  0  0  0  0  0  0  0
  143.9480   72.0310  220.4780 C   0  0  0  0  0  0  0  0  0  0  0  0
  145.0660   71.5420  219.5760 C   0  0  0  0  0  0  0  0  0  0  0  0
  145.9030   72.5560  219.1320 O   0  0  0  0  0  0  0  0  0  0  0  0
  146.3200   73.4470  220.0890 C   0  0  0  0  0  0  0  0  0  0  0  0
  145.1670   74.1410  220.8170 C   0  0  0  0  0  0  0  0  0  0  0  0
  142.1990   76.3520  220.4670 C   0  0  0  0  0  0  0  0  0  0  0  0
  140.1710   78.5980  221.2990 N   0  0  0  0  0  0  0  0  0  0  0  0
  139.4430   79.3490  222.2470 C   0  0  0  0  0  0  0  0  0  0  0  0
  138.0780   79.2800  222.2940 C   0  0  0  0  0  0  0  0  0  0  0  0
  137.3350   80.0030  223.2270 C   0  0  0  0  0  0  0  0  0  0  0  0
  138.0220   80.7890  224.1000 C   0  0  0  0  0  0  0  0  0  0  0  0
  137.3120   81.5430  225.1060 C   0  0  0  0  0  0  0  0  0  0  0  0
  136.9260   82.8510  224.9610 C   0  0  0  0  0  0  0  0  0  0  0  0
  136.2230   83.5460  225.9470 C   0  0  0  0  0  0  0  0  0  0  0  0
  135.7690   85.2280  225.6710 Cl  0  0  0  0  0  0  0  0  0  0  0  0
  135.9170   82.8870  227.0950 C   0  0  0  0  0  0  0  0  0  0  0  0
  136.3040   81.5550  227.2490 C   0  0  0  0  0  0  0  0  0  0  0  0
  136.9800   80.9150  226.2780 N   0  0  0  0  0  0  0  0  0  0  0  0
  139.4090   80.8580  224.0490 C   0  0  0  0  0  0  0  0  0  0  0  0
  140.1520   80.1430  223.1260 C   0  0  0  0  0  0  0  0  0  0  0  0
  142.9364   80.0879  221.4142 H   0  0  0  0  0  0  0  0  0  0  0  0
  143.0363   78.7110  222.5801 H   0  0  0  0  0  0  0  0  0  0  0  0
  142.2802   79.2527  218.7588 H   0  0  0  0  0  0  0  0  0  0  0  0
  143.2063   77.8147  216.9899 H   0  0  0  0  0  0  0  0  0  0  0  0
  143.4999   75.3603  217.4632 H   0  0  0  0  0  0  0  0  0  0  0  0
  144.1366   71.7444  221.5231 H   0  0  0  0  0  0  0  0  0  0  0  0
  142.9726   71.5973  220.2124 H   0  0  0  0  0  0  0  0  0  0  0  0
  145.6698   70.8118  220.1347 H   0  0  0  0  0  0  0  0  0  0  0  0
  144.5938   71.0996  218.6864 H   0  0  0  0  0  0  0  0  0  0  0  0
  146.9244   72.9044  220.8308 H   0  0  0  0  0  0  0  0  0  0  0  0
  146.8970   74.2296  219.5746 H   0  0  0  0  0  0  0  0  0  0  0  0
  145.2588   74.0046  221.9047 H   0  0  0  0  0  0  0  0  0  0  0  0
  145.1571   75.2258  220.6350 H   0  0  0  0  0  0  0  0  0  0  0  0
  141.9167   75.9383  221.4464 H   0  0  0  0  0  0  0  0  0  0  0  0
  137.5508   78.6356  221.5751 H   0  0  0  0  0  0  0  0  0  0  0  0
  136.2372   79.9404  223.2560 H   0  0  0  0  0  0  0  0  0  0  0  0
  137.1811   83.3749  224.0280 H   0  0  0  0  0  0  0  0  0  0  0  0
  135.3677   83.4001  227.8981 H   0  0  0  0  0  0  0  0  0  0  0  0
  136.0527   81.0211  228.1773 H   0  0  0  0  0  0  0  0  0  0  0  0
  139.9349   81.5037  224.7676 H   0  0  0  0  0  0  0  0  0  0  0  0
  1  2  2  0
  2  3  1  0
  3  4  1  0
  4  5  1  0
  5  6  2  0
  6  7  1  0
  7  8  2  0
  8  9  1  0
  9 10  1  0
 10 11  2  0
 10 12  1  0
 12 13  1  0
 13 14  1  0
 14 15  1  0
 15 16  1  0
 16 17  1  0
  9 18  2  0
  4 19  2  0
 19 20  1  0
 20 21  2  0
 21 22  1  0
 22 23  2  0
 23 24  1  0
 24 25  2  0
 25 26  1  0
 26 27  1  0
 26 28  2  0
 28 29  1  0
 29 30  2  0
 23 31  1  0
 31 32  2  0
 32  2  1  0
 18  5  1  0
 32 20  1  0
 17 12  1  0
 30 24  1  0
  3 33  1  0
  3 34  1  0
  6 35  1  0
  7 36  1  0
  8 37  1  0
 13 38  1  0
 13 39  1  0
 14 40  1  0
 14 41  1  0
 16 42  1  0
 16 43  1  0
 17 44  1  0
 17 45  1  0
 18 46  1  0
 21 47  1  0
 22 48  1  0
 25 49  1  0
 28 50  1  0
 29 51  1  0
 31 52  1  0
M  END
>  <smiles>  (44) 
O=C1CC(c2cccc(C(=O)N3CCOCC3)c2)=Nc2ccc(-c3cc(Cl)ccn3)cc21

>  <score_type>  (44) 
oracle

>  <origin>  (44) 
autodockgpu

>  <m_score__min__energy>  (44) 
-8.6899999999999995

>  <m_primary>  (44) 
energy

>  <rmsd>  (44) 
8.993342371595006

>  <m_score__min__rmsd>  (44) 
8.993342371595006

>  <meeko>  (44) 
{"free_energy": -8.66, "intermolecular_energy": -9.55, "internal_energy": -1.0, "cluster_size": 41, "cluster_id": 1, "rank_in_cluster": 18}

>  <energy>  (44) 
-8.6

>  <cluster_rmsd>  (44) 
1.12

>  <cluster>  (44) 
2

$$$$

     RDKit          3D

 52 56  0  0  0  0  0  0  0  0999 V2000
  141.9500   80.7480  223.9780 O   0  0  0  0  0  0  0  0  0  0  0  0
  141.3780   80.0190  223.1480 C   0  0  0  0  0  0  0  0  0  0  0  0
  142.1860   79.3050  222.1300 C   0  0  0  0  0  0  0  0  0  0  0  0
  141.3250   78.4830  221.2580 C   0  0  0  0  0  0  0  0  0  0  0  0
  141.9670   77.6440  220.2310 C   0  0  0  0  0  0  0  0  0  0  0  0
  142.3640   78.1820  219.0370 C   0  0  0  0  0  0  0  0  0  0  0  0
  142.9340   77.4500  218.0240 C   0  0  0  0  0  0  0  0  0  0  0  0
  143.1130   76.0870  218.2300 C   0  0  0  0  0  0  0  0  0  0  0  0
  142.7130   75.5310  219.4440 C   0  0  0  0  0  0  0  0  0  0  0  0
  142.8830   74.1090  219.6320 C   0  0  0  0  0  0  0  0  0  0  0  0
  141.9580   73.3500  219.1870 O   0  0  0  0  0  0  0  0  0  0  0  0
  143.9700   73.4750  220.2550 N   0  0  0  0  0  0  0  0  0  0  0  0
  143.9710   72.0020  220.3350 C   0  0  0  0  0  0  0  0  0  0  0  0
  145.1460   71.5820  219.4710 C   0  0  0  0  0  0  0  0  0  0  0  0
  145.9800   72.6340  219.1200 O   0  0  0  0  0  0  0  0  0  0  0  0
  146.3260   73.4850  220.1410 C   0  0  0  0  0  0  0  0  0  0  0  0
  145.1210   74.1170  220.8390 C   0  0  0  0  0  0  0  0  0  0  0  0
  142.1430   76.2830  220.4490 C   0  0  0  0  0  0  0  0  0  0  0  0
  140.0460   78.4030  221.3520 N   0  0  0  0  0  0  0  0  0  0  0  0
  139.2740   79.0890  222.3150 C   0  0  0  0  0  0  0  0  0  0  0  0
  137.9150   78.9420  222.3550 C   0  0  0  0  0  0  0  0  0  0  0  0
  137.1310   79.5990  223.3020 C   0  0  0  0  0  0  0  0  0  0  0  0
  137.7710   80.4000  224.1980 C   0  0  0  0  0  0  0  0  0  0  0  0
  137.0160   81.0880  225.2190 C   0  0  0  0  0  0  0  0  0  0  0  0
  135.6970   80.8430  225.5020 C   0  0  0  0  0  0  0  0  0  0  0  0
  135.0020   81.5150  226.5100 C   0  0  0  0  0  0  0  0  0  0  0  0
  133.3050   81.1320  226.8010 Cl  0  0  0  0  0  0  0  0  0  0  0  0
  135.6740   82.4490  227.2330 C   0  0  0  0  0  0  0  0  0  0  0  0
  137.0170   82.7030  226.9520 C   0  0  0  0  0  0  0  0  0  0  0  0
  137.6560   82.0360  225.9740 N   0  0  0  0  0  0  0  0  0  0  0  0
  139.1510   80.5480  224.1540 C   0  0  0  0  0  0  0  0  0  0  0  0
  139.9360   79.8990  223.2170 C   0  0  0  0  0  0  0  0  0  0  0  0
  142.7234   80.0417  221.5148 H   0  0  0  0  0  0  0  0  0  0  0  0
  142.8979   78.6439  222.6459 H   0  0  0  0  0  0  0  0  0  0  0  0
  142.2185   79.2609  218.8796 H   0  0  0  0  0  0  0  0  0  0  0  0
  143.2388   77.9268  217.0807 H   0  0  0  0  0  0  0  0  0  0  0  0
  143.5628   75.4576  217.4480 H   0  0  0  0  0  0  0  0  0  0  0  0
  144.1116   71.6680  221.3736 H   0  0  0  0  0  0  0  0  0  0  0  0
  143.0214   71.5615  219.9972 H   0  0  0  0  0  0  0  0  0  0  0  0
  145.7378   70.8389  220.0257 H   0  0  0  0  0  0  0  0  0  0  0  0
  144.7311   71.1733  218.5378 H   0  0  0  0  0  0  0  0  0  0  0  0
  146.9034   72.9186  220.8865 H   0  0  0  0  0  0  0  0  0  0  0  0
  146.9109   74.3041  219.6972 H   0  0  0  0  0  0  0  0  0  0  0  0
  145.1598   73.9294  221.9222 H   0  0  0  0  0  0  0  0  0  0  0  0
  145.0947   75.2089  220.7083 H   0  0  0  0  0  0  0  0  0  0  0  0
  141.8359   75.8183  221.3976 H   0  0  0  0  0  0  0  0  0  0  0  0
  137.4266   78.2866  221.6189 H   0  0  0  0  0  0  0  0  0  0  0  0
  136.0382   79.4752  223.3246 H   0  0  0  0  0  0  0  0  0  0  0  0
  135.1634   80.0849  224.9099 H   0  0  0  0  0  0  0  0  0  0  0  0
  135.1624   83.0014  228.0349 H   0  0  0  0  0  0  0  0  0  0  0  0
  137.5605   83.4588  227.5380 H   0  0  0  0  0  0  0  0  0  0  0  0
  139.6377   81.2046  224.8903 H   0  0  0  0  0  0  0  0  0  0  0  0
  1  2  2  0
  2  3  1  0
  3  4  1  0
  4  5  1  0
  5  6  2  0
  6  7  1  0
  7  8  2  0
  8  9  1  0
  9 10  1  0
 10 11  2  0
 10 12  1  0
 12 13  1  0
 13 14  1  0
 14 15  1  0
 15 16  1  0
 16 17  1  0
  9 18  2  0
  4 19  2  0
 19 20  1  0
 20 21  2  0
 21 22  1  0
 22 23  2  0
 23 24  1  0
 24 25  2  0
 25 26  1  0
 26 27  1  0
 26 28  2  0
 28 29  1  0
 29 30  2  0
 23 31  1  0
 31 32  2  0
 32  2  1  0
 18  5  1  0
 32 20  1  0
 17 12  1  0
 30 24  1  0
  3 33  1  0
  3 34  1  0
  6 35  1  0
  7 36  1  0
  8 37  1  0
 13 38  1  0
 13 39  1  0
 14 40  1  0
 14 41  1  0
 16 42  1  0
 16 43  1  0
 17 44  1  0
 17 45  1  0
 18 46  1  0
 21 47  1  0
 22 48  1  0
 25 49  1  0
 28 50  1  0
 29 51  1  0
 31 52  1  0
M  END
>  <smiles>  (45) 
O=C1CC(c2cccc(C(=O)N3CCOCC3)c2)=Nc2ccc(-c3cc(Cl)ccn3)cc21

>  <score_type>  (45) 
oracle

>  <origin>  (45) 
autodockgpu

>  <m_score__min__energy>  (45) 
-8.6899999999999995

>  <m_primary>  (45) 
energy

>  <rmsd>  (45) 
8.87625152398277

>  <m_score__min__rmsd>  (45) 
8.87625152398277

>  <meeko>  (45) 
{"free_energy": -8.69, "intermolecular_energy": -9.58, "internal_energy": -1.0, "cluster_size": 41, "cluster_id": 1, "rank_in_cluster": 9}

>  <energy>  (45) 
-8.6

>  <cluster_rmsd>  (45) 
1.12

>  <cluster>  (45) 
2

$$$$

     RDKit          3D

 52 56  0  0  0  0  0  0  0  0999 V2000
  142.9930   74.9280  220.2770 O   0  0  0  0  0  0  0  0  0  0  0  0
  141.9390   74.5880  220.8440 C   0  0  0  0  0  0  0  0  0  0  0  0
  141.5620   73.1550  220.8790 C   0  0  0  0  0  0  0  0  0  0  0  0
  140.2950   72.9620  221.6120 C   0  0  0  0  0  0  0  0  0  0  0  0
  139.8030   71.5870  221.8090 C   0  0  0  0  0  0  0  0  0  0  0  0
  139.3220   70.8590  220.7550 C   0  0  0  0  0  0  0  0  0  0  0  0
  138.8140   69.5880  220.8760 C   0  0  0  0  0  0  0  0  0  0  0  0
  138.7920   69.0170  222.1420 C   0  0  0  0  0  0  0  0  0  0  0  0
  139.2820   69.7510  223.2210 C   0  0  0  0  0  0  0  0  0  0  0  0
  139.2270   69.1520  224.5350 C   0  0  0  0  0  0  0  0  0  0  0  0
  138.8730   67.9260  224.5990 O   0  0  0  0  0  0  0  0  0  0  0  0
  139.5270   69.7840  225.7520 N   0  0  0  0  0  0  0  0  0  0  0  0
  139.4280   68.9950  226.9950 C   0  0  0  0  0  0  0  0  0  0  0  0
  140.8550   68.9240  227.5060 C   0  0  0  0  0  0  0  0  0  0  0  0
  141.7200   69.7950  226.8590 O   0  0  0  0  0  0  0  0  0  0  0  0
  141.2590   71.0780  226.6930 C   0  0  0  0  0  0  0  0  0  0  0  0
  139.9350   71.1540  225.9320 C   0  0  0  0  0  0  0  0  0  0  0  0
  139.7870   71.0250  223.0790 C   0  0  0  0  0  0  0  0  0  0  0  0
  139.6000   73.9050  222.1390 N   0  0  0  0  0  0  0  0  0  0  0  0
  139.9540   75.2720  222.1000 C   0  0  0  0  0  0  0  0  0  0  0  0
  139.1630   76.2150  222.6950 C   0  0  0  0  0  0  0  0  0  0  0  0
  139.4940   77.5700  222.6810 C   0  0  0  0  0  0  0  0  0  0  0  0
  140.6450   77.9260  222.0480 C   0  0  0  0  0  0  0  0  0  0  0  0
  141.0550   79.3100  222.0200 C   0  0  0  0  0  0  0  0  0  0  0  0
  141.0730   80.0870  220.8900 C   0  0  0  0  0  0  0  0  0  0  0  0
  141.4580   81.4290  220.9010 C   0  0  0  0  0  0  0  0  0  0  0  0
  141.4480   82.3510  219.3970 Cl  0  0  0  0  0  0  0  0  0  0  0  0
  141.8300   81.9750  222.0890 C   0  0  0  0  0  0  0  0  0  0  0  0
  141.8140   81.1910  223.2430 C   0  0  0  0  0  0  0  0  0  0  0  0
  141.4360   79.9010  223.1960 N   0  0  0  0  0  0  0  0  0  0  0  0
  141.4460   76.9650  221.4430 C   0  0  0  0  0  0  0  0  0  0  0  0
  141.1230   75.6200  221.4540 C   0  0  0  0  0  0  0  0  0  0  0  0
  141.4415   72.7889  219.8487 H   0  0  0  0  0  0  0  0  0  0  0  0
  142.3558   72.5950  221.3951 H   0  0  0  0  0  0  0  0  0  0  0  0
  139.3432   71.3168  219.7550 H   0  0  0  0  0  0  0  0  0  0  0  0
  138.4372   69.0408  219.9993 H   0  0  0  0  0  0  0  0  0  0  0  0
  138.3944   68.0022  222.2907 H   0  0  0  0  0  0  0  0  0  0  0  0
  138.7768   69.4977  227.7252 H   0  0  0  0  0  0  0  0  0  0  0  0
  138.9903   67.9997  226.8283 H   0  0  0  0  0  0  0  0  0  0  0  0
  140.8530   69.1684  228.5785 H   0  0  0  0  0  0  0  0  0  0  0  0
  141.2177   67.9041  227.3104 H   0  0  0  0  0  0  0  0  0  0  0  0
  141.1166   71.5286  227.6863 H   0  0  0  0  0  0  0  0  0  0  0  0
  142.0085   71.6175  226.0952 H   0  0  0  0  0  0  0  0  0  0  0  0
  139.1848   71.7069  226.5164 H   0  0  0  0  0  0  0  0  0  0  0  0
  140.0403   71.6823  224.9729 H   0  0  0  0  0  0  0  0  0  0  0  0
  140.1673   71.5820  223.9480 H   0  0  0  0  0  0  0  0  0  0  0  0
  138.2389   75.8960  223.1993 H   0  0  0  0  0  0  0  0  0  0  0  0
  138.8503   78.3209  223.1624 H   0  0  0  0  0  0  0  0  0  0  0  0
  140.7713   79.6336  219.9343 H   0  0  0  0  0  0  0  0  0  0  0  0
  142.1418   83.0286  222.1402 H   0  0  0  0  0  0  0  0  0  0  0  0
  142.1145   81.6338  224.2041 H   0  0  0  0  0  0  0  0  0  0  0  0
  142.3692   77.2850  220.9377 H   0  0  0  0  0  0  0  0  0  0  0  0
  1  2  2  0
  2  3  1  0
  3  4  1  0
  4  5  1  0
  5  6  2  0
  6  7  1  0
  7  8  2  0
  8  9  1  0
  9 10  1  0
 10 11  2  0
 10 12  1  0
 12 13  1  0
 13 14  1  0
 14 15  1  0
 15 16  1  0
 16 17  1  0
  9 18  2  0
  4 19  2  0
 19 20  1  0
 20 21  2  0
 21 22  1  0
 22 23  2  0
 23 24  1  0
 24 25  2  0
 25 26  1  0
 26 27  1  0
 26 28  2  0
 28 29  1  0
 29 30  2  0
 23 31  1  0
 31 32  2  0
 32  2  1  0
 18  5  1  0
 32 20  1  0
 17 12  1  0
 30 24  1  0
  3 33  1  0
  3 34  1  0
  6 35  1  0
  7 36  1  0
  8 37  1  0
 13 38  1  0
 13 39  1  0
 14 40  1  0
 14 41  1  0
 16 42  1  0
 16 43  1  0
 17 44  1  0
 17 45  1  0
 18 46  1  0
 21 47  1  0
 22 48  1  0
 25 49  1  0
 28 50  1  0
 29 51  1  0
 31 52  1  0
M  END
>  <smiles>  (46) 
O=C1CC(c2cccc(C(=O)N3CCOCC3)c2)=Nc2ccc(-c3cc(Cl)ccn3)cc21

>  <score_type>  (46) 
oracle

>  <origin>  (46) 
autodockgpu

>  <m_score__min__energy>  (46) 
-8.6899999999999995

>  <m_primary>  (46) 
energy

>  <rmsd>  (46) 
6.7530565828231

>  <m_score__min__rmsd>  (46) 
6.7530565828231

>  <meeko>  (46) 
{"free_energy": -8.62, "intermolecular_energy": -9.51, "internal_energy": -0.78, "cluster_size": 9, "cluster_id": 2, "rank_in_cluster": 2}

>  <energy>  (46) 
-8.58

>  <cluster_rmsd>  (46) 
1.28

>  <cluster>  (46) 
2

$$$$

     RDKit          3D

 52 56  0  0  0  0  0  0  0  0999 V2000
  142.0530   81.5380  223.2090 O   0  0  0  0  0  0  0  0  0  0  0  0
  141.4630   80.6440  222.5770 C   0  0  0  0  0  0  0  0  0  0  0  0
  142.2270   79.8030  221.6250 C   0  0  0  0  0  0  0  0  0  0  0  0
  141.3520   78.7940  220.9950 C   0  0  0  0  0  0  0  0  0  0  0  0
  141.9580   77.8200  220.0710 C   0  0  0  0  0  0  0  0  0  0  0  0
  142.3510   78.1980  218.8160 C   0  0  0  0  0  0  0  0  0  0  0  0
  142.8870   77.3330  217.8930 C   0  0  0  0  0  0  0  0  0  0  0  0
  143.0380   76.0020  218.2630 C   0  0  0  0  0  0  0  0  0  0  0  0
  142.6420   75.6090  219.5400 C   0  0  0  0  0  0  0  0  0  0  0  0
  142.7820   74.2160  219.8990 C   0  0  0  0  0  0  0  0  0  0  0  0
  141.7820   73.4550  219.6700 O   0  0  0  0  0  0  0  0  0  0  0  0
  143.9120   73.6140  220.4750 N   0  0  0  0  0  0  0  0  0  0  0  0
  143.8680   72.1650  220.7540 C   0  0  0  0  0  0  0  0  0  0  0  0
  144.9150   71.5750  219.8270 C   0  0  0  0  0  0  0  0  0  0  0  0
  145.7390   72.5270  219.2440 O   0  0  0  0  0  0  0  0  0  0  0  0
  146.2350   73.4850  220.0930 C   0  0  0  0  0  0  0  0  0  0  0  0
  145.1470   74.2650  220.8310 C   0  0  0  0  0  0  0  0  0  0  0  0
  142.1060   76.4920  220.4520 C   0  0  0  0  0  0  0  0  0  0  0  0
  140.0940   78.6670  221.2240 N   0  0  0  0  0  0  0  0  0  0  0  0
  139.3640   79.4720  222.1250 C   0  0  0  0  0  0  0  0  0  0  0  0
  138.0260   79.2650  222.3210 C   0  0  0  0  0  0  0  0  0  0  0  0
  137.2830   80.0390  223.2120 C   0  0  0  0  0  0  0  0  0  0  0  0
  137.9420   81.0190  223.8890 C   0  0  0  0  0  0  0  0  0  0  0  0
  137.2340   81.8380  224.8440 C   0  0  0  0  0  0  0  0  0  0  0  0
  136.9130   81.4390  226.1170 C   0  0  0  0  0  0  0  0  0  0  0  0
  136.2440   82.2640  227.0220 C   0  0  0  0  0  0  0  0  0  0  0  0
  135.8740   81.6640  228.6390 Cl  0  0  0  0  0  0  0  0  0  0  0  0
  135.8990   83.5130  226.6110 C   0  0  0  0  0  0  0  0  0  0  0  0
  136.2220   83.9270  225.3180 C   0  0  0  0  0  0  0  0  0  0  0  0
  136.8700   83.1060  224.4720 N   0  0  0  0  0  0  0  0  0  0  0  0
  139.3000   81.2270  223.6870 C   0  0  0  0  0  0  0  0  0  0  0  0
  140.0430   80.4630  222.8050 C   0  0  0  0  0  0  0  0  0  0  0  0
  142.6580   80.4450  220.8427 H   0  0  0  0  0  0  0  0  0  0  0  0
  143.0239   79.2825  222.1765 H   0  0  0  0  0  0  0  0  0  0  0  0
  142.2311   79.2534  218.5302 H   0  0  0  0  0  0  0  0  0  0  0  0
  143.1868   77.6825  216.8940 H   0  0  0  0  0  0  0  0  0  0  0  0
  143.4630   75.2709  217.5596 H   0  0  0  0  0  0  0  0  0  0  0  0
  144.1194   71.9624  221.8055 H   0  0  0  0  0  0  0  0  0  0  0  0
  142.8692   71.7345  220.5895 H   0  0  0  0  0  0  0  0  0  0  0  0
  145.5412   70.8807  220.4064 H   0  0  0  0  0  0  0  0  0  0  0  0
  144.3767   71.0704  219.0111 H   0  0  0  0  0  0  0  0  0  0  0  0
  146.8767   72.9920  220.8381 H   0  0  0  0  0  0  0  0  0  0  0  0
  146.7913   74.2073  219.4776 H   0  0  0  0  0  0  0  0  0  0  0  0
  145.3086   74.2188  221.9181 H   0  0  0  0  0  0  0  0  0  0  0  0
  145.1455   75.3303  220.5568 H   0  0  0  0  0  0  0  0  0  0  0  0
  141.8035   76.1547  221.4544 H   0  0  0  0  0  0  0  0  0  0  0  0
  137.5215   78.4648  221.7595 H   0  0  0  0  0  0  0  0  0  0  0  0
  136.2073   79.8645  223.3617 H   0  0  0  0  0  0  0  0  0  0  0  0
  137.1951   80.4254  226.4379 H   0  0  0  0  0  0  0  0  0  0  0  0
  135.3684   84.1932  227.2935 H   0  0  0  0  0  0  0  0  0  0  0  0
  135.9430   84.9380  224.9862 H   0  0  0  0  0  0  0  0  0  0  0  0
  139.8030   82.0281  224.2485 H   0  0  0  0  0  0  0  0  0  0  0  0
  1  2  2  0
  2  3  1  0
  3  4  1  0
  4  5  1  0
  5  6  2  0
  6  7  1  0
  7  8  2  0
  8  9  1  0
  9 10  1  0
 10 11  2  0
 10 12  1  0
 12 13  1  0
 13 14  1  0
 14 15  1  0
 15 16  1  0
 16 17  1  0
  9 18  2  0
  4 19  2  0
 19 20  1  0
 20 21  2  0
 21 22  1  0
 22 23  2  0
 23 24  1  0
 24 25  2  0
 25 26  1  0
 26 27  1  0
 26 28  2  0
 28 29  1  0
 29 30  2  0
 23 31  1  0
 31 32  2  0
 32  2  1  0
 18  5  1  0
 32 20  1  0
 17 12  1  0
 30 24  1  0
  3 33  1  0
  3 34  1  0
  6 35  1  0
  7 36  1  0
  8 37  1  0
 13 38  1  0
 13 39  1  0
 14 40  1  0
 14 41  1  0
 16 42  1  0
 16 43  1  0
 17 44  1  0
 17 45  1  0
 18 46  1  0
 21 47  1  0
 22 48  1  0
 25 49  1  0
 28 50  1  0
 29 51  1  0
 31 52  1  0
M  END
>  <smiles>  (47) 
O=C1CC(c2cccc(C(=O)N3CCOCC3)c2)=Nc2ccc(-c3cc(Cl)ccn3)cc21

>  <score_type>  (47) 
oracle

>  <origin>  (47) 
autodockgpu

>  <m_score__min__energy>  (47) 
-8.6899999999999995

>  <m_primary>  (47) 
energy

>  <rmsd>  (47) 
9.225211847698871

>  <m_score__min__rmsd>  (47) 
9.225211847698871

>  <meeko>  (47) 
{"free_energy": -8.4, "intermolecular_energy": -9.29, "internal_energy": -1.0, "cluster_size": 41, "cluster_id": 1, "rank_in_cluster": 38}

>  <energy>  (47) 
-8.51

>  <cluster_rmsd>  (47) 
0.47

>  <cluster>  (47) 
2

$$$$

     RDKit          3D

 52 56  0  0  0  0  0  0  0  0999 V2000
  141.9380   80.7690  223.9590 O   0  0  0  0  0  0  0  0  0  0  0  0
  141.3680   80.0360  223.1320 C   0  0  0  0  0  0  0  0  0  0  0  0
  142.1780   79.3170  222.1190 C   0  0  0  0  0  0  0  0  0  0  0  0
  141.3180   78.4900  221.2500 C   0  0  0  0  0  0  0  0  0  0  0  0
  141.9620   77.6460  220.2280 C   0  0  0  0  0  0  0  0  0  0  0  0
  142.3610   78.1780  219.0320 C   0  0  0  0  0  0  0  0  0  0  0  0
  142.9320   77.4400  218.0230 C   0  0  0  0  0  0  0  0  0  0  0  0
  143.1110   76.0790  218.2370 C   0  0  0  0  0  0  0  0  0  0  0  0
  142.7090   75.5290  219.4530 C   0  0  0  0  0  0  0  0  0  0  0  0
  142.8790   74.1080  219.6480 C   0  0  0  0  0  0  0  0  0  0  0  0
  141.9520   73.3470  219.2110 O   0  0  0  0  0  0  0  0  0  0  0  0
  143.9680   73.4770  220.2720 N   0  0  0  0  0  0  0  0  0  0  0  0
  143.9690   72.0040  220.3600 C   0  0  0  0  0  0  0  0  0  0  0  0
  145.1400   71.5780  219.4950 C   0  0  0  0  0  0  0  0  0  0  0  0
  145.9740   72.6280  219.1360 O   0  0  0  0  0  0  0  0  0  0  0  0
  146.3230   73.4850  220.1500 C   0  0  0  0  0  0  0  0  0  0  0  0
  145.1210   74.1220  220.8490 C   0  0  0  0  0  0  0  0  0  0  0  0
  142.1380   76.2860  220.4530 C   0  0  0  0  0  0  0  0  0  0  0  0
  140.0390   78.4110  221.3420 N   0  0  0  0  0  0  0  0  0  0  0  0
  139.2660   79.1010  222.3000 C   0  0  0  0  0  0  0  0  0  0  0  0
  137.9070   78.9550  222.3390 C   0  0  0  0  0  0  0  0  0  0  0  0
  137.1200   79.6160  223.2810 C   0  0  0  0  0  0  0  0  0  0  0  0
  137.7590   80.4220  224.1740 C   0  0  0  0  0  0  0  0  0  0  0  0
  137.0030   81.1160  225.1900 C   0  0  0  0  0  0  0  0  0  0  0  0
  135.6820   80.8760  225.4680 C   0  0  0  0  0  0  0  0  0  0  0  0
  134.9850   81.5520  226.4720 C   0  0  0  0  0  0  0  0  0  0  0  0
  133.2860   81.1750  226.7580 Cl  0  0  0  0  0  0  0  0  0  0  0  0
  135.6570   82.4860  227.1950 C   0  0  0  0  0  0  0  0  0  0  0  0
  137.0020   82.7350  226.9190 C   0  0  0  0  0  0  0  0  0  0  0  0
  137.6430   82.0640  225.9450 N   0  0  0  0  0  0  0  0  0  0  0  0
  139.1400   80.5690  224.1310 C   0  0  0  0  0  0  0  0  0  0  0  0
  139.9260   79.9160  223.1990 C   0  0  0  0  0  0  0  0  0  0  0  0
  142.7160   80.0507  221.5007 H   0  0  0  0  0  0  0  0  0  0  0  0
  142.8896   78.6590  222.6393 H   0  0  0  0  0  0  0  0  0  0  0  0
  142.2167   79.2563  218.8692 H   0  0  0  0  0  0  0  0  0  0  0  0
  143.2373   77.9114  217.0771 H   0  0  0  0  0  0  0  0  0  0  0  0
  143.5627   75.4457  217.4593 H   0  0  0  0  0  0  0  0  0  0  0  0
  144.1130   71.6758  221.4000 H   0  0  0  0  0  0  0  0  0  0  0  0
  143.0180   71.5623  220.0274 H   0  0  0  0  0  0  0  0  0  0  0  0
  145.7327   70.8372  220.0517 H   0  0  0  0  0  0  0  0  0  0  0  0
  144.7220   71.1644  218.5654 H   0  0  0  0  0  0  0  0  0  0  0  0
  146.9031   72.9232  220.8969 H   0  0  0  0  0  0  0  0  0  0  0  0
  146.9057   74.3014  219.6984 H   0  0  0  0  0  0  0  0  0  0  0  0
  145.1634   73.9403  221.9331 H   0  0  0  0  0  0  0  0  0  0  0  0
  145.0949   75.2132  220.7130 H   0  0  0  0  0  0  0  0  0  0  0  0
  141.8299   75.8262  221.4036 H   0  0  0  0  0  0  0  0  0  0  0  0
  137.4200   78.2962  221.6050 H   0  0  0  0  0  0  0  0  0  0  0  0
  136.0273   79.4917  223.3023 H   0  0  0  0  0  0  0  0  0  0  0  0
  135.1483   80.1187  224.8750 H   0  0  0  0  0  0  0  0  0  0  0  0
  135.1437   83.0425  227.9931 H   0  0  0  0  0  0  0  0  0  0  0  0
  137.5455   83.4902  227.5058 H   0  0  0  0  0  0  0  0  0  0  0  0
  139.6258   81.2288  224.8649 H   0  0  0  0  0  0  0  0  0  0  0  0
  1  2  2  0
  2  3  1  0
  3  4  1  0
  4  5  1  0
  5  6  2  0
  6  7  1  0
  7  8  2  0
  8  9  1  0
  9 10  1  0
 10 11  2  0
 10 12  1  0
 12 13  1  0
 13 14  1  0
 14 15  1  0
 15 16  1  0
 16 17  1  0
  9 18  2  0
  4 19  2  0
 19 20  1  0
 20 21  2  0
 21 22  1  0
 22 23  2  0
 23 24  1  0
 24 25  2  0
 25 26  1  0
 26 27  1  0
 26 28  2  0
 28 29  1  0
 29 30  2  0
 23 31  1  0
 31 32  2  0
 32  2  1  0
 18  5  1  0
 32 20  1  0
 17 12  1  0
 30 24  1  0
  3 33  1  0
  3 34  1  0
  6 35  1  0
  7 36  1  0
  8 37  1  0
 13 38  1  0
 13 39  1  0
 14 40  1  0
 14 41  1  0
 16 42  1  0
 16 43  1  0
 17 44  1  0
 17 45  1  0
 18 46  1  0
 21 47  1  0
 22 48  1  0
 25 49  1  0
 28 50  1  0
 29 51  1  0
 31 52  1  0
M  END
>  <smiles>  (48) 
O=C1CC(c2cccc(C(=O)N3CCOCC3)c2)=Nc2ccc(-c3cc(Cl)ccn3)cc21

>  <score_type>  (48) 
oracle

>  <origin>  (48) 
autodockgpu

>  <m_score__min__energy>  (48) 
-8.6899999999999995

>  <m_primary>  (48) 
energy

>  <rmsd>  (48) 
8.884765467137962

>  <m_score__min__rmsd>  (48) 
8.884765467137962

>  <meeko>  (48) 
{"free_energy": -8.69, "intermolecular_energy": -9.58, "internal_energy": -1.0, "cluster_size": 41, "cluster_id": 1, "rank_in_cluster": 7}

>  <energy>  (48) 
-8.5

>  <cluster_rmsd>  (48) 
0.53

>  <cluster>  (48) 
2

$$$$

     RDKit          3D

 52 56  0  0  0  0  0  0  0  0999 V2000
  141.9440   80.8550  223.8760 O   0  0  0  0  0  0  0  0  0  0  0  0
  141.3770   80.0860  223.0790 C   0  0  0  0  0  0  0  0  0  0  0  0
  142.1850   79.3650  222.0660 C   0  0  0  0  0  0  0  0  0  0  0  0
  141.3300   78.4930  221.2360 C   0  0  0  0  0  0  0  0  0  0  0  0
  141.9750   77.6430  220.2200 C   0  0  0  0  0  0  0  0  0  0  0  0
  142.3860   78.1690  219.0260 C   0  0  0  0  0  0  0  0  0  0  0  0
  142.9590   77.4260  218.0230 C   0  0  0  0  0  0  0  0  0  0  0  0
  143.1290   76.0640  218.2410 C   0  0  0  0  0  0  0  0  0  0  0  0
  142.7150   75.5190  219.4560 C   0  0  0  0  0  0  0  0  0  0  0  0
  142.8740   74.0980  219.6550 C   0  0  0  0  0  0  0  0  0  0  0  0
  141.9330   73.3430  219.2370 O   0  0  0  0  0  0  0  0  0  0  0  0
  143.9670   73.4590  220.2640 N   0  0  0  0  0  0  0  0  0  0  0  0
  143.9550   71.9870  220.3600 C   0  0  0  0  0  0  0  0  0  0  0  0
  145.1080   71.5460  219.4790 C   0  0  0  0  0  0  0  0  0  0  0  0
  145.9460   72.5860  219.1000 O   0  0  0  0  0  0  0  0  0  0  0  0
  146.3200   73.4440  220.1040 C   0  0  0  0  0  0  0  0  0  0  0  0
  145.1350   74.0960  220.8190 C   0  0  0  0  0  0  0  0  0  0  0  0
  142.1410   76.2820  220.4500 C   0  0  0  0  0  0  0  0  0  0  0  0
  140.0560   78.3810  221.3580 N   0  0  0  0  0  0  0  0  0  0  0  0
  139.2850   79.0730  222.3170 C   0  0  0  0  0  0  0  0  0  0  0  0
  137.9310   78.8900  222.3890 C   0  0  0  0  0  0  0  0  0  0  0  0
  137.1470   79.5520  223.3330 C   0  0  0  0  0  0  0  0  0  0  0  0
  137.7820   80.3970  224.1920 C   0  0  0  0  0  0  0  0  0  0  0  0
  137.0290   81.0940  225.2080 C   0  0  0  0  0  0  0  0  0  0  0  0
  135.7120   80.8450  225.4990 C   0  0  0  0  0  0  0  0  0  0  0  0
  135.0180   81.5250  226.5020 C   0  0  0  0  0  0  0  0  0  0  0  0
  133.3240   81.1370  226.8060 Cl  0  0  0  0  0  0  0  0  0  0  0  0
  135.6880   82.4720  227.2100 C   0  0  0  0  0  0  0  0  0  0  0  0
  137.0280   82.7290  226.9200 C   0  0  0  0  0  0  0  0  0  0  0  0
  137.6670   82.0540  225.9480 N   0  0  0  0  0  0  0  0  0  0  0  0
  139.1560   80.5810  224.1150 C   0  0  0  0  0  0  0  0  0  0  0  0
  139.9400   79.9270  223.1810 C   0  0  0  0  0  0  0  0  0  0  0  0
  142.6887   80.0978  221.4185 H   0  0  0  0  0  0  0  0  0  0  0  0
  142.9258   78.7400  222.5861 H   0  0  0  0  0  0  0  0  0  0  0  0
  142.2499   79.2478  218.8598 H   0  0  0  0  0  0  0  0  0  0  0  0
  143.2731   77.8936  217.0782 H   0  0  0  0  0  0  0  0  0  0  0  0
  143.5826   75.4264  217.4679 H   0  0  0  0  0  0  0  0  0  0  0  0
  144.1122   71.6628  221.3993 H   0  0  0  0  0  0  0  0  0  0  0  0
  142.9947   71.5526  220.0451 H   0  0  0  0  0  0  0  0  0  0  0  0
  145.7029   70.8031  220.0305 H   0  0  0  0  0  0  0  0  0  0  0  0
  144.6710   71.1314  218.5586 H   0  0  0  0  0  0  0  0  0  0  0  0
  146.9064   72.8800  220.8442 H   0  0  0  0  0  0  0  0  0  0  0  0
  146.9038   74.2524  219.6396 H   0  0  0  0  0  0  0  0  0  0  0  0
  145.1931   73.9195  221.9032 H   0  0  0  0  0  0  0  0  0  0  0  0
  145.1168   75.1867  220.6777 H   0  0  0  0  0  0  0  0  0  0  0  0
  141.8229   75.8265  221.3994 H   0  0  0  0  0  0  0  0  0  0  0  0
  137.4469   78.2006  221.6816 H   0  0  0  0  0  0  0  0  0  0  0  0
  136.0589   79.3980  223.3820 H   0  0  0  0  0  0  0  0  0  0  0  0
  135.1801   80.0774  224.9178 H   0  0  0  0  0  0  0  0  0  0  0  0
  135.1768   83.0323  228.0067 H   0  0  0  0  0  0  0  0  0  0  0  0
  137.5698   83.4947  227.4945 H   0  0  0  0  0  0  0  0  0  0  0  0
  139.6388   81.2716  224.8221 H   0  0  0  0  0  0  0  0  0  0  0  0
  1  2  2  0
  2  3  1  0
  3  4  1  0
  4  5  1  0
  5  6  2  0
  6  7  1  0
  7  8  2  0
  8  9  1  0
  9 10  1  0
 10 11  2  0
 10 12  1  0
 12 13  1  0
 13 14  1  0
 14 15  1  0
 15 16  1  0
 16 17  1  0
  9 18  2  0
  4 19  2  0
 19 20  1  0
 20 21  2  0
 21 22  1  0
 22 23  2  0
 23 24  1  0
 24 25  2  0
 25 26  1  0
 26 27  1  0
 26 28  2  0
 28 29  1  0
 29 30  2  0
 23 31  1  0
 31 32  2  0
 32  2  1  0
 18  5  1  0
 32 20  1  0
 17 12  1  0
 30 24  1  0
  3 33  1  0
  3 34  1  0
  6 35  1  0
  7 36  1  0
  8 37  1  0
 13 38  1  0
 13 39  1  0
 14 40  1  0
 14 41  1  0
 16 42  1  0
 16 43  1  0
 17 44  1  0
 17 45  1  0
 18 46  1  0
 21 47  1  0
 22 48  1  0
 25 49  1  0
 28 50  1  0
 29 51  1  0
 31 52  1  0
M  END
>  <smiles>  (49) 
O=C1CC(c2cccc(C(=O)N3CCOCC3)c2)=Nc2ccc(-c3cc(Cl)ccn3)cc21

>  <score_type>  (49) 
oracle

>  <origin>  (49) 
autodockgpu

>  <m_score__min__energy>  (49) 
-8.6899999999999995

>  <m_primary>  (49) 
energy

>  <rmsd>  (49) 
8.900478346309459

>  <m_score__min__rmsd>  (49) 
8.900478346309459

>  <meeko>  (49) 
{"free_energy": -8.69, "intermolecular_energy": -9.58, "internal_energy": -1.0, "cluster_size": 41, "cluster_id": 1, "rank_in_cluster": 10}

>  <energy>  (49) 
-8.5

>  <cluster_rmsd>  (49) 
0.51

>  <cluster>  (49) 
2

$$$$

     RDKit          3D

 52 56  0  0  0  0  0  0  0  0999 V2000
  143.0750   75.1660  220.0420 O   0  0  0  0  0  0  0  0  0  0  0  0
  142.0750   74.7560  220.6580 C   0  0  0  0  0  0  0  0  0  0  0  0
  141.7920   73.3010  220.6980 C   0  0  0  0  0  0  0  0  0  0  0  0
  140.5790   73.0230  221.4920 C   0  0  0  0  0  0  0  0  0  0  0  0
  140.1850   71.6190  221.7000 C   0  0  0  0  0  0  0  0  0  0  0  0
  139.9960   70.7800  220.6360 C   0  0  0  0  0  0  0  0  0  0  0  0
  139.5930   69.4720  220.7590 C   0  0  0  0  0  0  0  0  0  0  0  0
  139.3690   68.9810  222.0390 C   0  0  0  0  0  0  0  0  0  0  0  0
  139.5610   69.8280  223.1290 C   0  0  0  0  0  0  0  0  0  0  0  0
  139.2980   69.3080  224.4510 C   0  0  0  0  0  0  0  0  0  0  0  0
  138.8390   68.1190  224.5260 O   0  0  0  0  0  0  0  0  0  0  0  0
  139.4990   69.9820  225.6670 N   0  0  0  0  0  0  0  0  0  0  0  0
  139.1860   69.2720  226.9220 C   0  0  0  0  0  0  0  0  0  0  0  0
  140.5290   69.1200  227.6110 C   0  0  0  0  0  0  0  0  0  0  0  0
  141.5360   69.8860  227.0380 O   0  0  0  0  0  0  0  0  0  0  0  0
  141.2060   71.1890  226.7580 C   0  0  0  0  0  0  0  0  0  0  0  0
  139.9950   71.3240  225.8340 C   0  0  0  0  0  0  0  0  0  0  0  0
  139.9650   71.1370  222.9850 C   0  0  0  0  0  0  0  0  0  0  0  0
  139.8520   73.9170  222.0610 N   0  0  0  0  0  0  0  0  0  0  0  0
  140.1150   75.3030  222.0170 C   0  0  0  0  0  0  0  0  0  0  0  0
  139.2970   76.1910  222.6590 C   0  0  0  0  0  0  0  0  0  0  0  0
  139.5390   77.5630  222.6410 C   0  0  0  0  0  0  0  0  0  0  0  0
  140.6330   77.9970  221.9550 C   0  0  0  0  0  0  0  0  0  0  0  0
  140.9520   79.4040  221.9190 C   0  0  0  0  0  0  0  0  0  0  0  0
  140.9150   80.1760  220.7850 C   0  0  0  0  0  0  0  0  0  0  0  0
  141.2120   81.5400  220.7890 C   0  0  0  0  0  0  0  0  0  0  0  0
  141.1370   82.4520  219.2810 Cl  0  0  0  0  0  0  0  0  0  0  0  0
  141.5520   82.1150  221.9730 C   0  0  0  0  0  0  0  0  0  0  0  0
  141.5910   81.3370  223.1310 C   0  0  0  0  0  0  0  0  0  0  0  0
  141.2970   80.0250  223.0910 N   0  0  0  0  0  0  0  0  0  0  0  0
  141.4610   77.0920  221.3020 C   0  0  0  0  0  0  0  0  0  0  0  0
  141.2270   75.7290  221.3170 C   0  0  0  0  0  0  0  0  0  0  0  0
  141.6427   72.9346  219.6716 H   0  0  0  0  0  0  0  0  0  0  0  0
  142.6450   72.7894  221.1677 H   0  0  0  0  0  0  0  0  0  0  0  0
  140.1768   71.1746  219.6253 H   0  0  0  0  0  0  0  0  0  0  0  0
  139.4525   68.8350  219.8733 H   0  0  0  0  0  0  0  0  0  0  0  0
  139.0453   67.9406  222.1898 H   0  0  0  0  0  0  0  0  0  0  0  0
  138.4946   69.8620  227.5416 H   0  0  0  0  0  0  0  0  0  0  0  0
  138.6918   68.3051  226.7461 H   0  0  0  0  0  0  0  0  0  0  0  0
  140.4170   69.4227  228.6626 H   0  0  0  0  0  0  0  0  0  0  0  0
  140.8270   68.0660  227.5095 H   0  0  0  0  0  0  0  0  0  0  0  0
  140.9814   71.7028  227.7043 H   0  0  0  0  0  0  0  0  0  0  0  0
  142.0645   71.6362  226.2354 H   0  0  0  0  0  0  0  0  0  0  0  0
  139.2281   71.9648  226.2936 H   0  0  0  0  0  0  0  0  0  0  0  0
  140.2599   71.7881  224.8725 H   0  0  0  0  0  0  0  0  0  0  0  0
  140.1096   71.7834  223.8632 H   0  0  0  0  0  0  0  0  0  0  0  0
  138.4217   75.8108  223.2060 H   0  0  0  0  0  0  0  0  0  0  0  0
  138.8730   78.2679  223.1602 H   0  0  0  0  0  0  0  0  0  0  0  0
  140.6396   79.6998  219.8324 H   0  0  0  0  0  0  0  0  0  0  0  0
  141.7949   83.1869  222.0181 H   0  0  0  0  0  0  0  0  0  0  0  0
  141.8658   81.8028  224.0889 H   0  0  0  0  0  0  0  0  0  0  0  0
  142.3345   77.4737  220.7531 H   0  0  0  0  0  0  0  0  0  0  0  0
  1  2  2  0
  2  3  1  0
  3  4  1  0
  4  5  1  0
  5  6  2  0
  6  7  1  0
  7  8  2  0
  8  9  1  0
  9 10  1  0
 10 11  2  0
 10 12  1  0
 12 13  1  0
 13 14  1  0
 14 15  1  0
 15 16  1  0
 16 17  1  0
  9 18  2  0
  4 19  2  0
 19 20  1  0
 20 21  2  0
 21 22  1  0
 22 23  2  0
 23 24  1  0
 24 25  2  0
 25 26  1  0
 26 27  1  0
 26 28  2  0
 28 29  1  0
 29 30  2  0
 23 31  1  0
 31 32  2  0
 32  2  1  0
 18  5  1  0
 32 20  1  0
 17 12  1  0
 30 24  1  0
  3 33  1  0
  3 34  1  0
  6 35  1  0
  7 36  1  0
  8 37  1  0
 13 38  1  0
 13 39  1  0
 14 40  1  0
 14 41  1  0
 16 42  1  0
 16 43  1  0
 17 44  1  0
 17 45  1  0
 18 46  1  0
 21 47  1  0
 22 48  1  0
 25 49  1  0
 28 50  1  0
 29 51  1  0
 31 52  1  0
M  END
>  <smiles>  (50) 
O=C1CC(c2cccc(C(=O)N3CCOCC3)c2)=Nc2ccc(-c3cc(Cl)ccn3)cc21

>  <score_type>  (50) 
oracle

>  <origin>  (50) 
autodockgpu

>  <m_score__min__energy>  (50) 
-8.6899999999999995

>  <m_primary>  (50) 
energy

>  <rmsd>  (50) 
6.789952594158061

>  <m_score__min__rmsd>  (50) 
6.789952594158061

>  <meeko>  (50) 
{"free_energy": -8.58, "intermolecular_energy": -9.48, "internal_energy": -0.78, "cluster_size": 9, "cluster_id": 2, "rank_in_cluster": 5}

>  <energy>  (50) 
-8.47

>  <cluster_rmsd>  (50) 
0.28

>  <cluster>  (50) 
2

$$$$
