
     RDKit          3D

 56 59  0  0  0  0  0  0  0  0999 V2000
  137.1450   75.8180  221.9300 O   0  0  0  0  0  0  0  0  0  0  0  0
  138.3800   75.9060  222.1440 C   0  0  0  0  0  0  0  0  0  0  0  0
  139.2760   74.8060  222.0490 N   0  0  0  0  0  0  0  0  0  0  0  0
  138.7380   73.4940  221.6850 C   0  0  0  0  0  0  0  0  0  0  0  0
  139.5360   72.4910  222.4370 C   0  0  0  0  0  0  0  0  0  0  0  0
  140.7610   72.6680  222.7240 O   0  0  0  0  0  0  0  0  0  0  0  0
  138.9670   71.2660  222.8850 N   0  0  0  0  0  0  0  0  0  0  0  0
  138.3520   70.2910  222.0020 C   0  0  0  0  0  0  0  0  0  0  0  0
  137.5750   69.3560  222.8760 C   0  0  0  0  0  0  0  0  0  0  0  0
  137.5100   70.1110  224.2050 C   0  0  0  0  0  0  0  0  0  0  0  0
  138.8810   70.7490  224.2530 C   0  0  1  0  0  0  0  0  0  0  0  0
  139.9510   69.7150  224.5030 C   0  0  0  0  0  0  0  0  0  0  0  0
  140.6910   70.0940  225.6840 N   0  0  0  0  0  0  0  0  0  0  0  0
  140.9000   71.4970  225.7860 C   0  0  0  0  0  0  0  0  0  0  0  0
  141.2750   72.0470  227.1070 C   0  0  0  0  0  0  0  0  0  0  0  0
  140.3520   71.4540  228.1730 C   0  0  0  0  0  0  0  0  0  0  0  0
  140.6860   69.9780  228.1650 C   0  0  0  0  0  0  0  0  0  0  0  0
  140.3380   69.3870  226.8490 C   0  0  0  0  0  0  0  0  0  0  0  0
  138.9500   77.2160  222.5130 C   0  0  0  0  0  0  0  0  0  0  0  0
  138.1350   78.3100  222.7290 C   0  0  0  0  0  0  0  0  0  0  0  0
  138.6220   79.5560  223.0760 C   0  0  0  0  0  0  0  0  0  0  0  0
  139.9920   79.6920  223.2080 C   0  0  0  0  0  0  0  0  0  0  0  0
  140.5640   80.8770  223.5460 C   0  0  0  0  0  0  0  0  0  0  0  0
  141.9530   80.9800  223.6710 C   0  0  0  0  0  0  0  0  0  0  0  0
  142.5370   82.1590  224.0090 F   0  0  0  0  0  0  0  0  0  0  0  0
  142.7560   79.8760  223.4510 C   0  0  0  0  0  0  0  0  0  0  0  0
  142.1750   78.6720  223.1080 C   0  0  0  0  0  0  0  0  0  0  0  0
  140.8000   78.5920  222.9900 C   0  0  0  0  0  0  0  0  0  0  0  0
  140.2780   77.3980  222.6530 N   0  0  0  0  0  0  0  0  0  0  0  0
  140.2920   74.9610  222.2430 H   0  0  0  0  0  0  0  0  0  0  0  0
  137.6772   73.4259  221.9678 H   0  0  0  0  0  0  0  0  0  0  0  0
  138.8023   73.3232  220.6002 H   0  0  0  0  0  0  0  0  0  0  0  0
  137.6798   70.7933  221.2908 H   0  0  0  0  0  0  0  0  0  0  0  0
  139.1104   69.7504  221.4167 H   0  0  0  0  0  0  0  0  0  0  0  0
  136.5677   69.1795  222.4707 H   0  0  0  0  0  0  0  0  0  0  0  0
  138.0322   68.3593  222.9629 H   0  0  0  0  0  0  0  0  0  0  0  0
  136.7133   70.8694  224.1984 H   0  0  0  0  0  0  0  0  0  0  0  0
  137.2791   69.4754  225.0726 H   0  0  0  0  0  0  0  0  0  0  0  0
  139.0183   71.4977  225.0471 H   0  0  0  0  0  0  0  0  0  0  0  0
  139.4859   68.7302  224.6573 H   0  0  0  0  0  0  0  0  0  0  0  0
  140.6278   69.6577  223.6377 H   0  0  0  0  0  0  0  0  0  0  0  0
  141.7027   71.7606  225.0816 H   0  0  0  0  0  0  0  0  0  0  0  0
  139.9153   71.9386  225.5729 H   0  0  0  0  0  0  0  0  0  0  0  0
  142.3183   71.7826  227.3340 H   0  0  0  0  0  0  0  0  0  0  0  0
  141.1746   73.1424  227.0958 H   0  0  0  0  0  0  0  0  0  0  0  0
  140.5581   71.8964  229.1588 H   0  0  0  0  0  0  0  0  0  0  0  0
  139.2888   71.6490  227.9690 H   0  0  0  0  0  0  0  0  0  0  0  0
  141.7623   69.8469  228.3502 H   0  0  0  0  0  0  0  0  0  0  0  0
  140.1081   69.4723  228.9526 H   0  0  0  0  0  0  0  0  0  0  0  0
  140.8282   68.4038  226.7940 H   0  0  0  0  0  0  0  0  0  0  0  0
  139.2381   69.3791  226.8381 H   0  0  0  0  0  0  0  0  0  0  0  0
  137.0477   78.1837  222.6198 H   0  0  0  0  0  0  0  0  0  0  0  0
  137.9454   80.4075  223.2410 H   0  0  0  0  0  0  0  0  0  0  0  0
  139.9316   81.7596  223.7222 H   0  0  0  0  0  0  0  0  0  0  0  0
  143.8487   79.9567  223.5486 H   0  0  0  0  0  0  0  0  0  0  0  0
  142.8001   77.7845  222.9302 H   0  0  0  0  0  0  0  0  0  0  0  0
  1  2  2  0
  2  3  1  0
  3  4  1  0
  4  5  1  0
  5  6  2  0
  5  7  1  0
  7  8  1  0
  8  9  1  0
  9 10  1  0
 10 11  1  0
 11 12  1  0
 12 13  1  0
 13 14  1  0
 14 15  1  0
 15 16  1  0
 16 17  1  0
 17 18  1  0
  2 19  1  0
 19 20  2  0
 20 21  1  0
 21 22  2  0
 22 23  1  0
 23 24  2  0
 24 25  1  0
 24 26  1  0
 26 27  2  0
 27 28  1  0
 28 29  2  0
 11  7  1  0
 18 13  1  0
 29 19  1  0
 28 22  1  0
  3 30  1  0
  4 31  1  0
  4 32  1  0
  8 33  1  0
  8 34  1  0
  9 35  1  0
  9 36  1  0
 10 37  1  0
 10 38  1  0
 11 39  1  1
 12 40  1  0
 12 41  1  0
 14 42  1  0
 14 43  1  0
 15 44  1  0
 15 45  1  0
 16 46  1  0
 16 47  1  0
 17 48  1  0
 17 49  1  0
 18 50  1  0
 18 51  1  0
 20 52  1  0
 21 53  1  0
 23 54  1  0
 26 55  1  0
 27 56  1  0
M  END
>  <smiles>  (1) 
O=C(NCC(=O)N1CCC[C@H]1CN1CCCCC1)c1ccc2cc(F)ccc2n1

>  <score_type>  (1) 
oracle

>  <origin>  (1) 
autodockgpu

>  <m_score__min__energy>  (1) 
-8.6999999999999993

>  <m_primary>  (1) 
energy

>  <rmsd>  (1) 
9.376596345097775

>  <m_score__min__rmsd>  (1) 
9.376596345097775

>  <meeko>  (1) 
{"free_energy": -8.1, "intermolecular_energy": -9.89, "internal_energy": -2.1, "cluster_size": 7, "cluster_id": 2, "rank_in_cluster": 2}

>  <energy>  (1) 
-8.7

>  <cluster_rmsd>  (1) 
0.0

>  <cluster>  (1) 
1

$$$$

     RDKit          3D

 56 59  0  0  0  0  0  0  0  0999 V2000
  141.2510   72.9420  222.1400 O   0  0  0  0  0  0  0  0  0  0  0  0
  140.1160   72.5280  222.4840 C   0  0  0  0  0  0  0  0  0  0  0  0
  138.9080   72.9090  221.8370 N   0  0  0  0  0  0  0  0  0  0  0  0
  138.9820   73.8350  220.7050 C   0  0  0  0  0  0  0  0  0  0  0  0
  139.6930   75.0430  221.1990 C   0  0  0  0  0  0  0  0  0  0  0  0
  139.5760   75.4650  222.3920 O   0  0  0  0  0  0  0  0  0  0  0  0
  140.5540   75.8010  220.3570 N   0  0  0  0  0  0  0  0  0  0  0  0
  140.7270   75.5460  218.9380 C   0  0  0  0  0  0  0  0  0  0  0  0
  141.9530   76.2950  218.5170 C   0  0  0  0  0  0  0  0  0  0  0  0
  142.6140   76.6390  219.8530 C   0  0  0  0  0  0  0  0  0  0  0  0
  141.4070   76.9370  220.7160 C   0  0  1  0  0  0  0  0  0  0  0  0
  140.7620   78.2390  220.3120 C   0  0  0  0  0  0  0  0  0  0  0  0
  140.8590   79.1640  221.4160 N   0  0  0  0  0  0  0  0  0  0  0  0
  140.0250   78.8130  222.5140 C   0  0  0  0  0  0  0  0  0  0  0  0
  140.3190   79.4220  223.8290 C   0  0  0  0  0  0  0  0  0  0  0  0
  141.8200   79.3180  224.1020 C   0  0  0  0  0  0  0  0  0  0  0  0
  142.4470   80.1830  223.0310 C   0  0  0  0  0  0  0  0  0  0  0  0
  142.1640   79.6150  221.6890 C   0  0  0  0  0  0  0  0  0  0  0  0
  140.0110   71.5940  223.6210 C   0  0  0  0  0  0  0  0  0  0  0  0
  139.3410   70.3940  223.4960 C   0  0  0  0  0  0  0  0  0  0  0  0
  139.2170   69.4880  224.5320 C   0  0  0  0  0  0  0  0  0  0  0  0
  139.8000   69.8170  225.7430 C   0  0  0  0  0  0  0  0  0  0  0  0
  139.7310   68.9910  226.8180 C   0  0  0  0  0  0  0  0  0  0  0  0
  140.3310   69.3560  228.0280 C   0  0  0  0  0  0  0  0  0  0  0  0
  140.2700   68.5380  229.1110 F   0  0  0  0  0  0  0  0  0  0  0  0
  140.9990   70.5610  228.1390 C   0  0  0  0  0  0  0  0  0  0  0  0
  141.0680   71.4020  227.0450 C   0  0  0  0  0  0  0  0  0  0  0  0
  140.4690   71.0210  225.8590 C   0  0  0  0  0  0  0  0  0  0  0  0
  140.5620   71.8720  224.8200 N   0  0  0  0  0  0  0  0  0  0  0  0
  138.0020   72.5210  222.1840 H   0  0  0  0  0  0  0  0  0  0  0  0
  139.5401   73.3776  219.8748 H   0  0  0  0  0  0  0  0  0  0  0  0
  137.9795   74.0873  220.3291 H   0  0  0  0  0  0  0  0  0  0  0  0
  140.8598   74.4688  218.7591 H   0  0  0  0  0  0  0  0  0  0  0  0
  139.8461   75.8717  218.3654 H   0  0  0  0  0  0  0  0  0  0  0  0
  142.6104   75.6646  217.9002 H   0  0  0  0  0  0  0  0  0  0  0  0
  141.7336   77.1781  217.8990 H   0  0  0  0  0  0  0  0  0  0  0  0
  143.1904   75.7891  220.2472 H   0  0  0  0  0  0  0  0  0  0  0  0
  143.3403   77.4631  219.7961 H   0  0  0  0  0  0  0  0  0  0  0  0
  141.6176   77.0450  221.7903 H   0  0  0  0  0  0  0  0  0  0  0  0
  141.2811   78.6531  219.4350 H   0  0  0  0  0  0  0  0  0  0  0  0
  139.7058   78.0708  220.0548 H   0  0  0  0  0  0  0  0  0  0  0  0
  138.9956   79.0933  222.2461 H   0  0  0  0  0  0  0  0  0  0  0  0
  140.2026   77.7376  222.6623 H   0  0  0  0  0  0  0  0  0  0  0  0
  140.0182   80.4800  223.8209 H   0  0  0  0  0  0  0  0  0  0  0  0
  139.7609   78.8938  224.6161 H   0  0  0  0  0  0  0  0  0  0  0  0
  142.0625   79.6998  225.1047 H   0  0  0  0  0  0  0  0  0  0  0  0
  142.1844   78.2805  224.0757 H   0  0  0  0  0  0  0  0  0  0  0  0
  142.0290   81.1986  223.0922 H   0  0  0  0  0  0  0  0  0  0  0  0
  143.5355   80.2174  223.1862 H   0  0  0  0  0  0  0  0  0  0  0  0
  142.4005   80.3941  220.9493 H   0  0  0  0  0  0  0  0  0  0  0  0
  142.7801   78.7048  221.6445 H   0  0  0  0  0  0  0  0  0  0  0  0
  138.8843   70.1471  222.5262 H   0  0  0  0  0  0  0  0  0  0  0  0
  138.6748   68.5402  224.3989 H   0  0  0  0  0  0  0  0  0  0  0  0
  139.2010   68.0305  226.7374 H   0  0  0  0  0  0  0  0  0  0  0  0
  141.4715   70.8479  229.0900 H   0  0  0  0  0  0  0  0  0  0  0  0
  141.5944   72.3652  227.1171 H   0  0  0  0  0  0  0  0  0  0  0  0
  1  2  2  0
  2  3  1  0
  3  4  1  0
  4  5  1  0
  5  6  2  0
  5  7  1  0
  7  8  1  0
  8  9  1  0
  9 10  1  0
 10 11  1  0
 11 12  1  0
 12 13  1  0
 13 14  1  0
 14 15  1  0
 15 16  1  0
 16 17  1  0
 17 18  1  0
  2 19  1  0
 19 20  2  0
 20 21  1  0
 21 22  2  0
 22 23  1  0
 23 24  2  0
 24 25  1  0
 24 26  1  0
 26 27  2  0
 27 28  1  0
 28 29  2  0
 11  7  1  0
 18 13  1  0
 29 19  1  0
 28 22  1  0
  3 30  1  0
  4 31  1  0
  4 32  1  0
  8 33  1  0
  8 34  1  0
  9 35  1  0
  9 36  1  0
 10 37  1  0
 10 38  1  0
 11 39  1  1
 12 40  1  0
 12 41  1  0
 14 42  1  0
 14 43  1  0
 15 44  1  0
 15 45  1  0
 16 46  1  0
 16 47  1  0
 17 48  1  0
 17 49  1  0
 18 50  1  0
 18 51  1  0
 20 52  1  0
 21 53  1  0
 23 54  1  0
 26 55  1  0
 27 56  1  0
M  END
>  <smiles>  (2) 
O=C(NCC(=O)N1CCC[C@H]1CN1CCCCC1)c1ccc2cc(F)ccc2n1

>  <score_type>  (2) 
oracle

>  <origin>  (2) 
autodockgpu

>  <m_score__min__energy>  (2) 
-8.6999999999999993

>  <m_primary>  (2) 
energy

>  <rmsd>  (2) 
2.113603171469861

>  <m_score__min__rmsd>  (2) 
2.113603171469861

>  <meeko>  (2) 
{"free_energy": -7.98, "intermolecular_energy": -9.77, "internal_energy": -1.49, "cluster_size": 32, "cluster_id": 1, "rank_in_cluster": 29}

>  <energy>  (2) 
-8.64

>  <cluster_rmsd>  (2) 
0.31

>  <cluster>  (2) 
1

$$$$

     RDKit          3D

 56 59  0  0  0  0  0  0  0  0999 V2000
  140.7740   71.8870  221.1450 O   0  0  0  0  0  0  0  0  0  0  0  0
  140.1090   72.3050  222.1260 C   0  0  0  0  0  0  0  0  0  0  0  0
  139.4070   73.5420  222.1330 N   0  0  0  0  0  0  0  0  0  0  0  0
  139.4590   74.3830  220.9350 C   0  0  0  0  0  0  0  0  0  0  0  0
  140.5200   75.3950  221.1800 C   0  0  0  0  0  0  0  0  0  0  0  0
  140.9260   75.6900  222.3480 O   0  0  0  0  0  0  0  0  0  0  0  0
  141.1460   76.0950  220.1120 N   0  0  0  0  0  0  0  0  0  0  0  0
  141.0080   75.7280  218.7140 C   0  0  0  0  0  0  0  0  0  0  0  0
  142.0850   76.4600  217.9740 C   0  0  0  0  0  0  0  0  0  0  0  0
  143.0140   76.9220  219.0970 C   0  0  0  0  0  0  0  0  0  0  0  0
  142.0190   77.2700  220.1830 C   0  0  1  0  0  0  0  0  0  0  0  0
  141.2560   78.5250  219.8360 C   0  0  0  0  0  0  0  0  0  0  0  0
  141.0380   79.2800  221.0470 N   0  0  0  0  0  0  0  0  0  0  0  0
  140.1610   78.6330  221.9600 C   0  0  0  0  0  0  0  0  0  0  0  0
  140.1690   79.0850  223.3680 C   0  0  0  0  0  0  0  0  0  0  0  0
  141.6180   79.2060  223.8430 C   0  0  0  0  0  0  0  0  0  0  0  0
  142.1910   80.3150  222.9890 C   0  0  0  0  0  0  0  0  0  0  0  0
  142.1880   79.9080  221.5610 C   0  0  0  0  0  0  0  0  0  0  0  0
  140.0390   71.4780  223.3450 C   0  0  0  0  0  0  0  0  0  0  0  0
  139.4340   70.2380  223.3300 C   0  0  0  0  0  0  0  0  0  0  0  0
  139.3440   69.4280  224.4460 C   0  0  0  0  0  0  0  0  0  0  0  0
  139.8950   69.9010  225.6240 C   0  0  0  0  0  0  0  0  0  0  0  0
  139.8560   69.1770  226.7730 C   0  0  0  0  0  0  0  0  0  0  0  0
  140.4230   69.6850  227.9470 C   0  0  0  0  0  0  0  0  0  0  0  0
  140.3910   68.9710  229.1010 F   0  0  0  0  0  0  0  0  0  0  0  0
  141.0260   70.9290  227.9470 C   0  0  0  0  0  0  0  0  0  0  0  0
  141.0650   71.6650  226.7790 C   0  0  0  0  0  0  0  0  0  0  0  0
  140.4990   71.1430  225.6300 C   0  0  0  0  0  0  0  0  0  0  0  0
  140.5610   71.8960  224.5160 N   0  0  0  0  0  0  0  0  0  0  0  0
  138.8760   73.8190  222.9890 H   0  0  0  0  0  0  0  0  0  0  0  0
  139.7094   73.7747  220.0534 H   0  0  0  0  0  0  0  0  0  0  0  0
  138.4879   74.8616  220.7406 H   0  0  0  0  0  0  0  0  0  0  0  0
  141.1337   74.6420  218.5920 H   0  0  0  0  0  0  0  0  0  0  0  0
  140.0115   75.9918  218.3299 H   0  0  0  0  0  0  0  0  0  0  0  0
  142.6099   75.7920  217.2752 H   0  0  0  0  0  0  0  0  0  0  0  0
  141.7042   77.2866  217.3562 H   0  0  0  0  0  0  0  0  0  0  0  0
  143.6919   76.1164  219.4155 H   0  0  0  0  0  0  0  0  0  0  0  0
  143.6816   77.7500  218.8165 H   0  0  0  0  0  0  0  0  0  0  0  0
  142.4594   77.4686  221.1712 H   0  0  0  0  0  0  0  0  0  0  0  0
  141.8380   79.1276  219.1231 H   0  0  0  0  0  0  0  0  0  0  0  0
  140.2912   78.2638  219.3767 H   0  0  0  0  0  0  0  0  0  0  0  0
  139.1373   78.7650  221.5798 H   0  0  0  0  0  0  0  0  0  0  0  0
  140.5243   77.5956  222.0021 H   0  0  0  0  0  0  0  0  0  0  0  0
  139.6728   80.0638  223.4441 H   0  0  0  0  0  0  0  0  0  0  0  0
  139.6314   78.3585  223.9950 H   0  0  0  0  0  0  0  0  0  0  0  0
  141.6590   79.4726  224.9094 H   0  0  0  0  0  0  0  0  0  0  0  0
  142.1764   78.2635  223.7439 H   0  0  0  0  0  0  0  0  0  0  0  0
  141.5801   81.2216  223.1109 H   0  0  0  0  0  0  0  0  0  0  0  0
  143.2250   80.5173  223.3051 H   0  0  0  0  0  0  0  0  0  0  0  0
  142.3574   80.8159  220.9636 H   0  0  0  0  0  0  0  0  0  0  0  0
  142.9691   79.1360  221.4979 H   0  0  0  0  0  0  0  0  0  0  0  0
  139.0028   69.8770  222.3846 H   0  0  0  0  0  0  0  0  0  0  0  0
  138.8531   68.4447  224.3997 H   0  0  0  0  0  0  0  0  0  0  0  0
  139.3765   68.1870  226.7804 H   0  0  0  0  0  0  0  0  0  0  0  0
  141.4711   71.3294  228.8698 H   0  0  0  0  0  0  0  0  0  0  0  0
  141.5414   72.6564  226.7627 H   0  0  0  0  0  0  0  0  0  0  0  0
  1  2  2  0
  2  3  1  0
  3  4  1  0
  4  5  1  0
  5  6  2  0
  5  7  1  0
  7  8  1  0
  8  9  1  0
  9 10  1  0
 10 11  1  0
 11 12  1  0
 12 13  1  0
 13 14  1  0
 14 15  1  0
 15 16  1  0
 16 17  1  0
 17 18  1  0
  2 19  1  0
 19 20  2  0
 20 21  1  0
 21 22  2  0
 22 23  1  0
 23 24  2  0
 24 25  1  0
 24 26  1  0
 26 27  2  0
 27 28  1  0
 28 29  2  0
 11  7  1  0
 18 13  1  0
 29 19  1  0
 28 22  1  0
  3 30  1  0
  4 31  1  0
  4 32  1  0
  8 33  1  0
  8 34  1  0
  9 35  1  0
  9 36  1  0
 10 37  1  0
 10 38  1  0
 11 39  1  1
 12 40  1  0
 12 41  1  0
 14 42  1  0
 14 43  1  0
 15 44  1  0
 15 45  1  0
 16 46  1  0
 16 47  1  0
 17 48  1  0
 17 49  1  0
 18 50  1  0
 18 51  1  0
 20 52  1  0
 21 53  1  0
 23 54  1  0
 26 55  1  0
 27 56  1  0
M  END
>  <smiles>  (3) 
O=C(NCC(=O)N1CCC[C@H]1CN1CCCCC1)c1ccc2cc(F)ccc2n1

>  <score_type>  (3) 
oracle

>  <origin>  (3) 
autodockgpu

>  <m_score__min__energy>  (3) 
-8.6999999999999993

>  <m_primary>  (3) 
energy

>  <rmsd>  (3) 
2.071272936824743

>  <m_score__min__rmsd>  (3) 
2.071272936824743

>  <meeko>  (3) 
{"free_energy": -8.29, "intermolecular_energy": -10.08, "internal_energy": -1.71, "cluster_size": 32, "cluster_id": 1, "rank_in_cluster": 12}

>  <energy>  (3) 
-8.51

>  <cluster_rmsd>  (3) 
1.47

>  <cluster>  (3) 
1

$$$$

     RDKit          3D

 56 59  0  0  0  0  0  0  0  0999 V2000
  139.7250   71.1910  220.9370 O   0  0  0  0  0  0  0  0  0  0  0  0
  139.6740   71.7820  222.0450 C   0  0  0  0  0  0  0  0  0  0  0  0
  139.5960   73.1950  222.1820 N   0  0  0  0  0  0  0  0  0  0  0  0
  139.5760   74.0160  220.9690 C   0  0  0  0  0  0  0  0  0  0  0  0
  140.2930   75.2740  221.3030 C   0  0  0  0  0  0  0  0  0  0  0  0
  140.3610   75.7270  222.4880 O   0  0  0  0  0  0  0  0  0  0  0  0
  140.9500   76.0470  220.3060 N   0  0  0  0  0  0  0  0  0  0  0  0
  140.8320   75.7980  218.8810 C   0  0  0  0  0  0  0  0  0  0  0  0
  141.9330   76.5680  218.2210 C   0  0  0  0  0  0  0  0  0  0  0  0
  142.8490   76.9210  219.3940 C   0  0  0  0  0  0  0  0  0  0  0  0
  141.8410   77.1970  220.4880 C   0  0  1  0  0  0  0  0  0  0  0  0
  141.1050   78.4890  220.2320 C   0  0  0  0  0  0  0  0  0  0  0  0
  141.0230   79.2260  221.4710 N   0  0  0  0  0  0  0  0  0  0  0  0
  141.4120   78.4600  222.6040 C   0  0  0  0  0  0  0  0  0  0  0  0
  141.7570   79.1850  223.8460 C   0  0  0  0  0  0  0  0  0  0  0  0
  142.6930   80.3440  223.5000 C   0  0  0  0  0  0  0  0  0  0  0  0
  141.8440   81.2560  222.6430 C   0  0  0  0  0  0  0  0  0  0  0  0
  141.4610   80.5610  221.3880 C   0  0  0  0  0  0  0  0  0  0  0  0
  139.6930   70.9800  223.2830 C   0  0  0  0  0  0  0  0  0  0  0  0
  139.2100   69.6870  223.3000 C   0  0  0  0  0  0  0  0  0  0  0  0
  139.2070   68.8970  224.4340 C   0  0  0  0  0  0  0  0  0  0  0  0
  139.7170   69.4470  225.5970 C   0  0  0  0  0  0  0  0  0  0  0  0
  139.7570   68.7490  226.7610 C   0  0  0  0  0  0  0  0  0  0  0  0
  140.2790   69.3360  227.9180 C   0  0  0  0  0  0  0  0  0  0  0  0
  140.3240   68.6480  229.0880 F   0  0  0  0  0  0  0  0  0  0  0  0
  140.7600   70.6320  227.8860 C   0  0  0  0  0  0  0  0  0  0  0  0
  140.7190   71.3420  226.7020 C   0  0  0  0  0  0  0  0  0  0  0  0
  140.1990   70.7430  225.5700 C   0  0  0  0  0  0  0  0  0  0  0  0
  140.1800   71.4720  224.4390 N   0  0  0  0  0  0  0  0  0  0  0  0
  139.5580   73.6110  223.1400 H   0  0  0  0  0  0  0  0  0  0  0  0
  140.0872   73.4933  220.1472 H   0  0  0  0  0  0  0  0  0  0  0  0
  138.5457   74.2188  220.6412 H   0  0  0  0  0  0  0  0  0  0  0  0
  140.9423   74.7235  218.6728 H   0  0  0  0  0  0  0  0  0  0  0  0
  139.8472   76.1103  218.5034 H   0  0  0  0  0  0  0  0  0  0  0  0
  142.4595   75.9497  217.4791 H   0  0  0  0  0  0  0  0  0  0  0  0
  141.5770   77.4484  217.6658 H   0  0  0  0  0  0  0  0  0  0  0  0
  143.5080   76.0804  219.6569 H   0  0  0  0  0  0  0  0  0  0  0  0
  143.5346   77.7574  219.1930 H   0  0  0  0  0  0  0  0  0  0  0  0
  142.2667   77.3066  221.4964 H   0  0  0  0  0  0  0  0  0  0  0  0
  141.6488   79.0831  219.4828 H   0  0  0  0  0  0  0  0  0  0  0  0
  140.0942   78.2769  219.8534 H   0  0  0  0  0  0  0  0  0  0  0  0
  140.5796   77.7813  222.8417 H   0  0  0  0  0  0  0  0  0  0  0  0
  142.3508   77.9747  222.2989 H   0  0  0  0  0  0  0  0  0  0  0  0
  140.8406   79.5769  224.3114 H   0  0  0  0  0  0  0  0  0  0  0  0
  142.2546   78.5018  224.5501 H   0  0  0  0  0  0  0  0  0  0  0  0
  143.0269   80.8624  224.4109 H   0  0  0  0  0  0  0  0  0  0  0  0
  143.6075   80.0113  222.9873 H   0  0  0  0  0  0  0  0  0  0  0  0
  140.9355   81.5350  223.1969 H   0  0  0  0  0  0  0  0  0  0  0  0
  142.4210   82.1589  222.3945 H   0  0  0  0  0  0  0  0  0  0  0  0
  140.6479   81.1425  220.9289 H   0  0  0  0  0  0  0  0  0  0  0  0
  142.3970   80.5041  220.8130 H   0  0  0  0  0  0  0  0  0  0  0  0
  138.8085   69.2654  222.3667 H   0  0  0  0  0  0  0  0  0  0  0  0
  138.8141   67.8698  224.4130 H   0  0  0  0  0  0  0  0  0  0  0  0
  139.3771   67.7172  226.7941 H   0  0  0  0  0  0  0  0  0  0  0  0
  141.1717   71.0935  228.7957 H   0  0  0  0  0  0  0  0  0  0  0  0
  141.0966   72.3743  226.6603 H   0  0  0  0  0  0  0  0  0  0  0  0
  1  2  2  0
  2  3  1  0
  3  4  1  0
  4  5  1  0
  5  6  2  0
  5  7  1  0
  7  8  1  0
  8  9  1  0
  9 10  1  0
 10 11  1  0
 11 12  1  0
 12 13  1  0
 13 14  1  0
 14 15  1  0
 15 16  1  0
 16 17  1  0
 17 18  1  0
  2 19  1  0
 19 20  2  0
 20 21  1  0
 21 22  2  0
 22 23  1  0
 23 24  2  0
 24 25  1  0
 24 26  1  0
 26 27  2  0
 27 28  1  0
 28 29  2  0
 11  7  1  0
 18 13  1  0
 29 19  1  0
 28 22  1  0
  3 30  1  0
  4 31  1  0
  4 32  1  0
  8 33  1  0
  8 34  1  0
  9 35  1  0
  9 36  1  0
 10 37  1  0
 10 38  1  0
 11 39  1  1
 12 40  1  0
 12 41  1  0
 14 42  1  0
 14 43  1  0
 15 44  1  0
 15 45  1  0
 16 46  1  0
 16 47  1  0
 17 48  1  0
 17 49  1  0
 18 50  1  0
 18 51  1  0
 20 52  1  0
 21 53  1  0
 23 54  1  0
 26 55  1  0
 27 56  1  0
M  END
>  <smiles>  (4) 
O=C(NCC(=O)N1CCC[C@H]1CN1CCCCC1)c1ccc2cc(F)ccc2n1

>  <score_type>  (4) 
oracle

>  <origin>  (4) 
autodockgpu

>  <m_score__min__energy>  (4) 
-8.6999999999999993

>  <m_primary>  (4) 
energy

>  <rmsd>  (4) 
1.8464195765344606

>  <m_score__min__rmsd>  (4) 
1.8464195765344606

>  <meeko>  (4) 
{"free_energy": -8.37, "intermolecular_energy": -10.16, "internal_energy": -1.98, "cluster_size": 32, "cluster_id": 1, "rank_in_cluster": 6}

>  <energy>  (4) 
-8.39

>  <cluster_rmsd>  (4) 
0.63

>  <cluster>  (4) 
1

$$$$

     RDKit          3D

 56 59  0  0  0  0  0  0  0  0999 V2000
  137.8710   70.9150  221.9610 O   0  0  0  0  0  0  0  0  0  0  0  0
  138.6950   71.3350  222.8120 C   0  0  0  0  0  0  0  0  0  0  0  0
  139.2760   72.6320  222.7730 N   0  0  0  0  0  0  0  0  0  0  0  0
  138.9000   73.5350  221.6840 C   0  0  0  0  0  0  0  0  0  0  0  0
  139.9540   74.5820  221.6260 C   0  0  0  0  0  0  0  0  0  0  0  0
  141.1600   74.3550  221.9560 O   0  0  0  0  0  0  0  0  0  0  0  0
  139.6690   75.9060  221.1920 N   0  0  0  0  0  0  0  0  0  0  0  0
  138.6550   76.2340  220.2070 C   0  0  0  0  0  0  0  0  0  0  0  0
  138.9210   77.6420  219.7730 C   0  0  0  0  0  0  0  0  0  0  0  0
  140.3360   77.8950  220.2970 C   0  0  0  0  0  0  0  0  0  0  0  0
  140.3010   77.1580  221.6190 C   0  0  1  0  0  0  0  0  0  0  0  0
  139.4340   77.8810  222.6190 C   0  0  0  0  0  0  0  0  0  0  0  0
  140.2050   78.9500  223.2090 N   0  0  0  0  0  0  0  0  0  0  0  0
  141.5780   78.6210  223.3800 C   0  0  0  0  0  0  0  0  0  0  0  0
  142.5350   79.7290  223.5870 C   0  0  0  0  0  0  0  0  0  0  0  0
  142.2600   80.8240  222.5560 C   0  0  0  0  0  0  0  0  0  0  0  0
  140.8770   81.3230  222.9140 C   0  0  0  0  0  0  0  0  0  0  0  0
  139.8830   80.2360  222.7330 C   0  0  0  0  0  0  0  0  0  0  0  0
  139.0910   70.4460  223.9200 C   0  0  0  0  0  0  0  0  0  0  0  0
  138.8450   69.0890  223.8660 C   0  0  0  0  0  0  0  0  0  0  0  0
  139.1960   68.2170  224.8790 C   0  0  0  0  0  0  0  0  0  0  0  0
  139.8250   68.7500  225.9910 C   0  0  0  0  0  0  0  0  0  0  0  0
  140.2090   67.9720  227.0360 C   0  0  0  0  0  0  0  0  0  0  0  0
  140.8420   68.5440  228.1450 C   0  0  0  0  0  0  0  0  0  0  0  0
  141.2310   67.7770  229.1970 F   0  0  0  0  0  0  0  0  0  0  0  0
  141.0820   69.9050  228.1860 C   0  0  0  0  0  0  0  0  0  0  0  0
  140.6920   70.6950  227.1220 C   0  0  0  0  0  0  0  0  0  0  0  0
  140.0680   70.1090  226.0360 C   0  0  0  0  0  0  0  0  0  0  0  0
  139.7050   70.9180  225.0240 N   0  0  0  0  0  0  0  0  0  0  0  0
  139.9540   72.9070  223.5190 H   0  0  0  0  0  0  0  0  0  0  0  0
  138.8562   72.9857  220.7320 H   0  0  0  0  0  0  0  0  0  0  0  0
  137.9074   73.9767  221.8561 H   0  0  0  0  0  0  0  0  0  0  0  0
  138.7262   75.5517  219.3471 H   0  0  0  0  0  0  0  0  0  0  0  0
  137.6442   76.1329  220.6290 H   0  0  0  0  0  0  0  0  0  0  0  0
  138.8817   77.7333  218.6775 H   0  0  0  0  0  0  0  0  0  0  0  0
  138.1806   78.3622  220.1513 H   0  0  0  0  0  0  0  0  0  0  0  0
  141.0962   77.4747  219.6220 H   0  0  0  0  0  0  0  0  0  0  0  0
  140.6004   78.9593  220.3823 H   0  0  0  0  0  0  0  0  0  0  0  0
  141.2758   77.0467  222.1163 H   0  0  0  0  0  0  0  0  0  0  0  0
  138.5511   78.2971  222.1117 H   0  0  0  0  0  0  0  0  0  0  0  0
  139.0996   77.1830  223.4006 H   0  0  0  0  0  0  0  0  0  0  0  0
  141.6495   77.9588  224.2554 H   0  0  0  0  0  0  0  0  0  0  0  0
  141.8762   78.1752  222.4196 H   0  0  0  0  0  0  0  0  0  0  0  0
  142.4121   80.1378  224.6008 H   0  0  0  0  0  0  0  0  0  0  0  0
  143.5639   79.3580  223.4694 H   0  0  0  0  0  0  0  0  0  0  0  0
  143.0010   81.6329  222.6373 H   0  0  0  0  0  0  0  0  0  0  0  0
  142.3235   80.4572  221.5209 H   0  0  0  0  0  0  0  0  0  0  0  0
  140.8690   81.6530  223.9633 H   0  0  0  0  0  0  0  0  0  0  0  0
  140.6153   82.1650  222.2563 H   0  0  0  0  0  0  0  0  0  0  0  0
  138.9604   80.5503  223.2429 H   0  0  0  0  0  0  0  0  0  0  0  0
  139.8125   80.1117  221.6423 H   0  0  0  0  0  0  0  0  0  0  0  0
  138.3458   68.6822  222.9742 H   0  0  0  0  0  0  0  0  0  0  0  0
  138.9836   67.1403  224.8045 H   0  0  0  0  0  0  0  0  0  0  0  0
  140.0217   66.8884  227.0104 H   0  0  0  0  0  0  0  0  0  0  0  0
  141.5791   70.3548  229.0581 H   0  0  0  0  0  0  0  0  0  0  0  0
  140.8760   71.7794  227.1385 H   0  0  0  0  0  0  0  0  0  0  0  0
  1  2  2  0
  2  3  1  0
  3  4  1  0
  4  5  1  0
  5  6  2  0
  5  7  1  0
  7  8  1  0
  8  9  1  0
  9 10  1  0
 10 11  1  0
 11 12  1  0
 12 13  1  0
 13 14  1  0
 14 15  1  0
 15 16  1  0
 16 17  1  0
 17 18  1  0
  2 19  1  0
 19 20  2  0
 20 21  1  0
 21 22  2  0
 22 23  1  0
 23 24  2  0
 24 25  1  0
 24 26  1  0
 26 27  2  0
 27 28  1  0
 28 29  2  0
 11  7  1  0
 18 13  1  0
 29 19  1  0
 28 22  1  0
  3 30  1  0
  4 31  1  0
  4 32  1  0
  8 33  1  0
  8 34  1  0
  9 35  1  0
  9 36  1  0
 10 37  1  0
 10 38  1  0
 11 39  1  1
 12 40  1  0
 12 41  1  0
 14 42  1  0
 14 43  1  0
 15 44  1  0
 15 45  1  0
 16 46  1  0
 16 47  1  0
 17 48  1  0
 17 49  1  0
 18 50  1  0
 18 51  1  0
 20 52  1  0
 21 53  1  0
 23 54  1  0
 26 55  1  0
 27 56  1  0
M  END
>  <smiles>  (5) 
O=C(NCC(=O)N1CCC[C@H]1CN1CCCCC1)c1ccc2cc(F)ccc2n1

>  <score_type>  (5) 
oracle

>  <origin>  (5) 
autodockgpu

>  <m_score__min__energy>  (5) 
-8.6999999999999993

>  <m_primary>  (5) 
energy

>  <rmsd>  (5) 
1.889107170144943

>  <m_score__min__rmsd>  (5) 
1.889107170144943

>  <meeko>  (5) 
{"free_energy": -8.0, "intermolecular_energy": -9.79, "internal_energy": -1.89, "cluster_size": 32, "cluster_id": 1, "rank_in_cluster": 28}

>  <energy>  (5) 
-8.39

>  <cluster_rmsd>  (5) 
1.75

>  <cluster>  (5) 
1

$$$$

     RDKit          3D

 56 59  0  0  0  0  0  0  0  0999 V2000
  139.8610   71.0010  221.0420 O   0  0  0  0  0  0  0  0  0  0  0  0
  139.7660   71.6020  222.1410 C   0  0  0  0  0  0  0  0  0  0  0  0
  139.6620   73.0150  222.2600 N   0  0  0  0  0  0  0  0  0  0  0  0
  139.6670   73.8230  221.0390 C   0  0  0  0  0  0  0  0  0  0  0  0
  140.0840   75.1910  221.4430 C   0  0  0  0  0  0  0  0  0  0  0  0
  139.9180   75.6350  222.6230 O   0  0  0  0  0  0  0  0  0  0  0  0
  140.6990   76.0870  220.5260 N   0  0  0  0  0  0  0  0  0  0  0  0
  140.5940   75.9640  219.0830 C   0  0  0  0  0  0  0  0  0  0  0  0
  141.6530   76.8500  218.5020 C   0  0  0  0  0  0  0  0  0  0  0  0
  142.5470   77.1430  219.7080 C   0  0  0  0  0  0  0  0  0  0  0  0
  141.5250   77.2620  220.8170 C   0  0  1  0  0  0  0  0  0  0  0  0
  140.7200   78.5300  220.6770 C   0  0  0  0  0  0  0  0  0  0  0  0
  140.8300   79.2840  221.9030 N   0  0  0  0  0  0  0  0  0  0  0  0
  141.2940   78.5050  222.9990 C   0  0  0  0  0  0  0  0  0  0  0  0
  141.8270   79.2180  224.1790 C   0  0  0  0  0  0  0  0  0  0  0  0
  142.7930   80.3060  223.7090 C   0  0  0  0  0  0  0  0  0  0  0  0
  141.9140   81.2660  222.9370 C   0  0  0  0  0  0  0  0  0  0  0  0
  141.3440   80.5850  221.7470 C   0  0  0  0  0  0  0  0  0  0  0  0
  139.7590   70.8130  223.3870 C   0  0  0  0  0  0  0  0  0  0  0  0
  139.2370   69.5360  223.4180 C   0  0  0  0  0  0  0  0  0  0  0  0
  139.2080   68.7590  224.5600 C   0  0  0  0  0  0  0  0  0  0  0  0
  139.7330   69.3060  225.7180 C   0  0  0  0  0  0  0  0  0  0  0  0
  139.7500   68.6190  226.8900 C   0  0  0  0  0  0  0  0  0  0  0  0
  140.2880   69.2020  228.0410 C   0  0  0  0  0  0  0  0  0  0  0  0
  140.3110   68.5260  229.2190 F   0  0  0  0  0  0  0  0  0  0  0  0
  140.8080   70.4830  227.9970 C   0  0  0  0  0  0  0  0  0  0  0  0
  140.7910   71.1810  226.8050 C   0  0  0  0  0  0  0  0  0  0  0  0
  140.2540   70.5850  225.6780 C   0  0  0  0  0  0  0  0  0  0  0  0
  140.2590   71.3030  224.5400 N   0  0  0  0  0  0  0  0  0  0  0  0
  139.5870   73.4400  223.2120 H   0  0  0  0  0  0  0  0  0  0  0  0
  140.3792   73.4076  220.3108 H   0  0  0  0  0  0  0  0  0  0  0  0
  138.6754   73.8326  220.5630 H   0  0  0  0  0  0  0  0  0  0  0  0
  140.7618   74.9207  218.7774 H   0  0  0  0  0  0  0  0  0  0  0  0
  139.5937   76.2563  218.7308 H   0  0  0  0  0  0  0  0  0  0  0  0
  142.2131   76.3314  217.7100 H   0  0  0  0  0  0  0  0  0  0  0  0
  141.2505   77.7569  218.0271 H   0  0  0  0  0  0  0  0  0  0  0  0
  143.2508   76.3189  219.8965 H   0  0  0  0  0  0  0  0  0  0  0  0
  143.1856   78.0306  219.5886 H   0  0  0  0  0  0  0  0  0  0  0  0
  141.9434   77.3016  221.8335 H   0  0  0  0  0  0  0  0  0  0  0  0
  141.1106   79.1262  219.8392 H   0  0  0  0  0  0  0  0  0  0  0  0
  139.6658   78.2856  220.4799 H   0  0  0  0  0  0  0  0  0  0  0  0
  140.4505   77.8882  223.3426 H   0  0  0  0  0  0  0  0  0  0  0  0
  142.1566   77.9523  222.5984 H   0  0  0  0  0  0  0  0  0  0  0  0
  140.9982   79.6771  224.7379 H   0  0  0  0  0  0  0  0  0  0  0  0
  142.3554   78.5095  224.8339 H   0  0  0  0  0  0  0  0  0  0  0  0
  143.2627   80.8093  224.5669 H   0  0  0  0  0  0  0  0  0  0  0  0
  143.6188   79.9062  223.1023 H   0  0  0  0  0  0  0  0  0  0  0  0
  141.0958   81.6129  223.5853 H   0  0  0  0  0  0  0  0  0  0  0  0
  142.5178   82.1246  222.6079 H   0  0  0  0  0  0  0  0  0  0  0  0
  140.5243   81.2159  221.3727 H   0  0  0  0  0  0  0  0  0  0  0  0
  142.2024   80.4576  221.0711 H   0  0  0  0  0  0  0  0  0  0  0  0
  138.8241   69.1165  222.4887 H   0  0  0  0  0  0  0  0  0  0  0  0
  138.7838   67.7442  224.5494 H   0  0  0  0  0  0  0  0  0  0  0  0
  139.3387   67.5997  226.9334 H   0  0  0  0  0  0  0  0  0  0  0  0
  141.2312   70.9417  228.9028 H   0  0  0  0  0  0  0  0  0  0  0  0
  141.2004   72.2006  226.7525 H   0  0  0  0  0  0  0  0  0  0  0  0
  1  2  2  0
  2  3  1  0
  3  4  1  0
  4  5  1  0
  5  6  2  0
  5  7  1  0
  7  8  1  0
  8  9  1  0
  9 10  1  0
 10 11  1  0
 11 12  1  0
 12 13  1  0
 13 14  1  0
 14 15  1  0
 15 16  1  0
 16 17  1  0
 17 18  1  0
  2 19  1  0
 19 20  2  0
 20 21  1  0
 21 22  2  0
 22 23  1  0
 23 24  2  0
 24 25  1  0
 24 26  1  0
 26 27  2  0
 27 28  1  0
 28 29  2  0
 11  7  1  0
 18 13  1  0
 29 19  1  0
 28 22  1  0
  3 30  1  0
  4 31  1  0
  4 32  1  0
  8 33  1  0
  8 34  1  0
  9 35  1  0
  9 36  1  0
 10 37  1  0
 10 38  1  0
 11 39  1  1
 12 40  1  0
 12 41  1  0
 14 42  1  0
 14 43  1  0
 15 44  1  0
 15 45  1  0
 16 46  1  0
 16 47  1  0
 17 48  1  0
 17 49  1  0
 18 50  1  0
 18 51  1  0
 20 52  1  0
 21 53  1  0
 23 54  1  0
 26 55  1  0
 27 56  1  0
M  END
>  <smiles>  (6) 
O=C(NCC(=O)N1CCC[C@H]1CN1CCCCC1)c1ccc2cc(F)ccc2n1

>  <score_type>  (6) 
oracle

>  <origin>  (6) 
autodockgpu

>  <m_score__min__energy>  (6) 
-8.6999999999999993

>  <m_primary>  (6) 
energy

>  <rmsd>  (6) 
1.9009504514879603

>  <m_score__min__rmsd>  (6) 
1.9009504514879603

>  <meeko>  (6) 
{"free_energy": -8.32, "intermolecular_energy": -10.11, "internal_energy": -2.04, "cluster_size": 32, "cluster_id": 1, "rank_in_cluster": 10}

>  <energy>  (6) 
-8.37

>  <cluster_rmsd>  (6) 
1.75

>  <cluster>  (6) 
1

$$$$

     RDKit          3D

 56 59  0  0  0  0  0  0  0  0999 V2000
  136.2380   71.1990  222.8340 O   0  0  0  0  0  0  0  0  0  0  0  0
  136.2050   72.3970  223.2130 C   0  0  0  0  0  0  0  0  0  0  0  0
  137.0400   73.4150  222.6780 N   0  0  0  0  0  0  0  0  0  0  0  0
  137.9970   73.0570  221.6290 C   0  0  0  0  0  0  0  0  0  0  0  0
  139.2430   72.6400  222.3230 C   0  0  0  0  0  0  0  0  0  0  0  0
  140.2840   73.3690  222.3550 O   0  0  0  0  0  0  0  0  0  0  0  0
  139.3420   71.3920  222.9980 N   0  0  0  0  0  0  0  0  0  0  0  0
  139.2240   70.1040  222.3360 C   0  0  0  0  0  0  0  0  0  0  0  0
  139.0190   69.0880  223.4170 C   0  0  0  0  0  0  0  0  0  0  0  0
  138.6620   69.9500  224.6280 C   0  0  0  0  0  0  0  0  0  0  0  0
  139.5690   71.1440  224.4240 C   0  0  1  0  0  0  0  0  0  0  0  0
  141.0100   70.7790  224.6810 C   0  0  0  0  0  0  0  0  0  0  0  0
  141.1790   70.5410  226.0950 N   0  0  0  0  0  0  0  0  0  0  0  0
  140.5990   71.5540  226.9060 C   0  0  0  0  0  0  0  0  0  0  0  0
  140.3480   71.2420  228.3300 C   0  0  0  0  0  0  0  0  0  0  0  0
  139.6730   69.8730  228.4280 C   0  0  0  0  0  0  0  0  0  0  0  0
  140.7210   68.9110  227.9130 C   0  0  0  0  0  0  0  0  0  0  0  0
  141.0150   69.1980  226.4860 C   0  0  0  0  0  0  0  0  0  0  0  0
  135.2510   72.7850  224.2690 C   0  0  0  0  0  0  0  0  0  0  0  0
  134.4380   71.8470  224.8730 C   0  0  0  0  0  0  0  0  0  0  0  0
  133.5290   72.1630  225.8650 C   0  0  0  0  0  0  0  0  0  0  0  0
  133.4470   73.4870  226.2580 C   0  0  0  0  0  0  0  0  0  0  0  0
  132.5850   73.8940  227.2260 C   0  0  0  0  0  0  0  0  0  0  0  0
  132.5280   75.2410  227.5990 C   0  0  0  0  0  0  0  0  0  0  0  0
  131.6700   75.6600  228.5650 F   0  0  0  0  0  0  0  0  0  0  0  0
  133.3480   76.1700  226.9850 C   0  0  0  0  0  0  0  0  0  0  0  0
  134.2250   75.7550  226.0010 C   0  0  0  0  0  0  0  0  0  0  0  0
  134.2650   74.4200  225.6480 C   0  0  0  0  0  0  0  0  0  0  0  0
  135.1350   74.0620  224.6850 N   0  0  0  0  0  0  0  0  0  0  0  0
  136.9530   74.3890  223.0470 H   0  0  0  0  0  0  0  0  0  0  0  0
  137.6039   72.2281  221.0220 H   0  0  0  0  0  0  0  0  0  0  0  0
  138.1819   73.9038  220.9517 H   0  0  0  0  0  0  0  0  0  0  0  0
  138.3647   70.1069  221.6492 H   0  0  0  0  0  0  0  0  0  0  0  0
  140.1221   69.8779  221.7424 H   0  0  0  0  0  0  0  0  0  0  0  0
  138.1984   68.4005  223.1642 H   0  0  0  0  0  0  0  0  0  0  0  0
  139.8962   68.4454  223.5830 H   0  0  0  0  0  0  0  0  0  0  0  0
  137.6019   70.2433  224.6144 H   0  0  0  0  0  0  0  0  0  0  0  0
  138.7967   69.4436  225.5952 H   0  0  0  0  0  0  0  0  0  0  0  0
  139.3697   71.9989  225.0869 H   0  0  0  0  0  0  0  0  0  0  0  0
  141.2680   69.8696  224.1186 H   0  0  0  0  0  0  0  0  0  0  0  0
  141.6690   71.5975  224.3560 H   0  0  0  0  0  0  0  0  0  0  0  0
  141.2719   72.4236  226.8750 H   0  0  0  0  0  0  0  0  0  0  0  0
  139.5980   71.7107  226.4776 H   0  0  0  0  0  0  0  0  0  0  0  0
  141.3021   71.2228  228.8771 H   0  0  0  0  0  0  0  0  0  0  0  0
  139.6953   72.0106  228.7696 H   0  0  0  0  0  0  0  0  0  0  0  0
  139.4079   69.6414  229.4701 H   0  0  0  0  0  0  0  0  0  0  0  0
  138.7341   69.8219  227.8572 H   0  0  0  0  0  0  0  0  0  0  0  0
  141.6415   69.0239  228.5046 H   0  0  0  0  0  0  0  0  0  0  0  0
  140.3432   67.8820  228.0044 H   0  0  0  0  0  0  0  0  0  0  0  0
  141.9456   68.6691  226.2325 H   0  0  0  0  0  0  0  0  0  0  0  0
  140.1122   68.8679  225.9512 H   0  0  0  0  0  0  0  0  0  0  0  0
  134.5174   70.7986  224.5495 H   0  0  0  0  0  0  0  0  0  0  0  0
  132.8946   71.3909  226.3248 H   0  0  0  0  0  0  0  0  0  0  0  0
  131.9291   73.1611  227.7186 H   0  0  0  0  0  0  0  0  0  0  0  0
  133.3026   77.2295  227.2772 H   0  0  0  0  0  0  0  0  0  0  0  0
  134.8851   76.4808  225.5035 H   0  0  0  0  0  0  0  0  0  0  0  0
  1  2  2  0
  2  3  1  0
  3  4  1  0
  4  5  1  0
  5  6  2  0
  5  7  1  0
  7  8  1  0
  8  9  1  0
  9 10  1  0
 10 11  1  0
 11 12  1  0
 12 13  1  0
 13 14  1  0
 14 15  1  0
 15 16  1  0
 16 17  1  0
 17 18  1  0
  2 19  1  0
 19 20  2  0
 20 21  1  0
 21 22  2  0
 22 23  1  0
 23 24  2  0
 24 25  1  0
 24 26  1  0
 26 27  2  0
 27 28  1  0
 28 29  2  0
 11  7  1  0
 18 13  1  0
 29 19  1  0
 28 22  1  0
  3 30  1  0
  4 31  1  0
  4 32  1  0
  8 33  1  0
  8 34  1  0
  9 35  1  0
  9 36  1  0
 10 37  1  0
 10 38  1  0
 11 39  1  1
 12 40  1  0
 12 41  1  0
 14 42  1  0
 14 43  1  0
 15 44  1  0
 15 45  1  0
 16 46  1  0
 16 47  1  0
 17 48  1  0
 17 49  1  0
 18 50  1  0
 18 51  1  0
 20 52  1  0
 21 53  1  0
 23 54  1  0
 26 55  1  0
 27 56  1  0
M  END
>  <smiles>  (7) 
O=C(NCC(=O)N1CCC[C@H]1CN1CCCCC1)c1ccc2cc(F)ccc2n1

>  <score_type>  (7) 
oracle

>  <origin>  (7) 
autodockgpu

>  <m_score__min__energy>  (7) 
-8.6999999999999993

>  <m_primary>  (7) 
energy

>  <rmsd>  (7) 
8.599681508571685

>  <m_score__min__rmsd>  (7) 
8.599681508571685

>  <meeko>  (7) 
{"free_energy": -7.66, "intermolecular_energy": -9.45, "internal_energy": -2.1, "cluster_size": 1, "cluster_id": 4, "rank_in_cluster": 1}

>  <energy>  (7) 
-8.35

>  <cluster_rmsd>  (7) 
0.74

>  <cluster>  (7) 
1

$$$$

     RDKit          3D

 56 59  0  0  0  0  0  0  0  0999 V2000
  143.1990   73.2570  219.4150 O   0  0  0  0  0  0  0  0  0  0  0  0
  142.4080   74.1430  219.8270 C   0  0  0  0  0  0  0  0  0  0  0  0
  141.3780   73.8990  220.7760 N   0  0  0  0  0  0  0  0  0  0  0  0
  141.2220   72.5440  221.3080 C   0  0  0  0  0  0  0  0  0  0  0  0
  140.1150   72.6070  222.2970 C   0  0  0  0  0  0  0  0  0  0  0  0
  139.6370   73.7070  222.7180 O   0  0  0  0  0  0  0  0  0  0  0  0
  139.5210   71.4300  222.8310 N   0  0  0  0  0  0  0  0  0  0  0  0
  138.9120   70.3920  222.0190 C   0  0  0  0  0  0  0  0  0  0  0  0
  138.1040   69.5420  222.9500 C   0  0  0  0  0  0  0  0  0  0  0  0
  138.0200   70.4050  224.2090 C   0  0  0  0  0  0  0  0  0  0  0  0
  139.3990   71.0300  224.2360 C   0  0  1  0  0  0  0  0  0  0  0  0
  140.4490   70.0080  224.5940 C   0  0  0  0  0  0  0  0  0  0  0  0
  141.0090   70.3540  225.8790 N   0  0  0  0  0  0  0  0  0  0  0  0
  141.1420   71.7570  226.0710 C   0  0  0  0  0  0  0  0  0  0  0  0
  141.3150   72.2540  227.4530 C   0  0  0  0  0  0  0  0  0  0  0  0
  140.2850   71.5750  228.3580 C   0  0  0  0  0  0  0  0  0  0  0  0
  140.6800   70.1150  228.3300 C   0  0  0  0  0  0  0  0  0  0  0  0
  140.5350   69.5770  226.9540 C   0  0  0  0  0  0  0  0  0  0  0  0
  142.5420   75.5170  219.3080 C   0  0  0  0  0  0  0  0  0  0  0  0
  143.1520   75.7630  218.0940 C   0  0  0  0  0  0  0  0  0  0  0  0
  143.3010   77.0310  217.5670 C   0  0  0  0  0  0  0  0  0  0  0  0
  142.8090   78.0920  218.3070 C   0  0  0  0  0  0  0  0  0  0  0  0
  142.9080   79.3750  217.8720 C   0  0  0  0  0  0  0  0  0  0  0  0
  142.4000   80.4240  218.6460 C   0  0  0  0  0  0  0  0  0  0  0  0
  142.4930   81.7110  218.2220 F   0  0  0  0  0  0  0  0  0  0  0  0
  141.7930   80.1630  219.8600 C   0  0  0  0  0  0  0  0  0  0  0  0
  141.6920   78.8580  220.3020 C   0  0  0  0  0  0  0  0  0  0  0  0
  142.2000   77.8370  219.5220 C   0  0  0  0  0  0  0  0  0  0  0  0
  142.0790   76.5820  219.9930 N   0  0  0  0  0  0  0  0  0  0  0  0
  140.7600   74.6900  221.0690 H   0  0  0  0  0  0  0  0  0  0  0  0
  140.9692   71.8440  220.4980 H   0  0  0  0  0  0  0  0  0  0  0  0
  142.1531   72.1885  221.7735 H   0  0  0  0  0  0  0  0  0  0  0  0
  138.2619   70.8409  221.2536 H   0  0  0  0  0  0  0  0  0  0  0  0
  139.6755   69.7957  221.4980 H   0  0  0  0  0  0  0  0  0  0  0  0
  137.1035   69.3437  222.5380 H   0  0  0  0  0  0  0  0  0  0  0  0
  138.5463   68.5510  223.1298 H   0  0  0  0  0  0  0  0  0  0  0  0
  137.2337   71.1692  224.1211 H   0  0  0  0  0  0  0  0  0  0  0  0
  137.7619   69.8461  225.1206 H   0  0  0  0  0  0  0  0  0  0  0  0
  139.5292   71.8403  224.9685 H   0  0  0  0  0  0  0  0  0  0  0  0
  139.9914   69.0091  224.6460 H   0  0  0  0  0  0  0  0  0  0  0  0
  141.2400   69.9981  223.8296 H   0  0  0  0  0  0  0  0  0  0  0  0
  142.0186   72.0849  225.4931 H   0  0  0  0  0  0  0  0  0  0  0  0
  140.1758   72.1719  225.7481 H   0  0  0  0  0  0  0  0  0  0  0  0
  142.3295   72.0171  227.8060 H   0  0  0  0  0  0  0  0  0  0  0  0
  141.1703   73.3442  227.4772 H   0  0  0  0  0  0  0  0  0  0  0  0
  140.3392   71.9753  229.3812 H   0  0  0  0  0  0  0  0  0  0  0  0
  139.2509   71.7406  228.0214 H   0  0  0  0  0  0  0  0  0  0  0  0
  141.7269   70.0145  228.6522 H   0  0  0  0  0  0  0  0  0  0  0  0
  140.0251   69.5503  229.0098 H   0  0  0  0  0  0  0  0  0  0  0  0
  141.0700   68.6164  226.9220 H   0  0  0  0  0  0  0  0  0  0  0  0
  139.4476   69.5289  226.7949 H   0  0  0  0  0  0  0  0  0  0  0  0
  143.5377   74.9083  217.5190 H   0  0  0  0  0  0  0  0  0  0  0  0
  143.7921   77.1915  216.5959 H   0  0  0  0  0  0  0  0  0  0  0  0
  143.3898   79.5902  216.9068 H   0  0  0  0  0  0  0  0  0  0  0  0
  141.3937   80.9874  220.4691 H   0  0  0  0  0  0  0  0  0  0  0  0
  141.2117   78.6339  221.2659 H   0  0  0  0  0  0  0  0  0  0  0  0
  1  2  2  0
  2  3  1  0
  3  4  1  0
  4  5  1  0
  5  6  2  0
  5  7  1  0
  7  8  1  0
  8  9  1  0
  9 10  1  0
 10 11  1  0
 11 12  1  0
 12 13  1  0
 13 14  1  0
 14 15  1  0
 15 16  1  0
 16 17  1  0
 17 18  1  0
  2 19  1  0
 19 20  2  0
 20 21  1  0
 21 22  2  0
 22 23  1  0
 23 24  2  0
 24 25  1  0
 24 26  1  0
 26 27  2  0
 27 28  1  0
 28 29  2  0
 11  7  1  0
 18 13  1  0
 29 19  1  0
 28 22  1  0
  3 30  1  0
  4 31  1  0
  4 32  1  0
  8 33  1  0
  8 34  1  0
  9 35  1  0
  9 36  1  0
 10 37  1  0
 10 38  1  0
 11 39  1  1
 12 40  1  0
 12 41  1  0
 14 42  1  0
 14 43  1  0
 15 44  1  0
 15 45  1  0
 16 46  1  0
 16 47  1  0
 17 48  1  0
 17 49  1  0
 18 50  1  0
 18 51  1  0
 20 52  1  0
 21 53  1  0
 23 54  1  0
 26 55  1  0
 27 56  1  0
M  END
>  <smiles>  (8) 
O=C(NCC(=O)N1CCC[C@H]1CN1CCCCC1)c1ccc2cc(F)ccc2n1

>  <score_type>  (8) 
oracle

>  <origin>  (8) 
autodockgpu

>  <m_score__min__energy>  (8) 
-8.6999999999999993

>  <m_primary>  (8) 
energy

>  <rmsd>  (8) 
9.868056383824063

>  <m_score__min__rmsd>  (8) 
9.868056383824063

>  <meeko>  (8) 
{"free_energy": -6.87, "intermolecular_energy": -8.66, "internal_energy": -2.15, "cluster_size": 1, "cluster_id": 5, "rank_in_cluster": 1}

>  <energy>  (8) 
-8.33

>  <cluster_rmsd>  (8) 
1.68

>  <cluster>  (8) 
1

$$$$

     RDKit          3D

 56 59  0  0  0  0  0  0  0  0999 V2000
  138.2490   70.8340  221.7480 O   0  0  0  0  0  0  0  0  0  0  0  0
  138.9180   71.2990  222.7050 C   0  0  0  0  0  0  0  0  0  0  0  0
  139.3880   72.6400  222.7600 N   0  0  0  0  0  0  0  0  0  0  0  0
  139.0830   73.5360  221.6430 C   0  0  0  0  0  0  0  0  0  0  0  0
  140.1750   74.5410  221.6010 C   0  0  0  0  0  0  0  0  0  0  0  0
  141.3650   74.2730  221.9620 O   0  0  0  0  0  0  0  0  0  0  0  0
  139.9510   75.8720  221.1510 N   0  0  0  0  0  0  0  0  0  0  0  0
  139.0490   76.2170  220.0670 C   0  0  0  0  0  0  0  0  0  0  0  0
  139.3730   77.6250  219.6750 C   0  0  0  0  0  0  0  0  0  0  0  0
  140.7270   77.8600  220.3470 C   0  0  0  0  0  0  0  0  0  0  0  0
  140.5460   77.1140  221.6510 C   0  0  1  0  0  0  0  0  0  0  0  0
  139.5860   77.8390  222.5610 C   0  0  0  0  0  0  0  0  0  0  0  0
  140.2890   78.9260  223.2000 N   0  0  0  0  0  0  0  0  0  0  0  0
  141.6570   78.6340  223.4560 C   0  0  0  0  0  0  0  0  0  0  0  0
  142.5690   79.7660  223.7260 C   0  0  0  0  0  0  0  0  0  0  0  0
  142.3290   80.8580  222.6820 C   0  0  0  0  0  0  0  0  0  0  0  0
  140.9130   81.3180  222.9540 C   0  0  0  0  0  0  0  0  0  0  0  0
  139.9620   80.2050  222.7090 C   0  0  0  0  0  0  0  0  0  0  0  0
  139.2400   70.4190  223.8440 C   0  0  0  0  0  0  0  0  0  0  0  0
  138.9270   69.0750  223.8150 C   0  0  0  0  0  0  0  0  0  0  0  0
  139.2080   68.2120  224.8570 C   0  0  0  0  0  0  0  0  0  0  0  0
  139.8350   68.7400  225.9720 C   0  0  0  0  0  0  0  0  0  0  0  0
  140.1530   67.9700  227.0450 C   0  0  0  0  0  0  0  0  0  0  0  0
  140.7860   68.5360  228.1570 C   0  0  0  0  0  0  0  0  0  0  0  0
  141.1090   67.7780  229.2360 F   0  0  0  0  0  0  0  0  0  0  0  0
  141.0940   69.8840  228.1720 C   0  0  0  0  0  0  0  0  0  0  0  0
  140.7700   70.6660  227.0800 C   0  0  0  0  0  0  0  0  0  0  0  0
  140.1450   70.0870  225.9920 C   0  0  0  0  0  0  0  0  0  0  0  0
  139.8500   70.8870  224.9520 N   0  0  0  0  0  0  0  0  0  0  0  0
  139.9390   72.9510  223.5920 H   0  0  0  0  0  0  0  0  0  0  0  0
  139.0499   72.9706  220.7000 H   0  0  0  0  0  0  0  0  0  0  0  0
  138.1028   74.0177  221.7746 H   0  0  0  0  0  0  0  0  0  0  0  0
  139.2039   75.5400  219.2140 H   0  0  0  0  0  0  0  0  0  0  0  0
  137.9984   76.1231  220.3791 H   0  0  0  0  0  0  0  0  0  0  0  0
  139.4503   77.7244  218.5822 H   0  0  0  0  0  0  0  0  0  0  0  0
  138.6038   78.3501  219.9793 H   0  0  0  0  0  0  0  0  0  0  0  0
  141.5502   77.4371  219.7524 H   0  0  0  0  0  0  0  0  0  0  0  0
  140.9908   78.9210  220.4685 H   0  0  0  0  0  0  0  0  0  0  0  0
  141.4624   76.9890  222.2465 H   0  0  0  0  0  0  0  0  0  0  0  0
  138.7458   78.2362  221.9725 H   0  0  0  0  0  0  0  0  0  0  0  0
  139.1933   77.1472  223.3208 H   0  0  0  0  0  0  0  0  0  0  0  0
  141.6914   77.9699  224.3322 H   0  0  0  0  0  0  0  0  0  0  0  0
  142.0267   78.2014  222.5146 H   0  0  0  0  0  0  0  0  0  0  0  0
  142.3719   80.1669  224.7312 H   0  0  0  0  0  0  0  0  0  0  0  0
  143.6129   79.4234  223.6726 H   0  0  0  0  0  0  0  0  0  0  0  0
  143.0411   81.6863  222.8115 H   0  0  0  0  0  0  0  0  0  0  0  0
  142.4670   80.4974  221.6520 H   0  0  0  0  0  0  0  0  0  0  0  0
  140.8306   81.6437  224.0014 H   0  0  0  0  0  0  0  0  0  0  0  0
  140.6700   82.1550  222.2829 H   0  0  0  0  0  0  0  0  0  0  0  0
  139.0016   80.4918  223.1621 H   0  0  0  0  0  0  0  0  0  0  0  0
  139.9623   80.0839  221.6157 H   0  0  0  0  0  0  0  0  0  0  0  0
  138.4304   68.6718  222.9201 H   0  0  0  0  0  0  0  0  0  0  0  0
  138.9433   67.1457  224.8023 H   0  0  0  0  0  0  0  0  0  0  0  0
  139.9118   66.8968  227.0396 H   0  0  0  0  0  0  0  0  0  0  0  0
  141.5924   70.3297  229.0454 H   0  0  0  0  0  0  0  0  0  0  0  0
  141.0075   71.7401  227.0767 H   0  0  0  0  0  0  0  0  0  0  0  0
  1  2  2  0
  2  3  1  0
  3  4  1  0
  4  5  1  0
  5  6  2  0
  5  7  1  0
  7  8  1  0
  8  9  1  0
  9 10  1  0
 10 11  1  0
 11 12  1  0
 12 13  1  0
 13 14  1  0
 14 15  1  0
 15 16  1  0
 16 17  1  0
 17 18  1  0
  2 19  1  0
 19 20  2  0
 20 21  1  0
 21 22  2  0
 22 23  1  0
 23 24  2  0
 24 25  1  0
 24 26  1  0
 26 27  2  0
 27 28  1  0
 28 29  2  0
 11  7  1  0
 18 13  1  0
 29 19  1  0
 28 22  1  0
  3 30  1  0
  4 31  1  0
  4 32  1  0
  8 33  1  0
  8 34  1  0
  9 35  1  0
  9 36  1  0
 10 37  1  0
 10 38  1  0
 11 39  1  1
 12 40  1  0
 12 41  1  0
 14 42  1  0
 14 43  1  0
 15 44  1  0
 15 45  1  0
 16 46  1  0
 16 47  1  0
 17 48  1  0
 17 49  1  0
 18 50  1  0
 18 51  1  0
 20 52  1  0
 21 53  1  0
 23 54  1  0
 26 55  1  0
 27 56  1  0
M  END
>  <smiles>  (9) 
O=C(NCC(=O)N1CCC[C@H]1CN1CCCCC1)c1ccc2cc(F)ccc2n1

>  <score_type>  (9) 
oracle

>  <origin>  (9) 
autodockgpu

>  <m_score__min__energy>  (9) 
-8.6999999999999993

>  <m_primary>  (9) 
energy

>  <rmsd>  (9) 
1.8754441684143466

>  <m_score__min__rmsd>  (9) 
1.8754441684143466

>  <meeko>  (9) 
{"free_energy": -8.04, "intermolecular_energy": -9.83, "internal_energy": -1.85, "cluster_size": 32, "cluster_id": 1, "rank_in_cluster": 27}

>  <energy>  (9) 
-8.32

>  <cluster_rmsd>  (9) 
1.6

>  <cluster>  (9) 
1

$$$$

     RDKit          3D

 56 59  0  0  0  0  0  0  0  0999 V2000
  139.7920   71.1620  220.9170 O   0  0  0  0  0  0  0  0  0  0  0  0
  139.7310   71.7620  222.0190 C   0  0  0  0  0  0  0  0  0  0  0  0
  139.6630   73.1770  222.1440 N   0  0  0  0  0  0  0  0  0  0  0  0
  139.6650   73.9880  220.9240 C   0  0  0  0  0  0  0  0  0  0  0  0
  140.3590   75.2570  221.2660 C   0  0  0  0  0  0  0  0  0  0  0  0
  140.4130   75.7070  222.4540 O   0  0  0  0  0  0  0  0  0  0  0  0
  141.0090   76.0440  220.2760 N   0  0  0  0  0  0  0  0  0  0  0  0
  140.9280   75.7790  218.8510 C   0  0  0  0  0  0  0  0  0  0  0  0
  142.0150   76.5820  218.2060 C   0  0  0  0  0  0  0  0  0  0  0  0
  142.8940   76.9760  219.3940 C   0  0  0  0  0  0  0  0  0  0  0  0
  141.8540   77.2270  220.4650 C   0  0  1  0  0  0  0  0  0  0  0  0
  141.0790   78.4890  220.1820 C   0  0  0  0  0  0  0  0  0  0  0  0
  141.0510   79.2910  221.3820 N   0  0  0  0  0  0  0  0  0  0  0  0
  141.1680   78.5220  222.5720 C   0  0  0  0  0  0  0  0  0  0  0  0
  141.5530   79.2230  223.8160 C   0  0  0  0  0  0  0  0  0  0  0  0
  142.7420   80.1390  223.5220 C   0  0  0  0  0  0  0  0  0  0  0  0
  142.1850   81.1630  222.5580 C   0  0  0  0  0  0  0  0  0  0  0  0
  141.7710   80.4980  221.2960 C   0  0  0  0  0  0  0  0  0  0  0  0
  139.7280   70.9700  223.2640 C   0  0  0  0  0  0  0  0  0  0  0  0
  139.2250   69.6850  223.2870 C   0  0  0  0  0  0  0  0  0  0  0  0
  139.2000   68.9050  224.4280 C   0  0  0  0  0  0  0  0  0  0  0  0
  139.7100   69.4570  225.5900 C   0  0  0  0  0  0  0  0  0  0  0  0
  139.7290   68.7680  226.7600 C   0  0  0  0  0  0  0  0  0  0  0  0
  140.2510   69.3560  227.9170 C   0  0  0  0  0  0  0  0  0  0  0  0
  140.2760   68.6770  229.0930 F   0  0  0  0  0  0  0  0  0  0  0  0
  140.7510   70.6440  227.8790 C   0  0  0  0  0  0  0  0  0  0  0  0
  140.7310   71.3450  226.6880 C   0  0  0  0  0  0  0  0  0  0  0  0
  140.2110   70.7440  225.5570 C   0  0  0  0  0  0  0  0  0  0  0  0
  140.2130   71.4650  224.4200 N   0  0  0  0  0  0  0  0  0  0  0  0
  139.6150   73.6010  223.0980 H   0  0  0  0  0  0  0  0  0  0  0  0
  140.2031   73.4646  220.1199 H   0  0  0  0  0  0  0  0  0  0  0  0
  138.6413   74.1762  220.5681 H   0  0  0  0  0  0  0  0  0  0  0  0
  141.0798   74.7074  218.6547 H   0  0  0  0  0  0  0  0  0  0  0  0
  139.9406   76.0532  218.4512 H   0  0  0  0  0  0  0  0  0  0  0  0
  142.5776   75.9766  217.4801 H   0  0  0  0  0  0  0  0  0  0  0  0
  141.6400   77.4449  217.6360 H   0  0  0  0  0  0  0  0  0  0  0  0
  143.5754   76.1606  219.6782 H   0  0  0  0  0  0  0  0  0  0  0  0
  143.5550   77.8334  219.1994 H   0  0  0  0  0  0  0  0  0  0  0  0
  142.2541   77.3616  221.4808 H   0  0  0  0  0  0  0  0  0  0  0  0
  141.5680   79.0505  219.3723 H   0  0  0  0  0  0  0  0  0  0  0  0
  140.0533   78.2389  219.8731 H   0  0  0  0  0  0  0  0  0  0  0  0
  140.1920   78.0477  222.7523 H   0  0  0  0  0  0  0  0  0  0  0  0
  142.0035   77.8344  222.3740 H   0  0  0  0  0  0  0  0  0  0  0  0
  140.7056   79.8232  224.1788 H   0  0  0  0  0  0  0  0  0  0  0  0
  141.8304   78.4886  224.5865 H   0  0  0  0  0  0  0  0  0  0  0  0
  143.1000   80.6228  224.4427 H   0  0  0  0  0  0  0  0  0  0  0  0
  143.6044   79.5945  223.1099 H   0  0  0  0  0  0  0  0  0  0  0  0
  141.3134   81.6560  223.0132 H   0  0  0  0  0  0  0  0  0  0  0  0
  142.9612   81.9100  222.3355 H   0  0  0  0  0  0  0  0  0  0  0  0
  141.1441   81.2123  220.7421 H   0  0  0  0  0  0  0  0  0  0  0  0
  142.7189   80.2147  220.8151 H   0  0  0  0  0  0  0  0  0  0  0  0
  138.8253   69.2617  222.3537 H   0  0  0  0  0  0  0  0  0  0  0  0
  138.7902   67.8843  224.4129 H   0  0  0  0  0  0  0  0  0  0  0  0
  139.3321   67.7428  226.7981 H   0  0  0  0  0  0  0  0  0  0  0  0
  141.1612   71.1070  228.7886 H   0  0  0  0  0  0  0  0  0  0  0  0
  141.1250   72.3709  226.6406 H   0  0  0  0  0  0  0  0  0  0  0  0
  1  2  2  0
  2  3  1  0
  3  4  1  0
  4  5  1  0
  5  6  2  0
  5  7  1  0
  7  8  1  0
  8  9  1  0
  9 10  1  0
 10 11  1  0
 11 12  1  0
 12 13  1  0
 13 14  1  0
 14 15  1  0
 15 16  1  0
 16 17  1  0
 17 18  1  0
  2 19  1  0
 19 20  2  0
 20 21  1  0
 21 22  2  0
 22 23  1  0
 23 24  2  0
 24 25  1  0
 24 26  1  0
 26 27  2  0
 27 28  1  0
 28 29  2  0
 11  7  1  0
 18 13  1  0
 29 19  1  0
 28 22  1  0
  3 30  1  0
  4 31  1  0
  4 32  1  0
  8 33  1  0
  8 34  1  0
  9 35  1  0
  9 36  1  0
 10 37  1  0
 10 38  1  0
 11 39  1  1
 12 40  1  0
 12 41  1  0
 14 42  1  0
 14 43  1  0
 15 44  1  0
 15 45  1  0
 16 46  1  0
 16 47  1  0
 17 48  1  0
 17 49  1  0
 18 50  1  0
 18 51  1  0
 20 52  1  0
 21 53  1  0
 23 54  1  0
 26 55  1  0
 27 56  1  0
M  END
>  <smiles>  (10) 
O=C(NCC(=O)N1CCC[C@H]1CN1CCCCC1)c1ccc2cc(F)ccc2n1

>  <score_type>  (10) 
oracle

>  <origin>  (10) 
autodockgpu

>  <m_score__min__energy>  (10) 
-8.6999999999999993

>  <m_primary>  (10) 
energy

>  <rmsd>  (10) 
1.877907494718003

>  <m_score__min__rmsd>  (10) 
1.877907494718003

>  <meeko>  (10) 
{"free_energy": -8.29, "intermolecular_energy": -10.08, "internal_energy": -2.02, "cluster_size": 32, "cluster_id": 1, "rank_in_cluster": 11}

>  <energy>  (10) 
-8.32

>  <cluster_rmsd>  (10) 
1.6

>  <cluster>  (10) 
1

$$$$

     RDKit          3D

 56 59  0  0  0  0  0  0  0  0999 V2000
  137.1560   75.9360  222.0720 O   0  0  0  0  0  0  0  0  0  0  0  0
  138.4040   76.0470  222.1790 C   0  0  0  0  0  0  0  0  0  0  0  0
  139.3120   74.9760  221.9570 N   0  0  0  0  0  0  0  0  0  0  0  0
  138.7730   73.6670  221.5840 C   0  0  0  0  0  0  0  0  0  0  0  0
  139.6400   72.6540  222.2410 C   0  0  0  0  0  0  0  0  0  0  0  0
  140.7650   72.9470  222.7520 O   0  0  0  0  0  0  0  0  0  0  0  0
  139.2540   71.2880  222.3360 N   0  0  0  0  0  0  0  0  0  0  0  0
  139.5110   70.3020  221.3020 C   0  0  0  0  0  0  0  0  0  0  0  0
  138.6470   69.1200  221.6180 C   0  0  0  0  0  0  0  0  0  0  0  0
  137.6610   69.6850  222.6410 C   0  0  0  0  0  0  0  0  0  0  0  0
  138.5540   70.6150  223.4340 C   0  0  1  0  0  0  0  0  0  0  0  0
  139.5220   69.8380  224.2900 C   0  0  0  0  0  0  0  0  0  0  0  0
  139.5310   70.4130  225.6140 N   0  0  0  0  0  0  0  0  0  0  0  0
  139.3060   69.4550  226.6410 C   0  0  0  0  0  0  0  0  0  0  0  0
  139.6820   69.8200  228.0240 C   0  0  0  0  0  0  0  0  0  0  0  0
  141.0830   70.4350  228.0120 C   0  0  0  0  0  0  0  0  0  0  0  0
  140.9150   71.7110  227.2170 C   0  0  0  0  0  0  0  0  0  0  0  0
  140.5220   71.3910  225.8220 C   0  0  0  0  0  0  0  0  0  0  0  0
  138.9750   77.3540  222.5540 C   0  0  0  0  0  0  0  0  0  0  0  0
  138.1620   78.4480  222.7770 C   0  0  0  0  0  0  0  0  0  0  0  0
  138.6500   79.6920  223.1290 C   0  0  0  0  0  0  0  0  0  0  0  0
  140.0210   79.8260  223.2610 C   0  0  0  0  0  0  0  0  0  0  0  0
  140.5930   81.0090  223.6040 C   0  0  0  0  0  0  0  0  0  0  0  0
  141.9830   81.1100  223.7280 C   0  0  0  0  0  0  0  0  0  0  0  0
  142.5680   82.2870  224.0710 F   0  0  0  0  0  0  0  0  0  0  0  0
  142.7850   80.0070  223.5020 C   0  0  0  0  0  0  0  0  0  0  0  0
  142.2020   78.8050  223.1530 C   0  0  0  0  0  0  0  0  0  0  0  0
  140.8270   78.7260  223.0360 C   0  0  0  0  0  0  0  0  0  0  0  0
  140.3040   77.5350  222.6940 N   0  0  0  0  0  0  0  0  0  0  0  0
  140.3370   75.1490  222.0660 H   0  0  0  0  0  0  0  0  0  0  0  0
  137.7362   73.5675  221.9378 H   0  0  0  0  0  0  0  0  0  0  0  0
  138.7634   73.5359  220.4919 H   0  0  0  0  0  0  0  0  0  0  0  0
  139.2503   70.7102  220.3144 H   0  0  0  0  0  0  0  0  0  0  0  0
  140.5744   70.0218  221.2748 H   0  0  0  0  0  0  0  0  0  0  0  0
  138.1235   68.7604  220.7198 H   0  0  0  0  0  0  0  0  0  0  0  0
  139.2133   68.2540  221.9912 H   0  0  0  0  0  0  0  0  0  0  0  0
  136.8429   70.2334  222.1511 H   0  0  0  0  0  0  0  0  0  0  0  0
  137.1556   68.9200  223.2487 H   0  0  0  0  0  0  0  0  0  0  0  0
  138.0282   71.2808  224.1342 H   0  0  0  0  0  0  0  0  0  0  0  0
  139.2058   68.7859  224.3452 H   0  0  0  0  0  0  0  0  0  0  0  0
  140.5306   69.8848  223.8534 H   0  0  0  0  0  0  0  0  0  0  0  0
  138.2303   69.2250  226.6441 H   0  0  0  0  0  0  0  0  0  0  0  0
  139.9720   68.6173  226.3867 H   0  0  0  0  0  0  0  0  0  0  0  0
  138.9618   70.5502  228.4217 H   0  0  0  0  0  0  0  0  0  0  0  0
  139.6747   68.9231  228.6608 H   0  0  0  0  0  0  0  0  0  0  0  0
  141.4230   70.6535  229.0351 H   0  0  0  0  0  0  0  0  0  0  0  0
  141.8374   69.7620  227.5785 H   0  0  0  0  0  0  0  0  0  0  0  0
  140.1342   72.3303  227.6826 H   0  0  0  0  0  0  0  0  0  0  0  0
  141.8688   72.2589  227.2071 H   0  0  0  0  0  0  0  0  0  0  0  0
  140.1603   72.3233  225.3639 H   0  0  0  0  0  0  0  0  0  0  0  0
  141.4294   70.9556  225.3782 H   0  0  0  0  0  0  0  0  0  0  0  0
  137.0744   78.3231  222.6693 H   0  0  0  0  0  0  0  0  0  0  0  0
  137.9743   80.5434  223.2979 H   0  0  0  0  0  0  0  0  0  0  0  0
  139.9612   81.8911  223.7850 H   0  0  0  0  0  0  0  0  0  0  0  0
  143.8778   80.0862  223.5993 H   0  0  0  0  0  0  0  0  0  0  0  0
  142.8263   77.9181  222.9697 H   0  0  0  0  0  0  0  0  0  0  0  0
  1  2  2  0
  2  3  1  0
  3  4  1  0
  4  5  1  0
  5  6  2  0
  5  7  1  0
  7  8  1  0
  8  9  1  0
  9 10  1  0
 10 11  1  0
 11 12  1  0
 12 13  1  0
 13 14  1  0
 14 15  1  0
 15 16  1  0
 16 17  1  0
 17 18  1  0
  2 19  1  0
 19 20  2  0
 20 21  1  0
 21 22  2  0
 22 23  1  0
 23 24  2  0
 24 25  1  0
 24 26  1  0
 26 27  2  0
 27 28  1  0
 28 29  2  0
 11  7  1  0
 18 13  1  0
 29 19  1  0
 28 22  1  0
  3 30  1  0
  4 31  1  0
  4 32  1  0
  8 33  1  0
  8 34  1  0
  9 35  1  0
  9 36  1  0
 10 37  1  0
 10 38  1  0
 11 39  1  1
 12 40  1  0
 12 41  1  0
 14 42  1  0
 14 43  1  0
 15 44  1  0
 15 45  1  0
 16 46  1  0
 16 47  1  0
 17 48  1  0
 17 49  1  0
 18 50  1  0
 18 51  1  0
 20 52  1  0
 21 53  1  0
 23 54  1  0
 26 55  1  0
 27 56  1  0
M  END
>  <smiles>  (11) 
O=C(NCC(=O)N1CCC[C@H]1CN1CCCCC1)c1ccc2cc(F)ccc2n1

>  <score_type>  (11) 
oracle

>  <origin>  (11) 
autodockgpu

>  <m_score__min__energy>  (11) 
-8.6999999999999993

>  <m_primary>  (11) 
energy

>  <rmsd>  (11) 
9.327884571406855

>  <m_score__min__rmsd>  (11) 
9.327884571406855

>  <meeko>  (11) 
{"free_energy": -7.74, "intermolecular_energy": -9.53, "internal_energy": -2.05, "cluster_size": 7, "cluster_id": 2, "rank_in_cluster": 5}

>  <energy>  (11) 
-8.29

>  <cluster_rmsd>  (11) 
1.79

>  <cluster>  (11) 
1

$$$$

     RDKit          3D

 56 59  0  0  0  0  0  0  0  0999 V2000
  141.2850   72.4610  221.9250 O   0  0  0  0  0  0  0  0  0  0  0  0
  140.2220   72.4040  222.5940 C   0  0  0  0  0  0  0  0  0  0  0  0
  139.0920   73.2310  222.3480 N   0  0  0  0  0  0  0  0  0  0  0  0
  139.1620   74.2070  221.2580 C   0  0  0  0  0  0  0  0  0  0  0  0
  139.5490   75.5000  221.8790 C   0  0  0  0  0  0  0  0  0  0  0  0
  140.7550   75.7910  222.1550 O   0  0  0  0  0  0  0  0  0  0  0  0
  138.5830   76.4940  222.2000 N   0  0  0  0  0  0  0  0  0  0  0  0
  137.3680   76.2290  222.9480 C   0  0  0  0  0  0  0  0  0  0  0  0
  136.4790   77.4180  222.7520 C   0  0  0  0  0  0  0  0  0  0  0  0
  137.1320   78.1380  221.5710 C   0  0  0  0  0  0  0  0  0  0  0  0
  138.6010   77.9210  221.8650 C   0  0  1  0  0  0  0  0  0  0  0  0
  139.0430   78.7430  223.0500 C   0  0  0  0  0  0  0  0  0  0  0  0
  140.2810   79.4070  222.7130 N   0  0  0  0  0  0  0  0  0  0  0  0
  140.1340   80.8110  222.5440 C   0  0  0  0  0  0  0  0  0  0  0  0
  141.3530   81.6470  222.5980 C   0  0  0  0  0  0  0  0  0  0  0  0
  142.1890   81.2280  223.8090 C   0  0  0  0  0  0  0  0  0  0  0  0
  142.6050   79.8090  223.4920 C   0  0  0  0  0  0  0  0  0  0  0  0
  141.4080   78.9350  223.4140 C   0  0  0  0  0  0  0  0  0  0  0  0
  140.1240   71.4310  223.6970 C   0  0  0  0  0  0  0  0  0  0  0  0
  139.5610   70.1860  223.5000 C   0  0  0  0  0  0  0  0  0  0  0  0
  139.4470   69.2410  224.5020 C   0  0  0  0  0  0  0  0  0  0  0  0
  139.9270   69.5790  225.7550 C   0  0  0  0  0  0  0  0  0  0  0  0
  139.8600   68.7170  226.8030 C   0  0  0  0  0  0  0  0  0  0  0  0
  140.3550   69.0900  228.0570 C   0  0  0  0  0  0  0  0  0  0  0  0
  140.2940   68.2370  229.1120 F   0  0  0  0  0  0  0  0  0  0  0  0
  140.9160   70.3400  228.2400 C   0  0  0  0  0  0  0  0  0  0  0  0
  140.9840   71.2170  227.1750 C   0  0  0  0  0  0  0  0  0  0  0  0
  140.4900   70.8270  225.9440 C   0  0  0  0  0  0  0  0  0  0  0  0
  140.5780   71.7130  224.9350 N   0  0  0  0  0  0  0  0  0  0  0  0
  138.2440   73.1230  222.9490 H   0  0  0  0  0  0  0  0  0  0  0  0
  139.9162   73.8988  220.5189 H   0  0  0  0  0  0  0  0  0  0  0  0
  138.1991   74.2886  220.7325 H   0  0  0  0  0  0  0  0  0  0  0  0
  136.8776   75.3211  222.5668 H   0  0  0  0  0  0  0  0  0  0  0  0
  137.5851   76.0666  224.0141 H   0  0  0  0  0  0  0  0  0  0  0  0
  135.4517   77.1089  222.5088 H   0  0  0  0  0  0  0  0  0  0  0  0
  136.3888   78.0471  223.6498 H   0  0  0  0  0  0  0  0  0  0  0  0
  136.8420   77.6834  220.6122 H   0  0  0  0  0  0  0  0  0  0  0  0
  136.8440   79.1951  221.4735 H   0  0  0  0  0  0  0  0  0  0  0  0
  139.2853   78.2039  221.0515 H   0  0  0  0  0  0  0  0  0  0  0  0
  138.2738   79.4920  223.2893 H   0  0  0  0  0  0  0  0  0  0  0  0
  139.1908   78.0928  223.9248 H   0  0  0  0  0  0  0  0  0  0  0  0
  139.6676   80.9754  221.5615 H   0  0  0  0  0  0  0  0  0  0  0  0
  139.5410   81.1323  223.4130 H   0  0  0  0  0  0  0  0  0  0  0  0
  141.9390   81.5050  221.6780 H   0  0  0  0  0  0  0  0  0  0  0  0
  141.0738   82.7072  222.6872 H   0  0  0  0  0  0  0  0  0  0  0  0
  143.0693   81.8781  223.9204 H   0  0  0  0  0  0  0  0  0  0  0  0
  141.6329   81.3052  224.7549 H   0  0  0  0  0  0  0  0  0  0  0  0
  143.1328   79.7910  222.5271 H   0  0  0  0  0  0  0  0  0  0  0  0
  143.2697   79.4411  224.2875 H   0  0  0  0  0  0  0  0  0  0  0  0
  141.7209   77.9963  222.9334 H   0  0  0  0  0  0  0  0  0  0  0  0
  141.0645   78.8516  224.4556 H   0  0  0  0  0  0  0  0  0  0  0  0
  139.1851   69.9340  222.4974 H   0  0  0  0  0  0  0  0  0  0  0  0
  138.9921   68.2579  224.3108 H   0  0  0  0  0  0  0  0  0  0  0  0
  139.4143   67.7209  226.6647 H   0  0  0  0  0  0  0  0  0  0  0  0
  141.3052   70.6340  229.2259 H   0  0  0  0  0  0  0  0  0  0  0  0
  141.4267   72.2156  227.3050 H   0  0  0  0  0  0  0  0  0  0  0  0
  1  2  2  0
  2  3  1  0
  3  4  1  0
  4  5  1  0
  5  6  2  0
  5  7  1  0
  7  8  1  0
  8  9  1  0
  9 10  1  0
 10 11  1  0
 11 12  1  0
 12 13  1  0
 13 14  1  0
 14 15  1  0
 15 16  1  0
 16 17  1  0
 17 18  1  0
  2 19  1  0
 19 20  2  0
 20 21  1  0
 21 22  2  0
 22 23  1  0
 23 24  2  0
 24 25  1  0
 24 26  1  0
 26 27  2  0
 27 28  1  0
 28 29  2  0
 11  7  1  0
 18 13  1  0
 29 19  1  0
 28 22  1  0
  3 30  1  0
  4 31  1  0
  4 32  1  0
  8 33  1  0
  8 34  1  0
  9 35  1  0
  9 36  1  0
 10 37  1  0
 10 38  1  0
 11 39  1  6
 12 40  1  0
 12 41  1  0
 14 42  1  0
 14 43  1  0
 15 44  1  0
 15 45  1  0
 16 46  1  0
 16 47  1  0
 17 48  1  0
 17 49  1  0
 18 50  1  0
 18 51  1  0
 20 52  1  0
 21 53  1  0
 23 54  1  0
 26 55  1  0
 27 56  1  0
M  END
>  <smiles>  (12) 
O=C(NCC(=O)N1CCC[C@H]1CN1CCCCC1)c1ccc2cc(F)ccc2n1

>  <score_type>  (12) 
oracle

>  <origin>  (12) 
autodockgpu

>  <m_score__min__energy>  (12) 
-8.6999999999999993

>  <m_primary>  (12) 
energy

>  <rmsd>  (12) 
3.143950275654443

>  <m_score__min__rmsd>  (12) 
3.143950275654443

>  <meeko>  (12) 
{"free_energy": -8.64, "intermolecular_energy": -10.43, "internal_energy": -1.33, "cluster_size": 32, "cluster_id": 1, "rank_in_cluster": 2}

>  <energy>  (12) 
-8.29

>  <cluster_rmsd>  (12) 
1.87

>  <cluster>  (12) 
1

$$$$

     RDKit          3D

 56 59  0  0  0  0  0  0  0  0999 V2000
  140.7150   71.5610  221.0700 O   0  0  0  0  0  0  0  0  0  0  0  0
  140.2880   72.1190  222.1130 C   0  0  0  0  0  0  0  0  0  0  0  0
  139.9620   73.5000  222.1910 N   0  0  0  0  0  0  0  0  0  0  0  0
  140.1330   74.3290  220.9960 C   0  0  0  0  0  0  0  0  0  0  0  0
  140.5500   75.6730  221.4740 C   0  0  0  0  0  0  0  0  0  0  0  0
  140.3050   76.0850  222.6510 O   0  0  0  0  0  0  0  0  0  0  0  0
  141.2530   76.5800  220.6340 N   0  0  0  0  0  0  0  0  0  0  0  0
  141.3400   78.0090  220.8810 C   0  0  0  0  0  0  0  0  0  0  0  0
  141.8330   78.6310  219.6120 C   0  0  0  0  0  0  0  0  0  0  0  0
  141.6370   77.5120  218.5880 C   0  0  0  0  0  0  0  0  0  0  0  0
  142.0000   76.2920  219.4070 C   0  0  1  0  0  0  0  0  0  0  0  0
  143.4830   76.2460  219.6810 C   0  0  0  0  0  0  0  0  0  0  0  0
  143.9400   74.8860  219.5150 N   0  0  0  0  0  0  0  0  0  0  0  0
  144.8910   74.4920  220.4960 C   0  0  0  0  0  0  0  0  0  0  0  0
  145.1310   73.0460  220.6870 C   0  0  0  0  0  0  0  0  0  0  0  0
  143.7840   72.3250  220.7700 C   0  0  0  0  0  0  0  0  0  0  0  0
  143.1770   72.5250  219.3990 C   0  0  0  0  0  0  0  0  0  0  0  0
  142.9330   73.9690  219.1580 C   0  0  0  0  0  0  0  0  0  0  0  0
  140.1060   71.3080  223.3320 C   0  0  0  0  0  0  0  0  0  0  0  0
  139.4870   70.0750  223.2810 C   0  0  0  0  0  0  0  0  0  0  0  0
  139.2940   69.2810  224.3950 C   0  0  0  0  0  0  0  0  0  0  0  0
  139.7520   69.7610  225.6090 C   0  0  0  0  0  0  0  0  0  0  0  0
  139.6080   69.0530  226.7590 C   0  0  0  0  0  0  0  0  0  0  0  0
  140.0820   69.5690  227.9700 C   0  0  0  0  0  0  0  0  0  0  0  0
  139.9450   68.8690  229.1260 F   0  0  0  0  0  0  0  0  0  0  0  0
  140.7000   70.8050  228.0060 C   0  0  0  0  0  0  0  0  0  0  0  0
  140.8450   71.5260  226.8360 C   0  0  0  0  0  0  0  0  0  0  0  0
  140.3700   70.9970  225.6510 C   0  0  0  0  0  0  0  0  0  0  0  0
  140.5350   71.7340  224.5370 N   0  0  0  0  0  0  0  0  0  0  0  0
  139.6130   73.8890  223.0960 H   0  0  0  0  0  0  0  0  0  0  0  0
  140.9075   73.9002  220.3431 H   0  0  0  0  0  0  0  0  0  0  0  0
  139.2022   74.3843  220.4125 H   0  0  0  0  0  0  0  0  0  0  0  0
  140.3495   78.4106  221.1411 H   0  0  0  0  0  0  0  0  0  0  0  0
  142.0174   78.2269  221.7199 H   0  0  0  0  0  0  0  0  0  0  0  0
  141.2383   79.5180  219.3484 H   0  0  0  0  0  0  0  0  0  0  0  0
  142.8722   78.9858  219.6759 H   0  0  0  0  0  0  0  0  0  0  0  0
  140.5956   77.4657  218.2368 H   0  0  0  0  0  0  0  0  0  0  0  0
  142.2325   77.6318  217.6709 H   0  0  0  0  0  0  0  0  0  0  0  0
  141.7685   75.3270  218.9325 H   0  0  0  0  0  0  0  0  0  0  0  0
  144.0110   76.9033  218.9745 H   0  0  0  0  0  0  0  0  0  0  0  0
  143.6866   76.5885  220.7063 H   0  0  0  0  0  0  0  0  0  0  0  0
  145.8528   74.9500  220.2220 H   0  0  0  0  0  0  0  0  0  0  0  0
  144.4576   74.8274  221.4498 H   0  0  0  0  0  0  0  0  0  0  0  0
  145.7084   72.6525  219.8374 H   0  0  0  0  0  0  0  0  0  0  0  0
  145.6982   72.8825  221.6152 H   0  0  0  0  0  0  0  0  0  0  0  0
  143.9256   71.2551  220.9827 H   0  0  0  0  0  0  0  0  0  0  0  0
  143.1449   72.7132  221.5768 H   0  0  0  0  0  0  0  0  0  0  0  0
  143.8681   72.1398  218.6348 H   0  0  0  0  0  0  0  0  0  0  0  0
  142.2213   71.9831  219.3446 H   0  0  0  0  0  0  0  0  0  0  0  0
  142.7476   74.0924  218.0808 H   0  0  0  0  0  0  0  0  0  0  0  0
  142.0929   74.2165  219.8236 H   0  0  0  0  0  0  0  0  0  0  0  0
  139.1306   69.7074  222.3074 H   0  0  0  0  0  0  0  0  0  0  0  0
  138.7948   68.3037  224.3195 H   0  0  0  0  0  0  0  0  0  0  0  0
  139.1164   68.0692  226.7382 H   0  0  0  0  0  0  0  0  0  0  0  0
  141.0731   71.2111  228.9577 H   0  0  0  0  0  0  0  0  0  0  0  0
  141.3338   72.5114  226.8478 H   0  0  0  0  0  0  0  0  0  0  0  0
  1  2  2  0
  2  3  1  0
  3  4  1  0
  4  5  1  0
  5  6  2  0
  5  7  1  0
  7  8  1  0
  8  9  1  0
  9 10  1  0
 10 11  1  0
 11 12  1  0
 12 13  1  0
 13 14  1  0
 14 15  1  0
 15 16  1  0
 16 17  1  0
 17 18  1  0
  2 19  1  0
 19 20  2  0
 20 21  1  0
 21 22  2  0
 22 23  1  0
 23 24  2  0
 24 25  1  0
 24 26  1  0
 26 27  2  0
 27 28  1  0
 28 29  2  0
 11  7  1  0
 18 13  1  0
 29 19  1  0
 28 22  1  0
  3 30  1  0
  4 31  1  0
  4 32  1  0
  8 33  1  0
  8 34  1  0
  9 35  1  0
  9 36  1  0
 10 37  1  0
 10 38  1  0
 11 39  1  6
 12 40  1  0
 12 41  1  0
 14 42  1  0
 14 43  1  0
 15 44  1  0
 15 45  1  0
 16 46  1  0
 16 47  1  0
 17 48  1  0
 17 49  1  0
 18 50  1  0
 18 51  1  0
 20 52  1  0
 21 53  1  0
 23 54  1  0
 26 55  1  0
 27 56  1  0
M  END
>  <smiles>  (13) 
O=C(NCC(=O)N1CCC[C@H]1CN1CCCCC1)c1ccc2cc(F)ccc2n1

>  <score_type>  (13) 
oracle

>  <origin>  (13) 
autodockgpu

>  <m_score__min__energy>  (13) 
-8.6999999999999993

>  <m_primary>  (13) 
energy

>  <rmsd>  (13) 
4.382821672713113

>  <m_score__min__rmsd>  (13) 
4.382821672713113

>  <meeko>  (13) 
{"free_energy": -7.81, "intermolecular_energy": -9.6, "internal_energy": -2.4, "cluster_size": 8, "cluster_id": 3, "rank_in_cluster": 3}

>  <energy>  (13) 
-8.28

>  <cluster_rmsd>  (13) 
1.79

>  <cluster>  (13) 
1

$$$$

     RDKit          3D

 56 59  0  0  0  0  0  0  0  0999 V2000
  137.1050   76.0210  222.1510 O   0  0  0  0  0  0  0  0  0  0  0  0
  138.3440   76.1050  222.3490 C   0  0  0  0  0  0  0  0  0  0  0  0
  139.2290   74.9940  222.2850 N   0  0  0  0  0  0  0  0  0  0  0  0
  138.6760   73.6750  221.9750 C   0  0  0  0  0  0  0  0  0  0  0  0
  139.7690   72.6960  222.2100 C   0  0  0  0  0  0  0  0  0  0  0  0
  140.9840   73.0480  222.3380 O   0  0  0  0  0  0  0  0  0  0  0  0
  139.5160   71.3000  222.3080 N   0  0  0  0  0  0  0  0  0  0  0  0
  139.9310   70.3310  221.3090 C   0  0  0  0  0  0  0  0  0  0  0  0
  139.1710   69.0730  221.5950 C   0  0  0  0  0  0  0  0  0  0  0  0
  138.0740   69.5500  222.5480 C   0  0  0  0  0  0  0  0  0  0  0  0
  138.8200   70.5750  223.3750 C   0  0  1  0  0  0  0  0  0  0  0  0
  139.8080   69.9080  224.3000 C   0  0  0  0  0  0  0  0  0  0  0  0
  139.7130   70.5310  225.6000 N   0  0  0  0  0  0  0  0  0  0  0  0
  139.4330   69.6070  226.6440 C   0  0  0  0  0  0  0  0  0  0  0  0
  139.7050   70.0300  228.0340 C   0  0  0  0  0  0  0  0  0  0  0  0
  141.0920   70.6700  228.0970 C   0  0  0  0  0  0  0  0  0  0  0  0
  140.9600   71.9130  227.2450 C   0  0  0  0  0  0  0  0  0  0  0  0
  140.6710   71.5350  225.8390 C   0  0  0  0  0  0  0  0  0  0  0  0
  138.9280   77.4220  222.6640 C   0  0  0  0  0  0  0  0  0  0  0  0
  138.1260   78.5330  222.8350 C   0  0  0  0  0  0  0  0  0  0  0  0
  138.6270   79.7870  223.1310 C   0  0  0  0  0  0  0  0  0  0  0  0
  139.9990   79.9130  223.2580 C   0  0  0  0  0  0  0  0  0  0  0  0
  140.5840   81.1040  223.5470 C   0  0  0  0  0  0  0  0  0  0  0  0
  141.9750   81.1960  223.6680 C   0  0  0  0  0  0  0  0  0  0  0  0
  142.5720   82.3820  223.9570 F   0  0  0  0  0  0  0  0  0  0  0  0
  142.7650   80.0750  223.4930 C   0  0  0  0  0  0  0  0  0  0  0  0
  142.1700   78.8640  223.1990 C   0  0  0  0  0  0  0  0  0  0  0  0
  140.7940   78.7950  223.0840 C   0  0  0  0  0  0  0  0  0  0  0  0
  140.2580   77.5950  222.7970 N   0  0  0  0  0  0  0  0  0  0  0  0
  140.2480   75.1470  222.4630 H   0  0  0  0  0  0  0  0  0  0  0  0
  137.8217   73.4565  222.6326 H   0  0  0  0  0  0  0  0  0  0  0  0
  138.3148   73.6279  220.9371 H   0  0  0  0  0  0  0  0  0  0  0  0
  139.6913   70.6987  220.3004 H   0  0  0  0  0  0  0  0  0  0  0  0
  141.0165   70.1578  221.3499 H   0  0  0  0  0  0  0  0  0  0  0  0
  138.7407   68.6519  220.6744 H   0  0  0  0  0  0  0  0  0  0  0  0
  139.7965   68.2722  222.0164 H   0  0  0  0  0  0  0  0  0  0  0  0
  137.2366   70.0073  222.0006 H   0  0  0  0  0  0  0  0  0  0  0  0
  137.6118   68.7459  223.1394 H   0  0  0  0  0  0  0  0  0  0  0  0
  138.1892   71.1938  224.0301 H   0  0  0  0  0  0  0  0  0  0  0  0
  139.5726   68.8368  224.3840 H   0  0  0  0  0  0  0  0  0  0  0  0
  140.8282   70.0178  223.9036 H   0  0  0  0  0  0  0  0  0  0  0  0
  138.3638   69.3562  226.5813 H   0  0  0  0  0  0  0  0  0  0  0  0
  140.1290   68.7735  226.4684 H   0  0  0  0  0  0  0  0  0  0  0  0
  138.9468   70.7607  228.3522 H   0  0  0  0  0  0  0  0  0  0  0  0
  139.6678   69.1570  228.7022 H   0  0  0  0  0  0  0  0  0  0  0  0
  141.3553   70.9318  229.1325 H   0  0  0  0  0  0  0  0  0  0  0  0
  141.8859   69.9961  227.7428 H   0  0  0  0  0  0  0  0  0  0  0  0
  140.1387   72.5343  227.6316 H   0  0  0  0  0  0  0  0  0  0  0  0
  141.9032   72.4779  227.2810 H   0  0  0  0  0  0  0  0  0  0  0  0
  140.3268   72.4429  225.3221 H   0  0  0  0  0  0  0  0  0  0  0  0
  141.6144   71.1014  225.4756 H   0  0  0  0  0  0  0  0  0  0  0  0
  137.0374   78.4147  222.7308 H   0  0  0  0  0  0  0  0  0  0  0  0
  137.9600   80.6520  223.2607 H   0  0  0  0  0  0  0  0  0  0  0  0
  139.9617   82.0002  223.6866 H   0  0  0  0  0  0  0  0  0  0  0  0
  143.8586   80.1471  223.5872 H   0  0  0  0  0  0  0  0  0  0  0  0
  142.7849   77.9629  223.0577 H   0  0  0  0  0  0  0  0  0  0  0  0
  1  2  2  0
  2  3  1  0
  3  4  1  0
  4  5  1  0
  5  6  2  0
  5  7  1  0
  7  8  1  0
  8  9  1  0
  9 10  1  0
 10 11  1  0
 11 12  1  0
 12 13  1  0
 13 14  1  0
 14 15  1  0
 15 16  1  0
 16 17  1  0
 17 18  1  0
  2 19  1  0
 19 20  2  0
 20 21  1  0
 21 22  2  0
 22 23  1  0
 23 24  2  0
 24 25  1  0
 24 26  1  0
 26 27  2  0
 27 28  1  0
 28 29  2  0
 11  7  1  0
 18 13  1  0
 29 19  1  0
 28 22  1  0
  3 30  1  0
  4 31  1  0
  4 32  1  0
  8 33  1  0
  8 34  1  0
  9 35  1  0
  9 36  1  0
 10 37  1  0
 10 38  1  0
 11 39  1  1
 12 40  1  0
 12 41  1  0
 14 42  1  0
 14 43  1  0
 15 44  1  0
 15 45  1  0
 16 46  1  0
 16 47  1  0
 17 48  1  0
 17 49  1  0
 18 50  1  0
 18 51  1  0
 20 52  1  0
 21 53  1  0
 23 54  1  0
 26 55  1  0
 27 56  1  0
M  END
>  <smiles>  (14) 
O=C(NCC(=O)N1CCC[C@H]1CN1CCCCC1)c1ccc2cc(F)ccc2n1

>  <score_type>  (14) 
oracle

>  <origin>  (14) 
autodockgpu

>  <m_score__min__energy>  (14) 
-8.6999999999999993

>  <m_primary>  (14) 
energy

>  <rmsd>  (14) 
9.315699664022784

>  <m_score__min__rmsd>  (14) 
9.315699664022784

>  <meeko>  (14) 
{"free_energy": -7.7, "intermolecular_energy": -9.49, "internal_energy": -2.17, "cluster_size": 7, "cluster_id": 2, "rank_in_cluster": 6}

>  <energy>  (14) 
-8.22

>  <cluster_rmsd>  (14) 
1.55

>  <cluster>  (14) 
1

$$$$

     RDKit          3D

 56 59  0  0  0  0  0  0  0  0999 V2000
  140.1470   71.6410  220.9310 O   0  0  0  0  0  0  0  0  0  0  0  0
  139.8950   72.2020  222.0270 C   0  0  0  0  0  0  0  0  0  0  0  0
  139.5890   73.5850  222.1530 N   0  0  0  0  0  0  0  0  0  0  0  0
  139.5650   74.4100  220.9430 C   0  0  0  0  0  0  0  0  0  0  0  0
  140.5080   75.5330  221.1830 C   0  0  0  0  0  0  0  0  0  0  0  0
  140.8510   75.8990  222.3510 O   0  0  0  0  0  0  0  0  0  0  0  0
  141.0860   76.2670  220.1100 N   0  0  0  0  0  0  0  0  0  0  0  0
  140.8760   75.9510  218.7090 C   0  0  0  0  0  0  0  0  0  0  0  0
  141.9200   76.7010  217.9420 C   0  0  0  0  0  0  0  0  0  0  0  0
  142.9070   77.1170  219.0320 C   0  0  0  0  0  0  0  0  0  0  0  0
  141.9710   77.4330  220.1790 C   0  0  1  0  0  0  0  0  0  0  0  0
  141.2020   78.7040  219.9150 C   0  0  0  0  0  0  0  0  0  0  0  0
  141.0160   79.3980  221.1670 N   0  0  0  0  0  0  0  0  0  0  0  0
  140.0450   78.7860  222.0070 C   0  0  0  0  0  0  0  0  0  0  0  0
  140.0460   79.1420  223.4420 C   0  0  0  0  0  0  0  0  0  0  0  0
  141.4810   79.0830  223.9680 C   0  0  0  0  0  0  0  0  0  0  0  0
  142.1940   80.1800  223.2090 C   0  0  0  0  0  0  0  0  0  0  0  0
  142.2030   79.8700  221.7580 C   0  0  0  0  0  0  0  0  0  0  0  0
  139.9130   71.3960  223.2620 C   0  0  0  0  0  0  0  0  0  0  0  0
  139.4060   70.1120  223.2800 C   0  0  0  0  0  0  0  0  0  0  0  0
  139.4000   69.3190  224.4120 C   0  0  0  0  0  0  0  0  0  0  0  0
  139.9330   69.8550  225.5710 C   0  0  0  0  0  0  0  0  0  0  0  0
  139.9710   69.1520  226.7320 C   0  0  0  0  0  0  0  0  0  0  0  0
  140.5170   69.7250  227.8860 C   0  0  0  0  0  0  0  0  0  0  0  0
  140.5620   69.0330  229.0530 F   0  0  0  0  0  0  0  0  0  0  0  0
  141.0210   71.0120  227.8530 C   0  0  0  0  0  0  0  0  0  0  0  0
  140.9810   71.7270  226.6720 C   0  0  0  0  0  0  0  0  0  0  0  0
  140.4380   71.1410  225.5430 C   0  0  0  0  0  0  0  0  0  0  0  0
  140.4210   71.8750  224.4150 N   0  0  0  0  0  0  0  0  0  0  0  0
  139.3920   73.9770  223.1010 H   0  0  0  0  0  0  0  0  0  0  0  0
  139.8896   73.8197  220.0734 H   0  0  0  0  0  0  0  0  0  0  0  0
  138.5505   74.7790  220.7316 H   0  0  0  0  0  0  0  0  0  0  0  0
  140.9865   74.8692  218.5429 H   0  0  0  0  0  0  0  0  0  0  0  0
  139.8640   76.2352  218.3849 H   0  0  0  0  0  0  0  0  0  0  0  0
  142.4038   76.0545  217.1951 H   0  0  0  0  0  0  0  0  0  0  0  0
  141.5157   77.5511  217.3729 H   0  0  0  0  0  0  0  0  0  0  0  0
  143.5935   76.2963  219.2875 H   0  0  0  0  0  0  0  0  0  0  0  0
  143.5660   77.9504  218.7472 H   0  0  0  0  0  0  0  0  0  0  0  0
  142.4619   77.5936  221.1502 H   0  0  0  0  0  0  0  0  0  0  0  0
  141.7668   79.3410  219.2185 H   0  0  0  0  0  0  0  0  0  0  0  0
  140.2253   78.4665  219.4682 H   0  0  0  0  0  0  0  0  0  0  0  0
  139.0545   79.0467  221.6059 H   0  0  0  0  0  0  0  0  0  0  0  0
  140.3008   77.7163  221.9889 H   0  0  0  0  0  0  0  0  0  0  0  0
  139.6477   80.1593  223.5700 H   0  0  0  0  0  0  0  0  0  0  0  0
  139.4156   78.4349  224.0011 H   0  0  0  0  0  0  0  0  0  0  0  0
  141.5088   79.2749  225.0508 H   0  0  0  0  0  0  0  0  0  0  0  0
  141.9453   78.0965  223.8222 H   0  0  0  0  0  0  0  0  0  0  0  0
  141.6735   81.1349  223.3743 H   0  0  0  0  0  0  0  0  0  0  0  0
  143.2308   80.2530  223.5690 H   0  0  0  0  0  0  0  0  0  0  0  0
  142.4845   80.7930  221.2300 H   0  0  0  0  0  0  0  0  0  0  0  0
  142.9045   79.0277  221.6658 H   0  0  0  0  0  0  0  0  0  0  0  0
  138.9872   69.7008  222.3497 H   0  0  0  0  0  0  0  0  0  0  0  0
  138.9869   68.2997  224.3923 H   0  0  0  0  0  0  0  0  0  0  0  0
  139.5709   68.1279  226.7656 H   0  0  0  0  0  0  0  0  0  0  0  0
  141.4503   71.4628  228.7599 H   0  0  0  0  0  0  0  0  0  0  0  0
  141.3771   72.7523  226.6298 H   0  0  0  0  0  0  0  0  0  0  0  0
  1  2  2  0
  2  3  1  0
  3  4  1  0
  4  5  1  0
  5  6  2  0
  5  7  1  0
  7  8  1  0
  8  9  1  0
  9 10  1  0
 10 11  1  0
 11 12  1  0
 12 13  1  0
 13 14  1  0
 14 15  1  0
 15 16  1  0
 16 17  1  0
 17 18  1  0
  2 19  1  0
 19 20  2  0
 20 21  1  0
 21 22  2  0
 22 23  1  0
 23 24  2  0
 24 25  1  0
 24 26  1  0
 26 27  2  0
 27 28  1  0
 28 29  2  0
 11  7  1  0
 18 13  1  0
 29 19  1  0
 28 22  1  0
  3 30  1  0
  4 31  1  0
  4 32  1  0
  8 33  1  0
  8 34  1  0
  9 35  1  0
  9 36  1  0
 10 37  1  0
 10 38  1  0
 11 39  1  1
 12 40  1  0
 12 41  1  0
 14 42  1  0
 14 43  1  0
 15 44  1  0
 15 45  1  0
 16 46  1  0
 16 47  1  0
 17 48  1  0
 17 49  1  0
 18 50  1  0
 18 51  1  0
 20 52  1  0
 21 53  1  0
 23 54  1  0
 26 55  1  0
 27 56  1  0
M  END
>  <smiles>  (15) 
O=C(NCC(=O)N1CCC[C@H]1CN1CCCCC1)c1ccc2cc(F)ccc2n1

>  <score_type>  (15) 
oracle

>  <origin>  (15) 
autodockgpu

>  <m_score__min__energy>  (15) 
-8.6999999999999993

>  <m_primary>  (15) 
energy

>  <rmsd>  (15) 
2.086928613805924

>  <m_score__min__rmsd>  (15) 
2.086928613805924

>  <meeko>  (15) 
{"free_energy": -8.12, "intermolecular_energy": -9.91, "internal_energy": -1.95, "cluster_size": 32, "cluster_id": 1, "rank_in_cluster": 20}

>  <energy>  (15) 
-8.21

>  <cluster_rmsd>  (15) 
1.62

>  <cluster>  (15) 
1

$$$$

     RDKit          3D

 56 59  0  0  0  0  0  0  0  0999 V2000
  141.3720   72.2780  221.6090 O   0  0  0  0  0  0  0  0  0  0  0  0
  140.4660   72.5350  222.4420 C   0  0  0  0  0  0  0  0  0  0  0  0
  139.6170   73.6720  222.3570 N   0  0  0  0  0  0  0  0  0  0  0  0
  139.8020   74.6020  221.2420 C   0  0  0  0  0  0  0  0  0  0  0  0
  139.9540   75.9530  221.8430 C   0  0  0  0  0  0  0  0  0  0  0  0
  141.0880   76.4470  222.1340 O   0  0  0  0  0  0  0  0  0  0  0  0
  138.8300   76.7760  222.1280 N   0  0  0  0  0  0  0  0  0  0  0  0
  137.7370   76.3790  222.9980 C   0  0  0  0  0  0  0  0  0  0  0  0
  136.6190   77.3410  222.7430 C   0  0  0  0  0  0  0  0  0  0  0  0
  137.0450   78.0170  221.4390 C   0  0  0  0  0  0  0  0  0  0  0  0
  138.5420   78.1250  221.6340 C   0  0  1  0  0  0  0  0  0  0  0  0
  138.8780   79.1600  222.6780 C   0  0  0  0  0  0  0  0  0  0  0  0
  140.2760   79.5000  222.5560 N   0  0  0  0  0  0  0  0  0  0  0  0
  140.4910   80.7980  222.0160 C   0  0  0  0  0  0  0  0  0  0  0  0
  141.8200   81.4180  222.2080 C   0  0  0  0  0  0  0  0  0  0  0  0
  142.2380   81.2520  223.6700 C   0  0  0  0  0  0  0  0  0  0  0  0
  142.3870   79.7560  223.8400 C   0  0  0  0  0  0  0  0  0  0  0  0
  141.0760   79.0900  223.6400 C   0  0  0  0  0  0  0  0  0  0  0  0
  140.2570   71.6150  223.5760 C   0  0  0  0  0  0  0  0  0  0  0  0
  139.5840   70.4210  223.4090 C   0  0  0  0  0  0  0  0  0  0  0  0
  139.3640   69.5280  224.4400 C   0  0  0  0  0  0  0  0  0  0  0  0
  139.8510   69.8640  225.6910 C   0  0  0  0  0  0  0  0  0  0  0  0
  139.6840   69.0510  226.7660 C   0  0  0  0  0  0  0  0  0  0  0  0
  140.1880   69.4210  228.0170 C   0  0  0  0  0  0  0  0  0  0  0  0
  140.0280   68.6160  229.0990 F   0  0  0  0  0  0  0  0  0  0  0  0
  140.8610   70.6200  228.1690 C   0  0  0  0  0  0  0  0  0  0  0  0
  141.0300   71.4470  227.0760 C   0  0  0  0  0  0  0  0  0  0  0  0
  140.5240   71.0610  225.8490 C   0  0  0  0  0  0  0  0  0  0  0  0
  140.7130   71.8990  224.8130 N   0  0  0  0  0  0  0  0  0  0  0  0
  138.8870   73.8160  223.0910 H   0  0  0  0  0  0  0  0  0  0  0  0
  140.7036   74.3362  220.6705 H   0  0  0  0  0  0  0  0  0  0  0  0
  138.9488   74.5678  220.5485 H   0  0  0  0  0  0  0  0  0  0  0  0
  137.4169   75.3534  222.7620 H   0  0  0  0  0  0  0  0  0  0  0  0
  138.0433   76.3965  224.0544 H   0  0  0  0  0  0  0  0  0  0  0  0
  135.6618   76.8129  222.6213 H   0  0  0  0  0  0  0  0  0  0  0  0
  136.4573   78.0498  223.5685 H   0  0  0  0  0  0  0  0  0  0  0  0
  136.7968   77.3973  220.5647 H   0  0  0  0  0  0  0  0  0  0  0  0
  136.5460   78.9783  221.2468 H   0  0  0  0  0  0  0  0  0  0  0  0
  139.1073   78.4283  220.7404 H   0  0  0  0  0  0  0  0  0  0  0  0
  138.2630   80.0583  222.5207 H   0  0  0  0  0  0  0  0  0  0  0  0
  138.6746   78.7605  223.6825 H   0  0  0  0  0  0  0  0  0  0  0  0
  140.3127   80.7352  220.9324 H   0  0  0  0  0  0  0  0  0  0  0  0
  139.8015   81.4466  222.5763 H   0  0  0  0  0  0  0  0  0  0  0  0
  142.5553   80.9245  221.5555 H   0  0  0  0  0  0  0  0  0  0  0  0
  141.7727   82.4870  221.9531 H   0  0  0  0  0  0  0  0  0  0  0  0
  143.1916   81.7646  223.8647 H   0  0  0  0  0  0  0  0  0  0  0  0
  141.5104   81.6875  224.3706 H   0  0  0  0  0  0  0  0  0  0  0  0
  143.1060   79.3750  223.0998 H   0  0  0  0  0  0  0  0  0  0  0  0
  142.7496   79.5422  224.8563 H   0  0  0  0  0  0  0  0  0  0  0  0
  141.2732   78.0156  223.5108 H   0  0  0  0  0  0  0  0  0  0  0  0
  140.4917   79.3698  224.5290 H   0  0  0  0  0  0  0  0  0  0  0  0
  139.2050   70.1688  222.4076 H   0  0  0  0  0  0  0  0  0  0  0  0
  138.8221   68.5854  224.2728 H   0  0  0  0  0  0  0  0  0  0  0  0
  139.1495   68.0964  226.6521 H   0  0  0  0  0  0  0  0  0  0  0  0
  141.2582   70.9123  229.1523 H   0  0  0  0  0  0  0  0  0  0  0  0
  141.5623   72.4039  227.1809 H   0  0  0  0  0  0  0  0  0  0  0  0
  1  2  2  0
  2  3  1  0
  3  4  1  0
  4  5  1  0
  5  6  2  0
  5  7  1  0
  7  8  1  0
  8  9  1  0
  9 10  1  0
 10 11  1  0
 11 12  1  0
 12 13  1  0
 13 14  1  0
 14 15  1  0
 15 16  1  0
 16 17  1  0
 17 18  1  0
  2 19  1  0
 19 20  2  0
 20 21  1  0
 21 22  2  0
 22 23  1  0
 23 24  2  0
 24 25  1  0
 24 26  1  0
 26 27  2  0
 27 28  1  0
 28 29  2  0
 11  7  1  0
 18 13  1  0
 29 19  1  0
 28 22  1  0
  3 30  1  0
  4 31  1  0
  4 32  1  0
  8 33  1  0
  8 34  1  0
  9 35  1  0
  9 36  1  0
 10 37  1  0
 10 38  1  0
 11 39  1  6
 12 40  1  0
 12 41  1  0
 14 42  1  0
 14 43  1  0
 15 44  1  0
 15 45  1  0
 16 46  1  0
 16 47  1  0
 17 48  1  0
 17 49  1  0
 18 50  1  0
 18 51  1  0
 20 52  1  0
 21 53  1  0
 23 54  1  0
 26 55  1  0
 27 56  1  0
M  END
>  <smiles>  (16) 
O=C(NCC(=O)N1CCC[C@H]1CN1CCCCC1)c1ccc2cc(F)ccc2n1

>  <score_type>  (16) 
oracle

>  <origin>  (16) 
autodockgpu

>  <m_score__min__energy>  (16) 
-8.6999999999999993

>  <m_primary>  (16) 
energy

>  <rmsd>  (16) 
3.221756518605101

>  <m_score__min__rmsd>  (16) 
3.221756518605101

>  <meeko>  (16) 
{"free_energy": -8.39, "intermolecular_energy": -10.18, "internal_energy": -1.41, "cluster_size": 32, "cluster_id": 1, "rank_in_cluster": 4}

>  <energy>  (16) 
-8.2

>  <cluster_rmsd>  (16) 
1.64

>  <cluster>  (16) 
1

$$$$

     RDKit          3D

 56 59  0  0  0  0  0  0  0  0999 V2000
  139.5430   71.0990  220.9710 O   0  0  0  0  0  0  0  0  0  0  0  0
  139.5680   71.6930  222.0790 C   0  0  0  0  0  0  0  0  0  0  0  0
  139.5450   73.1080  222.2160 N   0  0  0  0  0  0  0  0  0  0  0  0
  139.4930   73.9280  221.0040 C   0  0  0  0  0  0  0  0  0  0  0  0
  140.1350   75.2230  221.3470 C   0  0  0  0  0  0  0  0  0  0  0  0
  140.0970   75.7160  222.5180 O   0  0  0  0  0  0  0  0  0  0  0  0
  140.8370   75.9900  220.3760 N   0  0  0  0  0  0  0  0  0  0  0  0
  140.8220   75.7020  218.9530 C   0  0  0  0  0  0  0  0  0  0  0  0
  141.9440   76.4870  218.3480 C   0  0  0  0  0  0  0  0  0  0  0  0
  142.7680   76.8960  219.5700 C   0  0  0  0  0  0  0  0  0  0  0  0
  141.6800   77.1710  220.5860 C   0  0  1  0  0  0  0  0  0  0  0  0
  140.9280   78.4330  220.2460 C   0  0  0  0  0  0  0  0  0  0  0  0
  140.9370   79.2990  221.4010 N   0  0  0  0  0  0  0  0  0  0  0  0
  140.1100   78.8300  222.4590 C   0  0  0  0  0  0  0  0  0  0  0  0
  140.3330   79.3840  223.8110 C   0  0  0  0  0  0  0  0  0  0  0  0
  141.8330   79.3710  224.1130 C   0  0  0  0  0  0  0  0  0  0  0  0
  142.4160   80.3370  223.1060 C   0  0  0  0  0  0  0  0  0  0  0  0
  142.2010   79.8260  221.7290 C   0  0  0  0  0  0  0  0  0  0  0  0
  139.6210   70.8910  223.3160 C   0  0  0  0  0  0  0  0  0  0  0  0
  139.1540   69.5920  223.3430 C   0  0  0  0  0  0  0  0  0  0  0  0
  139.1820   68.8030  224.4770 C   0  0  0  0  0  0  0  0  0  0  0  0
  139.7090   69.3600  225.6290 C   0  0  0  0  0  0  0  0  0  0  0  0
  139.7800   68.6620  226.7930 C   0  0  0  0  0  0  0  0  0  0  0  0
  140.3170   69.2560  227.9400 C   0  0  0  0  0  0  0  0  0  0  0  0
  140.3940   68.5690  229.1090 F   0  0  0  0  0  0  0  0  0  0  0  0
  140.7810   70.5580  227.8990 C   0  0  0  0  0  0  0  0  0  0  0  0
  140.7080   71.2670  226.7150 C   0  0  0  0  0  0  0  0  0  0  0  0
  140.1740   70.6610  225.5940 C   0  0  0  0  0  0  0  0  0  0  0  0
  140.1240   71.3900  224.4640 N   0  0  0  0  0  0  0  0  0  0  0  0
  139.5680   73.5250  223.1740 H   0  0  0  0  0  0  0  0  0  0  0  0
  140.0416   73.4357  220.1875 H   0  0  0  0  0  0  0  0  0  0  0  0
  138.4568   74.0737  220.6648 H   0  0  0  0  0  0  0  0  0  0  0  0
  140.9752   74.6263  218.7815 H   0  0  0  0  0  0  0  0  0  0  0  0
  139.8568   75.9759  218.5021 H   0  0  0  0  0  0  0  0  0  0  0  0
  142.5366   75.8658  217.6603 H   0  0  0  0  0  0  0  0  0  0  0  0
  141.6026   77.3424  217.7465 H   0  0  0  0  0  0  0  0  0  0  0  0
  143.4298   76.0816  219.8998 H   0  0  0  0  0  0  0  0  0  0  0  0
  143.4430   77.7463  219.3929 H   0  0  0  0  0  0  0  0  0  0  0  0
  142.0321   77.3200  221.6174 H   0  0  0  0  0  0  0  0  0  0  0  0
  141.4159   78.9387  219.3997 H   0  0  0  0  0  0  0  0  0  0  0  0
  139.8923   78.1899  219.9663 H   0  0  0  0  0  0  0  0  0  0  0  0
  139.0684   79.0508  222.1826 H   0  0  0  0  0  0  0  0  0  0  0  0
  140.3628   77.7636  222.5536 H   0  0  0  0  0  0  0  0  0  0  0  0
  139.9572   80.4170  223.8530 H   0  0  0  0  0  0  0  0  0  0  0  0
  139.7986   78.7752  224.5551 H   0  0  0  0  0  0  0  0  0  0  0  0
  142.0282   79.7118  225.1405 H   0  0  0  0  0  0  0  0  0  0  0  0
  142.2717   78.3650  224.0385 H   0  0  0  0  0  0  0  0  0  0  0  0
  141.9242   81.3152  223.2125 H   0  0  0  0  0  0  0  0  0  0  0  0
  143.4958   80.4406  223.2882 H   0  0  0  0  0  0  0  0  0  0  0  0
  142.3951   80.6599  221.0384 H   0  0  0  0  0  0  0  0  0  0  0  0
  142.8820   78.9657  221.6499 H   0  0  0  0  0  0  0  0  0  0  0  0
  138.7400   69.1649  222.4177 H   0  0  0  0  0  0  0  0  0  0  0  0
  138.8000   67.7715  224.4645 H   0  0  0  0  0  0  0  0  0  0  0  0
  139.4136   67.6256  226.8333 H   0  0  0  0  0  0  0  0  0  0  0  0
  141.2043   71.0251  228.8005 H   0  0  0  0  0  0  0  0  0  0  0  0
  141.0716   72.3040  226.6655 H   0  0  0  0  0  0  0  0  0  0  0  0
  1  2  2  0
  2  3  1  0
  3  4  1  0
  4  5  1  0
  5  6  2  0
  5  7  1  0
  7  8  1  0
  8  9  1  0
  9 10  1  0
 10 11  1  0
 11 12  1  0
 12 13  1  0
 13 14  1  0
 14 15  1  0
 15 16  1  0
 16 17  1  0
 17 18  1  0
  2 19  1  0
 19 20  2  0
 20 21  1  0
 21 22  2  0
 22 23  1  0
 23 24  2  0
 24 25  1  0
 24 26  1  0
 26 27  2  0
 27 28  1  0
 28 29  2  0
 11  7  1  0
 18 13  1  0
 29 19  1  0
 28 22  1  0
  3 30  1  0
  4 31  1  0
  4 32  1  0
  8 33  1  0
  8 34  1  0
  9 35  1  0
  9 36  1  0
 10 37  1  0
 10 38  1  0
 11 39  1  1
 12 40  1  0
 12 41  1  0
 14 42  1  0
 14 43  1  0
 15 44  1  0
 15 45  1  0
 16 46  1  0
 16 47  1  0
 17 48  1  0
 17 49  1  0
 18 50  1  0
 18 51  1  0
 20 52  1  0
 21 53  1  0
 23 54  1  0
 26 55  1  0
 27 56  1  0
M  END
>  <smiles>  (17) 
O=C(NCC(=O)N1CCC[C@H]1CN1CCCCC1)c1ccc2cc(F)ccc2n1

>  <score_type>  (17) 
oracle

>  <origin>  (17) 
autodockgpu

>  <m_score__min__energy>  (17) 
-8.6999999999999993

>  <m_primary>  (17) 
energy

>  <rmsd>  (17) 
1.9996431578210128

>  <m_score__min__rmsd>  (17) 
1.9996431578210128

>  <meeko>  (17) 
{"free_energy": -8.05, "intermolecular_energy": -9.84, "internal_energy": -2.09, "cluster_size": 32, "cluster_id": 1, "rank_in_cluster": 25}

>  <energy>  (17) 
-8.19

>  <cluster_rmsd>  (17) 
1.65

>  <cluster>  (17) 
1

$$$$

     RDKit          3D

 56 59  0  0  0  0  0  0  0  0999 V2000
  140.7310   70.9130  220.9940 O   0  0  0  0  0  0  0  0  0  0  0  0
  140.5200   71.6310  222.0040 C   0  0  0  0  0  0  0  0  0  0  0  0
  140.5580   73.0520  221.9830 N   0  0  0  0  0  0  0  0  0  0  0  0
  140.8620   73.7260  220.7190 C   0  0  0  0  0  0  0  0  0  0  0  0
  140.8010   75.1840  220.9960 C   0  0  0  0  0  0  0  0  0  0  0  0
  140.3850   75.6520  222.1020 O   0  0  0  0  0  0  0  0  0  0  0  0
  141.2090   76.1470  220.0320 N   0  0  0  0  0  0  0  0  0  0  0  0
  140.6390   76.2480  218.7000 C   0  0  0  0  0  0  0  0  0  0  0  0
  141.5680   77.1110  217.9040 C   0  0  0  0  0  0  0  0  0  0  0  0
  142.8280   77.1400  218.7700 C   0  0  0  0  0  0  0  0  0  0  0  0
  142.2340   77.1870  220.1610 C   0  0  1  0  0  0  0  0  0  0  0  0
  141.6030   78.5290  220.4350 C   0  0  0  0  0  0  0  0  0  0  0  0
  141.6830   78.7950  221.8520 N   0  0  0  0  0  0  0  0  0  0  0  0
  142.5730   79.8560  222.1730 C   0  0  0  0  0  0  0  0  0  0  0  0
  142.4490   80.4870  223.5040 C   0  0  0  0  0  0  0  0  0  0  0  0
  140.9730   80.7790  223.7800 C   0  0  0  0  0  0  0  0  0  0  0  0
  140.3360   79.4090  223.8470 C   0  0  0  0  0  0  0  0  0  0  0  0
  140.4510   78.7320  222.5310 C   0  0  0  0  0  0  0  0  0  0  0  0
  140.2110   70.9790  223.2900 C   0  0  0  0  0  0  0  0  0  0  0  0
  139.5190   69.7850  223.3350 C   0  0  0  0  0  0  0  0  0  0  0  0
  139.2060   69.1380  224.5150 C   0  0  0  0  0  0  0  0  0  0  0  0
  139.6170   69.7290  225.6960 C   0  0  0  0  0  0  0  0  0  0  0  0
  139.3570   69.1680  226.9050 C   0  0  0  0  0  0  0  0  0  0  0  0
  139.7860   69.7930  228.0810 C   0  0  0  0  0  0  0  0  0  0  0  0
  139.5320   69.2420  229.2960 F   0  0  0  0  0  0  0  0  0  0  0  0
  140.4780   70.9880  228.0210 C   0  0  0  0  0  0  0  0  0  0  0  0
  140.7420   71.5590  226.7920 C   0  0  0  0  0  0  0  0  0  0  0  0
  140.3090   70.9240  225.6420 C   0  0  0  0  0  0  0  0  0  0  0  0
  140.5900   71.5170  224.4670 N   0  0  0  0  0  0  0  0  0  0  0  0
  140.3710   73.5780  222.8660 H   0  0  0  0  0  0  0  0  0  0  0  0
  141.8674   73.4466  220.3711 H   0  0  0  0  0  0  0  0  0  0  0  0
  140.1484   73.4393  219.9325 H   0  0  0  0  0  0  0  0  0  0  0  0
  140.5619   75.2504  218.2431 H   0  0  0  0  0  0  0  0  0  0  0  0
  139.6268   76.6774  218.7321 H   0  0  0  0  0  0  0  0  0  0  0  0
  141.7744   76.6676  216.9187 H   0  0  0  0  0  0  0  0  0  0  0  0
  141.1609   78.1110  217.6934 H   0  0  0  0  0  0  0  0  0  0  0  0
  143.4378   76.2363  218.6233 H   0  0  0  0  0  0  0  0  0  0  0  0
  143.5096   77.9732  218.5440 H   0  0  0  0  0  0  0  0  0  0  0  0
  142.9533   77.0388  220.9799 H   0  0  0  0  0  0  0  0  0  0  0  0
  142.1410   79.3117  219.8801 H   0  0  0  0  0  0  0  0  0  0  0  0
  140.5513   78.5226  220.1126 H   0  0  0  0  0  0  0  0  0  0  0  0
  143.5962   79.4603  222.0926 H   0  0  0  0  0  0  0  0  0  0  0  0
  142.3135   80.6562  221.4643 H   0  0  0  0  0  0  0  0  0  0  0  0
  142.8404   79.8053  224.2734 H   0  0  0  0  0  0  0  0  0  0  0  0
  143.0243   81.4243  223.5264 H   0  0  0  0  0  0  0  0  0  0  0  0
  140.8518   81.3138  224.7336 H   0  0  0  0  0  0  0  0  0  0  0  0
  140.5173   81.4210  223.0117 H   0  0  0  0  0  0  0  0  0  0  0  0
  140.8468   78.8066  224.6127 H   0  0  0  0  0  0  0  0  0  0  0  0
  139.2725   79.5170  224.1063 H   0  0  0  0  0  0  0  0  0  0  0  0
  140.2217   77.6682  222.6912 H   0  0  0  0  0  0  0  0  0  0  0  0
  139.7551   79.2829  221.8812 H   0  0  0  0  0  0  0  0  0  0  0  0
  139.2019   69.3272  222.3864 H   0  0  0  0  0  0  0  0  0  0  0  0
  138.6507   68.1884  224.5152 H   0  0  0  0  0  0  0  0  0  0  0  0
  138.8063   68.2174  226.9601 H   0  0  0  0  0  0  0  0  0  0  0  0
  140.8157   71.4801  228.9450 H   0  0  0  0  0  0  0  0  0  0  0  0
  141.2914   72.5098  226.7280 H   0  0  0  0  0  0  0  0  0  0  0  0
  1  2  2  0
  2  3  1  0
  3  4  1  0
  4  5  1  0
  5  6  2  0
  5  7  1  0
  7  8  1  0
  8  9  1  0
  9 10  1  0
 10 11  1  0
 11 12  1  0
 12 13  1  0
 13 14  1  0
 14 15  1  0
 15 16  1  0
 16 17  1  0
 17 18  1  0
  2 19  1  0
 19 20  2  0
 20 21  1  0
 21 22  2  0
 22 23  1  0
 23 24  2  0
 24 25  1  0
 24 26  1  0
 26 27  2  0
 27 28  1  0
 28 29  2  0
 11  7  1  0
 18 13  1  0
 29 19  1  0
 28 22  1  0
  3 30  1  0
  4 31  1  0
  4 32  1  0
  8 33  1  0
  8 34  1  0
  9 35  1  0
  9 36  1  0
 10 37  1  0
 10 38  1  0
 11 39  1  1
 12 40  1  0
 12 41  1  0
 14 42  1  0
 14 43  1  0
 15 44  1  0
 15 45  1  0
 16 46  1  0
 16 47  1  0
 17 48  1  0
 17 49  1  0
 18 50  1  0
 18 51  1  0
 20 52  1  0
 21 53  1  0
 23 54  1  0
 26 55  1  0
 27 56  1  0
M  END
>  <smiles>  (18) 
O=C(NCC(=O)N1CCC[C@H]1CN1CCCCC1)c1ccc2cc(F)ccc2n1

>  <score_type>  (18) 
oracle

>  <origin>  (18) 
autodockgpu

>  <m_score__min__energy>  (18) 
-8.6999999999999993

>  <m_primary>  (18) 
energy

>  <rmsd>  (18) 
2.341390669118707

>  <m_score__min__rmsd>  (18) 
2.341390669118707

>  <meeko>  (18) 
{"free_energy": -7.59, "intermolecular_energy": -9.38, "internal_energy": -2.07, "cluster_size": 8, "cluster_id": 3, "rank_in_cluster": 6}

>  <energy>  (18) 
-8.16

>  <cluster_rmsd>  (18) 
1.25

>  <cluster>  (18) 
1

$$$$

     RDKit          3D

 56 59  0  0  0  0  0  0  0  0999 V2000
  139.4210   71.1760  221.0730 O   0  0  0  0  0  0  0  0  0  0  0  0
  139.4960   71.7500  222.1890 C   0  0  0  0  0  0  0  0  0  0  0  0
  139.4980   73.1630  222.3500 N   0  0  0  0  0  0  0  0  0  0  0  0
  139.4120   74.0040  221.1540 C   0  0  0  0  0  0  0  0  0  0  0  0
  139.9830   75.3240  221.5280 C   0  0  0  0  0  0  0  0  0  0  0  0
  139.9210   75.7840  222.7110 O   0  0  0  0  0  0  0  0  0  0  0  0
  140.6370   76.1530  220.5750 N   0  0  0  0  0  0  0  0  0  0  0  0
  140.5120   75.9870  219.1380 C   0  0  0  0  0  0  0  0  0  0  0  0
  141.6120   76.7930  218.5200 C   0  0  0  0  0  0  0  0  0  0  0  0
  142.5330   77.0750  219.7070 C   0  0  0  0  0  0  0  0  0  0  0  0
  141.5300   77.2890  220.8200 C   0  0  1  0  0  0  0  0  0  0  0  0
  140.7950   78.5950  220.6430 C   0  0  0  0  0  0  0  0  0  0  0  0
  140.8330   79.3170  221.8920 N   0  0  0  0  0  0  0  0  0  0  0  0
  141.2840   78.5250  222.9830 C   0  0  0  0  0  0  0  0  0  0  0  0
  141.7470   79.2230  224.2020 C   0  0  0  0  0  0  0  0  0  0  0  0
  142.6890   80.3580  223.7970 C   0  0  0  0  0  0  0  0  0  0  0  0
  141.8050   81.3070  223.0180 C   0  0  0  0  0  0  0  0  0  0  0  0
  141.3050   80.6400  221.7900 C   0  0  0  0  0  0  0  0  0  0  0  0
  139.5840   70.9280  223.4100 C   0  0  0  0  0  0  0  0  0  0  0  0
  139.1430   69.6190  223.4200 C   0  0  0  0  0  0  0  0  0  0  0  0
  139.2050   68.8110  224.5390 C   0  0  0  0  0  0  0  0  0  0  0  0
  139.7380   69.3570  225.6930 C   0  0  0  0  0  0  0  0  0  0  0  0
  139.8410   68.6400  226.8420 C   0  0  0  0  0  0  0  0  0  0  0  0
  140.3850   69.2230  227.9920 C   0  0  0  0  0  0  0  0  0  0  0  0
  140.4930   68.5170  229.1470 F   0  0  0  0  0  0  0  0  0  0  0  0
  140.8220   70.5350  227.9670 C   0  0  0  0  0  0  0  0  0  0  0  0
  140.7170   71.2630  226.7990 C   0  0  0  0  0  0  0  0  0  0  0  0
  140.1770   70.6670  225.6740 C   0  0  0  0  0  0  0  0  0  0  0  0
  140.0950   71.4150  224.5590 N   0  0  0  0  0  0  0  0  0  0  0  0
  139.5630   73.5640  223.3130 H   0  0  0  0  0  0  0  0  0  0  0  0
  139.9916   73.5577  220.3325 H   0  0  0  0  0  0  0  0  0  0  0  0
  138.3720   74.1023  220.8093 H   0  0  0  0  0  0  0  0  0  0  0  0
  140.6197   74.9263  218.8671 H   0  0  0  0  0  0  0  0  0  0  0  0
  139.5260   76.3214  218.7831 H   0  0  0  0  0  0  0  0  0  0  0  0
  142.1344   76.2186  217.7408 H   0  0  0  0  0  0  0  0  0  0  0  0
  141.2552   77.7051  218.0193 H   0  0  0  0  0  0  0  0  0  0  0  0
  143.1911   76.2191  219.9177 H   0  0  0  0  0  0  0  0  0  0  0  0
  143.2196   77.9203  219.5521 H   0  0  0  0  0  0  0  0  0  0  0  0
  141.9600   77.3396  221.8312 H   0  0  0  0  0  0  0  0  0  0  0  0
  141.2810   79.1902  219.8559 H   0  0  0  0  0  0  0  0  0  0  0  0
  139.7519   78.4029  220.3513 H   0  0  0  0  0  0  0  0  0  0  0  0
  140.4514   77.8693  223.2776 H   0  0  0  0  0  0  0  0  0  0  0  0
  142.1805   78.0150  222.6007 H   0  0  0  0  0  0  0  0  0  0  0  0
  140.8821   79.6361  224.7417 H   0  0  0  0  0  0  0  0  0  0  0  0
  142.2765   78.5158  224.8573 H   0  0  0  0  0  0  0  0  0  0  0  0
  143.1081   80.8539  224.6849 H   0  0  0  0  0  0  0  0  0  0  0  0
  143.5504   80.0046  223.2112 H   0  0  0  0  0  0  0  0  0  0  0  0
  140.9512   81.6064  223.6436 H   0  0  0  0  0  0  0  0  0  0  0  0
  142.3888   82.1953  222.7350 H   0  0  0  0  0  0  0  0  0  0  0  0
  140.4774   81.2517  221.4015 H   0  0  0  0  0  0  0  0  0  0  0  0
  142.1920   80.5619  221.1441 H   0  0  0  0  0  0  0  0  0  0  0  0
  138.7228   69.2003  222.4937 H   0  0  0  0  0  0  0  0  0  0  0  0
  138.8440   67.7722  224.5133 H   0  0  0  0  0  0  0  0  0  0  0  0
  139.4952   67.5961  226.8687 H   0  0  0  0  0  0  0  0  0  0  0  0
  141.2497   70.9944  228.8703 H   0  0  0  0  0  0  0  0  0  0  0  0
  141.0597   72.3076  226.7634 H   0  0  0  0  0  0  0  0  0  0  0  0
  1  2  2  0
  2  3  1  0
  3  4  1  0
  4  5  1  0
  5  6  2  0
  5  7  1  0
  7  8  1  0
  8  9  1  0
  9 10  1  0
 10 11  1  0
 11 12  1  0
 12 13  1  0
 13 14  1  0
 14 15  1  0
 15 16  1  0
 16 17  1  0
 17 18  1  0
  2 19  1  0
 19 20  2  0
 20 21  1  0
 21 22  2  0
 22 23  1  0
 23 24  2  0
 24 25  1  0
 24 26  1  0
 26 27  2  0
 27 28  1  0
 28 29  2  0
 11  7  1  0
 18 13  1  0
 29 19  1  0
 28 22  1  0
  3 30  1  0
  4 31  1  0
  4 32  1  0
  8 33  1  0
  8 34  1  0
  9 35  1  0
  9 36  1  0
 10 37  1  0
 10 38  1  0
 11 39  1  1
 12 40  1  0
 12 41  1  0
 14 42  1  0
 14 43  1  0
 15 44  1  0
 15 45  1  0
 16 46  1  0
 16 47  1  0
 17 48  1  0
 17 49  1  0
 18 50  1  0
 18 51  1  0
 20 52  1  0
 21 53  1  0
 23 54  1  0
 26 55  1  0
 27 56  1  0
M  END
>  <smiles>  (19) 
O=C(NCC(=O)N1CCC[C@H]1CN1CCCCC1)c1ccc2cc(F)ccc2n1

>  <score_type>  (19) 
oracle

>  <origin>  (19) 
autodockgpu

>  <m_score__min__energy>  (19) 
-8.6999999999999993

>  <m_primary>  (19) 
energy

>  <rmsd>  (19) 
1.8801741310828557

>  <m_score__min__rmsd>  (19) 
1.8801741310828557

>  <meeko>  (19) 
{"free_energy": -8.32, "intermolecular_energy": -10.11, "internal_energy": -2.05, "cluster_size": 32, "cluster_id": 1, "rank_in_cluster": 9}

>  <energy>  (19) 
-8.16

>  <cluster_rmsd>  (19) 
1.78

>  <cluster>  (19) 
1

$$$$

     RDKit          3D

 56 59  0  0  0  0  0  0  0  0999 V2000
  140.5150   75.1510  220.7070 O   0  0  0  0  0  0  0  0  0  0  0  0
  139.8210   75.5440  221.6780 C   0  0  0  0  0  0  0  0  0  0  0  0
  138.8040   74.7610  222.2890 N   0  0  0  0  0  0  0  0  0  0  0  0
  138.5430   73.4190  221.7630 C   0  0  0  0  0  0  0  0  0  0  0  0
  139.4460   72.4970  222.5000 C   0  0  0  0  0  0  0  0  0  0  0  0
  140.6700   72.7650  222.7110 O   0  0  0  0  0  0  0  0  0  0  0  0
  138.9860   71.2540  223.0160 N   0  0  0  0  0  0  0  0  0  0  0  0
  138.4000   70.2070  222.1990 C   0  0  0  0  0  0  0  0  0  0  0  0
  137.7320   69.2550  223.1420 C   0  0  0  0  0  0  0  0  0  0  0  0
  137.6770   70.0520  224.4450 C   0  0  0  0  0  0  0  0  0  0  0  0
  139.0020   70.7840  224.4040 C   0  0  1  0  0  0  0  0  0  0  0  0
  140.1510   69.8350  224.6350 C   0  0  0  0  0  0  0  0  0  0  0  0
  140.8470   70.2370  225.8340 N   0  0  0  0  0  0  0  0  0  0  0  0
  141.0650   71.6410  225.9100 C   0  0  0  0  0  0  0  0  0  0  0  0
  141.3920   72.2210  227.2310 C   0  0  0  0  0  0  0  0  0  0  0  0
  140.4210   71.6620  228.2730 C   0  0  0  0  0  0  0  0  0  0  0  0
  140.7410   70.1850  228.3150 C   0  0  0  0  0  0  0  0  0  0  0  0
  140.4410   69.5630  227.0010 C   0  0  0  0  0  0  0  0  0  0  0  0
  140.0630   76.8920  222.2280 C   0  0  0  0  0  0  0  0  0  0  0  0
  139.0250   77.6530  222.7270 C   0  0  0  0  0  0  0  0  0  0  0  0
  139.2020   78.9190  223.2510 C   0  0  0  0  0  0  0  0  0  0  0  0
  140.4880   79.4290  223.2690 C   0  0  0  0  0  0  0  0  0  0  0  0
  140.7610   80.6640  223.7650 C   0  0  0  0  0  0  0  0  0  0  0  0
  142.0730   81.1490  223.7670 C   0  0  0  0  0  0  0  0  0  0  0  0
  142.3590   82.3820  224.2600 F   0  0  0  0  0  0  0  0  0  0  0  0
  143.1030   80.3760  223.2640 C   0  0  0  0  0  0  0  0  0  0  0  0
  142.8240   79.1200  222.7590 C   0  0  0  0  0  0  0  0  0  0  0  0
  141.5210   78.6600  222.7670 C   0  0  0  0  0  0  0  0  0  0  0  0
  141.2980   77.4310  222.2660 N   0  0  0  0  0  0  0  0  0  0  0  0
  138.2700   75.1600  223.0940 H   0  0  0  0  0  0  0  0  0  0  0  0
  137.4927   73.1407  221.9345 H   0  0  0  0  0  0  0  0  0  0  0  0
  138.7243   73.3731  220.6790 H   0  0  0  0  0  0  0  0  0  0  0  0
  137.6617   70.6351  221.5049 H   0  0  0  0  0  0  0  0  0  0  0  0
  139.1661   69.6975  221.5960 H   0  0  0  0  0  0  0  0  0  0  0  0
  136.7215   68.9954  222.7933 H   0  0  0  0  0  0  0  0  0  0  0  0
  138.2614   68.2958  223.2402 H   0  0  0  0  0  0  0  0  0  0  0  0
  136.8298   70.7536  224.4520 H   0  0  0  0  0  0  0  0  0  0  0  0
  137.5321   69.4347  225.3438 H   0  0  0  0  0  0  0  0  0  0  0  0
  139.1249   71.5693  225.1644 H   0  0  0  0  0  0  0  0  0  0  0  0
  139.7674   68.8110  224.7549 H   0  0  0  0  0  0  0  0  0  0  0  0
  140.8375   69.8602  223.7759 H   0  0  0  0  0  0  0  0  0  0  0  0
  141.8977   71.8802  225.2322 H   0  0  0  0  0  0  0  0  0  0  0  0
  140.0937   72.0852  225.6469 H   0  0  0  0  0  0  0  0  0  0  0  0
  142.4229   71.9538  227.5064 H   0  0  0  0  0  0  0  0  0  0  0  0
  141.3027   73.3166  227.1889 H   0  0  0  0  0  0  0  0  0  0  0  0
  140.5910   72.1271  229.2552 H   0  0  0  0  0  0  0  0  0  0  0  0
  139.3688   71.8605  228.0210 H   0  0  0  0  0  0  0  0  0  0  0  0
  141.8077   70.0498  228.5470 H   0  0  0  0  0  0  0  0  0  0  0  0
  140.1267   69.7044  229.0907 H   0  0  0  0  0  0  0  0  0  0  0  0
  140.9242   68.5749  226.9909 H   0  0  0  0  0  0  0  0  0  0  0  0
  139.3424   69.5635  226.9457 H   0  0  0  0  0  0  0  0  0  0  0  0
  138.0091   77.2316  222.7065 H   0  0  0  0  0  0  0  0  0  0  0  0
  138.3523   79.4998  223.6394 H   0  0  0  0  0  0  0  0  0  0  0  0
  139.9469   81.2851  224.1667 H   0  0  0  0  0  0  0  0  0  0  0  0
  144.1349   80.7570  223.2657 H   0  0  0  0  0  0  0  0  0  0  0  0
  143.6318   78.4924  222.3545 H   0  0  0  0  0  0  0  0  0  0  0  0
  1  2  2  0
  2  3  1  0
  3  4  1  0
  4  5  1  0
  5  6  2  0
  5  7  1  0
  7  8  1  0
  8  9  1  0
  9 10  1  0
 10 11  1  0
 11 12  1  0
 12 13  1  0
 13 14  1  0
 14 15  1  0
 15 16  1  0
 16 17  1  0
 17 18  1  0
  2 19  1  0
 19 20  2  0
 20 21  1  0
 21 22  2  0
 22 23  1  0
 23 24  2  0
 24 25  1  0
 24 26  1  0
 26 27  2  0
 27 28  1  0
 28 29  2  0
 11  7  1  0
 18 13  1  0
 29 19  1  0
 28 22  1  0
  3 30  1  0
  4 31  1  0
  4 32  1  0
  8 33  1  0
  8 34  1  0
  9 35  1  0
  9 36  1  0
 10 37  1  0
 10 38  1  0
 11 39  1  1
 12 40  1  0
 12 41  1  0
 14 42  1  0
 14 43  1  0
 15 44  1  0
 15 45  1  0
 16 46  1  0
 16 47  1  0
 17 48  1  0
 17 49  1  0
 18 50  1  0
 18 51  1  0
 20 52  1  0
 21 53  1  0
 23 54  1  0
 26 55  1  0
 27 56  1  0
M  END
>  <smiles>  (20) 
O=C(NCC(=O)N1CCC[C@H]1CN1CCCCC1)c1ccc2cc(F)ccc2n1

>  <score_type>  (20) 
oracle

>  <origin>  (20) 
autodockgpu

>  <m_score__min__energy>  (20) 
-8.6999999999999993

>  <m_primary>  (20) 
energy

>  <rmsd>  (20) 
9.33874157698307

>  <m_score__min__rmsd>  (20) 
9.33874157698307

>  <meeko>  (20) 
{"free_energy": -8.67, "intermolecular_energy": -10.46, "internal_energy": -1.41, "cluster_size": 7, "cluster_id": 2, "rank_in_cluster": 1}

>  <energy>  (20) 
-8.12

>  <cluster_rmsd>  (20) 
1.89

>  <cluster>  (20) 
1

$$$$

     RDKit          3D

 56 59  0  0  0  0  0  0  0  0999 V2000
  139.8030   71.6320  221.0130 O   0  0  0  0  0  0  0  0  0  0  0  0
  139.7400   72.1950  222.1340 C   0  0  0  0  0  0  0  0  0  0  0  0
  139.6070   73.6010  222.3040 N   0  0  0  0  0  0  0  0  0  0  0  0
  139.5390   74.4470  221.1100 C   0  0  0  0  0  0  0  0  0  0  0  0
  140.4110   75.6190  221.3780 C   0  0  0  0  0  0  0  0  0  0  0  0
  140.6450   76.0420  222.5530 O   0  0  0  0  0  0  0  0  0  0  0  0
  141.0410   76.3390  220.3250 N   0  0  0  0  0  0  0  0  0  0  0  0
  140.8420   76.0490  218.9160 C   0  0  0  0  0  0  0  0  0  0  0  0
  141.9310   76.7620  218.1770 C   0  0  0  0  0  0  0  0  0  0  0  0
  142.9160   77.1220  219.2900 C   0  0  0  0  0  0  0  0  0  0  0  0
  141.9740   77.4650  220.4240 C   0  0  1  0  0  0  0  0  0  0  0  0
  141.2660   78.7710  220.1620 C   0  0  0  0  0  0  0  0  0  0  0  0
  141.1500   79.4900  221.4090 N   0  0  0  0  0  0  0  0  0  0  0  0
  140.0870   79.0200  222.2290 C   0  0  0  0  0  0  0  0  0  0  0  0
  140.1060   79.3800  223.6630 C   0  0  0  0  0  0  0  0  0  0  0  0
  141.5080   79.1270  224.2200 C   0  0  0  0  0  0  0  0  0  0  0  0
  142.3800   80.1140  223.4750 C   0  0  0  0  0  0  0  0  0  0  0  0
  142.3780   79.7980  222.0240 C   0  0  0  0  0  0  0  0  0  0  0  0
  139.8070   71.3680  223.3530 C   0  0  0  0  0  0  0  0  0  0  0  0
  139.3380   70.0690  223.3580 C   0  0  0  0  0  0  0  0  0  0  0  0
  139.3790   69.2560  224.4740 C   0  0  0  0  0  0  0  0  0  0  0  0
  139.9200   69.7870  225.6320 C   0  0  0  0  0  0  0  0  0  0  0  0
  140.0030   69.0650  226.7790 C   0  0  0  0  0  0  0  0  0  0  0  0
  140.5550   69.6330  227.9320 C   0  0  0  0  0  0  0  0  0  0  0  0
  140.6440   68.9210  229.0860 F   0  0  0  0  0  0  0  0  0  0  0  0
  141.0200   70.9350  227.9140 C   0  0  0  0  0  0  0  0  0  0  0  0
  140.9350   71.6690  226.7470 C   0  0  0  0  0  0  0  0  0  0  0  0
  140.3860   71.0880  225.6190 C   0  0  0  0  0  0  0  0  0  0  0  0
  140.3240   71.8410  224.5050 N   0  0  0  0  0  0  0  0  0  0  0  0
  139.5620   73.9930  223.2720 H   0  0  0  0  0  0  0  0  0  0  0  0
  139.9029   73.8948  220.2310 H   0  0  0  0  0  0  0  0  0  0  0  0
  138.5052   74.7583  220.8994 H   0  0  0  0  0  0  0  0  0  0  0  0
  140.9084   74.9655  218.7380 H   0  0  0  0  0  0  0  0  0  0  0  0
  139.8491   76.3806  218.5782 H   0  0  0  0  0  0  0  0  0  0  0  0
  142.3998   76.1040  217.4305 H   0  0  0  0  0  0  0  0  0  0  0  0
  141.5741   77.6356  217.6118 H   0  0  0  0  0  0  0  0  0  0  0  0
  143.5615   76.2692  219.5472 H   0  0  0  0  0  0  0  0  0  0  0  0
  143.6157   77.9291  219.0272 H   0  0  0  0  0  0  0  0  0  0  0  0
  142.4533   77.5930  221.4058 H   0  0  0  0  0  0  0  0  0  0  0  0
  141.8447   79.3684  219.4421 H   0  0  0  0  0  0  0  0  0  0  0  0
  140.2667   78.5796  219.7440 H   0  0  0  0  0  0  0  0  0  0  0  0
  139.1499   79.4109  221.8059 H   0  0  0  0  0  0  0  0  0  0  0  0
  140.1951   77.9254  222.2188 H   0  0  0  0  0  0  0  0  0  0  0  0
  139.8487   80.4430  223.7801 H   0  0  0  0  0  0  0  0  0  0  0  0
  139.3724   78.7694  224.2098 H   0  0  0  0  0  0  0  0  0  0  0  0
  141.5389   79.3173  225.3030 H   0  0  0  0  0  0  0  0  0  0  0  0
  141.8361   78.0857  224.0854 H   0  0  0  0  0  0  0  0  0  0  0  0
  141.9905   81.1315  223.6269 H   0  0  0  0  0  0  0  0  0  0  0  0
  143.4091   80.0479  223.8579 H   0  0  0  0  0  0  0  0  0  0  0  0
  142.7944   80.6710  221.5002 H   0  0  0  0  0  0  0  0  0  0  0  0
  142.9599   78.8675  221.9485 H   0  0  0  0  0  0  0  0  0  0  0  0
  138.9115   69.6625  222.4291 H   0  0  0  0  0  0  0  0  0  0  0  0
  138.9961   68.2253  224.4435 H   0  0  0  0  0  0  0  0  0  0  0  0
  139.6345   68.0288  226.8016 H   0  0  0  0  0  0  0  0  0  0  0  0
  141.4536   71.3821  228.8207 H   0  0  0  0  0  0  0  0  0  0  0  0
  141.3006   72.7060  226.7154 H   0  0  0  0  0  0  0  0  0  0  0  0
  1  2  2  0
  2  3  1  0
  3  4  1  0
  4  5  1  0
  5  6  2  0
  5  7  1  0
  7  8  1  0
  8  9  1  0
  9 10  1  0
 10 11  1  0
 11 12  1  0
 12 13  1  0
 13 14  1  0
 14 15  1  0
 15 16  1  0
 16 17  1  0
 17 18  1  0
  2 19  1  0
 19 20  2  0
 20 21  1  0
 21 22  2  0
 22 23  1  0
 23 24  2  0
 24 25  1  0
 24 26  1  0
 26 27  2  0
 27 28  1  0
 28 29  2  0
 11  7  1  0
 18 13  1  0
 29 19  1  0
 28 22  1  0
  3 30  1  0
  4 31  1  0
  4 32  1  0
  8 33  1  0
  8 34  1  0
  9 35  1  0
  9 36  1  0
 10 37  1  0
 10 38  1  0
 11 39  1  1
 12 40  1  0
 12 41  1  0
 14 42  1  0
 14 43  1  0
 15 44  1  0
 15 45  1  0
 16 46  1  0
 16 47  1  0
 17 48  1  0
 17 49  1  0
 18 50  1  0
 18 51  1  0
 20 52  1  0
 21 53  1  0
 23 54  1  0
 26 55  1  0
 27 56  1  0
M  END
>  <smiles>  (21) 
O=C(NCC(=O)N1CCC[C@H]1CN1CCCCC1)c1ccc2cc(F)ccc2n1

>  <score_type>  (21) 
oracle

>  <origin>  (21) 
autodockgpu

>  <m_score__min__energy>  (21) 
-8.6999999999999993

>  <m_primary>  (21) 
energy

>  <rmsd>  (21) 
2.153675014968395

>  <m_score__min__rmsd>  (21) 
2.153675014968395

>  <meeko>  (21) 
{"free_energy": -8.08, "intermolecular_energy": -9.87, "internal_energy": -2.08, "cluster_size": 32, "cluster_id": 1, "rank_in_cluster": 24}

>  <energy>  (21) 
-8.11

>  <cluster_rmsd>  (21) 
1.84

>  <cluster>  (21) 
1

$$$$

     RDKit          3D

 56 59  0  0  0  0  0  0  0  0999 V2000
  140.8970   71.4950  221.1610 O   0  0  0  0  0  0  0  0  0  0  0  0
  140.3920   72.0280  222.1820 C   0  0  0  0  0  0  0  0  0  0  0  0
  139.9920   73.3910  222.2430 N   0  0  0  0  0  0  0  0  0  0  0  0
  140.1760   74.2290  221.0560 C   0  0  0  0  0  0  0  0  0  0  0  0
  140.3990   75.6120  221.5510 C   0  0  0  0  0  0  0  0  0  0  0  0
  139.9670   76.0130  222.6770 O   0  0  0  0  0  0  0  0  0  0  0  0
  141.1160   76.5740  220.7860 N   0  0  0  0  0  0  0  0  0  0  0  0
  141.3990   77.9220  221.2440 C   0  0  0  0  0  0  0  0  0  0  0  0
  141.8290   78.7000  220.0390 C   0  0  0  0  0  0  0  0  0  0  0  0
  141.3940   77.7990  218.8830 C   0  0  0  0  0  0  0  0  0  0  0  0
  141.6910   76.4260  219.4460 C   0  0  1  0  0  0  0  0  0  0  0  0
  143.1770   76.1830  219.5260 C   0  0  0  0  0  0  0  0  0  0  0  0
  143.4100   74.7580  219.5510 N   0  0  0  0  0  0  0  0  0  0  0  0
  144.0780   74.2790  218.3900 C   0  0  0  0  0  0  0  0  0  0  0  0
  144.7240   72.9520  218.4600 C   0  0  0  0  0  0  0  0  0  0  0  0
  145.5370   72.8620  219.7530 C   0  0  0  0  0  0  0  0  0  0  0  0
  144.4930   72.9360  220.8460 C   0  0  0  0  0  0  0  0  0  0  0  0
  143.8070   74.2510  220.8030 C   0  0  0  0  0  0  0  0  0  0  0  0
  140.1950   71.2080  223.3910 C   0  0  0  0  0  0  0  0  0  0  0  0
  139.5630   69.9820  223.3240 C   0  0  0  0  0  0  0  0  0  0  0  0
  139.3550   69.1790  224.4290 C   0  0  0  0  0  0  0  0  0  0  0  0
  139.8110   69.6420  225.6510 C   0  0  0  0  0  0  0  0  0  0  0  0
  139.6530   68.9230  226.7920 C   0  0  0  0  0  0  0  0  0  0  0  0
  140.1260   69.4220  228.0110 C   0  0  0  0  0  0  0  0  0  0  0  0
  139.9740   68.7130  229.1590 F   0  0  0  0  0  0  0  0  0  0  0  0
  140.7570   70.6510  228.0630 C   0  0  0  0  0  0  0  0  0  0  0  0
  140.9160   71.3820  226.9020 C   0  0  0  0  0  0  0  0  0  0  0  0
  140.4420   70.8700  225.7090 C   0  0  0  0  0  0  0  0  0  0  0  0
  140.6210   71.6170  224.6030 N   0  0  0  0  0  0  0  0  0  0  0  0
  139.5800   73.7600  223.1300 H   0  0  0  0  0  0  0  0  0  0  0  0
  141.0476   73.8859  220.4792 H   0  0  0  0  0  0  0  0  0  0  0  0
  139.3004   74.1788  220.3921 H   0  0  0  0  0  0  0  0  0  0  0  0
  140.4963   78.3711  221.6838 H   0  0  0  0  0  0  0  0  0  0  0  0
  142.1811   77.9229  222.0175 H   0  0  0  0  0  0  0  0  0  0  0  0
  141.3213   79.6748  219.9946 H   0  0  0  0  0  0  0  0  0  0  0  0
  142.9043   78.9317  220.0305 H   0  0  0  0  0  0  0  0  0  0  0  0
  140.3236   77.9194  218.6599 H   0  0  0  0  0  0  0  0  0  0  0  0
  141.9007   78.0136  217.9305 H   0  0  0  0  0  0  0  0  0  0  0  0
  141.2972   75.5857  218.8554 H   0  0  0  0  0  0  0  0  0  0  0  0
  143.6724   76.6242  218.6486 H   0  0  0  0  0  0  0  0  0  0  0  0
  143.5852   76.6466  220.4362 H   0  0  0  0  0  0  0  0  0  0  0  0
  143.3363   74.2395  217.5786 H   0  0  0  0  0  0  0  0  0  0  0  0
  144.9104   74.9826  218.2417 H   0  0  0  0  0  0  0  0  0  0  0  0
  143.9543   72.1662  218.4527 H   0  0  0  0  0  0  0  0  0  0  0  0
  145.3874   72.8152  217.5933 H   0  0  0  0  0  0  0  0  0  0  0  0
  146.0889   71.9118  219.8028 H   0  0  0  0  0  0  0  0  0  0  0  0
  146.2932   73.6567  219.8345 H   0  0  0  0  0  0  0  0  0  0  0  0
  143.7541   72.1345  220.6991 H   0  0  0  0  0  0  0  0  0  0  0  0
  144.9835   72.8159  221.8232 H   0  0  0  0  0  0  0  0  0  0  0  0
  142.9013   74.1658  221.4215 H   0  0  0  0  0  0  0  0  0  0  0  0
  144.5668   74.9642  221.1552 H   0  0  0  0  0  0  0  0  0  0  0  0
  139.2084   69.6280  222.3447 H   0  0  0  0  0  0  0  0  0  0  0  0
  138.8459   68.2079  224.3408 H   0  0  0  0  0  0  0  0  0  0  0  0
  139.1513   67.9446  226.7581 H   0  0  0  0  0  0  0  0  0  0  0  0
  141.1293   71.0433  229.0209 H   0  0  0  0  0  0  0  0  0  0  0  0
  141.4150   72.3620  226.9266 H   0  0  0  0  0  0  0  0  0  0  0  0
  1  2  2  0
  2  3  1  0
  3  4  1  0
  4  5  1  0
  5  6  2  0
  5  7  1  0
  7  8  1  0
  8  9  1  0
  9 10  1  0
 10 11  1  0
 11 12  1  0
 12 13  1  0
 13 14  1  0
 14 15  1  0
 15 16  1  0
 16 17  1  0
 17 18  1  0
  2 19  1  0
 19 20  2  0
 20 21  1  0
 21 22  2  0
 22 23  1  0
 23 24  2  0
 24 25  1  0
 24 26  1  0
 26 27  2  0
 27 28  1  0
 28 29  2  0
 11  7  1  0
 18 13  1  0
 29 19  1  0
 28 22  1  0
  3 30  1  0
  4 31  1  0
  4 32  1  0
  8 33  1  0
  8 34  1  0
  9 35  1  0
  9 36  1  0
 10 37  1  0
 10 38  1  0
 11 39  1  6
 12 40  1  0
 12 41  1  0
 14 42  1  0
 14 43  1  0
 15 44  1  0
 15 45  1  0
 16 46  1  0
 16 47  1  0
 17 48  1  0
 17 49  1  0
 18 50  1  0
 18 51  1  0
 20 52  1  0
 21 53  1  0
 23 54  1  0
 26 55  1  0
 27 56  1  0
M  END
>  <smiles>  (22) 
O=C(NCC(=O)N1CCC[C@H]1CN1CCCCC1)c1ccc2cc(F)ccc2n1

>  <score_type>  (22) 
oracle

>  <origin>  (22) 
autodockgpu

>  <m_score__min__energy>  (22) 
-8.6999999999999993

>  <m_primary>  (22) 
energy

>  <rmsd>  (22) 
4.494286136681327

>  <m_score__min__rmsd>  (22) 
4.494286136681327

>  <meeko>  (22) 
{"free_energy": -7.69, "intermolecular_energy": -9.48, "internal_energy": -2.19, "cluster_size": 8, "cluster_id": 3, "rank_in_cluster": 5}

>  <energy>  (22) 
-8.1

>  <cluster_rmsd>  (22) 
1.92

>  <cluster>  (22) 
1

$$$$

     RDKit          3D

 56 59  0  0  0  0  0  0  0  0999 V2000
  140.9480   71.7370  221.1490 O   0  0  0  0  0  0  0  0  0  0  0  0
  140.4170   72.2570  222.1630 C   0  0  0  0  0  0  0  0  0  0  0  0
  140.0000   73.6150  222.2250 N   0  0  0  0  0  0  0  0  0  0  0  0
  140.1970   74.4620  221.0470 C   0  0  0  0  0  0  0  0  0  0  0  0
  139.7720   75.8310  221.4400 C   0  0  0  0  0  0  0  0  0  0  0  0
  139.4230   76.1230  222.6270 O   0  0  0  0  0  0  0  0  0  0  0  0
  139.7320   76.9000  220.5030 N   0  0  0  0  0  0  0  0  0  0  0  0
  138.8180   76.9520  219.3750 C   0  0  0  0  0  0  0  0  0  0  0  0
  139.3350   78.0170  218.4580 C   0  0  0  0  0  0  0  0  0  0  0  0
  140.7560   78.2490  218.9760 C   0  0  0  0  0  0  0  0  0  0  0  0
  140.5560   78.1120  220.4700 C   0  0  1  0  0  0  0  0  0  0  0  0
  139.7960   79.2900  221.0240 C   0  0  0  0  0  0  0  0  0  0  0  0
  140.3880   79.6680  222.2860 N   0  0  0  0  0  0  0  0  0  0  0  0
  141.2110   78.6510  222.8440 C   0  0  0  0  0  0  0  0  0  0  0  0
  142.1760   79.0400  223.8950 C   0  0  0  0  0  0  0  0  0  0  0  0
  142.9220   80.2970  223.4460 C   0  0  0  0  0  0  0  0  0  0  0  0
  141.8440   81.3570  223.3800 C   0  0  0  0  0  0  0  0  0  0  0  0
  140.8430   80.9990  222.3440 C   0  0  0  0  0  0  0  0  0  0  0  0
  140.2070   71.4260  223.3630 C   0  0  0  0  0  0  0  0  0  0  0  0
  139.5680   70.2050  223.2800 C   0  0  0  0  0  0  0  0  0  0  0  0
  139.3480   69.3920  224.3760 C   0  0  0  0  0  0  0  0  0  0  0  0
  139.7970   69.8420  225.6050 C   0  0  0  0  0  0  0  0  0  0  0  0
  139.6270   69.1130  226.7390 C   0  0  0  0  0  0  0  0  0  0  0  0
  140.0930   69.5980  227.9650 C   0  0  0  0  0  0  0  0  0  0  0  0
  139.9300   68.8790  229.1060 F   0  0  0  0  0  0  0  0  0  0  0  0
  140.7310   70.8230  228.0340 C   0  0  0  0  0  0  0  0  0  0  0  0
  140.9040   71.5630  226.8810 C   0  0  0  0  0  0  0  0  0  0  0  0
  140.4350   71.0650  225.6790 C   0  0  0  0  0  0  0  0  0  0  0  0
  140.6260   71.8220  224.5820 N   0  0  0  0  0  0  0  0  0  0  0  0
  139.5660   73.9730  223.1060 H   0  0  0  0  0  0  0  0  0  0  0  0
  141.2566   74.4625  220.7515 H   0  0  0  0  0  0  0  0  0  0  0  0
  139.6151   74.0942  220.1890 H   0  0  0  0  0  0  0  0  0  0  0  0
  138.7977   75.9817  218.8573 H   0  0  0  0  0  0  0  0  0  0  0  0
  137.7921   77.1739  219.7040 H   0  0  0  0  0  0  0  0  0  0  0  0
  139.3454   77.6704  217.4141 H   0  0  0  0  0  0  0  0  0  0  0  0
  138.7179   78.9276  218.4560 H   0  0  0  0  0  0  0  0  0  0  0  0
  141.4530   77.4895  218.5922 H   0  0  0  0  0  0  0  0  0  0  0  0
  141.1957   79.2090  218.6676 H   0  0  0  0  0  0  0  0  0  0  0  0
  141.4821   78.0671  221.0619 H   0  0  0  0  0  0  0  0  0  0  0  0
  139.8545   80.1331  220.3199 H   0  0  0  0  0  0  0  0  0  0  0  0
  138.7396   79.0206  221.1702 H   0  0  0  0  0  0  0  0  0  0  0  0
  140.5441   77.8909  223.2769 H   0  0  0  0  0  0  0  0  0  0  0  0
  141.8379   78.3130  222.0057 H   0  0  0  0  0  0  0  0  0  0  0  0
  141.6377   79.2456  224.8320 H   0  0  0  0  0  0  0  0  0  0  0  0
  142.8927   78.2225  224.0621 H   0  0  0  0  0  0  0  0  0  0  0  0
  143.6979   80.5729  224.1753 H   0  0  0  0  0  0  0  0  0  0  0  0
  143.4422   80.1611  222.4863 H   0  0  0  0  0  0  0  0  0  0  0  0
  141.3457   81.4312  224.3578 H   0  0  0  0  0  0  0  0  0  0  0  0
  142.3025   82.3227  223.1208 H   0  0  0  0  0  0  0  0  0  0  0  0
  139.9622   81.6372  222.5081 H   0  0  0  0  0  0  0  0  0  0  0  0
  141.3741   81.1456  221.3919 H   0  0  0  0  0  0  0  0  0  0  0  0
  139.2173   69.8630  222.2951 H   0  0  0  0  0  0  0  0  0  0  0  0
  138.8354   68.4240  224.2750 H   0  0  0  0  0  0  0  0  0  0  0  0
  139.1208   68.1375  226.6924 H   0  0  0  0  0  0  0  0  0  0  0  0
  141.0973   71.2044  228.9985 H   0  0  0  0  0  0  0  0  0  0  0  0
  141.4099   72.5391  226.9182 H   0  0  0  0  0  0  0  0  0  0  0  0
  1  2  2  0
  2  3  1  0
  3  4  1  0
  4  5  1  0
  5  6  2  0
  5  7  1  0
  7  8  1  0
  8  9  1  0
  9 10  1  0
 10 11  1  0
 11 12  1  0
 12 13  1  0
 13 14  1  0
 14 15  1  0
 15 16  1  0
 16 17  1  0
 17 18  1  0
  2 19  1  0
 19 20  2  0
 20 21  1  0
 21 22  2  0
 22 23  1  0
 23 24  2  0
 24 25  1  0
 24 26  1  0
 26 27  2  0
 27 28  1  0
 28 29  2  0
 11  7  1  0
 18 13  1  0
 29 19  1  0
 28 22  1  0
  3 30  1  0
  4 31  1  0
  4 32  1  0
  8 33  1  0
  8 34  1  0
  9 35  1  0
  9 36  1  0
 10 37  1  0
 10 38  1  0
 11 39  1  1
 12 40  1  0
 12 41  1  0
 14 42  1  0
 14 43  1  0
 15 44  1  0
 15 45  1  0
 16 46  1  0
 16 47  1  0
 17 48  1  0
 17 49  1  0
 18 50  1  0
 18 51  1  0
 20 52  1  0
 21 53  1  0
 23 54  1  0
 26 55  1  0
 27 56  1  0
M  END
>  <smiles>  (23) 
O=C(NCC(=O)N1CCC[C@H]1CN1CCCCC1)c1ccc2cc(F)ccc2n1

>  <score_type>  (23) 
oracle

>  <origin>  (23) 
autodockgpu

>  <m_score__min__energy>  (23) 
-8.6999999999999993

>  <m_primary>  (23) 
energy

>  <rmsd>  (23) 
2.088581197363207

>  <m_score__min__rmsd>  (23) 
2.088581197363207

>  <meeko>  (23) 
{"free_energy": -7.83, "intermolecular_energy": -9.62, "internal_energy": -2.03, "cluster_size": 32, "cluster_id": 1, "rank_in_cluster": 31}

>  <energy>  (23) 
-8.1

>  <cluster_rmsd>  (23) 
1.88

>  <cluster>  (23) 
1

$$$$

     RDKit          3D

 56 59  0  0  0  0  0  0  0  0999 V2000
  139.7470   71.3450  220.9140 O   0  0  0  0  0  0  0  0  0  0  0  0
  139.7020   71.9370  222.0230 C   0  0  0  0  0  0  0  0  0  0  0  0
  139.6260   73.3500  222.1590 N   0  0  0  0  0  0  0  0  0  0  0  0
  139.5980   74.1700  220.9460 C   0  0  0  0  0  0  0  0  0  0  0  0
  140.3130   75.4300  221.2770 C   0  0  0  0  0  0  0  0  0  0  0  0
  140.4110   75.8680  222.4660 O   0  0  0  0  0  0  0  0  0  0  0  0
  140.9350   76.2230  220.2720 N   0  0  0  0  0  0  0  0  0  0  0  0
  140.8230   75.9580  218.8490 C   0  0  0  0  0  0  0  0  0  0  0  0
  141.8890   76.7690  218.1800 C   0  0  0  0  0  0  0  0  0  0  0  0
  142.7930   77.1690  219.3480 C   0  0  0  0  0  0  0  0  0  0  0  0
  141.7760   77.4110  220.4430 C   0  0  1  0  0  0  0  0  0  0  0  0
  140.9860   78.6690  220.1790 C   0  0  0  0  0  0  0  0  0  0  0  0
  140.9550   79.4550  221.3890 N   0  0  0  0  0  0  0  0  0  0  0  0
  140.0560   78.9440  222.3660 C   0  0  0  0  0  0  0  0  0  0  0  0
  140.2190   79.3990  223.7630 C   0  0  0  0  0  0  0  0  0  0  0  0
  141.6980   79.3170  224.1440 C   0  0  0  0  0  0  0  0  0  0  0  0
  142.3650   80.3290  223.2380 C   0  0  0  0  0  0  0  0  0  0  0  0
  142.2130   79.9180  221.8200 C   0  0  0  0  0  0  0  0  0  0  0  0
  139.7290   71.1360  223.2610 C   0  0  0  0  0  0  0  0  0  0  0  0
  139.2340   69.8470  223.2850 C   0  0  0  0  0  0  0  0  0  0  0  0
  139.2360   69.0590  224.4200 C   0  0  0  0  0  0  0  0  0  0  0  0
  139.7670   69.6040  225.5750 C   0  0  0  0  0  0  0  0  0  0  0  0
  139.8140   68.9060  226.7400 C   0  0  0  0  0  0  0  0  0  0  0  0
  140.3560   69.4890  227.8900 C   0  0  0  0  0  0  0  0  0  0  0  0
  140.4090   68.8010  229.0600 F   0  0  0  0  0  0  0  0  0  0  0  0
  140.8490   70.7800  227.8510 C   0  0  0  0  0  0  0  0  0  0  0  0
  140.8000   71.4900  226.6670 C   0  0  0  0  0  0  0  0  0  0  0  0
  140.2600   70.8950  225.5420 C   0  0  0  0  0  0  0  0  0  0  0  0
  140.2350   71.6240  224.4110 N   0  0  0  0  0  0  0  0  0  0  0  0
  139.5930   73.7670  223.1170 H   0  0  0  0  0  0  0  0  0  0  0  0
  140.1070   73.6485  220.1220 H   0  0  0  0  0  0  0  0  0  0  0  0
  138.5658   74.3695  220.6223 H   0  0  0  0  0  0  0  0  0  0  0  0
  140.9779   74.8876  218.6485 H   0  0  0  0  0  0  0  0  0  0  0  0
  139.8247   76.2252  218.4721 H   0  0  0  0  0  0  0  0  0  0  0  0
  142.4390   76.1680  217.4409 H   0  0  0  0  0  0  0  0  0  0  0  0
  141.4947   77.6295  217.6197 H   0  0  0  0  0  0  0  0  0  0  0  0
  143.4872   76.3587  219.6155 H   0  0  0  0  0  0  0  0  0  0  0  0
  143.4429   78.0316  219.1390 H   0  0  0  0  0  0  0  0  0  0  0  0
  142.1982   77.5466  221.4497 H   0  0  0  0  0  0  0  0  0  0  0  0
  141.4655   79.2459  219.3744 H   0  0  0  0  0  0  0  0  0  0  0  0
  139.9617   78.4121  219.8711 H   0  0  0  0  0  0  0  0  0  0  0  0
  139.0386   79.2173  222.0494 H   0  0  0  0  0  0  0  0  0  0  0  0
  140.2712   77.8658  222.4008 H   0  0  0  0  0  0  0  0  0  0  0  0
  139.8715   80.4386  223.8552 H   0  0  0  0  0  0  0  0  0  0  0  0
  139.6264   78.7595  224.4337 H   0  0  0  0  0  0  0  0  0  0  0  0
  141.8448   79.5820  225.2015 H   0  0  0  0  0  0  0  0  0  0  0  0
  142.1108   78.3044  224.0247 H   0  0  0  0  0  0  0  0  0  0  0  0
  141.8966   81.3135  223.3842 H   0  0  0  0  0  0  0  0  0  0  0  0
  143.4354   80.3850  223.4852 H   0  0  0  0  0  0  0  0  0  0  0  0
  142.4691   80.7894  221.1994 H   0  0  0  0  0  0  0  0  0  0  0  0
  142.8725   79.0434  221.7194 H   0  0  0  0  0  0  0  0  0  0  0  0
  138.8185   69.4278  222.3567 H   0  0  0  0  0  0  0  0  0  0  0  0
  138.8305   68.0366  224.4055 H   0  0  0  0  0  0  0  0  0  0  0  0
  139.4241   67.8781  226.7788 H   0  0  0  0  0  0  0  0  0  0  0  0
  141.2767   71.2380  228.7551 H   0  0  0  0  0  0  0  0  0  0  0  0
  141.1868   72.5186  226.6198 H   0  0  0  0  0  0  0  0  0  0  0  0
  1  2  2  0
  2  3  1  0
  3  4  1  0
  4  5  1  0
  5  6  2  0
  5  7  1  0
  7  8  1  0
  8  9  1  0
  9 10  1  0
 10 11  1  0
 11 12  1  0
 12 13  1  0
 13 14  1  0
 14 15  1  0
 15 16  1  0
 16 17  1  0
 17 18  1  0
  2 19  1  0
 19 20  2  0
 20 21  1  0
 21 22  2  0
 22 23  1  0
 23 24  2  0
 24 25  1  0
 24 26  1  0
 26 27  2  0
 27 28  1  0
 28 29  2  0
 11  7  1  0
 18 13  1  0
 29 19  1  0
 28 22  1  0
  3 30  1  0
  4 31  1  0
  4 32  1  0
  8 33  1  0
  8 34  1  0
  9 35  1  0
  9 36  1  0
 10 37  1  0
 10 38  1  0
 11 39  1  1
 12 40  1  0
 12 41  1  0
 14 42  1  0
 14 43  1  0
 15 44  1  0
 15 45  1  0
 16 46  1  0
 16 47  1  0
 17 48  1  0
 17 49  1  0
 18 50  1  0
 18 51  1  0
 20 52  1  0
 21 53  1  0
 23 54  1  0
 26 55  1  0
 27 56  1  0
M  END
>  <smiles>  (24) 
O=C(NCC(=O)N1CCC[C@H]1CN1CCCCC1)c1ccc2cc(F)ccc2n1

>  <score_type>  (24) 
oracle

>  <origin>  (24) 
autodockgpu

>  <m_score__min__energy>  (24) 
-8.6999999999999993

>  <m_primary>  (24) 
energy

>  <rmsd>  (24) 
2.0468377450532844

>  <m_score__min__rmsd>  (24) 
2.0468377450532844

>  <meeko>  (24) 
{"free_energy": -8.04, "intermolecular_energy": -9.83, "internal_energy": -2.12, "cluster_size": 32, "cluster_id": 1, "rank_in_cluster": 26}

>  <energy>  (24) 
-8.08

>  <cluster_rmsd>  (24) 
1.83

>  <cluster>  (24) 
1

$$$$

     RDKit          3D

 56 59  0  0  0  0  0  0  0  0999 V2000
  137.1140   75.9770  222.3730 O   0  0  0  0  0  0  0  0  0  0  0  0
  138.3640   76.1030  222.4130 C   0  0  0  0  0  0  0  0  0  0  0  0
  139.2710   75.0280  222.2040 N   0  0  0  0  0  0  0  0  0  0  0  0
  138.7280   73.6970  221.9270 C   0  0  0  0  0  0  0  0  0  0  0  0
  139.8330   72.7340  222.1720 C   0  0  0  0  0  0  0  0  0  0  0  0
  141.0100   72.9190  221.7290 O   0  0  0  0  0  0  0  0  0  0  0  0
  139.6350   71.5430  222.9240 N   0  0  0  0  0  0  0  0  0  0  0  0
  139.2600   70.2690  222.3360 C   0  0  0  0  0  0  0  0  0  0  0  0
  138.8040   69.3970  223.4650 C   0  0  0  0  0  0  0  0  0  0  0  0
  138.6060   70.3970  224.6050 C   0  0  0  0  0  0  0  0  0  0  0  0
  139.7580   71.3500  224.3710 C   0  0  1  0  0  0  0  0  0  0  0  0
  141.0760   70.7000  224.7140 C   0  0  0  0  0  0  0  0  0  0  0  0
  141.1540   70.5470  226.1480 N   0  0  0  0  0  0  0  0  0  0  0  0
  140.6640   71.6770  226.8590 C   0  0  0  0  0  0  0  0  0  0  0  0
  140.3160   71.5000  228.2850 C   0  0  0  0  0  0  0  0  0  0  0  0
  139.4780   70.2300  228.4390 C   0  0  0  0  0  0  0  0  0  0  0  0
  140.4240   69.1180  228.0440 C   0  0  0  0  0  0  0  0  0  0  0  0
  140.8130   69.2650  226.6190 C   0  0  0  0  0  0  0  0  0  0  0  0
  138.9380   77.4320  222.6910 C   0  0  0  0  0  0  0  0  0  0  0  0
  138.1330   78.5500  222.7860 C   0  0  0  0  0  0  0  0  0  0  0  0
  138.6250   79.8150  223.0430 C   0  0  0  0  0  0  0  0  0  0  0  0
  139.9920   79.9470  223.2120 C   0  0  0  0  0  0  0  0  0  0  0  0
  140.5680   81.1490  223.4690 C   0  0  0  0  0  0  0  0  0  0  0  0
  141.9540   81.2470  223.6340 C   0  0  0  0  0  0  0  0  0  0  0  0
  142.5420   82.4440  223.8910 F   0  0  0  0  0  0  0  0  0  0  0  0
  142.7480   80.1200  223.5350 C   0  0  0  0  0  0  0  0  0  0  0  0
  142.1620   78.8970  223.2740 C   0  0  0  0  0  0  0  0  0  0  0  0
  140.7900   78.8230  223.1150 C   0  0  0  0  0  0  0  0  0  0  0  0
  140.2640   77.6110  222.8620 N   0  0  0  0  0  0  0  0  0  0  0  0
  140.2980   75.2140  222.2550 H   0  0  0  0  0  0  0  0  0  0  0  0
  137.8822   73.4841  222.5973 H   0  0  0  0  0  0  0  0  0  0  0  0
  138.3574   73.6245  220.8938 H   0  0  0  0  0  0  0  0  0  0  0  0
  138.4443   70.4103  221.6116 H   0  0  0  0  0  0  0  0  0  0  0  0
  140.1057   69.8145  221.7991 H   0  0  0  0  0  0  0  0  0  0  0  0
  137.8614   68.8873  223.2165 H   0  0  0  0  0  0  0  0  0  0  0  0
  139.5137   68.5927  223.7088 H   0  0  0  0  0  0  0  0  0  0  0  0
  137.6366   70.9107  224.5255 H   0  0  0  0  0  0  0  0  0  0  0  0
  138.5963   69.9411  225.6060 H   0  0  0  0  0  0  0  0  0  0  0  0
  139.7301   72.2710  224.9718 H   0  0  0  0  0  0  0  0  0  0  0  0
  141.1393   69.7133  224.2319 H   0  0  0  0  0  0  0  0  0  0  0  0
  141.9078   71.3248  224.3566 H   0  0  0  0  0  0  0  0  0  0  0  0
  141.4366   72.4582  226.8049 H   0  0  0  0  0  0  0  0  0  0  0  0
  139.7085   71.9174  226.3699 H   0  0  0  0  0  0  0  0  0  0  0  0
  141.2363   71.4091  228.8807 H   0  0  0  0  0  0  0  0  0  0  0  0
  139.7418   72.3693  228.6381 H   0  0  0  0  0  0  0  0  0  0  0  0
  139.1422   70.1068  229.4792 H   0  0  0  0  0  0  0  0  0  0  0  0
  138.5653   70.2477  227.8252 H   0  0  0  0  0  0  0  0  0  0  0  0
  141.3244   69.1646  228.6741 H   0  0  0  0  0  0  0  0  0  0  0  0
  139.9212   68.1496  228.1831 H   0  0  0  0  0  0  0  0  0  0  0  0
  141.6837   68.6142  226.4505 H   0  0  0  0  0  0  0  0  0  0  0  0
  139.9013   69.0051  226.0611 H   0  0  0  0  0  0  0  0  0  0  0  0
  137.0483   78.4274  222.6506 H   0  0  0  0  0  0  0  0  0  0  0  0
  137.9551   80.6849  223.1108 H   0  0  0  0  0  0  0  0  0  0  0  0
  139.9422   82.0502  223.5479 H   0  0  0  0  0  0  0  0  0  0  0  0
  143.8378   80.1966  223.6631 H   0  0  0  0  0  0  0  0  0  0  0  0
  142.7802   77.9907  223.1934 H   0  0  0  0  0  0  0  0  0  0  0  0
  1  2  2  0
  2  3  1  0
  3  4  1  0
  4  5  1  0
  5  6  2  0
  5  7  1  0
  7  8  1  0
  8  9  1  0
  9 10  1  0
 10 11  1  0
 11 12  1  0
 12 13  1  0
 13 14  1  0
 14 15  1  0
 15 16  1  0
 16 17  1  0
 17 18  1  0
  2 19  1  0
 19 20  2  0
 20 21  1  0
 21 22  2  0
 22 23  1  0
 23 24  2  0
 24 25  1  0
 24 26  1  0
 26 27  2  0
 27 28  1  0
 28 29  2  0
 11  7  1  0
 18 13  1  0
 29 19  1  0
 28 22  1  0
  3 30  1  0
  4 31  1  0
  4 32  1  0
  8 33  1  0
  8 34  1  0
  9 35  1  0
  9 36  1  0
 10 37  1  0
 10 38  1  0
 11 39  1  1
 12 40  1  0
 12 41  1  0
 14 42  1  0
 14 43  1  0
 15 44  1  0
 15 45  1  0
 16 46  1  0
 16 47  1  0
 17 48  1  0
 17 49  1  0
 18 50  1  0
 18 51  1  0
 20 52  1  0
 21 53  1  0
 23 54  1  0
 26 55  1  0
 27 56  1  0
M  END
>  <smiles>  (25) 
O=C(NCC(=O)N1CCC[C@H]1CN1CCCCC1)c1ccc2cc(F)ccc2n1

>  <score_type>  (25) 
oracle

>  <origin>  (25) 
autodockgpu

>  <m_score__min__energy>  (25) 
-8.6999999999999993

>  <m_primary>  (25) 
energy

>  <rmsd>  (25) 
9.601128888974172

>  <m_score__min__rmsd>  (25) 
9.601128888974172

>  <meeko>  (25) 
{"free_energy": -7.84, "intermolecular_energy": -9.63, "internal_energy": -1.9, "cluster_size": 7, "cluster_id": 2, "rank_in_cluster": 4}

>  <energy>  (25) 
-8.05

>  <cluster_rmsd>  (25) 
1.73

>  <cluster>  (25) 
1

$$$$

     RDKit          3D

 56 59  0  0  0  0  0  0  0  0999 V2000
  141.1750   72.0910  221.8400 O   0  0  0  0  0  0  0  0  0  0  0  0
  140.1640   72.1160  222.5860 C   0  0  0  0  0  0  0  0  0  0  0  0
  139.0640   72.9970  222.3930 N   0  0  0  0  0  0  0  0  0  0  0  0
  139.1040   73.9300  221.2660 C   0  0  0  0  0  0  0  0  0  0  0  0
  139.6510   75.2060  221.7970 C   0  0  0  0  0  0  0  0  0  0  0  0
  140.8920   75.3820  222.0070 O   0  0  0  0  0  0  0  0  0  0  0  0
  138.8090   76.3110  222.1020 N   0  0  0  0  0  0  0  0  0  0  0  0
  137.5230   76.1880  222.7650 C   0  0  0  0  0  0  0  0  0  0  0  0
  136.8160   77.4930  222.5680 C   0  0  0  0  0  0  0  0  0  0  0  0
  137.6340   78.1570  221.4590 C   0  0  0  0  0  0  0  0  0  0  0  0
  139.0390   77.7320  221.8300 C   0  0  1  0  0  0  0  0  0  0  0  0
  139.5100   78.4460  223.0720 C   0  0  0  0  0  0  0  0  0  0  0  0
  140.6320   79.2850  222.7230 N   0  0  0  0  0  0  0  0  0  0  0  0
  140.2950   80.6640  222.6380 C   0  0  0  0  0  0  0  0  0  0  0  0
  141.3940   81.6510  222.6890 C   0  0  0  0  0  0  0  0  0  0  0  0
  142.3340   81.2890  223.8400 C   0  0  0  0  0  0  0  0  0  0  0  0
  142.9180   79.9550  223.4290 C   0  0  0  0  0  0  0  0  0  0  0  0
  141.8430   78.9340  223.3500 C   0  0  0  0  0  0  0  0  0  0  0  0
  140.0980   71.1870  223.7300 C   0  0  0  0  0  0  0  0  0  0  0  0
  139.5270   69.9370  223.5990 C   0  0  0  0  0  0  0  0  0  0  0  0
  139.4410   69.0330  224.6410 C   0  0  0  0  0  0  0  0  0  0  0  0
  139.9590   69.4180  225.8650 C   0  0  0  0  0  0  0  0  0  0  0  0
  139.9220   68.5990  226.9470 C   0  0  0  0  0  0  0  0  0  0  0  0
  140.4550   69.0200  228.1700 C   0  0  0  0  0  0  0  0  0  0  0  0
  140.4240   68.2090  229.2590 F   0  0  0  0  0  0  0  0  0  0  0  0
  141.0240   70.2740  228.2870 C   0  0  0  0  0  0  0  0  0  0  0  0
  141.0610   71.1080  227.1860 C   0  0  0  0  0  0  0  0  0  0  0  0
  140.5290   70.6720  225.9870 C   0  0  0  0  0  0  0  0  0  0  0  0
  140.5890   71.5170  224.9420 N   0  0  0  0  0  0  0  0  0  0  0  0
  138.2600   72.9570  223.0590 H   0  0  0  0  0  0  0  0  0  0  0  0
  139.7555   73.5384  220.4709 H   0  0  0  0  0  0  0  0  0  0  0  0
  138.1035   74.0747  220.8323 H   0  0  0  0  0  0  0  0  0  0  0  0
  136.9412   75.3692  222.3166 H   0  0  0  0  0  0  0  0  0  0  0  0
  137.6470   75.9605  223.8340 H   0  0  0  0  0  0  0  0  0  0  0  0
  135.7742   77.3356  222.2519 H   0  0  0  0  0  0  0  0  0  0  0  0
  136.7536   78.0975  223.4849 H   0  0  0  0  0  0  0  0  0  0  0  0
  137.3480   77.7788  220.4664 H   0  0  0  0  0  0  0  0  0  0  0  0
  137.4969   79.2462  221.3893 H   0  0  0  0  0  0  0  0  0  0  0  0
  139.8061   77.9463  221.0713 H   0  0  0  0  0  0  0  0  0  0  0  0
  138.6952   79.0654  223.4750 H   0  0  0  0  0  0  0  0  0  0  0  0
  139.8113   77.7135  223.8353 H   0  0  0  0  0  0  0  0  0  0  0  0
  139.7652   80.8132  221.6856 H   0  0  0  0  0  0  0  0  0  0  0  0
  139.7072   80.8599  223.5469 H   0  0  0  0  0  0  0  0  0  0  0  0
  141.9495   81.6341  221.7397 H   0  0  0  0  0  0  0  0  0  0  0  0
  140.9821   82.6586  222.8478 H   0  0  0  0  0  0  0  0  0  0  0  0
  143.1254   82.0449  223.9511 H   0  0  0  0  0  0  0  0  0  0  0  0
  141.8180   81.2446  224.8104 H   0  0  0  0  0  0  0  0  0  0  0  0
  143.3985   80.0552  222.4446 H   0  0  0  0  0  0  0  0  0  0  0  0
  143.6614   79.6402  224.1761 H   0  0  0  0  0  0  0  0  0  0  0  0
  142.2533   78.0710  222.8052 H   0  0  0  0  0  0  0  0  0  0  0  0
  141.5629   78.7540  224.3984 H   0  0  0  0  0  0  0  0  0  0  0  0
  139.1211   69.6466  222.6187 H   0  0  0  0  0  0  0  0  0  0  0  0
  138.9782   68.0447  224.5025 H   0  0  0  0  0  0  0  0  0  0  0  0
  139.4707   67.5995  226.8617 H   0  0  0  0  0  0  0  0  0  0  0  0
  141.4438   70.6053  229.2483 H   0  0  0  0  0  0  0  0  0  0  0  0
  141.5096   72.1094  227.2629 H   0  0  0  0  0  0  0  0  0  0  0  0
  1  2  2  0
  2  3  1  0
  3  4  1  0
  4  5  1  0
  5  6  2  0
  5  7  1  0
  7  8  1  0
  8  9  1  0
  9 10  1  0
 10 11  1  0
 11 12  1  0
 12 13  1  0
 13 14  1  0
 14 15  1  0
 15 16  1  0
 16 17  1  0
 17 18  1  0
  2 19  1  0
 19 20  2  0
 20 21  1  0
 21 22  2  0
 22 23  1  0
 23 24  2  0
 24 25  1  0
 24 26  1  0
 26 27  2  0
 27 28  1  0
 28 29  2  0
 11  7  1  0
 18 13  1  0
 29 19  1  0
 28 22  1  0
  3 30  1  0
  4 31  1  0
  4 32  1  0
  8 33  1  0
  8 34  1  0
  9 35  1  0
  9 36  1  0
 10 37  1  0
 10 38  1  0
 11 39  1  6
 12 40  1  0
 12 41  1  0
 14 42  1  0
 14 43  1  0
 15 44  1  0
 15 45  1  0
 16 46  1  0
 16 47  1  0
 17 48  1  0
 17 49  1  0
 18 50  1  0
 18 51  1  0
 20 52  1  0
 21 53  1  0
 23 54  1  0
 26 55  1  0
 27 56  1  0
M  END
>  <smiles>  (26) 
O=C(NCC(=O)N1CCC[C@H]1CN1CCCCC1)c1ccc2cc(F)ccc2n1

>  <score_type>  (26) 
oracle

>  <origin>  (26) 
autodockgpu

>  <m_score__min__energy>  (26) 
-8.6999999999999993

>  <m_primary>  (26) 
energy

>  <rmsd>  (26) 
2.986411013167498

>  <m_score__min__rmsd>  (26) 
2.986411013167498

>  <meeko>  (26) 
{"free_energy": -8.7, "intermolecular_energy": -10.49, "internal_energy": -1.29, "cluster_size": 32, "cluster_id": 1, "rank_in_cluster": 1}

>  <energy>  (26) 
-8.04

>  <cluster_rmsd>  (26) 
1.8

>  <cluster>  (26) 
1

$$$$

     RDKit          3D

 56 59  0  0  0  0  0  0  0  0999 V2000
  141.5370   78.0780  217.4220 O   0  0  0  0  0  0  0  0  0  0  0  0
  141.9300   77.5950  218.5130 C   0  0  0  0  0  0  0  0  0  0  0  0
  141.5850   78.1320  219.7830 N   0  0  0  0  0  0  0  0  0  0  0  0
  140.7260   79.3170  219.8320 C   0  0  0  0  0  0  0  0  0  0  0  0
  141.5490   80.4080  220.4140 C   0  0  0  0  0  0  0  0  0  0  0  0
  142.0410   81.3430  219.7080 O   0  0  0  0  0  0  0  0  0  0  0  0
  141.8350   80.4690  221.8060 N   0  0  0  0  0  0  0  0  0  0  0  0
  141.3990   81.5480  222.6740 C   0  0  0  0  0  0  0  0  0  0  0  0
  142.1950   81.4270  223.9370 C   0  0  0  0  0  0  0  0  0  0  0  0
  143.3210   80.4720  223.5360 C   0  0  0  0  0  0  0  0  0  0  0  0
  142.5880   79.5130  222.6230 C   0  0  1  0  0  0  0  0  0  0  0  0
  141.6540   78.6260  223.4070 C   0  0  0  0  0  0  0  0  0  0  0  0
  140.7710   77.9560  222.4820 N   0  0  0  0  0  0  0  0  0  0  0  0
  141.0530   76.5690  222.3430 C   0  0  0  0  0  0  0  0  0  0  0  0
  140.0060   75.7030  221.7610 C   0  0  0  0  0  0  0  0  0  0  0  0
  138.6670   76.0240  222.4280 C   0  0  0  0  0  0  0  0  0  0  0  0
  138.3840   77.4510  222.0120 C   0  0  0  0  0  0  0  0  0  0  0  0
  139.4230   78.3560  222.5650 C   0  0  0  0  0  0  0  0  0  0  0  0
  142.7970   76.4010  218.4940 C   0  0  0  0  0  0  0  0  0  0  0  0
  143.2510   75.8710  217.3020 C   0  0  0  0  0  0  0  0  0  0  0  0
  144.0640   74.7560  217.2340 C   0  0  0  0  0  0  0  0  0  0  0  0
  144.4300   74.1580  218.4270 C   0  0  0  0  0  0  0  0  0  0  0  0
  145.2260   73.0580  218.4600 C   0  0  0  0  0  0  0  0  0  0  0  0
  145.5760   72.4780  219.6840 C   0  0  0  0  0  0  0  0  0  0  0  0
  146.3720   71.3780  219.7310 F   0  0  0  0  0  0  0  0  0  0  0  0
  145.1140   73.0190  220.8700 C   0  0  0  0  0  0  0  0  0  0  0  0
  144.3040   74.1380  220.8350 C   0  0  0  0  0  0  0  0  0  0  0  0
  143.9710   74.6950  219.6140 C   0  0  0  0  0  0  0  0  0  0  0  0
  143.1800   75.7840  219.6290 N   0  0  0  0  0  0  0  0  0  0  0  0
  141.9530   77.6720  220.6460 H   0  0  0  0  0  0  0  0  0  0  0  0
  140.3951   79.5891  218.8189 H   0  0  0  0  0  0  0  0  0  0  0  0
  139.8252   79.1318  220.4355 H   0  0  0  0  0  0  0  0  0  0  0  0
  141.5898   82.5204  222.1964 H   0  0  0  0  0  0  0  0  0  0  0  0
  140.3198   81.4836  222.8767 H   0  0  0  0  0  0  0  0  0  0  0  0
  142.5951   82.4031  224.2485 H   0  0  0  0  0  0  0  0  0  0  0  0
  141.6036   81.0690  224.7926 H   0  0  0  0  0  0  0  0  0  0  0  0
  144.1254   80.9998  223.0028 H   0  0  0  0  0  0  0  0  0  0  0  0
  143.8242   79.9879  224.3860 H   0  0  0  0  0  0  0  0  0  0  0  0
  143.2321   78.8204  222.0613 H   0  0  0  0  0  0  0  0  0  0  0  0
  142.2356   77.8811  223.9699 H   0  0  0  0  0  0  0  0  0  0  0  0
  141.0682   79.2299  224.1156 H   0  0  0  0  0  0  0  0  0  0  0  0
  141.9443   76.4788  221.7047 H   0  0  0  0  0  0  0  0  0  0  0  0
  141.1665   76.2069  223.3755 H   0  0  0  0  0  0  0  0  0  0  0  0
  139.9331   75.8886  220.6792 H   0  0  0  0  0  0  0  0  0  0  0  0
  140.2614   74.6464  221.9294 H   0  0  0  0  0  0  0  0  0  0  0  0
  137.8782   75.3477  222.0670 H   0  0  0  0  0  0  0  0  0  0  0  0
  138.6975   75.8995  223.5205 H   0  0  0  0  0  0  0  0  0  0  0  0
  138.3890   77.5183  220.9141 H   0  0  0  0  0  0  0  0  0  0  0  0
  137.3994   77.7518  222.3994 H   0  0  0  0  0  0  0  0  0  0  0  0
  139.3349   79.3154  222.0342 H   0  0  0  0  0  0  0  0  0  0  0  0
  139.2137   78.3812  223.6446 H   0  0  0  0  0  0  0  0  0  0  0  0
  142.9513   76.3595  216.3631 H   0  0  0  0  0  0  0  0  0  0  0  0
  144.4075   74.3585  216.2676 H   0  0  0  0  0  0  0  0  0  0  0  0
  145.5968   72.6216  217.5209 H   0  0  0  0  0  0  0  0  0  0  0  0
  145.3888   72.5627  221.8324 H   0  0  0  0  0  0  0  0  0  0  0  0
  143.9280   74.5811  221.7689 H   0  0  0  0  0  0  0  0  0  0  0  0
  1  2  2  0
  2  3  1  0
  3  4  1  0
  4  5  1  0
  5  6  2  0
  5  7  1  0
  7  8  1  0
  8  9  1  0
  9 10  1  0
 10 11  1  0
 11 12  1  0
 12 13  1  0
 13 14  1  0
 14 15  1  0
 15 16  1  0
 16 17  1  0
 17 18  1  0
  2 19  1  0
 19 20  2  0
 20 21  1  0
 21 22  2  0
 22 23  1  0
 23 24  2  0
 24 25  1  0
 24 26  1  0
 26 27  2  0
 27 28  1  0
 28 29  2  0
 11  7  1  0
 18 13  1  0
 29 19  1  0
 28 22  1  0
  3 30  1  0
  4 31  1  0
  4 32  1  0
  8 33  1  0
  8 34  1  0
  9 35  1  0
  9 36  1  0
 10 37  1  0
 10 38  1  0
 11 39  1  6
 12 40  1  0
 12 41  1  0
 14 42  1  0
 14 43  1  0
 15 44  1  0
 15 45  1  0
 16 46  1  0
 16 47  1  0
 17 48  1  0
 17 49  1  0
 18 50  1  0
 18 51  1  0
 20 52  1  0
 21 53  1  0
 23 54  1  0
 26 55  1  0
 27 56  1  0
M  END
>  <smiles>  (27) 
O=C(NCC(=O)N1CCC[C@H]1CN1CCCCC1)c1ccc2cc(F)ccc2n1

>  <score_type>  (27) 
oracle

>  <origin>  (27) 
autodockgpu

>  <m_score__min__energy>  (27) 
-8.6999999999999993

>  <m_primary>  (27) 
energy

>  <rmsd>  (27) 
7.696096825794819

>  <m_score__min__rmsd>  (27) 
7.696096825794819

>  <meeko>  (27) 
{"free_energy": -6.5, "intermolecular_energy": -8.29, "internal_energy": -2.99, "cluster_size": 1, "cluster_id": 6, "rank_in_cluster": 1}

>  <energy>  (27) 
-8.04

>  <cluster_rmsd>  (27) 
1.26

>  <cluster>  (27) 
1

$$$$

     RDKit          3D

 56 59  0  0  0  0  0  0  0  0999 V2000
  137.0610   76.1780  222.0970 O   0  0  0  0  0  0  0  0  0  0  0  0
  138.2940   76.2300  222.3360 C   0  0  0  0  0  0  0  0  0  0  0  0
  139.1550   75.1000  222.2810 N   0  0  0  0  0  0  0  0  0  0  0  0
  138.5830   73.8000  221.9280 C   0  0  0  0  0  0  0  0  0  0  0  0
  139.5540   72.7750  222.3920 C   0  0  0  0  0  0  0  0  0  0  0  0
  140.8100   72.9670  222.3750 O   0  0  0  0  0  0  0  0  0  0  0  0
  139.1280   71.5110  222.8870 N   0  0  0  0  0  0  0  0  0  0  0  0
  138.5780   70.4590  222.0510 C   0  0  0  0  0  0  0  0  0  0  0  0
  137.9340   69.4740  222.9750 C   0  0  0  0  0  0  0  0  0  0  0  0
  137.8470   70.2510  224.2900 C   0  0  0  0  0  0  0  0  0  0  0  0
  139.1490   71.0210  224.2680 C   0  0  1  0  0  0  0  0  0  0  0  0
  140.3250   70.1040  224.4930 C   0  0  0  0  0  0  0  0  0  0  0  0
  140.8620   70.3580  225.8090 N   0  0  0  0  0  0  0  0  0  0  0  0
  141.0610   71.7410  226.0750 C   0  0  0  0  0  0  0  0  0  0  0  0
  141.2160   72.1600  227.4840 C   0  0  0  0  0  0  0  0  0  0  0  0
  140.1250   71.4940  228.3240 C   0  0  0  0  0  0  0  0  0  0  0  0
  140.4450   70.0180  228.2340 C   0  0  0  0  0  0  0  0  0  0  0  0
  140.3160   69.5560  226.8290 C   0  0  0  0  0  0  0  0  0  0  0  0
  138.8970   77.5270  222.6940 C   0  0  0  0  0  0  0  0  0  0  0  0
  138.1100   78.6400  222.9170 C   0  0  0  0  0  0  0  0  0  0  0  0
  138.6290   79.8760  223.2540 C   0  0  0  0  0  0  0  0  0  0  0  0
  140.0040   79.9810  223.3700 C   0  0  0  0  0  0  0  0  0  0  0  0
  140.6070   81.1530  223.6980 C   0  0  0  0  0  0  0  0  0  0  0  0
  141.9990   81.2250  223.8070 C   0  0  0  0  0  0  0  0  0  0  0  0
  142.6140   82.3910  224.1340 F   0  0  0  0  0  0  0  0  0  0  0  0
  142.7750   80.1030  223.5810 C   0  0  0  0  0  0  0  0  0  0  0  0
  142.1610   78.9110  223.2470 C   0  0  0  0  0  0  0  0  0  0  0  0
  140.7840   78.8620  223.1460 C   0  0  0  0  0  0  0  0  0  0  0  0
  140.2310   77.6790  222.8190 N   0  0  0  0  0  0  0  0  0  0  0  0
  140.1710   75.2260  222.4940 H   0  0  0  0  0  0  0  0  0  0  0  0
  137.6143   73.6615  222.4303 H   0  0  0  0  0  0  0  0  0  0  0  0
  138.4076   73.7221  220.8449 H   0  0  0  0  0  0  0  0  0  0  0  0
  137.8311   70.8752  221.3589 H   0  0  0  0  0  0  0  0  0  0  0  0
  139.3624   69.9817  221.4453 H   0  0  0  0  0  0  0  0  0  0  0  0
  136.9340   69.1890  222.6161 H   0  0  0  0  0  0  0  0  0  0  0  0
  138.4915   68.5298  223.0627 H   0  0  0  0  0  0  0  0  0  0  0  0
  136.9796   70.9274  224.3011 H   0  0  0  0  0  0  0  0  0  0  0  0
  137.7143   69.6171  225.1791 H   0  0  0  0  0  0  0  0  0  0  0  0
  139.2435   71.7980  225.0409 H   0  0  0  0  0  0  0  0  0  0  0  0
  139.9969   69.0564  224.4225 H   0  0  0  0  0  0  0  0  0  0  0  0
  141.0962   70.2879  223.7305 H   0  0  0  0  0  0  0  0  0  0  0  0
  141.9710   72.0497  225.5397 H   0  0  0  0  0  0  0  0  0  0  0  0
  140.1280   72.2218  225.7458 H   0  0  0  0  0  0  0  0  0  0  0  0
  142.2054   71.8525  227.8536 H   0  0  0  0  0  0  0  0  0  0  0  0
  141.1269   73.2539  227.5586 H   0  0  0  0  0  0  0  0  0  0  0  0
  140.1680   71.8407  229.3671 H   0  0  0  0  0  0  0  0  0  0  0  0
  139.1117   71.7305  227.9671 H   0  0  0  0  0  0  0  0  0  0  0  0
  141.4747   69.8465  228.5809 H   0  0  0  0  0  0  0  0  0  0  0  0
  139.7407   69.4563  228.8652 H   0  0  0  0  0  0  0  0  0  0  0  0
  140.8021   68.5714  226.7642 H   0  0  0  0  0  0  0  0  0  0  0  0
  139.2331   69.5728  226.6365 H   0  0  0  0  0  0  0  0  0  0  0  0
  137.0189   78.5379  222.8220 H   0  0  0  0  0  0  0  0  0  0  0  0
  137.9739   80.7433  223.4235 H   0  0  0  0  0  0  0  0  0  0  0  0
  139.9969   82.0503  223.8788 H   0  0  0  0  0  0  0  0  0  0  0  0
  143.8703   80.1588  223.6662 H   0  0  0  0  0  0  0  0  0  0  0  0
  142.7633   78.0091  223.0631 H   0  0  0  0  0  0  0  0  0  0  0  0
  1  2  2  0
  2  3  1  0
  3  4  1  0
  4  5  1  0
  5  6  2  0
  5  7  1  0
  7  8  1  0
  8  9  1  0
  9 10  1  0
 10 11  1  0
 11 12  1  0
 12 13  1  0
 13 14  1  0
 14 15  1  0
 15 16  1  0
 16 17  1  0
 17 18  1  0
  2 19  1  0
 19 20  2  0
 20 21  1  0
 21 22  2  0
 22 23  1  0
 23 24  2  0
 24 25  1  0
 24 26  1  0
 26 27  2  0
 27 28  1  0
 28 29  2  0
 11  7  1  0
 18 13  1  0
 29 19  1  0
 28 22  1  0
  3 30  1  0
  4 31  1  0
  4 32  1  0
  8 33  1  0
  8 34  1  0
  9 35  1  0
  9 36  1  0
 10 37  1  0
 10 38  1  0
 11 39  1  1
 12 40  1  0
 12 41  1  0
 14 42  1  0
 14 43  1  0
 15 44  1  0
 15 45  1  0
 16 46  1  0
 16 47  1  0
 17 48  1  0
 17 49  1  0
 18 50  1  0
 18 51  1  0
 20 52  1  0
 21 53  1  0
 23 54  1  0
 26 55  1  0
 27 56  1  0
M  END
>  <smiles>  (28) 
O=C(NCC(=O)N1CCC[C@H]1CN1CCCCC1)c1ccc2cc(F)ccc2n1

>  <score_type>  (28) 
oracle

>  <origin>  (28) 
autodockgpu

>  <m_score__min__energy>  (28) 
-8.6999999999999993

>  <m_primary>  (28) 
energy

>  <rmsd>  (28) 
9.440660306036571

>  <m_score__min__rmsd>  (28) 
9.440660306036571

>  <meeko>  (28) 
{"free_energy": -8.1, "intermolecular_energy": -9.89, "internal_energy": -2.09, "cluster_size": 7, "cluster_id": 2, "rank_in_cluster": 3}

>  <energy>  (28) 
-8.0

>  <cluster_rmsd>  (28) 
1.26

>  <cluster>  (28) 
1

$$$$

     RDKit          3D

 56 59  0  0  0  0  0  0  0  0999 V2000
  139.8120   71.0120  221.0710 O   0  0  0  0  0  0  0  0  0  0  0  0
  139.7120   71.5930  222.1810 C   0  0  0  0  0  0  0  0  0  0  0  0
  139.5780   73.0010  222.3250 N   0  0  0  0  0  0  0  0  0  0  0  0
  139.5580   73.8290  221.1170 C   0  0  0  0  0  0  0  0  0  0  0  0
  139.9070   75.2080  221.5490 C   0  0  0  0  0  0  0  0  0  0  0  0
  139.6550   75.6420  222.7160 O   0  0  0  0  0  0  0  0  0  0  0  0
  140.5500   76.1260  220.6730 N   0  0  0  0  0  0  0  0  0  0  0  0
  140.4110   76.0970  219.2280 C   0  0  0  0  0  0  0  0  0  0  0  0
  141.5020   76.9610  218.6770 C   0  0  0  0  0  0  0  0  0  0  0  0
  142.4350   77.1320  219.8770 C   0  0  0  0  0  0  0  0  0  0  0  0
  141.4430   77.2360  221.0150 C   0  0  1  0  0  0  0  0  0  0  0  0
  140.7040   78.5500  220.9700 C   0  0  0  0  0  0  0  0  0  0  0  0
  141.5660   79.5810  221.4990 N   0  0  0  0  0  0  0  0  0  0  0  0
  140.9590   80.8680  221.5070 C   0  0  0  0  0  0  0  0  0  0  0  0
  141.5550   81.9090  222.3700 C   0  0  0  0  0  0  0  0  0  0  0  0
  141.8230   81.3150  223.7540 C   0  0  0  0  0  0  0  0  0  0  0  0
  142.8730   80.2570  223.5000 C   0  0  0  0  0  0  0  0  0  0  0  0
  142.3200   79.1940  222.6220 C   0  0  0  0  0  0  0  0  0  0  0  0
  139.7290   70.7840  223.4140 C   0  0  0  0  0  0  0  0  0  0  0  0
  139.2400   69.4920  223.4250 C   0  0  0  0  0  0  0  0  0  0  0  0
  139.2350   68.6970  224.5540 C   0  0  0  0  0  0  0  0  0  0  0  0
  139.7500   69.2370  225.7190 C   0  0  0  0  0  0  0  0  0  0  0  0
  139.7880   68.5320  226.8790 C   0  0  0  0  0  0  0  0  0  0  0  0
  140.3150   69.1100  228.0390 C   0  0  0  0  0  0  0  0  0  0  0  0
  140.3590   68.4150  229.2050 F   0  0  0  0  0  0  0  0  0  0  0  0
  140.8020   70.4040  228.0140 C   0  0  0  0  0  0  0  0  0  0  0  0
  140.7620   71.1210  226.8340 C   0  0  0  0  0  0  0  0  0  0  0  0
  140.2370   70.5310  225.7000 C   0  0  0  0  0  0  0  0  0  0  0  0
  140.2200   71.2670  224.5730 N   0  0  0  0  0  0  0  0  0  0  0  0
  139.5000   73.4090  223.2840 H   0  0  0  0  0  0  0  0  0  0  0  0
  140.2962   73.4596  220.3900 H   0  0  0  0  0  0  0  0  0  0  0  0
  138.5722   73.8007  220.6298 H   0  0  0  0  0  0  0  0  0  0  0  0
  140.5182   75.0671  218.8568 H   0  0  0  0  0  0  0  0  0  0  0  0
  139.4207   76.4611  218.9169 H   0  0  0  0  0  0  0  0  0  0  0  0
  142.0174   76.4644  217.8416 H   0  0  0  0  0  0  0  0  0  0  0  0
  141.1382   77.9151  218.2678 H   0  0  0  0  0  0  0  0  0  0  0  0
  143.0971   76.2621  219.9988 H   0  0  0  0  0  0  0  0  0  0  0  0
  143.1181   77.9904  219.7964 H   0  0  0  0  0  0  0  0  0  0  0  0
  141.8833   77.1915  222.0220 H   0  0  0  0  0  0  0  0  0  0  0  0
  140.4353   78.7888  219.9304 H   0  0  0  0  0  0  0  0  0  0  0  0
  139.7840   78.4848  221.5695 H   0  0  0  0  0  0  0  0  0  0  0  0
  140.9808   81.2467  220.4745 H   0  0  0  0  0  0  0  0  0  0  0  0
  139.9584   80.6981  221.9313 H   0  0  0  0  0  0  0  0  0  0  0  0
  142.5005   82.2571  221.9286 H   0  0  0  0  0  0  0  0  0  0  0  0
  140.8631   82.7596  222.4582 H   0  0  0  0  0  0  0  0  0  0  0  0
  142.2015   82.0842  224.4432 H   0  0  0  0  0  0  0  0  0  0  0  0
  140.9154   80.9072  224.2230 H   0  0  0  0  0  0  0  0  0  0  0  0
  143.7436   80.7178  223.0104 H   0  0  0  0  0  0  0  0  0  0  0  0
  143.1770   79.8119  224.4589 H   0  0  0  0  0  0  0  0  0  0  0  0
  143.1700   78.6004  222.2545 H   0  0  0  0  0  0  0  0  0  0  0  0
  141.6006   78.6613  223.2612 H   0  0  0  0  0  0  0  0  0  0  0  0
  138.8355   69.0769  222.4901 H   0  0  0  0  0  0  0  0  0  0  0  0
  138.8363   67.6721  224.5281 H   0  0  0  0  0  0  0  0  0  0  0  0
  139.4028   67.5020  226.9067 H   0  0  0  0  0  0  0  0  0  0  0  0
  141.2175   70.8583  228.9256 H   0  0  0  0  0  0  0  0  0  0  0  0
  141.1444   72.1518  226.7973 H   0  0  0  0  0  0  0  0  0  0  0  0
  1  2  2  0
  2  3  1  0
  3  4  1  0
  4  5  1  0
  5  6  2  0
  5  7  1  0
  7  8  1  0
  8  9  1  0
  9 10  1  0
 10 11  1  0
 11 12  1  0
 12 13  1  0
 13 14  1  0
 14 15  1  0
 15 16  1  0
 16 17  1  0
 17 18  1  0
  2 19  1  0
 19 20  2  0
 20 21  1  0
 21 22  2  0
 22 23  1  0
 23 24  2  0
 24 25  1  0
 24 26  1  0
 26 27  2  0
 27 28  1  0
 28 29  2  0
 11  7  1  0
 18 13  1  0
 29 19  1  0
 28 22  1  0
  3 30  1  0
  4 31  1  0
  4 32  1  0
  8 33  1  0
  8 34  1  0
  9 35  1  0
  9 36  1  0
 10 37  1  0
 10 38  1  0
 11 39  1  1
 12 40  1  0
 12 41  1  0
 14 42  1  0
 14 43  1  0
 15 44  1  0
 15 45  1  0
 16 46  1  0
 16 47  1  0
 17 48  1  0
 17 49  1  0
 18 50  1  0
 18 51  1  0
 20 52  1  0
 21 53  1  0
 23 54  1  0
 26 55  1  0
 27 56  1  0
M  END
>  <smiles>  (29) 
O=C(NCC(=O)N1CCC[C@H]1CN1CCCCC1)c1ccc2cc(F)ccc2n1

>  <score_type>  (29) 
oracle

>  <origin>  (29) 
autodockgpu

>  <m_score__min__energy>  (29) 
-8.6999999999999993

>  <m_primary>  (29) 
energy

>  <rmsd>  (29) 
2.0926679173166174

>  <m_score__min__rmsd>  (29) 
2.0926679173166174

>  <meeko>  (29) 
{"free_energy": -8.22, "intermolecular_energy": -10.01, "internal_energy": -1.89, "cluster_size": 32, "cluster_id": 1, "rank_in_cluster": 14}

>  <energy>  (29) 
-7.98

>  <cluster_rmsd>  (29) 
1.6

>  <cluster>  (29) 
1

$$$$

     RDKit          3D

 56 59  0  0  0  0  0  0  0  0999 V2000
  139.8130   71.6130  220.9750 O   0  0  0  0  0  0  0  0  0  0  0  0
  139.7380   72.1780  222.0950 C   0  0  0  0  0  0  0  0  0  0  0  0
  139.6140   73.5850  222.2620 N   0  0  0  0  0  0  0  0  0  0  0  0
  139.5730   74.4300  221.0670 C   0  0  0  0  0  0  0  0  0  0  0  0
  140.6190   75.4690  221.2530 C   0  0  0  0  0  0  0  0  0  0  0  0
  141.2340   75.6300  222.3540 O   0  0  0  0  0  0  0  0  0  0  0  0
  140.9960   76.3490  220.2010 N   0  0  0  0  0  0  0  0  0  0  0  0
  140.6310   76.1480  218.8100 C   0  0  0  0  0  0  0  0  0  0  0  0
  141.5060   77.0570  218.0040 C   0  0  0  0  0  0  0  0  0  0  0  0
  142.5910   77.4570  219.0050 C   0  0  0  0  0  0  0  0  0  0  0  0
  141.7890   77.5790  220.2830 C   0  0  1  0  0  0  0  0  0  0  0  0
  140.8960   78.7940  220.2470 C   0  0  0  0  0  0  0  0  0  0  0  0
  140.9010   79.4070  221.5550 N   0  0  0  0  0  0  0  0  0  0  0  0
  141.3550   78.5340  222.5800 C   0  0  0  0  0  0  0  0  0  0  0  0
  141.7850   79.1340  223.8610 C   0  0  0  0  0  0  0  0  0  0  0  0
  142.7070   80.3190  223.5700 C   0  0  0  0  0  0  0  0  0  0  0  0
  141.8120   81.3120  222.8620 C   0  0  0  0  0  0  0  0  0  0  0  0
  141.3440   80.7440  221.5740 C   0  0  0  0  0  0  0  0  0  0  0  0
  139.7770   71.3510  223.3160 C   0  0  0  0  0  0  0  0  0  0  0  0
  139.2600   70.0710  223.3240 C   0  0  0  0  0  0  0  0  0  0  0  0
  139.2730   69.2590  224.4420 C   0  0  0  0  0  0  0  0  0  0  0  0
  139.8380   69.7710  225.5970 C   0  0  0  0  0  0  0  0  0  0  0  0
  139.8970   69.0490  226.7460 C   0  0  0  0  0  0  0  0  0  0  0  0
  140.4740   69.5980  227.8960 C   0  0  0  0  0  0  0  0  0  0  0  0
  140.5400   68.8850  229.0500 F   0  0  0  0  0  0  0  0  0  0  0  0
  140.9880   70.8810  227.8730 C   0  0  0  0  0  0  0  0  0  0  0  0
  140.9270   71.6160  226.7050 C   0  0  0  0  0  0  0  0  0  0  0  0
  140.3530   71.0540  225.5800 C   0  0  0  0  0  0  0  0  0  0  0  0
  140.3160   71.8070  224.4650 N   0  0  0  0  0  0  0  0  0  0  0  0
  139.5580   73.9790  223.2280 H   0  0  0  0  0  0  0  0  0  0  0  0
  139.7870   73.8309  220.1697 H   0  0  0  0  0  0  0  0  0  0  0  0
  138.5797   74.8831  220.9324 H   0  0  0  0  0  0  0  0  0  0  0  0
  140.8019   75.1008  218.5200 H   0  0  0  0  0  0  0  0  0  0  0  0
  139.5667   76.3697  218.6425 H   0  0  0  0  0  0  0  0  0  0  0  0
  141.9380   76.5289  217.1412 H   0  0  0  0  0  0  0  0  0  0  0  0
  140.9671   77.9165  217.5788 H   0  0  0  0  0  0  0  0  0  0  0  0
  143.3663   76.6812  219.0892 H   0  0  0  0  0  0  0  0  0  0  0  0
  143.1411   78.3693  218.7308 H   0  0  0  0  0  0  0  0  0  0  0  0
  142.3871   77.6922  221.1992 H   0  0  0  0  0  0  0  0  0  0  0  0
  141.2727   79.5091  219.5009 H   0  0  0  0  0  0  0  0  0  0  0  0
  139.8720   78.5004  219.9729 H   0  0  0  0  0  0  0  0  0  0  0  0
  140.5338   77.8373  222.8042 H   0  0  0  0  0  0  0  0  0  0  0  0
  142.2680   78.0783  222.1692 H   0  0  0  0  0  0  0  0  0  0  0  0
  140.9036   79.4809  224.4202 H   0  0  0  0  0  0  0  0  0  0  0  0
  142.3210   78.3843  224.4616 H   0  0  0  0  0  0  0  0  0  0  0  0
  143.1027   80.7453  224.5036 H   0  0  0  0  0  0  0  0  0  0  0  0
  143.5844   80.0361  222.9699 H   0  0  0  0  0  0  0  0  0  0  0  0
  140.9432   81.5374  223.4979 H   0  0  0  0  0  0  0  0  0  0  0  0
  142.3794   82.2337  222.6655 H   0  0  0  0  0  0  0  0  0  0  0  0
  140.5079   81.3690  221.2272 H   0  0  0  0  0  0  0  0  0  0  0  0
  142.2406   80.7418  220.9368 H   0  0  0  0  0  0  0  0  0  0  0  0
  138.8168   69.6790  222.3967 H   0  0  0  0  0  0  0  0  0  0  0  0
  138.8502   68.2439  224.4150 H   0  0  0  0  0  0  0  0  0  0  0  0
  139.4891   68.0278  226.7723 H   0  0  0  0  0  0  0  0  0  0  0  0
  141.4418   71.3130  228.7771 H   0  0  0  0  0  0  0  0  0  0  0  0
  141.3312   72.6385  226.6704 H   0  0  0  0  0  0  0  0  0  0  0  0
  1  2  2  0
  2  3  1  0
  3  4  1  0
  4  5  1  0
  5  6  2  0
  5  7  1  0
  7  8  1  0
  8  9  1  0
  9 10  1  0
 10 11  1  0
 11 12  1  0
 12 13  1  0
 13 14  1  0
 14 15  1  0
 15 16  1  0
 16 17  1  0
 17 18  1  0
  2 19  1  0
 19 20  2  0
 20 21  1  0
 21 22  2  0
 22 23  1  0
 23 24  2  0
 24 25  1  0
 24 26  1  0
 26 27  2  0
 27 28  1  0
 28 29  2  0
 11  7  1  0
 18 13  1  0
 29 19  1  0
 28 22  1  0
  3 30  1  0
  4 31  1  0
  4 32  1  0
  8 33  1  0
  8 34  1  0
  9 35  1  0
  9 36  1  0
 10 37  1  0
 10 38  1  0
 11 39  1  1
 12 40  1  0
 12 41  1  0
 14 42  1  0
 14 43  1  0
 15 44  1  0
 15 45  1  0
 16 46  1  0
 16 47  1  0
 17 48  1  0
 17 49  1  0
 18 50  1  0
 18 51  1  0
 20 52  1  0
 21 53  1  0
 23 54  1  0
 26 55  1  0
 27 56  1  0
M  END
>  <smiles>  (30) 
O=C(NCC(=O)N1CCC[C@H]1CN1CCCCC1)c1ccc2cc(F)ccc2n1

>  <score_type>  (30) 
oracle

>  <origin>  (30) 
autodockgpu

>  <m_score__min__energy>  (30) 
-8.6999999999999993

>  <m_primary>  (30) 
energy

>  <rmsd>  (30) 
1.8762301703332345

>  <m_score__min__rmsd>  (30) 
1.8762301703332345

>  <meeko>  (30) 
{"free_energy": -8.28, "intermolecular_energy": -10.07, "internal_energy": -1.84, "cluster_size": 32, "cluster_id": 1, "rank_in_cluster": 13}

>  <energy>  (30) 
-7.95

>  <cluster_rmsd>  (30) 
1.02

>  <cluster>  (30) 
1

$$$$

     RDKit          3D

 56 59  0  0  0  0  0  0  0  0999 V2000
  141.1840   72.0000  221.3450 O   0  0  0  0  0  0  0  0  0  0  0  0
  140.4910   72.4330  222.3010 C   0  0  0  0  0  0  0  0  0  0  0  0
  139.9100   73.7300  222.3290 N   0  0  0  0  0  0  0  0  0  0  0  0
  140.1270   74.6190  221.1860 C   0  0  0  0  0  0  0  0  0  0  0  0
  139.4770   75.9100  221.5300 C   0  0  0  0  0  0  0  0  0  0  0  0
  138.9700   76.1360  222.6740 O   0  0  0  0  0  0  0  0  0  0  0  0
  139.3870   76.9760  220.5930 N   0  0  0  0  0  0  0  0  0  0  0  0
  138.3610   77.0670  219.5690 C   0  0  0  0  0  0  0  0  0  0  0  0
  138.8260   78.1020  218.5920 C   0  0  0  0  0  0  0  0  0  0  0  0
  140.3020   78.2690  218.9520 C   0  0  0  0  0  0  0  0  0  0  0  0
  140.2580   78.1480  220.4600 C   0  0  1  0  0  0  0  0  0  0  0  0
  139.6170   79.3630  221.0820 C   0  0  0  0  0  0  0  0  0  0  0  0
  140.2390   79.6070  222.3630 N   0  0  0  0  0  0  0  0  0  0  0  0
  141.1680   78.5960  222.7350 C   0  0  0  0  0  0  0  0  0  0  0  0
  142.1480   78.9130  223.7960 C   0  0  0  0  0  0  0  0  0  0  0  0
  142.7670   80.2820  223.5080 C   0  0  0  0  0  0  0  0  0  0  0  0
  141.6060   81.2420  223.6380 C   0  0  0  0  0  0  0  0  0  0  0  0
  140.5880   80.9510  222.5980 C   0  0  0  0  0  0  0  0  0  0  0  0
  140.2570   71.5580  223.4650 C   0  0  0  0  0  0  0  0  0  0  0  0
  139.5780   70.3640  223.3320 C   0  0  0  0  0  0  0  0  0  0  0  0
  139.3340   69.5120  224.3930 C   0  0  0  0  0  0  0  0  0  0  0  0
  139.8020   69.8930  225.6380 C   0  0  0  0  0  0  0  0  0  0  0  0
  139.6110   69.1220  226.7400 C   0  0  0  0  0  0  0  0  0  0  0  0
  140.0970   69.5370  227.9850 C   0  0  0  0  0  0  0  0  0  0  0  0
  139.9130   68.7760  229.0940 F   0  0  0  0  0  0  0  0  0  0  0  0
  140.7750   70.7370  228.1030 C   0  0  0  0  0  0  0  0  0  0  0  0
  140.9690   71.5200  226.9820 C   0  0  0  0  0  0  0  0  0  0  0  0
  140.4800   71.0910  225.7620 C   0  0  0  0  0  0  0  0  0  0  0  0
  140.6930   71.8870  224.6980 N   0  0  0  0  0  0  0  0  0  0  0  0
  139.3460   74.0160  223.1610 H   0  0  0  0  0  0  0  0  0  0  0  0
  141.2040   74.7679  221.0188 H   0  0  0  0  0  0  0  0  0  0  0  0
  139.7052   74.1932  220.2636 H   0  0  0  0  0  0  0  0  0  0  0  0
  138.2395   76.0966  219.0655 H   0  0  0  0  0  0  0  0  0  0  0  0
  137.3880   77.3392  220.0039 H   0  0  0  0  0  0  0  0  0  0  0  0
  138.7081   77.7505  217.5564 H   0  0  0  0  0  0  0  0  0  0  0  0
  138.2554   79.0408  218.6477 H   0  0  0  0  0  0  0  0  0  0  0  0
  140.9178   77.4760  218.5027 H   0  0  0  0  0  0  0  0  0  0  0  0
  140.7498   79.2060  218.5892 H   0  0  0  0  0  0  0  0  0  0  0  0
  141.2396   78.0624  220.9490 H   0  0  0  0  0  0  0  0  0  0  0  0
  139.7624   80.2349  220.4273 H   0  0  0  0  0  0  0  0  0  0  0  0
  138.5383   79.1929  221.2142 H   0  0  0  0  0  0  0  0  0  0  0  0
  140.5868   77.7263  223.0752 H   0  0  0  0  0  0  0  0  0  0  0  0
  141.7787   78.4377  221.8339 H   0  0  0  0  0  0  0  0  0  0  0  0
  141.6410   78.9353  224.7719 H   0  0  0  0  0  0  0  0  0  0  0  0
  142.9356   78.1454  223.8164 H   0  0  0  0  0  0  0  0  0  0  0  0
  143.5533   80.5176  224.2403 H   0  0  0  0  0  0  0  0  0  0  0  0
  143.2481   80.3301  222.5199 H   0  0  0  0  0  0  0  0  0  0  0  0
  141.1516   81.1314  224.6336 H   0  0  0  0  0  0  0  0  0  0  0  0
  141.9719   82.2711  223.5072 H   0  0  0  0  0  0  0  0  0  0  0  0
  139.6679   81.4809  222.8856 H   0  0  0  0  0  0  0  0  0  0  0  0
  141.0584   81.2776  221.6588 H   0  0  0  0  0  0  0  0  0  0  0  0
  139.2137   70.0766  222.3347 H   0  0  0  0  0  0  0  0  0  0  0  0
  138.7885   68.5671  224.2527 H   0  0  0  0  0  0  0  0  0  0  0  0
  139.0718   68.1671  226.6534 H   0  0  0  0  0  0  0  0  0  0  0  0
  141.1563   71.0648  229.0813 H   0  0  0  0  0  0  0  0  0  0  0  0
  141.5075   72.4760  227.0591 H   0  0  0  0  0  0  0  0  0  0  0  0
  1  2  2  0
  2  3  1  0
  3  4  1  0
  4  5  1  0
  5  6  2  0
  5  7  1  0
  7  8  1  0
  8  9  1  0
  9 10  1  0
 10 11  1  0
 11 12  1  0
 12 13  1  0
 13 14  1  0
 14 15  1  0
 15 16  1  0
 16 17  1  0
 17 18  1  0
  2 19  1  0
 19 20  2  0
 20 21  1  0
 21 22  2  0
 22 23  1  0
 23 24  2  0
 24 25  1  0
 24 26  1  0
 26 27  2  0
 27 28  1  0
 28 29  2  0
 11  7  1  0
 18 13  1  0
 29 19  1  0
 28 22  1  0
  3 30  1  0
  4 31  1  0
  4 32  1  0
  8 33  1  0
  8 34  1  0
  9 35  1  0
  9 36  1  0
 10 37  1  0
 10 38  1  0
 11 39  1  1
 12 40  1  0
 12 41  1  0
 14 42  1  0
 14 43  1  0
 15 44  1  0
 15 45  1  0
 16 46  1  0
 16 47  1  0
 17 48  1  0
 17 49  1  0
 18 50  1  0
 18 51  1  0
 20 52  1  0
 21 53  1  0
 23 54  1  0
 26 55  1  0
 27 56  1  0
M  END
>  <smiles>  (31) 
O=C(NCC(=O)N1CCC[C@H]1CN1CCCCC1)c1ccc2cc(F)ccc2n1

>  <score_type>  (31) 
oracle

>  <origin>  (31) 
autodockgpu

>  <m_score__min__energy>  (31) 
-8.6999999999999993

>  <m_primary>  (31) 
energy

>  <rmsd>  (31) 
2.2028862111992122

>  <m_score__min__rmsd>  (31) 
2.2028862111992122

>  <meeko>  (31) 
{"free_energy": -7.73, "intermolecular_energy": -9.52, "internal_energy": -2.0, "cluster_size": 32, "cluster_id": 1, "rank_in_cluster": 32}

>  <energy>  (31) 
-7.83

>  <cluster_rmsd>  (31) 
1.39

>  <cluster>  (31) 
1

$$$$

     RDKit          3D

 56 59  0  0  0  0  0  0  0  0999 V2000
  139.6890   71.1670  220.9330 O   0  0  0  0  0  0  0  0  0  0  0  0
  139.4340   71.7310  222.0270 C   0  0  0  0  0  0  0  0  0  0  0  0
  138.9710   73.0710  222.1340 N   0  0  0  0  0  0  0  0  0  0  0  0
  138.7820   73.8460  220.9060 C   0  0  0  0  0  0  0  0  0  0  0  0
  139.7460   74.9740  220.9690 C   0  0  0  0  0  0  0  0  0  0  0  0
  140.8730   74.9440  220.3820 O   0  0  0  0  0  0  0  0  0  0  0  0
  139.4590   76.1630  221.6960 N   0  0  0  0  0  0  0  0  0  0  0  0
  138.3510   76.2960  222.6240 C   0  0  0  0  0  0  0  0  0  0  0  0
  138.1850   77.7610  222.8820 C   0  0  0  0  0  0  0  0  0  0  0  0
  139.0080   78.3980  221.7610 C   0  0  0  0  0  0  0  0  0  0  0  0
  140.1770   77.4410  221.6690 C   0  0  1  0  0  0  0  0  0  0  0  0
  141.0800   77.5730  222.8700 C   0  0  0  0  0  0  0  0  0  0  0  0
  141.8120   78.8130  222.7620 N   0  0  0  0  0  0  0  0  0  0  0  0
  141.8330   79.3370  221.4400 C   0  0  0  0  0  0  0  0  0  0  0  0
  142.1860   80.7620  221.2650 C   0  0  0  0  0  0  0  0  0  0  0  0
  141.3980   81.5970  222.2750 C   0  0  0  0  0  0  0  0  0  0  0  0
  141.9280   81.1420  223.6170 C   0  0  0  0  0  0  0  0  0  0  0  0
  141.6080   79.7080  223.8290 C   0  0  0  0  0  0  0  0  0  0  0  0
  139.6170   70.9740  223.2800 C   0  0  0  0  0  0  0  0  0  0  0  0
  139.2500   69.6460  223.3680 C   0  0  0  0  0  0  0  0  0  0  0  0
  139.4010   68.8960  224.5190 C   0  0  0  0  0  0  0  0  0  0  0  0
  139.9490   69.5250  225.6230 C   0  0  0  0  0  0  0  0  0  0  0  0
  140.1370   68.8700  226.7990 C   0  0  0  0  0  0  0  0  0  0  0  0
  140.6940   69.5360  227.8960 C   0  0  0  0  0  0  0  0  0  0  0  0
  140.8870   68.8930  229.0760 F   0  0  0  0  0  0  0  0  0  0  0  0
  141.0560   70.8670  227.7930 C   0  0  0  0  0  0  0  0  0  0  0  0
  140.8640   71.5320  226.5980 C   0  0  0  0  0  0  0  0  0  0  0  0
  140.3130   70.8540  225.5260 C   0  0  0  0  0  0  0  0  0  0  0  0
  140.1450   71.5430  224.3820 N   0  0  0  0  0  0  0  0  0  0  0  0
  138.7810   73.4690  223.0810 H   0  0  0  0  0  0  0  0  0  0  0  0
  138.9868   73.2194  220.0254 H   0  0  0  0  0  0  0  0  0  0  0  0
  137.7476   74.2101  220.8197 H   0  0  0  0  0  0  0  0  0  0  0  0
  137.4331   75.8818  222.1814 H   0  0  0  0  0  0  0  0  0  0  0  0
  138.5464   75.7477  223.5574 H   0  0  0  0  0  0  0  0  0  0  0  0
  137.1279   78.0578  222.8152 H   0  0  0  0  0  0  0  0  0  0  0  0
  138.5099   78.0656  223.8878 H   0  0  0  0  0  0  0  0  0  0  0  0
  138.4429   78.4349  220.8180 H   0  0  0  0  0  0  0  0  0  0  0  0
  139.2955   79.4425  221.9516 H   0  0  0  0  0  0  0  0  0  0  0  0
  140.8351   77.5917  220.8006 H   0  0  0  0  0  0  0  0  0  0  0  0
  140.4758   77.5782  223.7892 H   0  0  0  0  0  0  0  0  0  0  0  0
  141.7801   76.7255  222.9087 H   0  0  0  0  0  0  0  0  0  0  0  0
  142.5615   78.7463  220.8653 H   0  0  0  0  0  0  0  0  0  0  0  0
  140.7891   79.2682  221.1000 H   0  0  0  0  0  0  0  0  0  0  0  0
  143.2642   80.8985  221.4348 H   0  0  0  0  0  0  0  0  0  0  0  0
  141.9383   81.0837  220.2427 H   0  0  0  0  0  0  0  0  0  0  0  0
  141.5838   82.6707  222.1246 H   0  0  0  0  0  0  0  0  0  0  0  0
  140.3105   81.4611  222.1806 H   0  0  0  0  0  0  0  0  0  0  0  0
  143.0190   81.2797  223.6436 H   0  0  0  0  0  0  0  0  0  0  0  0
  141.4575   81.7386  224.4124 H   0  0  0  0  0  0  0  0  0  0  0  0
  142.2246   79.3578  224.6699 H   0  0  0  0  0  0  0  0  0  0  0  0
  140.5200   79.6941  223.9901 H   0  0  0  0  0  0  0  0  0  0  0  0
  138.8170   69.1620  222.4802 H   0  0  0  0  0  0  0  0  0  0  0  0
  139.0972   67.8394  224.5561 H   0  0  0  0  0  0  0  0  0  0  0  0
  139.8500   67.8119  226.8886 H   0  0  0  0  0  0  0  0  0  0  0  0
  141.4931   71.3913  228.6556 H   0  0  0  0  0  0  0  0  0  0  0  0
  141.1465   72.5905  226.4998 H   0  0  0  0  0  0  0  0  0  0  0  0
  1  2  2  0
  2  3  1  0
  3  4  1  0
  4  5  1  0
  5  6  2  0
  5  7  1  0
  7  8  1  0
  8  9  1  0
  9 10  1  0
 10 11  1  0
 11 12  1  0
 12 13  1  0
 13 14  1  0
 14 15  1  0
 15 16  1  0
 16 17  1  0
 17 18  1  0
  2 19  1  0
 19 20  2  0
 20 21  1  0
 21 22  2  0
 22 23  1  0
 23 24  2  0
 24 25  1  0
 24 26  1  0
 26 27  2  0
 27 28  1  0
 28 29  2  0
 11  7  1  0
 18 13  1  0
 29 19  1  0
 28 22  1  0
  3 30  1  0
  4 31  1  0
  4 32  1  0
  8 33  1  0
  8 34  1  0
  9 35  1  0
  9 36  1  0
 10 37  1  0
 10 38  1  0
 11 39  1  6
 12 40  1  0
 12 41  1  0
 14 42  1  0
 14 43  1  0
 15 44  1  0
 15 45  1  0
 16 46  1  0
 16 47  1  0
 17 48  1  0
 17 49  1  0
 18 50  1  0
 18 51  1  0
 20 52  1  0
 21 53  1  0
 23 54  1  0
 26 55  1  0
 27 56  1  0
M  END
>  <smiles>  (32) 
O=C(NCC(=O)N1CCC[C@H]1CN1CCCCC1)c1ccc2cc(F)ccc2n1

>  <score_type>  (32) 
oracle

>  <origin>  (32) 
autodockgpu

>  <m_score__min__energy>  (32) 
-8.6999999999999993

>  <m_primary>  (32) 
energy

>  <rmsd>  (32) 
2.6712816545534883

>  <m_score__min__rmsd>  (32) 
2.6712816545534883

>  <meeko>  (32) 
{"free_energy": -7.95, "intermolecular_energy": -9.74, "internal_energy": -1.42, "cluster_size": 32, "cluster_id": 1, "rank_in_cluster": 30}

>  <energy>  (32) 
-7.73

>  <cluster_rmsd>  (32) 
1.31

>  <cluster>  (32) 
1

$$$$

     RDKit          3D

 56 59  0  0  0  0  0  0  0  0999 V2000
  140.2450   71.8430  220.9760 O   0  0  0  0  0  0  0  0  0  0  0  0
  140.0250   72.3510  222.1040 C   0  0  0  0  0  0  0  0  0  0  0  0
  139.7470   73.7300  222.3080 N   0  0  0  0  0  0  0  0  0  0  0  0
  139.7170   74.6180  221.1430 C   0  0  0  0  0  0  0  0  0  0  0  0
  140.7170   75.6840  221.4030 C   0  0  0  0  0  0  0  0  0  0  0  0
  140.8220   76.2630  222.5300 O   0  0  0  0  0  0  0  0  0  0  0  0
  141.6240   76.1210  220.3980 N   0  0  0  0  0  0  0  0  0  0  0  0
  141.8040   77.5120  220.0210 C   0  0  0  0  0  0  0  0  0  0  0  0
  142.5430   77.5070  218.7190 C   0  0  0  0  0  0  0  0  0  0  0  0
  142.4050   76.0560  218.2560 C   0  0  0  0  0  0  0  0  0  0  0  0
  142.5220   75.3120  219.5690 C   0  0  1  0  0  0  0  0  0  0  0  0
  143.9330   75.3660  220.0980 C   0  0  0  0  0  0  0  0  0  0  0  0
  144.3300   74.0330  220.4870 N   0  0  0  0  0  0  0  0  0  0  0  0
  143.3210   73.0590  220.2560 C   0  0  0  0  0  0  0  0  0  0  0  0
  143.7250   71.6370  220.2280 C   0  0  0  0  0  0  0  0  0  0  0  0
  144.9720   71.4910  219.3550 C   0  0  0  0  0  0  0  0  0  0  0  0
  146.0340   72.2670  220.1020 C   0  0  0  0  0  0  0  0  0  0  0  0
  145.6610   73.7020  220.1680 C   0  0  0  0  0  0  0  0  0  0  0  0
  140.0500   71.4800  223.2950 C   0  0  0  0  0  0  0  0  0  0  0  0
  139.5940   70.1780  223.2340 C   0  0  0  0  0  0  0  0  0  0  0  0
  139.5970   69.3260  224.3210 C   0  0  0  0  0  0  0  0  0  0  0  0
  140.0850   69.8190  225.5190 C   0  0  0  0  0  0  0  0  0  0  0  0
  140.1290   69.0570  226.6420 C   0  0  0  0  0  0  0  0  0  0  0  0
  140.6280   69.5880  227.8360 C   0  0  0  0  0  0  0  0  0  0  0  0
  140.6770   68.8360  228.9660 F   0  0  0  0  0  0  0  0  0  0  0  0
  141.0810   70.8940  227.8830 C   0  0  0  0  0  0  0  0  0  0  0  0
  141.0360   71.6690  226.7400 C   0  0  0  0  0  0  0  0  0  0  0  0
  140.5390   71.1240  225.5700 C   0  0  0  0  0  0  0  0  0  0  0  0
  140.5150   71.9160  224.4830 N   0  0  0  0  0  0  0  0  0  0  0  0
  139.5750   74.0750  223.2790 H   0  0  0  0  0  0  0  0  0  0  0  0
  139.9830   74.0606  220.2328 H   0  0  0  0  0  0  0  0  0  0  0  0
  138.7133   75.0413  220.9899 H   0  0  0  0  0  0  0  0  0  0  0  0
  140.8269   78.0029  219.9015 H   0  0  0  0  0  0  0  0  0  0  0  0
  142.3606   78.0645  220.7923 H   0  0  0  0  0  0  0  0  0  0  0  0
  142.0811   78.1983  217.9987 H   0  0  0  0  0  0  0  0  0  0  0  0
  143.5883   77.8372  218.8105 H   0  0  0  0  0  0  0  0  0  0  0  0
  141.4308   75.8771  217.7775 H   0  0  0  0  0  0  0  0  0  0  0  0
  143.1439   75.7528  217.4996 H   0  0  0  0  0  0  0  0  0  0  0  0
  142.2780   74.2405  219.5203 H   0  0  0  0  0  0  0  0  0  0  0  0
  144.6085   75.7402  219.3146 H   0  0  0  0  0  0  0  0  0  0  0  0
  143.9841   76.0415  220.9647 H   0  0  0  0  0  0  0  0  0  0  0  0
  142.5699   73.1704  221.0519 H   0  0  0  0  0  0  0  0  0  0  0  0
  142.9674   73.2652  219.2350 H   0  0  0  0  0  0  0  0  0  0  0  0
  143.9483   71.2968  221.2500 H   0  0  0  0  0  0  0  0  0  0  0  0
  142.9085   71.0267  219.8148 H   0  0  0  0  0  0  0  0  0  0  0  0
  145.2579   70.4335  219.2552 H   0  0  0  0  0  0  0  0  0  0  0  0
  144.8179   71.8620  218.3310 H   0  0  0  0  0  0  0  0  0  0  0  0
  146.1271   71.8674  221.1226 H   0  0  0  0  0  0  0  0  0  0  0  0
  146.9935   72.1670  219.5736 H   0  0  0  0  0  0  0  0  0  0  0  0
  146.3039   74.1707  220.9276 H   0  0  0  0  0  0  0  0  0  0  0  0
  145.7903   74.0632  219.1371 H   0  0  0  0  0  0  0  0  0  0  0  0
  139.2102   69.8016  222.2743 H   0  0  0  0  0  0  0  0  0  0  0  0
  139.2254   68.2940  224.2379 H   0  0  0  0  0  0  0  0  0  0  0  0
  139.7706   68.0174  226.6127 H   0  0  0  0  0  0  0  0  0  0  0  0
  141.4735   71.3119  228.8218 H   0  0  0  0  0  0  0  0  0  0  0  0
  141.3921   72.7096  226.7604 H   0  0  0  0  0  0  0  0  0  0  0  0
  1  2  2  0
  2  3  1  0
  3  4  1  0
  4  5  1  0
  5  6  2  0
  5  7  1  0
  7  8  1  0
  8  9  1  0
  9 10  1  0
 10 11  1  0
 11 12  1  0
 12 13  1  0
 13 14  1  0
 14 15  1  0
 15 16  1  0
 16 17  1  0
 17 18  1  0
  2 19  1  0
 19 20  2  0
 20 21  1  0
 21 22  2  0
 22 23  1  0
 23 24  2  0
 24 25  1  0
 24 26  1  0
 26 27  2  0
 27 28  1  0
 28 29  2  0
 11  7  1  0
 18 13  1  0
 29 19  1  0
 28 22  1  0
  3 30  1  0
  4 31  1  0
  4 32  1  0
  8 33  1  0
  8 34  1  0
  9 35  1  0
  9 36  1  0
 10 37  1  0
 10 38  1  0
 11 39  1  6
 12 40  1  0
 12 41  1  0
 14 42  1  0
 14 43  1  0
 15 44  1  0
 15 45  1  0
 16 46  1  0
 16 47  1  0
 17 48  1  0
 17 49  1  0
 18 50  1  0
 18 51  1  0
 20 52  1  0
 21 53  1  0
 23 54  1  0
 26 55  1  0
 27 56  1  0
M  END
>  <smiles>  (33) 
O=C(NCC(=O)N1CCC[C@H]1CN1CCCCC1)c1ccc2cc(F)ccc2n1

>  <score_type>  (33) 
oracle

>  <origin>  (33) 
autodockgpu

>  <m_score__min__energy>  (33) 
-8.6999999999999993

>  <m_primary>  (33) 
energy

>  <rmsd>  (33) 
4.730519835066178

>  <m_score__min__rmsd>  (33) 
4.730519835066178

>  <meeko>  (33) 
{"free_energy": -7.81, "intermolecular_energy": -9.6, "internal_energy": -2.09, "cluster_size": 8, "cluster_id": 3, "rank_in_cluster": 2}

>  <energy>  (33) 
-8.67

>  <cluster_rmsd>  (33) 
0.0

>  <cluster>  (33) 
2

$$$$

     RDKit          3D

 56 59  0  0  0  0  0  0  0  0999 V2000
  139.6790   71.1320  220.9200 O   0  0  0  0  0  0  0  0  0  0  0  0
  139.6520   71.7380  222.0210 C   0  0  0  0  0  0  0  0  0  0  0  0
  139.5830   73.1530  222.1400 N   0  0  0  0  0  0  0  0  0  0  0  0
  139.5430   73.9570  220.9170 C   0  0  0  0  0  0  0  0  0  0  0  0
  140.1650   75.2640  221.2540 C   0  0  0  0  0  0  0  0  0  0  0  0
  140.0870   75.7780  222.4140 O   0  0  0  0  0  0  0  0  0  0  0  0
  140.8910   76.0180  220.2910 N   0  0  0  0  0  0  0  0  0  0  0  0
  140.8100   75.7920  218.8590 C   0  0  0  0  0  0  0  0  0  0  0  0
  141.9670   76.5180  218.2470 C   0  0  0  0  0  0  0  0  0  0  0  0
  142.8580   76.8140  219.4550 C   0  0  0  0  0  0  0  0  0  0  0  0
  141.8260   77.1240  220.5180 C   0  0  1  0  0  0  0  0  0  0  0  0
  141.1590   78.4510  220.2550 C   0  0  0  0  0  0  0  0  0  0  0  0
  141.0620   79.1730  221.5020 N   0  0  0  0  0  0  0  0  0  0  0  0
  141.4510   78.3970  222.6290 C   0  0  0  0  0  0  0  0  0  0  0  0
  141.7800   79.1110  223.8810 C   0  0  0  0  0  0  0  0  0  0  0  0
  142.7070   80.2840  223.5560 C   0  0  0  0  0  0  0  0  0  0  0  0
  141.8540   81.1970  222.7030 C   0  0  0  0  0  0  0  0  0  0  0  0
  141.4870   80.5130  221.4380 C   0  0  0  0  0  0  0  0  0  0  0  0
  139.6900   70.9530  223.2690 C   0  0  0  0  0  0  0  0  0  0  0  0
  139.2090   69.6600  223.3110 C   0  0  0  0  0  0  0  0  0  0  0  0
  139.2230   68.8860  224.4560 C   0  0  0  0  0  0  0  0  0  0  0  0
  139.7510   69.4520  225.6030 C   0  0  0  0  0  0  0  0  0  0  0  0
  139.8090   68.7700  226.7760 C   0  0  0  0  0  0  0  0  0  0  0  0
  140.3490   69.3730  227.9170 C   0  0  0  0  0  0  0  0  0  0  0  0
  140.4130   68.7010  229.0960 F   0  0  0  0  0  0  0  0  0  0  0  0
  140.8280   70.6690  227.8600 C   0  0  0  0  0  0  0  0  0  0  0  0
  140.7680   71.3620  226.6670 C   0  0  0  0  0  0  0  0  0  0  0  0
  140.2310   70.7470  225.5520 C   0  0  0  0  0  0  0  0  0  0  0  0
  140.1950   71.4610  224.4120 N   0  0  0  0  0  0  0  0  0  0  0  0
  139.5640   73.5820  223.0930 H   0  0  0  0  0  0  0  0  0  0  0  0
  140.1110   73.4605  220.1165 H   0  0  0  0  0  0  0  0  0  0  0  0
  138.5112   74.0869  220.5585 H   0  0  0  0  0  0  0  0  0  0  0  0
  140.8778   74.7162  218.6398 H   0  0  0  0  0  0  0  0  0  0  0  0
  139.8540   76.1542  218.4530 H   0  0  0  0  0  0  0  0  0  0  0  0
  142.4896   75.8850  217.5147 H   0  0  0  0  0  0  0  0  0  0  0  0
  141.6709   77.4206  217.6924 H   0  0  0  0  0  0  0  0  0  0  0  0
  143.4679   75.9405  219.7289 H   0  0  0  0  0  0  0  0  0  0  0  0
  143.5884   77.6195  219.2886 H   0  0  0  0  0  0  0  0  0  0  0  0
  142.2212   77.2029  221.5415 H   0  0  0  0  0  0  0  0  0  0  0  0
  141.7574   79.0307  219.5367 H   0  0  0  0  0  0  0  0  0  0  0  0
  140.1552   78.2903  219.8347 H   0  0  0  0  0  0  0  0  0  0  0  0
  140.6238   77.7074  222.8530 H   0  0  0  0  0  0  0  0  0  0  0  0
  142.3965   77.9242  222.3249 H   0  0  0  0  0  0  0  0  0  0  0  0
  140.8563   79.4881  224.3442 H   0  0  0  0  0  0  0  0  0  0  0  0
  142.2800   78.4246  224.5802 H   0  0  0  0  0  0  0  0  0  0  0  0
  143.0285   80.7951  224.4755 H   0  0  0  0  0  0  0  0  0  0  0  0
  143.6292   79.9672  223.0468 H   0  0  0  0  0  0  0  0  0  0  0  0
  140.9388   81.4601  223.2537 H   0  0  0  0  0  0  0  0  0  0  0  0
  142.4234   82.1085  222.4687 H   0  0  0  0  0  0  0  0  0  0  0  0
  140.6713   81.0916  220.9799 H   0  0  0  0  0  0  0  0  0  0  0  0
  142.4277   80.4720  220.8693 H   0  0  0  0  0  0  0  0  0  0  0  0
  138.7949   69.2249  222.3895 H   0  0  0  0  0  0  0  0  0  0  0  0
  138.8293   67.8589  224.4555 H   0  0  0  0  0  0  0  0  0  0  0  0
  139.4297   67.7388  226.8292 H   0  0  0  0  0  0  0  0  0  0  0  0
  141.2530   71.1436  228.7568 H   0  0  0  0  0  0  0  0  0  0  0  0
  141.1441   72.3938  226.6048 H   0  0  0  0  0  0  0  0  0  0  0  0
  1  2  2  0
  2  3  1  0
  3  4  1  0
  4  5  1  0
  5  6  2  0
  5  7  1  0
  7  8  1  0
  8  9  1  0
  9 10  1  0
 10 11  1  0
 11 12  1  0
 12 13  1  0
 13 14  1  0
 14 15  1  0
 15 16  1  0
 16 17  1  0
 17 18  1  0
  2 19  1  0
 19 20  2  0
 20 21  1  0
 21 22  2  0
 22 23  1  0
 23 24  2  0
 24 25  1  0
 24 26  1  0
 26 27  2  0
 27 28  1  0
 28 29  2  0
 11  7  1  0
 18 13  1  0
 29 19  1  0
 28 22  1  0
  3 30  1  0
  4 31  1  0
  4 32  1  0
  8 33  1  0
  8 34  1  0
  9 35  1  0
  9 36  1  0
 10 37  1  0
 10 38  1  0
 11 39  1  1
 12 40  1  0
 12 41  1  0
 14 42  1  0
 14 43  1  0
 15 44  1  0
 15 45  1  0
 16 46  1  0
 16 47  1  0
 17 48  1  0
 17 49  1  0
 18 50  1  0
 18 51  1  0
 20 52  1  0
 21 53  1  0
 23 54  1  0
 26 55  1  0
 27 56  1  0
M  END
>  <smiles>  (34) 
O=C(NCC(=O)N1CCC[C@H]1CN1CCCCC1)c1ccc2cc(F)ccc2n1

>  <score_type>  (34) 
oracle

>  <origin>  (34) 
autodockgpu

>  <m_score__min__energy>  (34) 
-8.6999999999999993

>  <m_primary>  (34) 
energy

>  <rmsd>  (34) 
1.8664778629211305

>  <m_score__min__rmsd>  (34) 
1.8664778629211305

>  <meeko>  (34) 
{"free_energy": -8.39, "intermolecular_energy": -10.18, "internal_energy": -1.98, "cluster_size": 32, "cluster_id": 1, "rank_in_cluster": 5}

>  <energy>  (34) 
-8.1

>  <cluster_rmsd>  (34) 
0.95

>  <cluster>  (34) 
2

$$$$

     RDKit          3D

 56 59  0  0  0  0  0  0  0  0999 V2000
  139.8210   71.6640  221.0080 O   0  0  0  0  0  0  0  0  0  0  0  0
  139.7600   72.2260  222.1310 C   0  0  0  0  0  0  0  0  0  0  0  0
  139.6100   73.6300  222.3020 N   0  0  0  0  0  0  0  0  0  0  0  0
  139.5240   74.4750  221.1100 C   0  0  0  0  0  0  0  0  0  0  0  0
  140.4530   75.6120  221.3340 C   0  0  0  0  0  0  0  0  0  0  0  0
  140.7620   76.0230  222.4970 O   0  0  0  0  0  0  0  0  0  0  0  0
  141.0570   76.3100  220.2520 N   0  0  0  0  0  0  0  0  0  0  0  0
  140.8890   75.9410  218.8580 C   0  0  0  0  0  0  0  0  0  0  0  0
  141.9490   76.6700  218.0930 C   0  0  0  0  0  0  0  0  0  0  0  0
  142.9030   77.1340  219.1950 C   0  0  0  0  0  0  0  0  0  0  0  0
  141.9320   77.4850  220.3020 C   0  0  1  0  0  0  0  0  0  0  0  0
  141.1630   78.7390  219.9690 C   0  0  0  0  0  0  0  0  0  0  0  0
  141.0300   79.5300  221.1700 N   0  0  0  0  0  0  0  0  0  0  0  0
  140.1990   78.9240  222.1510 C   0  0  0  0  0  0  0  0  0  0  0  0
  140.2990   79.4120  223.5430 C   0  0  0  0  0  0  0  0  0  0  0  0
  141.7760   79.5180  223.9270 C   0  0  0  0  0  0  0  0  0  0  0  0
  142.3160   80.5930  223.0100 C   0  0  0  0  0  0  0  0  0  0  0  0
  142.2200   80.1500  221.5970 C   0  0  0  0  0  0  0  0  0  0  0  0
  139.8440   71.3990  223.3490 C   0  0  0  0  0  0  0  0  0  0  0  0
  139.4160   70.0860  223.3480 C   0  0  0  0  0  0  0  0  0  0  0  0
  139.4750   69.2720  224.4640 C   0  0  0  0  0  0  0  0  0  0  0  0
  139.9920   69.8180  225.6260 C   0  0  0  0  0  0  0  0  0  0  0  0
  140.0910   69.0970  226.7720 C   0  0  0  0  0  0  0  0  0  0  0  0
  140.6180   69.6800  227.9300 C   0  0  0  0  0  0  0  0  0  0  0  0
  140.7220   68.9690  229.0820 F   0  0  0  0  0  0  0  0  0  0  0  0
  141.0420   70.9950  227.9160 C   0  0  0  0  0  0  0  0  0  0  0  0
  140.9410   71.7290  226.7500 C   0  0  0  0  0  0  0  0  0  0  0  0
  140.4180   71.1330  225.6170 C   0  0  0  0  0  0  0  0  0  0  0  0
  140.3400   71.8860  224.5050 N   0  0  0  0  0  0  0  0  0  0  0  0
  139.5670   74.0210  223.2700 H   0  0  0  0  0  0  0  0  0  0  0  0
  139.8265   73.9066  220.2181 H   0  0  0  0  0  0  0  0  0  0  0  0
  138.4952   74.8273  220.9444 H   0  0  0  0  0  0  0  0  0  0  0  0
  141.0114   74.8547  218.7353 H   0  0  0  0  0  0  0  0  0  0  0  0
  139.8847   76.2055  218.4955 H   0  0  0  0  0  0  0  0  0  0  0  0
  142.4580   76.0000  217.3844 H   0  0  0  0  0  0  0  0  0  0  0  0
  141.5553   77.4953  217.4815 H   0  0  0  0  0  0  0  0  0  0  0  0
  143.5872   76.3286  219.5003 H   0  0  0  0  0  0  0  0  0  0  0  0
  143.5648   77.9610  218.8982 H   0  0  0  0  0  0  0  0  0  0  0  0
  142.3936   77.6854  221.2802 H   0  0  0  0  0  0  0  0  0  0  0  0
  141.7054   79.3144  219.2044 H   0  0  0  0  0  0  0  0  0  0  0  0
  140.1683   78.4776  219.5789 H   0  0  0  0  0  0  0  0  0  0  0  0
  139.1567   79.0651  221.8291 H   0  0  0  0  0  0  0  0  0  0  0  0
  140.5469   77.8816  222.1997 H   0  0  0  0  0  0  0  0  0  0  0  0
  139.8251   80.4015  223.6221 H   0  0  0  0  0  0  0  0  0  0  0  0
  139.7875   78.7124  224.2204 H   0  0  0  0  0  0  0  0  0  0  0  0
  141.8858   79.8119  224.9813 H   0  0  0  0  0  0  0  0  0  0  0  0
  142.3108   78.5627  223.8206 H   0  0  0  0  0  0  0  0  0  0  0  0
  141.7297   81.5141  223.1436 H   0  0  0  0  0  0  0  0  0  0  0  0
  143.3707   80.7829  223.2580 H   0  0  0  0  0  0  0  0  0  0  0  0
  142.3681   81.0391  220.9664 H   0  0  0  0  0  0  0  0  0  0  0  0
  142.9829   79.3626  221.5075 H   0  0  0  0  0  0  0  0  0  0  0  0
  139.0090   69.6681  222.4154 H   0  0  0  0  0  0  0  0  0  0  0  0
  139.1244   68.2300  224.4297 H   0  0  0  0  0  0  0  0  0  0  0  0
  139.7554   68.0496  226.7905 H   0  0  0  0  0  0  0  0  0  0  0  0
  141.4566   71.4537  228.8258 H   0  0  0  0  0  0  0  0  0  0  0  0
  141.2733   72.7772  226.7231 H   0  0  0  0  0  0  0  0  0  0  0  0
  1  2  2  0
  2  3  1  0
  3  4  1  0
  4  5  1  0
  5  6  2  0
  5  7  1  0
  7  8  1  0
  8  9  1  0
  9 10  1  0
 10 11  1  0
 11 12  1  0
 12 13  1  0
 13 14  1  0
 14 15  1  0
 15 16  1  0
 16 17  1  0
 17 18  1  0
  2 19  1  0
 19 20  2  0
 20 21  1  0
 21 22  2  0
 22 23  1  0
 23 24  2  0
 24 25  1  0
 24 26  1  0
 26 27  2  0
 27 28  1  0
 28 29  2  0
 11  7  1  0
 18 13  1  0
 29 19  1  0
 28 22  1  0
  3 30  1  0
  4 31  1  0
  4 32  1  0
  8 33  1  0
  8 34  1  0
  9 35  1  0
  9 36  1  0
 10 37  1  0
 10 38  1  0
 11 39  1  1
 12 40  1  0
 12 41  1  0
 14 42  1  0
 14 43  1  0
 15 44  1  0
 15 45  1  0
 16 46  1  0
 16 47  1  0
 17 48  1  0
 17 49  1  0
 18 50  1  0
 18 51  1  0
 20 52  1  0
 21 53  1  0
 23 54  1  0
 26 55  1  0
 27 56  1  0
M  END
>  <smiles>  (35) 
O=C(NCC(=O)N1CCC[C@H]1CN1CCCCC1)c1ccc2cc(F)ccc2n1

>  <score_type>  (35) 
oracle

>  <origin>  (35) 
autodockgpu

>  <m_score__min__energy>  (35) 
-8.6999999999999993

>  <m_primary>  (35) 
energy

>  <rmsd>  (35) 
2.030303589650658

>  <m_score__min__rmsd>  (35) 
2.030303589650658

>  <meeko>  (35) 
{"free_energy": -8.1, "intermolecular_energy": -9.89, "internal_energy": -2.02, "cluster_size": 32, "cluster_id": 1, "rank_in_cluster": 23}

>  <energy>  (35) 
-8.1

>  <cluster_rmsd>  (35) 
1.01

>  <cluster>  (35) 
2

$$$$

     RDKit          3D

 56 59  0  0  0  0  0  0  0  0999 V2000
  139.6870   71.3620  220.9560 O   0  0  0  0  0  0  0  0  0  0  0  0
  139.6490   71.9530  222.0640 C   0  0  0  0  0  0  0  0  0  0  0  0
  139.5810   73.3670  222.2020 N   0  0  0  0  0  0  0  0  0  0  0  0
  139.5550   74.1880  220.9900 C   0  0  0  0  0  0  0  0  0  0  0  0
  140.3680   75.3960  221.2840 C   0  0  0  0  0  0  0  0  0  0  0  0
  140.5410   75.8310  222.4660 O   0  0  0  0  0  0  0  0  0  0  0  0
  141.0050   76.1390  220.2520 N   0  0  0  0  0  0  0  0  0  0  0  0
  140.9180   75.8030  218.8430 C   0  0  0  0  0  0  0  0  0  0  0  0
  141.9940   76.5820  218.1520 C   0  0  0  0  0  0  0  0  0  0  0  0
  142.8770   77.0420  219.3130 C   0  0  0  0  0  0  0  0  0  0  0  0
  141.8420   77.3360  220.3770 C   0  0  1  0  0  0  0  0  0  0  0  0
  141.0550   78.5770  220.0380 C   0  0  0  0  0  0  0  0  0  0  0  0
  141.0070   79.4260  221.2050 N   0  0  0  0  0  0  0  0  0  0  0  0
  140.3520   78.8190  222.3110 C   0  0  0  0  0  0  0  0  0  0  0  0
  140.5820   79.3950  223.6540 C   0  0  0  0  0  0  0  0  0  0  0  0
  142.0820   79.6300  223.8430 C   0  0  0  0  0  0  0  0  0  0  0  0
  142.4190   80.6860  222.8140 C   0  0  0  0  0  0  0  0  0  0  0  0
  142.1870   80.1540  221.4470 C   0  0  0  0  0  0  0  0  0  0  0  0
  139.6750   71.1510  223.3020 C   0  0  0  0  0  0  0  0  0  0  0  0
  139.1840   69.8610  223.3240 C   0  0  0  0  0  0  0  0  0  0  0  0
  139.1860   69.0710  224.4580 C   0  0  0  0  0  0  0  0  0  0  0  0
  139.7100   69.6180  225.6160 C   0  0  0  0  0  0  0  0  0  0  0  0
  139.7550   68.9200  226.7800 C   0  0  0  0  0  0  0  0  0  0  0  0
  140.2910   69.5040  227.9320 C   0  0  0  0  0  0  0  0  0  0  0  0
  140.3430   68.8150  229.1020 F   0  0  0  0  0  0  0  0  0  0  0  0
  140.7790   70.7970  227.8960 C   0  0  0  0  0  0  0  0  0  0  0  0
  140.7320   71.5070  226.7120 C   0  0  0  0  0  0  0  0  0  0  0  0
  140.1990   70.9110  225.5850 C   0  0  0  0  0  0  0  0  0  0  0  0
  140.1750   71.6410  224.4550 N   0  0  0  0  0  0  0  0  0  0  0  0
  139.5530   73.7830  223.1600 H   0  0  0  0  0  0  0  0  0  0  0  0
  139.9896   73.6333  220.1454 H   0  0  0  0  0  0  0  0  0  0  0  0
  138.5252   74.4581  220.7134 H   0  0  0  0  0  0  0  0  0  0  0  0
  141.0780   74.7242  218.6992 H   0  0  0  0  0  0  0  0  0  0  0  0
  139.9259   76.0488  218.4364 H   0  0  0  0  0  0  0  0  0  0  0  0
  142.5574   75.9460  217.4534 H   0  0  0  0  0  0  0  0  0  0  0  0
  141.6079   77.4124  217.5425 H   0  0  0  0  0  0  0  0  0  0  0  0
  143.5678   76.2478  219.6323 H   0  0  0  0  0  0  0  0  0  0  0  0
  143.5288   77.8947  219.0719 H   0  0  0  0  0  0  0  0  0  0  0  0
  142.2476   77.5225  221.3823 H   0  0  0  0  0  0  0  0  0  0  0  0
  141.5446   79.1117  219.2108 H   0  0  0  0  0  0  0  0  0  0  0  0
  140.0349   78.3026  219.7311 H   0  0  0  0  0  0  0  0  0  0  0  0
  139.2704   78.8644  222.1161 H   0  0  0  0  0  0  0  0  0  0  0  0
  140.7843   77.8090  222.3667 H   0  0  0  0  0  0  0  0  0  0  0  0
  140.0446   80.3507  223.7427 H   0  0  0  0  0  0  0  0  0  0  0  0
  140.2137   78.7018  224.4246 H   0  0  0  0  0  0  0  0  0  0  0  0
  142.2961   79.9920  224.8594 H   0  0  0  0  0  0  0  0  0  0  0  0
  142.6738   78.7114  223.7167 H   0  0  0  0  0  0  0  0  0  0  0  0
  141.7818   81.5681  222.9748 H   0  0  0  0  0  0  0  0  0  0  0  0
  143.4774   80.9671  222.9177 H   0  0  0  0  0  0  0  0  0  0  0  0
  142.1867   81.0125  220.7593 H   0  0  0  0  0  0  0  0  0  0  0  0
  142.9932   79.4199  221.3013 H   0  0  0  0  0  0  0  0  0  0  0  0
  138.7714   69.4418  222.3945 H   0  0  0  0  0  0  0  0  0  0  0  0
  138.7862   68.0464  224.4407 H   0  0  0  0  0  0  0  0  0  0  0  0
  139.3682   67.8909  226.8168 H   0  0  0  0  0  0  0  0  0  0  0  0
  141.2010   71.2563  228.8021 H   0  0  0  0  0  0  0  0  0  0  0  0
  141.1152   72.5371  226.6668 H   0  0  0  0  0  0  0  0  0  0  0  0
  1  2  2  0
  2  3  1  0
  3  4  1  0
  4  5  1  0
  5  6  2  0
  5  7  1  0
  7  8  1  0
  8  9  1  0
  9 10  1  0
 10 11  1  0
 11 12  1  0
 12 13  1  0
 13 14  1  0
 14 15  1  0
 15 16  1  0
 16 17  1  0
 17 18  1  0
  2 19  1  0
 19 20  2  0
 20 21  1  0
 21 22  2  0
 22 23  1  0
 23 24  2  0
 24 25  1  0
 24 26  1  0
 26 27  2  0
 27 28  1  0
 28 29  2  0
 11  7  1  0
 18 13  1  0
 29 19  1  0
 28 22  1  0
  3 30  1  0
  4 31  1  0
  4 32  1  0
  8 33  1  0
  8 34  1  0
  9 35  1  0
  9 36  1  0
 10 37  1  0
 10 38  1  0
 11 39  1  1
 12 40  1  0
 12 41  1  0
 14 42  1  0
 14 43  1  0
 15 44  1  0
 15 45  1  0
 16 46  1  0
 16 47  1  0
 17 48  1  0
 17 49  1  0
 18 50  1  0
 18 51  1  0
 20 52  1  0
 21 53  1  0
 23 54  1  0
 26 55  1  0
 27 56  1  0
M  END
>  <smiles>  (36) 
O=C(NCC(=O)N1CCC[C@H]1CN1CCCCC1)c1ccc2cc(F)ccc2n1

>  <score_type>  (36) 
oracle

>  <origin>  (36) 
autodockgpu

>  <m_score__min__energy>  (36) 
-8.6999999999999993

>  <m_primary>  (36) 
energy

>  <rmsd>  (36) 
1.9540477187830683

>  <m_score__min__rmsd>  (36) 
1.9540477187830683

>  <meeko>  (36) 
{"free_energy": -8.11, "intermolecular_energy": -9.9, "internal_energy": -2.05, "cluster_size": 32, "cluster_id": 1, "rank_in_cluster": 21}

>  <energy>  (36) 
-7.84

>  <cluster_rmsd>  (36) 
1.17

>  <cluster>  (36) 
2

$$$$

     RDKit          3D

 56 59  0  0  0  0  0  0  0  0999 V2000
  140.6380   73.1750  222.3590 O   0  0  0  0  0  0  0  0  0  0  0  0
  139.6400   72.5070  222.7280 C   0  0  0  0  0  0  0  0  0  0  0  0
  138.3420   72.6540  222.1660 N   0  0  0  0  0  0  0  0  0  0  0  0
  138.1480   73.6380  221.0990 C   0  0  0  0  0  0  0  0  0  0  0  0
  138.2720   74.9760  221.7350 C   0  0  0  0  0  0  0  0  0  0  0  0
  137.5090   75.3580  222.6770 O   0  0  0  0  0  0  0  0  0  0  0  0
  139.2620   75.9100  221.3240 N   0  0  0  0  0  0  0  0  0  0  0  0
  139.4250   76.3650  219.9540 C   0  0  0  0  0  0  0  0  0  0  0  0
  140.7640   77.0310  219.8830 C   0  0  0  0  0  0  0  0  0  0  0  0
  141.4400   76.5690  221.1740 C   0  0  0  0  0  0  0  0  0  0  0  0
  140.2770   76.5810  222.1420 C   0  0  1  0  0  0  0  0  0  0  0  0
  139.8560   77.9930  222.4650 C   0  0  0  0  0  0  0  0  0  0  0  0
  141.0230   78.8410  222.4250 N   0  0  0  0  0  0  0  0  0  0  0  0
  140.8400   80.0070  221.6310 C   0  0  0  0  0  0  0  0  0  0  0  0
  141.7800   81.1320  221.8240 C   0  0  0  0  0  0  0  0  0  0  0  0
  141.9430   81.3920  223.3230 C   0  0  0  0  0  0  0  0  0  0  0  0
  142.6010   80.1340  223.8430 C   0  0  0  0  0  0  0  0  0  0  0  0
  141.6950   78.9730  223.6550 C   0  0  0  0  0  0  0  0  0  0  0  0
  139.8060   71.5090  223.8010 C   0  0  0  0  0  0  0  0  0  0  0  0
  139.4490   70.1900  223.6070 C   0  0  0  0  0  0  0  0  0  0  0  0
  139.5860   69.2200  224.5820 C   0  0  0  0  0  0  0  0  0  0  0  0
  140.1080   69.6100  225.8020 C   0  0  0  0  0  0  0  0  0  0  0  0
  140.2810   68.7280  226.8210 C   0  0  0  0  0  0  0  0  0  0  0  0
  140.8110   69.1560  228.0430 C   0  0  0  0  0  0  0  0  0  0  0  0
  140.9890   68.2850  229.0690 F   0  0  0  0  0  0  0  0  0  0  0  0
  141.1640   70.4810  228.2230 C   0  0  0  0  0  0  0  0  0  0  0  0
  140.9880   71.3770  227.1870 C   0  0  0  0  0  0  0  0  0  0  0  0
  140.4630   70.9330  225.9880 C   0  0  0  0  0  0  0  0  0  0  0  0
  140.3100   71.8410  225.0070 N   0  0  0  0  0  0  0  0  0  0  0  0
  137.5610   72.0610  222.5290 H   0  0  0  0  0  0  0  0  0  0  0  0
  138.9166   73.5133  220.3220 H   0  0  0  0  0  0  0  0  0  0  0  0
  137.1672   73.5150  220.6163 H   0  0  0  0  0  0  0  0  0  0  0  0
  139.3889   75.5100  219.2629 H   0  0  0  0  0  0  0  0  0  0  0  0
  138.6206   77.0582  219.6670 H   0  0  0  0  0  0  0  0  0  0  0  0
  141.3268   76.6963  218.9991 H   0  0  0  0  0  0  0  0  0  0  0  0
  140.7021   78.1254  219.7910 H   0  0  0  0  0  0  0  0  0  0  0  0
  141.8639   75.5596  221.0671 H   0  0  0  0  0  0  0  0  0  0  0  0
  142.2898   77.1944  221.4849 H   0  0  0  0  0  0  0  0  0  0  0  0
  140.4782   76.1143  223.1176 H   0  0  0  0  0  0  0  0  0  0  0  0
  139.1205   78.3393  221.7240 H   0  0  0  0  0  0  0  0  0  0  0  0
  139.3984   78.0297  223.4646 H   0  0  0  0  0  0  0  0  0  0  0  0
  140.9096   79.6995  220.5771 H   0  0  0  0  0  0  0  0  0  0  0  0
  139.8651   80.4056  221.9483 H   0  0  0  0  0  0  0  0  0  0  0  0
  142.7560   80.8767  221.3855 H   0  0  0  0  0  0  0  0  0  0  0  0
  141.3878   82.0335  221.3305 H   0  0  0  0  0  0  0  0  0  0  0  0
  142.5821   82.2695  223.5004 H   0  0  0  0  0  0  0  0  0  0  0  0
  140.9864   81.6067  223.8219 H   0  0  0  0  0  0  0  0  0  0  0  0
  143.5373   79.9584  223.2930 H   0  0  0  0  0  0  0  0  0  0  0  0
  142.8156   80.2551  224.9151 H   0  0  0  0  0  0  0  0  0  0  0  0
  142.2980   78.0638  223.7955 H   0  0  0  0  0  0  0  0  0  0  0  0
  140.8902   79.1364  224.3869 H   0  0  0  0  0  0  0  0  0  0  0  0
  139.0360   69.8970  222.6305 H   0  0  0  0  0  0  0  0  0  0  0  0
  139.2909   68.1770  224.3947 H   0  0  0  0  0  0  0  0  0  0  0  0
  140.0030   67.6725  226.6845 H   0  0  0  0  0  0  0  0  0  0  0  0
  141.5814   70.8183  229.1832 H   0  0  0  0  0  0  0  0  0  0  0  0
  141.2631   72.4343  227.3148 H   0  0  0  0  0  0  0  0  0  0  0  0
  1  2  2  0
  2  3  1  0
  3  4  1  0
  4  5  1  0
  5  6  2  0
  5  7  1  0
  7  8  1  0
  8  9  1  0
  9 10  1  0
 10 11  1  0
 11 12  1  0
 12 13  1  0
 13 14  1  0
 14 15  1  0
 15 16  1  0
 16 17  1  0
 17 18  1  0
  2 19  1  0
 19 20  2  0
 20 21  1  0
 21 22  2  0
 22 23  1  0
 23 24  2  0
 24 25  1  0
 24 26  1  0
 26 27  2  0
 27 28  1  0
 28 29  2  0
 11  7  1  0
 18 13  1  0
 29 19  1  0
 28 22  1  0
  3 30  1  0
  4 31  1  0
  4 32  1  0
  8 33  1  0
  8 34  1  0
  9 35  1  0
  9 36  1  0
 10 37  1  0
 10 38  1  0
 11 39  1  1
 12 40  1  0
 12 41  1  0
 14 42  1  0
 14 43  1  0
 15 44  1  0
 15 45  1  0
 16 46  1  0
 16 47  1  0
 17 48  1  0
 17 49  1  0
 18 50  1  0
 18 51  1  0
 20 52  1  0
 21 53  1  0
 23 54  1  0
 26 55  1  0
 27 56  1  0
M  END
>  <smiles>  (37) 
O=C(NCC(=O)N1CCC[C@H]1CN1CCCCC1)c1ccc2cc(F)ccc2n1

>  <score_type>  (37) 
oracle

>  <origin>  (37) 
autodockgpu

>  <m_score__min__energy>  (37) 
-8.6999999999999993

>  <m_primary>  (37) 
energy

>  <rmsd>  (37) 
2.329049605702598

>  <m_score__min__rmsd>  (37) 
2.329049605702598

>  <meeko>  (37) 
{"free_energy": -8.16, "intermolecular_energy": -9.95, "internal_energy": -1.49, "cluster_size": 32, "cluster_id": 1, "rank_in_cluster": 18}

>  <energy>  (37) 
-7.74

>  <cluster_rmsd>  (37) 
1.16

>  <cluster>  (37) 
2

$$$$

     RDKit          3D

 56 59  0  0  0  0  0  0  0  0999 V2000
  140.4730   71.7780  221.0030 O   0  0  0  0  0  0  0  0  0  0  0  0
  140.1200   72.3120  222.0840 C   0  0  0  0  0  0  0  0  0  0  0  0
  139.8270   73.6970  222.2210 N   0  0  0  0  0  0  0  0  0  0  0  0
  139.9420   74.5570  221.0410 C   0  0  0  0  0  0  0  0  0  0  0  0
  140.7420   75.7370  221.4600 C   0  0  0  0  0  0  0  0  0  0  0  0
  140.9170   76.0450  222.6800 O   0  0  0  0  0  0  0  0  0  0  0  0
  141.3630   76.5950  220.5100 N   0  0  0  0  0  0  0  0  0  0  0  0
  141.4600   78.0350  220.6640 C   0  0  0  0  0  0  0  0  0  0  0  0
  141.8370   78.5820  219.3220 C   0  0  0  0  0  0  0  0  0  0  0  0
  141.5620   77.4040  218.3870 C   0  0  0  0  0  0  0  0  0  0  0  0
  142.0030   76.2350  219.2420 C   0  0  1  0  0  0  0  0  0  0  0  0
  143.5040   76.2090  219.3880 C   0  0  0  0  0  0  0  0  0  0  0  0
  143.9450   74.8340  219.3720 N   0  0  0  0  0  0  0  0  0  0  0  0
  144.7840   74.5020  220.4710 C   0  0  0  0  0  0  0  0  0  0  0  0
  144.9700   73.0710  220.7930 C   0  0  0  0  0  0  0  0  0  0  0  0
  143.6060   72.3800  220.7940 C   0  0  0  0  0  0  0  0  0  0  0  0
  143.1440   72.4830  219.3570 C   0  0  0  0  0  0  0  0  0  0  0  0
  142.9580   73.9080  218.9850 C   0  0  0  0  0  0  0  0  0  0  0  0
  139.9950   71.4700  223.2890 C   0  0  0  0  0  0  0  0  0  0  0  0
  139.4080   70.2220  223.2270 C   0  0  0  0  0  0  0  0  0  0  0  0
  139.2690   69.3980  224.3270 C   0  0  0  0  0  0  0  0  0  0  0  0
  139.7480   69.8640  225.5390 C   0  0  0  0  0  0  0  0  0  0  0  0
  139.6570   69.1260  226.6750 C   0  0  0  0  0  0  0  0  0  0  0  0
  140.1520   69.6270  227.8840 C   0  0  0  0  0  0  0  0  0  0  0  0
  140.0670   68.8990  229.0270 F   0  0  0  0  0  0  0  0  0  0  0  0
  140.7380   70.8790  227.9310 C   0  0  0  0  0  0  0  0  0  0  0  0
  140.8300   71.6290  226.7750 C   0  0  0  0  0  0  0  0  0  0  0  0
  140.3350   71.1140  225.5920 C   0  0  0  0  0  0  0  0  0  0  0  0
  140.4470   71.8810  224.4910 N   0  0  0  0  0  0  0  0  0  0  0  0
  139.5390   74.0650  223.1560 H   0  0  0  0  0  0  0  0  0  0  0  0
  140.4522   74.0207  220.2273 H   0  0  0  0  0  0  0  0  0  0  0  0
  138.9518   74.8578  220.6680 H   0  0  0  0  0  0  0  0  0  0  0  0
  140.4926   78.4488  220.9849 H   0  0  0  0  0  0  0  0  0  0  0  0
  142.2055   78.3040  221.4268 H   0  0  0  0  0  0  0  0  0  0  0  0
  141.2150   79.4503  219.0590 H   0  0  0  0  0  0  0  0  0  0  0  0
  142.8751   78.9427  219.2746 H   0  0  0  0  0  0  0  0  0  0  0  0
  140.4946   77.3347  218.1303 H   0  0  0  0  0  0  0  0  0  0  0  0
  142.0757   77.4705  217.4166 H   0  0  0  0  0  0  0  0  0  0  0  0
  141.7382   75.2428  218.8479 H   0  0  0  0  0  0  0  0  0  0  0  0
  143.9670   76.7563  218.5537 H   0  0  0  0  0  0  0  0  0  0  0  0
  143.7977   76.6867  220.3343 H   0  0  0  0  0  0  0  0  0  0  0  0
  145.7787   74.9226  220.2622 H   0  0  0  0  0  0  0  0  0  0  0  0
  144.2657   74.9166  221.3482 H   0  0  0  0  0  0  0  0  0  0  0  0
  145.6194   72.6043  220.0377 H   0  0  0  0  0  0  0  0  0  0  0  0
  145.4384   72.9706  221.7832 H   0  0  0  0  0  0  0  0  0  0  0  0
  143.7008   71.3277  221.1000 H   0  0  0  0  0  0  0  0  0  0  0  0
  142.8988   72.8389  221.5006 H   0  0  0  0  0  0  0  0  0  0  0  0
  143.8994   72.0300  218.6980 H   0  0  0  0  0  0  0  0  0  0  0  0
  142.1866   71.9528  219.2464 H   0  0  0  0  0  0  0  0  0  0  0  0
  142.8834   73.9510  217.8884 H   0  0  0  0  0  0  0  0  0  0  0  0
  142.0617   74.2187  219.5419 H   0  0  0  0  0  0  0  0  0  0  0  0
  139.0332   69.8669  222.2557 H   0  0  0  0  0  0  0  0  0  0  0  0
  138.7954   68.4087  224.2428 H   0  0  0  0  0  0  0  0  0  0  0  0
  139.1920   68.1296  226.6447 H   0  0  0  0  0  0  0  0  0  0  0  0
  141.1274   71.2739  228.8809 H   0  0  0  0  0  0  0  0  0  0  0  0
  141.2928   72.6267  226.7957 H   0  0  0  0  0  0  0  0  0  0  0  0
  1  2  2  0
  2  3  1  0
  3  4  1  0
  4  5  1  0
  5  6  2  0
  5  7  1  0
  7  8  1  0
  8  9  1  0
  9 10  1  0
 10 11  1  0
 11 12  1  0
 12 13  1  0
 13 14  1  0
 14 15  1  0
 15 16  1  0
 16 17  1  0
 17 18  1  0
  2 19  1  0
 19 20  2  0
 20 21  1  0
 21 22  2  0
 22 23  1  0
 23 24  2  0
 24 25  1  0
 24 26  1  0
 26 27  2  0
 27 28  1  0
 28 29  2  0
 11  7  1  0
 18 13  1  0
 29 19  1  0
 28 22  1  0
  3 30  1  0
  4 31  1  0
  4 32  1  0
  8 33  1  0
  8 34  1  0
  9 35  1  0
  9 36  1  0
 10 37  1  0
 10 38  1  0
 11 39  1  6
 12 40  1  0
 12 41  1  0
 14 42  1  0
 14 43  1  0
 15 44  1  0
 15 45  1  0
 16 46  1  0
 16 47  1  0
 17 48  1  0
 17 49  1  0
 18 50  1  0
 18 51  1  0
 20 52  1  0
 21 53  1  0
 23 54  1  0
 26 55  1  0
 27 56  1  0
M  END
>  <smiles>  (38) 
O=C(NCC(=O)N1CCC[C@H]1CN1CCCCC1)c1ccc2cc(F)ccc2n1

>  <score_type>  (38) 
oracle

>  <origin>  (38) 
autodockgpu

>  <m_score__min__energy>  (38) 
-8.6999999999999993

>  <m_primary>  (38) 
energy

>  <rmsd>  (38) 
4.369200868641481

>  <m_score__min__rmsd>  (38) 
4.369200868641481

>  <meeko>  (38) 
{"free_energy": -7.59, "intermolecular_energy": -9.38, "internal_energy": -2.38, "cluster_size": 8, "cluster_id": 3, "rank_in_cluster": 7}

>  <energy>  (38) 
-7.7

>  <cluster_rmsd>  (38) 
1.18

>  <cluster>  (38) 
2

$$$$

     RDKit          3D

 56 59  0  0  0  0  0  0  0  0999 V2000
  139.5260   71.2690  221.0550 O   0  0  0  0  0  0  0  0  0  0  0  0
  139.5540   71.8420  222.1740 C   0  0  0  0  0  0  0  0  0  0  0  0
  139.5180   73.2540  222.3370 N   0  0  0  0  0  0  0  0  0  0  0  0
  139.4440   74.0950  221.1410 C   0  0  0  0  0  0  0  0  0  0  0  0
  140.0170   75.4130  221.5200 C   0  0  0  0  0  0  0  0  0  0  0  0
  139.9550   75.8690  222.7050 O   0  0  0  0  0  0  0  0  0  0  0  0
  140.6720   76.2450  220.5710 N   0  0  0  0  0  0  0  0  0  0  0  0
  140.5150   76.1110  219.1340 C   0  0  0  0  0  0  0  0  0  0  0  0
  141.6220   76.9020  218.5090 C   0  0  0  0  0  0  0  0  0  0  0  0
  142.5720   77.1400  219.6830 C   0  0  0  0  0  0  0  0  0  0  0  0
  141.5960   77.3560  220.8190 C   0  0  1  0  0  0  0  0  0  0  0  0
  140.8890   78.6810  220.6810 C   0  0  0  0  0  0  0  0  0  0  0  0
  141.6440   79.6820  221.3970 N   0  0  0  0  0  0  0  0  0  0  0  0
  141.0250   80.9620  221.3880 C   0  0  0  0  0  0  0  0  0  0  0  0
  141.4660   81.9520  222.3940 C   0  0  0  0  0  0  0  0  0  0  0  0
  141.5260   81.2760  223.7650 C   0  0  0  0  0  0  0  0  0  0  0  0
  142.6180   80.2400  223.6130 C   0  0  0  0  0  0  0  0  0  0  0  0
  142.2220   79.2310  222.5990 C   0  0  0  0  0  0  0  0  0  0  0  0
  139.6290   71.0190  223.3950 C   0  0  0  0  0  0  0  0  0  0  0  0
  139.1840   69.7110  223.4000 C   0  0  0  0  0  0  0  0  0  0  0  0
  139.2330   68.9020  224.5190 C   0  0  0  0  0  0  0  0  0  0  0  0
  139.7570   69.4460  225.6790 C   0  0  0  0  0  0  0  0  0  0  0  0
  139.8460   68.7290  226.8290 C   0  0  0  0  0  0  0  0  0  0  0  0
  140.3810   69.3100  227.9830 C   0  0  0  0  0  0  0  0  0  0  0  0
  140.4760   68.6030  229.1390 F   0  0  0  0  0  0  0  0  0  0  0  0
  140.8220   70.6200  227.9640 C   0  0  0  0  0  0  0  0  0  0  0  0
  140.7310   71.3490  226.7940 C   0  0  0  0  0  0  0  0  0  0  0  0
  140.1990   70.7550  225.6650 C   0  0  0  0  0  0  0  0  0  0  0  0
  140.1300   71.5040  224.5490 N   0  0  0  0  0  0  0  0  0  0  0  0
  139.5460   73.6540  223.3020 H   0  0  0  0  0  0  0  0  0  0  0  0
  140.0282   73.6468  220.3238 H   0  0  0  0  0  0  0  0  0  0  0  0
  138.4071   74.1970  220.7882 H   0  0  0  0  0  0  0  0  0  0  0  0
  140.5911   75.0536  218.8405 H   0  0  0  0  0  0  0  0  0  0  0  0
  139.5308   76.4767  218.8059 H   0  0  0  0  0  0  0  0  0  0  0  0
  142.1155   76.3299  217.7095 H   0  0  0  0  0  0  0  0  0  0  0  0
  141.2778   77.8313  218.0317 H   0  0  0  0  0  0  0  0  0  0  0  0
  143.2136   76.2652  219.8649 H   0  0  0  0  0  0  0  0  0  0  0  0
  143.2752   77.9720  219.5304 H   0  0  0  0  0  0  0  0  0  0  0  0
  142.0464   77.3778  221.8223 H   0  0  0  0  0  0  0  0  0  0  0  0
  140.8224   78.9567  219.6182 H   0  0  0  0  0  0  0  0  0  0  0  0
  139.8722   78.6096  221.0946 H   0  0  0  0  0  0  0  0  0  0  0  0
  141.2000   81.4033  220.3957 H   0  0  0  0  0  0  0  0  0  0  0  0
  139.9736   80.7612  221.6417 H   0  0  0  0  0  0  0  0  0  0  0  0
  142.4631   82.3312  222.1258 H   0  0  0  0  0  0  0  0  0  0  0  0
  140.7565   82.7921  222.4246 H   0  0  0  0  0  0  0  0  0  0  0  0
  141.7832   82.0034  224.5490 H   0  0  0  0  0  0  0  0  0  0  0  0
  140.5629   80.8362  224.0634 H   0  0  0  0  0  0  0  0  0  0  0  0
  143.5469   80.7341  223.2920 H   0  0  0  0  0  0  0  0  0  0  0  0
  142.7772   79.7384  224.5789 H   0  0  0  0  0  0  0  0  0  0  0  0
  143.1268   78.6649  222.3327 H   0  0  0  0  0  0  0  0  0  0  0  0
  141.4200   78.6574  223.0866 H   0  0  0  0  0  0  0  0  0  0  0  0
  138.7714   69.2941  222.4694 H   0  0  0  0  0  0  0  0  0  0  0  0
  138.8692   67.8643  224.4892 H   0  0  0  0  0  0  0  0  0  0  0  0
  139.4957   67.6865  226.8528 H   0  0  0  0  0  0  0  0  0  0  0  0
  141.2415   71.0777  228.8720 H   0  0  0  0  0  0  0  0  0  0  0  0
  141.0786   72.3921  226.7612 H   0  0  0  0  0  0  0  0  0  0  0  0
  1  2  2  0
  2  3  1  0
  3  4  1  0
  4  5  1  0
  5  6  2  0
  5  7  1  0
  7  8  1  0
  8  9  1  0
  9 10  1  0
 10 11  1  0
 11 12  1  0
 12 13  1  0
 13 14  1  0
 14 15  1  0
 15 16  1  0
 16 17  1  0
 17 18  1  0
  2 19  1  0
 19 20  2  0
 20 21  1  0
 21 22  2  0
 22 23  1  0
 23 24  2  0
 24 25  1  0
 24 26  1  0
 26 27  2  0
 27 28  1  0
 28 29  2  0
 11  7  1  0
 18 13  1  0
 29 19  1  0
 28 22  1  0
  3 30  1  0
  4 31  1  0
  4 32  1  0
  8 33  1  0
  8 34  1  0
  9 35  1  0
  9 36  1  0
 10 37  1  0
 10 38  1  0
 11 39  1  1
 12 40  1  0
 12 41  1  0
 14 42  1  0
 14 43  1  0
 15 44  1  0
 15 45  1  0
 16 46  1  0
 16 47  1  0
 17 48  1  0
 17 49  1  0
 18 50  1  0
 18 51  1  0
 20 52  1  0
 21 53  1  0
 23 54  1  0
 26 55  1  0
 27 56  1  0
M  END
>  <smiles>  (39) 
O=C(NCC(=O)N1CCC[C@H]1CN1CCCCC1)c1ccc2cc(F)ccc2n1

>  <score_type>  (39) 
oracle

>  <origin>  (39) 
autodockgpu

>  <m_score__min__energy>  (39) 
-8.6999999999999993

>  <m_primary>  (39) 
energy

>  <rmsd>  (39) 
2.101596969325084

>  <m_score__min__rmsd>  (39) 
2.101596969325084

>  <meeko>  (39) 
{"free_energy": -8.2, "intermolecular_energy": -9.99, "internal_energy": -1.94, "cluster_size": 32, "cluster_id": 1, "rank_in_cluster": 16}

>  <energy>  (39) 
-7.48

>  <cluster_rmsd>  (39) 
1.51

>  <cluster>  (39) 
2

$$$$

     RDKit          3D

 56 59  0  0  0  0  0  0  0  0999 V2000
  139.4830   71.2750  221.0440 O   0  0  0  0  0  0  0  0  0  0  0  0
  139.5430   71.8450  222.1630 C   0  0  0  0  0  0  0  0  0  0  0  0
  139.5270   73.2570  222.3300 N   0  0  0  0  0  0  0  0  0  0  0  0
  139.4380   74.1020  221.1370 C   0  0  0  0  0  0  0  0  0  0  0  0
  140.0440   75.4090  221.5040 C   0  0  0  0  0  0  0  0  0  0  0  0
  140.0180   75.8640  222.6900 O   0  0  0  0  0  0  0  0  0  0  0  0
  140.6940   76.2290  220.5410 N   0  0  0  0  0  0  0  0  0  0  0  0
  140.5270   76.0780  219.1060 C   0  0  0  0  0  0  0  0  0  0  0  0
  141.6300   76.8610  218.4650 C   0  0  0  0  0  0  0  0  0  0  0  0
  142.5900   77.1100  219.6290 C   0  0  0  0  0  0  0  0  0  0  0  0
  141.6220   77.3400  220.7700 C   0  0  1  0  0  0  0  0  0  0  0  0
  140.9170   78.6650  220.6220 C   0  0  0  0  0  0  0  0  0  0  0  0
  141.6520   79.6630  221.3640 N   0  0  0  0  0  0  0  0  0  0  0  0
  141.0340   80.9430  221.3420 C   0  0  0  0  0  0  0  0  0  0  0  0
  141.4460   81.9290  222.3640 C   0  0  0  0  0  0  0  0  0  0  0  0
  141.4660   81.2480  223.7330 C   0  0  0  0  0  0  0  0  0  0  0  0
  142.5610   80.2110  223.6090 C   0  0  0  0  0  0  0  0  0  0  0  0
  142.1940   79.2060  222.5800 C   0  0  0  0  0  0  0  0  0  0  0  0
  139.6330   71.0180  223.3800 C   0  0  0  0  0  0  0  0  0  0  0  0
  139.1980   69.7080  223.3840 C   0  0  0  0  0  0  0  0  0  0  0  0
  139.2610   68.8950  224.5000 C   0  0  0  0  0  0  0  0  0  0  0  0
  139.7910   69.4380  225.6570 C   0  0  0  0  0  0  0  0  0  0  0  0
  139.8950   68.7170  226.8030 C   0  0  0  0  0  0  0  0  0  0  0  0
  140.4360   69.2980  227.9560 C   0  0  0  0  0  0  0  0  0  0  0  0
  140.5450   68.5870  229.1080 F   0  0  0  0  0  0  0  0  0  0  0  0
  140.8670   70.6110  227.9370 C   0  0  0  0  0  0  0  0  0  0  0  0
  140.7610   71.3440  226.7710 C   0  0  0  0  0  0  0  0  0  0  0  0
  140.2240   70.7500  225.6440 C   0  0  0  0  0  0  0  0  0  0  0  0
  140.1410   71.5030  224.5310 N   0  0  0  0  0  0  0  0  0  0  0  0
  139.5810   73.6540  223.2950 H   0  0  0  0  0  0  0  0  0  0  0  0
  139.9934   73.6452  220.3046 H   0  0  0  0  0  0  0  0  0  0  0  0
  138.3946   74.2232  220.8104 H   0  0  0  0  0  0  0  0  0  0  0  0
  140.6007   75.0172  218.8244 H   0  0  0  0  0  0  0  0  0  0  0  0
  139.5408   76.4401  218.7801 H   0  0  0  0  0  0  0  0  0  0  0  0
  142.1165   76.2801  217.6676 H   0  0  0  0  0  0  0  0  0  0  0  0
  141.2831   77.7860  217.9813 H   0  0  0  0  0  0  0  0  0  0  0  0
  143.2315   76.2361  219.8155 H   0  0  0  0  0  0  0  0  0  0  0  0
  143.2938   77.9387  219.4622 H   0  0  0  0  0  0  0  0  0  0  0  0
  142.0795   77.3712  221.7699 H   0  0  0  0  0  0  0  0  0  0  0  0
  140.8777   78.9473  219.5596 H   0  0  0  0  0  0  0  0  0  0  0  0
  139.8899   78.5897  221.0086 H   0  0  0  0  0  0  0  0  0  0  0  0
  141.2378   81.3880  220.3569 H   0  0  0  0  0  0  0  0  0  0  0  0
  139.9757   80.7417  221.5645 H   0  0  0  0  0  0  0  0  0  0  0  0
  142.4506   82.3088  222.1263 H   0  0  0  0  0  0  0  0  0  0  0  0
  140.7363   82.7693  222.3772 H   0  0  0  0  0  0  0  0  0  0  0  0
  141.7013   81.9723  224.5268 H   0  0  0  0  0  0  0  0  0  0  0  0
  140.4943   80.8081  224.0017 H   0  0  0  0  0  0  0  0  0  0  0  0
  143.4994   80.7052  223.3172 H   0  0  0  0  0  0  0  0  0  0  0  0
  142.6911   79.7055  224.5773 H   0  0  0  0  0  0  0  0  0  0  0  0
  143.1056   78.6400  222.3379 H   0  0  0  0  0  0  0  0  0  0  0  0
  141.3780   78.6306  223.0416 H   0  0  0  0  0  0  0  0  0  0  0  0
  138.7815   69.2914  222.4551 H   0  0  0  0  0  0  0  0  0  0  0  0
  138.9032   67.8553  224.4695 H   0  0  0  0  0  0  0  0  0  0  0  0
  139.5527   67.6719  226.8254 H   0  0  0  0  0  0  0  0  0  0  0  0
  141.2910   71.0686  228.8430 H   0  0  0  0  0  0  0  0  0  0  0  0
  141.1005   72.3898  226.7395 H   0  0  0  0  0  0  0  0  0  0  0  0
  1  2  2  0
  2  3  1  0
  3  4  1  0
  4  5  1  0
  5  6  2  0
  5  7  1  0
  7  8  1  0
  8  9  1  0
  9 10  1  0
 10 11  1  0
 11 12  1  0
 12 13  1  0
 13 14  1  0
 14 15  1  0
 15 16  1  0
 16 17  1  0
 17 18  1  0
  2 19  1  0
 19 20  2  0
 20 21  1  0
 21 22  2  0
 22 23  1  0
 23 24  2  0
 24 25  1  0
 24 26  1  0
 26 27  2  0
 27 28  1  0
 28 29  2  0
 11  7  1  0
 18 13  1  0
 29 19  1  0
 28 22  1  0
  3 30  1  0
  4 31  1  0
  4 32  1  0
  8 33  1  0
  8 34  1  0
  9 35  1  0
  9 36  1  0
 10 37  1  0
 10 38  1  0
 11 39  1  1
 12 40  1  0
 12 41  1  0
 14 42  1  0
 14 43  1  0
 15 44  1  0
 15 45  1  0
 16 46  1  0
 16 47  1  0
 17 48  1  0
 17 49  1  0
 18 50  1  0
 18 51  1  0
 20 52  1  0
 21 53  1  0
 23 54  1  0
 26 55  1  0
 27 56  1  0
M  END
>  <smiles>  (40) 
O=C(NCC(=O)N1CCC[C@H]1CN1CCCCC1)c1ccc2cc(F)ccc2n1

>  <score_type>  (40) 
oracle

>  <origin>  (40) 
autodockgpu

>  <m_score__min__energy>  (40) 
-8.6999999999999993

>  <m_primary>  (40) 
energy

>  <rmsd>  (40) 
2.090828489603261

>  <m_score__min__rmsd>  (40) 
2.090828489603261

>  <meeko>  (40) 
{"free_energy": -8.19, "intermolecular_energy": -9.98, "internal_energy": -1.95, "cluster_size": 32, "cluster_id": 1, "rank_in_cluster": 17}

>  <energy>  (40) 
-7.83

>  <cluster_rmsd>  (40) 
0.0

>  <cluster>  (40) 
3

$$$$

     RDKit          3D

 56 59  0  0  0  0  0  0  0  0999 V2000
  141.7660   73.4820  220.7480 O   0  0  0  0  0  0  0  0  0  0  0  0
  140.9940   74.2170  221.4150 C   0  0  0  0  0  0  0  0  0  0  0  0
  139.9190   73.7220  222.2030 N   0  0  0  0  0  0  0  0  0  0  0  0
  139.6890   72.2760  222.2440 C   0  0  0  0  0  0  0  0  0  0  0  0
  138.2870   72.0880  222.7000 C   0  0  0  0  0  0  0  0  0  0  0  0
  137.4200   73.0150  222.6410 O   0  0  0  0  0  0  0  0  0  0  0  0
  137.8330   70.8490  223.2300 N   0  0  0  0  0  0  0  0  0  0  0  0
  137.0760   69.8730  222.4680 C   0  0  0  0  0  0  0  0  0  0  0  0
  136.4930   68.9160  223.4610 C   0  0  0  0  0  0  0  0  0  0  0  0
  136.6710   69.6550  224.7870 C   0  0  0  0  0  0  0  0  0  0  0  0
  138.0170   70.3160  224.5830 C   0  0  1  0  0  0  0  0  0  0  0  0
  139.1300   69.2980  224.6110 C   0  0  0  0  0  0  0  0  0  0  0  0
  140.1160   69.7210  225.5770 N   0  0  0  0  0  0  0  0  0  0  0  0
  140.3950   71.1140  225.5190 C   0  0  0  0  0  0  0  0  0  0  0  0
  141.0600   71.7360  226.6840 C   0  0  0  0  0  0  0  0  0  0  0  0
  140.3620   71.2710  227.9630 C   0  0  0  0  0  0  0  0  0  0  0  0
  140.6310   69.7830  228.0060 C   0  0  0  0  0  0  0  0  0  0  0  0
  139.9910   69.1180  226.8430 C   0  0  0  0  0  0  0  0  0  0  0  0
  141.2030   75.6770  221.3920 C   0  0  0  0  0  0  0  0  0  0  0  0
  141.8700   76.2830  220.3460 C   0  0  0  0  0  0  0  0  0  0  0  0
  142.0900   77.6460  220.2810 C   0  0  0  0  0  0  0  0  0  0  0  0
  141.6090   78.4220  221.3210 C   0  0  0  0  0  0  0  0  0  0  0  0
  141.7760   79.7690  221.3450 C   0  0  0  0  0  0  0  0  0  0  0  0
  141.2780   80.5230  222.4120 C   0  0  0  0  0  0  0  0  0  0  0  0
  141.4380   81.8720  222.4480 F   0  0  0  0  0  0  0  0  0  0  0  0
  140.6110   79.9030  223.4530 C   0  0  0  0  0  0  0  0  0  0  0  0
  140.4420   78.5320  223.4280 C   0  0  0  0  0  0  0  0  0  0  0  0
  140.9420   77.8060  222.3630 C   0  0  0  0  0  0  0  0  0  0  0  0
  140.7530   76.4740  222.3820 N   0  0  0  0  0  0  0  0  0  0  0  0
  139.3210   74.3990  222.7290 H   0  0  0  0  0  0  0  0  0  0  0  0
  139.8254   71.8404  221.2432 H   0  0  0  0  0  0  0  0  0  0  0  0
  140.3990   71.7778  222.9205 H   0  0  0  0  0  0  0  0  0  0  0  0
  136.2735   70.3710  221.9041 H   0  0  0  0  0  0  0  0  0  0  0  0
  137.7174   69.3511  221.7426 H   0  0  0  0  0  0  0  0  0  0  0  0
  135.4297   68.7270  223.2522 H   0  0  0  0  0  0  0  0  0  0  0  0
  136.9727   67.9262  223.4459 H   0  0  0  0  0  0  0  0  0  0  0  0
  135.8765   70.3998  224.9422 H   0  0  0  0  0  0  0  0  0  0  0  0
  136.6188   69.0061  225.6737 H   0  0  0  0  0  0  0  0  0  0  0  0
  138.2921   71.0583  225.3468 H   0  0  0  0  0  0  0  0  0  0  0  0
  138.7269   68.3158  224.8986 H   0  0  0  0  0  0  0  0  0  0  0  0
  139.5900   69.2162  223.6152 H   0  0  0  0  0  0  0  0  0  0  0  0
  141.0409   71.2825  224.6447 H   0  0  0  0  0  0  0  0  0  0  0  0
  139.4051   71.5919  225.4791 H   0  0  0  0  0  0  0  0  0  0  0  0
  142.1173   71.4335  226.7100 H   0  0  0  0  0  0  0  0  0  0  0  0
  140.9997   72.8315  226.6051 H   0  0  0  0  0  0  0  0  0  0  0  0
  140.7883   71.7711  228.8451 H   0  0  0  0  0  0  0  0  0  0  0  0
  139.2877   71.5075  227.9692 H   0  0  0  0  0  0  0  0  0  0  0  0
  141.7165   69.6079  227.9739 H   0  0  0  0  0  0  0  0  0  0  0  0
  140.2135   69.3671  228.9348 H   0  0  0  0  0  0  0  0  0  0  0  0
  140.4222   68.1089  226.7670 H   0  0  0  0  0  0  0  0  0  0  0  0
  138.9140   69.1666  227.0615 H   0  0  0  0  0  0  0  0  0  0  0  0
  142.2437   75.6518  219.5263 H   0  0  0  0  0  0  0  0  0  0  0  0
  142.6275   78.0972  219.4340 H   0  0  0  0  0  0  0  0  0  0  0  0
  142.3056   80.2697  220.5211 H   0  0  0  0  0  0  0  0  0  0  0  0
  140.2189   80.4957  224.2926 H   0  0  0  0  0  0  0  0  0  0  0  0
  139.9144   78.0227  224.2480 H   0  0  0  0  0  0  0  0  0  0  0  0
  1  2  2  0
  2  3  1  0
  3  4  1  0
  4  5  1  0
  5  6  2  0
  5  7  1  0
  7  8  1  0
  8  9  1  0
  9 10  1  0
 10 11  1  0
 11 12  1  0
 12 13  1  0
 13 14  1  0
 14 15  1  0
 15 16  1  0
 16 17  1  0
 17 18  1  0
  2 19  1  0
 19 20  2  0
 20 21  1  0
 21 22  2  0
 22 23  1  0
 23 24  2  0
 24 25  1  0
 24 26  1  0
 26 27  2  0
 27 28  1  0
 28 29  2  0
 11  7  1  0
 18 13  1  0
 29 19  1  0
 28 22  1  0
  3 30  1  0
  4 31  1  0
  4 32  1  0
  8 33  1  0
  8 34  1  0
  9 35  1  0
  9 36  1  0
 10 37  1  0
 10 38  1  0
 11 39  1  1
 12 40  1  0
 12 41  1  0
 14 42  1  0
 14 43  1  0
 15 44  1  0
 15 45  1  0
 16 46  1  0
 16 47  1  0
 17 48  1  0
 17 49  1  0
 18 50  1  0
 18 51  1  0
 20 52  1  0
 21 53  1  0
 23 54  1  0
 26 55  1  0
 27 56  1  0
M  END
>  <smiles>  (41) 
O=C(NCC(=O)N1CCC[C@H]1CN1CCCCC1)c1ccc2cc(F)ccc2n1

>  <score_type>  (41) 
oracle

>  <origin>  (41) 
autodockgpu

>  <m_score__min__energy>  (41) 
-8.6999999999999993

>  <m_primary>  (41) 
energy

>  <rmsd>  (41) 
9.464002480759078

>  <m_score__min__rmsd>  (41) 
9.464002480759078

>  <meeko>  (41) 
{"free_energy": -7.48, "intermolecular_energy": -9.27, "internal_energy": -2.12, "cluster_size": 7, "cluster_id": 2, "rank_in_cluster": 7}

>  <energy>  (41) 
-7.81

>  <cluster_rmsd>  (41) 
0.68

>  <cluster>  (41) 
3

$$$$

     RDKit          3D

 56 59  0  0  0  0  0  0  0  0999 V2000
  139.8970   71.6140  220.9440 O   0  0  0  0  0  0  0  0  0  0  0  0
  139.8020   72.1930  222.0560 C   0  0  0  0  0  0  0  0  0  0  0  0
  139.6460   73.5980  222.2020 N   0  0  0  0  0  0  0  0  0  0  0  0
  139.5930   74.4260  220.9960 C   0  0  0  0  0  0  0  0  0  0  0  0
  140.5560   75.5370  221.2080 C   0  0  0  0  0  0  0  0  0  0  0  0
  140.9340   75.9030  222.3650 O   0  0  0  0  0  0  0  0  0  0  0  0
  141.1170   76.2600  220.1180 N   0  0  0  0  0  0  0  0  0  0  0  0
  140.9180   75.9040  218.7250 C   0  0  0  0  0  0  0  0  0  0  0  0
  141.9430   76.6640  217.9410 C   0  0  0  0  0  0  0  0  0  0  0  0
  142.9160   77.1340  219.0230 C   0  0  0  0  0  0  0  0  0  0  0  0
  141.9680   77.4520  220.1590 C   0  0  1  0  0  0  0  0  0  0  0  0
  141.1650   78.6940  219.8630 C   0  0  0  0  0  0  0  0  0  0  0  0
  141.0100   79.4460  221.0860 N   0  0  0  0  0  0  0  0  0  0  0  0
  140.1840   78.7940  222.0420 C   0  0  0  0  0  0  0  0  0  0  0  0
  140.2670   79.2420  223.4490 C   0  0  0  0  0  0  0  0  0  0  0  0
  141.7400   79.3640  223.8460 C   0  0  0  0  0  0  0  0  0  0  0  0
  142.2640   80.4770  222.9660 C   0  0  0  0  0  0  0  0  0  0  0  0
  142.1860   80.0740  221.5390 C   0  0  0  0  0  0  0  0  0  0  0  0
  139.8530   71.3830  223.2880 C   0  0  0  0  0  0  0  0  0  0  0  0
  139.3800   70.0860  223.3070 C   0  0  0  0  0  0  0  0  0  0  0  0
  139.4050   69.2900  224.4360 C   0  0  0  0  0  0  0  0  0  0  0  0
  139.9350   69.8360  225.5910 C   0  0  0  0  0  0  0  0  0  0  0  0
  140.0040   69.1310  226.7500 C   0  0  0  0  0  0  0  0  0  0  0  0
  140.5450   69.7150  227.9000 C   0  0  0  0  0  0  0  0  0  0  0  0
  140.6190   69.0200  229.0650 F   0  0  0  0  0  0  0  0  0  0  0  0
  141.0150   71.0150  227.8670 C   0  0  0  0  0  0  0  0  0  0  0  0
  140.9450   71.7310  226.6880 C   0  0  0  0  0  0  0  0  0  0  0  0
  140.4060   71.1350  225.5630 C   0  0  0  0  0  0  0  0  0  0  0  0
  140.3590   71.8720  224.4380 N   0  0  0  0  0  0  0  0  0  0  0  0
  139.5750   74.0040  223.1630 H   0  0  0  0  0  0  0  0  0  0  0  0
  139.8826   73.8343  220.1151 H   0  0  0  0  0  0  0  0  0  0  0  0
  138.5767   74.8074  220.8182 H   0  0  0  0  0  0  0  0  0  0  0  0
  141.0585   74.8220  218.5856 H   0  0  0  0  0  0  0  0  0  0  0  0
  139.8991   76.1519  218.3928 H   0  0  0  0  0  0  0  0  0  0  0  0
  142.4463   76.0131  217.2110 H   0  0  0  0  0  0  0  0  0  0  0  0
  141.5168   77.4883  217.3503 H   0  0  0  0  0  0  0  0  0  0  0  0
  143.6240   76.3391  219.3003 H   0  0  0  0  0  0  0  0  0  0  0  0
  143.5531   77.9777  218.7193 H   0  0  0  0  0  0  0  0  0  0  0  0
  142.4513   77.6508  221.1269 H   0  0  0  0  0  0  0  0  0  0  0  0
  141.6915   79.3062  219.1160 H   0  0  0  0  0  0  0  0  0  0  0  0
  140.1776   78.4166  219.4652 H   0  0  0  0  0  0  0  0  0  0  0  0
  139.1412   78.9252  221.7175 H   0  0  0  0  0  0  0  0  0  0  0  0
  140.5501   77.7569  222.0609 H   0  0  0  0  0  0  0  0  0  0  0  0
  139.7742   80.2198  223.5546 H   0  0  0  0  0  0  0  0  0  0  0  0
  139.7649   78.5128  224.1019 H   0  0  0  0  0  0  0  0  0  0  0  0
  141.8380   79.6271  224.9095 H   0  0  0  0  0  0  0  0  0  0  0  0
  142.2939   78.4228  223.7139 H   0  0  0  0  0  0  0  0  0  0  0  0
  141.6582   81.3816  223.1229 H   0  0  0  0  0  0  0  0  0  0  0  0
  143.3128   80.6812  223.2273 H   0  0  0  0  0  0  0  0  0  0  0  0
  142.3225   80.9837  220.9358 H   0  0  0  0  0  0  0  0  0  0  0  0
  142.9638   79.3036  221.4316 H   0  0  0  0  0  0  0  0  0  0  0  0
  138.9635   69.6665  222.3793 H   0  0  0  0  0  0  0  0  0  0  0  0
  139.0179   68.2605  224.4170 H   0  0  0  0  0  0  0  0  0  0  0  0
  139.6327   68.0961  226.7843 H   0  0  0  0  0  0  0  0  0  0  0  0
  141.4406   71.4746  228.7712 H   0  0  0  0  0  0  0  0  0  0  0  0
  141.3148   72.7661  226.6445 H   0  0  0  0  0  0  0  0  0  0  0  0
  1  2  2  0
  2  3  1  0
  3  4  1  0
  4  5  1  0
  5  6  2  0
  5  7  1  0
  7  8  1  0
  8  9  1  0
  9 10  1  0
 10 11  1  0
 11 12  1  0
 12 13  1  0
 13 14  1  0
 14 15  1  0
 15 16  1  0
 16 17  1  0
 17 18  1  0
  2 19  1  0
 19 20  2  0
 20 21  1  0
 21 22  2  0
 22 23  1  0
 23 24  2  0
 24 25  1  0
 24 26  1  0
 26 27  2  0
 27 28  1  0
 28 29  2  0
 11  7  1  0
 18 13  1  0
 29 19  1  0
 28 22  1  0
  3 30  1  0
  4 31  1  0
  4 32  1  0
  8 33  1  0
  8 34  1  0
  9 35  1  0
  9 36  1  0
 10 37  1  0
 10 38  1  0
 11 39  1  1
 12 40  1  0
 12 41  1  0
 14 42  1  0
 14 43  1  0
 15 44  1  0
 15 45  1  0
 16 46  1  0
 16 47  1  0
 17 48  1  0
 17 49  1  0
 18 50  1  0
 18 51  1  0
 20 52  1  0
 21 53  1  0
 23 54  1  0
 26 55  1  0
 27 56  1  0
M  END
>  <smiles>  (42) 
O=C(NCC(=O)N1CCC[C@H]1CN1CCCCC1)c1ccc2cc(F)ccc2n1

>  <score_type>  (42) 
oracle

>  <origin>  (42) 
autodockgpu

>  <m_score__min__energy>  (42) 
-8.6999999999999993

>  <m_primary>  (42) 
energy

>  <rmsd>  (42) 
2.0240748383423046

>  <m_score__min__rmsd>  (42) 
2.0240748383423046

>  <meeko>  (42) 
{"free_energy": -8.1, "intermolecular_energy": -9.89, "internal_energy": -2.01, "cluster_size": 32, "cluster_id": 1, "rank_in_cluster": 22}

>  <energy>  (42) 
-7.81

>  <cluster_rmsd>  (42) 
0.26

>  <cluster>  (42) 
3

$$$$

     RDKit          3D

 56 59  0  0  0  0  0  0  0  0999 V2000
  140.6440   71.7220  221.0550 O   0  0  0  0  0  0  0  0  0  0  0  0
  140.2280   72.2530  222.1160 C   0  0  0  0  0  0  0  0  0  0  0  0
  139.8650   73.6230  222.2210 N   0  0  0  0  0  0  0  0  0  0  0  0
  139.9810   74.4710  221.0330 C   0  0  0  0  0  0  0  0  0  0  0  0
  140.6780   75.7090  221.4690 C   0  0  0  0  0  0  0  0  0  0  0  0
  140.6250   76.1380  222.6640 O   0  0  0  0  0  0  0  0  0  0  0  0
  141.4530   76.4880  220.5660 N   0  0  0  0  0  0  0  0  0  0  0  0
  141.6140   77.9270  220.6730 C   0  0  0  0  0  0  0  0  0  0  0  0
  142.1740   78.3920  219.3640 C   0  0  0  0  0  0  0  0  0  0  0  0
  141.9410   77.1880  218.4510 C   0  0  0  0  0  0  0  0  0  0  0  0
  142.2140   76.0380  219.3970 C   0  0  1  0  0  0  0  0  0  0  0  0
  143.6840   75.9400  219.7200 C   0  0  0  0  0  0  0  0  0  0  0  0
  144.0990   74.5650  219.5670 N   0  0  0  0  0  0  0  0  0  0  0  0
  145.0220   74.1450  220.5630 C   0  0  0  0  0  0  0  0  0  0  0  0
  145.2110   72.6930  220.7640 C   0  0  0  0  0  0  0  0  0  0  0  0
  143.8410   72.0170  220.8310 C   0  0  0  0  0  0  0  0  0  0  0  0
  143.2610   72.2300  219.4500 C   0  0  0  0  0  0  0  0  0  0  0  0
  143.0670   73.6800  219.1990 C   0  0  0  0  0  0  0  0  0  0  0  0
  140.1010   71.4220  223.3280 C   0  0  0  0  0  0  0  0  0  0  0  0
  139.5510   70.1570  223.2690 C   0  0  0  0  0  0  0  0  0  0  0  0
  139.4110   69.3420  224.3760 C   0  0  0  0  0  0  0  0  0  0  0  0
  139.8510   69.8360  225.5920 C   0  0  0  0  0  0  0  0  0  0  0  0
  139.7560   69.1090  226.7350 C   0  0  0  0  0  0  0  0  0  0  0  0
  140.2100   69.6390  227.9480 C   0  0  0  0  0  0  0  0  0  0  0  0
  140.1210   68.9220  229.0980 F   0  0  0  0  0  0  0  0  0  0  0  0
  140.7590   70.9070  227.9920 C   0  0  0  0  0  0  0  0  0  0  0  0
  140.8550   71.6460  226.8290 C   0  0  0  0  0  0  0  0  0  0  0  0
  140.4010   71.1030  225.6410 C   0  0  0  0  0  0  0  0  0  0  0  0
  140.5150   71.8590  224.5340 N   0  0  0  0  0  0  0  0  0  0  0  0
  139.5270   73.9900  223.1390 H   0  0  0  0  0  0  0  0  0  0  0  0
  140.5662   73.9585  220.2552 H   0  0  0  0  0  0  0  0  0  0  0  0
  138.9928   74.6983  220.6067 H   0  0  0  0  0  0  0  0  0  0  0  0
  140.6414   78.4050  220.8613 H   0  0  0  0  0  0  0  0  0  0  0  0
  142.2811   78.1912  221.5068 H   0  0  0  0  0  0  0  0  0  0  0  0
  141.6372   79.2787  218.9957 H   0  0  0  0  0  0  0  0  0  0  0  0
  143.2295   78.6958  219.4244 H   0  0  0  0  0  0  0  0  0  0  0  0
  140.9077   77.1626  218.0746 H   0  0  0  0  0  0  0  0  0  0  0  0
  142.5654   77.1831  217.5454 H   0  0  0  0  0  0  0  0  0  0  0  0
  141.9410   75.0440  219.0131 H   0  0  0  0  0  0  0  0  0  0  0  0
  144.2578   76.5789  219.0326 H   0  0  0  0  0  0  0  0  0  0  0  0
  143.8650   76.2744  220.7522 H   0  0  0  0  0  0  0  0  0  0  0  0
  146.0023   74.5695  220.3007 H   0  0  0  0  0  0  0  0  0  0  0  0
  144.5866   74.4995  221.5089 H   0  0  0  0  0  0  0  0  0  0  0  0
  145.7871   72.2764  219.9246 H   0  0  0  0  0  0  0  0  0  0  0  0
  145.7590   72.5159  221.7012 H   0  0  0  0  0  0  0  0  0  0  0  0
  143.9445   70.9441  221.0506 H   0  0  0  0  0  0  0  0  0  0  0  0
  143.2033   72.4296  221.6267 H   0  0  0  0  0  0  0  0  0  0  0  0
  143.9506   71.8192  218.6979 H   0  0  0  0  0  0  0  0  0  0  0  0
  142.2892   71.7189  219.3837 H   0  0  0  0  0  0  0  0  0  0  0  0
  142.9011   73.8042  218.1187 H   0  0  0  0  0  0  0  0  0  0  0  0
  142.2255   73.9582  219.8505 H   0  0  0  0  0  0  0  0  0  0  0  0
  139.2079   69.7800  222.2943 H   0  0  0  0  0  0  0  0  0  0  0  0
  138.9669   68.3390  224.2941 H   0  0  0  0  0  0  0  0  0  0  0  0
  139.3204   68.0993  226.7073 H   0  0  0  0  0  0  0  0  0  0  0  0
  141.1164   71.3239  228.9451 H   0  0  0  0  0  0  0  0  0  0  0  0
  141.2884   72.6568  226.8476 H   0  0  0  0  0  0  0  0  0  0  0  0
  1  2  2  0
  2  3  1  0
  3  4  1  0
  4  5  1  0
  5  6  2  0
  5  7  1  0
  7  8  1  0
  8  9  1  0
  9 10  1  0
 10 11  1  0
 11 12  1  0
 12 13  1  0
 13 14  1  0
 14 15  1  0
 15 16  1  0
 16 17  1  0
 17 18  1  0
  2 19  1  0
 19 20  2  0
 20 21  1  0
 21 22  2  0
 22 23  1  0
 23 24  2  0
 24 25  1  0
 24 26  1  0
 26 27  2  0
 27 28  1  0
 28 29  2  0
 11  7  1  0
 18 13  1  0
 29 19  1  0
 28 22  1  0
  3 30  1  0
  4 31  1  0
  4 32  1  0
  8 33  1  0
  8 34  1  0
  9 35  1  0
  9 36  1  0
 10 37  1  0
 10 38  1  0
 11 39  1  6
 12 40  1  0
 12 41  1  0
 14 42  1  0
 14 43  1  0
 15 44  1  0
 15 45  1  0
 16 46  1  0
 16 47  1  0
 17 48  1  0
 17 49  1  0
 18 50  1  0
 18 51  1  0
 20 52  1  0
 21 53  1  0
 23 54  1  0
 26 55  1  0
 27 56  1  0
M  END
>  <smiles>  (43) 
O=C(NCC(=O)N1CCC[C@H]1CN1CCCCC1)c1ccc2cc(F)ccc2n1

>  <score_type>  (43) 
oracle

>  <origin>  (43) 
autodockgpu

>  <m_score__min__energy>  (43) 
-8.6999999999999993

>  <m_primary>  (43) 
energy

>  <rmsd>  (43) 
4.506238148696009

>  <m_score__min__rmsd>  (43) 
4.506238148696009

>  <meeko>  (43) 
{"free_energy": -7.83, "intermolecular_energy": -9.62, "internal_energy": -2.3, "cluster_size": 8, "cluster_id": 3, "rank_in_cluster": 1}

>  <energy>  (43) 
-7.8

>  <cluster_rmsd>  (43) 
0.54

>  <cluster>  (43) 
3

$$$$

     RDKit          3D

 56 59  0  0  0  0  0  0  0  0999 V2000
  139.6110   71.1950  221.0560 O   0  0  0  0  0  0  0  0  0  0  0  0
  139.6100   71.7690  222.1740 C   0  0  0  0  0  0  0  0  0  0  0  0
  139.5550   73.1810  222.3340 N   0  0  0  0  0  0  0  0  0  0  0  0
  139.4980   74.0200  221.1360 C   0  0  0  0  0  0  0  0  0  0  0  0
  140.0270   75.3510  221.5310 C   0  0  0  0  0  0  0  0  0  0  0  0
  139.9400   75.7960  222.7190 O   0  0  0  0  0  0  0  0  0  0  0  0
  140.6670   76.2100  220.5950 N   0  0  0  0  0  0  0  0  0  0  0  0
  140.5060   76.1010  219.1560 C   0  0  0  0  0  0  0  0  0  0  0  0
  141.6000   76.9180  218.5420 C   0  0  0  0  0  0  0  0  0  0  0  0
  142.5530   77.1450  219.7170 C   0  0  0  0  0  0  0  0  0  0  0  0
  141.5790   77.3270  220.8610 C   0  0  1  0  0  0  0  0  0  0  0  0
  140.8550   78.6460  220.7510 C   0  0  0  0  0  0  0  0  0  0  0  0
  141.6530   79.6640  221.3910 N   0  0  0  0  0  0  0  0  0  0  0  0
  141.0080   80.9300  221.4440 C   0  0  0  0  0  0  0  0  0  0  0  0
  141.5230   81.9310  222.4030 C   0  0  0  0  0  0  0  0  0  0  0  0
  141.7320   81.2580  223.7600 C   0  0  0  0  0  0  0  0  0  0  0  0
  142.8260   80.2460  223.5020 C   0  0  0  0  0  0  0  0  0  0  0  0
  142.3560   79.2270  222.5300 C   0  0  0  0  0  0  0  0  0  0  0  0
  139.6680   70.9490  223.3980 C   0  0  0  0  0  0  0  0  0  0  0  0
  139.2020   69.6490  223.4050 C   0  0  0  0  0  0  0  0  0  0  0  0
  139.2340   68.8420  224.5270 C   0  0  0  0  0  0  0  0  0  0  0  0
  139.7630   69.3810  225.6860 C   0  0  0  0  0  0  0  0  0  0  0  0
  139.8380   68.6650  226.8380 C   0  0  0  0  0  0  0  0  0  0  0  0
  140.3790   69.2400  227.9930 C   0  0  0  0  0  0  0  0  0  0  0  0
  140.4590   68.5350  229.1510 F   0  0  0  0  0  0  0  0  0  0  0  0
  140.8420   70.5430  227.9710 C   0  0  0  0  0  0  0  0  0  0  0  0
  140.7660   71.2700  226.7990 C   0  0  0  0  0  0  0  0  0  0  0  0
  140.2280   70.6820  225.6700 C   0  0  0  0  0  0  0  0  0  0  0  0
  140.1740   71.4290  224.5510 N   0  0  0  0  0  0  0  0  0  0  0  0
  139.5590   73.5830  223.2990 H   0  0  0  0  0  0  0  0  0  0  0  0
  140.1178   73.5859  220.3376 H   0  0  0  0  0  0  0  0  0  0  0  0
  138.4703   74.0972  220.7515 H   0  0  0  0  0  0  0  0  0  0  0  0
  140.5947   75.0504  218.8423 H   0  0  0  0  0  0  0  0  0  0  0  0
  139.5159   76.4599  218.8385 H   0  0  0  0  0  0  0  0  0  0  0  0
  142.0969   76.3680  217.7292 H   0  0  0  0  0  0  0  0  0  0  0  0
  141.2420   77.8522  218.0847 H   0  0  0  0  0  0  0  0  0  0  0  0
  143.2060   76.2748  219.8792 H   0  0  0  0  0  0  0  0  0  0  0  0
  143.2455   77.9882  219.5777 H   0  0  0  0  0  0  0  0  0  0  0  0
  142.0334   77.3347  221.8627 H   0  0  0  0  0  0  0  0  0  0  0  0
  140.7091   78.9014  219.6911 H   0  0  0  0  0  0  0  0  0  0  0  0
  139.8718   78.5769  221.2394 H   0  0  0  0  0  0  0  0  0  0  0  0
  141.0754   81.3739  220.4398 H   0  0  0  0  0  0  0  0  0  0  0  0
  139.9913   80.7062  221.7993 H   0  0  0  0  0  0  0  0  0  0  0  0
  142.4803   82.3323  222.0389 H   0  0  0  0  0  0  0  0  0  0  0  0
  140.8014   82.7551  222.5038 H   0  0  0  0  0  0  0  0  0  0  0  0
  142.0486   81.9919  224.5158 H   0  0  0  0  0  0  0  0  0  0  0  0
  140.8125   80.7972  224.1501 H   0  0  0  0  0  0  0  0  0  0  0  0
  143.7085   80.7598  223.0930 H   0  0  0  0  0  0  0  0  0  0  0  0
  143.0886   79.7491  224.4476 H   0  0  0  0  0  0  0  0  0  0  0  0
  143.2431   78.6817  222.1756 H   0  0  0  0  0  0  0  0  0  0  0  0
  141.6191   78.6352  223.0928 H   0  0  0  0  0  0  0  0  0  0  0  0
  138.7858   69.2363  222.4741 H   0  0  0  0  0  0  0  0  0  0  0  0
  138.8532   67.8104  224.4992 H   0  0  0  0  0  0  0  0  0  0  0  0
  139.4716   67.6281  226.8628 H   0  0  0  0  0  0  0  0  0  0  0  0
  141.2669   70.9963  228.8787 H   0  0  0  0  0  0  0  0  0  0  0  0
  141.1303   72.3073  226.7646 H   0  0  0  0  0  0  0  0  0  0  0  0
  1  2  2  0
  2  3  1  0
  3  4  1  0
  4  5  1  0
  5  6  2  0
  5  7  1  0
  7  8  1  0
  8  9  1  0
  9 10  1  0
 10 11  1  0
 11 12  1  0
 12 13  1  0
 13 14  1  0
 14 15  1  0
 15 16  1  0
 16 17  1  0
 17 18  1  0
  2 19  1  0
 19 20  2  0
 20 21  1  0
 21 22  2  0
 22 23  1  0
 23 24  2  0
 24 25  1  0
 24 26  1  0
 26 27  2  0
 27 28  1  0
 28 29  2  0
 11  7  1  0
 18 13  1  0
 29 19  1  0
 28 22  1  0
  3 30  1  0
  4 31  1  0
  4 32  1  0
  8 33  1  0
  8 34  1  0
  9 35  1  0
  9 36  1  0
 10 37  1  0
 10 38  1  0
 11 39  1  1
 12 40  1  0
 12 41  1  0
 14 42  1  0
 14 43  1  0
 15 44  1  0
 15 45  1  0
 16 46  1  0
 16 47  1  0
 17 48  1  0
 17 49  1  0
 18 50  1  0
 18 51  1  0
 20 52  1  0
 21 53  1  0
 23 54  1  0
 26 55  1  0
 27 56  1  0
M  END
>  <smiles>  (44) 
O=C(NCC(=O)N1CCC[C@H]1CN1CCCCC1)c1ccc2cc(F)ccc2n1

>  <score_type>  (44) 
oracle

>  <origin>  (44) 
autodockgpu

>  <m_score__min__energy>  (44) 
-8.6999999999999993

>  <m_primary>  (44) 
energy

>  <rmsd>  (44) 
2.0980097844714507

>  <m_score__min__rmsd>  (44) 
2.0980097844714507

>  <meeko>  (44) 
{"free_energy": -8.21, "intermolecular_energy": -10.0, "internal_energy": -1.92, "cluster_size": 32, "cluster_id": 1, "rank_in_cluster": 15}

>  <energy>  (44) 
-7.69

>  <cluster_rmsd>  (44) 
0.68

>  <cluster>  (44) 
3

$$$$

     RDKit          3D

 56 59  0  0  0  0  0  0  0  0999 V2000
  141.4680   72.6280  221.7290 O   0  0  0  0  0  0  0  0  0  0  0  0
  140.4440   72.7400  222.4490 C   0  0  0  0  0  0  0  0  0  0  0  0
  139.4840   73.7770  222.2990 N   0  0  0  0  0  0  0  0  0  0  0  0
  139.6930   74.7780  221.2510 C   0  0  0  0  0  0  0  0  0  0  0  0
  139.8860   76.0780  221.9450 C   0  0  0  0  0  0  0  0  0  0  0  0
  141.0260   76.4790  222.3380 O   0  0  0  0  0  0  0  0  0  0  0  0
  138.7970   76.9540  222.2090 N   0  0  0  0  0  0  0  0  0  0  0  0
  137.4920   76.5070  222.6620 C   0  0  0  0  0  0  0  0  0  0  0  0
  136.5560   77.6600  222.4680 C   0  0  0  0  0  0  0  0  0  0  0  0
  137.3510   78.5890  221.5500 C   0  0  0  0  0  0  0  0  0  0  0  0
  138.7540   78.4140  222.0890 C   0  0  1  0  0  0  0  0  0  0  0  0
  138.9000   79.0670  223.4410 C   0  0  0  0  0  0  0  0  0  0  0  0
  140.0870   79.8900  223.4290 N   0  0  0  0  0  0  0  0  0  0  0  0
  141.2700   79.1690  223.7470 C   0  0  0  0  0  0  0  0  0  0  0  0
  142.5690   79.7750  223.3850 C   0  0  0  0  0  0  0  0  0  0  0  0
  142.4950   80.2880  221.9460 C   0  0  0  0  0  0  0  0  0  0  0  0
  141.4600   81.3900  222.0040 C   0  0  0  0  0  0  0  0  0  0  0  0
  140.1390   80.8270  222.3800 C   0  0  0  0  0  0  0  0  0  0  0  0
  140.2080   71.7450  223.5130 C   0  0  0  0  0  0  0  0  0  0  0  0
  139.4420   70.6210  223.2790 C   0  0  0  0  0  0  0  0  0  0  0  0
  139.1930   69.6630  224.2430 C   0  0  0  0  0  0  0  0  0  0  0  0
  139.7490   69.8580  225.4950 C   0  0  0  0  0  0  0  0  0  0  0  0
  139.5610   68.9710  226.5070 C   0  0  0  0  0  0  0  0  0  0  0  0
  140.1360   69.2000  227.7610 C   0  0  0  0  0  0  0  0  0  0  0  0
  139.9560   68.3210  228.7810 F   0  0  0  0  0  0  0  0  0  0  0  0
  140.9010   70.3300  227.9820 C   0  0  0  0  0  0  0  0  0  0  0  0
  141.0920   71.2320  226.9530 C   0  0  0  0  0  0  0  0  0  0  0  0
  140.5140   70.9860  225.7210 C   0  0  0  0  0  0  0  0  0  0  0  0
  140.7280   71.8920  224.7480 N   0  0  0  0  0  0  0  0  0  0  0  0
  138.6570   73.8010  222.9380 H   0  0  0  0  0  0  0  0  0  0  0  0
  140.5848   74.5273  220.6579 H   0  0  0  0  0  0  0  0  0  0  0  0
  138.8373   74.8175  220.5609 H   0  0  0  0  0  0  0  0  0  0  0  0
  137.1590   75.6432  222.0679 H   0  0  0  0  0  0  0  0  0  0  0  0
  137.5230   76.1931  223.7158 H   0  0  0  0  0  0  0  0  0  0  0  0
  135.6205   77.3350  221.9893 H   0  0  0  0  0  0  0  0  0  0  0  0
  136.2496   78.1363  223.4110 H   0  0  0  0  0  0  0  0  0  0  0  0
  137.2815   78.2719  220.4990 H   0  0  0  0  0  0  0  0  0  0  0  0
  136.9968   79.6304  221.5488 H   0  0  0  0  0  0  0  0  0  0  0  0
  139.5489   78.8582  221.4719 H   0  0  0  0  0  0  0  0  0  0  0  0
  138.0183   79.6912  223.6483 H   0  0  0  0  0  0  0  0  0  0  0  0
  138.9836   78.2979  224.2230 H   0  0  0  0  0  0  0  0  0  0  0  0
  141.2745   79.0110  224.8356 H   0  0  0  0  0  0  0  0  0  0  0  0
  141.2106   78.2580  223.1334 H   0  0  0  0  0  0  0  0  0  0  0  0
  142.7875   80.6122  224.0643 H   0  0  0  0  0  0  0  0  0  0  0  0
  143.3670   79.0228  223.4710 H   0  0  0  0  0  0  0  0  0  0  0  0
  143.4689   80.6828  221.6209 H   0  0  0  0  0  0  0  0  0  0  0  0
  142.2326   79.4976  221.2274 H   0  0  0  0  0  0  0  0  0  0  0  0
  141.7642   82.1364  222.7526 H   0  0  0  0  0  0  0  0  0  0  0  0
  141.3818   81.8642  221.0145 H   0  0  0  0  0  0  0  0  0  0  0  0
  139.4944   81.6714  222.6654 H   0  0  0  0  0  0  0  0  0  0  0  0
  139.8237   80.2587  221.4926 H   0  0  0  0  0  0  0  0  0  0  0  0
  139.0092   70.4812  222.2774 H   0  0  0  0  0  0  0  0  0  0  0  0
  138.5763   68.7790  224.0235 H   0  0  0  0  0  0  0  0  0  0  0  0
  138.9540   68.0691  226.3392 H   0  0  0  0  0  0  0  0  0  0  0  0
  141.3537   70.5095  228.9683 H   0  0  0  0  0  0  0  0  0  0  0  0
  141.6975   72.1364  227.1121 H   0  0  0  0  0  0  0  0  0  0  0  0
  1  2  2  0
  2  3  1  0
  3  4  1  0
  4  5  1  0
  5  6  2  0
  5  7  1  0
  7  8  1  0
  8  9  1  0
  9 10  1  0
 10 11  1  0
 11 12  1  0
 12 13  1  0
 13 14  1  0
 14 15  1  0
 15 16  1  0
 16 17  1  0
 17 18  1  0
  2 19  1  0
 19 20  2  0
 20 21  1  0
 21 22  2  0
 22 23  1  0
 23 24  2  0
 24 25  1  0
 24 26  1  0
 26 27  2  0
 27 28  1  0
 28 29  2  0
 11  7  1  0
 18 13  1  0
 29 19  1  0
 28 22  1  0
  3 30  1  0
  4 31  1  0
  4 32  1  0
  8 33  1  0
  8 34  1  0
  9 35  1  0
  9 36  1  0
 10 37  1  0
 10 38  1  0
 11 39  1  6
 12 40  1  0
 12 41  1  0
 14 42  1  0
 14 43  1  0
 15 44  1  0
 15 45  1  0
 16 46  1  0
 16 47  1  0
 17 48  1  0
 17 49  1  0
 18 50  1  0
 18 51  1  0
 20 52  1  0
 21 53  1  0
 23 54  1  0
 26 55  1  0
 27 56  1  0
M  END
>  <smiles>  (45) 
O=C(NCC(=O)N1CCC[C@H]1CN1CCCCC1)c1ccc2cc(F)ccc2n1

>  <score_type>  (45) 
oracle

>  <origin>  (45) 
autodockgpu

>  <m_score__min__energy>  (45) 
-8.6999999999999993

>  <m_primary>  (45) 
energy

>  <rmsd>  (45) 
2.9485855700827073

>  <m_score__min__rmsd>  (45) 
2.9485855700827073

>  <meeko>  (45) 
{"free_energy": -8.35, "intermolecular_energy": -10.14, "internal_energy": -1.51, "cluster_size": 32, "cluster_id": 1, "rank_in_cluster": 7}

>  <energy>  (45) 
-7.59

>  <cluster_rmsd>  (45) 
1.84

>  <cluster>  (45) 
3

$$$$

     RDKit          3D

 56 59  0  0  0  0  0  0  0  0999 V2000
  141.1310   71.2960  221.3810 O   0  0  0  0  0  0  0  0  0  0  0  0
  140.5330   71.8760  222.3220 C   0  0  0  0  0  0  0  0  0  0  0  0
  140.1110   73.2330  222.2710 N   0  0  0  0  0  0  0  0  0  0  0  0
  140.3860   74.0060  221.0580 C   0  0  0  0  0  0  0  0  0  0  0  0
  140.4750   75.4280  221.4790 C   0  0  0  0  0  0  0  0  0  0  0  0
  139.9370   75.8590  222.5470 O   0  0  0  0  0  0  0  0  0  0  0  0
  141.1750   76.3950  220.7060 N   0  0  0  0  0  0  0  0  0  0  0  0
  141.4110   77.7600  221.1390 C   0  0  0  0  0  0  0  0  0  0  0  0
  141.8370   78.5250  219.9240 C   0  0  0  0  0  0  0  0  0  0  0  0
  141.4490   77.5870  218.7810 C   0  0  0  0  0  0  0  0  0  0  0  0
  141.7770   76.2360  219.3780 C   0  0  1  0  0  0  0  0  0  0  0  0
  143.2680   76.0400  219.4870 C   0  0  0  0  0  0  0  0  0  0  0  0
  143.5220   74.7260  220.0300 N   0  0  0  0  0  0  0  0  0  0  0  0
  142.9660   73.6790  219.2440 C   0  0  0  0  0  0  0  0  0  0  0  0
  143.4800   72.3080  219.4540 C   0  0  0  0  0  0  0  0  0  0  0  0
  145.0090   72.3490  219.4840 C   0  0  0  0  0  0  0  0  0  0  0  0
  145.3280   73.1650  220.7170 C   0  0  0  0  0  0  0  0  0  0  0  0
  144.8160   74.5490  220.5560 C   0  0  0  0  0  0  0  0  0  0  0  0
  140.2440   71.1210  223.5560 C   0  0  0  0  0  0  0  0  0  0  0  0
  139.5750   69.9140  223.5120 C   0  0  0  0  0  0  0  0  0  0  0  0
  139.2820   69.1720  224.6400 C   0  0  0  0  0  0  0  0  0  0  0  0
  139.6870   69.6790  225.8620 C   0  0  0  0  0  0  0  0  0  0  0  0
  139.4440   69.0220  227.0250 C   0  0  0  0  0  0  0  0  0  0  0  0
  139.8670   69.5630  228.2430 C   0  0  0  0  0  0  0  0  0  0  0  0
  139.6310   68.9160  229.4130 F   0  0  0  0  0  0  0  0  0  0  0  0
  140.5360   70.7730  228.2730 C   0  0  0  0  0  0  0  0  0  0  0  0
  140.7820   71.4420  227.0900 C   0  0  0  0  0  0  0  0  0  0  0  0
  140.3560   70.8880  225.8970 C   0  0  0  0  0  0  0  0  0  0  0  0
  140.6180   71.5750  224.7700 N   0  0  0  0  0  0  0  0  0  0  0  0
  139.6190   73.6430  223.0970 H   0  0  0  0  0  0  0  0  0  0  0  0
  141.3359   73.6823  220.6076 H   0  0  0  0  0  0  0  0  0  0  0  0
  139.5972   73.8613  220.3051 H   0  0  0  0  0  0  0  0  0  0  0  0
  140.4887   78.1913  221.5553 H   0  0  0  0  0  0  0  0  0  0  0  0
  142.1805   77.8004  221.9241 H   0  0  0  0  0  0  0  0  0  0  0  0
  141.3007   79.4826  219.8503 H   0  0  0  0  0  0  0  0  0  0  0  0
  142.9048   78.7893  219.9276 H   0  0  0  0  0  0  0  0  0  0  0  0
  140.3795   77.6703  218.5378 H   0  0  0  0  0  0  0  0  0  0  0  0
  141.9655   77.7966  217.8327 H   0  0  0  0  0  0  0  0  0  0  0  0
  141.4183   75.3718  218.7997 H   0  0  0  0  0  0  0  0  0  0  0  0
  143.7266   76.1241  218.4907 H   0  0  0  0  0  0  0  0  0  0  0  0
  143.7007   76.8083  220.1447 H   0  0  0  0  0  0  0  0  0  0  0  0
  141.8846   73.6577  219.4445 H   0  0  0  0  0  0  0  0  0  0  0  0
  143.2541   73.9264  218.2116 H   0  0  0  0  0  0  0  0  0  0  0  0
  143.1027   71.9149  220.4096 H   0  0  0  0  0  0  0  0  0  0  0  0
  143.1415   71.6547  218.6363 H   0  0  0  0  0  0  0  0  0  0  0  0
  145.4260   71.3345  219.5676 H   0  0  0  0  0  0  0  0  0  0  0  0
  145.4395   72.7795  218.5678 H   0  0  0  0  0  0  0  0  0  0  0  0
  144.8534   72.7007  221.5940 H   0  0  0  0  0  0  0  0  0  0  0  0
  146.4186   73.1973  220.8566 H   0  0  0  0  0  0  0  0  0  0  0  0
  144.8302   75.0190  221.5504 H   0  0  0  0  0  0  0  0  0  0  0  0
  145.4790   74.9971  219.8013 H   0  0  0  0  0  0  0  0  0  0  0  0
  139.2604   69.5247  222.5325 H   0  0  0  0  0  0  0  0  0  0  0  0
  138.7466   68.2137  224.5692 H   0  0  0  0  0  0  0  0  0  0  0  0
  138.9118   68.0595  227.0090 H   0  0  0  0  0  0  0  0  0  0  0  0
  140.8693   71.1990  229.2308 H   0  0  0  0  0  0  0  0  0  0  0  0
  141.3116   72.4061  227.0969 H   0  0  0  0  0  0  0  0  0  0  0  0
  1  2  2  0
  2  3  1  0
  3  4  1  0
  4  5  1  0
  5  6  2  0
  5  7  1  0
  7  8  1  0
  8  9  1  0
  9 10  1  0
 10 11  1  0
 11 12  1  0
 12 13  1  0
 13 14  1  0
 14 15  1  0
 15 16  1  0
 16 17  1  0
 17 18  1  0
  2 19  1  0
 19 20  2  0
 20 21  1  0
 21 22  2  0
 22 23  1  0
 23 24  2  0
 24 25  1  0
 24 26  1  0
 26 27  2  0
 27 28  1  0
 28 29  2  0
 11  7  1  0
 18 13  1  0
 29 19  1  0
 28 22  1  0
  3 30  1  0
  4 31  1  0
  4 32  1  0
  8 33  1  0
  8 34  1  0
  9 35  1  0
  9 36  1  0
 10 37  1  0
 10 38  1  0
 11 39  1  6
 12 40  1  0
 12 41  1  0
 14 42  1  0
 14 43  1  0
 15 44  1  0
 15 45  1  0
 16 46  1  0
 16 47  1  0
 17 48  1  0
 17 49  1  0
 18 50  1  0
 18 51  1  0
 20 52  1  0
 21 53  1  0
 23 54  1  0
 26 55  1  0
 27 56  1  0
M  END
>  <smiles>  (46) 
O=C(NCC(=O)N1CCC[C@H]1CN1CCCCC1)c1ccc2cc(F)ccc2n1

>  <score_type>  (46) 
oracle

>  <origin>  (46) 
autodockgpu

>  <m_score__min__energy>  (46) 
-8.6999999999999993

>  <m_primary>  (46) 
energy

>  <rmsd>  (46) 
4.4741563556043795

>  <m_score__min__rmsd>  (46) 
4.4741563556043795

>  <meeko>  (46) 
{"free_energy": -7.8, "intermolecular_energy": -9.59, "internal_energy": -2.24, "cluster_size": 8, "cluster_id": 3, "rank_in_cluster": 4}

>  <energy>  (46) 
-7.59

>  <cluster_rmsd>  (46) 
0.25

>  <cluster>  (46) 
3

$$$$

     RDKit          3D

 56 59  0  0  0  0  0  0  0  0999 V2000
  139.6730   71.2090  220.9550 O   0  0  0  0  0  0  0  0  0  0  0  0
  139.6450   71.8130  222.0570 C   0  0  0  0  0  0  0  0  0  0  0  0
  139.5730   73.2280  222.1790 N   0  0  0  0  0  0  0  0  0  0  0  0
  139.5310   74.0340  220.9570 C   0  0  0  0  0  0  0  0  0  0  0  0
  140.0640   75.3730  221.3210 C   0  0  0  0  0  0  0  0  0  0  0  0
  139.9610   75.8540  222.4920 O   0  0  0  0  0  0  0  0  0  0  0  0
  140.7270   76.1970  220.3700 N   0  0  0  0  0  0  0  0  0  0  0  0
  140.5680   76.0620  218.9330 C   0  0  0  0  0  0  0  0  0  0  0  0
  141.6820   76.8430  218.3060 C   0  0  0  0  0  0  0  0  0  0  0  0
  142.6350   77.0720  219.4790 C   0  0  0  0  0  0  0  0  0  0  0  0
  141.6620   77.2990  220.6160 C   0  0  1  0  0  0  0  0  0  0  0  0
  140.9680   78.6310  220.4770 C   0  0  0  0  0  0  0  0  0  0  0  0
  140.9280   79.2660  221.7730 N   0  0  0  0  0  0  0  0  0  0  0  0
  141.4290   78.4410  222.8170 C   0  0  0  0  0  0  0  0  0  0  0  0
  141.8140   79.0890  224.0880 C   0  0  0  0  0  0  0  0  0  0  0  0
  142.6640   80.3230  223.7800 C   0  0  0  0  0  0  0  0  0  0  0  0
  141.7140   81.2470  223.0500 C   0  0  0  0  0  0  0  0  0  0  0  0
  141.2890   80.6270  221.7690 C   0  0  0  0  0  0  0  0  0  0  0  0
  139.6860   71.0260  223.3040 C   0  0  0  0  0  0  0  0  0  0  0  0
  139.2100   69.7300  223.3430 C   0  0  0  0  0  0  0  0  0  0  0  0
  139.2270   68.9540  224.4860 C   0  0  0  0  0  0  0  0  0  0  0  0
  139.7510   69.5200  225.6350 C   0  0  0  0  0  0  0  0  0  0  0  0
  139.8110   68.8360  226.8070 C   0  0  0  0  0  0  0  0  0  0  0  0
  140.3470   69.4390  227.9500 C   0  0  0  0  0  0  0  0  0  0  0  0
  140.4120   68.7650  229.1270 F   0  0  0  0  0  0  0  0  0  0  0  0
  140.8190   70.7380  227.8960 C   0  0  0  0  0  0  0  0  0  0  0  0
  140.7580   71.4330  226.7040 C   0  0  0  0  0  0  0  0  0  0  0  0
  140.2250   70.8180  225.5870 C   0  0  0  0  0  0  0  0  0  0  0  0
  140.1860   71.5340  224.4480 N   0  0  0  0  0  0  0  0  0  0  0  0
  139.5530   73.6550  223.1330 H   0  0  0  0  0  0  0  0  0  0  0  0
  140.1555   73.5749  220.1765 H   0  0  0  0  0  0  0  0  0  0  0  0
  138.5074   74.1057  220.5607 H   0  0  0  0  0  0  0  0  0  0  0  0
  140.6349   75.0035  218.6411 H   0  0  0  0  0  0  0  0  0  0  0  0
  139.5868   76.4355  218.6048 H   0  0  0  0  0  0  0  0  0  0  0  0
  142.1693   76.2662  217.5061 H   0  0  0  0  0  0  0  0  0  0  0  0
  141.3461   77.7753  217.8286 H   0  0  0  0  0  0  0  0  0  0  0  0
  143.2677   76.1908  219.6610 H   0  0  0  0  0  0  0  0  0  0  0  0
  143.3466   77.8967  219.3253 H   0  0  0  0  0  0  0  0  0  0  0  0
  142.1134   77.3175  221.6190 H   0  0  0  0  0  0  0  0  0  0  0  0
  141.5223   79.2658  219.7700 H   0  0  0  0  0  0  0  0  0  0  0  0
  139.9458   78.4848  220.0980 H   0  0  0  0  0  0  0  0  0  0  0  0
  140.6507   77.6996  223.0503 H   0  0  0  0  0  0  0  0  0  0  0  0
  142.3706   78.0350  222.4189 H   0  0  0  0  0  0  0  0  0  0  0  0
  140.9098   79.3915  224.6365 H   0  0  0  0  0  0  0  0  0  0  0  0
  142.3913   78.3844  224.7046 H   0  0  0  0  0  0  0  0  0  0  0  0
  143.0276   80.7891  224.7076 H   0  0  0  0  0  0  0  0  0  0  0  0
  143.5604   80.0836  223.1892 H   0  0  0  0  0  0  0  0  0  0  0  0
  140.8293   81.4302  223.6775 H   0  0  0  0  0  0  0  0  0  0  0  0
  142.2247   82.1983  222.8397 H   0  0  0  0  0  0  0  0  0  0  0  0
  140.4188   81.1936  221.4060 H   0  0  0  0  0  0  0  0  0  0  0  0
  142.1882   80.6672  221.1367 H   0  0  0  0  0  0  0  0  0  0  0  0
  138.7979   69.2951  222.4205 H   0  0  0  0  0  0  0  0  0  0  0  0
  138.8386   67.9249  224.4828 H   0  0  0  0  0  0  0  0  0  0  0  0
  139.4364   67.8030  226.8577 H   0  0  0  0  0  0  0  0  0  0  0  0
  141.2393   71.2134  228.7945 H   0  0  0  0  0  0  0  0  0  0  0  0
  141.1302   72.4664  226.6443 H   0  0  0  0  0  0  0  0  0  0  0  0
  1  2  2  0
  2  3  1  0
  3  4  1  0
  4  5  1  0
  5  6  2  0
  5  7  1  0
  7  8  1  0
  8  9  1  0
  9 10  1  0
 10 11  1  0
 11 12  1  0
 12 13  1  0
 13 14  1  0
 14 15  1  0
 15 16  1  0
 16 17  1  0
 17 18  1  0
  2 19  1  0
 19 20  2  0
 20 21  1  0
 21 22  2  0
 22 23  1  0
 23 24  2  0
 24 25  1  0
 24 26  1  0
 26 27  2  0
 27 28  1  0
 28 29  2  0
 11  7  1  0
 18 13  1  0
 29 19  1  0
 28 22  1  0
  3 30  1  0
  4 31  1  0
  4 32  1  0
  8 33  1  0
  8 34  1  0
  9 35  1  0
  9 36  1  0
 10 37  1  0
 10 38  1  0
 11 39  1  1
 12 40  1  0
 12 41  1  0
 14 42  1  0
 14 43  1  0
 15 44  1  0
 15 45  1  0
 16 46  1  0
 16 47  1  0
 17 48  1  0
 17 49  1  0
 18 50  1  0
 18 51  1  0
 20 52  1  0
 21 53  1  0
 23 54  1  0
 26 55  1  0
 27 56  1  0
M  END
>  <smiles>  (47) 
O=C(NCC(=O)N1CCC[C@H]1CN1CCCCC1)c1ccc2cc(F)ccc2n1

>  <score_type>  (47) 
oracle

>  <origin>  (47) 
autodockgpu

>  <m_score__min__energy>  (47) 
-8.6999999999999993

>  <m_primary>  (47) 
energy

>  <rmsd>  (47) 
1.896183415531991

>  <m_score__min__rmsd>  (47) 
1.896183415531991

>  <meeko>  (47) 
{"free_energy": -8.33, "intermolecular_energy": -10.12, "internal_energy": -2.02, "cluster_size": 32, "cluster_id": 1, "rank_in_cluster": 8}

>  <energy>  (47) 
-7.42

>  <cluster_rmsd>  (47) 
0.55

>  <cluster>  (47) 
3

$$$$

     RDKit          3D

 56 59  0  0  0  0  0  0  0  0999 V2000
  140.9100   71.7900  221.4360 O   0  0  0  0  0  0  0  0  0  0  0  0
  140.0510   72.0370  222.3190 C   0  0  0  0  0  0  0  0  0  0  0  0
  139.1240   73.1120  222.2380 N   0  0  0  0  0  0  0  0  0  0  0  0
  139.1670   73.9870  221.0640 C   0  0  0  0  0  0  0  0  0  0  0  0
  139.7900   75.2590  221.5130 C   0  0  0  0  0  0  0  0  0  0  0  0
  139.6780   75.6920  222.7020 O   0  0  0  0  0  0  0  0  0  0  0  0
  140.5540   76.0700  220.6290 N   0  0  0  0  0  0  0  0  0  0  0  0
  140.5690   75.9020  219.1870 C   0  0  0  0  0  0  0  0  0  0  0  0
  141.7430   76.6810  218.6790 C   0  0  0  0  0  0  0  0  0  0  0  0
  142.5480   76.9480  219.9520 C   0  0  0  0  0  0  0  0  0  0  0  0
  141.4430   77.1880  220.9590 C   0  0  1  0  0  0  0  0  0  0  0  0
  140.7590   78.5080  220.7070 C   0  0  0  0  0  0  0  0  0  0  0  0
  140.8600   79.3140  221.9010 N   0  0  0  0  0  0  0  0  0  0  0  0
  141.2880   78.5770  223.0400 C   0  0  0  0  0  0  0  0  0  0  0  0
  141.8110   79.3320  224.1980 C   0  0  0  0  0  0  0  0  0  0  0  0
  142.8070   80.3810  223.6990 C   0  0  0  0  0  0  0  0  0  0  0  0
  141.9620   81.3200  222.8670 C   0  0  0  0  0  0  0  0  0  0  0  0
  141.4020   80.5980  221.6970 C   0  0  0  0  0  0  0  0  0  0  0  0
  139.9850   71.1720  223.5120 C   0  0  0  0  0  0  0  0  0  0  0  0
  139.3580   69.9430  223.4660 C   0  0  0  0  0  0  0  0  0  0  0  0
  139.2710   69.0990  224.5570 C   0  0  0  0  0  0  0  0  0  0  0  0
  139.8460   69.5250  225.7410 C   0  0  0  0  0  0  0  0  0  0  0  0
  139.8120   68.7650  226.8660 C   0  0  0  0  0  0  0  0  0  0  0  0
  140.4030   69.2260  228.0480 C   0  0  0  0  0  0  0  0  0  0  0  0
  140.3760   68.4750  229.1790 F   0  0  0  0  0  0  0  0  0  0  0  0
  141.0270   70.4590  228.0790 C   0  0  0  0  0  0  0  0  0  0  0  0
  141.0610   71.2320  226.9350 C   0  0  0  0  0  0  0  0  0  0  0  0
  140.4710   70.7570  225.7780 C   0  0  0  0  0  0  0  0  0  0  0  0
  140.5300   71.5440  224.6880 N   0  0  0  0  0  0  0  0  0  0  0  0
  138.4390   73.2520  223.0150 H   0  0  0  0  0  0  0  0  0  0  0  0
  139.7716   73.5271  220.2684 H   0  0  0  0  0  0  0  0  0  0  0  0
  138.1598   74.1578  220.6562 H   0  0  0  0  0  0  0  0  0  0  0  0
  140.6791   74.8382  218.9297 H   0  0  0  0  0  0  0  0  0  0  0  0
  139.6310   76.2577  218.7358 H   0  0  0  0  0  0  0  0  0  0  0  0
  142.3272   76.0917  217.9569 H   0  0  0  0  0  0  0  0  0  0  0  0
  141.4583   77.5984  218.1430 H   0  0  0  0  0  0  0  0  0  0  0  0
  143.1630   76.0790  220.2289 H   0  0  0  0  0  0  0  0  0  0  0  0
  143.2652   77.7775  219.8650 H   0  0  0  0  0  0  0  0  0  0  0  0
  141.7707   77.2334  222.0081 H   0  0  0  0  0  0  0  0  0  0  0  0
  141.2484   79.0249  219.8683 H   0  0  0  0  0  0  0  0  0  0  0  0
  139.7015   78.3413  220.4542 H   0  0  0  0  0  0  0  0  0  0  0  0
  140.4266   77.9913  223.3933 H   0  0  0  0  0  0  0  0  0  0  0  0
  142.1481   77.9922  222.6818 H   0  0  0  0  0  0  0  0  0  0  0  0
  140.9803   79.8304  224.7191 H   0  0  0  0  0  0  0  0  0  0  0  0
  142.3128   78.6442  224.8945 H   0  0  0  0  0  0  0  0  0  0  0  0
  143.2690   80.9143  224.5429 H   0  0  0  0  0  0  0  0  0  0  0  0
  143.6370   79.9394  223.1280 H   0  0  0  0  0  0  0  0  0  0  0  0
  141.1382   81.7106  223.4824 H   0  0  0  0  0  0  0  0  0  0  0  0
  142.5891   82.1510  222.5119 H   0  0  0  0  0  0  0  0  0  0  0  0
  140.6018   81.2265  221.2790 H   0  0  0  0  0  0  0  0  0  0  0  0
  142.2701   80.4254  221.0439 H   0  0  0  0  0  0  0  0  0  0  0  0
  138.9064   69.6202  222.5163 H   0  0  0  0  0  0  0  0  0  0  0  0
  138.7638   68.1255  224.4866 H   0  0  0  0  0  0  0  0  0  0  0  0
  139.3177   67.7825  226.8482 H   0  0  0  0  0  0  0  0  0  0  0  0
  141.4927   70.8216  229.0072 H   0  0  0  0  0  0  0  0  0  0  0  0
  141.5526   72.2160  226.9441 H   0  0  0  0  0  0  0  0  0  0  0  0
  1  2  2  0
  2  3  1  0
  3  4  1  0
  4  5  1  0
  5  6  2  0
  5  7  1  0
  7  8  1  0
  8  9  1  0
  9 10  1  0
 10 11  1  0
 11 12  1  0
 12 13  1  0
 13 14  1  0
 14 15  1  0
 15 16  1  0
 16 17  1  0
 17 18  1  0
  2 19  1  0
 19 20  2  0
 20 21  1  0
 21 22  2  0
 22 23  1  0
 23 24  2  0
 24 25  1  0
 24 26  1  0
 26 27  2  0
 27 28  1  0
 28 29  2  0
 11  7  1  0
 18 13  1  0
 29 19  1  0
 28 22  1  0
  3 30  1  0
  4 31  1  0
  4 32  1  0
  8 33  1  0
  8 34  1  0
  9 35  1  0
  9 36  1  0
 10 37  1  0
 10 38  1  0
 11 39  1  1
 12 40  1  0
 12 41  1  0
 14 42  1  0
 14 43  1  0
 15 44  1  0
 15 45  1  0
 16 46  1  0
 16 47  1  0
 17 48  1  0
 17 49  1  0
 18 50  1  0
 18 51  1  0
 20 52  1  0
 21 53  1  0
 23 54  1  0
 26 55  1  0
 27 56  1  0
M  END
>  <smiles>  (48) 
O=C(NCC(=O)N1CCC[C@H]1CN1CCCCC1)c1ccc2cc(F)ccc2n1

>  <score_type>  (48) 
oracle

>  <origin>  (48) 
autodockgpu

>  <m_score__min__energy>  (48) 
-8.6999999999999993

>  <m_primary>  (48) 
energy

>  <rmsd>  (48) 
1.9336443754843389

>  <m_score__min__rmsd>  (48) 
1.9336443754843389

>  <meeko>  (48) 
{"free_energy": -8.51, "intermolecular_energy": -10.3, "internal_energy": -1.54, "cluster_size": 32, "cluster_id": 1, "rank_in_cluster": 3}

>  <energy>  (48) 
-7.66

>  <cluster_rmsd>  (48) 
0.0

>  <cluster>  (48) 
4

$$$$

     RDKit          3D

 56 59  0  0  0  0  0  0  0  0999 V2000
  139.7610   71.2750  220.9430 O   0  0  0  0  0  0  0  0  0  0  0  0
  139.7020   71.8720  222.0480 C   0  0  0  0  0  0  0  0  0  0  0  0
  139.6200   73.2860  222.1770 N   0  0  0  0  0  0  0  0  0  0  0  0
  139.6050   74.1000  220.9600 C   0  0  0  0  0  0  0  0  0  0  0  0
  140.2620   75.3860  221.3090 C   0  0  0  0  0  0  0  0  0  0  0  0
  140.2960   75.8360  222.4970 O   0  0  0  0  0  0  0  0  0  0  0  0
  140.8980   76.1930  220.3240 N   0  0  0  0  0  0  0  0  0  0  0  0
  140.4290   76.3180  218.9560 C   0  0  0  0  0  0  0  0  0  0  0  0
  141.5480   76.9380  218.1770 C   0  0  0  0  0  0  0  0  0  0  0  0
  142.7420   76.7810  219.1190 C   0  0  0  0  0  0  0  0  0  0  0  0
  142.0960   77.0250  220.4660 C   0  0  1  0  0  0  0  0  0  0  0  0
  141.7220   78.4770  220.6310 C   0  0  0  0  0  0  0  0  0  0  0  0
  141.6590   78.7790  222.0410 N   0  0  0  0  0  0  0  0  0  0  0  0
  142.6120   79.7530  222.4480 C   0  0  0  0  0  0  0  0  0  0  0  0
  142.3960   80.4360  223.7420 C   0  0  0  0  0  0  0  0  0  0  0  0
  140.9370   80.8870  223.8280 C   0  0  0  0  0  0  0  0  0  0  0  0
  140.1550   79.5930  223.8430 C   0  0  0  0  0  0  0  0  0  0  0  0
  140.3550   78.8650  222.5640 C   0  0  0  0  0  0  0  0  0  0  0  0
  139.7160   71.0770  223.2900 C   0  0  0  0  0  0  0  0  0  0  0  0
  139.2010   69.7960  223.3210 C   0  0  0  0  0  0  0  0  0  0  0  0
  139.1910   69.0140  224.4590 C   0  0  0  0  0  0  0  0  0  0  0  0
  139.7290   69.5570  225.6130 C   0  0  0  0  0  0  0  0  0  0  0  0
  139.7650   68.8640  226.7800 C   0  0  0  0  0  0  0  0  0  0  0  0
  140.3150   69.4440  227.9280 C   0  0  0  0  0  0  0  0  0  0  0  0
  140.3570   68.7620  229.1020 F   0  0  0  0  0  0  0  0  0  0  0  0
  140.8280   70.7270  227.8830 C   0  0  0  0  0  0  0  0  0  0  0  0
  140.7910   71.4320  226.6950 C   0  0  0  0  0  0  0  0  0  0  0  0
  140.2420   70.8390  225.5730 C   0  0  0  0  0  0  0  0  0  0  0  0
  140.2290   71.5630  224.4390 N   0  0  0  0  0  0  0  0  0  0  0  0
  139.5750   73.7070  223.1330 H   0  0  0  0  0  0  0  0  0  0  0  0
  140.1609   73.5942  220.1568 H   0  0  0  0  0  0  0  0  0  0  0  0
  138.5782   74.2610  220.5999 H   0  0  0  0  0  0  0  0  0  0  0  0
  140.1844   75.3269  218.5462 H   0  0  0  0  0  0  0  0  0  0  0  0
  139.5188   76.9333  218.9025 H   0  0  0  0  0  0  0  0  0  0  0  0
  141.7165   76.4029  217.2308 H   0  0  0  0  0  0  0  0  0  0  0  0
  141.3534   77.9819  217.8898 H   0  0  0  0  0  0  0  0  0  0  0  0
  143.1730   75.7709  219.0569 H   0  0  0  0  0  0  0  0  0  0  0  0
  143.5821   77.4549  218.8953 H   0  0  0  0  0  0  0  0  0  0  0  0
  142.7288   76.7935  221.3354 H   0  0  0  0  0  0  0  0  0  0  0  0
  142.4803   79.1120  220.1495 H   0  0  0  0  0  0  0  0  0  0  0  0
  140.7460   78.6693  220.1615 H   0  0  0  0  0  0  0  0  0  0  0  0
  143.5897   79.2518  222.5016 H   0  0  0  0  0  0  0  0  0  0  0  0
  142.5264   80.5524  221.6972 H   0  0  0  0  0  0  0  0  0  0  0  0
  142.6171   79.7425  224.5668 H   0  0  0  0  0  0  0  0  0  0  0  0
  143.0606   81.3093  223.8175 H   0  0  0  0  0  0  0  0  0  0  0  0
  140.7591   81.4622  224.7486 H   0  0  0  0  0  0  0  0  0  0  0  0
  140.6480   81.5470  222.9968 H   0  0  0  0  0  0  0  0  0  0  0  0
  140.5032   78.9664  224.6773 H   0  0  0  0  0  0  0  0  0  0  0  0
  139.0855   79.8183  223.9673 H   0  0  0  0  0  0  0  0  0  0  0  0
  139.9966   77.8361  222.7156 H   0  0  0  0  0  0  0  0  0  0  0  0
  139.8046   79.4630  221.8228 H   0  0  0  0  0  0  0  0  0  0  0  0
  138.7786   69.3787  222.3950 H   0  0  0  0  0  0  0  0  0  0  0  0
  138.7711   67.9973  224.4489 H   0  0  0  0  0  0  0  0  0  0  0  0
  139.3600   67.8422  226.8229 H   0  0  0  0  0  0  0  0  0  0  0  0
  141.2620   71.1828  228.7852 H   0  0  0  0  0  0  0  0  0  0  0  0
  141.1940   72.4542  226.6425 H   0  0  0  0  0  0  0  0  0  0  0  0
  1  2  2  0
  2  3  1  0
  3  4  1  0
  4  5  1  0
  5  6  2  0
  5  7  1  0
  7  8  1  0
  8  9  1  0
  9 10  1  0
 10 11  1  0
 11 12  1  0
 12 13  1  0
 13 14  1  0
 14 15  1  0
 15 16  1  0
 16 17  1  0
 17 18  1  0
  2 19  1  0
 19 20  2  0
 20 21  1  0
 21 22  2  0
 22 23  1  0
 23 24  2  0
 24 25  1  0
 24 26  1  0
 26 27  2  0
 27 28  1  0
 28 29  2  0
 11  7  1  0
 18 13  1  0
 29 19  1  0
 28 22  1  0
  3 30  1  0
  4 31  1  0
  4 32  1  0
  8 33  1  0
  8 34  1  0
  9 35  1  0
  9 36  1  0
 10 37  1  0
 10 38  1  0
 11 39  1  1
 12 40  1  0
 12 41  1  0
 14 42  1  0
 14 43  1  0
 15 44  1  0
 15 45  1  0
 16 46  1  0
 16 47  1  0
 17 48  1  0
 17 49  1  0
 18 50  1  0
 18 51  1  0
 20 52  1  0
 21 53  1  0
 23 54  1  0
 26 55  1  0
 27 56  1  0
M  END
>  <smiles>  (49) 
O=C(NCC(=O)N1CCC[C@H]1CN1CCCCC1)c1ccc2cc(F)ccc2n1

>  <score_type>  (49) 
oracle

>  <origin>  (49) 
autodockgpu

>  <m_score__min__energy>  (49) 
-8.6999999999999993

>  <m_primary>  (49) 
energy

>  <rmsd>  (49) 
2.143851040855787

>  <m_score__min__rmsd>  (49) 
2.143851040855787

>  <meeko>  (49) 
{"free_energy": -8.16, "intermolecular_energy": -9.95, "internal_energy": -1.97, "cluster_size": 32, "cluster_id": 1, "rank_in_cluster": 19}

>  <energy>  (49) 
-6.87

>  <cluster_rmsd>  (49) 
0.0

>  <cluster>  (49) 
5

$$$$

     RDKit          3D

 56 59  0  0  0  0  0  0  0  0999 V2000
  140.0650   71.5440  220.9410 O   0  0  0  0  0  0  0  0  0  0  0  0
  139.9060   72.1220  222.0460 C   0  0  0  0  0  0  0  0  0  0  0  0
  139.7150   73.5250  222.1820 N   0  0  0  0  0  0  0  0  0  0  0  0
  139.7050   74.3500  220.9720 C   0  0  0  0  0  0  0  0  0  0  0  0
  140.4800   75.5760  221.2950 C   0  0  0  0  0  0  0  0  0  0  0  0
  140.5980   76.0170  222.4820 O   0  0  0  0  0  0  0  0  0  0  0  0
  141.1400   76.3310  220.2870 N   0  0  0  0  0  0  0  0  0  0  0  0
  141.8140   77.5930  220.5330 C   0  0  0  0  0  0  0  0  0  0  0  0
  142.0450   78.2210  219.1930 C   0  0  0  0  0  0  0  0  0  0  0  0
  141.1290   77.4090  218.2770 C   0  0  0  0  0  0  0  0  0  0  0  0
  141.2780   76.0200  218.8610 C   0  0  1  0  0  0  0  0  0  0  0  0
  142.6440   75.4520  218.5660 C   0  0  0  0  0  0  0  0  0  0  0  0
  143.0530   74.6350  219.6840 N   0  0  0  0  0  0  0  0  0  0  0  0
  142.5420   73.3100  219.6250 C   0  0  0  0  0  0  0  0  0  0  0  0
  143.1920   72.2780  220.4610 C   0  0  0  0  0  0  0  0  0  0  0  0
  144.7090   72.3900  220.3000 C   0  0  0  0  0  0  0  0  0  0  0  0
  145.0390   73.7470  220.8840 C   0  0  0  0  0  0  0  0  0  0  0  0
  144.3920   74.8150  220.0810 C   0  0  0  0  0  0  0  0  0  0  0  0
  139.9120   71.3150  223.2810 C   0  0  0  0  0  0  0  0  0  0  0  0
  139.4410   70.0180  223.2850 C   0  0  0  0  0  0  0  0  0  0  0  0
  139.4260   69.2230  224.4160 C   0  0  0  0  0  0  0  0  0  0  0  0
  139.9130   69.7730  225.5880 C   0  0  0  0  0  0  0  0  0  0  0  0
  139.9400   69.0700  226.7500 C   0  0  0  0  0  0  0  0  0  0  0  0
  140.4390   69.6570  227.9180 C   0  0  0  0  0  0  0  0  0  0  0  0
  140.4710   68.9640  229.0860 F   0  0  0  0  0  0  0  0  0  0  0  0
  140.9080   70.9570  227.9000 C   0  0  0  0  0  0  0  0  0  0  0  0
  140.8800   71.6720  226.7180 C   0  0  0  0  0  0  0  0  0  0  0  0
  140.3830   71.0730  225.5750 C   0  0  0  0  0  0  0  0  0  0  0  0
  140.3760   71.8070  224.4470 N   0  0  0  0  0  0  0  0  0  0  0  0
  139.5900   73.9300  223.1370 H   0  0  0  0  0  0  0  0  0  0  0  0
  140.1777   73.8094  220.1388 H   0  0  0  0  0  0  0  0  0  0  0  0
  138.6778   74.5963  220.6652 H   0  0  0  0  0  0  0  0  0  0  0  0
  141.1834   78.2456  221.1547 H   0  0  0  0  0  0  0  0  0  0  0  0
  142.7624   77.4393  221.0687 H   0  0  0  0  0  0  0  0  0  0  0  0
  141.7594   79.2833  219.1985 H   0  0  0  0  0  0  0  0  0  0  0  0
  143.0994   78.2051  218.8801 H   0  0  0  0  0  0  0  0  0  0  0  0
  140.0882   77.7603  218.3348 H   0  0  0  0  0  0  0  0  0  0  0  0
  141.3849   77.4779  217.2094 H   0  0  0  0  0  0  0  0  0  0  0  0
  140.5704   75.2727  218.4725 H   0  0  0  0  0  0  0  0  0  0  0  0
  142.6014   74.8382  217.6542 H   0  0  0  0  0  0  0  0  0  0  0  0
  143.3656   76.2678  218.4121 H   0  0  0  0  0  0  0  0  0  0  0  0
  141.4840   73.3538  219.9229 H   0  0  0  0  0  0  0  0  0  0  0  0
  142.7337   72.9871  218.5911 H   0  0  0  0  0  0  0  0  0  0  0  0
  142.9206   72.4329  221.5157 H   0  0  0  0  0  0  0  0  0  0  0  0
  142.8574   71.2788  220.1453 H   0  0  0  0  0  0  0  0  0  0  0  0
  145.2214   71.5902  220.8549 H   0  0  0  0  0  0  0  0  0  0  0  0
  145.0327   72.2889  219.2536 H   0  0  0  0  0  0  0  0  0  0  0  0
  144.6723   73.7970  221.9199 H   0  0  0  0  0  0  0  0  0  0  0  0
  146.1292   73.8924  220.8674 H   0  0  0  0  0  0  0  0  0  0  0  0
  144.4337   75.7396  220.6755 H   0  0  0  0  0  0  0  0  0  0  0  0
  144.9558   74.8229  219.1365 H   0  0  0  0  0  0  0  0  0  0  0  0
  139.0592   69.5965  222.3434 H   0  0  0  0  0  0  0  0  0  0  0  0
  139.0416   68.1928  224.3850 H   0  0  0  0  0  0  0  0  0  0  0  0
  139.5681   68.0350  226.7728 H   0  0  0  0  0  0  0  0  0  0  0  0
  141.3000   71.4183  228.8184 H   0  0  0  0  0  0  0  0  0  0  0  0
  141.2495   72.7076  226.6865 H   0  0  0  0  0  0  0  0  0  0  0  0
  1  2  2  0
  2  3  1  0
  3  4  1  0
  4  5  1  0
  5  6  2  0
  5  7  1  0
  7  8  1  0
  8  9  1  0
  9 10  1  0
 10 11  1  0
 11 12  1  0
 12 13  1  0
 13 14  1  0
 14 15  1  0
 15 16  1  0
 16 17  1  0
 17 18  1  0
  2 19  1  0
 19 20  2  0
 20 21  1  0
 21 22  2  0
 22 23  1  0
 23 24  2  0
 24 25  1  0
 24 26  1  0
 26 27  2  0
 27 28  1  0
 28 29  2  0
 11  7  1  0
 18 13  1  0
 29 19  1  0
 28 22  1  0
  3 30  1  0
  4 31  1  0
  4 32  1  0
  8 33  1  0
  8 34  1  0
  9 35  1  0
  9 36  1  0
 10 37  1  0
 10 38  1  0
 11 39  1  6
 12 40  1  0
 12 41  1  0
 14 42  1  0
 14 43  1  0
 15 44  1  0
 15 45  1  0
 16 46  1  0
 16 47  1  0
 17 48  1  0
 17 49  1  0
 18 50  1  0
 18 51  1  0
 20 52  1  0
 21 53  1  0
 23 54  1  0
 26 55  1  0
 27 56  1  0
M  END
>  <smiles>  (50) 
O=C(NCC(=O)N1CCC[C@H]1CN1CCCCC1)c1ccc2cc(F)ccc2n1

>  <score_type>  (50) 
oracle

>  <origin>  (50) 
autodockgpu

>  <m_score__min__energy>  (50) 
-8.6999999999999993

>  <m_primary>  (50) 
energy

>  <rmsd>  (50) 
4.262915518471585

>  <m_score__min__rmsd>  (50) 
4.262915518471585

>  <meeko>  (50) 
{"free_energy": -7.42, "intermolecular_energy": -9.21, "internal_energy": -2.47, "cluster_size": 8, "cluster_id": 3, "rank_in_cluster": 8}

>  <energy>  (50) 
-6.5

>  <cluster_rmsd>  (50) 
0.0

>  <cluster>  (50) 
6

$$$$
