
     RDKit          3D

 72 77  0  0  0  0  0  0  0  0999 V2000
  140.1610   67.9950  227.2170 N   0  0  0  0  0  0  0  0  0  0  0  0
  139.3670   67.9790  226.0010 C   0  0  0  0  0  0  0  0  0  0  0  0
  139.1990   69.4030  225.5130 C   0  0  0  0  0  0  0  0  0  0  0  0
  140.5290   70.1190  225.6060 C   0  0  0  0  0  0  0  0  0  0  0  0
  140.4810   71.4790  224.9930 C   0  0  0  0  0  0  0  0  0  0  0  0
  139.9070   71.4320  223.6730 N   0  0  0  0  0  0  0  0  0  0  0  0
  140.5450   72.1360  222.6060 C   0  0  0  0  0  0  0  0  0  0  0  0
  140.3060   73.4650  222.4460 N   0  0  0  0  0  0  0  0  0  0  0  0
  140.9080   74.1250  221.4410 C   0  0  0  0  0  0  0  0  0  0  0  0
  140.7210   75.5140  221.1930 N   0  0  0  0  0  0  0  0  0  0  0  0
  141.1850   76.1580  219.9820 C   0  0  0  0  0  0  0  0  0  0  0  0
  142.1680   77.2570  220.4160 C   0  0  0  0  0  0  0  0  0  0  0  0
  141.5190   78.0870  221.4240 N   0  0  0  0  0  0  0  0  0  0  0  0
  141.3190   79.4800  221.2830 C   0  0  0  0  0  0  0  0  0  0  0  0
  141.3490   80.3400  222.3870 C   0  0  0  0  0  0  0  0  0  0  0  0
  141.1650   81.7070  222.2500 C   0  0  0  0  0  0  0  0  0  0  0  0
  140.9440   82.2860  221.0290 C   0  0  0  0  0  0  0  0  0  0  0  0
  140.9110   81.4600  219.9320 C   0  0  0  0  0  0  0  0  0  0  0  0
  141.0960   80.0850  220.0660 C   0  0  0  0  0  0  0  0  0  0  0  0
  141.0900   77.3590  222.6240 C   0  0  0  0  0  0  0  0  0  0  0  0
  140.0350   76.3710  222.1750 C   0  0  0  0  0  0  0  0  0  0  0  0
  141.7290   73.4570  220.6210 N   0  0  0  0  0  0  0  0  0  0  0  0
  141.9820   72.1400  220.7600 C   0  0  0  0  0  0  0  0  0  0  0  0
  142.8600   71.4300  219.8840 N   0  0  0  0  0  0  0  0  0  0  0  0
  143.8770   72.1270  219.1600 C   0  0  0  0  0  0  0  0  0  0  0  0
  145.2360   71.5530  219.4690 C   0  0  0  0  0  0  0  0  0  0  0  0
  145.1800   70.0820  219.1920 C   0  0  0  0  0  0  0  0  0  0  0  0
  146.3280   69.4120  218.8040 C   0  0  0  0  0  0  0  0  0  0  0  0
  146.2970   68.0540  218.5440 C   0  0  0  0  0  0  0  0  0  0  0  0
  145.1150   67.3560  218.6720 C   0  0  0  0  0  0  0  0  0  0  0  0
  143.9600   68.0040  219.0570 C   0  0  0  0  0  0  0  0  0  0  0  0
  143.9990   69.3630  219.3150 C   0  0  0  0  0  0  0  0  0  0  0  0
  142.7240   70.0010  219.7260 C   0  0  0  0  0  0  0  0  0  0  0  0
  141.3720   71.5000  221.7670 N   0  0  0  0  0  0  0  0  0  0  0  0
  138.6950   70.6830  223.4220 C   0  0  0  0  0  0  0  0  0  0  0  0
  138.6970   69.3480  224.0880 C   0  0  0  0  0  0  0  0  0  0  0  0
  141.1150   68.3670  227.0790 H   0  0  0  0  0  0  0  0  0  0  0  0
  140.1500   67.0220  227.6120 H   0  0  0  0  0  0  0  0  0  0  0  0
  139.8793   67.3820  225.2321 H   0  0  0  0  0  0  0  0  0  0  0  0
  138.3819   67.5326  226.2020 H   0  0  0  0  0  0  0  0  0  0  0  0
  138.4749   69.9572  226.1283 H   0  0  0  0  0  0  0  0  0  0  0  0
  140.8048   70.2178  226.6663 H   0  0  0  0  0  0  0  0  0  0  0  0
  141.2717   69.5252  225.0529 H   0  0  0  0  0  0  0  0  0  0  0  0
  139.8699   72.1378  225.6274 H   0  0  0  0  0  0  0  0  0  0  0  0
  141.5086   71.8634  224.9140 H   0  0  0  0  0  0  0  0  0  0  0  0
  141.6937   75.4280  219.3352 H   0  0  0  0  0  0  0  0  0  0  0  0
  140.3449   76.5808  219.4115 H   0  0  0  0  0  0  0  0  0  0  0  0
  143.0735   76.7985  220.8399 H   0  0  0  0  0  0  0  0  0  0  0  0
  142.4533   77.8711  219.5491 H   0  0  0  0  0  0  0  0  0  0  0  0
  141.5230   79.9203  223.3888 H   0  0  0  0  0  0  0  0  0  0  0  0
  141.1974   82.3438  223.1463 H   0  0  0  0  0  0  0  0  0  0  0  0
  140.7984   83.3718  220.9303 H   0  0  0  0  0  0  0  0  0  0  0  0
  140.7362   81.8894  218.9345 H   0  0  0  0  0  0  0  0  0  0  0  0
  141.0625   79.4576  219.1631 H   0  0  0  0  0  0  0  0  0  0  0  0
  141.9429   76.8270  223.0706 H   0  0  0  0  0  0  0  0  0  0  0  0
  140.6919   78.0467  223.3846 H   0  0  0  0  0  0  0  0  0  0  0  0
  139.6746   75.7745  223.0260 H   0  0  0  0  0  0  0  0  0  0  0  0
  139.1521   76.8693  221.7483 H   0  0  0  0  0  0  0  0  0  0  0  0
  143.6817   72.0334  218.0815 H   0  0  0  0  0  0  0  0  0  0  0  0
  143.8628   73.1856  219.4587 H   0  0  0  0  0  0  0  0  0  0  0  0
  145.9969   72.0261  218.8309 H   0  0  0  0  0  0  0  0  0  0  0  0
  145.5038   71.7383  220.5197 H   0  0  0  0  0  0  0  0  0  0  0  0
  147.2734   69.9650  218.7016 H   0  0  0  0  0  0  0  0  0  0  0  0
  147.2144   67.5314  218.2354 H   0  0  0  0  0  0  0  0  0  0  0  0
  145.0930   66.2757  218.4658 H   0  0  0  0  0  0  0  0  0  0  0  0
  143.0173   67.4462  219.1580 H   0  0  0  0  0  0  0  0  0  0  0  0
  141.9625   69.7995  218.9582 H   0  0  0  0  0  0  0  0  0  0  0  0
  142.4306   69.5782  220.6982 H   0  0  0  0  0  0  0  0  0  0  0  0
  137.8387   71.2626  223.7972 H   0  0  0  0  0  0  0  0  0  0  0  0
  138.6266   70.5139  222.3372 H   0  0  0  0  0  0  0  0  0  0  0  0
  137.6691   68.9564  224.0927 H   0  0  0  0  0  0  0  0  0  0  0  0
  139.3799   68.6974  223.5220 H   0  0  0  0  0  0  0  0  0  0  0  0
  1  2  1  0
  2  3  1  0
  3  4  1  0
  4  5  1  0
  5  6  1  0
  6  7  1  0
  7  8  2  0
  8  9  1  0
  9 10  1  0
 10 11  1  0
 11 12  1  0
 12 13  1  0
 13 14  1  0
 14 15  2  0
 15 16  1  0
 16 17  2  0
 17 18  1  0
 18 19  2  0
 13 20  1  0
 20 21  1  0
  9 22  2  0
 22 23  1  0
 23 24  1  0
 24 25  1  0
 25 26  1  0
 26 27  1  0
 27 28  2  0
 28 29  1  0
 29 30  2  0
 30 31  1  0
 31 32  2  0
 32 33  1  0
 23 34  2  0
  6 35  1  0
 35 36  1  0
 36  3  1  0
 34  7  1  0
 21 10  1  0
 33 24  1  0
 19 14  1  0
 32 27  1  0
  1 37  1  0
  1 38  1  0
  2 39  1  0
  2 40  1  0
  3 41  1  0
  4 42  1  0
  4 43  1  0
  5 44  1  0
  5 45  1  0
 11 46  1  0
 11 47  1  0
 12 48  1  0
 12 49  1  0
 15 50  1  0
 16 51  1  0
 17 52  1  0
 18 53  1  0
 19 54  1  0
 20 55  1  0
 20 56  1  0
 21 57  1  0
 21 58  1  0
 25 59  1  0
 25 60  1  0
 26 61  1  0
 26 62  1  0
 28 63  1  0
 29 64  1  0
 30 65  1  0
 31 66  1  0
 33 67  1  0
 33 68  1  0
 35 69  1  0
 35 70  1  0
 36 71  1  0
 36 72  1  0
M  END
>  <smiles>  (1) 
NCC1CCN(c2nc(N3CCN(c4ccccc4)CC3)nc(N3CCc4ccccc4C3)n2)CC1

>  <score_type>  (1) 
oracle

>  <origin>  (1) 
autodockgpu

>  <m_score__min__energy>  (1) 
-10.050000000000001

>  <m_primary>  (1) 
energy

>  <rmsd>  (1) 
9.090242602060613

>  <m_score__min__rmsd>  (1) 
9.090242602060613

>  <meeko>  (1) 
{"free_energy": -8.9, "intermolecular_energy": -10.69, "internal_energy": -1.2, "cluster_size": 6, "cluster_id": 4, "rank_in_cluster": 3}

>  <energy>  (1) 
-10.05

>  <cluster_rmsd>  (1) 
0.0

>  <cluster>  (1) 
1

$$$$

     RDKit          3D

 72 77  0  0  0  0  0  0  0  0999 V2000
  145.6670   68.1400  220.2710 N   0  0  0  0  0  0  0  0  0  0  0  0
  145.7570   68.5900  218.8930 C   0  0  0  0  0  0  0  0  0  0  0  0
  144.6950   69.6440  218.6570 C   0  0  0  0  0  0  0  0  0  0  0  0
  143.3760   69.1490  219.2080 C   0  0  0  0  0  0  0  0  0  0  0  0
  142.3150   70.1980  219.1570 C   0  0  0  0  0  0  0  0  0  0  0  0
  142.7830   71.4360  219.7230 N   0  0  0  0  0  0  0  0  0  0  0  0
  141.9510   72.1460  220.6410 C   0  0  0  0  0  0  0  0  0  0  0  0
  141.7180   73.4720  220.4450 N   0  0  0  0  0  0  0  0  0  0  0  0
  140.9340   74.1370  221.3110 C   0  0  0  0  0  0  0  0  0  0  0  0
  140.6330   75.5230  221.1890 N   0  0  0  0  0  0  0  0  0  0  0  0
  140.8920   76.2730  219.9790 C   0  0  0  0  0  0  0  0  0  0  0  0
  141.8560   77.4070  220.3610 C   0  0  0  0  0  0  0  0  0  0  0  0
  141.2970   78.1250  221.5010 N   0  0  0  0  0  0  0  0  0  0  0  0
  140.9970   79.5070  221.4870 C   0  0  0  0  0  0  0  0  0  0  0  0
  141.2970   80.3110  220.3820 C   0  0  0  0  0  0  0  0  0  0  0  0
  140.9940   81.6630  220.3610 C   0  0  0  0  0  0  0  0  0  0  0  0
  140.3860   82.2820  221.4220 C   0  0  0  0  0  0  0  0  0  0  0  0
  140.0840   81.5110  222.5170 C   0  0  0  0  0  0  0  0  0  0  0  0
  140.3870   80.1510  222.5410 C   0  0  0  0  0  0  0  0  0  0  0  0
  141.0760   77.2950  222.6900 C   0  0  0  0  0  0  0  0  0  0  0  0
  140.0330   76.2660  222.3100 C   0  0  0  0  0  0  0  0  0  0  0  0
  140.4000   73.4780  222.3460 N   0  0  0  0  0  0  0  0  0  0  0  0
  140.6160   72.1640  222.5620 C   0  0  0  0  0  0  0  0  0  0  0  0
  140.0430   71.4640  223.6680 N   0  0  0  0  0  0  0  0  0  0  0  0
  138.9030   70.6230  223.4800 C   0  0  0  0  0  0  0  0  0  0  0  0
  139.1970   69.2190  223.9450 C   0  0  0  0  0  0  0  0  0  0  0  0
  139.6740   69.3020  225.3630 C   0  0  0  0  0  0  0  0  0  0  0  0
  139.4540   68.2420  226.2260 C   0  0  0  0  0  0  0  0  0  0  0  0
  139.8860   68.3000  227.5380 C   0  0  0  0  0  0  0  0  0  0  0  0
  140.5450   69.4220  227.9970 C   0  0  0  0  0  0  0  0  0  0  0  0
  140.7750   70.4890  227.1540 C   0  0  0  0  0  0  0  0  0  0  0  0
  140.3380   70.4240  225.8420 C   0  0  0  0  0  0  0  0  0  0  0  0
  140.6160   71.6040  224.9860 C   0  0  0  0  0  0  0  0  0  0  0  0
  141.4000   71.5190  221.6880 N   0  0  0  0  0  0  0  0  0  0  0  0
  144.0830   71.9630  219.3680 C   0  0  0  0  0  0  0  0  0  0  0  0
  145.1430   70.9140  219.3450 C   0  0  0  0  0  0  0  0  0  0  0  0
  146.3690   67.4220  220.5150 H   0  0  0  0  0  0  0  0  0  0  0  0
  144.6780   67.8250  220.4350 H   0  0  0  0  0  0  0  0  0  0  0  0
  146.7526   69.0195  218.7080 H   0  0  0  0  0  0  0  0  0  0  0  0
  145.6018   67.7415  218.2103 H   0  0  0  0  0  0  0  0  0  0  0  0
  144.5570   69.8456  217.5845 H   0  0  0  0  0  0  0  0  0  0  0  0
  143.0469   68.2830  218.6150 H   0  0  0  0  0  0  0  0  0  0  0  0
  143.5312   68.8762  220.2623 H   0  0  0  0  0  0  0  0  0  0  0  0
  142.0279   70.3680  218.1088 H   0  0  0  0  0  0  0  0  0  0  0  0
  141.4513   69.8503  219.7428 H   0  0  0  0  0  0  0  0  0  0  0  0
  141.3530   75.6226  219.2211 H   0  0  0  0  0  0  0  0  0  0  0  0
  139.9596   76.6725  219.5536 H   0  0  0  0  0  0  0  0  0  0  0  0
  142.8355   76.9860  220.6317 H   0  0  0  0  0  0  0  0  0  0  0  0
  141.9871   78.0928  219.5110 H   0  0  0  0  0  0  0  0  0  0  0  0
  141.7862   79.8580  219.5071 H   0  0  0  0  0  0  0  0  0  0  0  0
  141.2481   82.2550  219.4694 H   0  0  0  0  0  0  0  0  0  0  0  0
  140.1490   83.3559  221.3971 H   0  0  0  0  0  0  0  0  0  0  0  0
  139.5960   81.9733  223.3877 H   0  0  0  0  0  0  0  0  0  0  0  0
  140.1287   79.5683  223.4375 H   0  0  0  0  0  0  0  0  0  0  0  0
  142.0114   76.7967  222.9845 H   0  0  0  0  0  0  0  0  0  0  0  0
  140.7410   77.9039  223.5427 H   0  0  0  0  0  0  0  0  0  0  0  0
  139.8260   75.5929  223.1551 H   0  0  0  0  0  0  0  0  0  0  0  0
  139.0726   76.7276  222.0371 H   0  0  0  0  0  0  0  0  0  0  0  0
  138.0576   71.0255  224.0573 H   0  0  0  0  0  0  0  0  0  0  0  0
  138.6541   70.5971  222.4088 H   0  0  0  0  0  0  0  0  0  0  0  0
  138.2844   68.6073  223.8915 H   0  0  0  0  0  0  0  0  0  0  0  0
  139.9621   68.7529  223.3067 H   0  0  0  0  0  0  0  0  0  0  0  0
  138.9303   67.3448  225.8642 H   0  0  0  0  0  0  0  0  0  0  0  0
  139.7045   67.4525  228.2153 H   0  0  0  0  0  0  0  0  0  0  0  0
  140.8888   69.4657  229.0410 H   0  0  0  0  0  0  0  0  0  0  0  0
  141.3006   71.3831  227.5206 H   0  0  0  0  0  0  0  0  0  0  0  0
  140.1905   72.4982  225.4649 H   0  0  0  0  0  0  0  0  0  0  0  0
  141.7067   71.6929  224.8743 H   0  0  0  0  0  0  0  0  0  0  0  0
  144.0171   72.4186  218.3689 H   0  0  0  0  0  0  0  0  0  0  0  0
  144.3627   72.7010  220.1342 H   0  0  0  0  0  0  0  0  0  0  0  0
  146.0197   71.3117  218.8128 H   0  0  0  0  0  0  0  0  0  0  0  0
  145.3803   70.6596  220.3886 H   0  0  0  0  0  0  0  0  0  0  0  0
  1  2  1  0
  2  3  1  0
  3  4  1  0
  4  5  1  0
  5  6  1  0
  6  7  1  0
  7  8  2  0
  8  9  1  0
  9 10  1  0
 10 11  1  0
 11 12  1  0
 12 13  1  0
 13 14  1  0
 14 15  2  0
 15 16  1  0
 16 17  2  0
 17 18  1  0
 18 19  2  0
 13 20  1  0
 20 21  1  0
  9 22  2  0
 22 23  1  0
 23 24  1  0
 24 25  1  0
 25 26  1  0
 26 27  1  0
 27 28  2  0
 28 29  1  0
 29 30  2  0
 30 31  1  0
 31 32  2  0
 32 33  1  0
 23 34  2  0
  6 35  1  0
 35 36  1  0
 36  3  1  0
 34  7  1  0
 21 10  1  0
 33 24  1  0
 19 14  1  0
 32 27  1  0
  1 37  1  0
  1 38  1  0
  2 39  1  0
  2 40  1  0
  3 41  1  0
  4 42  1  0
  4 43  1  0
  5 44  1  0
  5 45  1  0
 11 46  1  0
 11 47  1  0
 12 48  1  0
 12 49  1  0
 15 50  1  0
 16 51  1  0
 17 52  1  0
 18 53  1  0
 19 54  1  0
 20 55  1  0
 20 56  1  0
 21 57  1  0
 21 58  1  0
 25 59  1  0
 25 60  1  0
 26 61  1  0
 26 62  1  0
 28 63  1  0
 29 64  1  0
 30 65  1  0
 31 66  1  0
 33 67  1  0
 33 68  1  0
 35 69  1  0
 35 70  1  0
 36 71  1  0
 36 72  1  0
M  END
>  <smiles>  (2) 
NCC1CCN(c2nc(N3CCN(c4ccccc4)CC3)nc(N3CCc4ccccc4C3)n2)CC1

>  <score_type>  (2) 
oracle

>  <origin>  (2) 
autodockgpu

>  <m_score__min__energy>  (2) 
-10.050000000000001

>  <m_primary>  (2) 
energy

>  <rmsd>  (2) 
8.842628135819803

>  <m_score__min__rmsd>  (2) 
8.842628135819803

>  <meeko>  (2) 
{"free_energy": -9.89, "intermolecular_energy": -11.68, "internal_energy": -1.17, "cluster_size": 26, "cluster_id": 1, "rank_in_cluster": 12}

>  <energy>  (2) 
-10.03

>  <cluster_rmsd>  (2) 
0.41

>  <cluster>  (2) 
1

$$$$

     RDKit          3D

 72 77  0  0  0  0  0  0  0  0999 V2000
  142.6160   79.0580  222.5220 N   0  0  0  0  0  0  0  0  0  0  0  0
  141.3690   79.4840  221.9110 C   0  0  0  0  0  0  0  0  0  0  0  0
  140.6170   78.2570  221.4400 C   0  0  0  0  0  0  0  0  0  0  0  0
  141.5260   77.4260  220.5610 C   0  0  0  0  0  0  0  0  0  0  0  0
  140.9090   76.1190  220.1880 C   0  0  0  0  0  0  0  0  0  0  0  0
  140.3960   75.4370  221.3490 N   0  0  0  0  0  0  0  0  0  0  0  0
  140.6720   74.0470  221.5240 C   0  0  0  0  0  0  0  0  0  0  0  0
  141.3760   73.3800  220.5710 N   0  0  0  0  0  0  0  0  0  0  0  0
  141.6340   72.0720  220.7390 C   0  0  0  0  0  0  0  0  0  0  0  0
  142.3630   71.2900  219.7990 N   0  0  0  0  0  0  0  0  0  0  0  0
  141.9070   69.9940  219.3440 C   0  0  0  0  0  0  0  0  0  0  0  0
  143.0020   68.9830  219.7200 C   0  0  0  0  0  0  0  0  0  0  0  0
  144.2780   69.4740  219.2110 N   0  0  0  0  0  0  0  0  0  0  0  0
  145.0880   68.7540  218.3020 C   0  0  0  0  0  0  0  0  0  0  0  0
  145.9100   67.7040  218.7260 C   0  0  0  0  0  0  0  0  0  0  0  0
  146.6960   66.9890  217.8360 C   0  0  0  0  0  0  0  0  0  0  0  0
  146.7110   67.2760  216.4970 C   0  0  0  0  0  0  0  0  0  0  0  0
  145.9130   68.3050  216.0590 C   0  0  0  0  0  0  0  0  0  0  0  0
  145.1200   69.0240  216.9520 C   0  0  0  0  0  0  0  0  0  0  0  0
  144.6720   70.7880  219.7300 C   0  0  0  0  0  0  0  0  0  0  0  0
  143.6350   71.7750  219.2390 C   0  0  0  0  0  0  0  0  0  0  0  0
  141.1920   71.4560  221.8410 N   0  0  0  0  0  0  0  0  0  0  0  0
  140.4910   72.0950  222.8010 C   0  0  0  0  0  0  0  0  0  0  0  0
  140.0200   71.4340  223.9770 N   0  0  0  0  0  0  0  0  0  0  0  0
  138.8770   70.5780  223.9160 C   0  0  0  0  0  0  0  0  0  0  0  0
  139.2220   69.1950  224.4070 C   0  0  0  0  0  0  0  0  0  0  0  0
  139.8160   69.3350  225.7750 C   0  0  0  0  0  0  0  0  0  0  0  0
  139.6790   68.3070  226.6920 C   0  0  0  0  0  0  0  0  0  0  0  0
  140.2200   68.4170  227.9610 C   0  0  0  0  0  0  0  0  0  0  0  0
  140.9030   69.5600  228.3200 C   0  0  0  0  0  0  0  0  0  0  0  0
  141.0520   70.5960  227.4220 C   0  0  0  0  0  0  0  0  0  0  0  0
  140.5070   70.4780  226.1550 C   0  0  0  0  0  0  0  0  0  0  0  0
  140.7010   71.6270  225.2360 C   0  0  0  0  0  0  0  0  0  0  0  0
  140.2440   73.3990  222.6140 N   0  0  0  0  0  0  0  0  0  0  0  0
  139.6070   76.1480  222.3310 C   0  0  0  0  0  0  0  0  0  0  0  0
  140.1720   77.4880  222.6630 C   0  0  0  0  0  0  0  0  0  0  0  0
  143.4540   79.3960  222.0230 H   0  0  0  0  0  0  0  0  0  0  0  0
  142.5800   78.0110  222.6110 H   0  0  0  0  0  0  0  0  0  0  0  0
  140.7624   80.0297  222.6488 H   0  0  0  0  0  0  0  0  0  0  0  0
  141.5761   80.1477  221.0586 H   0  0  0  0  0  0  0  0  0  0  0  0
  139.7323   78.5298  220.8460 H   0  0  0  0  0  0  0  0  0  0  0  0
  141.7430   77.9904  219.6421 H   0  0  0  0  0  0  0  0  0  0  0  0
  142.4448   77.2161  221.1283 H   0  0  0  0  0  0  0  0  0  0  0  0
  140.0837   76.2995  219.4835 H   0  0  0  0  0  0  0  0  0  0  0  0
  141.6816   75.4876  219.7251 H   0  0  0  0  0  0  0  0  0  0  0  0
  140.9610   69.7298  219.8392 H   0  0  0  0  0  0  0  0  0  0  0  0
  141.7269   69.9967  218.2588 H   0  0  0  0  0  0  0  0  0  0  0  0
  143.0532   68.8809  220.8141 H   0  0  0  0  0  0  0  0  0  0  0  0
  142.7743   67.9998  219.2825 H   0  0  0  0  0  0  0  0  0  0  0  0
  145.9330   67.4391  219.7934 H   0  0  0  0  0  0  0  0  0  0  0  0
  147.3242   66.1695  218.2151 H   0  0  0  0  0  0  0  0  0  0  0  0
  147.3387   66.7038  215.7980 H   0  0  0  0  0  0  0  0  0  0  0  0
  145.8996   68.5648  214.9902 H   0  0  0  0  0  0  0  0  0  0  0  0
  144.4942   69.8404  216.5624 H   0  0  0  0  0  0  0  0  0  0  0  0
  144.6901   70.7720  220.8297 H   0  0  0  0  0  0  0  0  0  0  0  0
  145.6789   71.0655  219.3847 H   0  0  0  0  0  0  0  0  0  0  0  0
  143.8591   72.7877  219.6055 H   0  0  0  0  0  0  0  0  0  0  0  0
  143.6087   71.8395  218.1412 H   0  0  0  0  0  0  0  0  0  0  0  0
  138.0782   70.9963  224.5460 H   0  0  0  0  0  0  0  0  0  0  0  0
  138.5412   70.5093  222.8708 H   0  0  0  0  0  0  0  0  0  0  0  0
  138.3137   68.5763  224.4540 H   0  0  0  0  0  0  0  0  0  0  0  0
  139.9348   68.7094  223.7243 H   0  0  0  0  0  0  0  0  0  0  0  0
  139.1348   67.3938  226.4092 H   0  0  0  0  0  0  0  0  0  0  0  0
  140.1054   67.5942  228.6820 H   0  0  0  0  0  0  0  0  0  0  0  0
  141.3318   69.6459  229.3293 H   0  0  0  0  0  0  0  0  0  0  0  0
  141.5982   71.5065  227.7095 H   0  0  0  0  0  0  0  0  0  0  0  0
  140.3091   72.5358  225.7161 H   0  0  0  0  0  0  0  0  0  0  0  0
  141.7775   71.7187  225.0293 H   0  0  0  0  0  0  0  0  0  0  0  0
  138.5900   76.2834  221.9342 H   0  0  0  0  0  0  0  0  0  0  0  0
  139.6073   75.5495  223.2539 H   0  0  0  0  0  0  0  0  0  0  0  0
  139.4017   78.0743  223.1854 H   0  0  0  0  0  0  0  0  0  0  0  0
  141.0594   77.3259  223.2925 H   0  0  0  0  0  0  0  0  0  0  0  0
  1  2  1  0
  2  3  1  0
  3  4  1  0
  4  5  1  0
  5  6  1  0
  6  7  1  0
  7  8  2  0
  8  9  1  0
  9 10  1  0
 10 11  1  0
 11 12  1  0
 12 13  1  0
 13 14  1  0
 14 15  2  0
 15 16  1  0
 16 17  2  0
 17 18  1  0
 18 19  2  0
 13 20  1  0
 20 21  1  0
  9 22  2  0
 22 23  1  0
 23 24  1  0
 24 25  1  0
 25 26  1  0
 26 27  1  0
 27 28  2  0
 28 29  1  0
 29 30  2  0
 30 31  1  0
 31 32  2  0
 32 33  1  0
 23 34  2  0
  6 35  1  0
 35 36  1  0
 36  3  1  0
 34  7  1  0
 21 10  1  0
 33 24  1  0
 19 14  1  0
 32 27  1  0
  1 37  1  0
  1 38  1  0
  2 39  1  0
  2 40  1  0
  3 41  1  0
  4 42  1  0
  4 43  1  0
  5 44  1  0
  5 45  1  0
 11 46  1  0
 11 47  1  0
 12 48  1  0
 12 49  1  0
 15 50  1  0
 16 51  1  0
 17 52  1  0
 18 53  1  0
 19 54  1  0
 20 55  1  0
 20 56  1  0
 21 57  1  0
 21 58  1  0
 25 59  1  0
 25 60  1  0
 26 61  1  0
 26 62  1  0
 28 63  1  0
 29 64  1  0
 30 65  1  0
 31 66  1  0
 33 67  1  0
 33 68  1  0
 35 69  1  0
 35 70  1  0
 36 71  1  0
 36 72  1  0
M  END
>  <smiles>  (3) 
NCC1CCN(c2nc(N3CCN(c4ccccc4)CC3)nc(N3CCc4ccccc4C3)n2)CC1

>  <score_type>  (3) 
oracle

>  <origin>  (3) 
autodockgpu

>  <m_score__min__energy>  (3) 
-10.050000000000001

>  <m_primary>  (3) 
energy

>  <rmsd>  (3) 
8.776407206339998

>  <m_score__min__rmsd>  (3) 
8.776407206339998

>  <meeko>  (3) 
{"free_energy": -9.62, "intermolecular_energy": -11.41, "internal_energy": -1.21, "cluster_size": 13, "cluster_id": 2, "rank_in_cluster": 2}

>  <energy>  (3) 
-10.03

>  <cluster_rmsd>  (3) 
0.34

>  <cluster>  (3) 
1

$$$$

     RDKit          3D

 72 77  0  0  0  0  0  0  0  0999 V2000
  145.4850   67.8180  220.2030 N   0  0  0  0  0  0  0  0  0  0  0  0
  145.7120   68.3890  218.8870 C   0  0  0  0  0  0  0  0  0  0  0  0
  144.6930   69.4830  218.6510 C   0  0  0  0  0  0  0  0  0  0  0  0
  143.3540   69.0390  219.1990 C   0  0  0  0  0  0  0  0  0  0  0  0
  142.3340   70.1290  219.1470 C   0  0  0  0  0  0  0  0  0  0  0  0
  142.8490   71.3470  219.7160 N   0  0  0  0  0  0  0  0  0  0  0  0
  142.0430   72.0880  220.6330 C   0  0  0  0  0  0  0  0  0  0  0  0
  141.8380   73.4150  220.4220 N   0  0  0  0  0  0  0  0  0  0  0  0
  141.0790   74.1090  221.2880 C   0  0  0  0  0  0  0  0  0  0  0  0
  140.8070   75.4990  221.1520 N   0  0  0  0  0  0  0  0  0  0  0  0
  141.1970   76.2580  219.9820 C   0  0  0  0  0  0  0  0  0  0  0  0
  142.1290   77.3770  220.4730 C   0  0  0  0  0  0  0  0  0  0  0  0
  141.4650   78.0900  221.5580 N   0  0  0  0  0  0  0  0  0  0  0  0
  141.1830   79.4760  221.5290 C   0  0  0  0  0  0  0  0  0  0  0  0
  141.2890   80.2690  222.6760 C   0  0  0  0  0  0  0  0  0  0  0  0
  141.0250   81.6300  222.6480 C   0  0  0  0  0  0  0  0  0  0  0  0
  140.6450   82.2660  221.4960 C   0  0  0  0  0  0  0  0  0  0  0  0
  140.5340   81.5060  220.3580 C   0  0  0  0  0  0  0  0  0  0  0  0
  140.8000   80.1380  220.3830 C   0  0  0  0  0  0  0  0  0  0  0  0
  141.1140   77.2510  222.7090 C   0  0  0  0  0  0  0  0  0  0  0  0
  140.1040   76.2390  222.2130 C   0  0  0  0  0  0  0  0  0  0  0  0
  140.5420   73.4760  222.3380 N   0  0  0  0  0  0  0  0  0  0  0  0
  140.7310   72.1600  222.5680 C   0  0  0  0  0  0  0  0  0  0  0  0
  140.1550   71.4880  223.6910 N   0  0  0  0  0  0  0  0  0  0  0  0
  139.0130   70.6450  223.5210 C   0  0  0  0  0  0  0  0  0  0  0  0
  139.3020   69.2520  224.0190 C   0  0  0  0  0  0  0  0  0  0  0  0
  139.7790   69.3670  225.4350 C   0  0  0  0  0  0  0  0  0  0  0  0
  139.5550   68.3280  226.3210 C   0  0  0  0  0  0  0  0  0  0  0  0
  139.9870   68.4150  227.6330 C   0  0  0  0  0  0  0  0  0  0  0  0
  140.6480   69.5450  228.0660 C   0  0  0  0  0  0  0  0  0  0  0  0
  140.8830   70.5920  227.1980 C   0  0  0  0  0  0  0  0  0  0  0  0
  140.4460   70.4970  225.8880 C   0  0  0  0  0  0  0  0  0  0  0  0
  140.7280   71.6560  225.0060 C   0  0  0  0  0  0  0  0  0  0  0  0
  141.4910   71.4870  221.6950 N   0  0  0  0  0  0  0  0  0  0  0  0
  144.1690   71.8240  219.3640 C   0  0  0  0  0  0  0  0  0  0  0  0
  145.1870   70.7340  219.3420 C   0  0  0  0  0  0  0  0  0  0  0  0
  145.1160   68.4980  220.8880 H   0  0  0  0  0  0  0  0  0  0  0  0
  146.3840   67.3680  220.5100 H   0  0  0  0  0  0  0  0  0  0  0  0
  146.7266   68.8109  218.8364 H   0  0  0  0  0  0  0  0  0  0  0  0
  145.6106   67.6096  218.1174 H   0  0  0  0  0  0  0  0  0  0  0  0
  144.5663   69.6908  217.5783 H   0  0  0  0  0  0  0  0  0  0  0  0
  142.9927   68.1870  218.6044 H   0  0  0  0  0  0  0  0  0  0  0  0
  143.4963   68.7595  220.2533 H   0  0  0  0  0  0  0  0  0  0  0  0
  142.0561   70.3115  218.0984 H   0  0  0  0  0  0  0  0  0  0  0  0
  141.4559   69.8145  219.7301 H   0  0  0  0  0  0  0  0  0  0  0  0
  141.7263   75.6095  219.2683 H   0  0  0  0  0  0  0  0  0  0  0  0
  140.3175   76.6724  219.4675 H   0  0  0  0  0  0  0  0  0  0  0  0
  143.0714   76.9418  220.8371 H   0  0  0  0  0  0  0  0  0  0  0  0
  142.3528   78.0698  219.6484 H   0  0  0  0  0  0  0  0  0  0  0  0
  141.5896   79.8010  223.6250 H   0  0  0  0  0  0  0  0  0  0  0  0
  141.1233   82.2140  223.5750 H   0  0  0  0  0  0  0  0  0  0  0  0
  140.4364   83.3460  221.4831 H   0  0  0  0  0  0  0  0  0  0  0  0
  140.2312   81.9829  219.4142 H   0  0  0  0  0  0  0  0  0  0  0  0
  140.7001   79.5638  219.4501 H   0  0  0  0  0  0  0  0  0  0  0  0
  142.0086   76.7383  223.0920 H   0  0  0  0  0  0  0  0  0  0  0  0
  140.7003   77.8555  223.5296 H   0  0  0  0  0  0  0  0  0  0  0  0
  139.8034   75.5608  223.0252 H   0  0  0  0  0  0  0  0  0  0  0  0
  139.1823   76.7154  221.8477 H   0  0  0  0  0  0  0  0  0  0  0  0
  138.1677   71.0631  224.0873 H   0  0  0  0  0  0  0  0  0  0  0  0
  138.7663   70.5943  222.4502 H   0  0  0  0  0  0  0  0  0  0  0  0
  138.3873   68.6423  223.9797 H   0  0  0  0  0  0  0  0  0  0  0  0
  140.0656   68.7683  223.3922 H   0  0  0  0  0  0  0  0  0  0  0  0
  139.0287   67.4245  225.9794 H   0  0  0  0  0  0  0  0  0  0  0  0
  139.8033   67.5837  228.3295 H   0  0  0  0  0  0  0  0  0  0  0  0
  140.9900   69.6124  229.1093 H   0  0  0  0  0  0  0  0  0  0  0  0
  141.4120   71.4924  227.5436 H   0  0  0  0  0  0  0  0  0  0  0  0
  140.3051   72.5621  225.4644 H   0  0  0  0  0  0  0  0  0  0  0  0
  141.8190   71.7389  224.8928 H   0  0  0  0  0  0  0  0  0  0  0  0
  144.1228   72.2829  218.3653 H   0  0  0  0  0  0  0  0  0  0  0  0
  144.4758   72.5503  220.1311 H   0  0  0  0  0  0  0  0  0  0  0  0
  146.0800   71.0981  218.8129 H   0  0  0  0  0  0  0  0  0  0  0  0
  145.4101   70.4689  220.3860 H   0  0  0  0  0  0  0  0  0  0  0  0
  1  2  1  0
  2  3  1  0
  3  4  1  0
  4  5  1  0
  5  6  1  0
  6  7  1  0
  7  8  2  0
  8  9  1  0
  9 10  1  0
 10 11  1  0
 11 12  1  0
 12 13  1  0
 13 14  1  0
 14 15  2  0
 15 16  1  0
 16 17  2  0
 17 18  1  0
 18 19  2  0
 13 20  1  0
 20 21  1  0
  9 22  2  0
 22 23  1  0
 23 24  1  0
 24 25  1  0
 25 26  1  0
 26 27  1  0
 27 28  2  0
 28 29  1  0
 29 30  2  0
 30 31  1  0
 31 32  2  0
 32 33  1  0
 23 34  2  0
  6 35  1  0
 35 36  1  0
 36  3  1  0
 34  7  1  0
 21 10  1  0
 33 24  1  0
 19 14  1  0
 32 27  1  0
  1 37  1  0
  1 38  1  0
  2 39  1  0
  2 40  1  0
  3 41  1  0
  4 42  1  0
  4 43  1  0
  5 44  1  0
  5 45  1  0
 11 46  1  0
 11 47  1  0
 12 48  1  0
 12 49  1  0
 15 50  1  0
 16 51  1  0
 17 52  1  0
 18 53  1  0
 19 54  1  0
 20 55  1  0
 20 56  1  0
 21 57  1  0
 21 58  1  0
 25 59  1  0
 25 60  1  0
 26 61  1  0
 26 62  1  0
 28 63  1  0
 29 64  1  0
 30 65  1  0
 31 66  1  0
 33 67  1  0
 33 68  1  0
 35 69  1  0
 35 70  1  0
 36 71  1  0
 36 72  1  0
M  END
>  <smiles>  (4) 
NCC1CCN(c2nc(N3CCN(c4ccccc4)CC3)nc(N3CCc4ccccc4C3)n2)CC1

>  <score_type>  (4) 
oracle

>  <origin>  (4) 
autodockgpu

>  <m_score__min__energy>  (4) 
-10.050000000000001

>  <m_primary>  (4) 
energy

>  <rmsd>  (4) 
9.007389466412953

>  <m_score__min__rmsd>  (4) 
9.007389466412953

>  <meeko>  (4) 
{"free_energy": -9.71, "intermolecular_energy": -11.5, "internal_energy": -1.21, "cluster_size": 26, "cluster_id": 1, "rank_in_cluster": 14}

>  <energy>  (4) 
-10.03

>  <cluster_rmsd>  (4) 
0.13

>  <cluster>  (4) 
1

$$$$

     RDKit          3D

 72 77  0  0  0  0  0  0  0  0999 V2000
  145.5260   68.0050  220.2060 N   0  0  0  0  0  0  0  0  0  0  0  0
  145.9270   68.9060  219.1400 C   0  0  0  0  0  0  0  0  0  0  0  0
  144.8160   69.9080  218.9090 C   0  0  0  0  0  0  0  0  0  0  0  0
  143.5130   69.3300  219.4180 C   0  0  0  0  0  0  0  0  0  0  0  0
  142.3990   70.3220  219.3730 C   0  0  0  0  0  0  0  0  0  0  0  0
  142.7900   71.5680  219.9810 N   0  0  0  0  0  0  0  0  0  0  0  0
  141.9030   72.2080  220.9000 C   0  0  0  0  0  0  0  0  0  0  0  0
  141.5650   73.5100  220.7050 N   0  0  0  0  0  0  0  0  0  0  0  0
  140.7290   74.1090  221.5720 C   0  0  0  0  0  0  0  0  0  0  0  0
  140.3180   75.4660  221.4520 N   0  0  0  0  0  0  0  0  0  0  0  0
  141.2590   76.5560  221.3020 C   0  0  0  0  0  0  0  0  0  0  0  0
  141.0320   77.5010  222.4920 C   0  0  0  0  0  0  0  0  0  0  0  0
  139.6130   77.8320  222.5560 N   0  0  0  0  0  0  0  0  0  0  0  0
  139.1110   79.1520  222.4810 C   0  0  0  0  0  0  0  0  0  0  0  0
  139.8380   80.1780  221.8690 C   0  0  0  0  0  0  0  0  0  0  0  0
  139.3430   81.4700  221.7830 C   0  0  0  0  0  0  0  0  0  0  0  0
  138.1170   81.8080  222.2940 C   0  0  0  0  0  0  0  0  0  0  0  0
  137.3870   80.8150  222.9000 C   0  0  0  0  0  0  0  0  0  0  0  0
  137.8820   79.5140  222.9870 C   0  0  0  0  0  0  0  0  0  0  0  0
  138.7290   76.6730  222.7200 C   0  0  0  0  0  0  0  0  0  0  0  0
  138.8900   75.8270  221.4750 C   0  0  0  0  0  0  0  0  0  0  0  0
  140.2500   73.4080  222.6060 N   0  0  0  0  0  0  0  0  0  0  0  0
  140.5700   72.1160  222.8200 C   0  0  0  0  0  0  0  0  0  0  0  0
  140.0550   71.3710  223.9250 N   0  0  0  0  0  0  0  0  0  0  0  0
  138.9550   70.4760  223.7450 C   0  0  0  0  0  0  0  0  0  0  0  0
  139.3270   69.0820  224.1810 C   0  0  0  0  0  0  0  0  0  0  0  0
  139.8280   69.1670  225.5910 C   0  0  0  0  0  0  0  0  0  0  0  0
  139.6780   68.0830  226.4390 C   0  0  0  0  0  0  0  0  0  0  0  0
  140.1340   68.1420  227.7440 C   0  0  0  0  0  0  0  0  0  0  0  0
  140.7450   69.2880  228.2090 C   0  0  0  0  0  0  0  0  0  0  0  0
  140.9050   70.3780  227.3790 C   0  0  0  0  0  0  0  0  0  0  0  0
  140.4450   70.3120  226.0760 C   0  0  0  0  0  0  0  0  0  0  0  0
  140.6480   71.5180  225.2340 C   0  0  0  0  0  0  0  0  0  0  0  0
  141.4040   71.5370  221.9460 N   0  0  0  0  0  0  0  0  0  0  0  0
  144.0670   72.1720  219.6680 C   0  0  0  0  0  0  0  0  0  0  0  0
  145.1810   71.1810  219.6400 C   0  0  0  0  0  0  0  0  0  0  0  0
  145.0730   68.4850  221.0010 H   0  0  0  0  0  0  0  0  0  0  0  0
  146.3750   67.4520  220.4860 H   0  0  0  0  0  0  0  0  0  0  0  0
  146.8479   69.4341  219.4283 H   0  0  0  0  0  0  0  0  0  0  0  0
  146.1159   68.3361  218.2183 H   0  0  0  0  0  0  0  0  0  0  0  0
  144.6902   70.1305  217.8391 H   0  0  0  0  0  0  0  0  0  0  0  0
  143.2421   68.4650  218.7948 H   0  0  0  0  0  0  0  0  0  0  0  0
  143.6614   69.0372  220.4679 H   0  0  0  0  0  0  0  0  0  0  0  0
  142.1229   70.5050  218.3241 H   0  0  0  0  0  0  0  0  0  0  0  0
  141.5442   69.9134  219.9318 H   0  0  0  0  0  0  0  0  0  0  0  0
  142.2896   76.1717  221.3141 H   0  0  0  0  0  0  0  0  0  0  0  0
  141.1094   77.0797  220.3463 H   0  0  0  0  0  0  0  0  0  0  0  0
  141.3396   77.0044  223.4241 H   0  0  0  0  0  0  0  0  0  0  0  0
  141.6273   78.4172  222.3646 H   0  0  0  0  0  0  0  0  0  0  0  0
  140.8280   79.9541  221.4450 H   0  0  0  0  0  0  0  0  0  0  0  0
  139.9503   82.2444  221.2916 H   0  0  0  0  0  0  0  0  0  0  0  0
  137.7322   82.8359  222.2215 H   0  0  0  0  0  0  0  0  0  0  0  0
  136.3986   81.0489  223.3224 H   0  0  0  0  0  0  0  0  0  0  0  0
  137.2666   78.7465  223.4792 H   0  0  0  0  0  0  0  0  0  0  0  0
  139.0199   76.0968  223.6107 H   0  0  0  0  0  0  0  0  0  0  0  0
  137.6834   76.9873  222.8537 H   0  0  0  0  0  0  0  0  0  0  0  0
  138.2626   74.9254  221.5345 H   0  0  0  0  0  0  0  0  0  0  0  0
  138.5806   76.3617  220.5649 H   0  0  0  0  0  0  0  0  0  0  0  0
  138.1021   70.8266  224.3447 H   0  0  0  0  0  0  0  0  0  0  0  0
  138.6874   70.4538  222.6783 H   0  0  0  0  0  0  0  0  0  0  0  0
  138.4447   68.4266  224.1352 H   0  0  0  0  0  0  0  0  0  0  0  0
  140.1010   68.6641  223.5204 H   0  0  0  0  0  0  0  0  0  0  0  0
  139.1921   67.1669  226.0721 H   0  0  0  0  0  0  0  0  0  0  0  0
  140.0094   67.2756  228.4102 H   0  0  0  0  0  0  0  0  0  0  0  0
  141.1064   69.3328  229.2470 H   0  0  0  0  0  0  0  0  0  0  0  0
  141.3937   71.2911  227.7497 H   0  0  0  0  0  0  0  0  0  0  0  0
  140.1898   72.3828  225.7362 H   0  0  0  0  0  0  0  0  0  0  0  0
  141.7306   71.6616  225.1020 H   0  0  0  0  0  0  0  0  0  0  0  0
  143.9971   72.6509  218.6802 H   0  0  0  0  0  0  0  0  0  0  0  0
  144.2919   72.9024  220.4592 H   0  0  0  0  0  0  0  0  0  0  0  0
  146.0459   71.6388  219.1377 H   0  0  0  0  0  0  0  0  0  0  0  0
  145.4094   70.9105  220.6815 H   0  0  0  0  0  0  0  0  0  0  0  0
  1  2  1  0
  2  3  1  0
  3  4  1  0
  4  5  1  0
  5  6  1  0
  6  7  1  0
  7  8  2  0
  8  9  1  0
  9 10  1  0
 10 11  1  0
 11 12  1  0
 12 13  1  0
 13 14  1  0
 14 15  2  0
 15 16  1  0
 16 17  2  0
 17 18  1  0
 18 19  2  0
 13 20  1  0
 20 21  1  0
  9 22  2  0
 22 23  1  0
 23 24  1  0
 24 25  1  0
 25 26  1  0
 26 27  1  0
 27 28  2  0
 28 29  1  0
 29 30  2  0
 30 31  1  0
 31 32  2  0
 32 33  1  0
 23 34  2  0
  6 35  1  0
 35 36  1  0
 36  3  1  0
 34  7  1  0
 21 10  1  0
 33 24  1  0
 19 14  1  0
 32 27  1  0
  1 37  1  0
  1 38  1  0
  2 39  1  0
  2 40  1  0
  3 41  1  0
  4 42  1  0
  4 43  1  0
  5 44  1  0
  5 45  1  0
 11 46  1  0
 11 47  1  0
 12 48  1  0
 12 49  1  0
 15 50  1  0
 16 51  1  0
 17 52  1  0
 18 53  1  0
 19 54  1  0
 20 55  1  0
 20 56  1  0
 21 57  1  0
 21 58  1  0
 25 59  1  0
 25 60  1  0
 26 61  1  0
 26 62  1  0
 28 63  1  0
 29 64  1  0
 30 65  1  0
 31 66  1  0
 33 67  1  0
 33 68  1  0
 35 69  1  0
 35 70  1  0
 36 71  1  0
 36 72  1  0
M  END
>  <smiles>  (5) 
NCC1CCN(c2nc(N3CCN(c4ccccc4)CC3)nc(N3CCc4ccccc4C3)n2)CC1

>  <score_type>  (5) 
oracle

>  <origin>  (5) 
autodockgpu

>  <m_score__min__energy>  (5) 
-10.050000000000001

>  <m_primary>  (5) 
energy

>  <rmsd>  (5) 
8.463759779849378

>  <m_score__min__rmsd>  (5) 
8.463759779849378

>  <meeko>  (5) 
{"free_energy": -9.37, "intermolecular_energy": -11.16, "internal_energy": -1.2, "cluster_size": 26, "cluster_id": 1, "rank_in_cluster": 19}

>  <energy>  (5) 
-10.03

>  <cluster_rmsd>  (5) 
0.4

>  <cluster>  (5) 
1

$$$$

     RDKit          3D

 72 77  0  0  0  0  0  0  0  0999 V2000
  146.7420   69.5390  218.4660 N   0  0  0  0  0  0  0  0  0  0  0  0
  145.5160   68.8650  218.8550 C   0  0  0  0  0  0  0  0  0  0  0  0
  144.3600   69.8280  218.6910 C   0  0  0  0  0  0  0  0  0  0  0  0
  143.1290   69.2410  219.3470 C   0  0  0  0  0  0  0  0  0  0  0  0
  141.9880   70.2030  219.3670 C   0  0  0  0  0  0  0  0  0  0  0  0
  142.3990   71.4840  219.8820 N   0  0  0  0  0  0  0  0  0  0  0  0
  141.5850   72.1420  220.8540 C   0  0  0  0  0  0  0  0  0  0  0  0
  141.2750   73.4550  220.6870 N   0  0  0  0  0  0  0  0  0  0  0  0
  140.5090   74.0720  221.6040 C   0  0  0  0  0  0  0  0  0  0  0  0
  140.1300   75.4410  221.5160 N   0  0  0  0  0  0  0  0  0  0  0  0
  141.1000   76.5140  221.4430 C   0  0  0  0  0  0  0  0  0  0  0  0
  140.8440   77.4230  222.6550 C   0  0  0  0  0  0  0  0  0  0  0  0
  139.4310   77.7820  222.6740 N   0  0  0  0  0  0  0  0  0  0  0  0
  138.9590   79.1150  222.6260 C   0  0  0  0  0  0  0  0  0  0  0  0
  139.8150   80.1850  222.3440 C   0  0  0  0  0  0  0  0  0  0  0  0
  139.3540   81.4910  222.2840 C   0  0  0  0  0  0  0  0  0  0  0  0
  138.0370   81.8000  222.4990 C   0  0  0  0  0  0  0  0  0  0  0  0
  137.1790   80.7640  222.7780 C   0  0  0  0  0  0  0  0  0  0  0  0
  137.6400   79.4500  222.8370 C   0  0  0  0  0  0  0  0  0  0  0  0
  138.5160   76.6380  222.7610 C   0  0  0  0  0  0  0  0  0  0  0  0
  138.7110   75.8320  221.4940 C   0  0  0  0  0  0  0  0  0  0  0  0
  140.0690   73.3780  222.6600 N   0  0  0  0  0  0  0  0  0  0  0  0
  140.3640   72.0750  222.8480 C   0  0  0  0  0  0  0  0  0  0  0  0
  139.8920   71.3370  223.9770 N   0  0  0  0  0  0  0  0  0  0  0  0
  138.7880   70.4390  223.8440 C   0  0  0  0  0  0  0  0  0  0  0  0
  139.1790   69.0480  224.2760 C   0  0  0  0  0  0  0  0  0  0  0  0
  139.7320   69.1440  225.6650 C   0  0  0  0  0  0  0  0  0  0  0  0
  139.6170   68.0670  226.5270 C   0  0  0  0  0  0  0  0  0  0  0  0
  140.1210   68.1360  227.8130 C   0  0  0  0  0  0  0  0  0  0  0  0
  140.7460   69.2860  228.2460 C   0  0  0  0  0  0  0  0  0  0  0  0
  140.8730   70.3710  227.4040 C   0  0  0  0  0  0  0  0  0  0  0  0
  140.3640   70.2950  226.1190 C   0  0  0  0  0  0  0  0  0  0  0  0
  140.5330   71.4950  225.2620 C   0  0  0  0  0  0  0  0  0  0  0  0
  141.1290   71.4790  221.9240 N   0  0  0  0  0  0  0  0  0  0  0  0
  143.6220   72.1050  219.4220 C   0  0  0  0  0  0  0  0  0  0  0  0
  144.7560   71.1410  219.3280 C   0  0  0  0  0  0  0  0  0  0  0  0
  147.0800   69.2690  217.5280 H   0  0  0  0  0  0  0  0  0  0  0  0
  147.4490   69.3680  219.2250 H   0  0  0  0  0  0  0  0  0  0  0  0
  145.3582   67.9848  218.2145 H   0  0  0  0  0  0  0  0  0  0  0  0
  145.5848   68.5369  219.9027 H   0  0  0  0  0  0  0  0  0  0  0  0
  144.1261   69.9997  217.6299 H   0  0  0  0  0  0  0  0  0  0  0  0
  142.8251   68.3425  218.7900 H   0  0  0  0  0  0  0  0  0  0  0  0
  143.3847   68.9985  220.3890 H   0  0  0  0  0  0  0  0  0  0  0  0
  141.6091   70.3324  218.3424 H   0  0  0  0  0  0  0  0  0  0  0  0
  141.2017   69.7991  220.0217 H   0  0  0  0  0  0  0  0  0  0  0  0
  142.1207   76.1059  221.4839 H   0  0  0  0  0  0  0  0  0  0  0  0
  141.0016   77.0732  220.5009 H   0  0  0  0  0  0  0  0  0  0  0  0
  141.1035   76.8887  223.5809 H   0  0  0  0  0  0  0  0  0  0  0  0
  141.4623   78.3299  222.5831 H   0  0  0  0  0  0  0  0  0  0  0  0
  140.8817   79.9848  222.1652 H   0  0  0  0  0  0  0  0  0  0  0  0
  140.0642   82.3000  222.0579 H   0  0  0  0  0  0  0  0  0  0  0  0
  137.6796   82.8392  222.4501 H   0  0  0  0  0  0  0  0  0  0  0  0
  136.1143   80.9743  222.9572 H   0  0  0  0  0  0  0  0  0  0  0  0
  136.9212   78.6481  223.0612 H   0  0  0  0  0  0  0  0  0  0  0  0
  138.7572   76.0250  223.6419 H   0  0  0  0  0  0  0  0  0  0  0  0
  137.4726   76.9709  222.8632 H   0  0  0  0  0  0  0  0  0  0  0  0
  138.0633   74.9429  221.4961 H   0  0  0  0  0  0  0  0  0  0  0  0
  138.4505   76.4046  220.5916 H   0  0  0  0  0  0  0  0  0  0  0  0
  137.9571   70.7923  224.4723 H   0  0  0  0  0  0  0  0  0  0  0  0
  138.4811   70.4089  222.7881 H   0  0  0  0  0  0  0  0  0  0  0  0
  138.2969   68.3908  224.2680 H   0  0  0  0  0  0  0  0  0  0  0  0
  139.9285   68.6267  223.5899 H   0  0  0  0  0  0  0  0  0  0  0  0
  139.1198   67.1471  226.1857 H   0  0  0  0  0  0  0  0  0  0  0  0
  140.0233   67.2743  228.4896 H   0  0  0  0  0  0  0  0  0  0  0  0
  141.1459   69.3386  229.2694 H   0  0  0  0  0  0  0  0  0  0  0  0
  141.3736   71.2873  227.7501 H   0  0  0  0  0  0  0  0  0  0  0  0
  140.0919   72.3625  225.7746 H   0  0  0  0  0  0  0  0  0  0  0  0
  141.6096   71.6401  225.0891 H   0  0  0  0  0  0  0  0  0  0  0  0
  143.4443   72.5377  218.4264 H   0  0  0  0  0  0  0  0  0  0  0  0
  143.9004   72.8754  220.1561 H   0  0  0  0  0  0  0  0  0  0  0  0
  145.5552   71.5968  218.7251 H   0  0  0  0  0  0  0  0  0  0  0  0
  145.0904   70.9233  220.3531 H   0  0  0  0  0  0  0  0  0  0  0  0
  1  2  1  0
  2  3  1  0
  3  4  1  0
  4  5  1  0
  5  6  1  0
  6  7  1  0
  7  8  2  0
  8  9  1  0
  9 10  1  0
 10 11  1  0
 11 12  1  0
 12 13  1  0
 13 14  1  0
 14 15  2  0
 15 16  1  0
 16 17  2  0
 17 18  1  0
 18 19  2  0
 13 20  1  0
 20 21  1  0
  9 22  2  0
 22 23  1  0
 23 24  1  0
 24 25  1  0
 25 26  1  0
 26 27  1  0
 27 28  2  0
 28 29  1  0
 29 30  2  0
 30 31  1  0
 31 32  2  0
 32 33  1  0
 23 34  2  0
  6 35  1  0
 35 36  1  0
 36  3  1  0
 34  7  1  0
 21 10  1  0
 33 24  1  0
 19 14  1  0
 32 27  1  0
  1 37  1  0
  1 38  1  0
  2 39  1  0
  2 40  1  0
  3 41  1  0
  4 42  1  0
  4 43  1  0
  5 44  1  0
  5 45  1  0
 11 46  1  0
 11 47  1  0
 12 48  1  0
 12 49  1  0
 15 50  1  0
 16 51  1  0
 17 52  1  0
 18 53  1  0
 19 54  1  0
 20 55  1  0
 20 56  1  0
 21 57  1  0
 21 58  1  0
 25 59  1  0
 25 60  1  0
 26 61  1  0
 26 62  1  0
 28 63  1  0
 29 64  1  0
 30 65  1  0
 31 66  1  0
 33 67  1  0
 33 68  1  0
 35 69  1  0
 35 70  1  0
 36 71  1  0
 36 72  1  0
M  END
>  <smiles>  (6) 
NCC1CCN(c2nc(N3CCN(c4ccccc4)CC3)nc(N3CCc4ccccc4C3)n2)CC1

>  <score_type>  (6) 
oracle

>  <origin>  (6) 
autodockgpu

>  <m_score__min__energy>  (6) 
-10.050000000000001

>  <m_primary>  (6) 
energy

>  <rmsd>  (6) 
8.476835317608971

>  <m_score__min__rmsd>  (6) 
8.476835317608971

>  <meeko>  (6) 
{"free_energy": -9.38, "intermolecular_energy": -11.17, "internal_energy": -1.21, "cluster_size": 26, "cluster_id": 1, "rank_in_cluster": 18}

>  <energy>  (6) 
-10.02

>  <cluster_rmsd>  (6) 
0.14

>  <cluster>  (6) 
1

$$$$

     RDKit          3D

 72 77  0  0  0  0  0  0  0  0999 V2000
  145.9660   67.8370  220.1410 N   0  0  0  0  0  0  0  0  0  0  0  0
  146.3130   68.8960  219.2090 C   0  0  0  0  0  0  0  0  0  0  0  0
  145.0710   69.7100  218.9160 C   0  0  0  0  0  0  0  0  0  0  0  0
  143.9100   69.1430  219.7040 C   0  0  0  0  0  0  0  0  0  0  0  0
  142.6850   69.9890  219.5920 C   0  0  0  0  0  0  0  0  0  0  0  0
  142.9850   71.3720  219.8630 N   0  0  0  0  0  0  0  0  0  0  0  0
  142.1300   72.1170  220.7300 C   0  0  0  0  0  0  0  0  0  0  0  0
  141.9200   73.4380  220.4880 N   0  0  0  0  0  0  0  0  0  0  0  0
  141.1140   74.1370  221.3070 C   0  0  0  0  0  0  0  0  0  0  0  0
  140.8330   75.5220  221.1360 N   0  0  0  0  0  0  0  0  0  0  0  0
  141.2530   76.2630  219.9650 C   0  0  0  0  0  0  0  0  0  0  0  0
  142.1590   77.3990  220.4640 C   0  0  0  0  0  0  0  0  0  0  0  0
  141.4540   78.1260  221.5140 N   0  0  0  0  0  0  0  0  0  0  0  0
  141.1600   79.5080  221.4490 C   0  0  0  0  0  0  0  0  0  0  0  0
  141.6310   80.4030  222.4170 C   0  0  0  0  0  0  0  0  0  0  0  0
  141.3550   81.7590  222.3500 C   0  0  0  0  0  0  0  0  0  0  0  0
  140.6060   82.2930  221.3350 C   0  0  0  0  0  0  0  0  0  0  0  0
  140.1330   81.4320  220.3750 C   0  0  0  0  0  0  0  0  0  0  0  0
  140.4100   80.0670  220.4390 C   0  0  0  0  0  0  0  0  0  0  0  0
  141.0750   77.3050  222.6690 C   0  0  0  0  0  0  0  0  0  0  0  0
  140.0900   76.2740  222.1610 C   0  0  0  0  0  0  0  0  0  0  0  0
  140.5370   73.5140  222.3420 N   0  0  0  0  0  0  0  0  0  0  0  0
  140.7290   72.2040  222.6020 C   0  0  0  0  0  0  0  0  0  0  0  0
  140.1100   71.5430  223.7070 N   0  0  0  0  0  0  0  0  0  0  0  0
  138.9440   70.7400  223.5090 C   0  0  0  0  0  0  0  0  0  0  0  0
  139.1790   69.3340  224.0020 C   0  0  0  0  0  0  0  0  0  0  0  0
  139.6310   69.4230  225.4270 C   0  0  0  0  0  0  0  0  0  0  0  0
  139.3560   68.3850  226.3010 C   0  0  0  0  0  0  0  0  0  0  0  0
  139.7650   68.4490  227.6210 C   0  0  0  0  0  0  0  0  0  0  0  0
  140.4540   69.5530  228.0750 C   0  0  0  0  0  0  0  0  0  0  0  0
  140.7390   70.5980  227.2210 C   0  0  0  0  0  0  0  0  0  0  0  0
  140.3250   70.5280  225.9020 C   0  0  0  0  0  0  0  0  0  0  0  0
  140.6630   71.6830  225.0340 C   0  0  0  0  0  0  0  0  0  0  0  0
  141.5360   71.5260  221.7750 N   0  0  0  0  0  0  0  0  0  0  0  0
  144.1380   72.0060  219.2630 C   0  0  0  0  0  0  0  0  0  0  0  0
  145.3550   71.1440  219.3030 C   0  0  0  0  0  0  0  0  0  0  0  0
  146.7850   67.3150  220.4930 H   0  0  0  0  0  0  0  0  0  0  0  0
  145.2570   67.2230  219.6680 H   0  0  0  0  0  0  0  0  0  0  0  0
  147.0833   69.5430  219.6539 H   0  0  0  0  0  0  0  0  0  0  0  0
  146.7054   68.4621  218.2775 H   0  0  0  0  0  0  0  0  0  0  0  0
  144.8058   69.6706  217.8492 H   0  0  0  0  0  0  0  0  0  0  0  0
  143.6814   68.1366  219.3232 H   0  0  0  0  0  0  0  0  0  0  0  0
  144.2038   69.1132  220.7636 H   0  0  0  0  0  0  0  0  0  0  0  0
  142.2798   69.9020  218.5730 H   0  0  0  0  0  0  0  0  0  0  0  0
  141.9491   69.6391  220.3310 H   0  0  0  0  0  0  0  0  0  0  0  0
  141.8101   75.6065  219.2804 H   0  0  0  0  0  0  0  0  0  0  0  0
  140.3866   76.6598  219.4156 H   0  0  0  0  0  0  0  0  0  0  0  0
  143.0929   76.9794  220.8661 H   0  0  0  0  0  0  0  0  0  0  0  0
  142.4034   78.0784  219.6341 H   0  0  0  0  0  0  0  0  0  0  0  0
  142.2357   80.0198  223.2522 H   0  0  0  0  0  0  0  0  0  0  0  0
  141.7478   82.4246  223.1328 H   0  0  0  0  0  0  0  0  0  0  0  0
  140.3914   83.3709  221.2904 H   0  0  0  0  0  0  0  0  0  0  0  0
  139.5276   81.8246  219.5447 H   0  0  0  0  0  0  0  0  0  0  0  0
  140.0133   79.4103  219.6507 H   0  0  0  0  0  0  0  0  0  0  0  0
  141.9619   76.8081  223.0891 H   0  0  0  0  0  0  0  0  0  0  0  0
  140.6304   77.9205  223.4649 H   0  0  0  0  0  0  0  0  0  0  0  0
  139.7707   75.6077  222.9759 H   0  0  0  0  0  0  0  0  0  0  0  0
  139.1754   76.7342  221.7589 H   0  0  0  0  0  0  0  0  0  0  0  0
  138.1024   71.1816  224.0628 H   0  0  0  0  0  0  0  0  0  0  0  0
  138.7150   70.7056  222.4337 H   0  0  0  0  0  0  0  0  0  0  0  0
  138.2464   68.7540  223.9399 H   0  0  0  0  0  0  0  0  0  0  0  0
  139.9393   68.8310  223.3864 H   0  0  0  0  0  0  0  0  0  0  0  0
  138.8074   67.5015  225.9426 H   0  0  0  0  0  0  0  0  0  0  0  0
  139.5405   67.6195  228.3077 H   0  0  0  0  0  0  0  0  0  0  0  0
  140.7786   69.6010  229.1249 H   0  0  0  0  0  0  0  0  0  0  0  0
  141.2897   71.4781  227.5844 H   0  0  0  0  0  0  0  0  0  0  0  0
  140.2621   72.5998  225.4908 H   0  0  0  0  0  0  0  0  0  0  0  0
  141.7582   71.7300  224.9424 H   0  0  0  0  0  0  0  0  0  0  0  0
  143.9055   72.2380  218.2132 H   0  0  0  0  0  0  0  0  0  0  0  0
  144.3559   72.9155  219.8420 H   0  0  0  0  0  0  0  0  0  0  0  0
  146.0999   71.5552  218.6058 H   0  0  0  0  0  0  0  0  0  0  0  0
  145.7240   71.1403  220.3392 H   0  0  0  0  0  0  0  0  0  0  0  0
  1  2  1  0
  2  3  1  0
  3  4  1  0
  4  5  1  0
  5  6  1  0
  6  7  1  0
  7  8  2  0
  8  9  1  0
  9 10  1  0
 10 11  1  0
 11 12  1  0
 12 13  1  0
 13 14  1  0
 14 15  2  0
 15 16  1  0
 16 17  2  0
 17 18  1  0
 18 19  2  0
 13 20  1  0
 20 21  1  0
  9 22  2  0
 22 23  1  0
 23 24  1  0
 24 25  1  0
 25 26  1  0
 26 27  1  0
 27 28  2  0
 28 29  1  0
 29 30  2  0
 30 31  1  0
 31 32  2  0
 32 33  1  0
 23 34  2  0
  6 35  1  0
 35 36  1  0
 36  3  1  0
 34  7  1  0
 21 10  1  0
 33 24  1  0
 19 14  1  0
 32 27  1  0
  1 37  1  0
  1 38  1  0
  2 39  1  0
  2 40  1  0
  3 41  1  0
  4 42  1  0
  4 43  1  0
  5 44  1  0
  5 45  1  0
 11 46  1  0
 11 47  1  0
 12 48  1  0
 12 49  1  0
 15 50  1  0
 16 51  1  0
 17 52  1  0
 18 53  1  0
 19 54  1  0
 20 55  1  0
 20 56  1  0
 21 57  1  0
 21 58  1  0
 25 59  1  0
 25 60  1  0
 26 61  1  0
 26 62  1  0
 28 63  1  0
 29 64  1  0
 30 65  1  0
 31 66  1  0
 33 67  1  0
 33 68  1  0
 35 69  1  0
 35 70  1  0
 36 71  1  0
 36 72  1  0
M  END
>  <smiles>  (7) 
NCC1CCN(c2nc(N3CCN(c4ccccc4)CC3)nc(N3CCc4ccccc4C3)n2)CC1

>  <score_type>  (7) 
oracle

>  <origin>  (7) 
autodockgpu

>  <m_score__min__energy>  (7) 
-10.050000000000001

>  <m_primary>  (7) 
energy

>  <rmsd>  (7) 
9.034904393317829

>  <m_score__min__rmsd>  (7) 
9.034904393317829

>  <meeko>  (7) 
{"free_energy": -10.03, "intermolecular_energy": -11.82, "internal_energy": -1.19, "cluster_size": 26, "cluster_id": 1, "rank_in_cluster": 5}

>  <energy>  (7) 
-9.99

>  <cluster_rmsd>  (7) 
0.41

>  <cluster>  (7) 
1

$$$$

     RDKit          3D

 72 77  0  0  0  0  0  0  0  0999 V2000
  142.5810   79.1380  222.5450 N   0  0  0  0  0  0  0  0  0  0  0  0
  141.2200   79.4430  222.1400 C   0  0  0  0  0  0  0  0  0  0  0  0
  140.6400   78.2320  221.4400 C   0  0  0  0  0  0  0  0  0  0  0  0
  141.7650   77.4250  220.8310 C   0  0  0  0  0  0  0  0  0  0  0  0
  141.2870   76.1310  220.2610 C   0  0  0  0  0  0  0  0  0  0  0  0
  140.4720   75.4170  221.2100 N   0  0  0  0  0  0  0  0  0  0  0  0
  140.6960   74.0220  221.4160 C   0  0  0  0  0  0  0  0  0  0  0  0
  141.3490   73.3020  220.4650 N   0  0  0  0  0  0  0  0  0  0  0  0
  141.5580   71.9890  220.6630 C   0  0  0  0  0  0  0  0  0  0  0  0
  142.2320   71.1540  219.7270 N   0  0  0  0  0  0  0  0  0  0  0  0
  141.6710   69.9080  219.2500 C   0  0  0  0  0  0  0  0  0  0  0  0
  142.6640   68.8000  219.6350 C   0  0  0  0  0  0  0  0  0  0  0  0
  143.9880   69.1790  219.1540 N   0  0  0  0  0  0  0  0  0  0  0  0
  144.7480   68.3990  218.2520 C   0  0  0  0  0  0  0  0  0  0  0  0
  145.9400   67.7790  218.6440 C   0  0  0  0  0  0  0  0  0  0  0  0
  146.6810   67.0040  217.7650 C   0  0  0  0  0  0  0  0  0  0  0  0
  146.2850   66.8070  216.4690 C   0  0  0  0  0  0  0  0  0  0  0  0
  145.1190   67.4070  216.0630 C   0  0  0  0  0  0  0  0  0  0  0  0
  144.3710   68.1860  216.9450 C   0  0  0  0  0  0  0  0  0  0  0  0
  144.4880   70.4480  219.6940 C   0  0  0  0  0  0  0  0  0  0  0  0
  143.5530   71.5280  219.1950 C   0  0  0  0  0  0  0  0  0  0  0  0
  141.1180   71.4200  221.7910 N   0  0  0  0  0  0  0  0  0  0  0  0
  140.4680   72.1130  222.7490 C   0  0  0  0  0  0  0  0  0  0  0  0
  139.9990   71.5020  223.9530 N   0  0  0  0  0  0  0  0  0  0  0  0
  138.8280   70.6820  223.9400 C   0  0  0  0  0  0  0  0  0  0  0  0
  139.1400   69.3040  224.4660 C   0  0  0  0  0  0  0  0  0  0  0  0
  139.7640   69.4650  225.8180 C   0  0  0  0  0  0  0  0  0  0  0  0
  139.6130   68.4690  226.7680 C   0  0  0  0  0  0  0  0  0  0  0  0
  140.1820   68.6000  228.0220 C   0  0  0  0  0  0  0  0  0  0  0  0
  140.9080   69.7290  228.3340 C   0  0  0  0  0  0  0  0  0  0  0  0
  141.0720   70.7340  227.4020 C   0  0  0  0  0  0  0  0  0  0  0  0
  140.4980   70.5960  226.1500 C   0  0  0  0  0  0  0  0  0  0  0  0
  140.7100   71.7100  225.1930 C   0  0  0  0  0  0  0  0  0  0  0  0
  140.2680   73.4200  222.5340 N   0  0  0  0  0  0  0  0  0  0  0  0
  139.4330   76.1000  221.9490 C   0  0  0  0  0  0  0  0  0  0  0  0
  139.8720   77.4280  222.4660 C   0  0  0  0  0  0  0  0  0  0  0  0
  143.2830   79.3460  221.8160 H   0  0  0  0  0  0  0  0  0  0  0  0
  142.5970   78.1360  222.8610 H   0  0  0  0  0  0  0  0  0  0  0  0
  140.6149   79.6834  223.0266 H   0  0  0  0  0  0  0  0  0  0  0  0
  141.2157   80.3075  221.4598 H   0  0  0  0  0  0  0  0  0  0  0  0
  139.9582   78.5240  220.6276 H   0  0  0  0  0  0  0  0  0  0  0  0
  142.2299   78.0155  220.0278 H   0  0  0  0  0  0  0  0  0  0  0  0
  142.4866   77.1961  221.6291 H   0  0  0  0  0  0  0  0  0  0  0  0
  140.6929   76.3337  219.3577 H   0  0  0  0  0  0  0  0  0  0  0  0
  142.1627   75.5119  220.0163 H   0  0  0  0  0  0  0  0  0  0  0  0
  140.6959   69.7249  219.7250 H   0  0  0  0  0  0  0  0  0  0  0  0
  141.5126   69.9365  218.1618 H   0  0  0  0  0  0  0  0  0  0  0  0
  142.6854   68.6842  220.7287 H   0  0  0  0  0  0  0  0  0  0  0  0
  142.3575   67.8450  219.1834 H   0  0  0  0  0  0  0  0  0  0  0  0
  146.2981   67.9099  219.6758 H   0  0  0  0  0  0  0  0  0  0  0  0
  147.6114   66.5351  218.1179 H   0  0  0  0  0  0  0  0  0  0  0  0
  146.8795   66.1906  215.7786 H   0  0  0  0  0  0  0  0  0  0  0  0
  144.7703   67.2715  215.0286 H   0  0  0  0  0  0  0  0  0  0  0  0
  143.4418   68.6493  216.5818 H   0  0  0  0  0  0  0  0  0  0  0  0
  144.4838   70.4206  220.7936 H   0  0  0  0  0  0  0  0  0  0  0  0
  145.5220   70.6373  219.3698 H   0  0  0  0  0  0  0  0  0  0  0  0
  143.8599   72.5132  219.5761 H   0  0  0  0  0  0  0  0  0  0  0  0
  143.5533   71.6043  218.0977 H   0  0  0  0  0  0  0  0  0  0  0  0
  138.0558   71.1442  224.5725 H   0  0  0  0  0  0  0  0  0  0  0  0
  138.4683   70.5934  222.9043 H   0  0  0  0  0  0  0  0  0  0  0  0
  138.2143   68.7155  224.5480 H   0  0  0  0  0  0  0  0  0  0  0  0
  139.8246   68.7769  223.7852 H   0  0  0  0  0  0  0  0  0  0  0  0
  139.0354   67.5654  226.5233 H   0  0  0  0  0  0  0  0  0  0  0  0
  140.0550   67.8033  228.7698 H   0  0  0  0  0  0  0  0  0  0  0  0
  141.3596   69.8300  229.3319 H   0  0  0  0  0  0  0  0  0  0  0  0
  141.6524   71.6345  227.6515 H   0  0  0  0  0  0  0  0  0  0  0  0
  140.3564   72.6448  225.6524 H   0  0  0  0  0  0  0  0  0  0  0  0
  141.7846   71.7605  224.9636 H   0  0  0  0  0  0  0  0  0  0  0  0
  138.5689   76.2491  221.2849 H   0  0  0  0  0  0  0  0  0  0  0  0
  139.1764   75.4742  222.8165 H   0  0  0  0  0  0  0  0  0  0  0  0
  138.9817   78.0001  222.7661 H   0  0  0  0  0  0  0  0  0  0  0  0
  140.5459   77.2461  223.3162 H   0  0  0  0  0  0  0  0  0  0  0  0
  1  2  1  0
  2  3  1  0
  3  4  1  0
  4  5  1  0
  5  6  1  0
  6  7  1  0
  7  8  2  0
  8  9  1  0
  9 10  1  0
 10 11  1  0
 11 12  1  0
 12 13  1  0
 13 14  1  0
 14 15  2  0
 15 16  1  0
 16 17  2  0
 17 18  1  0
 18 19  2  0
 13 20  1  0
 20 21  1  0
  9 22  2  0
 22 23  1  0
 23 24  1  0
 24 25  1  0
 25 26  1  0
 26 27  1  0
 27 28  2  0
 28 29  1  0
 29 30  2  0
 30 31  1  0
 31 32  2  0
 32 33  1  0
 23 34  2  0
  6 35  1  0
 35 36  1  0
 36  3  1  0
 34  7  1  0
 21 10  1  0
 33 24  1  0
 19 14  1  0
 32 27  1  0
  1 37  1  0
  1 38  1  0
  2 39  1  0
  2 40  1  0
  3 41  1  0
  4 42  1  0
  4 43  1  0
  5 44  1  0
  5 45  1  0
 11 46  1  0
 11 47  1  0
 12 48  1  0
 12 49  1  0
 15 50  1  0
 16 51  1  0
 17 52  1  0
 18 53  1  0
 19 54  1  0
 20 55  1  0
 20 56  1  0
 21 57  1  0
 21 58  1  0
 25 59  1  0
 25 60  1  0
 26 61  1  0
 26 62  1  0
 28 63  1  0
 29 64  1  0
 30 65  1  0
 31 66  1  0
 33 67  1  0
 33 68  1  0
 35 69  1  0
 35 70  1  0
 36 71  1  0
 36 72  1  0
M  END
>  <smiles>  (8) 
NCC1CCN(c2nc(N3CCN(c4ccccc4)CC3)nc(N3CCc4ccccc4C3)n2)CC1

>  <score_type>  (8) 
oracle

>  <origin>  (8) 
autodockgpu

>  <m_score__min__energy>  (8) 
-10.050000000000001

>  <m_primary>  (8) 
energy

>  <rmsd>  (8) 
8.69848419447954

>  <m_score__min__rmsd>  (8) 
8.69848419447954

>  <meeko>  (8) 
{"free_energy": -9.49, "intermolecular_energy": -11.28, "internal_energy": -1.19, "cluster_size": 13, "cluster_id": 2, "rank_in_cluster": 9}

>  <energy>  (8) 
-9.95

>  <cluster_rmsd>  (8) 
0.5

>  <cluster>  (8) 
1

$$$$

     RDKit          3D

 72 77  0  0  0  0  0  0  0  0999 V2000
  146.6930   69.6980  217.1660 N   0  0  0  0  0  0  0  0  0  0  0  0
  146.0580   69.3890  218.4350 C   0  0  0  0  0  0  0  0  0  0  0  0
  144.6320   69.8950  218.4000 C   0  0  0  0  0  0  0  0  0  0  0  0
  143.8800   69.3380  219.5900 C   0  0  0  0  0  0  0  0  0  0  0  0
  142.5100   69.9200  219.7140 C   0  0  0  0  0  0  0  0  0  0  0  0
  142.5500   71.3580  219.6390 N   0  0  0  0  0  0  0  0  0  0  0  0
  141.8090   72.1290  220.5850 C   0  0  0  0  0  0  0  0  0  0  0  0
  141.6390   73.4620  220.3740 N   0  0  0  0  0  0  0  0  0  0  0  0
  140.9400   74.1850  221.2670 C   0  0  0  0  0  0  0  0  0  0  0  0
  140.7090   75.5830  221.1330 N   0  0  0  0  0  0  0  0  0  0  0  0
  141.1120   76.3300  219.9610 C   0  0  0  0  0  0  0  0  0  0  0  0
  142.0810   77.4200  220.4440 C   0  0  0  0  0  0  0  0  0  0  0  0
  141.4480   78.1520  221.5340 N   0  0  0  0  0  0  0  0  0  0  0  0
  141.2070   79.5460  221.5080 C   0  0  0  0  0  0  0  0  0  0  0  0
  141.4610   80.3540  222.6210 C   0  0  0  0  0  0  0  0  0  0  0  0
  141.2370   81.7220  222.5950 C   0  0  0  0  0  0  0  0  0  0  0  0
  140.7550   82.3520  221.4780 C   0  0  0  0  0  0  0  0  0  0  0  0
  140.4980   81.5760  220.3740 C   0  0  0  0  0  0  0  0  0  0  0  0
  140.7230   80.2010  220.3980 C   0  0  0  0  0  0  0  0  0  0  0  0
  141.0810   77.3240  222.6880 C   0  0  0  0  0  0  0  0  0  0  0  0
  140.0370   76.3420  222.2010 C   0  0  0  0  0  0  0  0  0  0  0  0
  140.4280   73.5750  222.3430 N   0  0  0  0  0  0  0  0  0  0  0  0
  140.5830   72.2550  222.5730 C   0  0  0  0  0  0  0  0  0  0  0  0
  140.0350   71.6080  223.7230 N   0  0  0  0  0  0  0  0  0  0  0  0
  138.8800   70.7740  223.6010 C   0  0  0  0  0  0  0  0  0  0  0  0
  139.1710   69.3870  224.1160 C   0  0  0  0  0  0  0  0  0  0  0  0
  139.6890   69.5220  225.5150 C   0  0  0  0  0  0  0  0  0  0  0  0
  139.4820   68.5000  226.4260 C   0  0  0  0  0  0  0  0  0  0  0  0
  139.9530   68.6060  227.7230 C   0  0  0  0  0  0  0  0  0  0  0  0
  140.6360   69.7370  228.1160 C   0  0  0  0  0  0  0  0  0  0  0  0
  140.8550   70.7660  227.2240 C   0  0  0  0  0  0  0  0  0  0  0  0
  140.3790   70.6530  225.9290 C   0  0  0  0  0  0  0  0  0  0  0  0
  140.6470   71.7940  225.0180 C   0  0  0  0  0  0  0  0  0  0  0  0
  141.2830   71.5520  221.6730 N   0  0  0  0  0  0  0  0  0  0  0  0
  143.3290   72.0210  218.6160 C   0  0  0  0  0  0  0  0  0  0  0  0
  144.6760   71.4060  218.4300 C   0  0  0  0  0  0  0  0  0  0  0  0
  146.1540   69.3700  216.3470 H   0  0  0  0  0  0  0  0  0  0  0  0
  147.6690   69.3110  217.2000 H   0  0  0  0  0  0  0  0  0  0  0  0
  146.0608   68.3007  218.5950 H   0  0  0  0  0  0  0  0  0  0  0  0
  146.6072   69.8724  219.2564 H   0  0  0  0  0  0  0  0  0  0  0  0
  144.1102   69.5683  217.4884 H   0  0  0  0  0  0  0  0  0  0  0  0
  143.7926   68.2475  219.4751 H   0  0  0  0  0  0  0  0  0  0  0  0
  144.4422   69.6009  220.4982 H   0  0  0  0  0  0  0  0  0  0  0  0
  141.8806   69.5348  218.8982 H   0  0  0  0  0  0  0  0  0  0  0  0
  142.0946   69.6320  220.6910 H   0  0  0  0  0  0  0  0  0  0  0  0
  141.6156   75.6661  219.2429 H   0  0  0  0  0  0  0  0  0  0  0  0
  140.2411   76.7711  219.4541 H   0  0  0  0  0  0  0  0  0  0  0  0
  143.0129   76.9566  220.8002 H   0  0  0  0  0  0  0  0  0  0  0  0
  142.3187   78.1059  219.6176 H   0  0  0  0  0  0  0  0  0  0  0  0
  141.8486   79.8921  223.5410 H   0  0  0  0  0  0  0  0  0  0  0  0
  141.4519   82.3171  223.4948 H   0  0  0  0  0  0  0  0  0  0  0  0
  140.5804   83.4380  221.4656 H   0  0  0  0  0  0  0  0  0  0  0  0
  140.1094   82.0463  219.4587 H   0  0  0  0  0  0  0  0  0  0  0  0
  140.5050   79.6149  219.4930 H   0  0  0  0  0  0  0  0  0  0  0  0
  141.9630   76.7849  223.0642 H   0  0  0  0  0  0  0  0  0  0  0  0
  140.6918   77.9410  223.5113 H   0  0  0  0  0  0  0  0  0  0  0  0
  139.7244   75.6721  223.0155 H   0  0  0  0  0  0  0  0  0  0  0  0
  139.1259   76.8450  221.8448 H   0  0  0  0  0  0  0  0  0  0  0  0
  138.0555   71.2106  224.1838 H   0  0  0  0  0  0  0  0  0  0  0  0
  138.6011   70.7071  222.5390 H   0  0  0  0  0  0  0  0  0  0  0  0
  138.2502   68.7853  224.1135 H   0  0  0  0  0  0  0  0  0  0  0  0
  139.9124   68.8855  223.4766 H   0  0  0  0  0  0  0  0  0  0  0  0
  138.9382   67.5955  226.1160 H   0  0  0  0  0  0  0  0  0  0  0  0
  139.7826   67.7888  228.4393 H   0  0  0  0  0  0  0  0  0  0  0  0
  141.0088   69.8194  229.1476 H   0  0  0  0  0  0  0  0  0  0  0  0
  141.4022   71.6670  227.5384 H   0  0  0  0  0  0  0  0  0  0  0  0
  140.2460   72.7124  225.4717 H   0  0  0  0  0  0  0  0  0  0  0  0
  141.7351   71.8642  224.8726 H   0  0  0  0  0  0  0  0  0  0  0  0
  142.7812   71.9637  217.6638 H   0  0  0  0  0  0  0  0  0  0  0  0
  143.4801   73.0626  218.9357 H   0  0  0  0  0  0  0  0  0  0  0  0
  145.0974   71.7641  217.4791 H   0  0  0  0  0  0  0  0  0  0  0  0
  145.2962   71.7019  219.2889 H   0  0  0  0  0  0  0  0  0  0  0  0
  1  2  1  0
  2  3  1  0
  3  4  1  0
  4  5  1  0
  5  6  1  0
  6  7  1  0
  7  8  2  0
  8  9  1  0
  9 10  1  0
 10 11  1  0
 11 12  1  0
 12 13  1  0
 13 14  1  0
 14 15  2  0
 15 16  1  0
 16 17  2  0
 17 18  1  0
 18 19  2  0
 13 20  1  0
 20 21  1  0
  9 22  2  0
 22 23  1  0
 23 24  1  0
 24 25  1  0
 25 26  1  0
 26 27  1  0
 27 28  2  0
 28 29  1  0
 29 30  2  0
 30 31  1  0
 31 32  2  0
 32 33  1  0
 23 34  2  0
  6 35  1  0
 35 36  1  0
 36  3  1  0
 34  7  1  0
 21 10  1  0
 33 24  1  0
 19 14  1  0
 32 27  1  0
  1 37  1  0
  1 38  1  0
  2 39  1  0
  2 40  1  0
  3 41  1  0
  4 42  1  0
  4 43  1  0
  5 44  1  0
  5 45  1  0
 11 46  1  0
 11 47  1  0
 12 48  1  0
 12 49  1  0
 15 50  1  0
 16 51  1  0
 17 52  1  0
 18 53  1  0
 19 54  1  0
 20 55  1  0
 20 56  1  0
 21 57  1  0
 21 58  1  0
 25 59  1  0
 25 60  1  0
 26 61  1  0
 26 62  1  0
 28 63  1  0
 29 64  1  0
 30 65  1  0
 31 66  1  0
 33 67  1  0
 33 68  1  0
 35 69  1  0
 35 70  1  0
 36 71  1  0
 36 72  1  0
M  END
>  <smiles>  (9) 
NCC1CCN(c2nc(N3CCN(c4ccccc4)CC3)nc(N3CCc4ccccc4C3)n2)CC1

>  <score_type>  (9) 
oracle

>  <origin>  (9) 
autodockgpu

>  <m_score__min__energy>  (9) 
-10.050000000000001

>  <m_primary>  (9) 
energy

>  <rmsd>  (9) 
9.06151890896426

>  <m_score__min__rmsd>  (9) 
9.06151890896426

>  <meeko>  (9) 
{"free_energy": -9.2, "intermolecular_energy": -10.99, "internal_energy": -1.21, "cluster_size": 26, "cluster_id": 1, "rank_in_cluster": 21}

>  <energy>  (9) 
-9.94

>  <cluster_rmsd>  (9) 
0.59

>  <cluster>  (9) 
1

$$$$

     RDKit          3D

 72 77  0  0  0  0  0  0  0  0999 V2000
  146.3770   73.4680  217.7480 N   0  0  0  0  0  0  0  0  0  0  0  0
  145.5850   72.4690  217.0520 C   0  0  0  0  0  0  0  0  0  0  0  0
  144.6800   71.7840  218.0540 C   0  0  0  0  0  0  0  0  0  0  0  0
  144.9940   72.3020  219.4400 C   0  0  0  0  0  0  0  0  0  0  0  0
  144.0340   71.7920  220.4640 C   0  0  0  0  0  0  0  0  0  0  0  0
  142.6720   71.9850  220.0370 N   0  0  0  0  0  0  0  0  0  0  0  0
  141.7190   72.5210  220.9560 C   0  0  0  0  0  0  0  0  0  0  0  0
  141.2930   73.8040  220.8040 N   0  0  0  0  0  0  0  0  0  0  0  0
  140.3970   74.3060  221.6710 C   0  0  0  0  0  0  0  0  0  0  0  0
  139.8920   75.6340  221.5940 N   0  0  0  0  0  0  0  0  0  0  0  0
  140.7530   76.7880  221.4440 C   0  0  0  0  0  0  0  0  0  0  0  0
  140.4980   77.6900  222.6620 C   0  0  0  0  0  0  0  0  0  0  0  0
  139.0620   77.9220  222.7720 N   0  0  0  0  0  0  0  0  0  0  0  0
  138.4700   79.2060  222.7410 C   0  0  0  0  0  0  0  0  0  0  0  0
  137.7950   79.6750  221.6080 C   0  0  0  0  0  0  0  0  0  0  0  0
  137.2040   80.9280  221.5790 C   0  0  0  0  0  0  0  0  0  0  0  0
  137.2520   81.7720  222.6570 C   0  0  0  0  0  0  0  0  0  0  0  0
  137.9100   81.3330  223.7790 C   0  0  0  0  0  0  0  0  0  0  0  0
  138.5040   80.0720  223.8110 C   0  0  0  0  0  0  0  0  0  0  0  0
  138.2620   76.7030  222.9330 C   0  0  0  0  0  0  0  0  0  0  0  0
  138.4450   75.8970  221.6640 C   0  0  0  0  0  0  0  0  0  0  0  0
  139.9440   73.5310  222.6640 N   0  0  0  0  0  0  0  0  0  0  0  0
  140.3510   72.2560  222.8350 C   0  0  0  0  0  0  0  0  0  0  0  0
  139.8650   71.4310  223.8960 N   0  0  0  0  0  0  0  0  0  0  0  0
  138.7870   70.5200  223.6680 C   0  0  0  0  0  0  0  0  0  0  0  0
  139.1990   69.1120  224.0150 C   0  0  0  0  0  0  0  0  0  0  0  0
  139.7090   69.1240  225.4240 C   0  0  0  0  0  0  0  0  0  0  0  0
  139.5940   67.9870  226.2060 C   0  0  0  0  0  0  0  0  0  0  0  0
  140.0590   67.9790  227.5090 C   0  0  0  0  0  0  0  0  0  0  0  0
  140.6430   69.1100  228.0390 C   0  0  0  0  0  0  0  0  0  0  0  0
  140.7680   70.2530  227.2770 C   0  0  0  0  0  0  0  0  0  0  0  0
  140.2990   70.2540  225.9750 C   0  0  0  0  0  0  0  0  0  0  0  0
  140.4630   71.5140  225.2080 C   0  0  0  0  0  0  0  0  0  0  0  0
  141.2450   71.7740  221.9610 N   0  0  0  0  0  0  0  0  0  0  0  0
  142.2650   71.6380  218.6930 C   0  0  0  0  0  0  0  0  0  0  0  0
  143.2490   72.0780  217.6620 C   0  0  0  0  0  0  0  0  0  0  0  0
  145.8130   74.1020  218.3360 H   0  0  0  0  0  0  0  0  0  0  0  0
  146.9500   73.9730  217.0260 H   0  0  0  0  0  0  0  0  0  0  0  0
  144.9765   72.9545  216.2748 H   0  0  0  0  0  0  0  0  0  0  0  0
  146.2468   71.7296  216.5773 H   0  0  0  0  0  0  0  0  0  0  0  0
  144.8349   70.6950  218.0591 H   0  0  0  0  0  0  0  0  0  0  0  0
  146.0095   71.9819  219.7161 H   0  0  0  0  0  0  0  0  0  0  0  0
  144.9121   73.3987  219.4171 H   0  0  0  0  0  0  0  0  0  0  0  0
  144.2128   70.7181  220.6212 H   0  0  0  0  0  0  0  0  0  0  0  0
  144.1902   72.3500  221.3990 H   0  0  0  0  0  0  0  0  0  0  0  0
  141.8069   76.4740  221.4187 H   0  0  0  0  0  0  0  0  0  0  0  0
  140.5408   77.3209  220.5054 H   0  0  0  0  0  0  0  0  0  0  0  0
  140.8651   77.1956  223.5735 H   0  0  0  0  0  0  0  0  0  0  0  0
  141.0267   78.6469  222.5403 H   0  0  0  0  0  0  0  0  0  0  0  0
  137.7321   79.0322  220.7176 H   0  0  0  0  0  0  0  0  0  0  0  0
  136.6827   81.2534  220.6666 H   0  0  0  0  0  0  0  0  0  0  0  0
  136.7805   82.7653  222.6247 H   0  0  0  0  0  0  0  0  0  0  0  0
  137.9693   81.9841  224.6636 H   0  0  0  0  0  0  0  0  0  0  0  0
  139.0211   79.7559  224.7290 H   0  0  0  0  0  0  0  0  0  0  0  0
  138.6154   76.1287  223.8021 H   0  0  0  0  0  0  0  0  0  0  0  0
  137.2019   76.9427  223.1022 H   0  0  0  0  0  0  0  0  0  0  0  0
  137.8815   74.9539  221.7188 H   0  0  0  0  0  0  0  0  0  0  0  0
  138.0753   76.4298  220.7755 H   0  0  0  0  0  0  0  0  0  0  0  0
  137.9300   70.8103  224.2935 H   0  0  0  0  0  0  0  0  0  0  0  0
  138.5113   70.5565  222.6037 H   0  0  0  0  0  0  0  0  0  0  0  0
  138.3339   68.4374  223.9349 H   0  0  0  0  0  0  0  0  0  0  0  0
  139.9781   68.7560  223.3249 H   0  0  0  0  0  0  0  0  0  0  0  0
  139.1289   67.0823  225.7875 H   0  0  0  0  0  0  0  0  0  0  0  0
  139.9629   67.0707  228.1219 H   0  0  0  0  0  0  0  0  0  0  0  0
  141.0114   69.1008  229.0755 H   0  0  0  0  0  0  0  0  0  0  0  0
  141.2357   71.1544  227.6999 H   0  0  0  0  0  0  0  0  0  0  0  0
  139.9850   72.3334  225.7648 H   0  0  0  0  0  0  0  0  0  0  0  0
  141.5403   71.6954  225.0793 H   0  0  0  0  0  0  0  0  0  0  0  0
  142.1540   70.5454  218.6299 H   0  0  0  0  0  0  0  0  0  0  0  0
  141.3161   72.1557  218.4890 H   0  0  0  0  0  0  0  0  0  0  0  0
  143.0282   71.5551  216.7197 H   0  0  0  0  0  0  0  0  0  0  0  0
  143.1521   73.1686  217.5560 H   0  0  0  0  0  0  0  0  0  0  0  0
  1  2  1  0
  2  3  1  0
  3  4  1  0
  4  5  1  0
  5  6  1  0
  6  7  1  0
  7  8  2  0
  8  9  1  0
  9 10  1  0
 10 11  1  0
 11 12  1  0
 12 13  1  0
 13 14  1  0
 14 15  2  0
 15 16  1  0
 16 17  2  0
 17 18  1  0
 18 19  2  0
 13 20  1  0
 20 21  1  0
  9 22  2  0
 22 23  1  0
 23 24  1  0
 24 25  1  0
 25 26  1  0
 26 27  1  0
 27 28  2  0
 28 29  1  0
 29 30  2  0
 30 31  1  0
 31 32  2  0
 32 33  1  0
 23 34  2  0
  6 35  1  0
 35 36  1  0
 36  3  1  0
 34  7  1  0
 21 10  1  0
 33 24  1  0
 19 14  1  0
 32 27  1  0
  1 37  1  0
  1 38  1  0
  2 39  1  0
  2 40  1  0
  3 41  1  0
  4 42  1  0
  4 43  1  0
  5 44  1  0
  5 45  1  0
 11 46  1  0
 11 47  1  0
 12 48  1  0
 12 49  1  0
 15 50  1  0
 16 51  1  0
 17 52  1  0
 18 53  1  0
 19 54  1  0
 20 55  1  0
 20 56  1  0
 21 57  1  0
 21 58  1  0
 25 59  1  0
 25 60  1  0
 26 61  1  0
 26 62  1  0
 28 63  1  0
 29 64  1  0
 30 65  1  0
 31 66  1  0
 33 67  1  0
 33 68  1  0
 35 69  1  0
 35 70  1  0
 36 71  1  0
 36 72  1  0
M  END
>  <smiles>  (10) 
NCC1CCN(c2nc(N3CCN(c4ccccc4)CC3)nc(N3CCc4ccccc4C3)n2)CC1

>  <score_type>  (10) 
oracle

>  <origin>  (10) 
autodockgpu

>  <m_score__min__energy>  (10) 
-10.050000000000001

>  <m_primary>  (10) 
energy

>  <rmsd>  (10) 
8.443197488311903

>  <m_score__min__rmsd>  (10) 
8.443197488311903

>  <meeko>  (10) 
{"free_energy": -9.07, "intermolecular_energy": -10.86, "internal_energy": -1.17, "cluster_size": 5, "cluster_id": 3, "rank_in_cluster": 4}

>  <energy>  (10) 
-9.93

>  <cluster_rmsd>  (10) 
0.48

>  <cluster>  (10) 
1

$$$$

     RDKit          3D

 72 77  0  0  0  0  0  0  0  0999 V2000
  142.4290   79.5830  222.0200 N   0  0  0  0  0  0  0  0  0  0  0  0
  141.7940   79.3820  220.7300 C   0  0  0  0  0  0  0  0  0  0  0  0
  140.8460   78.2060  220.8350 C   0  0  0  0  0  0  0  0  0  0  0  0
  141.1660   77.2120  219.7390 C   0  0  0  0  0  0  0  0  0  0  0  0
  140.3790   75.9510  219.8740 C   0  0  0  0  0  0  0  0  0  0  0  0
  140.4650   75.4270  221.2130 N   0  0  0  0  0  0  0  0  0  0  0  0
  140.7200   74.0360  221.4060 C   0  0  0  0  0  0  0  0  0  0  0  0
  141.4220   73.3480  220.4660 N   0  0  0  0  0  0  0  0  0  0  0  0
  141.6600   72.0380  220.6510 C   0  0  0  0  0  0  0  0  0  0  0  0
  142.3850   71.2350  219.7250 N   0  0  0  0  0  0  0  0  0  0  0  0
  141.9290   69.9270  219.3050 C   0  0  0  0  0  0  0  0  0  0  0  0
  143.0300   68.9290  219.6980 C   0  0  0  0  0  0  0  0  0  0  0  0
  144.3010   69.4100  219.1690 N   0  0  0  0  0  0  0  0  0  0  0  0
  145.1080   68.6710  218.2730 C   0  0  0  0  0  0  0  0  0  0  0  0
  145.5400   67.3750  218.5750 C   0  0  0  0  0  0  0  0  0  0  0  0
  146.3210   66.6440  217.6940 C   0  0  0  0  0  0  0  0  0  0  0  0
  146.7100   67.1530  216.4830 C   0  0  0  0  0  0  0  0  0  0  0  0
  146.2970   68.4250  216.1670 C   0  0  0  0  0  0  0  0  0  0  0  0
  145.5110   69.1620  217.0510 C   0  0  0  0  0  0  0  0  0  0  0  0
  144.6950   70.7380  219.6540 C   0  0  0  0  0  0  0  0  0  0  0  0
  143.6520   71.7100  219.1450 C   0  0  0  0  0  0  0  0  0  0  0  0
  141.2000   71.4410  221.7560 N   0  0  0  0  0  0  0  0  0  0  0  0
  140.5010   72.1010  222.7030 C   0  0  0  0  0  0  0  0  0  0  0  0
  140.0120   71.4600  223.8820 N   0  0  0  0  0  0  0  0  0  0  0  0
  138.8600   70.6160  223.8220 C   0  0  0  0  0  0  0  0  0  0  0  0
  139.1860   69.2350  224.3330 C   0  0  0  0  0  0  0  0  0  0  0  0
  139.7680   69.3860  225.7050 C   0  0  0  0  0  0  0  0  0  0  0  0
  139.6110   68.3710  226.6330 C   0  0  0  0  0  0  0  0  0  0  0  0
  140.1410   68.4920  227.9060 C   0  0  0  0  0  0  0  0  0  0  0  0
  140.8330   69.6310  228.2580 C   0  0  0  0  0  0  0  0  0  0  0  0
  141.0010   70.6540  227.3480 C   0  0  0  0  0  0  0  0  0  0  0  0
  140.4670   70.5270  226.0770 C   0  0  0  0  0  0  0  0  0  0  0  0
  140.6820   71.6620  225.1460 C   0  0  0  0  0  0  0  0  0  0  0  0
  140.2740   73.4050  222.5000 N   0  0  0  0  0  0  0  0  0  0  0  0
  140.2940   76.2970  222.3560 C   0  0  0  0  0  0  0  0  0  0  0  0
  141.0170   77.5930  222.2070 C   0  0  0  0  0  0  0  0  0  0  0  0
  142.4690   80.5740  222.3090 H   0  0  0  0  0  0  0  0  0  0  0  0
  143.3750   79.1260  221.9790 H   0  0  0  0  0  0  0  0  0  0  0  0
  141.2335   80.2856  220.4483 H   0  0  0  0  0  0  0  0  0  0  0  0
  142.5569   79.1818  219.9632 H   0  0  0  0  0  0  0  0  0  0  0  0
  139.7993   78.5201  220.7097 H   0  0  0  0  0  0  0  0  0  0  0  0
  140.9356   77.6709  218.7662 H   0  0  0  0  0  0  0  0  0  0  0  0
  142.2325   76.9544  219.8176 H   0  0  0  0  0  0  0  0  0  0  0  0
  139.3251   76.1580  219.6362 H   0  0  0  0  0  0  0  0  0  0  0  0
  140.7926   75.2049  219.1796 H   0  0  0  0  0  0  0  0  0  0  0  0
  140.9873   69.6724  219.8133 H   0  0  0  0  0  0  0  0  0  0  0  0
  141.7406   69.9024  218.2215 H   0  0  0  0  0  0  0  0  0  0  0  0
  143.0888   68.8540  220.7939 H   0  0  0  0  0  0  0  0  0  0  0  0
  142.8022   67.9350  219.2857 H   0  0  0  0  0  0  0  0  0  0  0  0
  145.2523   66.9247  219.5365 H   0  0  0  0  0  0  0  0  0  0  0  0
  146.6369   65.6283  217.9744 H   0  0  0  0  0  0  0  0  0  0  0  0
  147.3297   66.5655  215.7896 H   0  0  0  0  0  0  0  0  0  0  0  0
  146.5906   68.8674  215.2036 H   0  0  0  0  0  0  0  0  0  0  0  0
  145.2001   70.1765  216.7611 H   0  0  0  0  0  0  0  0  0  0  0  0
  144.7196   70.7488  220.7537 H   0  0  0  0  0  0  0  0  0  0  0  0
  145.6992   71.0096  219.2964 H   0  0  0  0  0  0  0  0  0  0  0  0
  143.8753   72.7320  219.4849 H   0  0  0  0  0  0  0  0  0  0  0  0
  143.6188   71.7476  218.0461 H   0  0  0  0  0  0  0  0  0  0  0  0
  138.0608   71.0508  224.4403 H   0  0  0  0  0  0  0  0  0  0  0  0
  138.5318   70.5382  222.7750 H   0  0  0  0  0  0  0  0  0  0  0  0
  138.2710   68.6261  224.3785 H   0  0  0  0  0  0  0  0  0  0  0  0
  139.9002   68.7336  223.6632 H   0  0  0  0  0  0  0  0  0  0  0  0
  139.0600   67.4600  226.3563 H   0  0  0  0  0  0  0  0  0  0  0  0
  140.0101   67.6798  228.6362 H   0  0  0  0  0  0  0  0  0  0  0  0
  141.2535   69.7247  229.2701 H   0  0  0  0  0  0  0  0  0  0  0  0
  141.5541   71.5622  227.6296 H   0  0  0  0  0  0  0  0  0  0  0  0
  140.2943   72.5806  225.6105 H   0  0  0  0  0  0  0  0  0  0  0  0
  141.7615   71.7403  224.9495 H   0  0  0  0  0  0  0  0  0  0  0  0
  139.2213   76.5051  222.4823 H   0  0  0  0  0  0  0  0  0  0  0  0
  140.7145   75.7810  223.2318 H   0  0  0  0  0  0  0  0  0  0  0  0
  140.6315   78.2987  222.9576 H   0  0  0  0  0  0  0  0  0  0  0  0
  142.0892   77.3919  222.3482 H   0  0  0  0  0  0  0  0  0  0  0  0
  1  2  1  0
  2  3  1  0
  3  4  1  0
  4  5  1  0
  5  6  1  0
  6  7  1  0
  7  8  2  0
  8  9  1  0
  9 10  1  0
 10 11  1  0
 11 12  1  0
 12 13  1  0
 13 14  1  0
 14 15  2  0
 15 16  1  0
 16 17  2  0
 17 18  1  0
 18 19  2  0
 13 20  1  0
 20 21  1  0
  9 22  2  0
 22 23  1  0
 23 24  1  0
 24 25  1  0
 25 26  1  0
 26 27  1  0
 27 28  2  0
 28 29  1  0
 29 30  2  0
 30 31  1  0
 31 32  2  0
 32 33  1  0
 23 34  2  0
  6 35  1  0
 35 36  1  0
 36  3  1  0
 34  7  1  0
 21 10  1  0
 33 24  1  0
 19 14  1  0
 32 27  1  0
  1 37  1  0
  1 38  1  0
  2 39  1  0
  2 40  1  0
  3 41  1  0
  4 42  1  0
  4 43  1  0
  5 44  1  0
  5 45  1  0
 11 46  1  0
 11 47  1  0
 12 48  1  0
 12 49  1  0
 15 50  1  0
 16 51  1  0
 17 52  1  0
 18 53  1  0
 19 54  1  0
 20 55  1  0
 20 56  1  0
 21 57  1  0
 21 58  1  0
 25 59  1  0
 25 60  1  0
 26 61  1  0
 26 62  1  0
 28 63  1  0
 29 64  1  0
 30 65  1  0
 31 66  1  0
 33 67  1  0
 33 68  1  0
 35 69  1  0
 35 70  1  0
 36 71  1  0
 36 72  1  0
M  END
>  <smiles>  (11) 
NCC1CCN(c2nc(N3CCN(c4ccccc4)CC3)nc(N3CCc4ccccc4C3)n2)CC1

>  <score_type>  (11) 
oracle

>  <origin>  (11) 
autodockgpu

>  <m_score__min__energy>  (11) 
-10.050000000000001

>  <m_primary>  (11) 
energy

>  <rmsd>  (11) 
8.803635623334996

>  <m_score__min__rmsd>  (11) 
8.803635623334996

>  <meeko>  (11) 
{"free_energy": -8.95, "intermolecular_energy": -10.74, "internal_energy": -1.21, "cluster_size": 13, "cluster_id": 2, "rank_in_cluster": 12}

>  <energy>  (11) 
-9.89

>  <cluster_rmsd>  (11) 
0.58

>  <cluster>  (11) 
1

$$$$

     RDKit          3D

 72 77  0  0  0  0  0  0  0  0999 V2000
  145.4650   67.8630  220.2350 N   0  0  0  0  0  0  0  0  0  0  0  0
  145.6760   68.3870  218.8970 C   0  0  0  0  0  0  0  0  0  0  0  0
  144.7030   69.5230  218.6620 C   0  0  0  0  0  0  0  0  0  0  0  0
  143.3280   69.1040  219.1340 C   0  0  0  0  0  0  0  0  0  0  0  0
  142.3470   70.2280  219.0830 C   0  0  0  0  0  0  0  0  0  0  0  0
  142.8760   71.4060  219.7220 N   0  0  0  0  0  0  0  0  0  0  0  0
  142.0550   72.1370  220.6330 C   0  0  0  0  0  0  0  0  0  0  0  0
  141.8390   73.4630  220.4230 N   0  0  0  0  0  0  0  0  0  0  0  0
  141.0660   74.1480  221.2830 C   0  0  0  0  0  0  0  0  0  0  0  0
  140.7820   75.5360  221.1470 N   0  0  0  0  0  0  0  0  0  0  0  0
  141.1780   76.3010  219.9830 C   0  0  0  0  0  0  0  0  0  0  0  0
  142.0940   77.4270  220.4870 C   0  0  0  0  0  0  0  0  0  0  0  0
  141.4110   78.1320  221.5660 N   0  0  0  0  0  0  0  0  0  0  0  0
  141.1170   79.5150  221.5360 C   0  0  0  0  0  0  0  0  0  0  0  0
  141.4080   80.3030  220.4170 C   0  0  0  0  0  0  0  0  0  0  0  0
  141.1100   81.6560  220.3810 C   0  0  0  0  0  0  0  0  0  0  0  0
  140.5160   82.2910  221.4390 C   0  0  0  0  0  0  0  0  0  0  0  0
  140.2230   81.5370  222.5490 C   0  0  0  0  0  0  0  0  0  0  0  0
  140.5210   80.1760  222.5870 C   0  0  0  0  0  0  0  0  0  0  0  0
  141.0560   77.2870  222.7110 C   0  0  0  0  0  0  0  0  0  0  0  0
  140.0610   76.2660  222.2020 C   0  0  0  0  0  0  0  0  0  0  0  0
  140.5260   73.5080  222.3270 N   0  0  0  0  0  0  0  0  0  0  0  0
  140.7250   72.1940  222.5570 C   0  0  0  0  0  0  0  0  0  0  0  0
  140.1460   71.5140  223.6730 N   0  0  0  0  0  0  0  0  0  0  0  0
  138.9790   70.7060  223.5010 C   0  0  0  0  0  0  0  0  0  0  0  0
  139.2380   69.2950  223.9670 C   0  0  0  0  0  0  0  0  0  0  0  0
  139.7350   69.3680  225.3780 C   0  0  0  0  0  0  0  0  0  0  0  0
  139.4940   68.3170  226.2470 C   0  0  0  0  0  0  0  0  0  0  0  0
  139.9450   68.3660  227.5540 C   0  0  0  0  0  0  0  0  0  0  0  0
  140.6410   69.4690  228.0010 C   0  0  0  0  0  0  0  0  0  0  0  0
  140.8930   70.5270  227.1520 C   0  0  0  0  0  0  0  0  0  0  0  0
  140.4370   70.4710  225.8460 C   0  0  0  0  0  0  0  0  0  0  0  0
  140.7400   71.6400  224.9830 C   0  0  0  0  0  0  0  0  0  0  0  0
  141.4990   71.5290  221.6890 N   0  0  0  0  0  0  0  0  0  0  0  0
  144.2240   71.8510  219.4460 C   0  0  0  0  0  0  0  0  0  0  0  0
  145.2070   70.7290  219.4220 C   0  0  0  0  0  0  0  0  0  0  0  0
  145.0970   68.5660  220.8970 H   0  0  0  0  0  0  0  0  0  0  0  0
  146.3700   67.4320  220.5490 H   0  0  0  0  0  0  0  0  0  0  0  0
  146.7074   68.7575  218.8029 H   0  0  0  0  0  0  0  0  0  0  0  0
  145.5123   67.5932  218.1533 H   0  0  0  0  0  0  0  0  0  0  0  0
  144.6291   69.7758  217.5940 H   0  0  0  0  0  0  0  0  0  0  0  0
  142.9660   68.2885  218.4907 H   0  0  0  0  0  0  0  0  0  0  0  0
  143.4151   68.7794  220.1814 H   0  0  0  0  0  0  0  0  0  0  0  0
  142.1206   70.4602  218.0319 H   0  0  0  0  0  0  0  0  0  0  0  0
  141.4348   69.9208  219.6155 H   0  0  0  0  0  0  0  0  0  0  0  0
  141.7211   75.6590  219.2739 H   0  0  0  0  0  0  0  0  0  0  0  0
  140.3006   76.7085  219.4594 H   0  0  0  0  0  0  0  0  0  0  0  0
  143.0359   76.9995  220.8611 H   0  0  0  0  0  0  0  0  0  0  0  0
  142.3211   78.1235  219.6665 H   0  0  0  0  0  0  0  0  0  0  0  0
  141.8858   79.8364  219.5430 H   0  0  0  0  0  0  0  0  0  0  0  0
  141.3571   82.2350  219.4789 H   0  0  0  0  0  0  0  0  0  0  0  0
  140.2822   83.3652  221.4012 H   0  0  0  0  0  0  0  0  0  0  0  0
  139.7472   82.0133  223.4189 H   0  0  0  0  0  0  0  0  0  0  0  0
  140.2698   79.6063  223.4938 H   0  0  0  0  0  0  0  0  0  0  0  0
  141.9515   76.7821  223.1024 H   0  0  0  0  0  0  0  0  0  0  0  0
  140.6276   77.8856  223.5285 H   0  0  0  0  0  0  0  0  0  0  0  0
  139.7588   75.5828  223.0094 H   0  0  0  0  0  0  0  0  0  0  0  0
  139.1384   76.7341  221.8283 H   0  0  0  0  0  0  0  0  0  0  0  0
  138.1527   71.1346  224.0872 H   0  0  0  0  0  0  0  0  0  0  0  0
  138.7162   70.6846  222.4331 H   0  0  0  0  0  0  0  0  0  0  0  0
  138.3073   68.7100  223.9269 H   0  0  0  0  0  0  0  0  0  0  0  0
  139.9810   68.8050  223.3206 H   0  0  0  0  0  0  0  0  0  0  0  0
  138.9389   67.4351  225.8948 H   0  0  0  0  0  0  0  0  0  0  0  0
  139.7485   67.5256  228.2360 H   0  0  0  0  0  0  0  0  0  0  0  0
  140.9976   69.5058  229.0410 H   0  0  0  0  0  0  0  0  0  0  0  0
  141.4503   71.4056  227.5090 H   0  0  0  0  0  0  0  0  0  0  0  0
  140.3482   72.5480  225.4647 H   0  0  0  0  0  0  0  0  0  0  0  0
  141.8314   71.6955  224.8572 H   0  0  0  0  0  0  0  0  0  0  0  0
  144.2360   72.3505  218.4660 H   0  0  0  0  0  0  0  0  0  0  0  0
  144.5203   72.5351  220.2548 H   0  0  0  0  0  0  0  0  0  0  0  0
  146.1327   71.0832  218.9448 H   0  0  0  0  0  0  0  0  0  0  0  0
  145.3774   70.4164  220.4628 H   0  0  0  0  0  0  0  0  0  0  0  0
  1  2  1  0
  2  3  1  0
  3  4  1  0
  4  5  1  0
  5  6  1  0
  6  7  1  0
  7  8  2  0
  8  9  1  0
  9 10  1  0
 10 11  1  0
 11 12  1  0
 12 13  1  0
 13 14  1  0
 14 15  2  0
 15 16  1  0
 16 17  2  0
 17 18  1  0
 18 19  2  0
 13 20  1  0
 20 21  1  0
  9 22  2  0
 22 23  1  0
 23 24  1  0
 24 25  1  0
 25 26  1  0
 26 27  1  0
 27 28  2  0
 28 29  1  0
 29 30  2  0
 30 31  1  0
 31 32  2  0
 32 33  1  0
 23 34  2  0
  6 35  1  0
 35 36  1  0
 36  3  1  0
 34  7  1  0
 21 10  1  0
 33 24  1  0
 19 14  1  0
 32 27  1  0
  1 37  1  0
  1 38  1  0
  2 39  1  0
  2 40  1  0
  3 41  1  0
  4 42  1  0
  4 43  1  0
  5 44  1  0
  5 45  1  0
 11 46  1  0
 11 47  1  0
 12 48  1  0
 12 49  1  0
 15 50  1  0
 16 51  1  0
 17 52  1  0
 18 53  1  0
 19 54  1  0
 20 55  1  0
 20 56  1  0
 21 57  1  0
 21 58  1  0
 25 59  1  0
 25 60  1  0
 26 61  1  0
 26 62  1  0
 28 63  1  0
 29 64  1  0
 30 65  1  0
 31 66  1  0
 33 67  1  0
 33 68  1  0
 35 69  1  0
 35 70  1  0
 36 71  1  0
 36 72  1  0
M  END
>  <smiles>  (12) 
NCC1CCN(c2nc(N3CCN(c4ccccc4)CC3)nc(N3CCc4ccccc4C3)n2)CC1

>  <score_type>  (12) 
oracle

>  <origin>  (12) 
autodockgpu

>  <m_score__min__energy>  (12) 
-10.050000000000001

>  <m_primary>  (12) 
energy

>  <rmsd>  (12) 
8.862686175697812

>  <m_score__min__rmsd>  (12) 
8.862686175697812

>  <meeko>  (12) 
{"free_energy": -9.57, "intermolecular_energy": -11.36, "internal_energy": -1.21, "cluster_size": 26, "cluster_id": 1, "rank_in_cluster": 16}

>  <energy>  (12) 
-9.89

>  <cluster_rmsd>  (12) 
0.33

>  <cluster>  (12) 
1

$$$$

     RDKit          3D

 72 77  0  0  0  0  0  0  0  0999 V2000
  139.1420   67.1550  226.3580 N   0  0  0  0  0  0  0  0  0  0  0  0
  140.1420   68.1800  226.5980 C   0  0  0  0  0  0  0  0  0  0  0  0
  139.7060   69.4550  225.9080 C   0  0  0  0  0  0  0  0  0  0  0  0
  140.8260   70.4690  225.9860 C   0  0  0  0  0  0  0  0  0  0  0  0
  140.5330   71.6970  225.1880 C   0  0  0  0  0  0  0  0  0  0  0  0
  140.1110   71.3580  223.8530 N   0  0  0  0  0  0  0  0  0  0  0  0
  140.6730   72.0590  222.7420 C   0  0  0  0  0  0  0  0  0  0  0  0
  140.3960   73.3790  222.5760 N   0  0  0  0  0  0  0  0  0  0  0  0
  140.9260   74.0360  221.5300 C   0  0  0  0  0  0  0  0  0  0  0  0
  140.6950   75.4160  221.2720 N   0  0  0  0  0  0  0  0  0  0  0  0
  141.1130   76.0610  220.0460 C   0  0  0  0  0  0  0  0  0  0  0  0
  142.0740   77.1910  220.4470 C   0  0  0  0  0  0  0  0  0  0  0  0
  141.4240   78.0130  221.4610 N   0  0  0  0  0  0  0  0  0  0  0  0
  141.1820   79.3990  221.3110 C   0  0  0  0  0  0  0  0  0  0  0  0
  141.6550   80.3300  222.2420 C   0  0  0  0  0  0  0  0  0  0  0  0
  141.4290   81.6890  222.0920 C   0  0  0  0  0  0  0  0  0  0  0  0
  140.7310   82.1900  221.0250 C   0  0  0  0  0  0  0  0  0  0  0  0
  140.2580   81.2930  220.0990 C   0  0  0  0  0  0  0  0  0  0  0  0
  140.4840   79.9260  220.2470 C   0  0  0  0  0  0  0  0  0  0  0  0
  141.0420   77.2860  222.6770 C   0  0  0  0  0  0  0  0  0  0  0  0
  140.0060   76.2640  222.2610 C   0  0  0  0  0  0  0  0  0  0  0  0
  141.7150   73.3740  220.6750 N   0  0  0  0  0  0  0  0  0  0  0  0
  142.0040   72.0640  220.8190 C   0  0  0  0  0  0  0  0  0  0  0  0
  142.8480   71.3600  219.9050 N   0  0  0  0  0  0  0  0  0  0  0  0
  143.8420   72.0600  219.1530 C   0  0  0  0  0  0  0  0  0  0  0  0
  145.2090   71.4770  219.4080 C   0  0  0  0  0  0  0  0  0  0  0  0
  145.1360   70.0090  219.1190 C   0  0  0  0  0  0  0  0  0  0  0  0
  146.2670   69.3380  218.6840 C   0  0  0  0  0  0  0  0  0  0  0  0
  146.2200   67.9820  218.4110 C   0  0  0  0  0  0  0  0  0  0  0  0
  145.0400   67.2880  218.5730 C   0  0  0  0  0  0  0  0  0  0  0  0
  143.9020   67.9370  219.0050 C   0  0  0  0  0  0  0  0  0  0  0  0
  143.9560   69.2940  219.2750 C   0  0  0  0  0  0  0  0  0  0  0  0
  142.6990   69.9330  219.7370 C   0  0  0  0  0  0  0  0  0  0  0  0
  141.4660   71.4270  221.8680 N   0  0  0  0  0  0  0  0  0  0  0  0
  139.1280   70.3210  223.6320 C   0  0  0  0  0  0  0  0  0  0  0  0
  139.3660   69.1130  224.4740 C   0  0  0  0  0  0  0  0  0  0  0  0
  138.1980   67.5360  226.1800 H   0  0  0  0  0  0  0  0  0  0  0  0
  139.1730   66.4890  227.1700 H   0  0  0  0  0  0  0  0  0  0  0  0
  140.2371   68.3583  227.6793 H   0  0  0  0  0  0  0  0  0  0  0  0
  141.1152   67.8539  226.2024 H   0  0  0  0  0  0  0  0  0  0  0  0
  138.8212   69.8932  226.3930 H   0  0  0  0  0  0  0  0  0  0  0  0
  140.9708   70.7564  227.0379 H   0  0  0  0  0  0  0  0  0  0  0  0
  141.7316   70.0040  225.5693 H   0  0  0  0  0  0  0  0  0  0  0  0
  139.7330   72.2659  225.6844 H   0  0  0  0  0  0  0  0  0  0  0  0
  141.4512   72.2991  225.1225 H   0  0  0  0  0  0  0  0  0  0  0  0
  141.6273   75.3394  219.3943 H   0  0  0  0  0  0  0  0  0  0  0  0
  140.2485   76.4549  219.4915 H   0  0  0  0  0  0  0  0  0  0  0  0
  143.0011   76.7623  220.8552 H   0  0  0  0  0  0  0  0  0  0  0  0
  142.3231   77.8036  219.5680 H   0  0  0  0  0  0  0  0  0  0  0  0
  142.2209   79.9741  223.1156 H   0  0  0  0  0  0  0  0  0  0  0  0
  141.8204   82.3838  222.8497 H   0  0  0  0  0  0  0  0  0  0  0  0
  140.5560   83.2703  220.9141 H   0  0  0  0  0  0  0  0  0  0  0  0
  139.6931   81.6585  219.2288 H   0  0  0  0  0  0  0  0  0  0  0  0
  140.0890   79.2400  219.4832 H   0  0  0  0  0  0  0  0  0  0  0  0
  141.9192   76.7829  223.1100 H   0  0  0  0  0  0  0  0  0  0  0  0
  140.6412   77.9702  223.4394 H   0  0  0  0  0  0  0  0  0  0  0  0
  139.6813   75.6664  223.1256 H   0  0  0  0  0  0  0  0  0  0  0  0
  139.1002   76.7328  221.8490 H   0  0  0  0  0  0  0  0  0  0  0  0
  143.6084   71.9784  218.0812 H   0  0  0  0  0  0  0  0  0  0  0  0
  143.8432   73.1154  219.4630 H   0  0  0  0  0  0  0  0  0  0  0  0
  145.9490   71.9530  218.7478 H   0  0  0  0  0  0  0  0  0  0  0  0
  145.5151   71.6510  220.4501 H   0  0  0  0  0  0  0  0  0  0  0  0
  147.2109   69.8877  218.5544 H   0  0  0  0  0  0  0  0  0  0  0  0
  147.1235   67.4585  218.0650 H   0  0  0  0  0  0  0  0  0  0  0  0
  145.0056   66.2101  218.3564 H   0  0  0  0  0  0  0  0  0  0  0  0
  142.9610   67.3820  219.1337 H   0  0  0  0  0  0  0  0  0  0  0  0
  141.9102   69.7432  218.9942 H   0  0  0  0  0  0  0  0  0  0  0  0
  142.4372   69.5011  220.7142 H   0  0  0  0  0  0  0  0  0  0  0  0
  138.1322   70.7240  223.8684 H   0  0  0  0  0  0  0  0  0  0  0  0
  139.2024   70.0118  222.5790 H   0  0  0  0  0  0  0  0  0  0  0  0
  138.4563   68.4947  224.4665 H   0  0  0  0  0  0  0  0  0  0  0  0
  140.2273   68.5773  224.0483 H   0  0  0  0  0  0  0  0  0  0  0  0
  1  2  1  0
  2  3  1  0
  3  4  1  0
  4  5  1  0
  5  6  1  0
  6  7  1  0
  7  8  2  0
  8  9  1  0
  9 10  1  0
 10 11  1  0
 11 12  1  0
 12 13  1  0
 13 14  1  0
 14 15  2  0
 15 16  1  0
 16 17  2  0
 17 18  1  0
 18 19  2  0
 13 20  1  0
 20 21  1  0
  9 22  2  0
 22 23  1  0
 23 24  1  0
 24 25  1  0
 25 26  1  0
 26 27  1  0
 27 28  2  0
 28 29  1  0
 29 30  2  0
 30 31  1  0
 31 32  2  0
 32 33  1  0
 23 34  2  0
  6 35  1  0
 35 36  1  0
 36  3  1  0
 34  7  1  0
 21 10  1  0
 33 24  1  0
 19 14  1  0
 32 27  1  0
  1 37  1  0
  1 38  1  0
  2 39  1  0
  2 40  1  0
  3 41  1  0
  4 42  1  0
  4 43  1  0
  5 44  1  0
  5 45  1  0
 11 46  1  0
 11 47  1  0
 12 48  1  0
 12 49  1  0
 15 50  1  0
 16 51  1  0
 17 52  1  0
 18 53  1  0
 19 54  1  0
 20 55  1  0
 20 56  1  0
 21 57  1  0
 21 58  1  0
 25 59  1  0
 25 60  1  0
 26 61  1  0
 26 62  1  0
 28 63  1  0
 29 64  1  0
 30 65  1  0
 31 66  1  0
 33 67  1  0
 33 68  1  0
 35 69  1  0
 35 70  1  0
 36 71  1  0
 36 72  1  0
M  END
>  <smiles>  (13) 
NCC1CCN(c2nc(N3CCN(c4ccccc4)CC3)nc(N3CCc4ccccc4C3)n2)CC1

>  <score_type>  (13) 
oracle

>  <origin>  (13) 
autodockgpu

>  <m_score__min__energy>  (13) 
-10.050000000000001

>  <m_primary>  (13) 
energy

>  <rmsd>  (13) 
9.01096431817617

>  <m_score__min__rmsd>  (13) 
9.01096431817617

>  <meeko>  (13) 
{"free_energy": -9.02, "intermolecular_energy": -10.81, "internal_energy": -1.22, "cluster_size": 6, "cluster_id": 4, "rank_in_cluster": 1}

>  <energy>  (13) 
-9.87

>  <cluster_rmsd>  (13) 
0.63

>  <cluster>  (13) 
1

$$$$

     RDKit          3D

 72 77  0  0  0  0  0  0  0  0999 V2000
  140.9360   79.4460  223.6370 N   0  0  0  0  0  0  0  0  0  0  0  0
  139.5990   79.2390  223.1080 C   0  0  0  0  0  0  0  0  0  0  0  0
  139.6490   78.1240  222.0850 C   0  0  0  0  0  0  0  0  0  0  0  0
  141.0500   77.5540  222.0440 C   0  0  0  0  0  0  0  0  0  0  0  0
  141.1400   76.3430  221.1740 C   0  0  0  0  0  0  0  0  0  0  0  0
  140.1070   75.3940  221.5000 N   0  0  0  0  0  0  0  0  0  0  0  0
  140.4430   74.0130  221.6380 C   0  0  0  0  0  0  0  0  0  0  0  0
  141.1620   73.3990  220.6620 N   0  0  0  0  0  0  0  0  0  0  0  0
  141.4770   72.0980  220.7960 C   0  0  0  0  0  0  0  0  0  0  0  0
  142.2250   71.3700  219.8290 N   0  0  0  0  0  0  0  0  0  0  0  0
  141.8190   70.0650  219.3510 C   0  0  0  0  0  0  0  0  0  0  0  0
  142.9620   69.0960  219.6900 C   0  0  0  0  0  0  0  0  0  0  0  0
  144.2080   69.6520  219.1760 N   0  0  0  0  0  0  0  0  0  0  0  0
  145.0370   68.9890  218.2400 C   0  0  0  0  0  0  0  0  0  0  0  0
  145.5260   67.7000  218.4800 C   0  0  0  0  0  0  0  0  0  0  0  0
  146.3290   67.0430  217.5600 C   0  0  0  0  0  0  0  0  0  0  0  0
  146.6840   67.6220  216.3710 C   0  0  0  0  0  0  0  0  0  0  0  0
  146.2150   68.8880  216.1160 C   0  0  0  0  0  0  0  0  0  0  0  0
  145.4070   69.5500  217.0390 C   0  0  0  0  0  0  0  0  0  0  0  0
  144.5530   70.9700  219.7190 C   0  0  0  0  0  0  0  0  0  0  0  0
  143.4680   71.9220  219.2630 C   0  0  0  0  0  0  0  0  0  0  0  0
  141.0740   71.4390  221.8890 N   0  0  0  0  0  0  0  0  0  0  0  0
  140.3600   72.0260  222.8710 C   0  0  0  0  0  0  0  0  0  0  0  0
  139.9320   71.3190  224.0360 N   0  0  0  0  0  0  0  0  0  0  0  0
  138.8170   70.4260  223.9720 C   0  0  0  0  0  0  0  0  0  0  0  0
  139.2180   69.0430  224.4200 C   0  0  0  0  0  0  0  0  0  0  0  0
  139.8300   69.1680  225.7820 C   0  0  0  0  0  0  0  0  0  0  0  0
  139.7440   68.1120  226.6730 C   0  0  0  0  0  0  0  0  0  0  0  0
  140.3030   68.2080  227.9350 C   0  0  0  0  0  0  0  0  0  0  0  0
  140.9530   69.3630  228.3130 C   0  0  0  0  0  0  0  0  0  0  0  0
  141.0510   70.4270  227.4410 C   0  0  0  0  0  0  0  0  0  0  0  0
  140.4880   70.3240  226.1800 C   0  0  0  0  0  0  0  0  0  0  0  0
  140.6270   71.5020  225.2890 C   0  0  0  0  0  0  0  0  0  0  0  0
  140.0560   73.3220  222.7190 N   0  0  0  0  0  0  0  0  0  0  0  0
  138.7390   75.8280  221.6830 C   0  0  0  0  0  0  0  0  0  0  0  0
  138.6360   77.0780  222.4910 C   0  0  0  0  0  0  0  0  0  0  0  0
  140.9520   80.0010  224.5080 H   0  0  0  0  0  0  0  0  0  0  0  0
  141.5160   79.8660  222.8680 H   0  0  0  0  0  0  0  0  0  0  0  0
  138.9166   78.9615  223.9249 H   0  0  0  0  0  0  0  0  0  0  0  0
  139.2350   80.1639  222.6368 H   0  0  0  0  0  0  0  0  0  0  0  0
  139.4041   78.4892  221.0767 H   0  0  0  0  0  0  0  0  0  0  0  0
  141.7340   78.3222  221.6541 H   0  0  0  0  0  0  0  0  0  0  0  0
  141.3242   77.2567  223.0669 H   0  0  0  0  0  0  0  0  0  0  0  0
  141.0302   76.6468  220.1225 H   0  0  0  0  0  0  0  0  0  0  0  0
  142.1176   75.8662  221.3380 H   0  0  0  0  0  0  0  0  0  0  0  0
  140.8925   69.7488  219.8526 H   0  0  0  0  0  0  0  0  0  0  0  0
  141.6232   70.0831  218.2687 H   0  0  0  0  0  0  0  0  0  0  0  0
  143.0328   68.9729  220.7808 H   0  0  0  0  0  0  0  0  0  0  0  0
  142.7711   68.1136  219.2333 H   0  0  0  0  0  0  0  0  0  0  0  0
  145.2668   67.1951  219.4223 H   0  0  0  0  0  0  0  0  0  0  0  0
  146.6903   66.0301  217.7914 H   0  0  0  0  0  0  0  0  0  0  0  0
  147.3211   67.0931  215.6468 H   0  0  0  0  0  0  0  0  0  0  0  0
  146.4805   69.3855  215.1715 H   0  0  0  0  0  0  0  0  0  0  0  0
  145.0505   70.5622  216.7976 H   0  0  0  0  0  0  0  0  0  0  0  0
  144.5868   70.9310  220.8178 H   0  0  0  0  0  0  0  0  0  0  0  0
  145.5424   71.2978  219.3674 H   0  0  0  0  0  0  0  0  0  0  0  0
  143.6536   72.9353  219.6488 H   0  0  0  0  0  0  0  0  0  0  0  0
  143.4239   72.0092  218.1673 H   0  0  0  0  0  0  0  0  0  0  0  0
  138.0162   70.8001  224.6268 H   0  0  0  0  0  0  0  0  0  0  0  0
  138.4643   70.3733  222.9314 H   0  0  0  0  0  0  0  0  0  0  0  0
  138.3326   68.3918  224.4649 H   0  0  0  0  0  0  0  0  0  0  0  0
  139.9354   68.6006  223.7131 H   0  0  0  0  0  0  0  0  0  0  0  0
  139.2266   67.1882  226.3750 H   0  0  0  0  0  0  0  0  0  0  0  0
  140.2287   67.3634  228.6358 H   0  0  0  0  0  0  0  0  0  0  0  0
  141.3966   69.4367  229.3169 H   0  0  0  0  0  0  0  0  0  0  0  0
  141.5709   71.3478  227.7440 H   0  0  0  0  0  0  0  0  0  0  0  0
  140.2125   72.3839  225.7993 H   0  0  0  0  0  0  0  0  0  0  0  0
  141.6962   71.6357  225.0676 H   0  0  0  0  0  0  0  0  0  0  0  0
  138.2920   76.0098  220.6945 H   0  0  0  0  0  0  0  0  0  0  0  0
  138.2082   75.0342  222.2289 H   0  0  0  0  0  0  0  0  0  0  0  0
  137.6272   77.4973  222.3624 H   0  0  0  0  0  0  0  0  0  0  0  0
  138.8372   76.8119  223.5392 H   0  0  0  0  0  0  0  0  0  0  0  0
  1  2  1  0
  2  3  1  0
  3  4  1  0
  4  5  1  0
  5  6  1  0
  6  7  1  0
  7  8  2  0
  8  9  1  0
  9 10  1  0
 10 11  1  0
 11 12  1  0
 12 13  1  0
 13 14  1  0
 14 15  2  0
 15 16  1  0
 16 17  2  0
 17 18  1  0
 18 19  2  0
 13 20  1  0
 20 21  1  0
  9 22  2  0
 22 23  1  0
 23 24  1  0
 24 25  1  0
 25 26  1  0
 26 27  1  0
 27 28  2  0
 28 29  1  0
 29 30  2  0
 30 31  1  0
 31 32  2  0
 32 33  1  0
 23 34  2  0
  6 35  1  0
 35 36  1  0
 36  3  1  0
 34  7  1  0
 21 10  1  0
 33 24  1  0
 19 14  1  0
 32 27  1  0
  1 37  1  0
  1 38  1  0
  2 39  1  0
  2 40  1  0
  3 41  1  0
  4 42  1  0
  4 43  1  0
  5 44  1  0
  5 45  1  0
 11 46  1  0
 11 47  1  0
 12 48  1  0
 12 49  1  0
 15 50  1  0
 16 51  1  0
 17 52  1  0
 18 53  1  0
 19 54  1  0
 20 55  1  0
 20 56  1  0
 21 57  1  0
 21 58  1  0
 25 59  1  0
 25 60  1  0
 26 61  1  0
 26 62  1  0
 28 63  1  0
 29 64  1  0
 30 65  1  0
 31 66  1  0
 33 67  1  0
 33 68  1  0
 35 69  1  0
 35 70  1  0
 36 71  1  0
 36 72  1  0
M  END
>  <smiles>  (14) 
NCC1CCN(c2nc(N3CCN(c4ccccc4)CC3)nc(N3CCc4ccccc4C3)n2)CC1

>  <score_type>  (14) 
oracle

>  <origin>  (14) 
autodockgpu

>  <m_score__min__energy>  (14) 
-10.050000000000001

>  <m_primary>  (14) 
energy

>  <rmsd>  (14) 
8.714453545013084

>  <m_score__min__rmsd>  (14) 
8.714453545013084

>  <meeko>  (14) 
{"free_energy": -8.68, "intermolecular_energy": -10.47, "internal_energy": -1.21, "cluster_size": 13, "cluster_id": 2, "rank_in_cluster": 13}

>  <energy>  (14) 
-9.71

>  <cluster_rmsd>  (14) 
0.49

>  <cluster>  (14) 
1

$$$$

     RDKit          3D

 72 77  0  0  0  0  0  0  0  0999 V2000
  142.6130   79.0270  222.5070 N   0  0  0  0  0  0  0  0  0  0  0  0
  141.5970   79.4250  221.5490 C   0  0  0  0  0  0  0  0  0  0  0  0
  140.7450   78.2190  221.2150 C   0  0  0  0  0  0  0  0  0  0  0  0
  141.5070   77.3220  220.2640 C   0  0  0  0  0  0  0  0  0  0  0  0
  140.7980   76.0330  220.0140 C   0  0  0  0  0  0  0  0  0  0  0  0
  140.4030   75.4100  221.2510 N   0  0  0  0  0  0  0  0  0  0  0  0
  140.6430   74.0160  221.4410 C   0  0  0  0  0  0  0  0  0  0  0  0
  141.3190   73.3180  220.4900 N   0  0  0  0  0  0  0  0  0  0  0  0
  141.5430   72.0050  220.6720 C   0  0  0  0  0  0  0  0  0  0  0  0
  142.2400   71.1920  219.7350 N   0  0  0  0  0  0  0  0  0  0  0  0
  141.7090   69.9370  219.2460 C   0  0  0  0  0  0  0  0  0  0  0  0
  142.7250   68.8490  219.6280 C   0  0  0  0  0  0  0  0  0  0  0  0
  144.0430   69.2610  219.1580 N   0  0  0  0  0  0  0  0  0  0  0  0
  144.8250   68.5040  218.2550 C   0  0  0  0  0  0  0  0  0  0  0  0
  145.9090   67.7350  218.6920 C   0  0  0  0  0  0  0  0  0  0  0  0
  146.6710   66.9830  217.8100 C   0  0  0  0  0  0  0  0  0  0  0  0
  146.4020   66.9560  216.4680 C   0  0  0  0  0  0  0  0  0  0  0  0
  145.3420   67.7050  216.0180 C   0  0  0  0  0  0  0  0  0  0  0  0
  144.5740   68.4610  216.9010 C   0  0  0  0  0  0  0  0  0  0  0  0
  144.5120   70.5370  219.7100 C   0  0  0  0  0  0  0  0  0  0  0  0
  143.5550   71.6000  219.2130 C   0  0  0  0  0  0  0  0  0  0  0  0
  141.0950   71.4150  221.7870 N   0  0  0  0  0  0  0  0  0  0  0  0
  140.4220   72.0850  222.7450 C   0  0  0  0  0  0  0  0  0  0  0  0
  139.9460   71.4520  223.9340 N   0  0  0  0  0  0  0  0  0  0  0  0
  138.7860   70.6170  223.8930 C   0  0  0  0  0  0  0  0  0  0  0  0
  139.1090   69.2350  224.4040 C   0  0  0  0  0  0  0  0  0  0  0  0
  139.7120   69.3860  225.7670 C   0  0  0  0  0  0  0  0  0  0  0  0
  139.5620   68.3750  226.7010 C   0  0  0  0  0  0  0  0  0  0  0  0
  140.1120   68.4960  227.9650 C   0  0  0  0  0  0  0  0  0  0  0  0
  140.8180   69.6310  228.3020 C   0  0  0  0  0  0  0  0  0  0  0  0
  140.9810   70.6500  227.3870 C   0  0  0  0  0  0  0  0  0  0  0  0
  140.4260   70.5220  226.1250 C   0  0  0  0  0  0  0  0  0  0  0  0
  140.6370   71.6520  225.1860 C   0  0  0  0  0  0  0  0  0  0  0  0
  140.2080   73.3930  222.5450 N   0  0  0  0  0  0  0  0  0  0  0  0
  139.7680   76.1840  222.2950 C   0  0  0  0  0  0  0  0  0  0  0  0
  140.4220   77.5080  222.5100 C   0  0  0  0  0  0  0  0  0  0  0  0
  143.5640   79.3390  222.2510 H   0  0  0  0  0  0  0  0  0  0  0  0
  142.5390   77.9850  222.6280 H   0  0  0  0  0  0  0  0  0  0  0  0
  140.9666   80.2142  221.9846 H   0  0  0  0  0  0  0  0  0  0  0  0
  142.0738   79.8112  220.6360 H   0  0  0  0  0  0  0  0  0  0  0  0
  139.8066   78.5121  220.7215 H   0  0  0  0  0  0  0  0  0  0  0  0
  141.6340   77.8479  219.3062 H   0  0  0  0  0  0  0  0  0  0  0  0
  142.4782   77.0891  220.7250 H   0  0  0  0  0  0  0  0  0  0  0  0
  139.9012   76.2280  219.4076 H   0  0  0  0  0  0  0  0  0  0  0  0
  141.4830   75.3546  219.4843 H   0  0  0  0  0  0  0  0  0  0  0  0
  140.7360   69.7286  219.7149 H   0  0  0  0  0  0  0  0  0  0  0  0
  141.5549   69.9699  218.1573 H   0  0  0  0  0  0  0  0  0  0  0  0
  142.7428   68.7252  220.7209 H   0  0  0  0  0  0  0  0  0  0  0  0
  142.4428   67.8911  219.1667 H   0  0  0  0  0  0  0  0  0  0  0  0
  146.1634   67.7265  219.7621 H   0  0  0  0  0  0  0  0  0  0  0  0
  147.5137   66.3928  218.1992 H   0  0  0  0  0  0  0  0  0  0  0  0
  147.0119   66.3569  215.7758 H   0  0  0  0  0  0  0  0  0  0  0  0
  145.0962   67.7079  214.9458 H   0  0  0  0  0  0  0  0  0  0  0  0
  143.7335   69.0471  216.5010 H   0  0  0  0  0  0  0  0  0  0  0  0
  144.5025   70.5015  220.8094 H   0  0  0  0  0  0  0  0  0  0  0  0
  145.5433   70.7516  219.3932 H   0  0  0  0  0  0  0  0  0  0  0  0
  143.8373   72.5891  219.6028 H   0  0  0  0  0  0  0  0  0  0  0  0
  143.5596   71.6845  218.1163 H   0  0  0  0  0  0  0  0  0  0  0  0
  137.9991   71.0600  224.5211 H   0  0  0  0  0  0  0  0  0  0  0  0
  138.4418   70.5387  222.8512 H   0  0  0  0  0  0  0  0  0  0  0  0
  138.1902   68.6333  224.4648 H   0  0  0  0  0  0  0  0  0  0  0  0
  139.8096   68.7261  223.7256 H   0  0  0  0  0  0  0  0  0  0  0  0
  139.0004   67.4671  226.4358 H   0  0  0  0  0  0  0  0  0  0  0  0
  139.9860   67.6874  228.7000 H   0  0  0  0  0  0  0  0  0  0  0  0
  141.2543   69.7246  229.3074 H   0  0  0  0  0  0  0  0  0  0  0  0
  141.5458   71.5545  227.6569 H   0  0  0  0  0  0  0  0  0  0  0  0
  140.2651   72.5759  225.6531 H   0  0  0  0  0  0  0  0  0  0  0  0
  141.7140   71.7193  224.9724 H   0  0  0  0  0  0  0  0  0  0  0  0
  138.7166   76.3517  222.0185 H   0  0  0  0  0  0  0  0  0  0  0  0
  139.8568   75.6139  223.2316 H   0  0  0  0  0  0  0  0  0  0  0  0
  139.7447   78.1429  223.1001 H   0  0  0  0  0  0  0  0  0  0  0  0
  141.3719   77.3270  223.0344 H   0  0  0  0  0  0  0  0  0  0  0  0
  1  2  1  0
  2  3  1  0
  3  4  1  0
  4  5  1  0
  5  6  1  0
  6  7  1  0
  7  8  2  0
  8  9  1  0
  9 10  1  0
 10 11  1  0
 11 12  1  0
 12 13  1  0
 13 14  1  0
 14 15  2  0
 15 16  1  0
 16 17  2  0
 17 18  1  0
 18 19  2  0
 13 20  1  0
 20 21  1  0
  9 22  2  0
 22 23  1  0
 23 24  1  0
 24 25  1  0
 25 26  1  0
 26 27  1  0
 27 28  2  0
 28 29  1  0
 29 30  2  0
 30 31  1  0
 31 32  2  0
 32 33  1  0
 23 34  2  0
  6 35  1  0
 35 36  1  0
 36  3  1  0
 34  7  1  0
 21 10  1  0
 33 24  1  0
 19 14  1  0
 32 27  1  0
  1 37  1  0
  1 38  1  0
  2 39  1  0
  2 40  1  0
  3 41  1  0
  4 42  1  0
  4 43  1  0
  5 44  1  0
  5 45  1  0
 11 46  1  0
 11 47  1  0
 12 48  1  0
 12 49  1  0
 15 50  1  0
 16 51  1  0
 17 52  1  0
 18 53  1  0
 19 54  1  0
 20 55  1  0
 20 56  1  0
 21 57  1  0
 21 58  1  0
 25 59  1  0
 25 60  1  0
 26 61  1  0
 26 62  1  0
 28 63  1  0
 29 64  1  0
 30 65  1  0
 31 66  1  0
 33 67  1  0
 33 68  1  0
 35 69  1  0
 35 70  1  0
 36 71  1  0
 36 72  1  0
M  END
>  <smiles>  (15) 
NCC1CCN(c2nc(N3CCN(c4ccccc4)CC3)nc(N3CCc4ccccc4C3)n2)CC1

>  <score_type>  (15) 
oracle

>  <origin>  (15) 
autodockgpu

>  <m_score__min__energy>  (15) 
-10.050000000000001

>  <m_primary>  (15) 
energy

>  <rmsd>  (15) 
8.714786922575788

>  <m_score__min__rmsd>  (15) 
8.714786922575788

>  <meeko>  (15) 
{"free_energy": -9.52, "intermolecular_energy": -11.31, "internal_energy": -1.16, "cluster_size": 13, "cluster_id": 2, "rank_in_cluster": 7}

>  <energy>  (15) 
-9.65

>  <cluster_rmsd>  (15) 
0.42

>  <cluster>  (15) 
1

$$$$

     RDKit          3D

 72 77  0  0  0  0  0  0  0  0999 V2000
  145.8990   67.9390  220.1080 N   0  0  0  0  0  0  0  0  0  0  0  0
  146.3050   68.9180  219.1140 C   0  0  0  0  0  0  0  0  0  0  0  0
  145.1310   69.8280  218.8230 C   0  0  0  0  0  0  0  0  0  0  0  0
  143.8860   69.2490  219.4580 C   0  0  0  0  0  0  0  0  0  0  0  0
  142.7170   70.1710  219.3500 C   0  0  0  0  0  0  0  0  0  0  0  0
  143.0620   71.4990  219.7910 N   0  0  0  0  0  0  0  0  0  0  0  0
  142.1800   72.1970  220.6700 C   0  0  0  0  0  0  0  0  0  0  0  0
  141.9420   73.5200  220.4660 N   0  0  0  0  0  0  0  0  0  0  0  0
  141.1110   74.1740  221.2960 C   0  0  0  0  0  0  0  0  0  0  0  0
  140.8000   75.5570  221.1640 N   0  0  0  0  0  0  0  0  0  0  0  0
  141.1320   76.3200  219.9800 C   0  0  0  0  0  0  0  0  0  0  0  0
  142.0530   77.4630  220.4350 C   0  0  0  0  0  0  0  0  0  0  0  0
  141.4070   78.1650  221.5390 N   0  0  0  0  0  0  0  0  0  0  0  0
  141.0900   79.5430  221.5140 C   0  0  0  0  0  0  0  0  0  0  0  0
  140.0750   80.0470  220.6940 C   0  0  0  0  0  0  0  0  0  0  0  0
  139.7540   81.3950  220.6760 C   0  0  0  0  0  0  0  0  0  0  0  0
  140.4160   82.3030  221.4590 C   0  0  0  0  0  0  0  0  0  0  0  0
  141.4170   81.8300  222.2710 C   0  0  0  0  0  0  0  0  0  0  0  0
  141.7410   80.4750  222.2920 C   0  0  0  0  0  0  0  0  0  0  0  0
  141.1160   77.3230  222.7040 C   0  0  0  0  0  0  0  0  0  0  0  0
  140.1150   76.2830  222.2460 C   0  0  0  0  0  0  0  0  0  0  0  0
  140.5370   73.5070  222.3040 N   0  0  0  0  0  0  0  0  0  0  0  0
  140.7560   72.1950  222.5260 C   0  0  0  0  0  0  0  0  0  0  0  0
  140.1410   71.4860  223.6030 N   0  0  0  0  0  0  0  0  0  0  0  0
  138.9450   70.7330  223.3840 C   0  0  0  0  0  0  0  0  0  0  0  0
  139.1440   69.2920  223.7830 C   0  0  0  0  0  0  0  0  0  0  0  0
  139.6300   69.2790  225.2010 C   0  0  0  0  0  0  0  0  0  0  0  0
  139.3400   68.1980  226.0160 C   0  0  0  0  0  0  0  0  0  0  0  0
  139.7800   68.1660  227.3270 C   0  0  0  0  0  0  0  0  0  0  0  0
  140.5140   69.2180  227.8320 C   0  0  0  0  0  0  0  0  0  0  0  0
  140.8140   70.3050  227.0370 C   0  0  0  0  0  0  0  0  0  0  0  0
  140.3700   70.3290  225.7260 C   0  0  0  0  0  0  0  0  0  0  0  0
  140.7260   71.5260  224.9230 C   0  0  0  0  0  0  0  0  0  0  0  0
  141.5880   71.5610  221.6890 N   0  0  0  0  0  0  0  0  0  0  0  0
  144.2890   72.1250  219.3480 C   0  0  0  0  0  0  0  0  0  0  0  0
  145.4550   71.1950  219.3820 C   0  0  0  0  0  0  0  0  0  0  0  0
  146.6870   67.3930  220.4920 H   0  0  0  0  0  0  0  0  0  0  0  0
  145.1540   67.3400  219.6720 H   0  0  0  0  0  0  0  0  0  0  0  0
  147.1466   69.5114  219.5008 H   0  0  0  0  0  0  0  0  0  0  0  0
  146.6218   68.4078  218.1924 H   0  0  0  0  0  0  0  0  0  0  0  0
  144.9472   69.9159  217.7420 H   0  0  0  0  0  0  0  0  0  0  0  0
  143.6387   68.3029  218.9543 H   0  0  0  0  0  0  0  0  0  0  0  0
  144.0941   69.0912  220.5265 H   0  0  0  0  0  0  0  0  0  0  0  0
  142.3893   70.2145  218.3009 H   0  0  0  0  0  0  0  0  0  0  0  0
  141.9094   69.7883  219.9914 H   0  0  0  0  0  0  0  0  0  0  0  0
  141.6522   75.6813  219.2510 H   0  0  0  0  0  0  0  0  0  0  0  0
  140.2258   76.7114  219.4946 H   0  0  0  0  0  0  0  0  0  0  0  0
  143.0170   77.0522  220.7696 H   0  0  0  0  0  0  0  0  0  0  0  0
  142.2337   78.1569  219.6008 H   0  0  0  0  0  0  0  0  0  0  0  0
  139.5168   79.3550  220.0463 H   0  0  0  0  0  0  0  0  0  0  0  0
  138.9467   81.7448  220.0158 H   0  0  0  0  0  0  0  0  0  0  0  0
  140.1554   83.3715  221.4381 H   0  0  0  0  0  0  0  0  0  0  0  0
  141.9707   82.5303  222.9137 H   0  0  0  0  0  0  0  0  0  0  0  0
  142.5492   80.1358  222.9566 H   0  0  0  0  0  0  0  0  0  0  0  0
  142.0356   76.8346  223.0586 H   0  0  0  0  0  0  0  0  0  0  0  0
  140.7149   77.9209  223.5357 H   0  0  0  0  0  0  0  0  0  0  0  0
  139.8598   75.6007  223.0702 H   0  0  0  0  0  0  0  0  0  0  0  0
  139.1694   76.7342  221.9111 H   0  0  0  0  0  0  0  0  0  0  0  0
  138.1308   71.1651  223.9843 H   0  0  0  0  0  0  0  0  0  0  0  0
  138.6918   70.7729  222.3143 H   0  0  0  0  0  0  0  0  0  0  0  0
  138.1917   68.7467  223.7076 H   0  0  0  0  0  0  0  0  0  0  0  0
  139.8731   68.8039  223.1195 H   0  0  0  0  0  0  0  0  0  0  0  0
  138.7542   67.3567  225.6172 H   0  0  0  0  0  0  0  0  0  0  0  0
  139.5445   67.3021  227.9659 H   0  0  0  0  0  0  0  0  0  0  0  0
  140.8626   69.1906  228.8750 H   0  0  0  0  0  0  0  0  0  0  0  0
  141.3999   71.1439  227.4407 H   0  0  0  0  0  0  0  0  0  0  0  0
  140.3639   72.4241  225.4448 H   0  0  0  0  0  0  0  0  0  0  0  0
  141.8199   71.5456  224.8092 H   0  0  0  0  0  0  0  0  0  0  0  0
  144.1508   72.4785  218.3155 H   0  0  0  0  0  0  0  0  0  0  0  0
  144.5059   72.9549  220.0367 H   0  0  0  0  0  0  0  0  0  0  0  0
  146.2712   71.6329  218.7886 H   0  0  0  0  0  0  0  0  0  0  0  0
  145.7420   71.0623  220.4356 H   0  0  0  0  0  0  0  0  0  0  0  0
  1  2  1  0
  2  3  1  0
  3  4  1  0
  4  5  1  0
  5  6  1  0
  6  7  1  0
  7  8  2  0
  8  9  1  0
  9 10  1  0
 10 11  1  0
 11 12  1  0
 12 13  1  0
 13 14  1  0
 14 15  2  0
 15 16  1  0
 16 17  2  0
 17 18  1  0
 18 19  2  0
 13 20  1  0
 20 21  1  0
  9 22  2  0
 22 23  1  0
 23 24  1  0
 24 25  1  0
 25 26  1  0
 26 27  1  0
 27 28  2  0
 28 29  1  0
 29 30  2  0
 30 31  1  0
 31 32  2  0
 32 33  1  0
 23 34  2  0
  6 35  1  0
 35 36  1  0
 36  3  1  0
 34  7  1  0
 21 10  1  0
 33 24  1  0
 19 14  1  0
 32 27  1  0
  1 37  1  0
  1 38  1  0
  2 39  1  0
  2 40  1  0
  3 41  1  0
  4 42  1  0
  4 43  1  0
  5 44  1  0
  5 45  1  0
 11 46  1  0
 11 47  1  0
 12 48  1  0
 12 49  1  0
 15 50  1  0
 16 51  1  0
 17 52  1  0
 18 53  1  0
 19 54  1  0
 20 55  1  0
 20 56  1  0
 21 57  1  0
 21 58  1  0
 25 59  1  0
 25 60  1  0
 26 61  1  0
 26 62  1  0
 28 63  1  0
 29 64  1  0
 30 65  1  0
 31 66  1  0
 33 67  1  0
 33 68  1  0
 35 69  1  0
 35 70  1  0
 36 71  1  0
 36 72  1  0
M  END
>  <smiles>  (16) 
NCC1CCN(c2nc(N3CCN(c4ccccc4)CC3)nc(N3CCc4ccccc4C3)n2)CC1

>  <score_type>  (16) 
oracle

>  <origin>  (16) 
autodockgpu

>  <m_score__min__energy>  (16) 
-10.050000000000001

>  <m_primary>  (16) 
energy

>  <rmsd>  (16) 
8.870527687853626

>  <m_score__min__rmsd>  (16) 
8.870527687853626

>  <meeko>  (16) 
{"free_energy": -9.93, "intermolecular_energy": -11.72, "internal_energy": -1.18, "cluster_size": 26, "cluster_id": 1, "rank_in_cluster": 10}

>  <energy>  (16) 
-9.57

>  <cluster_rmsd>  (16) 
0.41

>  <cluster>  (16) 
1

$$$$

     RDKit          3D

 72 77  0  0  0  0  0  0  0  0999 V2000
  142.5660   79.3130  222.3720 N   0  0  0  0  0  0  0  0  0  0  0  0
  141.1400   79.4680  222.1440 C   0  0  0  0  0  0  0  0  0  0  0  0
  140.6370   78.2620  221.3780 C   0  0  0  0  0  0  0  0  0  0  0  0
  141.8220   77.4870  220.8440 C   0  0  0  0  0  0  0  0  0  0  0  0
  141.4130   76.1970  220.2130 C   0  0  0  0  0  0  0  0  0  0  0  0
  140.5390   75.4500  221.0810 N   0  0  0  0  0  0  0  0  0  0  0  0
  140.7720   74.0540  221.2770 C   0  0  0  0  0  0  0  0  0  0  0  0
  141.4660   73.3550  220.3410 N   0  0  0  0  0  0  0  0  0  0  0  0
  141.6840   72.0410  220.5280 C   0  0  0  0  0  0  0  0  0  0  0  0
  142.3980   71.2260  219.6060 N   0  0  0  0  0  0  0  0  0  0  0  0
  142.0010   69.8690  219.2950 C   0  0  0  0  0  0  0  0  0  0  0  0
  143.1840   68.9650  219.6740 C   0  0  0  0  0  0  0  0  0  0  0  0
  144.3870   69.4860  219.0350 N   0  0  0  0  0  0  0  0  0  0  0  0
  145.1820   68.7400  218.1320 C   0  0  0  0  0  0  0  0  0  0  0  0
  145.6800   69.3080  216.9550 C   0  0  0  0  0  0  0  0  0  0  0  0
  146.4690   68.5830  216.0740 C   0  0  0  0  0  0  0  0  0  0  0  0
  146.7990   67.2750  216.3120 C   0  0  0  0  0  0  0  0  0  0  0  0
  146.3180   66.6980  217.4620 C   0  0  0  0  0  0  0  0  0  0  0  0
  145.5260   67.4250  218.3490 C   0  0  0  0  0  0  0  0  0  0  0  0
  144.7260   70.8620  219.4130 C   0  0  0  0  0  0  0  0  0  0  0  0
  143.5950   71.7370  218.9170 C   0  0  0  0  0  0  0  0  0  0  0  0
  141.2110   71.4530  221.6340 N   0  0  0  0  0  0  0  0  0  0  0  0
  140.5200   72.1260  222.5770 C   0  0  0  0  0  0  0  0  0  0  0  0
  140.0180   71.4940  223.7560 N   0  0  0  0  0  0  0  0  0  0  0  0
  138.8610   70.6570  223.6910 C   0  0  0  0  0  0  0  0  0  0  0  0
  139.1740   69.2770  224.2130 C   0  0  0  0  0  0  0  0  0  0  0  0
  139.7460   69.4330  225.5890 C   0  0  0  0  0  0  0  0  0  0  0  0
  139.5760   68.4240  226.5220 C   0  0  0  0  0  0  0  0  0  0  0  0
  140.0970   68.5490  227.7970 C   0  0  0  0  0  0  0  0  0  0  0  0
  140.7930   69.6860  228.1480 C   0  0  0  0  0  0  0  0  0  0  0  0
  140.9750   70.7030  227.2340 C   0  0  0  0  0  0  0  0  0  0  0  0
  140.4500   70.5710  225.9600 C   0  0  0  0  0  0  0  0  0  0  0  0
  140.6790   71.6990  225.0240 C   0  0  0  0  0  0  0  0  0  0  0  0
  140.3130   73.4330  222.3710 N   0  0  0  0  0  0  0  0  0  0  0  0
  139.4340   76.1000  221.7490 C   0  0  0  0  0  0  0  0  0  0  0  0
  139.8070   77.4240  222.3250 C   0  0  0  0  0  0  0  0  0  0  0  0
  143.1420   79.5650  221.5520 H   0  0  0  0  0  0  0  0  0  0  0  0
  142.7260   78.3290  222.7040 H   0  0  0  0  0  0  0  0  0  0  0  0
  140.6164   79.5385  223.1088 H   0  0  0  0  0  0  0  0  0  0  0  0
  140.9502   80.3848  221.5665 H   0  0  0  0  0  0  0  0  0  0  0  0
  140.0140   78.5589  220.5214 H   0  0  0  0  0  0  0  0  0  0  0  0
  142.3376   78.1018  220.0916 H   0  0  0  0  0  0  0  0  0  0  0  0
  142.4834   77.2541  221.6915 H   0  0  0  0  0  0  0  0  0  0  0  0
  140.8878   76.4088  219.2700 H   0  0  0  0  0  0  0  0  0  0  0  0
  142.3161   75.5974  220.0259 H   0  0  0  0  0  0  0  0  0  0  0  0
  141.1101   69.5917  219.8776 H   0  0  0  0  0  0  0  0  0  0  0  0
  141.7490   69.7649  218.2293 H   0  0  0  0  0  0  0  0  0  0  0  0
  143.3149   68.9634  220.7662 H   0  0  0  0  0  0  0  0  0  0  0  0
  142.9944   67.9349  219.3379 H   0  0  0  0  0  0  0  0  0  0  0  0
  145.4400   70.3559  216.7220 H   0  0  0  0  0  0  0  0  0  0  0  0
  146.8393   69.0712  215.1605 H   0  0  0  0  0  0  0  0  0  0  0  0
  147.4259   66.7078  215.6083 H   0  0  0  0  0  0  0  0  0  0  0  0
  146.5610   65.6488  217.6857 H   0  0  0  0  0  0  0  0  0  0  0  0
  145.1609   66.9276  219.2597 H   0  0  0  0  0  0  0  0  0  0  0  0
  144.8180   70.9438  220.5061 H   0  0  0  0  0  0  0  0  0  0  0  0
  145.6870   71.1689  218.9745 H   0  0  0  0  0  0  0  0  0  0  0  0
  143.7746   72.7897  219.1806 H   0  0  0  0  0  0  0  0  0  0  0  0
  143.4917   71.7032  217.8224 H   0  0  0  0  0  0  0  0  0  0  0  0
  138.0593   71.1005  224.2998 H   0  0  0  0  0  0  0  0  0  0  0  0
  138.5411   70.5751  222.6417 H   0  0  0  0  0  0  0  0  0  0  0  0
  138.2548   68.6742  224.2549 H   0  0  0  0  0  0  0  0  0  0  0  0
  139.8902   68.7669  223.5521 H   0  0  0  0  0  0  0  0  0  0  0  0
  139.0215   67.5148  226.2466 H   0  0  0  0  0  0  0  0  0  0  0  0
  139.9561   67.7416  228.5306 H   0  0  0  0  0  0  0  0  0  0  0  0
  141.2057   69.7828  229.1630 H   0  0  0  0  0  0  0  0  0  0  0  0
  141.5315   71.6094  227.5146 H   0  0  0  0  0  0  0  0  0  0  0  0
  140.2932   72.6226  225.4801 H   0  0  0  0  0  0  0  0  0  0  0  0
  141.7604   71.7693  224.8355 H   0  0  0  0  0  0  0  0  0  0  0  0
  138.6220   76.2488  221.0221 H   0  0  0  0  0  0  0  0  0  0  0  0
  139.1219   75.4521  222.5813 H   0  0  0  0  0  0  0  0  0  0  0  0
  138.8857   77.9745  222.5662 H   0  0  0  0  0  0  0  0  0  0  0  0
  140.4161   77.2356  223.2214 H   0  0  0  0  0  0  0  0  0  0  0  0
  1  2  1  0
  2  3  1  0
  3  4  1  0
  4  5  1  0
  5  6  1  0
  6  7  1  0
  7  8  2  0
  8  9  1  0
  9 10  1  0
 10 11  1  0
 11 12  1  0
 12 13  1  0
 13 14  1  0
 14 15  2  0
 15 16  1  0
 16 17  2  0
 17 18  1  0
 18 19  2  0
 13 20  1  0
 20 21  1  0
  9 22  2  0
 22 23  1  0
 23 24  1  0
 24 25  1  0
 25 26  1  0
 26 27  1  0
 27 28  2  0
 28 29  1  0
 29 30  2  0
 30 31  1  0
 31 32  2  0
 32 33  1  0
 23 34  2  0
  6 35  1  0
 35 36  1  0
 36  3  1  0
 34  7  1  0
 21 10  1  0
 33 24  1  0
 19 14  1  0
 32 27  1  0
  1 37  1  0
  1 38  1  0
  2 39  1  0
  2 40  1  0
  3 41  1  0
  4 42  1  0
  4 43  1  0
  5 44  1  0
  5 45  1  0
 11 46  1  0
 11 47  1  0
 12 48  1  0
 12 49  1  0
 15 50  1  0
 16 51  1  0
 17 52  1  0
 18 53  1  0
 19 54  1  0
 20 55  1  0
 20 56  1  0
 21 57  1  0
 21 58  1  0
 25 59  1  0
 25 60  1  0
 26 61  1  0
 26 62  1  0
 28 63  1  0
 29 64  1  0
 30 65  1  0
 31 66  1  0
 33 67  1  0
 33 68  1  0
 35 69  1  0
 35 70  1  0
 36 71  1  0
 36 72  1  0
M  END
>  <smiles>  (17) 
NCC1CCN(c2nc(N3CCN(c4ccccc4)CC3)nc(N3CCc4ccccc4C3)n2)CC1

>  <score_type>  (17) 
oracle

>  <origin>  (17) 
autodockgpu

>  <m_score__min__energy>  (17) 
-10.050000000000001

>  <m_primary>  (17) 
energy

>  <rmsd>  (17) 
8.739022010714773

>  <m_score__min__rmsd>  (17) 
8.739022010714773

>  <meeko>  (17) 
{"free_energy": -9.5, "intermolecular_energy": -11.29, "internal_energy": -1.17, "cluster_size": 13, "cluster_id": 2, "rank_in_cluster": 8}

>  <energy>  (17) 
-9.52

>  <cluster_rmsd>  (17) 
0.88

>  <cluster>  (17) 
1

$$$$

     RDKit          3D

 72 77  0  0  0  0  0  0  0  0999 V2000
  139.9370   67.6430  227.2640 N   0  0  0  0  0  0  0  0  0  0  0  0
  139.2980   67.7930  225.9690 C   0  0  0  0  0  0  0  0  0  0  0  0
  139.2600   69.2660  225.6150 C   0  0  0  0  0  0  0  0  0  0  0  0
  140.6740   69.8040  225.5880 C   0  0  0  0  0  0  0  0  0  0  0  0
  140.7320   71.2110  225.0910 C   0  0  0  0  0  0  0  0  0  0  0  0
  140.0030   71.3540  223.8560 N   0  0  0  0  0  0  0  0  0  0  0  0
  140.5950   72.0700  222.7720 C   0  0  0  0  0  0  0  0  0  0  0  0
  140.3140   73.3900  222.6100 N   0  0  0  0  0  0  0  0  0  0  0  0
  140.8730   74.0620  221.5880 C   0  0  0  0  0  0  0  0  0  0  0  0
  140.6400   75.4430  221.3380 N   0  0  0  0  0  0  0  0  0  0  0  0
  141.0110   76.0820  220.0930 C   0  0  0  0  0  0  0  0  0  0  0  0
  141.9950   77.2070  220.4510 C   0  0  0  0  0  0  0  0  0  0  0  0
  141.3920   78.0360  221.4890 N   0  0  0  0  0  0  0  0  0  0  0  0
  141.1520   79.4220  221.3460 C   0  0  0  0  0  0  0  0  0  0  0  0
  140.8010   80.2220  222.4390 C   0  0  0  0  0  0  0  0  0  0  0  0
  140.5770   81.5830  222.3040 C   0  0  0  0  0  0  0  0  0  0  0  0
  140.6870   82.2140  221.0930 C   0  0  0  0  0  0  0  0  0  0  0  0
  141.0300   81.4480  220.0060 C   0  0  0  0  0  0  0  0  0  0  0  0
  141.2570   80.0790  220.1400 C   0  0  0  0  0  0  0  0  0  0  0  0
  141.0570   77.3140  222.7220 C   0  0  0  0  0  0  0  0  0  0  0  0
  139.9980   76.2970  222.3510 C   0  0  0  0  0  0  0  0  0  0  0  0
  141.6950   73.4140  220.7540 N   0  0  0  0  0  0  0  0  0  0  0  0
  141.9900   72.1050  220.8940 C   0  0  0  0  0  0  0  0  0  0  0  0
  142.8690   71.4170  220.0020 N   0  0  0  0  0  0  0  0  0  0  0  0
  143.9040   72.1260  219.3170 C   0  0  0  0  0  0  0  0  0  0  0  0
  145.2520   71.5210  219.6200 C   0  0  0  0  0  0  0  0  0  0  0  0
  145.1790   70.0620  219.2870 C   0  0  0  0  0  0  0  0  0  0  0  0
  146.3220   69.3910  218.8880 C   0  0  0  0  0  0  0  0  0  0  0  0
  146.2750   68.0440  218.5750 C   0  0  0  0  0  0  0  0  0  0  0  0
  145.0810   67.3590  218.6620 C   0  0  0  0  0  0  0  0  0  0  0  0
  143.9310   68.0080  219.0580 C   0  0  0  0  0  0  0  0  0  0  0  0
  143.9860   69.3560  219.3680 C   0  0  0  0  0  0  0  0  0  0  0  0
  142.7140   69.9970  219.7870 C   0  0  0  0  0  0  0  0  0  0  0  0
  141.4230   71.4540  221.9180 N   0  0  0  0  0  0  0  0  0  0  0  0
  138.6830   70.7820  223.7100 C   0  0  0  0  0  0  0  0  0  0  0  0
  138.5890   69.4010  224.2670 C   0  0  0  0  0  0  0  0  0  0  0  0
  140.7260   66.9760  227.2580 H   0  0  0  0  0  0  0  0  0  0  0  0
  139.1870   67.3900  227.9560 H   0  0  0  0  0  0  0  0  0  0  0  0
  139.8710   67.2437  225.2074 H   0  0  0  0  0  0  0  0  0  0  0  0
  138.2754   67.3894  226.0061 H   0  0  0  0  0  0  0  0  0  0  0  0
  138.6929   69.8457  226.3582 H   0  0  0  0  0  0  0  0  0  0  0  0
  141.0852   69.7711  226.6077 H   0  0  0  0  0  0  0  0  0  0  0  0
  141.2608   69.1779  224.8997 H   0  0  0  0  0  0  0  0  0  0  0  0
  140.2923   71.8779  225.8473 H   0  0  0  0  0  0  0  0  0  0  0  0
  141.7843   71.4748  224.9089 H   0  0  0  0  0  0  0  0  0  0  0  0
  141.4934   75.3553  219.4228 H   0  0  0  0  0  0  0  0  0  0  0  0
  140.1269   76.4797  219.5732 H   0  0  0  0  0  0  0  0  0  0  0  0
  142.9354   76.7734  220.8220 H   0  0  0  0  0  0  0  0  0  0  0  0
  142.2118   77.8158  219.5608 H   0  0  0  0  0  0  0  0  0  0  0  0
  140.7002   79.7585  223.4315 H   0  0  0  0  0  0  0  0  0  0  0  0
  140.3038   82.1718  223.1921 H   0  0  0  0  0  0  0  0  0  0  0  0
  140.5071   83.2948  220.9949 H   0  0  0  0  0  0  0  0  0  0  0  0
  141.1268   81.9205  219.0174 H   0  0  0  0  0  0  0  0  0  0  0  0
  141.5312   79.4998  219.2459 H   0  0  0  0  0  0  0  0  0  0  0  0
  141.9485   76.8066  223.1193 H   0  0  0  0  0  0  0  0  0  0  0  0
  140.6927   78.0020  223.4992 H   0  0  0  0  0  0  0  0  0  0  0  0
  139.7051   75.7036  223.2297 H   0  0  0  0  0  0  0  0  0  0  0  0
  139.0792   76.7706  221.9749 H   0  0  0  0  0  0  0  0  0  0  0  0
  143.7205   72.0759  218.2336 H   0  0  0  0  0  0  0  0  0  0  0  0
  143.9008   73.1726  219.6554 H   0  0  0  0  0  0  0  0  0  0  0  0
  146.0271   72.0068  219.0090 H   0  0  0  0  0  0  0  0  0  0  0  0
  145.5096   71.6629  220.6799 H   0  0  0  0  0  0  0  0  0  0  0  0
  147.2764   69.9335  218.8191 H   0  0  0  0  0  0  0  0  0  0  0  0
  147.1886   67.5202  218.2572 H   0  0  0  0  0  0  0  0  0  0  0  0
  145.0461   66.2879  218.4138 H   0  0  0  0  0  0  0  0  0  0  0  0
  142.9795   67.4603  219.1269 H   0  0  0  0  0  0  0  0  0  0  0  0
  141.9602   69.8368  219.0021 H   0  0  0  0  0  0  0  0  0  0  0  0
  142.4010   69.5414  220.7381 H   0  0  0  0  0  0  0  0  0  0  0  0
  137.9612   71.4237  224.2365 H   0  0  0  0  0  0  0  0  0  0  0  0
  138.4642   70.7217  222.6337 H   0  0  0  0  0  0  0  0  0  0  0  0
  137.5266   69.1373  224.3753 H   0  0  0  0  0  0  0  0  0  0  0  0
  139.1079   68.7267  223.5698 H   0  0  0  0  0  0  0  0  0  0  0  0
  1  2  1  0
  2  3  1  0
  3  4  1  0
  4  5  1  0
  5  6  1  0
  6  7  1  0
  7  8  2  0
  8  9  1  0
  9 10  1  0
 10 11  1  0
 11 12  1  0
 12 13  1  0
 13 14  1  0
 14 15  2  0
 15 16  1  0
 16 17  2  0
 17 18  1  0
 18 19  2  0
 13 20  1  0
 20 21  1  0
  9 22  2  0
 22 23  1  0
 23 24  1  0
 24 25  1  0
 25 26  1  0
 26 27  1  0
 27 28  2  0
 28 29  1  0
 29 30  2  0
 30 31  1  0
 31 32  2  0
 32 33  1  0
 23 34  2  0
  6 35  1  0
 35 36  1  0
 36  3  1  0
 34  7  1  0
 21 10  1  0
 33 24  1  0
 19 14  1  0
 32 27  1  0
  1 37  1  0
  1 38  1  0
  2 39  1  0
  2 40  1  0
  3 41  1  0
  4 42  1  0
  4 43  1  0
  5 44  1  0
  5 45  1  0
 11 46  1  0
 11 47  1  0
 12 48  1  0
 12 49  1  0
 15 50  1  0
 16 51  1  0
 17 52  1  0
 18 53  1  0
 19 54  1  0
 20 55  1  0
 20 56  1  0
 21 57  1  0
 21 58  1  0
 25 59  1  0
 25 60  1  0
 26 61  1  0
 26 62  1  0
 28 63  1  0
 29 64  1  0
 30 65  1  0
 31 66  1  0
 33 67  1  0
 33 68  1  0
 35 69  1  0
 35 70  1  0
 36 71  1  0
 36 72  1  0
M  END
>  <smiles>  (18) 
NCC1CCN(c2nc(N3CCN(c4ccccc4)CC3)nc(N3CCc4ccccc4C3)n2)CC1

>  <score_type>  (18) 
oracle

>  <origin>  (18) 
autodockgpu

>  <m_score__min__energy>  (18) 
-10.050000000000001

>  <m_primary>  (18) 
energy

>  <rmsd>  (18) 
9.012879640480277

>  <m_score__min__rmsd>  (18) 
9.012879640480277

>  <meeko>  (18) 
{"free_energy": -9.02, "intermolecular_energy": -10.81, "internal_energy": -1.22, "cluster_size": 6, "cluster_id": 4, "rank_in_cluster": 2}

>  <energy>  (18) 
-9.38

>  <cluster_rmsd>  (18) 
1.36

>  <cluster>  (18) 
1

$$$$

     RDKit          3D

 72 77  0  0  0  0  0  0  0  0999 V2000
  142.5400   79.0140  222.8590 N   0  0  0  0  0  0  0  0  0  0  0  0
  141.6110   79.4640  221.8370 C   0  0  0  0  0  0  0  0  0  0  0  0
  140.8480   78.2650  221.3130 C   0  0  0  0  0  0  0  0  0  0  0  0
  141.7890   77.3930  220.5100 C   0  0  0  0  0  0  0  0  0  0  0  0
  141.1500   76.1090  220.0940 C   0  0  0  0  0  0  0  0  0  0  0  0
  140.5230   75.4560  221.2140 N   0  0  0  0  0  0  0  0  0  0  0  0
  140.7280   74.0570  221.4150 C   0  0  0  0  0  0  0  0  0  0  0  0
  141.3770   73.3340  220.4630 N   0  0  0  0  0  0  0  0  0  0  0  0
  141.5690   72.0170  220.6550 C   0  0  0  0  0  0  0  0  0  0  0  0
  142.2350   71.1780  219.7180 N   0  0  0  0  0  0  0  0  0  0  0  0
  141.6440   69.9610  219.2040 C   0  0  0  0  0  0  0  0  0  0  0  0
  142.5920   68.8140  219.5880 C   0  0  0  0  0  0  0  0  0  0  0  0
  143.9380   69.1580  219.1440 N   0  0  0  0  0  0  0  0  0  0  0  0
  144.6920   68.3700  218.2440 C   0  0  0  0  0  0  0  0  0  0  0  0
  144.2660   68.1500  216.9290 C   0  0  0  0  0  0  0  0  0  0  0  0
  145.0090   67.3870  216.0410 C   0  0  0  0  0  0  0  0  0  0  0  0
  146.1970   66.8100  216.4050 C   0  0  0  0  0  0  0  0  0  0  0  0
  146.6330   67.0130  217.6910 C   0  0  0  0  0  0  0  0  0  0  0  0
  145.8880   67.7800  218.5860 C   0  0  0  0  0  0  0  0  0  0  0  0
  144.4670   70.3990  219.7200 C   0  0  0  0  0  0  0  0  0  0  0  0
  143.5790   71.5190  219.2220 C   0  0  0  0  0  0  0  0  0  0  0  0
  141.1170   71.4490  221.7790 N   0  0  0  0  0  0  0  0  0  0  0  0
  140.4710   72.1450  222.7380 C   0  0  0  0  0  0  0  0  0  0  0  0
  139.9910   71.5350  223.9370 N   0  0  0  0  0  0  0  0  0  0  0  0
  138.8240   70.7090  223.9110 C   0  0  0  0  0  0  0  0  0  0  0  0
  139.1360   69.3330  224.4440 C   0  0  0  0  0  0  0  0  0  0  0  0
  139.7420   69.5010  225.8030 C   0  0  0  0  0  0  0  0  0  0  0  0
  139.5840   68.5060  226.7530 C   0  0  0  0  0  0  0  0  0  0  0  0
  140.1370   68.6420  228.0140 C   0  0  0  0  0  0  0  0  0  0  0  0
  140.8530   69.7760  228.3330 C   0  0  0  0  0  0  0  0  0  0  0  0
  141.0230   70.7790  227.4010 C   0  0  0  0  0  0  0  0  0  0  0  0
  140.4660   70.6360  226.1420 C   0  0  0  0  0  0  0  0  0  0  0  0
  140.6850   71.7490  225.1850 C   0  0  0  0  0  0  0  0  0  0  0  0
  140.2890   73.4550  222.5280 N   0  0  0  0  0  0  0  0  0  0  0  0
  139.6890   76.2030  222.1300 C   0  0  0  0  0  0  0  0  0  0  0  0
  140.2800   77.5220  222.5010 C   0  0  0  0  0  0  0  0  0  0  0  0
  142.7400   79.7300  223.5760 H   0  0  0  0  0  0  0  0  0  0  0  0
  143.4020   78.6670  222.3680 H   0  0  0  0  0  0  0  0  0  0  0  0
  140.9074   80.1902  222.2701 H   0  0  0  0  0  0  0  0  0  0  0  0
  142.1616   79.9462  221.0158 H   0  0  0  0  0  0  0  0  0  0  0  0
  140.0231   78.5686  220.6517 H   0  0  0  0  0  0  0  0  0  0  0  0
  142.0995   77.9425  219.6091 H   0  0  0  0  0  0  0  0  0  0  0  0
  142.6519   77.1502  221.1476 H   0  0  0  0  0  0  0  0  0  0  0  0
  140.3890   76.3180  219.3277 H   0  0  0  0  0  0  0  0  0  0  0  0
  141.9294   75.4443  219.6931 H   0  0  0  0  0  0  0  0  0  0  0  0
  140.6532   69.8010  219.6543 H   0  0  0  0  0  0  0  0  0  0  0  0
  141.5101   70.0157  218.1135 H   0  0  0  0  0  0  0  0  0  0  0  0
  142.5851   68.6764  220.6793 H   0  0  0  0  0  0  0  0  0  0  0  0
  142.2650   67.8787  219.1102 H   0  0  0  0  0  0  0  0  0  0  0  0
  143.3177   68.5936  216.5914 H   0  0  0  0  0  0  0  0  0  0  0  0
  144.6345   67.2411  215.0170 H   0  0  0  0  0  0  0  0  0  0  0  0
  146.7798   66.2066  215.6935 H   0  0  0  0  0  0  0  0  0  0  0  0
  147.5823   66.5648  218.0195 H   0  0  0  0  0  0  0  0  0  0  0  0
  146.2717   67.9194  219.6074 H   0  0  0  0  0  0  0  0  0  0  0  0
  144.4371   70.3506  220.8185 H   0  0  0  0  0  0  0  0  0  0  0  0
  145.5137   70.5601  219.4225 H   0  0  0  0  0  0  0  0  0  0  0  0
  143.9091   72.4861  219.6291 H   0  0  0  0  0  0  0  0  0  0  0  0
  143.6064   71.6166  218.1267 H   0  0  0  0  0  0  0  0  0  0  0  0
  138.0417   71.1688  224.5327 H   0  0  0  0  0  0  0  0  0  0  0  0
  138.4779   70.6165  222.8710 H   0  0  0  0  0  0  0  0  0  0  0  0
  138.2122   68.7401  224.5158 H   0  0  0  0  0  0  0  0  0  0  0  0
  139.8313   68.8071  223.7731 H   0  0  0  0  0  0  0  0  0  0  0  0
  139.0137   67.5993  226.5029 H   0  0  0  0  0  0  0  0  0  0  0  0
  140.0054   67.8458  228.7615 H   0  0  0  0  0  0  0  0  0  0  0  0
  141.2913   69.8818  229.3363 H   0  0  0  0  0  0  0  0  0  0  0  0
  141.5954   71.6831  227.6559 H   0  0  0  0  0  0  0  0  0  0  0  0
  140.3212   72.6832  225.6378 H   0  0  0  0  0  0  0  0  0  0  0  0
  141.7622   71.8039  224.9692 H   0  0  0  0  0  0  0  0  0  0  0  0
  138.7120   76.3761  221.6552 H   0  0  0  0  0  0  0  0  0  0  0  0
  139.5937   75.6103  223.0517 H   0  0  0  0  0  0  0  0  0  0  0  0
  139.4959   78.1415  222.9608 H   0  0  0  0  0  0  0  0  0  0  0  0
  141.1089   77.3290  223.1979 H   0  0  0  0  0  0  0  0  0  0  0  0
  1  2  1  0
  2  3  1  0
  3  4  1  0
  4  5  1  0
  5  6  1  0
  6  7  1  0
  7  8  2  0
  8  9  1  0
  9 10  1  0
 10 11  1  0
 11 12  1  0
 12 13  1  0
 13 14  1  0
 14 15  2  0
 15 16  1  0
 16 17  2  0
 17 18  1  0
 18 19  2  0
 13 20  1  0
 20 21  1  0
  9 22  2  0
 22 23  1  0
 23 24  1  0
 24 25  1  0
 25 26  1  0
 26 27  1  0
 27 28  2  0
 28 29  1  0
 29 30  2  0
 30 31  1  0
 31 32  2  0
 32 33  1  0
 23 34  2  0
  6 35  1  0
 35 36  1  0
 36  3  1  0
 34  7  1  0
 21 10  1  0
 33 24  1  0
 19 14  1  0
 32 27  1  0
  1 37  1  0
  1 38  1  0
  2 39  1  0
  2 40  1  0
  3 41  1  0
  4 42  1  0
  4 43  1  0
  5 44  1  0
  5 45  1  0
 11 46  1  0
 11 47  1  0
 12 48  1  0
 12 49  1  0
 15 50  1  0
 16 51  1  0
 17 52  1  0
 18 53  1  0
 19 54  1  0
 20 55  1  0
 20 56  1  0
 21 57  1  0
 21 58  1  0
 25 59  1  0
 25 60  1  0
 26 61  1  0
 26 62  1  0
 28 63  1  0
 29 64  1  0
 30 65  1  0
 31 66  1  0
 33 67  1  0
 33 68  1  0
 35 69  1  0
 35 70  1  0
 36 71  1  0
 36 72  1  0
M  END
>  <smiles>  (19) 
NCC1CCN(c2nc(N3CCN(c4ccccc4)CC3)nc(N3CCc4ccccc4C3)n2)CC1

>  <score_type>  (19) 
oracle

>  <origin>  (19) 
autodockgpu

>  <m_score__min__energy>  (19) 
-10.050000000000001

>  <m_primary>  (19) 
energy

>  <rmsd>  (19) 
8.504514776824653

>  <m_score__min__rmsd>  (19) 
8.504514776824653

>  <meeko>  (19) 
{"free_energy": -9.05, "intermolecular_energy": -10.84, "internal_energy": -1.23, "cluster_size": 13, "cluster_id": 2, "rank_in_cluster": 11}

>  <energy>  (19) 
-9.37

>  <cluster_rmsd>  (19) 
1.05

>  <cluster>  (19) 
1

$$$$

     RDKit          3D

 72 77  0  0  0  0  0  0  0  0999 V2000
  145.6490   68.1700  220.0740 N   0  0  0  0  0  0  0  0  0  0  0  0
  145.2570   68.3050  218.6820 C   0  0  0  0  0  0  0  0  0  0  0  0
  144.4570   69.5820  218.5250 C   0  0  0  0  0  0  0  0  0  0  0  0
  143.0020   69.2930  218.8220 C   0  0  0  0  0  0  0  0  0  0  0  0
  142.1740   70.5360  218.8440 C   0  0  0  0  0  0  0  0  0  0  0  0
  142.7770   71.5440  219.6780 N   0  0  0  0  0  0  0  0  0  0  0  0
  141.9650   72.2590  220.6110 C   0  0  0  0  0  0  0  0  0  0  0  0
  141.7430   73.5870  220.4230 N   0  0  0  0  0  0  0  0  0  0  0  0
  140.9780   74.2570  221.3030 C   0  0  0  0  0  0  0  0  0  0  0  0
  140.6890   75.6460  221.1910 N   0  0  0  0  0  0  0  0  0  0  0  0
  141.0000   76.4130  220.0040 C   0  0  0  0  0  0  0  0  0  0  0  0
  141.9550   77.5350  220.4410 C   0  0  0  0  0  0  0  0  0  0  0  0
  141.3550   78.2390  221.5690 N   0  0  0  0  0  0  0  0  0  0  0  0
  141.0630   79.6230  221.5650 C   0  0  0  0  0  0  0  0  0  0  0  0
  141.7490   80.5140  220.7310 C   0  0  0  0  0  0  0  0  0  0  0  0
  141.4570   81.8690  220.7160 C   0  0  0  0  0  0  0  0  0  0  0  0
  140.4840   82.4050  221.5180 C   0  0  0  0  0  0  0  0  0  0  0  0
  139.8000   81.5480  222.3450 C   0  0  0  0  0  0  0  0  0  0  0  0
  140.0900   80.1850  222.3610 C   0  0  0  0  0  0  0  0  0  0  0  0
  141.0830   77.3920  222.7350 C   0  0  0  0  0  0  0  0  0  0  0  0
  140.0500   76.3750  222.2990 C   0  0  0  0  0  0  0  0  0  0  0  0
  140.4520   73.5990  222.3430 N   0  0  0  0  0  0  0  0  0  0  0  0
  140.6570   72.2820  222.5500 C   0  0  0  0  0  0  0  0  0  0  0  0
  140.0940   71.5840  223.6620 N   0  0  0  0  0  0  0  0  0  0  0  0
  138.9390   70.7590  223.4880 C   0  0  0  0  0  0  0  0  0  0  0  0
  139.2200   69.3490  223.9410 C   0  0  0  0  0  0  0  0  0  0  0  0
  139.7220   69.4170  225.3500 C   0  0  0  0  0  0  0  0  0  0  0  0
  139.5010   68.3550  226.2100 C   0  0  0  0  0  0  0  0  0  0  0  0
  139.9570   68.3990  227.5160 C   0  0  0  0  0  0  0  0  0  0  0  0
  140.6390   69.5080  227.9700 C   0  0  0  0  0  0  0  0  0  0  0  0
  140.8700   70.5770  227.1290 C   0  0  0  0  0  0  0  0  0  0  0  0
  140.4100   70.5260  225.8250 C   0  0  0  0  0  0  0  0  0  0  0  0
  140.6910   71.7070  224.9720 C   0  0  0  0  0  0  0  0  0  0  0  0
  141.4230   71.6330  221.6630 N   0  0  0  0  0  0  0  0  0  0  0  0
  144.1900   71.8360  219.5760 C   0  0  0  0  0  0  0  0  0  0  0  0
  145.0270   70.6050  219.4810 C   0  0  0  0  0  0  0  0  0  0  0  0
  144.9340   68.5110  220.7360 H   0  0  0  0  0  0  0  0  0  0  0  0
  146.5790   68.6470  220.1860 H   0  0  0  0  0  0  0  0  0  0  0  0
  146.1543   68.3498  218.0473 H   0  0  0  0  0  0  0  0  0  0  0  0
  144.6477   67.4410  218.3785 H   0  0  0  0  0  0  0  0  0  0  0  0
  144.5193   69.9749  217.4995 H   0  0  0  0  0  0  0  0  0  0  0  0
  142.6090   68.6190  218.0465 H   0  0  0  0  0  0  0  0  0  0  0  0
  142.9456   68.8314  219.8189 H   0  0  0  0  0  0  0  0  0  0  0  0
  142.0820   70.9250  217.8192 H   0  0  0  0  0  0  0  0  0  0  0  0
  141.1832   70.2896  219.2533 H   0  0  0  0  0  0  0  0  0  0  0  0
  141.4866   75.7713  219.2547 H   0  0  0  0  0  0  0  0  0  0  0  0
  140.0874   76.8251  219.5487 H   0  0  0  0  0  0  0  0  0  0  0  0
  142.9206   77.1037  220.7437 H   0  0  0  0  0  0  0  0  0  0  0  0
  142.1240   78.2327  219.6075 H   0  0  0  0  0  0  0  0  0  0  0  0
  142.5400   80.1289  220.0707 H   0  0  0  0  0  0  0  0  0  0  0  0
  142.0211   82.5311  220.0427 H   0  0  0  0  0  0  0  0  0  0  0  0
  140.2590   83.4816  221.5002 H   0  0  0  0  0  0  0  0  0  0  0  0
  139.0125   81.9428  223.0038 H   0  0  0  0  0  0  0  0  0  0  0  0
  139.5186   79.5317  223.0368 H   0  0  0  0  0  0  0  0  0  0  0  0
  142.0035   76.8836  223.0579 H   0  0  0  0  0  0  0  0  0  0  0  0
  140.7179   77.9898  223.5831 H   0  0  0  0  0  0  0  0  0  0  0  0
  139.8068   75.6903  223.1249 H   0  0  0  0  0  0  0  0  0  0  0  0
  139.1033   76.8463  221.9964 H   0  0  0  0  0  0  0  0  0  0  0  0
  138.1086   71.1702  224.0807 H   0  0  0  0  0  0  0  0  0  0  0  0
  138.6734   70.7419  222.4207 H   0  0  0  0  0  0  0  0  0  0  0  0
  138.2976   68.7511  223.9000 H   0  0  0  0  0  0  0  0  0  0  0  0
  139.9672   68.8752  223.2874 H   0  0  0  0  0  0  0  0  0  0  0  0
  138.9579   67.4679  225.8521 H   0  0  0  0  0  0  0  0  0  0  0  0
  139.7755   67.5499  228.1913 H   0  0  0  0  0  0  0  0  0  0  0  0
  141.0009   69.5406  229.0083 H   0  0  0  0  0  0  0  0  0  0  0  0
  141.4146   71.4613  227.4916 H   0  0  0  0  0  0  0  0  0  0  0  0
  140.2866   72.6042  225.4635 H   0  0  0  0  0  0  0  0  0  0  0  0
  141.7809   71.7806  224.8427 H   0  0  0  0  0  0  0  0  0  0  0  0
  144.3591   72.4467  218.6769 H   0  0  0  0  0  0  0  0  0  0  0  0
  144.4860   72.3691  220.4916 H   0  0  0  0  0  0  0  0  0  0  0  0
  146.0316   70.8888  219.1342 H   0  0  0  0  0  0  0  0  0  0  0  0
  145.0551   70.1455  220.4800 H   0  0  0  0  0  0  0  0  0  0  0  0
  1  2  1  0
  2  3  1  0
  3  4  1  0
  4  5  1  0
  5  6  1  0
  6  7  1  0
  7  8  2  0
  8  9  1  0
  9 10  1  0
 10 11  1  0
 11 12  1  0
 12 13  1  0
 13 14  1  0
 14 15  2  0
 15 16  1  0
 16 17  2  0
 17 18  1  0
 18 19  2  0
 13 20  1  0
 20 21  1  0
  9 22  2  0
 22 23  1  0
 23 24  1  0
 24 25  1  0
 25 26  1  0
 26 27  1  0
 27 28  2  0
 28 29  1  0
 29 30  2  0
 30 31  1  0
 31 32  2  0
 32 33  1  0
 23 34  2  0
  6 35  1  0
 35 36  1  0
 36  3  1  0
 34  7  1  0
 21 10  1  0
 33 24  1  0
 19 14  1  0
 32 27  1  0
  1 37  1  0
  1 38  1  0
  2 39  1  0
  2 40  1  0
  3 41  1  0
  4 42  1  0
  4 43  1  0
  5 44  1  0
  5 45  1  0
 11 46  1  0
 11 47  1  0
 12 48  1  0
 12 49  1  0
 15 50  1  0
 16 51  1  0
 17 52  1  0
 18 53  1  0
 19 54  1  0
 20 55  1  0
 20 56  1  0
 21 57  1  0
 21 58  1  0
 25 59  1  0
 25 60  1  0
 26 61  1  0
 26 62  1  0
 28 63  1  0
 29 64  1  0
 30 65  1  0
 31 66  1  0
 33 67  1  0
 33 68  1  0
 35 69  1  0
 35 70  1  0
 36 71  1  0
 36 72  1  0
M  END
>  <smiles>  (20) 
NCC1CCN(c2nc(N3CCN(c4ccccc4)CC3)nc(N3CCc4ccccc4C3)n2)CC1

>  <score_type>  (20) 
oracle

>  <origin>  (20) 
autodockgpu

>  <m_score__min__energy>  (20) 
-10.050000000000001

>  <m_primary>  (20) 
energy

>  <rmsd>  (20) 
8.95021007907178

>  <m_score__min__rmsd>  (20) 
8.95021007907178

>  <meeko>  (20) 
{"free_energy": -9.25, "intermolecular_energy": -11.04, "internal_energy": -1.2, "cluster_size": 26, "cluster_id": 1, "rank_in_cluster": 20}

>  <energy>  (20) 
-9.25

>  <cluster_rmsd>  (20) 
0.53

>  <cluster>  (20) 
1

$$$$

     RDKit          3D

 72 77  0  0  0  0  0  0  0  0999 V2000
  145.8170   68.1180  220.1870 N   0  0  0  0  0  0  0  0  0  0  0  0
  145.2690   68.0220  218.8460 C   0  0  0  0  0  0  0  0  0  0  0  0
  144.3310   69.1900  218.6210 C   0  0  0  0  0  0  0  0  0  0  0  0
  142.9650   68.8400  219.1710 C   0  0  0  0  0  0  0  0  0  0  0  0
  142.0270   70.0010  219.1310 C   0  0  0  0  0  0  0  0  0  0  0  0
  142.6320   71.1750  219.7060 N   0  0  0  0  0  0  0  0  0  0  0  0
  141.8850   71.9660  220.6310 C   0  0  0  0  0  0  0  0  0  0  0  0
  141.7170   73.2940  220.3930 N   0  0  0  0  0  0  0  0  0  0  0  0
  141.0130   74.0350  221.2660 C   0  0  0  0  0  0  0  0  0  0  0  0
  140.7840   75.4300  221.1030 N   0  0  0  0  0  0  0  0  0  0  0  0
  141.2380   76.1640  219.9400 C   0  0  0  0  0  0  0  0  0  0  0  0
  142.1810   77.2640  220.4540 C   0  0  0  0  0  0  0  0  0  0  0  0
  141.4950   78.0080  221.5030 N   0  0  0  0  0  0  0  0  0  0  0  0
  141.2510   79.4000  221.4470 C   0  0  0  0  0  0  0  0  0  0  0  0
  141.4950   80.2320  222.5460 C   0  0  0  0  0  0  0  0  0  0  0  0
  141.2690   81.5980  222.4900 C   0  0  0  0  0  0  0  0  0  0  0  0
  140.7930   82.2030  221.3570 C   0  0  0  0  0  0  0  0  0  0  0  0
  140.5460   81.4050  220.2670 C   0  0  0  0  0  0  0  0  0  0  0  0
  140.7740   80.0310  220.3200 C   0  0  0  0  0  0  0  0  0  0  0  0
  141.0780   77.1930  222.6500 C   0  0  0  0  0  0  0  0  0  0  0  0
  140.0610   76.2010  222.1280 C   0  0  0  0  0  0  0  0  0  0  0  0
  140.4940   73.4480  222.3500 N   0  0  0  0  0  0  0  0  0  0  0  0
  140.6460   72.1320  222.6080 C   0  0  0  0  0  0  0  0  0  0  0  0
  140.0890   71.5090  223.7670 N   0  0  0  0  0  0  0  0  0  0  0  0
  138.9290   70.6810  223.6560 C   0  0  0  0  0  0  0  0  0  0  0  0
  139.2080   69.3000  224.1940 C   0  0  0  0  0  0  0  0  0  0  0  0
  139.7230   69.4550  225.5930 C   0  0  0  0  0  0  0  0  0  0  0  0
  139.5050   68.4510  226.5200 C   0  0  0  0  0  0  0  0  0  0  0  0
  139.9730   68.5750  227.8160 C   0  0  0  0  0  0  0  0  0  0  0  0
  140.6640   69.7070  228.1930 C   0  0  0  0  0  0  0  0  0  0  0  0
  140.8930   70.7200  227.2840 C   0  0  0  0  0  0  0  0  0  0  0  0
  140.4200   70.5880  225.9900 C   0  0  0  0  0  0  0  0  0  0  0  0
  140.6990   71.7120  225.0610 C   0  0  0  0  0  0  0  0  0  0  0  0
  141.3510   71.4110  221.7270 N   0  0  0  0  0  0  0  0  0  0  0  0
  143.9810   71.5570  219.3520 C   0  0  0  0  0  0  0  0  0  0  0  0
  144.9180   70.3960  219.3180 C   0  0  0  0  0  0  0  0  0  0  0  0
  146.4810   67.3600  220.4150 H   0  0  0  0  0  0  0  0  0  0  0  0
  145.0070   68.1740  220.8540 H   0  0  0  0  0  0  0  0  0  0  0  0
  146.0851   68.0552  218.1092 H   0  0  0  0  0  0  0  0  0  0  0  0
  144.7225   67.0743  218.7309 H   0  0  0  0  0  0  0  0  0  0  0  0
  144.2154   69.4149  217.5505 H   0  0  0  0  0  0  0  0  0  0  0  0
  142.5409   68.0210  218.5716 H   0  0  0  0  0  0  0  0  0  0  0  0
  143.0902   68.5428  220.2227 H   0  0  0  0  0  0  0  0  0  0  0  0
  141.7587   70.2105  218.0850 H   0  0  0  0  0  0  0  0  0  0  0  0
  141.1307   69.7470  219.7160 H   0  0  0  0  0  0  0  0  0  0  0  0
  141.7760   75.4930  219.2542 H   0  0  0  0  0  0  0  0  0  0  0  0
  140.3901   76.5952  219.3877 H   0  0  0  0  0  0  0  0  0  0  0  0
  143.0962   76.8084  220.8600 H   0  0  0  0  0  0  0  0  0  0  0  0
  142.4560   77.9398  219.6308 H   0  0  0  0  0  0  0  0  0  0  0  0
  141.8761   79.7899  223.4784 H   0  0  0  0  0  0  0  0  0  0  0  0
  141.4772   82.2124  223.3784 H   0  0  0  0  0  0  0  0  0  0  0  0
  140.6152   83.2880  221.3215 H   0  0  0  0  0  0  0  0  0  0  0  0
  140.1631   81.8562  219.3397 H   0  0  0  0  0  0  0  0  0  0  0  0
  140.5644   79.4263  219.4253 H   0  0  0  0  0  0  0  0  0  0  0  0
  141.9435   76.6622  223.0732 H   0  0  0  0  0  0  0  0  0  0  0  0
  140.6494   77.8188  223.4467 H   0  0  0  0  0  0  0  0  0  0  0  0
  139.7126   75.5410  222.9361 H   0  0  0  0  0  0  0  0  0  0  0  0
  139.1662   76.6961  221.7227 H   0  0  0  0  0  0  0  0  0  0  0  0
  138.1063   71.1328  224.2296 H   0  0  0  0  0  0  0  0  0  0  0  0
  138.6529   70.5985  222.5944 H   0  0  0  0  0  0  0  0  0  0  0  0
  138.2828   68.7051  224.1985 H   0  0  0  0  0  0  0  0  0  0  0  0
  139.9471   68.7821  223.5651 H   0  0  0  0  0  0  0  0  0  0  0  0
  138.9545   67.5459  226.2237 H   0  0  0  0  0  0  0  0  0  0  0  0
  139.7940   67.7711  228.5451 H   0  0  0  0  0  0  0  0  0  0  0  0
  141.0349   69.8033  229.2241 H   0  0  0  0  0  0  0  0  0  0  0  0
  141.4454   71.6224  227.5847 H   0  0  0  0  0  0  0  0  0  0  0  0
  140.3035   72.6406  225.4983 H   0  0  0  0  0  0  0  0  0  0  0  0
  141.7880   71.7719  224.9176 H   0  0  0  0  0  0  0  0  0  0  0  0
  143.9645   72.0252  218.3568 H   0  0  0  0  0  0  0  0  0  0  0  0
  144.3424   72.2533  220.1231 H   0  0  0  0  0  0  0  0  0  0  0  0
  145.8328   70.6981  218.7871 H   0  0  0  0  0  0  0  0  0  0  0  0
  145.1266   70.1081  220.3589 H   0  0  0  0  0  0  0  0  0  0  0  0
  1  2  1  0
  2  3  1  0
  3  4  1  0
  4  5  1  0
  5  6  1  0
  6  7  1  0
  7  8  2  0
  8  9  1  0
  9 10  1  0
 10 11  1  0
 11 12  1  0
 12 13  1  0
 13 14  1  0
 14 15  2  0
 15 16  1  0
 16 17  2  0
 17 18  1  0
 18 19  2  0
 13 20  1  0
 20 21  1  0
  9 22  2  0
 22 23  1  0
 23 24  1  0
 24 25  1  0
 25 26  1  0
 26 27  1  0
 27 28  2  0
 28 29  1  0
 29 30  2  0
 30 31  1  0
 31 32  2  0
 32 33  1  0
 23 34  2  0
  6 35  1  0
 35 36  1  0
 36  3  1  0
 34  7  1  0
 21 10  1  0
 33 24  1  0
 19 14  1  0
 32 27  1  0
  1 37  1  0
  1 38  1  0
  2 39  1  0
  2 40  1  0
  3 41  1  0
  4 42  1  0
  4 43  1  0
  5 44  1  0
  5 45  1  0
 11 46  1  0
 11 47  1  0
 12 48  1  0
 12 49  1  0
 15 50  1  0
 16 51  1  0
 17 52  1  0
 18 53  1  0
 19 54  1  0
 20 55  1  0
 20 56  1  0
 21 57  1  0
 21 58  1  0
 25 59  1  0
 25 60  1  0
 26 61  1  0
 26 62  1  0
 28 63  1  0
 29 64  1  0
 30 65  1  0
 31 66  1  0
 33 67  1  0
 33 68  1  0
 35 69  1  0
 35 70  1  0
 36 71  1  0
 36 72  1  0
M  END
>  <smiles>  (21) 
NCC1CCN(c2nc(N3CCN(c4ccccc4)CC3)nc(N3CCc4ccccc4C3)n2)CC1

>  <score_type>  (21) 
oracle

>  <origin>  (21) 
autodockgpu

>  <m_score__min__energy>  (21) 
-10.050000000000001

>  <m_primary>  (21) 
energy

>  <rmsd>  (21) 
8.983459151474182

>  <m_score__min__rmsd>  (21) 
8.983459151474182

>  <meeko>  (21) 
{"free_energy": -9.94, "intermolecular_energy": -11.73, "internal_energy": -1.22, "cluster_size": 26, "cluster_id": 1, "rank_in_cluster": 9}

>  <energy>  (21) 
-9.2

>  <cluster_rmsd>  (21) 
1.17

>  <cluster>  (21) 
1

$$$$

     RDKit          3D

 72 77  0  0  0  0  0  0  0  0999 V2000
  146.2980   73.7410  217.3510 N   0  0  0  0  0  0  0  0  0  0  0  0
  145.5890   72.5130  217.0390 C   0  0  0  0  0  0  0  0  0  0  0  0
  144.9860   71.9640  218.3150 C   0  0  0  0  0  0  0  0  0  0  0  0
  145.0980   73.0080  219.4050 C   0  0  0  0  0  0  0  0  0  0  0  0
  144.3820   72.6010  220.6500 C   0  0  0  0  0  0  0  0  0  0  0  0
  143.0390   72.1690  220.3580 N   0  0  0  0  0  0  0  0  0  0  0  0
  141.9600   72.6460  221.1620 C   0  0  0  0  0  0  0  0  0  0  0  0
  141.5000   73.9120  220.9810 N   0  0  0  0  0  0  0  0  0  0  0  0
  140.4830   74.3580  221.7400 C   0  0  0  0  0  0  0  0  0  0  0  0
  139.9330   75.6650  221.6240 N   0  0  0  0  0  0  0  0  0  0  0  0
  140.7580   76.8510  221.5290 C   0  0  0  0  0  0  0  0  0  0  0  0
  140.3850   77.7440  222.7230 C   0  0  0  0  0  0  0  0  0  0  0  0
  138.9370   77.9200  222.7350 N   0  0  0  0  0  0  0  0  0  0  0  0
  138.2990   79.1800  222.6590 C   0  0  0  0  0  0  0  0  0  0  0  0
  138.6660   80.2390  223.4980 C   0  0  0  0  0  0  0  0  0  0  0  0
  138.0510   81.4780  223.4180 C   0  0  0  0  0  0  0  0  0  0  0  0
  137.0520   81.7300  222.5150 C   0  0  0  0  0  0  0  0  0  0  0  0
  136.6760   80.7040  221.6820 C   0  0  0  0  0  0  0  0  0  0  0  0
  137.2940   79.4570  221.7600 C   0  0  0  0  0  0  0  0  0  0  0  0
  138.1760   76.6710  222.8450 C   0  0  0  0  0  0  0  0  0  0  0  0
  138.4760   75.8710  221.5950 C   0  0  0  0  0  0  0  0  0  0  0  0
  139.9470   73.5430  222.6570 N   0  0  0  0  0  0  0  0  0  0  0  0
  140.3860   72.2820  222.8550 C   0  0  0  0  0  0  0  0  0  0  0  0
  139.8120   71.4150  223.8350 N   0  0  0  0  0  0  0  0  0  0  0  0
  138.7370   70.5390  223.4840 C   0  0  0  0  0  0  0  0  0  0  0  0
  139.1000   69.1070  223.7860 C   0  0  0  0  0  0  0  0  0  0  0  0
  139.5080   69.0380  225.2260 C   0  0  0  0  0  0  0  0  0  0  0  0
  139.3180   67.8650  225.9380 C   0  0  0  0  0  0  0  0  0  0  0  0
  139.6880   67.7810  227.2680 C   0  0  0  0  0  0  0  0  0  0  0  0
  140.2510   68.8720  227.8960 C   0  0  0  0  0  0  0  0  0  0  0  0
  140.4490   70.0490  227.2060 C   0  0  0  0  0  0  0  0  0  0  0  0
  140.0760   70.1260  225.8750 C   0  0  0  0  0  0  0  0  0  0  0  0
  140.3160   71.4190  225.1880 C   0  0  0  0  0  0  0  0  0  0  0  0
  141.4000   71.8580  222.0900 N   0  0  0  0  0  0  0  0  0  0  0  0
  142.7800   71.2600  219.2640 C   0  0  0  0  0  0  0  0  0  0  0  0
  143.5430   71.6110  218.0310 C   0  0  0  0  0  0  0  0  0  0  0  0
  146.7260   73.7410  218.2920 H   0  0  0  0  0  0  0  0  0  0  0  0
  145.6290   74.5370  217.2010 H   0  0  0  0  0  0  0  0  0  0  0  0
  144.7905   72.7210  216.3116 H   0  0  0  0  0  0  0  0  0  0  0  0
  146.2838   71.7783  216.6060 H   0  0  0  0  0  0  0  0  0  0  0  0
  145.5163   71.0627  218.6564 H   0  0  0  0  0  0  0  0  0  0  0  0
  146.1614   73.1608  219.6415 H   0  0  0  0  0  0  0  0  0  0  0  0
  144.6336   73.9341  219.0352 H   0  0  0  0  0  0  0  0  0  0  0  0
  144.9300   71.7743  221.1257 H   0  0  0  0  0  0  0  0  0  0  0  0
  144.3312   73.4691  221.3236 H   0  0  0  0  0  0  0  0  0  0  0  0
  141.8223   76.5775  221.5778 H   0  0  0  0  0  0  0  0  0  0  0  0
  140.5913   77.3741  220.5758 H   0  0  0  0  0  0  0  0  0  0  0  0
  140.7084   77.2657  223.6593 H   0  0  0  0  0  0  0  0  0  0  0  0
  140.8826   78.7209  222.6329 H   0  0  0  0  0  0  0  0  0  0  0  0
  139.4632   80.0834  224.2398 H   0  0  0  0  0  0  0  0  0  0  0  0
  138.3734   82.2806  224.0976 H   0  0  0  0  0  0  0  0  0  0  0  0
  136.5690   82.7167  222.4589 H   0  0  0  0  0  0  0  0  0  0  0  0
  135.8770   80.8688  220.9441 H   0  0  0  0  0  0  0  0  0  0  0  0
  136.9651   78.6616  221.0750 H   0  0  0  0  0  0  0  0  0  0  0  0
  138.4911   76.1119  223.7384 H   0  0  0  0  0  0  0  0  0  0  0  0
  137.0983   76.8698  222.9400 H   0  0  0  0  0  0  0  0  0  0  0  0
  137.9474   74.9066  221.6155 H   0  0  0  0  0  0  0  0  0  0  0  0
  138.1468   76.3875  220.6813 H   0  0  0  0  0  0  0  0  0  0  0  0
  137.8424   70.8148  224.0616 H   0  0  0  0  0  0  0  0  0  0  0  0
  138.5383   70.6351  222.4064 H   0  0  0  0  0  0  0  0  0  0  0  0
  138.2318   68.4548  223.6103 H   0  0  0  0  0  0  0  0  0  0  0  0
  139.9205   68.7706  223.1351 H   0  0  0  0  0  0  0  0  0  0  0  0
  138.8688   66.9925  225.4411 H   0  0  0  0  0  0  0  0  0  0  0  0
  139.5333   66.8448  227.8244 H   0  0  0  0  0  0  0  0  0  0  0  0
  140.5439   68.8027  228.9540 H   0  0  0  0  0  0  0  0  0  0  0  0
  140.8989   70.9183  227.7080 H   0  0  0  0  0  0  0  0  0  0  0  0
  139.8137   72.2191  225.7516 H   0  0  0  0  0  0  0  0  0  0  0  0
  141.4027   71.5840  225.1450 H   0  0  0  0  0  0  0  0  0  0  0  0
  143.0635   70.2440  219.5760 H   0  0  0  0  0  0  0  0  0  0  0  0
  141.7090   71.3274  219.0225 H   0  0  0  0  0  0  0  0  0  0  0  0
  143.5200   70.7502  217.3465 H   0  0  0  0  0  0  0  0  0  0  0  0
  143.0663   72.4978  217.5879 H   0  0  0  0  0  0  0  0  0  0  0  0
  1  2  1  0
  2  3  1  0
  3  4  1  0
  4  5  1  0
  5  6  1  0
  6  7  1  0
  7  8  2  0
  8  9  1  0
  9 10  1  0
 10 11  1  0
 11 12  1  0
 12 13  1  0
 13 14  1  0
 14 15  2  0
 15 16  1  0
 16 17  2  0
 17 18  1  0
 18 19  2  0
 13 20  1  0
 20 21  1  0
  9 22  2  0
 22 23  1  0
 23 24  1  0
 24 25  1  0
 25 26  1  0
 26 27  1  0
 27 28  2  0
 28 29  1  0
 29 30  2  0
 30 31  1  0
 31 32  2  0
 32 33  1  0
 23 34  2  0
  6 35  1  0
 35 36  1  0
 36  3  1  0
 34  7  1  0
 21 10  1  0
 33 24  1  0
 19 14  1  0
 32 27  1  0
  1 37  1  0
  1 38  1  0
  2 39  1  0
  2 40  1  0
  3 41  1  0
  4 42  1  0
  4 43  1  0
  5 44  1  0
  5 45  1  0
 11 46  1  0
 11 47  1  0
 12 48  1  0
 12 49  1  0
 15 50  1  0
 16 51  1  0
 17 52  1  0
 18 53  1  0
 19 54  1  0
 20 55  1  0
 20 56  1  0
 21 57  1  0
 21 58  1  0
 25 59  1  0
 25 60  1  0
 26 61  1  0
 26 62  1  0
 28 63  1  0
 29 64  1  0
 30 65  1  0
 31 66  1  0
 33 67  1  0
 33 68  1  0
 35 69  1  0
 35 70  1  0
 36 71  1  0
 36 72  1  0
M  END
>  <smiles>  (22) 
NCC1CCN(c2nc(N3CCN(c4ccccc4)CC3)nc(N3CCc4ccccc4C3)n2)CC1

>  <score_type>  (22) 
oracle

>  <origin>  (22) 
autodockgpu

>  <m_score__min__energy>  (22) 
-10.050000000000001

>  <m_primary>  (22) 
energy

>  <rmsd>  (22) 
8.60957909962574

>  <m_score__min__rmsd>  (22) 
8.60957909962574

>  <meeko>  (22) 
{"free_energy": -9.15, "intermolecular_energy": -10.94, "internal_energy": -1.09, "cluster_size": 5, "cluster_id": 3, "rank_in_cluster": 2}

>  <energy>  (22) 
-9.11

>  <cluster_rmsd>  (22) 
1.11

>  <cluster>  (22) 
1

$$$$

     RDKit          3D

 72 77  0  0  0  0  0  0  0  0999 V2000
  145.9620   68.1410  220.0800 N   0  0  0  0  0  0  0  0  0  0  0  0
  145.1780   67.9020  218.8810 C   0  0  0  0  0  0  0  0  0  0  0  0
  144.2600   69.0850  218.6580 C   0  0  0  0  0  0  0  0  0  0  0  0
  142.8870   68.7560  219.2010 C   0  0  0  0  0  0  0  0  0  0  0  0
  141.9680   69.9320  219.1630 C   0  0  0  0  0  0  0  0  0  0  0  0
  142.5900   71.0940  219.7460 N   0  0  0  0  0  0  0  0  0  0  0  0
  141.8530   71.8920  220.6720 C   0  0  0  0  0  0  0  0  0  0  0  0
  141.6810   73.2180  220.4230 N   0  0  0  0  0  0  0  0  0  0  0  0
  140.9860   73.9670  221.2970 C   0  0  0  0  0  0  0  0  0  0  0  0
  140.7530   75.3600  221.1230 N   0  0  0  0  0  0  0  0  0  0  0  0
  141.1860   76.0810  219.9450 C   0  0  0  0  0  0  0  0  0  0  0  0
  142.1370   77.1870  220.4290 C   0  0  0  0  0  0  0  0  0  0  0  0
  141.4710   77.9420  221.4830 N   0  0  0  0  0  0  0  0  0  0  0  0
  141.2260   79.3340  221.4160 C   0  0  0  0  0  0  0  0  0  0  0  0
  140.9850   80.0910  222.5680 C   0  0  0  0  0  0  0  0  0  0  0  0
  140.7560   81.4570  222.5070 C   0  0  0  0  0  0  0  0  0  0  0  0
  140.7520   82.1340  221.3160 C   0  0  0  0  0  0  0  0  0  0  0  0
  140.9850   81.4090  220.1730 C   0  0  0  0  0  0  0  0  0  0  0  0
  141.2170   80.0360  220.2320 C   0  0  0  0  0  0  0  0  0  0  0  0
  141.0760   77.1400  222.6460 C   0  0  0  0  0  0  0  0  0  0  0  0
  140.0490   76.1420  222.1530 C   0  0  0  0  0  0  0  0  0  0  0  0
  140.4800   73.3890  222.3930 N   0  0  0  0  0  0  0  0  0  0  0  0
  140.6370   72.0760  222.6620 C   0  0  0  0  0  0  0  0  0  0  0  0
  140.0940   71.4630  223.8330 N   0  0  0  0  0  0  0  0  0  0  0  0
  138.9390   70.6260  223.7420 C   0  0  0  0  0  0  0  0  0  0  0  0
  139.2320   69.2550  224.2950 C   0  0  0  0  0  0  0  0  0  0  0  0
  139.7580   69.4300  225.6870 C   0  0  0  0  0  0  0  0  0  0  0  0
  139.5550   68.4360  226.6280 C   0  0  0  0  0  0  0  0  0  0  0  0
  140.0320   68.5790  227.9190 C   0  0  0  0  0  0  0  0  0  0  0  0
  140.7180   69.7200  228.2750 C   0  0  0  0  0  0  0  0  0  0  0  0
  140.9330   70.7230  227.3530 C   0  0  0  0  0  0  0  0  0  0  0  0
  140.4500   70.5730  226.0640 C   0  0  0  0  0  0  0  0  0  0  0  0
  140.7130   71.6870  225.1190 C   0  0  0  0  0  0  0  0  0  0  0  0
  141.3320   71.3480  221.7800 N   0  0  0  0  0  0  0  0  0  0  0  0
  143.9470   71.4550  219.3990 C   0  0  0  0  0  0  0  0  0  0  0  0
  144.8640   70.2790  219.3630 C   0  0  0  0  0  0  0  0  0  0  0  0
  146.7080   68.8440  219.9490 H   0  0  0  0  0  0  0  0  0  0  0  0
  146.3240   67.2110  220.4090 H   0  0  0  0  0  0  0  0  0  0  0  0
  145.8489   67.7859  218.0170 H   0  0  0  0  0  0  0  0  0  0  0  0
  144.5842   66.9835  218.9981 H   0  0  0  0  0  0  0  0  0  0  0  0
  144.1521   69.3155  217.5879 H   0  0  0  0  0  0  0  0  0  0  0  0
  142.4517   67.9467  218.5964 H   0  0  0  0  0  0  0  0  0  0  0  0
  143.0036   68.4528  220.2519 H   0  0  0  0  0  0  0  0  0  0  0  0
  141.7070   70.1506  218.1170 H   0  0  0  0  0  0  0  0  0  0  0  0
  141.0656   69.6898  219.7435 H   0  0  0  0  0  0  0  0  0  0  0  0
  141.7123   75.4026  219.2574 H   0  0  0  0  0  0  0  0  0  0  0  0
  140.3280   76.5059  219.4035 H   0  0  0  0  0  0  0  0  0  0  0  0
  143.0603   76.7365  220.8222 H   0  0  0  0  0  0  0  0  0  0  0  0
  142.3950   77.8542  219.5933 H   0  0  0  0  0  0  0  0  0  0  0  0
  140.9771   79.5894  223.5470 H   0  0  0  0  0  0  0  0  0  0  0  0
  140.5728   82.0116  223.4391 H   0  0  0  0  0  0  0  0  0  0  0  0
  140.5690   83.2180  221.2766 H   0  0  0  0  0  0  0  0  0  0  0  0
  140.9886   81.9187  219.1982 H   0  0  0  0  0  0  0  0  0  0  0  0
  141.4004   79.4911  219.2942 H   0  0  0  0  0  0  0  0  0  0  0  0
  141.9493   76.6137  223.0587 H   0  0  0  0  0  0  0  0  0  0  0  0
  140.6625   77.7742  223.4440 H   0  0  0  0  0  0  0  0  0  0  0  0
  139.7155   75.4906  222.9743 H   0  0  0  0  0  0  0  0  0  0  0  0
  139.1469   76.6330  221.7590 H   0  0  0  0  0  0  0  0  0  0  0  0
  138.1178   71.0795  224.3165 H   0  0  0  0  0  0  0  0  0  0  0  0
  138.6547   70.5281  222.6839 H   0  0  0  0  0  0  0  0  0  0  0  0
  138.3109   68.6541  224.3150 H   0  0  0  0  0  0  0  0  0  0  0  0
  139.9695   68.7347  223.6662 H   0  0  0  0  0  0  0  0  0  0  0  0
  139.0091   67.5233  226.3470 H   0  0  0  0  0  0  0  0  0  0  0  0
  139.8639   67.7834  228.6598 H   0  0  0  0  0  0  0  0  0  0  0  0
  141.0968   69.8316  229.3017 H   0  0  0  0  0  0  0  0  0  0  0  0
  141.4822   71.6323  227.6386 H   0  0  0  0  0  0  0  0  0  0  0  0
  140.3142   72.6182  225.5478 H   0  0  0  0  0  0  0  0  0  0  0  0
  141.8003   71.7533  224.9659 H   0  0  0  0  0  0  0  0  0  0  0  0
  143.9424   71.9282  218.4060 H   0  0  0  0  0  0  0  0  0  0  0  0
  144.3171   72.1414  220.1748 H   0  0  0  0  0  0  0  0  0  0  0  0
  145.7858   70.5683  218.8370 H   0  0  0  0  0  0  0  0  0  0  0  0
  145.0632   69.9829  220.4035 H   0  0  0  0  0  0  0  0  0  0  0  0
  1  2  1  0
  2  3  1  0
  3  4  1  0
  4  5  1  0
  5  6  1  0
  6  7  1  0
  7  8  2  0
  8  9  1  0
  9 10  1  0
 10 11  1  0
 11 12  1  0
 12 13  1  0
 13 14  1  0
 14 15  2  0
 15 16  1  0
 16 17  2  0
 17 18  1  0
 18 19  2  0
 13 20  1  0
 20 21  1  0
  9 22  2  0
 22 23  1  0
 23 24  1  0
 24 25  1  0
 25 26  1  0
 26 27  1  0
 27 28  2  0
 28 29  1  0
 29 30  2  0
 30 31  1  0
 31 32  2  0
 32 33  1  0
 23 34  2  0
  6 35  1  0
 35 36  1  0
 36  3  1  0
 34  7  1  0
 21 10  1  0
 33 24  1  0
 19 14  1  0
 32 27  1  0
  1 37  1  0
  1 38  1  0
  2 39  1  0
  2 40  1  0
  3 41  1  0
  4 42  1  0
  4 43  1  0
  5 44  1  0
  5 45  1  0
 11 46  1  0
 11 47  1  0
 12 48  1  0
 12 49  1  0
 15 50  1  0
 16 51  1  0
 17 52  1  0
 18 53  1  0
 19 54  1  0
 20 55  1  0
 20 56  1  0
 21 57  1  0
 21 58  1  0
 25 59  1  0
 25 60  1  0
 26 61  1  0
 26 62  1  0
 28 63  1  0
 29 64  1  0
 30 65  1  0
 31 66  1  0
 33 67  1  0
 33 68  1  0
 35 69  1  0
 35 70  1  0
 36 71  1  0
 36 72  1  0
M  END
>  <smiles>  (23) 
NCC1CCN(c2nc(N3CCN(c4ccccc4)CC3)nc(N3CCc4ccccc4C3)n2)CC1

>  <score_type>  (23) 
oracle

>  <origin>  (23) 
autodockgpu

>  <m_score__min__energy>  (23) 
-10.050000000000001

>  <m_primary>  (23) 
energy

>  <rmsd>  (23) 
8.934812682197482

>  <m_score__min__rmsd>  (23) 
8.934812682197482

>  <meeko>  (23) 
{"free_energy": -9.89, "intermolecular_energy": -11.68, "internal_energy": -1.2, "cluster_size": 26, "cluster_id": 1, "rank_in_cluster": 11}

>  <energy>  (23) 
-9.1

>  <cluster_rmsd>  (23) 
0.96

>  <cluster>  (23) 
1

$$$$

     RDKit          3D

 72 77  0  0  0  0  0  0  0  0999 V2000
  146.4040   73.3970  217.9850 N   0  0  0  0  0  0  0  0  0  0  0  0
  145.5890   72.5450  217.1380 C   0  0  0  0  0  0  0  0  0  0  0  0
  144.5500   71.8570  217.9990 C   0  0  0  0  0  0  0  0  0  0  0  0
  144.8670   72.1130  219.4560 C   0  0  0  0  0  0  0  0  0  0  0  0
  143.7970   71.6020  220.3640 C   0  0  0  0  0  0  0  0  0  0  0  0
  142.4970   72.0520  219.9370 N   0  0  0  0  0  0  0  0  0  0  0  0
  141.5860   72.5790  220.9020 C   0  0  0  0  0  0  0  0  0  0  0  0
  141.1400   73.8570  220.7720 N   0  0  0  0  0  0  0  0  0  0  0  0
  140.2830   74.3500  221.6830 C   0  0  0  0  0  0  0  0  0  0  0  0
  139.7610   75.6730  221.6310 N   0  0  0  0  0  0  0  0  0  0  0  0
  140.6040   76.8370  221.4600 C   0  0  0  0  0  0  0  0  0  0  0  0
  140.3790   77.7290  222.6910 C   0  0  0  0  0  0  0  0  0  0  0  0
  138.9460   77.9440  222.8510 N   0  0  0  0  0  0  0  0  0  0  0  0
  138.3390   79.2220  222.8480 C   0  0  0  0  0  0  0  0  0  0  0  0
  138.5060   80.1140  223.9130 C   0  0  0  0  0  0  0  0  0  0  0  0
  137.9220   81.3710  223.9080 C   0  0  0  0  0  0  0  0  0  0  0  0
  137.1510   81.8030  222.8610 C   0  0  0  0  0  0  0  0  0  0  0  0
  136.9740   80.9420  221.8060 C   0  0  0  0  0  0  0  0  0  0  0  0
  137.5610   79.6780  221.8080 C   0  0  0  0  0  0  0  0  0  0  0  0
  138.1650   76.7150  223.0310 C   0  0  0  0  0  0  0  0  0  0  0  0
  138.3140   75.9190  221.7520 C   0  0  0  0  0  0  0  0  0  0  0  0
  139.8880   73.5700  222.6970 N   0  0  0  0  0  0  0  0  0  0  0  0
  140.3170   72.3000  222.8470 C   0  0  0  0  0  0  0  0  0  0  0  0
  139.8930   71.4710  223.9310 N   0  0  0  0  0  0  0  0  0  0  0  0
  138.7820   70.5850  223.7720 C   0  0  0  0  0  0  0  0  0  0  0  0
  139.1890   69.1640  224.0700 C   0  0  0  0  0  0  0  0  0  0  0  0
  139.8010   69.1460  225.4380 C   0  0  0  0  0  0  0  0  0  0  0  0
  139.7200   68.0010  226.2120 C   0  0  0  0  0  0  0  0  0  0  0  0
  140.2790   67.9650  227.4770 C   0  0  0  0  0  0  0  0  0  0  0  0
  140.9240   69.0770  227.9760 C   0  0  0  0  0  0  0  0  0  0  0  0
  141.0170   70.2280  227.2210 C   0  0  0  0  0  0  0  0  0  0  0  0
  140.4540   70.2560  225.9570 C   0  0  0  0  0  0  0  0  0  0  0  0
  140.5880   71.5230  225.1960 C   0  0  0  0  0  0  0  0  0  0  0  0
  141.1710   71.8270  221.9300 N   0  0  0  0  0  0  0  0  0  0  0  0
  142.1110   71.9710  218.5450 C   0  0  0  0  0  0  0  0  0  0  0  0
  143.1950   72.4120  217.6200 C   0  0  0  0  0  0  0  0  0  0  0  0
  145.8610   73.9020  218.7050 H   0  0  0  0  0  0  0  0  0  0  0  0
  146.9500   74.0370  217.3550 H   0  0  0  0  0  0  0  0  0  0  0  0
  145.0893   73.1547  216.3708 H   0  0  0  0  0  0  0  0  0  0  0  0
  146.2215   71.7944  216.6415 H   0  0  0  0  0  0  0  0  0  0  0  0
  144.5504   70.7685  217.8407 H   0  0  0  0  0  0  0  0  0  0  0  0
  145.8134   71.6113  219.7061 H   0  0  0  0  0  0  0  0  0  0  0  0
  144.9408   73.2011  219.5996 H   0  0  0  0  0  0  0  0  0  0  0  0
  143.8162   70.5022  220.3588 H   0  0  0  0  0  0  0  0  0  0  0  0
  143.9849   71.9868  221.3772 H   0  0  0  0  0  0  0  0  0  0  0  0
  141.6599   76.5348  221.3986 H   0  0  0  0  0  0  0  0  0  0  0  0
  140.3557   77.3729  220.5320 H   0  0  0  0  0  0  0  0  0  0  0  0
  140.7822   77.2338  223.5867 H   0  0  0  0  0  0  0  0  0  0  0  0
  140.8920   78.6928  222.5568 H   0  0  0  0  0  0  0  0  0  0  0  0
  139.1163   79.8099  224.7762 H   0  0  0  0  0  0  0  0  0  0  0  0
  138.0817   82.0392  224.7671 H   0  0  0  0  0  0  0  0  0  0  0  0
  136.6910   82.8022  222.8654 H   0  0  0  0  0  0  0  0  0  0  0  0
  136.3607   81.2541  220.9478 H   0  0  0  0  0  0  0  0  0  0  0  0
  137.3959   79.0181  220.9436 H   0  0  0  0  0  0  0  0  0  0  0  0
  138.5536   76.1395  223.8841 H   0  0  0  0  0  0  0  0  0  0  0  0
  137.1086   76.9420  223.2372 H   0  0  0  0  0  0  0  0  0  0  0  0
  137.7634   74.9691  221.8199 H   0  0  0  0  0  0  0  0  0  0  0  0
  137.9083   76.4528  220.8800 H   0  0  0  0  0  0  0  0  0  0  0  0
  137.9798   70.8836  224.4629 H   0  0  0  0  0  0  0  0  0  0  0  0
  138.4293   70.6419  222.7316 H   0  0  0  0  0  0  0  0  0  0  0  0
  138.3065   68.5079  224.0451 H   0  0  0  0  0  0  0  0  0  0  0  0
  139.9079   68.8024  223.3201 H   0  0  0  0  0  0  0  0  0  0  0  0
  139.2065   67.1118  225.8176 H   0  0  0  0  0  0  0  0  0  0  0  0
  140.2090   67.0504  228.0841 H   0  0  0  0  0  0  0  0  0  0  0  0
  141.3671   69.0462  228.9823 H   0  0  0  0  0  0  0  0  0  0  0  0
  141.5331   71.1139  227.6194 H   0  0  0  0  0  0  0  0  0  0  0  0
  140.1703   72.3441  225.7971 H   0  0  0  0  0  0  0  0  0  0  0  0
  141.6565   71.6840  224.9900 H   0  0  0  0  0  0  0  0  0  0  0  0
  141.8523   70.9276  218.3118 H   0  0  0  0  0  0  0  0  0  0  0  0
  141.2544   72.6453  218.3981 H   0  0  0  0  0  0  0  0  0  0  0  0
  142.9485   72.0736  216.6028 H   0  0  0  0  0  0  0  0  0  0  0  0
  143.2571   73.5085  217.6811 H   0  0  0  0  0  0  0  0  0  0  0  0
  1  2  1  0
  2  3  1  0
  3  4  1  0
  4  5  1  0
  5  6  1  0
  6  7  1  0
  7  8  2  0
  8  9  1  0
  9 10  1  0
 10 11  1  0
 11 12  1  0
 12 13  1  0
 13 14  1  0
 14 15  2  0
 15 16  1  0
 16 17  2  0
 17 18  1  0
 18 19  2  0
 13 20  1  0
 20 21  1  0
  9 22  2  0
 22 23  1  0
 23 24  1  0
 24 25  1  0
 25 26  1  0
 26 27  1  0
 27 28  2  0
 28 29  1  0
 29 30  2  0
 30 31  1  0
 31 32  2  0
 32 33  1  0
 23 34  2  0
  6 35  1  0
 35 36  1  0
 36  3  1  0
 34  7  1  0
 21 10  1  0
 33 24  1  0
 19 14  1  0
 32 27  1  0
  1 37  1  0
  1 38  1  0
  2 39  1  0
  2 40  1  0
  3 41  1  0
  4 42  1  0
  4 43  1  0
  5 44  1  0
  5 45  1  0
 11 46  1  0
 11 47  1  0
 12 48  1  0
 12 49  1  0
 15 50  1  0
 16 51  1  0
 17 52  1  0
 18 53  1  0
 19 54  1  0
 20 55  1  0
 20 56  1  0
 21 57  1  0
 21 58  1  0
 25 59  1  0
 25 60  1  0
 26 61  1  0
 26 62  1  0
 28 63  1  0
 29 64  1  0
 30 65  1  0
 31 66  1  0
 33 67  1  0
 33 68  1  0
 35 69  1  0
 35 70  1  0
 36 71  1  0
 36 72  1  0
M  END
>  <smiles>  (24) 
NCC1CCN(c2nc(N3CCN(c4ccccc4)CC3)nc(N3CCc4ccccc4C3)n2)CC1

>  <score_type>  (24) 
oracle

>  <origin>  (24) 
autodockgpu

>  <m_score__min__energy>  (24) 
-10.050000000000001

>  <m_primary>  (24) 
energy

>  <rmsd>  (24) 
8.636231911032656

>  <m_score__min__rmsd>  (24) 
8.636231911032656

>  <meeko>  (24) 
{"free_energy": -9.13, "intermolecular_energy": -10.92, "internal_energy": -1.14, "cluster_size": 5, "cluster_id": 3, "rank_in_cluster": 3}

>  <energy>  (24) 
-9.05

>  <cluster_rmsd>  (24) 
1.08

>  <cluster>  (24) 
1

$$$$

     RDKit          3D

 72 77  0  0  0  0  0  0  0  0999 V2000
  145.6200   68.1190  220.0240 N   0  0  0  0  0  0  0  0  0  0  0  0
  145.8920   69.1700  219.0600 C   0  0  0  0  0  0  0  0  0  0  0  0
  144.6320   69.9860  218.8640 C   0  0  0  0  0  0  0  0  0  0  0  0
  143.4950   69.3300  219.6170 C   0  0  0  0  0  0  0  0  0  0  0  0
  142.2550   70.1620  219.6030 C   0  0  0  0  0  0  0  0  0  0  0  0
  142.5380   71.5200  219.9920 N   0  0  0  0  0  0  0  0  0  0  0  0
  141.6880   72.1690  220.9380 C   0  0  0  0  0  0  0  0  0  0  0  0
  141.3780   73.4820  220.7670 N   0  0  0  0  0  0  0  0  0  0  0  0
  140.5770   74.0900  221.6590 C   0  0  0  0  0  0  0  0  0  0  0  0
  140.1970   75.4580  221.5660 N   0  0  0  0  0  0  0  0  0  0  0  0
  141.1640   76.5330  221.4910 C   0  0  0  0  0  0  0  0  0  0  0  0
  140.9030   77.4450  222.7000 C   0  0  0  0  0  0  0  0  0  0  0  0
  139.4890   77.8010  222.7140 N   0  0  0  0  0  0  0  0  0  0  0  0
  139.0150   79.1330  222.6590 C   0  0  0  0  0  0  0  0  0  0  0  0
  138.8950   79.8180  221.4450 C   0  0  0  0  0  0  0  0  0  0  0  0
  138.4200   81.1190  221.3870 C   0  0  0  0  0  0  0  0  0  0  0  0
  138.0450   81.8000  222.5150 C   0  0  0  0  0  0  0  0  0  0  0  0
  138.1560   81.1460  223.7180 C   0  0  0  0  0  0  0  0  0  0  0  0
  138.6320   79.8370  223.7790 C   0  0  0  0  0  0  0  0  0  0  0  0
  138.5770   76.6560  222.8020 C   0  0  0  0  0  0  0  0  0  0  0  0
  138.7770   75.8460  221.5390 C   0  0  0  0  0  0  0  0  0  0  0  0
  140.1040   73.3880  222.6960 N   0  0  0  0  0  0  0  0  0  0  0  0
  140.3970   72.0850  222.8870 C   0  0  0  0  0  0  0  0  0  0  0  0
  139.8890   71.3390  223.9940 N   0  0  0  0  0  0  0  0  0  0  0  0
  138.8100   70.4180  223.8120 C   0  0  0  0  0  0  0  0  0  0  0  0
  139.2100   69.0360  224.2650 C   0  0  0  0  0  0  0  0  0  0  0  0
  139.6960   69.1460  225.6780 C   0  0  0  0  0  0  0  0  0  0  0  0
  139.5620   68.0670  226.5360 C   0  0  0  0  0  0  0  0  0  0  0  0
  140.0050   68.1480  227.8440 C   0  0  0  0  0  0  0  0  0  0  0  0
  140.5850   69.3110  228.3030 C   0  0  0  0  0  0  0  0  0  0  0  0
  140.7280   70.3980  227.4650 C   0  0  0  0  0  0  0  0  0  0  0  0
  140.2820   70.3090  226.1580 C   0  0  0  0  0  0  0  0  0  0  0  0
  140.4650   71.5120  225.3070 C   0  0  0  0  0  0  0  0  0  0  0  0
  141.1960   71.4970  221.9870 N   0  0  0  0  0  0  0  0  0  0  0  0
  143.6700   72.2250  219.4320 C   0  0  0  0  0  0  0  0  0  0  0  0
  144.9010   71.3840  219.3730 C   0  0  0  0  0  0  0  0  0  0  0  0
  145.0880   67.3270  219.6280 H   0  0  0  0  0  0  0  0  0  0  0  0
  145.1460   68.5640  220.8490 H   0  0  0  0  0  0  0  0  0  0  0  0
  146.6978   69.8176  219.4358 H   0  0  0  0  0  0  0  0  0  0  0  0
  146.2057   68.7286  218.1025 H   0  0  0  0  0  0  0  0  0  0  0  0
  144.3470   70.0387  217.8029 H   0  0  0  0  0  0  0  0  0  0  0  0
  143.2750   68.3585  219.1504 H   0  0  0  0  0  0  0  0  0  0  0  0
  143.8088   69.2092  220.6643 H   0  0  0  0  0  0  0  0  0  0  0  0
  141.8321   70.1597  218.5875 H   0  0  0  0  0  0  0  0  0  0  0  0
  141.5391   69.7347  220.3205 H   0  0  0  0  0  0  0  0  0  0  0  0
  142.1857   76.1279  221.5350 H   0  0  0  0  0  0  0  0  0  0  0  0
  141.0661   77.0889  220.5469 H   0  0  0  0  0  0  0  0  0  0  0  0
  141.1612   76.9139  223.6281 H   0  0  0  0  0  0  0  0  0  0  0  0
  141.5197   78.3530  222.6274 H   0  0  0  0  0  0  0  0  0  0  0  0
  139.1850   79.3113  220.5127 H   0  0  0  0  0  0  0  0  0  0  0  0
  138.3421   81.6177  220.4096 H   0  0  0  0  0  0  0  0  0  0  0  0
  137.6689   82.8322  222.4595 H   0  0  0  0  0  0  0  0  0  0  0  0
  137.8656   81.6618  224.6451 H   0  0  0  0  0  0  0  0  0  0  0  0
  138.7046   79.3468  224.7611 H   0  0  0  0  0  0  0  0  0  0  0  0
  138.8170   76.0466  223.6858 H   0  0  0  0  0  0  0  0  0  0  0  0
  137.5326   76.9872  222.8997 H   0  0  0  0  0  0  0  0  0  0  0  0
  138.1312   74.9555  221.5427 H   0  0  0  0  0  0  0  0  0  0  0  0
  138.5177   76.4148  220.6339 H   0  0  0  0  0  0  0  0  0  0  0  0
  137.9439   70.7549  224.4005 H   0  0  0  0  0  0  0  0  0  0  0  0
  138.5522   70.3803  222.7433 H   0  0  0  0  0  0  0  0  0  0  0  0
  138.3434   68.3602  224.2179 H   0  0  0  0  0  0  0  0  0  0  0  0
  139.9992   68.6296  223.6153 H   0  0  0  0  0  0  0  0  0  0  0  0
  139.0991   67.1371  226.1740 H   0  0  0  0  0  0  0  0  0  0  0  0
  139.8945   67.2850  228.5171 H   0  0  0  0  0  0  0  0  0  0  0  0
  140.9361   69.3731  229.3436 H   0  0  0  0  0  0  0  0  0  0  0  0
  141.1916   71.3255  227.8321 H   0  0  0  0  0  0  0  0  0  0  0  0
  139.9814   72.3702  225.7966 H   0  0  0  0  0  0  0  0  0  0  0  0
  141.5451   71.6803  225.1845 H   0  0  0  0  0  0  0  0  0  0  0  0
  143.4144   72.5466  218.4116 H   0  0  0  0  0  0  0  0  0  0  0  0
  143.8846   73.0821  220.0873 H   0  0  0  0  0  0  0  0  0  0  0  0
  145.6259   71.8687  218.7025 H   0  0  0  0  0  0  0  0  0  0  0  0
  145.2899   71.2940  220.3980 H   0  0  0  0  0  0  0  0  0  0  0  0
  1  2  1  0
  2  3  1  0
  3  4  1  0
  4  5  1  0
  5  6  1  0
  6  7  1  0
  7  8  2  0
  8  9  1  0
  9 10  1  0
 10 11  1  0
 11 12  1  0
 12 13  1  0
 13 14  1  0
 14 15  2  0
 15 16  1  0
 16 17  2  0
 17 18  1  0
 18 19  2  0
 13 20  1  0
 20 21  1  0
  9 22  2  0
 22 23  1  0
 23 24  1  0
 24 25  1  0
 25 26  1  0
 26 27  1  0
 27 28  2  0
 28 29  1  0
 29 30  2  0
 30 31  1  0
 31 32  2  0
 32 33  1  0
 23 34  2  0
  6 35  1  0
 35 36  1  0
 36  3  1  0
 34  7  1  0
 21 10  1  0
 33 24  1  0
 19 14  1  0
 32 27  1  0
  1 37  1  0
  1 38  1  0
  2 39  1  0
  2 40  1  0
  3 41  1  0
  4 42  1  0
  4 43  1  0
  5 44  1  0
  5 45  1  0
 11 46  1  0
 11 47  1  0
 12 48  1  0
 12 49  1  0
 15 50  1  0
 16 51  1  0
 17 52  1  0
 18 53  1  0
 19 54  1  0
 20 55  1  0
 20 56  1  0
 21 57  1  0
 21 58  1  0
 25 59  1  0
 25 60  1  0
 26 61  1  0
 26 62  1  0
 28 63  1  0
 29 64  1  0
 30 65  1  0
 31 66  1  0
 33 67  1  0
 33 68  1  0
 35 69  1  0
 35 70  1  0
 36 71  1  0
 36 72  1  0
M  END
>  <smiles>  (25) 
NCC1CCN(c2nc(N3CCN(c4ccccc4)CC3)nc(N3CCc4ccccc4C3)n2)CC1

>  <score_type>  (25) 
oracle

>  <origin>  (25) 
autodockgpu

>  <m_score__min__energy>  (25) 
-10.050000000000001

>  <m_primary>  (25) 
energy

>  <rmsd>  (25) 
8.404055376576968

>  <m_score__min__rmsd>  (25) 
8.404055376576968

>  <meeko>  (25) 
{"free_energy": -9.11, "intermolecular_energy": -10.9, "internal_energy": -1.15, "cluster_size": 26, "cluster_id": 1, "rank_in_cluster": 22}

>  <energy>  (25) 
-9.01

>  <cluster_rmsd>  (25) 
1.27

>  <cluster>  (25) 
1

$$$$

     RDKit          3D

 72 77  0  0  0  0  0  0  0  0999 V2000
  142.6380   79.0520  222.7440 N   0  0  0  0  0  0  0  0  0  0  0  0
  141.3600   79.4600  222.1870 C   0  0  0  0  0  0  0  0  0  0  0  0
  140.7000   78.2540  221.5520 C   0  0  0  0  0  0  0  0  0  0  0  0
  141.7470   77.4490  220.8140 C   0  0  0  0  0  0  0  0  0  0  0  0
  141.2040   76.1590  220.2950 C   0  0  0  0  0  0  0  0  0  0  0  0
  140.5000   75.4410  221.3270 N   0  0  0  0  0  0  0  0  0  0  0  0
  140.7430   74.0440  221.4990 C   0  0  0  0  0  0  0  0  0  0  0  0
  141.4320   73.3630  220.5440 N   0  0  0  0  0  0  0  0  0  0  0  0
  141.6590   72.0480  220.7090 C   0  0  0  0  0  0  0  0  0  0  0  0
  142.3690   71.2520  219.7680 N   0  0  0  0  0  0  0  0  0  0  0  0
  141.9130   69.9420  219.3530 C   0  0  0  0  0  0  0  0  0  0  0  0
  143.0270   68.9500  219.7220 C   0  0  0  0  0  0  0  0  0  0  0  0
  144.2840   69.4390  219.1690 N   0  0  0  0  0  0  0  0  0  0  0  0
  145.0760   68.7070  218.2540 C   0  0  0  0  0  0  0  0  0  0  0  0
  145.5100   69.2680  217.0480 C   0  0  0  0  0  0  0  0  0  0  0  0
  146.2970   68.5560  216.1550 C   0  0  0  0  0  0  0  0  0  0  0  0
  146.6880   67.2680  216.4080 C   0  0  0  0  0  0  0  0  0  0  0  0
  146.2720   66.6980  217.5860 C   0  0  0  0  0  0  0  0  0  0  0  0
  145.4820   67.4110  218.4860 C   0  0  0  0  0  0  0  0  0  0  0  0
  144.6800   70.7680  219.6480 C   0  0  0  0  0  0  0  0  0  0  0  0
  143.6210   71.7350  219.1620 C   0  0  0  0  0  0  0  0  0  0  0  0
  141.2010   71.4400  221.8100 N   0  0  0  0  0  0  0  0  0  0  0  0
  140.5150   72.0940  222.7710 C   0  0  0  0  0  0  0  0  0  0  0  0
  140.0290   71.4410  223.9450 N   0  0  0  0  0  0  0  0  0  0  0  0
  138.8750   70.5990  223.8780 C   0  0  0  0  0  0  0  0  0  0  0  0
  139.2000   69.2130  224.3740 C   0  0  0  0  0  0  0  0  0  0  0  0
  139.7860   69.3490  225.7460 C   0  0  0  0  0  0  0  0  0  0  0  0
  139.6300   68.3240  226.6640 C   0  0  0  0  0  0  0  0  0  0  0  0
  140.1640   68.4300  227.9360 C   0  0  0  0  0  0  0  0  0  0  0  0
  140.8590   69.5640  228.2980 C   0  0  0  0  0  0  0  0  0  0  0  0
  141.0270   70.5970  227.3980 C   0  0  0  0  0  0  0  0  0  0  0  0
  140.4880   70.4840  226.1280 C   0  0  0  0  0  0  0  0  0  0  0  0
  140.7030   71.6280  225.2080 C   0  0  0  0  0  0  0  0  0  0  0  0
  140.2990   73.4030  222.5880 N   0  0  0  0  0  0  0  0  0  0  0  0
  139.5540   76.1210  222.1840 C   0  0  0  0  0  0  0  0  0  0  0  0
  140.0530   77.4460  222.6540 C   0  0  0  0  0  0  0  0  0  0  0  0
  142.9560   79.6510  223.5230 H   0  0  0  0  0  0  0  0  0  0  0  0
  143.3250   79.0050  221.9500 H   0  0  0  0  0  0  0  0  0  0  0  0
  140.7169   79.8556  222.9870 H   0  0  0  0  0  0  0  0  0  0  0  0
  141.5138   80.2444  221.4313 H   0  0  0  0  0  0  0  0  0  0  0  0
  139.9297   78.5513  220.8252 H   0  0  0  0  0  0  0  0  0  0  0  0
  142.1186   78.0435  219.9664 H   0  0  0  0  0  0  0  0  0  0  0  0
  142.5546   77.2146  221.5231 H   0  0  0  0  0  0  0  0  0  0  0  0
  140.5116   76.3680  219.4662 H   0  0  0  0  0  0  0  0  0  0  0  0
  142.0446   75.5396  219.9490 H   0  0  0  0  0  0  0  0  0  0  0  0
  140.9828   69.6802  219.8785 H   0  0  0  0  0  0  0  0  0  0  0  0
  141.7042   69.9192  218.2732 H   0  0  0  0  0  0  0  0  0  0  0  0
  143.1080   68.8733  220.8163 H   0  0  0  0  0  0  0  0  0  0  0  0
  142.7967   67.9554  219.3124 H   0  0  0  0  0  0  0  0  0  0  0  0
  145.2197   70.3000  216.8018 H   0  0  0  0  0  0  0  0  0  0  0  0
  146.6154   69.0384  215.2191 H   0  0  0  0  0  0  0  0  0  0  0  0
  147.3122   66.7108  215.6940 H   0  0  0  0  0  0  0  0  0  0  0  0
  146.5662   65.6648  217.8225 H   0  0  0  0  0  0  0  0  0  0  0  0
  145.1700   66.9192  219.4192 H   0  0  0  0  0  0  0  0  0  0  0  0
  144.7270   70.7771  220.7470 H   0  0  0  0  0  0  0  0  0  0  0  0
  145.6750   71.0460  219.2704 H   0  0  0  0  0  0  0  0  0  0  0  0
  143.8457   72.7579  219.4985 H   0  0  0  0  0  0  0  0  0  0  0  0
  143.5646   71.7739  218.0641 H   0  0  0  0  0  0  0  0  0  0  0  0
  138.0774   71.0285  224.5020 H   0  0  0  0  0  0  0  0  0  0  0  0
  138.5448   70.5326  222.8309 H   0  0  0  0  0  0  0  0  0  0  0  0
  138.2841   68.6052  224.4158 H   0  0  0  0  0  0  0  0  0  0  0  0
  139.9116   68.7174  223.6973 H   0  0  0  0  0  0  0  0  0  0  0  0
  139.0764   67.4171  226.3793 H   0  0  0  0  0  0  0  0  0  0  0  0
  140.0340   67.6101  228.6577 H   0  0  0  0  0  0  0  0  0  0  0  0
  141.2822   69.6462  229.3100 H   0  0  0  0  0  0  0  0  0  0  0  0
  141.5835   71.5008  227.6870 H   0  0  0  0  0  0  0  0  0  0  0  0
  140.3192   72.5428  225.6832 H   0  0  0  0  0  0  0  0  0  0  0  0
  141.7820   71.7054  225.0088 H   0  0  0  0  0  0  0  0  0  0  0  0
  138.6196   76.2750  221.6244 H   0  0  0  0  0  0  0  0  0  0  0  0
  139.3969   75.4908  223.0718 H   0  0  0  0  0  0  0  0  0  0  0  0
  139.2044   78.0181  223.0571 H   0  0  0  0  0  0  0  0  0  0  0  0
  140.8197   77.2579  223.4200 H   0  0  0  0  0  0  0  0  0  0  0  0
  1  2  1  0
  2  3  1  0
  3  4  1  0
  4  5  1  0
  5  6  1  0
  6  7  1  0
  7  8  2  0
  8  9  1  0
  9 10  1  0
 10 11  1  0
 11 12  1  0
 12 13  1  0
 13 14  1  0
 14 15  2  0
 15 16  1  0
 16 17  2  0
 17 18  1  0
 18 19  2  0
 13 20  1  0
 20 21  1  0
  9 22  2  0
 22 23  1  0
 23 24  1  0
 24 25  1  0
 25 26  1  0
 26 27  1  0
 27 28  2  0
 28 29  1  0
 29 30  2  0
 30 31  1  0
 31 32  2  0
 32 33  1  0
 23 34  2  0
  6 35  1  0
 35 36  1  0
 36  3  1  0
 34  7  1  0
 21 10  1  0
 33 24  1  0
 19 14  1  0
 32 27  1  0
  1 37  1  0
  1 38  1  0
  2 39  1  0
  2 40  1  0
  3 41  1  0
  4 42  1  0
  4 43  1  0
  5 44  1  0
  5 45  1  0
 11 46  1  0
 11 47  1  0
 12 48  1  0
 12 49  1  0
 15 50  1  0
 16 51  1  0
 17 52  1  0
 18 53  1  0
 19 54  1  0
 20 55  1  0
 20 56  1  0
 21 57  1  0
 21 58  1  0
 25 59  1  0
 25 60  1  0
 26 61  1  0
 26 62  1  0
 28 63  1  0
 29 64  1  0
 30 65  1  0
 31 66  1  0
 33 67  1  0
 33 68  1  0
 35 69  1  0
 35 70  1  0
 36 71  1  0
 36 72  1  0
M  END
>  <smiles>  (26) 
NCC1CCN(c2nc(N3CCN(c4ccccc4)CC3)nc(N3CCc4ccccc4C3)n2)CC1

>  <score_type>  (26) 
oracle

>  <origin>  (26) 
autodockgpu

>  <m_score__min__energy>  (26) 
-10.050000000000001

>  <m_primary>  (26) 
energy

>  <rmsd>  (26) 
8.644369313214236

>  <m_score__min__rmsd>  (26) 
8.644369313214236

>  <meeko>  (26) 
{"free_energy": -9.17, "intermolecular_energy": -10.96, "internal_energy": -1.22, "cluster_size": 13, "cluster_id": 2, "rank_in_cluster": 10}

>  <energy>  (26) 
-8.33

>  <cluster_rmsd>  (26) 
1.0

>  <cluster>  (26) 
1

$$$$

     RDKit          3D

 72 77  0  0  0  0  0  0  0  0999 V2000
  145.9840   68.1700  220.0680 N   0  0  0  0  0  0  0  0  0  0  0  0
  145.1660   67.9000  218.8990 C   0  0  0  0  0  0  0  0  0  0  0  0
  144.2470   69.0810  218.6670 C   0  0  0  0  0  0  0  0  0  0  0  0
  142.8770   68.7590  219.2220 C   0  0  0  0  0  0  0  0  0  0  0  0
  141.9580   69.9350  219.1750 C   0  0  0  0  0  0  0  0  0  0  0  0
  142.5840   71.1030  219.7390 N   0  0  0  0  0  0  0  0  0  0  0  0
  141.8520   71.9130  220.6600 C   0  0  0  0  0  0  0  0  0  0  0  0
  141.6910   73.2380  220.4030 N   0  0  0  0  0  0  0  0  0  0  0  0
  141.0010   73.9980  221.2720 C   0  0  0  0  0  0  0  0  0  0  0  0
  140.7800   75.3920  221.0890 N   0  0  0  0  0  0  0  0  0  0  0  0
  141.2450   76.1090  219.9210 C   0  0  0  0  0  0  0  0  0  0  0  0
  142.1900   77.2100  220.4260 C   0  0  0  0  0  0  0  0  0  0  0  0
  141.5000   77.9710  221.4620 N   0  0  0  0  0  0  0  0  0  0  0  0
  141.2640   79.3640  221.3860 C   0  0  0  0  0  0  0  0  0  0  0  0
  140.8480   79.9720  220.1960 C   0  0  0  0  0  0  0  0  0  0  0  0
  140.6050   81.3350  220.1220 C   0  0  0  0  0  0  0  0  0  0  0  0
  140.7590   82.1550  221.2080 C   0  0  0  0  0  0  0  0  0  0  0  0
  141.1670   81.5780  222.3860 C   0  0  0  0  0  0  0  0  0  0  0  0
  141.4120   80.2080  222.4640 C   0  0  0  0  0  0  0  0  0  0  0  0
  141.0720   77.1730  222.6160 C   0  0  0  0  0  0  0  0  0  0  0  0
  140.0540   76.1800  222.1000 C   0  0  0  0  0  0  0  0  0  0  0  0
  140.4890   73.4310  222.3710 N   0  0  0  0  0  0  0  0  0  0  0  0
  140.6360   72.1190  222.6480 C   0  0  0  0  0  0  0  0  0  0  0  0
  140.0870   71.5170  223.8220 N   0  0  0  0  0  0  0  0  0  0  0  0
  138.9280   70.6850  223.7340 C   0  0  0  0  0  0  0  0  0  0  0  0
  139.2130   69.3160  224.2980 C   0  0  0  0  0  0  0  0  0  0  0  0
  139.7360   69.5000  225.6900 C   0  0  0  0  0  0  0  0  0  0  0  0
  139.5260   68.5130  226.6380 C   0  0  0  0  0  0  0  0  0  0  0  0
  140.0010   68.6640  227.9290 C   0  0  0  0  0  0  0  0  0  0  0  0
  140.6920   69.8050  228.2790 C   0  0  0  0  0  0  0  0  0  0  0  0
  140.9130   70.8000  227.3490 C   0  0  0  0  0  0  0  0  0  0  0  0
  140.4330   70.6420  226.0600 C   0  0  0  0  0  0  0  0  0  0  0  0
  140.7040   71.7470  225.1080 C   0  0  0  0  0  0  0  0  0  0  0  0
  141.3260   71.3790  221.7700 N   0  0  0  0  0  0  0  0  0  0  0  0
  143.9380   71.4600  219.3800 C   0  0  0  0  0  0  0  0  0  0  0  0
  144.8550   70.2830  219.3530 C   0  0  0  0  0  0  0  0  0  0  0  0
  146.7430   68.8490  219.8900 H   0  0  0  0  0  0  0  0  0  0  0  0
  146.3310   67.2460  220.4290 H   0  0  0  0  0  0  0  0  0  0  0  0
  145.8120   67.7553  218.0205 H   0  0  0  0  0  0  0  0  0  0  0  0
  144.5719   66.9883  219.0594 H   0  0  0  0  0  0  0  0  0  0  0  0
  144.1330   69.2985  217.5948 H   0  0  0  0  0  0  0  0  0  0  0  0
  142.4379   67.9426  218.6298 H   0  0  0  0  0  0  0  0  0  0  0  0
  142.9996   68.4685  220.2758 H   0  0  0  0  0  0  0  0  0  0  0  0
  141.6904   70.1406  218.1281 H   0  0  0  0  0  0  0  0  0  0  0  0
  141.0591   69.7006  219.7641 H   0  0  0  0  0  0  0  0  0  0  0  0
  141.7837   75.4268  219.2470 H   0  0  0  0  0  0  0  0  0  0  0  0
  140.4025   76.5380  219.3587 H   0  0  0  0  0  0  0  0  0  0  0  0
  143.1004   76.7552  220.8435 H   0  0  0  0  0  0  0  0  0  0  0  0
  142.4740   77.8737  219.5960 H   0  0  0  0  0  0  0  0  0  0  0  0
  140.7104   79.3531  219.2971 H   0  0  0  0  0  0  0  0  0  0  0  0
  140.2797   81.7694  219.1652 H   0  0  0  0  0  0  0  0  0  0  0  0
  140.5633   83.2353  221.1396 H   0  0  0  0  0  0  0  0  0  0  0  0
  141.3021   82.2053  223.2794 H   0  0  0  0  0  0  0  0  0  0  0  0
  141.7367   79.7839  223.4256 H   0  0  0  0  0  0  0  0  0  0  0  0
  141.9322   76.6434  223.0514 H   0  0  0  0  0  0  0  0  0  0  0  0
  140.6415   77.8108  223.4021 H   0  0  0  0  0  0  0  0  0  0  0  0
  139.6969   75.5320  222.9140 H   0  0  0  0  0  0  0  0  0  0  0  0
  139.1645   76.6745  221.6825 H   0  0  0  0  0  0  0  0  0  0  0  0
  138.1076   71.1467  224.3030 H   0  0  0  0  0  0  0  0  0  0  0  0
  138.6459   70.5808  222.6759 H   0  0  0  0  0  0  0  0  0  0  0  0
  138.2890   68.7195  224.3201 H   0  0  0  0  0  0  0  0  0  0  0  0
  139.9494   68.7870  223.6752 H   0  0  0  0  0  0  0  0  0  0  0  0
  138.9767   67.6007  226.3625 H   0  0  0  0  0  0  0  0  0  0  0  0
  139.8276   67.8747  228.6753 H   0  0  0  0  0  0  0  0  0  0  0  0
  141.0692   69.9225  229.3056 H   0  0  0  0  0  0  0  0  0  0  0  0
  141.4649   71.7095  227.6288 H   0  0  0  0  0  0  0  0  0  0  0  0
  140.3090   72.6834  225.5290 H   0  0  0  0  0  0  0  0  0  0  0  0
  141.7920   71.8063  224.9571 H   0  0  0  0  0  0  0  0  0  0  0  0
  143.9275   71.9212  218.3814 H   0  0  0  0  0  0  0  0  0  0  0  0
  144.3125   72.1560  220.1451 H   0  0  0  0  0  0  0  0  0  0  0  0
  145.7735   70.5656  218.8178 H   0  0  0  0  0  0  0  0  0  0  0  0
  145.0604   69.9998  220.3959 H   0  0  0  0  0  0  0  0  0  0  0  0
  1  2  1  0
  2  3  1  0
  3  4  1  0
  4  5  1  0
  5  6  1  0
  6  7  1  0
  7  8  2  0
  8  9  1  0
  9 10  1  0
 10 11  1  0
 11 12  1  0
 12 13  1  0
 13 14  1  0
 14 15  2  0
 15 16  1  0
 16 17  2  0
 17 18  1  0
 18 19  2  0
 13 20  1  0
 20 21  1  0
  9 22  2  0
 22 23  1  0
 23 24  1  0
 24 25  1  0
 25 26  1  0
 26 27  1  0
 27 28  2  0
 28 29  1  0
 29 30  2  0
 30 31  1  0
 31 32  2  0
 32 33  1  0
 23 34  2  0
  6 35  1  0
 35 36  1  0
 36  3  1  0
 34  7  1  0
 21 10  1  0
 33 24  1  0
 19 14  1  0
 32 27  1  0
  1 37  1  0
  1 38  1  0
  2 39  1  0
  2 40  1  0
  3 41  1  0
  4 42  1  0
  4 43  1  0
  5 44  1  0
  5 45  1  0
 11 46  1  0
 11 47  1  0
 12 48  1  0
 12 49  1  0
 15 50  1  0
 16 51  1  0
 17 52  1  0
 18 53  1  0
 19 54  1  0
 20 55  1  0
 20 56  1  0
 21 57  1  0
 21 58  1  0
 25 59  1  0
 25 60  1  0
 26 61  1  0
 26 62  1  0
 28 63  1  0
 29 64  1  0
 30 65  1  0
 31 66  1  0
 33 67  1  0
 33 68  1  0
 35 69  1  0
 35 70  1  0
 36 71  1  0
 36 72  1  0
M  END
>  <smiles>  (27) 
NCC1CCN(c2nc(N3CCN(c4ccccc4)CC3)nc(N3CCc4ccccc4C3)n2)CC1

>  <score_type>  (27) 
oracle

>  <origin>  (27) 
autodockgpu

>  <m_score__min__energy>  (27) 
-10.050000000000001

>  <m_primary>  (27) 
energy

>  <rmsd>  (27) 
8.796013843047866

>  <m_score__min__rmsd>  (27) 
8.796013843047866

>  <meeko>  (27) 
{"free_energy": -9.87, "intermolecular_energy": -11.66, "internal_energy": -1.2, "cluster_size": 26, "cluster_id": 1, "rank_in_cluster": 13}

>  <energy>  (27) 
-9.63

>  <cluster_rmsd>  (27) 
0.0

>  <cluster>  (27) 
2

$$$$

     RDKit          3D

 72 77  0  0  0  0  0  0  0  0999 V2000
  143.0480   67.1210  218.8190 N   0  0  0  0  0  0  0  0  0  0  0  0
  144.0870   67.8170  218.0800 C   0  0  0  0  0  0  0  0  0  0  0  0
  143.8970   69.3080  218.2630 C   0  0  0  0  0  0  0  0  0  0  0  0
  142.4300   69.6430  218.1000 C   0  0  0  0  0  0  0  0  0  0  0  0
  142.1390   71.0710  218.4240 C   0  0  0  0  0  0  0  0  0  0  0  0
  142.7090   71.4410  219.6940 N   0  0  0  0  0  0  0  0  0  0  0  0
  141.9190   72.1740  220.6310 C   0  0  0  0  0  0  0  0  0  0  0  0
  141.7120   73.5030  220.4340 N   0  0  0  0  0  0  0  0  0  0  0  0
  140.9680   74.1910  221.3180 C   0  0  0  0  0  0  0  0  0  0  0  0
  140.6960   75.5830  221.1970 N   0  0  0  0  0  0  0  0  0  0  0  0
  141.0340   76.3430  220.0130 C   0  0  0  0  0  0  0  0  0  0  0  0
  141.9930   77.4560  220.4630 C   0  0  0  0  0  0  0  0  0  0  0  0
  141.3830   78.1700  221.5790 N   0  0  0  0  0  0  0  0  0  0  0  0
  141.1060   79.5570  221.5660 C   0  0  0  0  0  0  0  0  0  0  0  0
  141.7160   80.4170  220.6460 C   0  0  0  0  0  0  0  0  0  0  0  0
  141.4380   81.7750  220.6230 C   0  0  0  0  0  0  0  0  0  0  0  0
  140.5530   82.3440  221.5010 C   0  0  0  0  0  0  0  0  0  0  0  0
  139.9440   81.5170  222.4140 C   0  0  0  0  0  0  0  0  0  0  0  0
  140.2210   80.1510  222.4380 C   0  0  0  0  0  0  0  0  0  0  0  0
  141.0830   77.3290  222.7430 C   0  0  0  0  0  0  0  0  0  0  0  0
  140.0460   76.3220  222.2920 C   0  0  0  0  0  0  0  0  0  0  0  0
  140.4460   73.5500  222.3700 N   0  0  0  0  0  0  0  0  0  0  0  0
  140.6370   72.2320  222.5860 C   0  0  0  0  0  0  0  0  0  0  0  0
  140.0780   71.5500  223.7120 N   0  0  0  0  0  0  0  0  0  0  0  0
  138.9140   70.7350  223.5580 C   0  0  0  0  0  0  0  0  0  0  0  0
  139.1870   69.3270  224.0230 C   0  0  0  0  0  0  0  0  0  0  0  0
  139.7040   69.4060  225.4270 C   0  0  0  0  0  0  0  0  0  0  0  0
  139.4830   68.3540  226.3000 C   0  0  0  0  0  0  0  0  0  0  0  0
  139.9520   68.4080  227.6000 C   0  0  0  0  0  0  0  0  0  0  0  0
  140.6490   69.5160  228.0350 C   0  0  0  0  0  0  0  0  0  0  0  0
  140.8820   70.5740  227.1810 C   0  0  0  0  0  0  0  0  0  0  0  0
  140.4070   70.5130  225.8820 C   0  0  0  0  0  0  0  0  0  0  0  0
  140.6900   71.6820  225.0130 C   0  0  0  0  0  0  0  0  0  0  0  0
  141.3820   71.5650  221.6960 N   0  0  0  0  0  0  0  0  0  0  0  0
  144.0700   71.0780  220.0240 C   0  0  0  0  0  0  0  0  0  0  0  0
  144.4000   69.6740  219.6410 C   0  0  0  0  0  0  0  0  0  0  0  0
  143.3730   66.7390  219.7230 H   0  0  0  0  0  0  0  0  0  0  0  0
  142.6450   66.3900  218.1810 H   0  0  0  0  0  0  0  0  0  0  0  0
  145.0750   67.5201  218.4618 H   0  0  0  0  0  0  0  0  0  0  0  0
  144.0243   67.5594  217.0124 H   0  0  0  0  0  0  0  0  0  0  0  0
  144.4594   69.8816  217.5115 H   0  0  0  0  0  0  0  0  0  0  0  0
  142.1358   69.4490  217.0580 H   0  0  0  0  0  0  0  0  0  0  0  0
  141.8600   69.0146  218.8001 H   0  0  0  0  0  0  0  0  0  0  0  0
  142.5657   71.7118  217.6383 H   0  0  0  0  0  0  0  0  0  0  0  0
  141.0482   71.2015  218.4792 H   0  0  0  0  0  0  0  0  0  0  0  0
  141.5262   75.6942  219.2735 H   0  0  0  0  0  0  0  0  0  0  0  0
  140.1333   76.7629  219.5413 H   0  0  0  0  0  0  0  0  0  0  0  0
  142.9488   77.0153  220.7826 H   0  0  0  0  0  0  0  0  0  0  0  0
  142.1823   78.1496  219.6304 H   0  0  0  0  0  0  0  0  0  0  0  0
  142.4347   80.0049  219.9223 H   0  0  0  0  0  0  0  0  0  0  0  0
  141.9409   82.4123  219.8807 H   0  0  0  0  0  0  0  0  0  0  0  0
  140.3381   83.4225  221.4759 H   0  0  0  0  0  0  0  0  0  0  0  0
  139.2285   81.9385  223.1354 H   0  0  0  0  0  0  0  0  0  0  0  0
  139.7122   79.5222  223.1835 H   0  0  0  0  0  0  0  0  0  0  0  0
  141.9925   76.8115  223.0821 H   0  0  0  0  0  0  0  0  0  0  0  0
  140.7109   77.9328  223.5838 H   0  0  0  0  0  0  0  0  0  0  0  0
  139.7812   75.6423  223.1154 H   0  0  0  0  0  0  0  0  0  0  0  0
  139.1098   76.8028  221.9721 H   0  0  0  0  0  0  0  0  0  0  0  0
  138.0935   71.1601  224.1547 H   0  0  0  0  0  0  0  0  0  0  0  0
  138.6370   70.7097  222.4938 H   0  0  0  0  0  0  0  0  0  0  0  0
  138.2590   68.7370  223.9976 H   0  0  0  0  0  0  0  0  0  0  0  0
  139.9232   68.8394  223.3670 H   0  0  0  0  0  0  0  0  0  0  0  0
  138.9296   67.4676  225.9565 H   0  0  0  0  0  0  0  0  0  0  0  0
  139.7693   67.5681  228.2864 H   0  0  0  0  0  0  0  0  0  0  0  0
  141.0213   69.5562  229.0693 H   0  0  0  0  0  0  0  0  0  0  0  0
  141.4392   71.4566  227.5283 H   0  0  0  0  0  0  0  0  0  0  0  0
  140.2995   72.5884  225.4988 H   0  0  0  0  0  0  0  0  0  0  0  0
  141.7791   71.7441  224.8713 H   0  0  0  0  0  0  0  0  0  0  0  0
  144.7539   71.7574  219.4941 H   0  0  0  0  0  0  0  0  0  0  0  0
  144.1806   71.1597  221.1154 H   0  0  0  0  0  0  0  0  0  0  0  0
  145.4931   69.5525  219.6597 H   0  0  0  0  0  0  0  0  0  0  0  0
  143.9026   69.0088  220.3622 H   0  0  0  0  0  0  0  0  0  0  0  0
  1  2  1  0
  2  3  1  0
  3  4  1  0
  4  5  1  0
  5  6  1  0
  6  7  1  0
  7  8  2  0
  8  9  1  0
  9 10  1  0
 10 11  1  0
 11 12  1  0
 12 13  1  0
 13 14  1  0
 14 15  2  0
 15 16  1  0
 16 17  2  0
 17 18  1  0
 18 19  2  0
 13 20  1  0
 20 21  1  0
  9 22  2  0
 22 23  1  0
 23 24  1  0
 24 25  1  0
 25 26  1  0
 26 27  1  0
 27 28  2  0
 28 29  1  0
 29 30  2  0
 30 31  1  0
 31 32  2  0
 32 33  1  0
 23 34  2  0
  6 35  1  0
 35 36  1  0
 36  3  1  0
 34  7  1  0
 21 10  1  0
 33 24  1  0
 19 14  1  0
 32 27  1  0
  1 37  1  0
  1 38  1  0
  2 39  1  0
  2 40  1  0
  3 41  1  0
  4 42  1  0
  4 43  1  0
  5 44  1  0
  5 45  1  0
 11 46  1  0
 11 47  1  0
 12 48  1  0
 12 49  1  0
 15 50  1  0
 16 51  1  0
 17 52  1  0
 18 53  1  0
 19 54  1  0
 20 55  1  0
 20 56  1  0
 21 57  1  0
 21 58  1  0
 25 59  1  0
 25 60  1  0
 26 61  1  0
 26 62  1  0
 28 63  1  0
 29 64  1  0
 30 65  1  0
 31 66  1  0
 33 67  1  0
 33 68  1  0
 35 69  1  0
 35 70  1  0
 36 71  1  0
 36 72  1  0
M  END
>  <smiles>  (28) 
NCC1CCN(c2nc(N3CCN(c4ccccc4)CC3)nc(N3CCc4ccccc4C3)n2)CC1

>  <score_type>  (28) 
oracle

>  <origin>  (28) 
autodockgpu

>  <m_score__min__energy>  (28) 
-10.050000000000001

>  <m_primary>  (28) 
energy

>  <rmsd>  (28) 
8.907924229913244

>  <m_score__min__rmsd>  (28) 
8.907924229913244

>  <meeko>  (28) 
{"free_energy": -8.33, "intermolecular_energy": -10.12, "internal_energy": -1.21, "cluster_size": 26, "cluster_id": 1, "rank_in_cluster": 26}

>  <energy>  (28) 
-9.62

>  <cluster_rmsd>  (28) 
0.16

>  <cluster>  (28) 
2

$$$$

     RDKit          3D

 72 77  0  0  0  0  0  0  0  0999 V2000
  146.6830   69.8740  219.6210 N   0  0  0  0  0  0  0  0  0  0  0  0
  146.1150   69.6210  218.3090 C   0  0  0  0  0  0  0  0  0  0  0  0
  144.6670   70.0630  218.3130 C   0  0  0  0  0  0  0  0  0  0  0  0
  143.9780   69.4910  219.5330 C   0  0  0  0  0  0  0  0  0  0  0  0
  142.5890   70.0140  219.6930 C   0  0  0  0  0  0  0  0  0  0  0  0
  142.5620   71.4510  219.5970 N   0  0  0  0  0  0  0  0  0  0  0  0
  141.8180   72.2030  220.5560 C   0  0  0  0  0  0  0  0  0  0  0  0
  141.6320   73.5360  220.3630 N   0  0  0  0  0  0  0  0  0  0  0  0
  140.9310   74.2410  221.2670 C   0  0  0  0  0  0  0  0  0  0  0  0
  140.6840   75.6380  221.1520 N   0  0  0  0  0  0  0  0  0  0  0  0
  141.0490   76.3990  219.9760 C   0  0  0  0  0  0  0  0  0  0  0  0
  142.0220   77.4930  220.4430 C   0  0  0  0  0  0  0  0  0  0  0  0
  141.4100   78.2110  221.5560 N   0  0  0  0  0  0  0  0  0  0  0  0
  141.1570   79.6020  221.5470 C   0  0  0  0  0  0  0  0  0  0  0  0
  140.5180   80.2240  220.4690 C   0  0  0  0  0  0  0  0  0  0  0  0
  140.2580   81.5860  220.4630 C   0  0  0  0  0  0  0  0  0  0  0  0
  140.6140   82.3920  221.5120 C   0  0  0  0  0  0  0  0  0  0  0  0
  141.2430   81.8010  222.5800 C   0  0  0  0  0  0  0  0  0  0  0  0
  141.5050   80.4320  222.5890 C   0  0  0  0  0  0  0  0  0  0  0  0
  141.0820   77.3690  222.7120 C   0  0  0  0  0  0  0  0  0  0  0  0
  140.0340   76.3820  222.2430 C   0  0  0  0  0  0  0  0  0  0  0  0
  140.4310   73.6130  222.3380 N   0  0  0  0  0  0  0  0  0  0  0  0
  140.6010   72.2920  222.5520 C   0  0  0  0  0  0  0  0  0  0  0  0
  140.0650   71.6250  223.6970 N   0  0  0  0  0  0  0  0  0  0  0  0
  138.9160   70.7830  223.5710 C   0  0  0  0  0  0  0  0  0  0  0  0
  139.2220   69.3920  224.0650 C   0  0  0  0  0  0  0  0  0  0  0  0
  139.7480   69.5120  225.4630 C   0  0  0  0  0  0  0  0  0  0  0  0
  139.5550   68.4770  226.3610 C   0  0  0  0  0  0  0  0  0  0  0  0
  140.0330   68.5700  227.6560 C   0  0  0  0  0  0  0  0  0  0  0  0
  140.7100   69.7000  228.0600 C   0  0  0  0  0  0  0  0  0  0  0  0
  140.9150   70.7430  227.1810 C   0  0  0  0  0  0  0  0  0  0  0  0
  140.4320   70.6440  225.8870 C   0  0  0  0  0  0  0  0  0  0  0  0
  140.6840   71.7990  224.9900 C   0  0  0  0  0  0  0  0  0  0  0  0
  141.3030   71.6070  221.6400 N   0  0  0  0  0  0  0  0  0  0  0  0
  143.2790   72.1330  218.5420 C   0  0  0  0  0  0  0  0  0  0  0  0
  144.6450   71.5750  218.3210 C   0  0  0  0  0  0  0  0  0  0  0  0
  146.3780   70.7700  220.0340 H   0  0  0  0  0  0  0  0  0  0  0  0
  147.7270   69.7920  219.5330 H   0  0  0  0  0  0  0  0  0  0  0  0
  146.6728   70.1875  217.5488 H   0  0  0  0  0  0  0  0  0  0  0  0
  146.1786   68.5483  218.0738 H   0  0  0  0  0  0  0  0  0  0  0  0
  144.1317   69.7000  217.4232 H   0  0  0  0  0  0  0  0  0  0  0  0
  143.9352   68.3962  219.4350 H   0  0  0  0  0  0  0  0  0  0  0  0
  144.5562   69.7912  220.4193 H   0  0  0  0  0  0  0  0  0  0  0  0
  141.9519   69.5891  218.9033 H   0  0  0  0  0  0  0  0  0  0  0  0
  142.2183   69.7231  220.6870 H   0  0  0  0  0  0  0  0  0  0  0  0
  141.5384   75.7459  219.2385 H   0  0  0  0  0  0  0  0  0  0  0  0
  140.1611   76.8372  219.4967 H   0  0  0  0  0  0  0  0  0  0  0  0
  142.9664   77.0344  220.7714 H   0  0  0  0  0  0  0  0  0  0  0  0
  142.2337   78.1875  219.6167 H   0  0  0  0  0  0  0  0  0  0  0  0
  140.2139   79.6168  219.6036 H   0  0  0  0  0  0  0  0  0  0  0  0
  139.7526   82.0310  219.5932 H   0  0  0  0  0  0  0  0  0  0  0  0
  140.4039   83.4717  221.4992 H   0  0  0  0  0  0  0  0  0  0  0  0
  141.5443   82.4165  223.4404 H   0  0  0  0  0  0  0  0  0  0  0  0
  142.0103   79.9971  223.4640 H   0  0  0  0  0  0  0  0  0  0  0  0
  141.9786   76.8346  223.0592 H   0  0  0  0  0  0  0  0  0  0  0  0
  140.7100   77.9744  223.5517 H   0  0  0  0  0  0  0  0  0  0  0  0
  139.7480   75.7025  223.0594 H   0  0  0  0  0  0  0  0  0  0  0  0
  139.1100   76.8804  221.9144 H   0  0  0  0  0  0  0  0  0  0  0  0
  138.0917   71.2046  224.1650 H   0  0  0  0  0  0  0  0  0  0  0  0
  138.6306   70.7282  222.5101 H   0  0  0  0  0  0  0  0  0  0  0  0
  138.3063   68.7825  224.0600 H   0  0  0  0  0  0  0  0  0  0  0  0
  139.9636   68.9058  223.4141 H   0  0  0  0  0  0  0  0  0  0  0  0
  139.0167   67.5722  226.0424 H   0  0  0  0  0  0  0  0  0  0  0  0
  139.8727   67.7424  228.3626 H   0  0  0  0  0  0  0  0  0  0  0  0
  141.0894   69.7708  229.0901 H   0  0  0  0  0  0  0  0  0  0  0  0
  141.4565   71.6441  227.5046 H   0  0  0  0  0  0  0  0  0  0  0  0
  140.2782   72.7077  225.4586 H   0  0  0  0  0  0  0  0  0  0  0  0
  141.7704   71.8807  224.8383 H   0  0  0  0  0  0  0  0  0  0  0  0
  142.7050   72.0389  217.6084 H   0  0  0  0  0  0  0  0  0  0  0  0
  143.3942   73.1844  218.8441 H   0  0  0  0  0  0  0  0  0  0  0  0
  145.0198   71.9369  217.3522 H   0  0  0  0  0  0  0  0  0  0  0  0
  145.2785   71.9107  219.1553 H   0  0  0  0  0  0  0  0  0  0  0  0
  1  2  1  0
  2  3  1  0
  3  4  1  0
  4  5  1  0
  5  6  1  0
  6  7  1  0
  7  8  2  0
  8  9  1  0
  9 10  1  0
 10 11  1  0
 11 12  1  0
 12 13  1  0
 13 14  1  0
 14 15  2  0
 15 16  1  0
 16 17  2  0
 17 18  1  0
 18 19  2  0
 13 20  1  0
 20 21  1  0
  9 22  2  0
 22 23  1  0
 23 24  1  0
 24 25  1  0
 25 26  1  0
 26 27  1  0
 27 28  2  0
 28 29  1  0
 29 30  2  0
 30 31  1  0
 31 32  2  0
 32 33  1  0
 23 34  2  0
  6 35  1  0
 35 36  1  0
 36  3  1  0
 34  7  1  0
 21 10  1  0
 33 24  1  0
 19 14  1  0
 32 27  1  0
  1 37  1  0
  1 38  1  0
  2 39  1  0
  2 40  1  0
  3 41  1  0
  4 42  1  0
  4 43  1  0
  5 44  1  0
  5 45  1  0
 11 46  1  0
 11 47  1  0
 12 48  1  0
 12 49  1  0
 15 50  1  0
 16 51  1  0
 17 52  1  0
 18 53  1  0
 19 54  1  0
 20 55  1  0
 20 56  1  0
 21 57  1  0
 21 58  1  0
 25 59  1  0
 25 60  1  0
 26 61  1  0
 26 62  1  0
 28 63  1  0
 29 64  1  0
 30 65  1  0
 31 66  1  0
 33 67  1  0
 33 68  1  0
 35 69  1  0
 35 70  1  0
 36 71  1  0
 36 72  1  0
M  END
>  <smiles>  (29) 
NCC1CCN(c2nc(N3CCN(c4ccccc4)CC3)nc(N3CCc4ccccc4C3)n2)CC1

>  <score_type>  (29) 
oracle

>  <origin>  (29) 
autodockgpu

>  <m_score__min__energy>  (29) 
-10.050000000000001

>  <m_primary>  (29) 
energy

>  <rmsd>  (29) 
8.90707595187116

>  <m_score__min__rmsd>  (29) 
8.90707595187116

>  <meeko>  (29) 
{"free_energy": -9.1, "intermolecular_energy": -10.89, "internal_energy": -1.23, "cluster_size": 26, "cluster_id": 1, "rank_in_cluster": 23}

>  <energy>  (29) 
-9.61

>  <cluster_rmsd>  (29) 
0.11

>  <cluster>  (29) 
2

$$$$

     RDKit          3D

 72 77  0  0  0  0  0  0  0  0999 V2000
  145.7600   67.9730  220.1990 N   0  0  0  0  0  0  0  0  0  0  0  0
  146.1180   68.8430  219.0920 C   0  0  0  0  0  0  0  0  0  0  0  0
  144.9580   69.7760  218.8140 C   0  0  0  0  0  0  0  0  0  0  0  0
  143.7110   69.2240  219.4690 C   0  0  0  0  0  0  0  0  0  0  0  0
  142.5590   70.1700  219.3750 C   0  0  0  0  0  0  0  0  0  0  0  0
  142.9380   71.4920  219.8060 N   0  0  0  0  0  0  0  0  0  0  0  0
  142.0830   72.2100  220.6950 C   0  0  0  0  0  0  0  0  0  0  0  0
  141.8630   73.5360  220.4860 N   0  0  0  0  0  0  0  0  0  0  0  0
  141.0570   74.2100  221.3250 C   0  0  0  0  0  0  0  0  0  0  0  0
  140.7670   75.5960  221.1880 N   0  0  0  0  0  0  0  0  0  0  0  0
  141.1230   76.3540  220.0070 C   0  0  0  0  0  0  0  0  0  0  0  0
  142.0530   77.4850  220.4730 C   0  0  0  0  0  0  0  0  0  0  0  0
  141.4040   78.1960  221.5680 N   0  0  0  0  0  0  0  0  0  0  0  0
  141.1060   79.5780  221.5380 C   0  0  0  0  0  0  0  0  0  0  0  0
  141.5740   80.4500  222.5280 C   0  0  0  0  0  0  0  0  0  0  0  0
  141.2930   81.8070  222.4960 C   0  0  0  0  0  0  0  0  0  0  0  0
  140.5430   82.3640  221.4940 C   0  0  0  0  0  0  0  0  0  0  0  0
  140.0730   81.5260  220.5120 C   0  0  0  0  0  0  0  0  0  0  0  0
  140.3550   80.1610  220.5420 C   0  0  0  0  0  0  0  0  0  0  0  0
  141.0880   77.3590  222.7300 C   0  0  0  0  0  0  0  0  0  0  0  0
  140.0790   76.3330  222.2610 C   0  0  0  0  0  0  0  0  0  0  0  0
  140.4900   73.5590  222.3480 N   0  0  0  0  0  0  0  0  0  0  0  0
  140.6920   72.2450  222.5760 C   0  0  0  0  0  0  0  0  0  0  0  0
  140.0840   71.5540  223.6690 N   0  0  0  0  0  0  0  0  0  0  0  0
  138.9160   70.7560  223.4600 C   0  0  0  0  0  0  0  0  0  0  0  0
  139.1550   69.3370  223.9120 C   0  0  0  0  0  0  0  0  0  0  0  0
  139.6210   69.3880  225.3350 C   0  0  0  0  0  0  0  0  0  0  0  0
  139.3540   68.3260  226.1830 C   0  0  0  0  0  0  0  0  0  0  0  0
  139.7760   68.3540  227.5000 C   0  0  0  0  0  0  0  0  0  0  0  0
  140.4690   69.4460  227.9780 C   0  0  0  0  0  0  0  0  0  0  0  0
  140.7460   70.5140  227.1500 C   0  0  0  0  0  0  0  0  0  0  0  0
  140.3200   70.4790  225.8330 C   0  0  0  0  0  0  0  0  0  0  0  0
  140.6490   71.6580  224.9940 C   0  0  0  0  0  0  0  0  0  0  0  0
  141.4990   71.5910  221.7290 N   0  0  0  0  0  0  0  0  0  0  0  0
  144.1700   72.0920  219.3440 C   0  0  0  0  0  0  0  0  0  0  0  0
  145.3180   71.1380  219.3640 C   0  0  0  0  0  0  0  0  0  0  0  0
  146.5560   67.4280  220.5670 H   0  0  0  0  0  0  0  0  0  0  0  0
  144.9590   67.3720  219.8790 H   0  0  0  0  0  0  0  0  0  0  0  0
  147.0102   69.4298  219.3558 H   0  0  0  0  0  0  0  0  0  0  0  0
  146.3380   68.2412  218.1979 H   0  0  0  0  0  0  0  0  0  0  0  0
  144.7602   69.8644  217.7355 H   0  0  0  0  0  0  0  0  0  0  0  0
  143.4372   68.2817  218.9719 H   0  0  0  0  0  0  0  0  0  0  0  0
  143.9314   69.0648  220.5349 H   0  0  0  0  0  0  0  0  0  0  0  0
  142.2166   70.2168  218.3307 H   0  0  0  0  0  0  0  0  0  0  0  0
  141.7533   69.8062  220.0296 H   0  0  0  0  0  0  0  0  0  0  0  0
  141.6437   75.7082  219.2846 H   0  0  0  0  0  0  0  0  0  0  0  0
  140.2280   76.7566  219.5101 H   0  0  0  0  0  0  0  0  0  0  0  0
  143.0073   77.0617  220.8195 H   0  0  0  0  0  0  0  0  0  0  0  0
  142.2524   78.1760  219.6407 H   0  0  0  0  0  0  0  0  0  0  0  0
  142.1806   80.0479  223.3529 H   0  0  0  0  0  0  0  0  0  0  0  0
  141.6824   82.4536  223.2962 H   0  0  0  0  0  0  0  0  0  0  0  0
  140.3252   83.4421  221.4764 H   0  0  0  0  0  0  0  0  0  0  0  0
  139.4665   81.9373  219.6916 H   0  0  0  0  0  0  0  0  0  0  0  0
  139.9613   79.5234  219.7367 H   0  0  0  0  0  0  0  0  0  0  0  0
  141.9966   76.8584  223.0957 H   0  0  0  0  0  0  0  0  0  0  0  0
  140.6854   77.9628  223.5566 H   0  0  0  0  0  0  0  0  0  0  0  0
  139.8042   75.6553  223.0827 H   0  0  0  0  0  0  0  0  0  0  0  0
  139.1440   76.7970  221.9140 H   0  0  0  0  0  0  0  0  0  0  0  0
  138.0796   71.1821  224.0335 H   0  0  0  0  0  0  0  0  0  0  0  0
  138.6774   70.7508  222.3862 H   0  0  0  0  0  0  0  0  0  0  0  0
  138.2216   68.7591  223.8433 H   0  0  0  0  0  0  0  0  0  0  0  0
  139.9087   68.8503  223.2756 H   0  0  0  0  0  0  0  0  0  0  0  0
  138.8016   67.4527  225.8059 H   0  0  0  0  0  0  0  0  0  0  0  0
  139.5589   67.5056  228.1656 H   0  0  0  0  0  0  0  0  0  0  0  0
  140.8030   69.4657  229.0259 H   0  0  0  0  0  0  0  0  0  0  0  0
  141.2996   71.3844  227.5320 H   0  0  0  0  0  0  0  0  0  0  0  0
  140.2515   72.5614  225.4796 H   0  0  0  0  0  0  0  0  0  0  0  0
  141.7432   71.7088  224.8936 H   0  0  0  0  0  0  0  0  0  0  0  0
  144.0242   72.4456  218.3126 H   0  0  0  0  0  0  0  0  0  0  0  0
  144.4134   72.9193  220.0269 H   0  0  0  0  0  0  0  0  0  0  0  0
  146.1341   71.5575  218.7574 H   0  0  0  0  0  0  0  0  0  0  0  0
  145.6177   71.0026  220.4137 H   0  0  0  0  0  0  0  0  0  0  0  0
  1  2  1  0
  2  3  1  0
  3  4  1  0
  4  5  1  0
  5  6  1  0
  6  7  1  0
  7  8  2  0
  8  9  1  0
  9 10  1  0
 10 11  1  0
 11 12  1  0
 12 13  1  0
 13 14  1  0
 14 15  2  0
 15 16  1  0
 16 17  2  0
 17 18  1  0
 18 19  2  0
 13 20  1  0
 20 21  1  0
  9 22  2  0
 22 23  1  0
 23 24  1  0
 24 25  1  0
 25 26  1  0
 26 27  1  0
 27 28  2  0
 28 29  1  0
 29 30  2  0
 30 31  1  0
 31 32  2  0
 32 33  1  0
 23 34  2  0
  6 35  1  0
 35 36  1  0
 36  3  1  0
 34  7  1  0
 21 10  1  0
 33 24  1  0
 19 14  1  0
 32 27  1  0
  1 37  1  0
  1 38  1  0
  2 39  1  0
  2 40  1  0
  3 41  1  0
  4 42  1  0
  4 43  1  0
  5 44  1  0
  5 45  1  0
 11 46  1  0
 11 47  1  0
 12 48  1  0
 12 49  1  0
 15 50  1  0
 16 51  1  0
 17 52  1  0
 18 53  1  0
 19 54  1  0
 20 55  1  0
 20 56  1  0
 21 57  1  0
 21 58  1  0
 25 59  1  0
 25 60  1  0
 26 61  1  0
 26 62  1  0
 28 63  1  0
 29 64  1  0
 30 65  1  0
 31 66  1  0
 33 67  1  0
 33 68  1  0
 35 69  1  0
 35 70  1  0
 36 71  1  0
 36 72  1  0
M  END
>  <smiles>  (30) 
NCC1CCN(c2nc(N3CCN(c4ccccc4)CC3)nc(N3CCc4ccccc4C3)n2)CC1

>  <score_type>  (30) 
oracle

>  <origin>  (30) 
autodockgpu

>  <m_score__min__energy>  (30) 
-10.050000000000001

>  <m_primary>  (30) 
energy

>  <rmsd>  (30) 
9.059699085138826

>  <m_score__min__rmsd>  (30) 
9.059699085138826

>  <meeko>  (30) 
{"free_energy": -9.99, "intermolecular_energy": -11.78, "internal_energy": -1.18, "cluster_size": 26, "cluster_id": 1, "rank_in_cluster": 7}

>  <energy>  (30) 
-9.61

>  <cluster_rmsd>  (30) 
0.12

>  <cluster>  (30) 
2

$$$$

     RDKit          3D

 72 77  0  0  0  0  0  0  0  0999 V2000
  146.2950   73.3780  218.0800 N   0  0  0  0  0  0  0  0  0  0  0  0
  145.7310   72.3610  217.2100 C   0  0  0  0  0  0  0  0  0  0  0  0
  144.4780   71.8090  217.8570 C   0  0  0  0  0  0  0  0  0  0  0  0
  144.7070   71.6790  219.3470 C   0  0  0  0  0  0  0  0  0  0  0  0
  143.4630   71.2930  220.0770 C   0  0  0  0  0  0  0  0  0  0  0  0
  142.3590   72.1390  219.7030 N   0  0  0  0  0  0  0  0  0  0  0  0
  141.5170   72.6810  220.7210 C   0  0  0  0  0  0  0  0  0  0  0  0
  141.1180   73.9790  220.6370 N   0  0  0  0  0  0  0  0  0  0  0  0
  140.3250   74.4860  221.5970 C   0  0  0  0  0  0  0  0  0  0  0  0
  139.8560   75.8290  221.5970 N   0  0  0  0  0  0  0  0  0  0  0  0
  140.7450   76.9640  221.4610 C   0  0  0  0  0  0  0  0  0  0  0  0
  140.5640   77.8200  222.7250 C   0  0  0  0  0  0  0  0  0  0  0  0
  139.1420   78.0860  222.9030 N   0  0  0  0  0  0  0  0  0  0  0  0
  138.5870   79.3870  222.9510 C   0  0  0  0  0  0  0  0  0  0  0  0
  138.4910   80.0990  224.1520 C   0  0  0  0  0  0  0  0  0  0  0  0
  137.9580   81.3780  224.2000 C   0  0  0  0  0  0  0  0  0  0  0  0
  137.4980   82.0090  223.0740 C   0  0  0  0  0  0  0  0  0  0  0  0
  137.5820   81.3270  221.8850 C   0  0  0  0  0  0  0  0  0  0  0  0
  138.1180   80.0410  221.8340 C   0  0  0  0  0  0  0  0  0  0  0  0
  138.3130   76.8840  223.0450 C   0  0  0  0  0  0  0  0  0  0  0  0
  138.4210   76.1290  221.7380 C   0  0  0  0  0  0  0  0  0  0  0  0
  139.9450   73.7010  222.6130 N   0  0  0  0  0  0  0  0  0  0  0  0
  140.3270   72.4110  222.7170 C   0  0  0  0  0  0  0  0  0  0  0  0
  139.9200   71.5760  223.8020 N   0  0  0  0  0  0  0  0  0  0  0  0
  138.8080   70.6890  223.6550 C   0  0  0  0  0  0  0  0  0  0  0  0
  139.2220   69.2670  223.9410 C   0  0  0  0  0  0  0  0  0  0  0  0
  139.8530   69.2440  225.3000 C   0  0  0  0  0  0  0  0  0  0  0  0
  139.7850   68.0950  226.0690 C   0  0  0  0  0  0  0  0  0  0  0  0
  140.3610   68.0540  227.3260 C   0  0  0  0  0  0  0  0  0  0  0  0
  141.0110   69.1650  227.8220 C   0  0  0  0  0  0  0  0  0  0  0  0
  141.0920   70.3190  227.0710 C   0  0  0  0  0  0  0  0  0  0  0  0
  140.5110   70.3530  225.8150 C   0  0  0  0  0  0  0  0  0  0  0  0
  140.6320   71.6240  225.0580 C   0  0  0  0  0  0  0  0  0  0  0  0
  141.1180   71.9240  221.7510 N   0  0  0  0  0  0  0  0  0  0  0  0
  142.1000   72.4400  218.3120 C   0  0  0  0  0  0  0  0  0  0  0  0
  143.3420   72.7590  217.5510 C   0  0  0  0  0  0  0  0  0  0  0  0
  145.5870   73.8670  218.6520 H   0  0  0  0  0  0  0  0  0  0  0  0
  146.8620   74.0270  217.4780 H   0  0  0  0  0  0  0  0  0  0  0  0
  145.4795   72.8054  216.2357 H   0  0  0  0  0  0  0  0  0  0  0  0
  146.4608   71.5525  217.0564 H   0  0  0  0  0  0  0  0  0  0  0  0
  144.2278   70.8116  217.4664 H   0  0  0  0  0  0  0  0  0  0  0  0
  145.4736   70.9097  219.5219 H   0  0  0  0  0  0  0  0  0  0  0  0
  145.0305   72.6597  219.7259 H   0  0  0  0  0  0  0  0  0  0  0  0
  143.2138   70.2492  219.8353 H   0  0  0  0  0  0  0  0  0  0  0  0
  143.6413   71.4078  221.1564 H   0  0  0  0  0  0  0  0  0  0  0  0
  141.7873   76.6218  221.3808 H   0  0  0  0  0  0  0  0  0  0  0  0
  140.5129   77.5424  220.5546 H   0  0  0  0  0  0  0  0  0  0  0  0
  140.9524   77.2774  223.5995 H   0  0  0  0  0  0  0  0  0  0  0  0
  141.1147   78.7666  222.6215 H   0  0  0  0  0  0  0  0  0  0  0  0
  138.8476   79.6319  225.0818 H   0  0  0  0  0  0  0  0  0  0  0  0
  137.9030   81.8996  225.1669 H   0  0  0  0  0  0  0  0  0  0  0  0
  137.0771   83.0242  223.1208 H   0  0  0  0  0  0  0  0  0  0  0  0
  137.2216   81.8017  220.9605 H   0  0  0  0  0  0  0  0  0  0  0  0
  138.1682   79.5282  220.8621 H   0  0  0  0  0  0  0  0  0  0  0  0
  138.6833   76.2630  223.8740 H   0  0  0  0  0  0  0  0  0  0  0  0
  137.2680   77.1461  223.2671 H   0  0  0  0  0  0  0  0  0  0  0  0
  137.8326   75.2004  221.7767 H   0  0  0  0  0  0  0  0  0  0  0  0
  138.0318   76.7096  220.8886 H   0  0  0  0  0  0  0  0  0  0  0  0
  138.0153   70.9833  224.3586 H   0  0  0  0  0  0  0  0  0  0  0  0
  138.4400   70.7500  222.6202 H   0  0  0  0  0  0  0  0  0  0  0  0
  138.3405   68.6092  223.9255 H   0  0  0  0  0  0  0  0  0  0  0  0
  139.9311   68.9103  223.1795 H   0  0  0  0  0  0  0  0  0  0  0  0
  139.2683   67.2066  225.6770 H   0  0  0  0  0  0  0  0  0  0  0  0
  140.3007   67.1363  227.9295 H   0  0  0  0  0  0  0  0  0  0  0  0
  141.4674   69.1304  228.8223 H   0  0  0  0  0  0  0  0  0  0  0  0
  141.6131   71.2035  227.4661 H   0  0  0  0  0  0  0  0  0  0  0  0
  140.2206   72.4414  225.6684 H   0  0  0  0  0  0  0  0  0  0  0  0
  141.6973   71.7885  224.8385 H   0  0  0  0  0  0  0  0  0  0  0  0
  141.6169   71.5678  217.8473 H   0  0  0  0  0  0  0  0  0  0  0  0
  141.4530   73.3290  218.2795 H   0  0  0  0  0  0  0  0  0  0  0  0
  143.1186   72.7046  216.4753 H   0  0  0  0  0  0  0  0  0  0  0  0
  143.6640   73.7672  217.8509 H   0  0  0  0  0  0  0  0  0  0  0  0
  1  2  1  0
  2  3  1  0
  3  4  1  0
  4  5  1  0
  5  6  1  0
  6  7  1  0
  7  8  2  0
  8  9  1  0
  9 10  1  0
 10 11  1  0
 11 12  1  0
 12 13  1  0
 13 14  1  0
 14 15  2  0
 15 16  1  0
 16 17  2  0
 17 18  1  0
 18 19  2  0
 13 20  1  0
 20 21  1  0
  9 22  2  0
 22 23  1  0
 23 24  1  0
 24 25  1  0
 25 26  1  0
 26 27  1  0
 27 28  2  0
 28 29  1  0
 29 30  2  0
 30 31  1  0
 31 32  2  0
 32 33  1  0
 23 34  2  0
  6 35  1  0
 35 36  1  0
 36  3  1  0
 34  7  1  0
 21 10  1  0
 33 24  1  0
 19 14  1  0
 32 27  1  0
  1 37  1  0
  1 38  1  0
  2 39  1  0
  2 40  1  0
  3 41  1  0
  4 42  1  0
  4 43  1  0
  5 44  1  0
  5 45  1  0
 11 46  1  0
 11 47  1  0
 12 48  1  0
 12 49  1  0
 15 50  1  0
 16 51  1  0
 17 52  1  0
 18 53  1  0
 19 54  1  0
 20 55  1  0
 20 56  1  0
 21 57  1  0
 21 58  1  0
 25 59  1  0
 25 60  1  0
 26 61  1  0
 26 62  1  0
 28 63  1  0
 29 64  1  0
 30 65  1  0
 31 66  1  0
 33 67  1  0
 33 68  1  0
 35 69  1  0
 35 70  1  0
 36 71  1  0
 36 72  1  0
M  END
>  <smiles>  (31) 
NCC1CCN(c2nc(N3CCN(c4ccccc4)CC3)nc(N3CCc4ccccc4C3)n2)CC1

>  <score_type>  (31) 
oracle

>  <origin>  (31) 
autodockgpu

>  <m_score__min__energy>  (31) 
-10.050000000000001

>  <m_primary>  (31) 
energy

>  <rmsd>  (31) 
8.736921958101155

>  <m_score__min__rmsd>  (31) 
8.736921958101155

>  <meeko>  (31) 
{"free_energy": -8.97, "intermolecular_energy": -10.76, "internal_energy": -1.2, "cluster_size": 5, "cluster_id": 3, "rank_in_cluster": 5}

>  <energy>  (31) 
-9.6

>  <cluster_rmsd>  (31) 
0.2

>  <cluster>  (31) 
2

$$$$

     RDKit          3D

 72 77  0  0  0  0  0  0  0  0999 V2000
  146.6970   69.3790  217.9410 N   0  0  0  0  0  0  0  0  0  0  0  0
  145.9640   70.5070  217.3960 C   0  0  0  0  0  0  0  0  0  0  0  0
  144.5260   70.4230  217.8630 C   0  0  0  0  0  0  0  0  0  0  0  0
  144.5040   70.1280  219.3470 C   0  0  0  0  0  0  0  0  0  0  0  0
  143.1240   70.1880  219.9140 C   0  0  0  0  0  0  0  0  0  0  0  0
  142.4570   71.4050  219.5260 N   0  0  0  0  0  0  0  0  0  0  0  0
  141.7480   72.1590  220.5090 C   0  0  0  0  0  0  0  0  0  0  0  0
  141.5810   73.4970  220.3330 N   0  0  0  0  0  0  0  0  0  0  0  0
  140.9130   74.2040  221.2610 C   0  0  0  0  0  0  0  0  0  0  0  0
  140.6870   75.6060  221.1650 N   0  0  0  0  0  0  0  0  0  0  0  0
  141.0780   76.3810  220.0060 C   0  0  0  0  0  0  0  0  0  0  0  0
  142.0590   77.4530  220.5040 C   0  0  0  0  0  0  0  0  0  0  0  0
  141.4430   78.1610  221.6200 N   0  0  0  0  0  0  0  0  0  0  0  0
  141.2090   79.5560  221.6310 C   0  0  0  0  0  0  0  0  0  0  0  0
  141.5250   80.3610  220.5310 C   0  0  0  0  0  0  0  0  0  0  0  0
  141.2860   81.7260  220.5340 C   0  0  0  0  0  0  0  0  0  0  0  0
  140.7300   82.3580  221.6150 C   0  0  0  0  0  0  0  0  0  0  0  0
  140.4130   81.5860  222.7060 C   0  0  0  0  0  0  0  0  0  0  0  0
  140.6510   80.2130  222.7050 C   0  0  0  0  0  0  0  0  0  0  0  0
  141.0870   77.3060  222.7580 C   0  0  0  0  0  0  0  0  0  0  0  0
  140.0320   76.3420  222.2590 C   0  0  0  0  0  0  0  0  0  0  0  0
  140.4270   73.5740  222.3370 N   0  0  0  0  0  0  0  0  0  0  0  0
  140.5800   72.2480  222.5340 C   0  0  0  0  0  0  0  0  0  0  0  0
  140.0600   71.5790  223.6850 N   0  0  0  0  0  0  0  0  0  0  0  0
  138.9080   70.7400  223.5740 C   0  0  0  0  0  0  0  0  0  0  0  0
  139.2170   69.3460  224.0580 C   0  0  0  0  0  0  0  0  0  0  0  0
  139.7650   69.4610  225.4480 C   0  0  0  0  0  0  0  0  0  0  0  0
  139.5830   68.4230  226.3460 C   0  0  0  0  0  0  0  0  0  0  0  0
  140.0820   68.5090  227.6340 C   0  0  0  0  0  0  0  0  0  0  0  0
  140.7680   69.6370  228.0310 C   0  0  0  0  0  0  0  0  0  0  0  0
  140.9620   70.6830  227.1520 C   0  0  0  0  0  0  0  0  0  0  0  0
  140.4590   70.5890  225.8660 C   0  0  0  0  0  0  0  0  0  0  0  0
  140.7000   71.7460  224.9690 C   0  0  0  0  0  0  0  0  0  0  0  0
  141.2500   71.5610  221.5990 N   0  0  0  0  0  0  0  0  0  0  0  0
  142.5000   71.8630  218.1540 C   0  0  0  0  0  0  0  0  0  0  0  0
  143.8580   71.7430  217.5490 C   0  0  0  0  0  0  0  0  0  0  0  0
  147.4130   69.6510  218.6350 H   0  0  0  0  0  0  0  0  0  0  0  0
  147.0910   68.8390  217.1300 H   0  0  0  0  0  0  0  0  0  0  0  0
  146.4138   71.4465  217.7497 H   0  0  0  0  0  0  0  0  0  0  0  0
  146.0031   70.4836  216.2969 H   0  0  0  0  0  0  0  0  0  0  0  0
  143.9825   69.6152  217.3511 H   0  0  0  0  0  0  0  0  0  0  0  0
  144.9119   69.1202  219.5138 H   0  0  0  0  0  0  0  0  0  0  0  0
  145.1102   70.8942  219.8525 H   0  0  0  0  0  0  0  0  0  0  0  0
  142.5460   69.3280  219.5448 H   0  0  0  0  0  0  0  0  0  0  0  0
  143.1954   70.1629  221.0114 H   0  0  0  0  0  0  0  0  0  0  0  0
  141.5683   75.7333  219.2644 H   0  0  0  0  0  0  0  0  0  0  0  0
  140.2028   76.8390  219.5220 H   0  0  0  0  0  0  0  0  0  0  0  0
  142.9924   76.9758  220.8371 H   0  0  0  0  0  0  0  0  0  0  0  0
  142.2909   78.1581  219.6922 H   0  0  0  0  0  0  0  0  0  0  0  0
  141.9750   79.8981  219.6404 H   0  0  0  0  0  0  0  0  0  0  0  0
  141.5496   82.3177  219.6450 H   0  0  0  0  0  0  0  0  0  0  0  0
  140.5445   83.4422  221.6094 H   0  0  0  0  0  0  0  0  0  0  0  0
  139.9650   82.0582  223.5928 H   0  0  0  0  0  0  0  0  0  0  0  0
  140.3822   79.6303  223.5984 H   0  0  0  0  0  0  0  0  0  0  0  0
  141.9709   76.7534  223.1090 H   0  0  0  0  0  0  0  0  0  0  0  0
  140.7120   77.9035  223.6020 H   0  0  0  0  0  0  0  0  0  0  0  0
  139.7250   75.6539  223.0604 H   0  0  0  0  0  0  0  0  0  0  0  0
  139.1198   76.8587  221.9259 H   0  0  0  0  0  0  0  0  0  0  0  0
  138.0941   71.1615  224.1821 H   0  0  0  0  0  0  0  0  0  0  0  0
  138.6071   70.6895  222.5172 H   0  0  0  0  0  0  0  0  0  0  0  0
  138.2994   68.7393  224.0654 H   0  0  0  0  0  0  0  0  0  0  0  0
  139.9462   68.8589  223.3939 H   0  0  0  0  0  0  0  0  0  0  0  0
  139.0365   67.5212  226.0327 H   0  0  0  0  0  0  0  0  0  0  0  0
  139.9315   67.6788  228.3397 H   0  0  0  0  0  0  0  0  0  0  0  0
  141.1634   69.7037  229.0553 H   0  0  0  0  0  0  0  0  0  0  0  0
  141.5106   71.5819  227.4700 H   0  0  0  0  0  0  0  0  0  0  0  0
  140.3046   72.6543  225.4472 H   0  0  0  0  0  0  0  0  0  0  0  0
  141.7841   71.8243  224.8001 H   0  0  0  0  0  0  0  0  0  0  0  0
  141.7959   71.2617  217.5601 H   0  0  0  0  0  0  0  0  0  0  0  0
  142.2282   72.9289  218.1511 H   0  0  0  0  0  0  0  0  0  0  0  0
  143.7658   71.8391  216.4571 H   0  0  0  0  0  0  0  0  0  0  0  0
  144.4828   72.5402  217.9780 H   0  0  0  0  0  0  0  0  0  0  0  0
  1  2  1  0
  2  3  1  0
  3  4  1  0
  4  5  1  0
  5  6  1  0
  6  7  1  0
  7  8  2  0
  8  9  1  0
  9 10  1  0
 10 11  1  0
 11 12  1  0
 12 13  1  0
 13 14  1  0
 14 15  2  0
 15 16  1  0
 16 17  2  0
 17 18  1  0
 18 19  2  0
 13 20  1  0
 20 21  1  0
  9 22  2  0
 22 23  1  0
 23 24  1  0
 24 25  1  0
 25 26  1  0
 26 27  1  0
 27 28  2  0
 28 29  1  0
 29 30  2  0
 30 31  1  0
 31 32  2  0
 32 33  1  0
 23 34  2  0
  6 35  1  0
 35 36  1  0
 36  3  1  0
 34  7  1  0
 21 10  1  0
 33 24  1  0
 19 14  1  0
 32 27  1  0
  1 37  1  0
  1 38  1  0
  2 39  1  0
  2 40  1  0
  3 41  1  0
  4 42  1  0
  4 43  1  0
  5 44  1  0
  5 45  1  0
 11 46  1  0
 11 47  1  0
 12 48  1  0
 12 49  1  0
 15 50  1  0
 16 51  1  0
 17 52  1  0
 18 53  1  0
 19 54  1  0
 20 55  1  0
 20 56  1  0
 21 57  1  0
 21 58  1  0
 25 59  1  0
 25 60  1  0
 26 61  1  0
 26 62  1  0
 28 63  1  0
 29 64  1  0
 30 65  1  0
 31 66  1  0
 33 67  1  0
 33 68  1  0
 35 69  1  0
 35 70  1  0
 36 71  1  0
 36 72  1  0
M  END
>  <smiles>  (32) 
NCC1CCN(c2nc(N3CCN(c4ccccc4)CC3)nc(N3CCc4ccccc4C3)n2)CC1

>  <score_type>  (32) 
oracle

>  <origin>  (32) 
autodockgpu

>  <m_score__min__energy>  (32) 
-10.050000000000001

>  <m_primary>  (32) 
energy

>  <rmsd>  (32) 
8.893551201246092

>  <m_score__min__rmsd>  (32) 
8.893551201246092

>  <meeko>  (32) 
{"free_energy": -9.05, "intermolecular_energy": -10.84, "internal_energy": -1.21, "cluster_size": 26, "cluster_id": 1, "rank_in_cluster": 24}

>  <energy>  (32) 
-9.54

>  <cluster_rmsd>  (32) 
0.23

>  <cluster>  (32) 
2

$$$$

     RDKit          3D

 72 77  0  0  0  0  0  0  0  0999 V2000
  142.6520   79.2470  222.4240 N   0  0  0  0  0  0  0  0  0  0  0  0
  141.2410   79.4870  222.1770 C   0  0  0  0  0  0  0  0  0  0  0  0
  140.6600   78.2790  221.4710 C   0  0  0  0  0  0  0  0  0  0  0  0
  141.7840   77.4910  220.8330 C   0  0  0  0  0  0  0  0  0  0  0  0
  141.3080   76.2000  220.2530 C   0  0  0  0  0  0  0  0  0  0  0  0
  140.5150   75.4660  221.2050 N   0  0  0  0  0  0  0  0  0  0  0  0
  140.7560   74.0700  221.3890 C   0  0  0  0  0  0  0  0  0  0  0  0
  141.4460   73.3810  220.4420 N   0  0  0  0  0  0  0  0  0  0  0  0
  141.6700   72.0670  220.6180 C   0  0  0  0  0  0  0  0  0  0  0  0
  142.3820   71.2620  219.6850 N   0  0  0  0  0  0  0  0  0  0  0  0
  141.9720   69.9150  219.3460 C   0  0  0  0  0  0  0  0  0  0  0  0
  143.1430   68.9920  219.7130 C   0  0  0  0  0  0  0  0  0  0  0  0
  144.3550   69.5120  219.0910 N   0  0  0  0  0  0  0  0  0  0  0  0
  145.1470   68.7750  218.1790 C   0  0  0  0  0  0  0  0  0  0  0  0
  145.7950   69.3950  217.1050 C   0  0  0  0  0  0  0  0  0  0  0  0
  146.5810   68.6780  216.2160 C   0  0  0  0  0  0  0  0  0  0  0  0
  146.7610   67.3260  216.3430 C   0  0  0  0  0  0  0  0  0  0  0  0
  146.1330   66.6970  217.3900 C   0  0  0  0  0  0  0  0  0  0  0  0
  145.3430   67.4160  218.2860 C   0  0  0  0  0  0  0  0  0  0  0  0
  144.7070   70.8770  219.4970 C   0  0  0  0  0  0  0  0  0  0  0  0
  143.5870   71.7730  219.0110 C   0  0  0  0  0  0  0  0  0  0  0  0
  141.2090   71.4680  221.7230 N   0  0  0  0  0  0  0  0  0  0  0  0
  140.5220   72.1310  222.6760 C   0  0  0  0  0  0  0  0  0  0  0  0
  140.0320   71.4890  223.8550 N   0  0  0  0  0  0  0  0  0  0  0  0
  138.8820   70.6420  223.7910 C   0  0  0  0  0  0  0  0  0  0  0  0
  139.2100   69.2620  224.3030 C   0  0  0  0  0  0  0  0  0  0  0  0
  139.7880   69.4140  225.6770 C   0  0  0  0  0  0  0  0  0  0  0  0
  139.6320   68.3990  226.6050 C   0  0  0  0  0  0  0  0  0  0  0  0
  140.1580   68.5210  227.8780 C   0  0  0  0  0  0  0  0  0  0  0  0
  140.8470   69.6620  228.2320 C   0  0  0  0  0  0  0  0  0  0  0  0
  141.0150   70.6860  227.3230 C   0  0  0  0  0  0  0  0  0  0  0  0
  140.4840   70.5560  226.0510 C   0  0  0  0  0  0  0  0  0  0  0  0
  140.6990   71.6920  225.1200 C   0  0  0  0  0  0  0  0  0  0  0  0
  140.3080   73.4390  222.4820 N   0  0  0  0  0  0  0  0  0  0  0  0
  139.4820   76.1290  221.9700 C   0  0  0  0  0  0  0  0  0  0  0  0
  139.9170   77.4550  222.4970 C   0  0  0  0  0  0  0  0  0  0  0  0
  143.2510   79.4430  221.6060 H   0  0  0  0  0  0  0  0  0  0  0  0
  142.7450   78.2620  222.7790 H   0  0  0  0  0  0  0  0  0  0  0  0
  140.7192   79.6439  223.1326 H   0  0  0  0  0  0  0  0  0  0  0  0
  141.1168   80.3830  221.5511 H   0  0  0  0  0  0  0  0  0  0  0  0
  139.9615   78.5746  220.6743 H   0  0  0  0  0  0  0  0  0  0  0  0
  142.2306   78.0967  220.0307 H   0  0  0  0  0  0  0  0  0  0  0  0
  142.5209   77.2586  221.6159 H   0  0  0  0  0  0  0  0  0  0  0  0
  140.6975   76.4095  219.3623 H   0  0  0  0  0  0  0  0  0  0  0  0
  142.1850   75.5922  219.9858 H   0  0  0  0  0  0  0  0  0  0  0  0
  141.0754   69.6361  219.9190 H   0  0  0  0  0  0  0  0  0  0  0  0
  141.7241   69.8339  218.2774 H   0  0  0  0  0  0  0  0  0  0  0  0
  143.2679   68.9677  220.8056 H   0  0  0  0  0  0  0  0  0  0  0  0
  142.9443   67.9709  219.3553 H   0  0  0  0  0  0  0  0  0  0  0  0
  145.6778   70.4794  216.9623 H   0  0  0  0  0  0  0  0  0  0  0  0
  147.0727   69.2085  215.3873 H   0  0  0  0  0  0  0  0  0  0  0  0
  147.3856   66.7647  215.6325 H   0  0  0  0  0  0  0  0  0  0  0  0
  146.2549   65.6119  217.5234 H   0  0  0  0  0  0  0  0  0  0  0  0
  144.8566   66.8760  219.1117 H   0  0  0  0  0  0  0  0  0  0  0  0
  144.7938   70.9373  220.5919 H   0  0  0  0  0  0  0  0  0  0  0  0
  145.6738   71.1819  219.0701 H   0  0  0  0  0  0  0  0  0  0  0  0
  143.7761   72.8190  219.2943 H   0  0  0  0  0  0  0  0  0  0  0  0
  143.4887   71.7602  217.9155 H   0  0  0  0  0  0  0  0  0  0  0  0
  138.0796   71.0747  224.4066 H   0  0  0  0  0  0  0  0  0  0  0  0
  138.5573   70.5635  222.7430 H   0  0  0  0  0  0  0  0  0  0  0  0
  138.2964   68.6509  224.3459 H   0  0  0  0  0  0  0  0  0  0  0  0
  139.9274   68.7626  223.6352 H   0  0  0  0  0  0  0  0  0  0  0  0
  139.0843   67.4864  226.3271 H   0  0  0  0  0  0  0  0  0  0  0  0
  140.0270   67.7085  228.6078 H   0  0  0  0  0  0  0  0  0  0  0  0
  141.2650   69.7561  229.2451 H   0  0  0  0  0  0  0  0  0  0  0  0
  141.5648   71.5958  227.6057 H   0  0  0  0  0  0  0  0  0  0  0  0
  140.3089   72.6100  225.5838 H   0  0  0  0  0  0  0  0  0  0  0  0
  141.7787   71.7721  224.9256 H   0  0  0  0  0  0  0  0  0  0  0  0
  138.6054   76.2781  221.3224 H   0  0  0  0  0  0  0  0  0  0  0  0
  139.2460   75.4896  222.8334 H   0  0  0  0  0  0  0  0  0  0  0  0
  139.0262   78.0145  222.8187 H   0  0  0  0  0  0  0  0  0  0  0  0
  140.6065   77.2684  223.3335 H   0  0  0  0  0  0  0  0  0  0  0  0
  1  2  1  0
  2  3  1  0
  3  4  1  0
  4  5  1  0
  5  6  1  0
  6  7  1  0
  7  8  2  0
  8  9  1  0
  9 10  1  0
 10 11  1  0
 11 12  1  0
 12 13  1  0
 13 14  1  0
 14 15  2  0
 15 16  1  0
 16 17  2  0
 17 18  1  0
 18 19  2  0
 13 20  1  0
 20 21  1  0
  9 22  2  0
 22 23  1  0
 23 24  1  0
 24 25  1  0
 25 26  1  0
 26 27  1  0
 27 28  2  0
 28 29  1  0
 29 30  2  0
 30 31  1  0
 31 32  2  0
 32 33  1  0
 23 34  2  0
  6 35  1  0
 35 36  1  0
 36  3  1  0
 34  7  1  0
 21 10  1  0
 33 24  1  0
 19 14  1  0
 32 27  1  0
  1 37  1  0
  1 38  1  0
  2 39  1  0
  2 40  1  0
  3 41  1  0
  4 42  1  0
  4 43  1  0
  5 44  1  0
  5 45  1  0
 11 46  1  0
 11 47  1  0
 12 48  1  0
 12 49  1  0
 15 50  1  0
 16 51  1  0
 17 52  1  0
 18 53  1  0
 19 54  1  0
 20 55  1  0
 20 56  1  0
 21 57  1  0
 21 58  1  0
 25 59  1  0
 25 60  1  0
 26 61  1  0
 26 62  1  0
 28 63  1  0
 29 64  1  0
 30 65  1  0
 31 66  1  0
 33 67  1  0
 33 68  1  0
 35 69  1  0
 35 70  1  0
 36 71  1  0
 36 72  1  0
M  END
>  <smiles>  (33) 
NCC1CCN(c2nc(N3CCN(c4ccccc4)CC3)nc(N3CCc4ccccc4C3)n2)CC1

>  <score_type>  (33) 
oracle

>  <origin>  (33) 
autodockgpu

>  <m_score__min__energy>  (33) 
-10.050000000000001

>  <m_primary>  (33) 
energy

>  <rmsd>  (33) 
8.704634807473873

>  <m_score__min__rmsd>  (33) 
8.704634807473873

>  <meeko>  (33) 
{"free_energy": -9.54, "intermolecular_energy": -11.33, "internal_energy": -1.19, "cluster_size": 13, "cluster_id": 2, "rank_in_cluster": 6}

>  <energy>  (33) 
-9.52

>  <cluster_rmsd>  (33) 
0.37

>  <cluster>  (33) 
2

$$$$

     RDKit          3D

 72 77  0  0  0  0  0  0  0  0999 V2000
  145.8770   67.8920  220.1150 N   0  0  0  0  0  0  0  0  0  0  0  0
  146.2530   68.9180  219.1590 C   0  0  0  0  0  0  0  0  0  0  0  0
  145.0420   69.7820  218.8730 C   0  0  0  0  0  0  0  0  0  0  0  0
  143.8420   69.2060  219.5920 C   0  0  0  0  0  0  0  0  0  0  0  0
  142.6450   70.0910  219.4900 C   0  0  0  0  0  0  0  0  0  0  0  0
  142.9720   71.4480  219.8440 N   0  0  0  0  0  0  0  0  0  0  0  0
  142.1100   72.1700  220.7250 C   0  0  0  0  0  0  0  0  0  0  0  0
  141.8910   73.4940  220.5100 N   0  0  0  0  0  0  0  0  0  0  0  0
  141.0790   74.1700  221.3410 C   0  0  0  0  0  0  0  0  0  0  0  0
  140.7890   75.5560  221.1970 N   0  0  0  0  0  0  0  0  0  0  0  0
  141.1700   76.3150  220.0240 C   0  0  0  0  0  0  0  0  0  0  0  0
  142.0870   77.4480  220.5110 C   0  0  0  0  0  0  0  0  0  0  0  0
  141.4120   78.1570  221.5910 N   0  0  0  0  0  0  0  0  0  0  0  0
  141.1120   79.5390  221.5540 C   0  0  0  0  0  0  0  0  0  0  0  0
  140.5620   80.1990  222.6590 C   0  0  0  0  0  0  0  0  0  0  0  0
  140.2770   81.5550  222.6300 C   0  0  0  0  0  0  0  0  0  0  0  0
  140.5190   82.3190  221.5190 C   0  0  0  0  0  0  0  0  0  0  0  0
  141.0580   81.6900  220.4230 C   0  0  0  0  0  0  0  0  0  0  0  0
  141.3460   80.3270  220.4490 C   0  0  0  0  0  0  0  0  0  0  0  0
  141.0710   77.3200  222.7460 C   0  0  0  0  0  0  0  0  0  0  0  0
  140.0740   76.2920  222.2540 C   0  0  0  0  0  0  0  0  0  0  0  0
  140.5040   73.5230  222.3610 N   0  0  0  0  0  0  0  0  0  0  0  0
  140.7050   72.2090  222.5950 C   0  0  0  0  0  0  0  0  0  0  0  0
  140.0890   71.5220  223.6850 N   0  0  0  0  0  0  0  0  0  0  0  0
  138.8710   70.7980  223.4890 C   0  0  0  0  0  0  0  0  0  0  0  0
  139.0400   69.3550  223.8930 C   0  0  0  0  0  0  0  0  0  0  0  0
  139.5480   69.3360  225.3030 C   0  0  0  0  0  0  0  0  0  0  0  0
  139.2440   68.2670  226.1280 C   0  0  0  0  0  0  0  0  0  0  0  0
  139.7040   68.2310  227.4320 C   0  0  0  0  0  0  0  0  0  0  0  0
  140.4720   69.2670  227.9200 C   0  0  0  0  0  0  0  0  0  0  0  0
  140.7870   70.3410  227.1140 C   0  0  0  0  0  0  0  0  0  0  0  0
  140.3230   70.3710  225.8110 C   0  0  0  0  0  0  0  0  0  0  0  0
  140.6960   71.5530  224.9960 C   0  0  0  0  0  0  0  0  0  0  0  0
  141.5180   71.5540  221.7570 N   0  0  0  0  0  0  0  0  0  0  0  0
  144.1600   72.0820  219.3160 C   0  0  0  0  0  0  0  0  0  0  0  0
  145.3520   71.1850  219.3450 C   0  0  0  0  0  0  0  0  0  0  0  0
  146.6800   67.3460  220.4680 H   0  0  0  0  0  0  0  0  0  0  0  0
  145.1380   67.2970  219.6630 H   0  0  0  0  0  0  0  0  0  0  0  0
  147.0591   69.5377  219.5788 H   0  0  0  0  0  0  0  0  0  0  0  0
  146.6088   68.4513  218.2286 H   0  0  0  0  0  0  0  0  0  0  0  0
  144.8095   69.8078  217.7982 H   0  0  0  0  0  0  0  0  0  0  0  0
  143.5989   68.2290  219.1488 H   0  0  0  0  0  0  0  0  0  0  0  0
  144.1007   69.1096  220.6568 H   0  0  0  0  0  0  0  0  0  0  0  0
  142.2696   70.0699  218.4563 H   0  0  0  0  0  0  0  0  0  0  0  0
  141.8780   69.7231  220.1874 H   0  0  0  0  0  0  0  0  0  0  0  0
  141.7082   75.6704  219.3135 H   0  0  0  0  0  0  0  0  0  0  0  0
  140.2856   76.7158  219.5071 H   0  0  0  0  0  0  0  0  0  0  0  0
  143.0342   77.0267  220.8787 H   0  0  0  0  0  0  0  0  0  0  0  0
  142.3038   78.1396  219.6836 H   0  0  0  0  0  0  0  0  0  0  0  0
  140.3505   79.6266  223.5742 H   0  0  0  0  0  0  0  0  0  0  0  0
  139.8449   82.0304  223.5229 H   0  0  0  0  0  0  0  0  0  0  0  0
  140.2905   83.3949  221.5050 H   0  0  0  0  0  0  0  0  0  0  0  0
  141.2651   82.2707  219.5120 H   0  0  0  0  0  0  0  0  0  0  0  0
  141.7777   79.8615  219.5507 H   0  0  0  0  0  0  0  0  0  0  0  0
  141.9718   76.8208  223.1325 H   0  0  0  0  0  0  0  0  0  0  0  0
  140.6490   77.9234  223.5632 H   0  0  0  0  0  0  0  0  0  0  0  0
  139.7813   75.6139  223.0692 H   0  0  0  0  0  0  0  0  0  0  0  0
  139.1462   76.7541  221.8856 H   0  0  0  0  0  0  0  0  0  0  0  0
  138.0774   71.2537  224.0994 H   0  0  0  0  0  0  0  0  0  0  0  0
  138.6021   70.8385  222.4231 H   0  0  0  0  0  0  0  0  0  0  0  0
  138.0731   68.8336  223.8356 H   0  0  0  0  0  0  0  0  0  0  0  0
  139.7463   68.8457  223.2209 H   0  0  0  0  0  0  0  0  0  0  0  0
  138.6311   67.4386  225.7432 H   0  0  0  0  0  0  0  0  0  0  0  0
  139.4573   67.3765  228.0793 H   0  0  0  0  0  0  0  0  0  0  0  0
  140.8354   69.2368  228.9578 H   0  0  0  0  0  0  0  0  0  0  0  0
  141.4014   71.1660  227.5036 H   0  0  0  0  0  0  0  0  0  0  0  0
  140.3656   72.4628  225.5185 H   0  0  0  0  0  0  0  0  0  0  0  0
  141.7880   71.5430  224.8643 H   0  0  0  0  0  0  0  0  0  0  0  0
  143.9676   72.3781  218.2742 H   0  0  0  0  0  0  0  0  0  0  0  0
  144.3829   72.9519  219.9513 H   0  0  0  0  0  0  0  0  0  0  0  0
  146.1286   71.6115  218.6931 H   0  0  0  0  0  0  0  0  0  0  0  0
  145.6888   71.1158  220.3899 H   0  0  0  0  0  0  0  0  0  0  0  0
  1  2  1  0
  2  3  1  0
  3  4  1  0
  4  5  1  0
  5  6  1  0
  6  7  1  0
  7  8  2  0
  8  9  1  0
  9 10  1  0
 10 11  1  0
 11 12  1  0
 12 13  1  0
 13 14  1  0
 14 15  2  0
 15 16  1  0
 16 17  2  0
 17 18  1  0
 18 19  2  0
 13 20  1  0
 20 21  1  0
  9 22  2  0
 22 23  1  0
 23 24  1  0
 24 25  1  0
 25 26  1  0
 26 27  1  0
 27 28  2  0
 28 29  1  0
 29 30  2  0
 30 31  1  0
 31 32  2  0
 32 33  1  0
 23 34  2  0
  6 35  1  0
 35 36  1  0
 36  3  1  0
 34  7  1  0
 21 10  1  0
 33 24  1  0
 19 14  1  0
 32 27  1  0
  1 37  1  0
  1 38  1  0
  2 39  1  0
  2 40  1  0
  3 41  1  0
  4 42  1  0
  4 43  1  0
  5 44  1  0
  5 45  1  0
 11 46  1  0
 11 47  1  0
 12 48  1  0
 12 49  1  0
 15 50  1  0
 16 51  1  0
 17 52  1  0
 18 53  1  0
 19 54  1  0
 20 55  1  0
 20 56  1  0
 21 57  1  0
 21 58  1  0
 25 59  1  0
 25 60  1  0
 26 61  1  0
 26 62  1  0
 28 63  1  0
 29 64  1  0
 30 65  1  0
 31 66  1  0
 33 67  1  0
 33 68  1  0
 35 69  1  0
 35 70  1  0
 36 71  1  0
 36 72  1  0
M  END
>  <smiles>  (34) 
NCC1CCN(c2nc(N3CCN(c4ccccc4)CC3)nc(N3CCc4ccccc4C3)n2)CC1

>  <score_type>  (34) 
oracle

>  <origin>  (34) 
autodockgpu

>  <m_score__min__energy>  (34) 
-10.050000000000001

>  <m_primary>  (34) 
energy

>  <rmsd>  (34) 
9.020172799852714

>  <m_score__min__rmsd>  (34) 
9.020172799852714

>  <meeko>  (34) 
{"free_energy": -10.02, "intermolecular_energy": -11.81, "internal_energy": -1.18, "cluster_size": 26, "cluster_id": 1, "rank_in_cluster": 6}

>  <energy>  (34) 
-9.5

>  <cluster_rmsd>  (34) 
0.29

>  <cluster>  (34) 
2

$$$$

     RDKit          3D

 72 77  0  0  0  0  0  0  0  0999 V2000
  139.5060   67.0300  226.2460 N   0  0  0  0  0  0  0  0  0  0  0  0
  140.1100   68.1830  226.8910 C   0  0  0  0  0  0  0  0  0  0  0  0
  139.6180   69.4380  226.2010 C   0  0  0  0  0  0  0  0  0  0  0  0
  140.7380   70.4540  226.1640 C   0  0  0  0  0  0  0  0  0  0  0  0
  140.3800   71.6580  225.3570 C   0  0  0  0  0  0  0  0  0  0  0  0
  139.8570   71.2820  224.0690 N   0  0  0  0  0  0  0  0  0  0  0  0
  140.3280   71.9520  222.8990 C   0  0  0  0  0  0  0  0  0  0  0  0
  141.0310   71.2550  221.9670 N   0  0  0  0  0  0  0  0  0  0  0  0
  141.4730   71.8890  220.8670 C   0  0  0  0  0  0  0  0  0  0  0  0
  142.2160   71.2450  219.8370 N   0  0  0  0  0  0  0  0  0  0  0  0
  141.8180   69.9750  219.2680 C   0  0  0  0  0  0  0  0  0  0  0  0
  142.9780   68.9980  219.5160 C   0  0  0  0  0  0  0  0  0  0  0  0
  144.2090   69.6080  219.0270 N   0  0  0  0  0  0  0  0  0  0  0  0
  145.0310   69.0280  218.0320 C   0  0  0  0  0  0  0  0  0  0  0  0
  145.5420   69.7850  216.9720 C   0  0  0  0  0  0  0  0  0  0  0  0
  146.3570   69.2220  216.0020 C   0  0  0  0  0  0  0  0  0  0  0  0
  146.7030   67.8970  216.0320 C   0  0  0  0  0  0  0  0  0  0  0  0
  146.2110   67.1360  217.0640 C   0  0  0  0  0  0  0  0  0  0  0  0
  145.3920   67.7000  218.0410 C   0  0  0  0  0  0  0  0  0  0  0  0
  144.5460   70.8860  219.6640 C   0  0  0  0  0  0  0  0  0  0  0  0
  143.4420   71.8550  219.2970 C   0  0  0  0  0  0  0  0  0  0  0  0
  141.2110   73.1920  220.7150 N   0  0  0  0  0  0  0  0  0  0  0  0
  140.5160   73.9050  221.6250 C   0  0  0  0  0  0  0  0  0  0  0  0
  140.2370   75.2970  221.4590 N   0  0  0  0  0  0  0  0  0  0  0  0
  138.8860   75.7640  221.4200 C   0  0  0  0  0  0  0  0  0  0  0  0
  138.6520   76.8000  222.4900 C   0  0  0  0  0  0  0  0  0  0  0  0
  139.6820   77.8740  222.3130 C   0  0  0  0  0  0  0  0  0  0  0  0
  139.3940   79.1720  222.6990 C   0  0  0  0  0  0  0  0  0  0  0  0
  140.3310   80.1780  222.5440 C   0  0  0  0  0  0  0  0  0  0  0  0
  141.5650   79.8900  222.0020 C   0  0  0  0  0  0  0  0  0  0  0  0
  141.8740   78.6040  221.6120 C   0  0  0  0  0  0  0  0  0  0  0  0
  140.9300   77.6030  221.7690 C   0  0  0  0  0  0  0  0  0  0  0  0
  141.3220   76.2410  221.3300 C   0  0  0  0  0  0  0  0  0  0  0  0
  140.0840   73.2560  222.7140 N   0  0  0  0  0  0  0  0  0  0  0  0
  138.8620   70.2390  223.9540 C   0  0  0  0  0  0  0  0  0  0  0  0
  139.1690   69.0550  224.8090 C   0  0  0  0  0  0  0  0  0  0  0  0
  139.3610   66.2310  226.8850 H   0  0  0  0  0  0  0  0  0  0  0  0
  140.0990   66.7900  225.4120 H   0  0  0  0  0  0  0  0  0  0  0  0
  139.8217   68.2068  227.9523 H   0  0  0  0  0  0  0  0  0  0  0  0
  141.2059   68.1211  226.8198 H   0  0  0  0  0  0  0  0  0  0  0  0
  138.7721   69.8898  226.7399 H   0  0  0  0  0  0  0  0  0  0  0  0
  140.9629   70.7712  227.1930 H   0  0  0  0  0  0  0  0  0  0  0  0
  141.6105   69.9782  225.6924 H   0  0  0  0  0  0  0  0  0  0  0  0
  139.6191   72.2398  225.8978 H   0  0  0  0  0  0  0  0  0  0  0  0
  141.2887   72.2585  225.2033 H   0  0  0  0  0  0  0  0  0  0  0  0
  140.9033   69.6099  219.7580 H   0  0  0  0  0  0  0  0  0  0  0  0
  141.6049   70.0720  218.1932 H   0  0  0  0  0  0  0  0  0  0  0  0
  143.0674   68.7939  220.5932 H   0  0  0  0  0  0  0  0  0  0  0  0
  142.7918   68.0503  218.9895 H   0  0  0  0  0  0  0  0  0  0  0  0
  145.2907   70.8539  216.9066 H   0  0  0  0  0  0  0  0  0  0  0  0
  146.7357   69.8561  215.1868 H   0  0  0  0  0  0  0  0  0  0  0  0
  147.3507   67.4588  215.2584 H   0  0  0  0  0  0  0  0  0  0  0  0
  146.4665   66.0676  217.1204 H   0  0  0  0  0  0  0  0  0  0  0  0
  145.0191   67.0574  218.8522 H   0  0  0  0  0  0  0  0  0  0  0  0
  144.5970   70.7643  220.7561 H   0  0  0  0  0  0  0  0  0  0  0  0
  145.5258   71.2530  219.3245 H   0  0  0  0  0  0  0  0  0  0  0  0
  143.6206   72.8387  219.7558 H   0  0  0  0  0  0  0  0  0  0  0  0
  143.3800   72.0243  218.2119 H   0  0  0  0  0  0  0  0  0  0  0  0
  138.6860   76.2103  220.4347 H   0  0  0  0  0  0  0  0  0  0  0  0
  138.2113   74.9133  221.5962 H   0  0  0  0  0  0  0  0  0  0  0  0
  137.6435   77.2265  222.3852 H   0  0  0  0  0  0  0  0  0  0  0  0
  138.7325   76.3482  223.4897 H   0  0  0  0  0  0  0  0  0  0  0  0
  138.4107   79.4057  223.1331 H   0  0  0  0  0  0  0  0  0  0  0  0
  140.0914   81.2062  222.8529 H   0  0  0  0  0  0  0  0  0  0  0  0
  142.3084   80.6915  221.8797 H   0  0  0  0  0  0  0  0  0  0  0  0
  142.8598   78.3756  221.1808 H   0  0  0  0  0  0  0  0  0  0  0  0
  141.6321   76.2834  220.2755 H   0  0  0  0  0  0  0  0  0  0  0  0
  142.1462   75.9009  221.9742 H   0  0  0  0  0  0  0  0  0  0  0  0
  137.8866   70.6480  224.2560 H   0  0  0  0  0  0  0  0  0  0  0  0
  138.8541   69.9006  222.9074 H   0  0  0  0  0  0  0  0  0  0  0  0
  138.2636   68.4356  224.8898 H   0  0  0  0  0  0  0  0  0  0  0  0
  139.9963   68.5083  224.3329 H   0  0  0  0  0  0  0  0  0  0  0  0
  1  2  1  0
  2  3  1  0
  3  4  1  0
  4  5  1  0
  5  6  1  0
  6  7  1  0
  7  8  2  0
  8  9  1  0
  9 10  1  0
 10 11  1  0
 11 12  1  0
 12 13  1  0
 13 14  1  0
 14 15  2  0
 15 16  1  0
 16 17  2  0
 17 18  1  0
 18 19  2  0
 13 20  1  0
 20 21  1  0
  9 22  2  0
 22 23  1  0
 23 24  1  0
 24 25  1  0
 25 26  1  0
 26 27  1  0
 27 28  2  0
 28 29  1  0
 29 30  2  0
 30 31  1  0
 31 32  2  0
 32 33  1  0
 23 34  2  0
  6 35  1  0
 35 36  1  0
 36  3  1  0
 34  7  1  0
 21 10  1  0
 33 24  1  0
 19 14  1  0
 32 27  1  0
  1 37  1  0
  1 38  1  0
  2 39  1  0
  2 40  1  0
  3 41  1  0
  4 42  1  0
  4 43  1  0
  5 44  1  0
  5 45  1  0
 11 46  1  0
 11 47  1  0
 12 48  1  0
 12 49  1  0
 15 50  1  0
 16 51  1  0
 17 52  1  0
 18 53  1  0
 19 54  1  0
 20 55  1  0
 20 56  1  0
 21 57  1  0
 21 58  1  0
 25 59  1  0
 25 60  1  0
 26 61  1  0
 26 62  1  0
 28 63  1  0
 29 64  1  0
 30 65  1  0
 31 66  1  0
 33 67  1  0
 33 68  1  0
 35 69  1  0
 35 70  1  0
 36 71  1  0
 36 72  1  0
M  END
>  <smiles>  (35) 
NCC1CCN(c2nc(N3CCN(c4ccccc4)CC3)nc(N3CCc4ccccc4C3)n2)CC1

>  <score_type>  (35) 
oracle

>  <origin>  (35) 
autodockgpu

>  <m_score__min__energy>  (35) 
-10.050000000000001

>  <m_primary>  (35) 
energy

>  <rmsd>  (35) 
8.707776734454514

>  <m_score__min__rmsd>  (35) 
8.707776734454514

>  <meeko>  (35) 
{"free_energy": -8.63, "intermolecular_energy": -10.42, "internal_energy": -1.2, "cluster_size": 6, "cluster_id": 4, "rank_in_cluster": 6}

>  <energy>  (35) 
-9.49

>  <cluster_rmsd>  (35) 
0.44

>  <cluster>  (35) 
2

$$$$

     RDKit          3D

 72 77  0  0  0  0  0  0  0  0999 V2000
  139.5950   67.0320  226.1470 N   0  0  0  0  0  0  0  0  0  0  0  0
  140.0420   68.3070  226.6820 C   0  0  0  0  0  0  0  0  0  0  0  0
  139.5140   69.4160  225.7960 C   0  0  0  0  0  0  0  0  0  0  0  0
  140.3980   70.6340  225.9490 C   0  0  0  0  0  0  0  0  0  0  0  0
  140.0370   71.7170  224.9870 C   0  0  0  0  0  0  0  0  0  0  0  0
  139.9360   71.2050  223.6450 N   0  0  0  0  0  0  0  0  0  0  0  0
  140.5530   71.9190  222.5740 C   0  0  0  0  0  0  0  0  0  0  0  0
  140.3150   73.2500  222.4330 N   0  0  0  0  0  0  0  0  0  0  0  0
  140.8980   73.9200  221.4240 C   0  0  0  0  0  0  0  0  0  0  0  0
  140.7100   75.3120  221.1950 N   0  0  0  0  0  0  0  0  0  0  0  0
  141.1780   75.9750  219.9960 C   0  0  0  0  0  0  0  0  0  0  0  0
  142.1580   77.0680  220.4500 C   0  0  0  0  0  0  0  0  0  0  0  0
  141.5030   77.8830  221.4670 N   0  0  0  0  0  0  0  0  0  0  0  0
  141.3020   79.2780  221.3460 C   0  0  0  0  0  0  0  0  0  0  0  0
  141.4620   80.1380  222.4370 C   0  0  0  0  0  0  0  0  0  0  0  0
  141.2770   81.5070  222.3180 C   0  0  0  0  0  0  0  0  0  0  0  0
  140.9260   82.0860  221.1270 C   0  0  0  0  0  0  0  0  0  0  0  0
  140.7630   81.2590  220.0430 C   0  0  0  0  0  0  0  0  0  0  0  0
  140.9500   79.8820  220.1600 C   0  0  0  0  0  0  0  0  0  0  0  0
  141.0700   77.1370  222.6540 C   0  0  0  0  0  0  0  0  0  0  0  0
  140.0190   76.1530  222.1860 C   0  0  0  0  0  0  0  0  0  0  0  0
  141.7010   73.2600  220.5800 N   0  0  0  0  0  0  0  0  0  0  0  0
  141.9530   71.9400  220.7000 C   0  0  0  0  0  0  0  0  0  0  0  0
  142.8110   71.2380  219.7970 N   0  0  0  0  0  0  0  0  0  0  0  0
  143.7900   71.9460  219.0330 C   0  0  0  0  0  0  0  0  0  0  0  0
  145.1690   71.3960  219.2990 C   0  0  0  0  0  0  0  0  0  0  0  0
  145.1270   69.9220  219.0340 C   0  0  0  0  0  0  0  0  0  0  0  0
  146.2710   69.2670  218.6100 C   0  0  0  0  0  0  0  0  0  0  0  0
  146.2530   67.9070  218.3600 C   0  0  0  0  0  0  0  0  0  0  0  0
  145.0870   67.1910  218.5330 C   0  0  0  0  0  0  0  0  0  0  0  0
  143.9360   67.8230  218.9550 C   0  0  0  0  0  0  0  0  0  0  0  0
  143.9620   69.1850  219.2020 C   0  0  0  0  0  0  0  0  0  0  0  0
  142.6920   69.8060  219.6530 C   0  0  0  0  0  0  0  0  0  0  0  0
  141.3620   71.2900  221.7110 N   0  0  0  0  0  0  0  0  0  0  0  0
  139.2140   69.9800  223.3770 C   0  0  0  0  0  0  0  0  0  0  0  0
  139.5100   68.9090  224.3720 C   0  0  0  0  0  0  0  0  0  0  0  0
  139.5690   66.2780  226.8520 H   0  0  0  0  0  0  0  0  0  0  0  0
  140.2050   66.8070  225.3220 H   0  0  0  0  0  0  0  0  0  0  0  0
  139.6572   68.4349  227.7045 H   0  0  0  0  0  0  0  0  0  0  0  0
  141.1413   68.3385  226.7078 H   0  0  0  0  0  0  0  0  0  0  0  0
  138.4906   69.7048  226.0775 H   0  0  0  0  0  0  0  0  0  0  0  0
  140.2939   71.0209  226.9734 H   0  0  0  0  0  0  0  0  0  0  0  0
  141.4337   70.3280  225.7401 H   0  0  0  0  0  0  0  0  0  0  0  0
  139.0693   72.1502  225.2801 H   0  0  0  0  0  0  0  0  0  0  0  0
  140.8262   72.4829  225.0105 H   0  0  0  0  0  0  0  0  0  0  0  0
  141.6899   75.2554  219.3401 H   0  0  0  0  0  0  0  0  0  0  0  0
  140.3395   76.4058  219.4291 H   0  0  0  0  0  0  0  0  0  0  0  0
  143.0619   76.6041  220.8716 H   0  0  0  0  0  0  0  0  0  0  0  0
  142.4472   77.6946  219.5934 H   0  0  0  0  0  0  0  0  0  0  0  0
  141.7417   79.7178  223.4143 H   0  0  0  0  0  0  0  0  0  0  0  0
  141.4157   82.1450  223.2032 H   0  0  0  0  0  0  0  0  0  0  0  0
  140.7802   83.1730  221.0422 H   0  0  0  0  0  0  0  0  0  0  0  0
  140.4814   81.6881  219.0701 H   0  0  0  0  0  0  0  0  0  0  0  0
  140.8106   79.2529  219.2685 H   0  0  0  0  0  0  0  0  0  0  0  0
  141.9220   76.6004  223.0969 H   0  0  0  0  0  0  0  0  0  0  0  0
  140.6668   77.8129  223.4225 H   0  0  0  0  0  0  0  0  0  0  0  0
  139.6564   75.5434  223.0268 H   0  0  0  0  0  0  0  0  0  0  0  0
  139.1370   76.6558  221.7627 H   0  0  0  0  0  0  0  0  0  0  0  0
  143.5589   71.8409  217.9627 H   0  0  0  0  0  0  0  0  0  0  0  0
  143.7685   73.0066  219.3240 H   0  0  0  0  0  0  0  0  0  0  0  0
  145.8997   71.8765  218.6318 H   0  0  0  0  0  0  0  0  0  0  0  0
  145.4701   71.5935  220.3384 H   0  0  0  0  0  0  0  0  0  0  0  0
  147.2032   69.8340  218.4707 H   0  0  0  0  0  0  0  0  0  0  0  0
  147.1676   67.3969  218.0235 H   0  0  0  0  0  0  0  0  0  0  0  0
  145.0749   66.1094  218.3332 H   0  0  0  0  0  0  0  0  0  0  0  0
  143.0069   67.2507  219.0939 H   0  0  0  0  0  0  0  0  0  0  0  0
  141.9076   69.5875  218.9134 H   0  0  0  0  0  0  0  0  0  0  0  0
  142.4391   69.3855  220.6375 H   0  0  0  0  0  0  0  0  0  0  0  0
  138.1354   70.1946  223.4010 H   0  0  0  0  0  0  0  0  0  0  0  0
  139.5337   69.6146  222.3899 H   0  0  0  0  0  0  0  0  0  0  0  0
  138.7451   68.1237  224.2809 H   0  0  0  0  0  0  0  0  0  0  0  0
  140.5176   68.5250  224.1548 H   0  0  0  0  0  0  0  0  0  0  0  0
  1  2  1  0
  2  3  1  0
  3  4  1  0
  4  5  1  0
  5  6  1  0
  6  7  1  0
  7  8  2  0
  8  9  1  0
  9 10  1  0
 10 11  1  0
 11 12  1  0
 12 13  1  0
 13 14  1  0
 14 15  2  0
 15 16  1  0
 16 17  2  0
 17 18  1  0
 18 19  2  0
 13 20  1  0
 20 21  1  0
  9 22  2  0
 22 23  1  0
 23 24  1  0
 24 25  1  0
 25 26  1  0
 26 27  1  0
 27 28  2  0
 28 29  1  0
 29 30  2  0
 30 31  1  0
 31 32  2  0
 32 33  1  0
 23 34  2  0
  6 35  1  0
 35 36  1  0
 36  3  1  0
 34  7  1  0
 21 10  1  0
 33 24  1  0
 19 14  1  0
 32 27  1  0
  1 37  1  0
  1 38  1  0
  2 39  1  0
  2 40  1  0
  3 41  1  0
  4 42  1  0
  4 43  1  0
  5 44  1  0
  5 45  1  0
 11 46  1  0
 11 47  1  0
 12 48  1  0
 12 49  1  0
 15 50  1  0
 16 51  1  0
 17 52  1  0
 18 53  1  0
 19 54  1  0
 20 55  1  0
 20 56  1  0
 21 57  1  0
 21 58  1  0
 25 59  1  0
 25 60  1  0
 26 61  1  0
 26 62  1  0
 28 63  1  0
 29 64  1  0
 30 65  1  0
 31 66  1  0
 33 67  1  0
 33 68  1  0
 35 69  1  0
 35 70  1  0
 36 71  1  0
 36 72  1  0
M  END
>  <smiles>  (36) 
NCC1CCN(c2nc(N3CCN(c4ccccc4)CC3)nc(N3CCc4ccccc4C3)n2)CC1

>  <score_type>  (36) 
oracle

>  <origin>  (36) 
autodockgpu

>  <m_score__min__energy>  (36) 
-10.050000000000001

>  <m_primary>  (36) 
energy

>  <rmsd>  (36) 
8.944812992398168

>  <m_score__min__rmsd>  (36) 
8.944812992398168

>  <meeko>  (36) 
{"free_energy": -8.76, "intermolecular_energy": -10.55, "internal_energy": -1.21, "cluster_size": 6, "cluster_id": 4, "rank_in_cluster": 5}

>  <energy>  (36) 
-9.17

>  <cluster_rmsd>  (36) 
0.31

>  <cluster>  (36) 
2

$$$$

     RDKit          3D

 72 77  0  0  0  0  0  0  0  0999 V2000
  142.6300   79.0690  222.5400 N   0  0  0  0  0  0  0  0  0  0  0  0
  141.3590   79.4900  221.9770 C   0  0  0  0  0  0  0  0  0  0  0  0
  140.6460   78.2730  221.4270 C   0  0  0  0  0  0  0  0  0  0  0  0
  141.6220   77.4550  220.6090 C   0  0  0  0  0  0  0  0  0  0  0  0
  141.0350   76.1560  220.1660 C   0  0  0  0  0  0  0  0  0  0  0  0
  140.4310   75.4560  221.2710 N   0  0  0  0  0  0  0  0  0  0  0  0
  140.6910   74.0630  221.4440 C   0  0  0  0  0  0  0  0  0  0  0  0
  141.3870   73.3890  220.4900 N   0  0  0  0  0  0  0  0  0  0  0  0
  141.6310   72.0770  220.6560 C   0  0  0  0  0  0  0  0  0  0  0  0
  142.3500   71.2890  219.7150 N   0  0  0  0  0  0  0  0  0  0  0  0
  141.9220   69.9630  219.3210 C   0  0  0  0  0  0  0  0  0  0  0  0
  143.0650   69.0030  219.6870 C   0  0  0  0  0  0  0  0  0  0  0  0
  144.3020   69.5180  219.1130 N   0  0  0  0  0  0  0  0  0  0  0  0
  145.1030   68.7960  218.1970 C   0  0  0  0  0  0  0  0  0  0  0  0
  145.4920   67.4750  218.4480 C   0  0  0  0  0  0  0  0  0  0  0  0
  146.2670   66.7610  217.5470 C   0  0  0  0  0  0  0  0  0  0  0  0
  146.6910   67.3110  216.3660 C   0  0  0  0  0  0  0  0  0  0  0  0
  146.3200   68.6070  216.1010 C   0  0  0  0  0  0  0  0  0  0  0  0
  145.5400   69.3270  217.0040 C   0  0  0  0  0  0  0  0  0  0  0  0
  144.6710   70.8620  219.5730 C   0  0  0  0  0  0  0  0  0  0  0  0
  143.5820   71.7960  219.0890 C   0  0  0  0  0  0  0  0  0  0  0  0
  141.1810   71.4650  221.7580 N   0  0  0  0  0  0  0  0  0  0  0  0
  140.4890   72.1110  222.7180 C   0  0  0  0  0  0  0  0  0  0  0  0
  140.0110   71.4540  223.8940 N   0  0  0  0  0  0  0  0  0  0  0  0
  138.8610   70.6070  223.8320 C   0  0  0  0  0  0  0  0  0  0  0  0
  139.1950   69.2210  224.3230 C   0  0  0  0  0  0  0  0  0  0  0  0
  139.7880   69.3570  225.6930 C   0  0  0  0  0  0  0  0  0  0  0  0
  139.6420   68.3300  226.6090 C   0  0  0  0  0  0  0  0  0  0  0  0
  140.1820   68.4360  227.8790 C   0  0  0  0  0  0  0  0  0  0  0  0
  140.8730   69.5740  228.2390 C   0  0  0  0  0  0  0  0  0  0  0  0
  141.0310   70.6090  227.3410 C   0  0  0  0  0  0  0  0  0  0  0  0
  140.4870   70.4950  226.0730 C   0  0  0  0  0  0  0  0  0  0  0  0
  140.6910   71.6420  225.1540 C   0  0  0  0  0  0  0  0  0  0  0  0
  140.2560   73.4180  222.5340 N   0  0  0  0  0  0  0  0  0  0  0  0
  139.5670   76.1520  222.1990 C   0  0  0  0  0  0  0  0  0  0  0  0
  140.1050   77.4850  222.5980 C   0  0  0  0  0  0  0  0  0  0  0  0
  143.4440   79.3360  221.9620 H   0  0  0  0  0  0  0  0  0  0  0  0
  142.5680   78.0350  222.7160 H   0  0  0  0  0  0  0  0  0  0  0  0
  140.7437   79.9573  222.7600 H   0  0  0  0  0  0  0  0  0  0  0  0
  141.5286   80.2209  221.1726 H   0  0  0  0  0  0  0  0  0  0  0  0
  139.8115   78.5570  220.7690 H   0  0  0  0  0  0  0  0  0  0  0  0
  141.9121   78.0343  219.7201 H   0  0  0  0  0  0  0  0  0  0  0  0
  142.4927   77.2336  221.2437 H   0  0  0  0  0  0  0  0  0  0  0  0
  140.2683   76.3503  219.4016 H   0  0  0  0  0  0  0  0  0  0  0  0
  141.8411   75.5305  219.7549 H   0  0  0  0  0  0  0  0  0  0  0  0
  141.0053   69.6844  219.8613 H   0  0  0  0  0  0  0  0  0  0  0  0
  141.7006   69.9223  218.2443 H   0  0  0  0  0  0  0  0  0  0  0  0
  143.1613   68.9404  220.7810 H   0  0  0  0  0  0  0  0  0  0  0  0
  142.8551   67.9983  219.2914 H   0  0  0  0  0  0  0  0  0  0  0  0
  145.1748   66.9912  219.3836 H   0  0  0  0  0  0  0  0  0  0  0  0
  146.5490   65.7252  217.7868 H   0  0  0  0  0  0  0  0  0  0  0  0
  147.3052   66.7367  215.6568 H   0  0  0  0  0  0  0  0  0  0  0  0
  146.6430   69.0828  215.1633 H   0  0  0  0  0  0  0  0  0  0  0  0
  145.2621   70.3615  216.7536 H   0  0  0  0  0  0  0  0  0  0  0  0
  144.7308   70.8847  220.6711 H   0  0  0  0  0  0  0  0  0  0  0  0
  145.6545   71.1606  219.1810 H   0  0  0  0  0  0  0  0  0  0  0  0
  143.7845   72.8281  219.4112 H   0  0  0  0  0  0  0  0  0  0  0  0
  143.5118   71.8204  217.9915 H   0  0  0  0  0  0  0  0  0  0  0  0
  138.0651   71.0315  224.4616 H   0  0  0  0  0  0  0  0  0  0  0  0
  138.5251   70.5413  222.7866 H   0  0  0  0  0  0  0  0  0  0  0  0
  138.2822   68.6088  224.3683 H   0  0  0  0  0  0  0  0  0  0  0  0
  139.9051   68.7300  223.6413 H   0  0  0  0  0  0  0  0  0  0  0  0
  139.0916   67.4209  226.3251 H   0  0  0  0  0  0  0  0  0  0  0  0
  140.0603   67.6141  228.5999 H   0  0  0  0  0  0  0  0  0  0  0  0
  141.3010   69.6568  229.2489 H   0  0  0  0  0  0  0  0  0  0  0  0
  141.5834   71.5155  227.6293 H   0  0  0  0  0  0  0  0  0  0  0  0
  140.3050   72.5538  225.6332 H   0  0  0  0  0  0  0  0  0  0  0  0
  141.7685   71.7254  224.9491 H   0  0  0  0  0  0  0  0  0  0  0  0
  138.5850   76.2965  221.7248 H   0  0  0  0  0  0  0  0  0  0  0  0
  139.4933   75.5378  223.1086 H   0  0  0  0  0  0  0  0  0  0  0  0
  139.2963   78.0641  223.0677 H   0  0  0  0  0  0  0  0  0  0  0  0
  140.9392   77.3107  223.2935 H   0  0  0  0  0  0  0  0  0  0  0  0
  1  2  1  0
  2  3  1  0
  3  4  1  0
  4  5  1  0
  5  6  1  0
  6  7  1  0
  7  8  2  0
  8  9  1  0
  9 10  1  0
 10 11  1  0
 11 12  1  0
 12 13  1  0
 13 14  1  0
 14 15  2  0
 15 16  1  0
 16 17  2  0
 17 18  1  0
 18 19  2  0
 13 20  1  0
 20 21  1  0
  9 22  2  0
 22 23  1  0
 23 24  1  0
 24 25  1  0
 25 26  1  0
 26 27  1  0
 27 28  2  0
 28 29  1  0
 29 30  2  0
 30 31  1  0
 31 32  2  0
 32 33  1  0
 23 34  2  0
  6 35  1  0
 35 36  1  0
 36  3  1  0
 34  7  1  0
 21 10  1  0
 33 24  1  0
 19 14  1  0
 32 27  1  0
  1 37  1  0
  1 38  1  0
  2 39  1  0
  2 40  1  0
  3 41  1  0
  4 42  1  0
  4 43  1  0
  5 44  1  0
  5 45  1  0
 11 46  1  0
 11 47  1  0
 12 48  1  0
 12 49  1  0
 15 50  1  0
 16 51  1  0
 17 52  1  0
 18 53  1  0
 19 54  1  0
 20 55  1  0
 20 56  1  0
 21 57  1  0
 21 58  1  0
 25 59  1  0
 25 60  1  0
 26 61  1  0
 26 62  1  0
 28 63  1  0
 29 64  1  0
 30 65  1  0
 31 66  1  0
 33 67  1  0
 33 68  1  0
 35 69  1  0
 35 70  1  0
 36 71  1  0
 36 72  1  0
M  END
>  <smiles>  (37) 
NCC1CCN(c2nc(N3CCN(c4ccccc4)CC3)nc(N3CCc4ccccc4C3)n2)CC1

>  <score_type>  (37) 
oracle

>  <origin>  (37) 
autodockgpu

>  <m_score__min__energy>  (37) 
-10.050000000000001

>  <m_primary>  (37) 
energy

>  <rmsd>  (37) 
8.79935681105352

>  <m_score__min__rmsd>  (37) 
8.79935681105352

>  <meeko>  (37) 
{"free_energy": -9.61, "intermolecular_energy": -11.4, "internal_energy": -1.21, "cluster_size": 13, "cluster_id": 2, "rank_in_cluster": 4}

>  <energy>  (37) 
-9.05

>  <cluster_rmsd>  (37) 
0.58

>  <cluster>  (37) 
2

$$$$

     RDKit          3D

 72 77  0  0  0  0  0  0  0  0999 V2000
  145.9610   67.8550  220.1140 N   0  0  0  0  0  0  0  0  0  0  0  0
  146.2980   68.9160  219.1820 C   0  0  0  0  0  0  0  0  0  0  0  0
  145.0510   69.7260  218.8980 C   0  0  0  0  0  0  0  0  0  0  0  0
  143.8990   69.1590  219.6980 C   0  0  0  0  0  0  0  0  0  0  0  0
  142.6710   70.0020  219.5950 C   0  0  0  0  0  0  0  0  0  0  0  0
  142.9700   71.3870  219.8570 N   0  0  0  0  0  0  0  0  0  0  0  0
  142.1210   72.1330  220.7290 C   0  0  0  0  0  0  0  0  0  0  0  0
  141.9090   73.4540  220.4870 N   0  0  0  0  0  0  0  0  0  0  0  0
  141.1090   74.1540  221.3100 C   0  0  0  0  0  0  0  0  0  0  0  0
  140.8270   75.5380  221.1390 N   0  0  0  0  0  0  0  0  0  0  0  0
  141.2400   76.2780  219.9650 C   0  0  0  0  0  0  0  0  0  0  0  0
  142.1480   77.4160  220.4580 C   0  0  0  0  0  0  0  0  0  0  0  0
  141.4480   78.1440  221.5090 N   0  0  0  0  0  0  0  0  0  0  0  0
  141.1530   79.5260  221.4450 C   0  0  0  0  0  0  0  0  0  0  0  0
  140.7290   80.2380  222.5720 C   0  0  0  0  0  0  0  0  0  0  0  0
  140.4510   81.5940  222.5150 C   0  0  0  0  0  0  0  0  0  0  0  0
  140.5740   82.3060  221.3510 C   0  0  0  0  0  0  0  0  0  0  0  0
  140.9880   81.6260  220.2320 C   0  0  0  0  0  0  0  0  0  0  0  0
  141.2700   80.2620  220.2870 C   0  0  0  0  0  0  0  0  0  0  0  0
  141.0750   77.3240  222.6680 C   0  0  0  0  0  0  0  0  0  0  0  0
  140.0880   76.2910  222.1660 C   0  0  0  0  0  0  0  0  0  0  0  0
  140.5400   73.5330  222.3510 N   0  0  0  0  0  0  0  0  0  0  0  0
  140.7350   72.2240  222.6120 C   0  0  0  0  0  0  0  0  0  0  0  0
  140.1250   71.5650  223.7230 N   0  0  0  0  0  0  0  0  0  0  0  0
  138.9580   70.7600  223.5350 C   0  0  0  0  0  0  0  0  0  0  0  0
  139.1980   69.3560  224.0290 C   0  0  0  0  0  0  0  0  0  0  0  0
  139.6600   69.4480  225.4510 C   0  0  0  0  0  0  0  0  0  0  0  0
  139.3930   68.4120  226.3300 C   0  0  0  0  0  0  0  0  0  0  0  0
  139.8110   68.4790  227.6470 C   0  0  0  0  0  0  0  0  0  0  0  0
  140.5030   69.5850  228.0930 C   0  0  0  0  0  0  0  0  0  0  0  0
  140.7810   70.6290  227.2350 C   0  0  0  0  0  0  0  0  0  0  0  0
  140.3570   70.5550  225.9190 C   0  0  0  0  0  0  0  0  0  0  0  0
  140.6870   71.7090  225.0460 C   0  0  0  0  0  0  0  0  0  0  0  0
  141.5350   71.5440  221.7800 N   0  0  0  0  0  0  0  0  0  0  0  0
  144.1160   72.0220  219.2440 C   0  0  0  0  0  0  0  0  0  0  0  0
  145.3350   71.1630  219.2760 C   0  0  0  0  0  0  0  0  0  0  0  0
  146.7860   67.3590  220.4880 H   0  0  0  0  0  0  0  0  0  0  0  0
  145.2790   67.2180  219.6310 H   0  0  0  0  0  0  0  0  0  0  0  0
  147.0687   69.5652  219.6230 H   0  0  0  0  0  0  0  0  0  0  0  0
  146.6861   68.4849  218.2474 H   0  0  0  0  0  0  0  0  0  0  0  0
  144.7757   69.6819  217.8339 H   0  0  0  0  0  0  0  0  0  0  0  0
  143.6691   68.1511  219.3222 H   0  0  0  0  0  0  0  0  0  0  0  0
  144.2027   69.1330  220.7549 H   0  0  0  0  0  0  0  0  0  0  0  0
  142.2557   69.9096  218.5806 H   0  0  0  0  0  0  0  0  0  0  0  0
  141.9439   69.6536  220.3433 H   0  0  0  0  0  0  0  0  0  0  0  0
  141.7941   75.6212  219.2782 H   0  0  0  0  0  0  0  0  0  0  0  0
  140.3702   76.6733  219.4198 H   0  0  0  0  0  0  0  0  0  0  0  0
  143.0840   76.9976  220.8566 H   0  0  0  0  0  0  0  0  0  0  0  0
  142.3881   78.0940  219.6257 H   0  0  0  0  0  0  0  0  0  0  0  0
  140.6133   79.7073  223.5285 H   0  0  0  0  0  0  0  0  0  0  0  0
  140.1230   82.1125  223.4280 H   0  0  0  0  0  0  0  0  0  0  0  0
  140.3495   83.3822  221.3141 H   0  0  0  0  0  0  0  0  0  0  0  0
  141.0986   82.1650  219.2795 H   0  0  0  0  0  0  0  0  0  0  0  0
  141.5991   79.7533  219.3689 H   0  0  0  0  0  0  0  0  0  0  0  0
  141.9643   76.8285  223.0846 H   0  0  0  0  0  0  0  0  0  0  0  0
  140.6338   77.9404  223.4651 H   0  0  0  0  0  0  0  0  0  0  0  0
  139.7729   75.6258  222.9835 H   0  0  0  0  0  0  0  0  0  0  0  0
  139.1712   76.7498  221.7673 H   0  0  0  0  0  0  0  0  0  0  0  0
  138.1199   71.2018  224.0940 H   0  0  0  0  0  0  0  0  0  0  0  0
  138.7212   70.7231  222.4614 H   0  0  0  0  0  0  0  0  0  0  0  0
  138.2656   68.7749  223.9746 H   0  0  0  0  0  0  0  0  0  0  0  0
  139.9547   68.8528  223.4091 H   0  0  0  0  0  0  0  0  0  0  0  0
  138.8431   67.5269  225.9776 H   0  0  0  0  0  0  0  0  0  0  0  0
  139.5916   67.6512  228.3373 H   0  0  0  0  0  0  0  0  0  0  0  0
  140.8358   69.6353  229.1403 H   0  0  0  0  0  0  0  0  0  0  0  0
  141.3334   71.5105  227.5925 H   0  0  0  0  0  0  0  0  0  0  0  0
  140.2876   72.6261  225.5036 H   0  0  0  0  0  0  0  0  0  0  0  0
  141.7814   71.7578  224.9467 H   0  0  0  0  0  0  0  0  0  0  0  0
  143.8733   72.2498  218.1956 H   0  0  0  0  0  0  0  0  0  0  0  0
  144.3370   72.9343  219.8175 H   0  0  0  0  0  0  0  0  0  0  0  0
  146.0721   71.5728  218.5698 H   0  0  0  0  0  0  0  0  0  0  0  0
  145.7137   71.1646  220.3088 H   0  0  0  0  0  0  0  0  0  0  0  0
  1  2  1  0
  2  3  1  0
  3  4  1  0
  4  5  1  0
  5  6  1  0
  6  7  1  0
  7  8  2  0
  8  9  1  0
  9 10  1  0
 10 11  1  0
 11 12  1  0
 12 13  1  0
 13 14  1  0
 14 15  2  0
 15 16  1  0
 16 17  2  0
 17 18  1  0
 18 19  2  0
 13 20  1  0
 20 21  1  0
  9 22  2  0
 22 23  1  0
 23 24  1  0
 24 25  1  0
 25 26  1  0
 26 27  1  0
 27 28  2  0
 28 29  1  0
 29 30  2  0
 30 31  1  0
 31 32  2  0
 32 33  1  0
 23 34  2  0
  6 35  1  0
 35 36  1  0
 36  3  1  0
 34  7  1  0
 21 10  1  0
 33 24  1  0
 19 14  1  0
 32 27  1  0
  1 37  1  0
  1 38  1  0
  2 39  1  0
  2 40  1  0
  3 41  1  0
  4 42  1  0
  4 43  1  0
  5 44  1  0
  5 45  1  0
 11 46  1  0
 11 47  1  0
 12 48  1  0
 12 49  1  0
 15 50  1  0
 16 51  1  0
 17 52  1  0
 18 53  1  0
 19 54  1  0
 20 55  1  0
 20 56  1  0
 21 57  1  0
 21 58  1  0
 25 59  1  0
 25 60  1  0
 26 61  1  0
 26 62  1  0
 28 63  1  0
 29 64  1  0
 30 65  1  0
 31 66  1  0
 33 67  1  0
 33 68  1  0
 35 69  1  0
 35 70  1  0
 36 71  1  0
 36 72  1  0
M  END
>  <smiles>  (38) 
NCC1CCN(c2nc(N3CCN(c4ccccc4)CC3)nc(N3CCc4ccccc4C3)n2)CC1

>  <score_type>  (38) 
oracle

>  <origin>  (38) 
autodockgpu

>  <m_score__min__energy>  (38) 
-10.050000000000001

>  <m_primary>  (38) 
energy

>  <rmsd>  (38) 
9.03729950584001

>  <m_score__min__rmsd>  (38) 
9.03729950584001

>  <meeko>  (38) 
{"free_energy": -10.03, "intermolecular_energy": -11.82, "internal_energy": -1.19, "cluster_size": 26, "cluster_id": 1, "rank_in_cluster": 4}

>  <energy>  (38) 
-8.95

>  <cluster_rmsd>  (38) 
0.5

>  <cluster>  (38) 
2

$$$$

     RDKit          3D

 72 77  0  0  0  0  0  0  0  0999 V2000
  146.7100   69.2860  218.2260 N   0  0  0  0  0  0  0  0  0  0  0  0
  145.4860   68.6290  218.6490 C   0  0  0  0  0  0  0  0  0  0  0  0
  144.3340   69.5970  218.4830 C   0  0  0  0  0  0  0  0  0  0  0  0
  143.1460   69.0930  219.2750 C   0  0  0  0  0  0  0  0  0  0  0  0
  142.0220   70.0760  219.2920 C   0  0  0  0  0  0  0  0  0  0  0  0
  142.4870   71.3880  219.6610 N   0  0  0  0  0  0  0  0  0  0  0  0
  141.7550   72.1440  220.6270 C   0  0  0  0  0  0  0  0  0  0  0  0
  141.5760   73.4780  220.4350 N   0  0  0  0  0  0  0  0  0  0  0  0
  140.8870   74.1870  221.3460 C   0  0  0  0  0  0  0  0  0  0  0  0
  140.6470   75.5850  221.2340 N   0  0  0  0  0  0  0  0  0  0  0  0
  140.9900   76.3410  220.0470 C   0  0  0  0  0  0  0  0  0  0  0  0
  141.9810   77.4290  220.4890 C   0  0  0  0  0  0  0  0  0  0  0  0
  141.4020   78.1540  221.6140 N   0  0  0  0  0  0  0  0  0  0  0  0
  141.1590   79.5470  221.6090 C   0  0  0  0  0  0  0  0  0  0  0  0
  141.1480   80.2840  220.4200 C   0  0  0  0  0  0  0  0  0  0  0  0
  140.8990   81.6480  220.4100 C   0  0  0  0  0  0  0  0  0  0  0  0
  140.6510   82.3430  221.5640 C   0  0  0  0  0  0  0  0  0  0  0  0
  140.6570   81.6380  222.7430 C   0  0  0  0  0  0  0  0  0  0  0  0
  140.9070   80.2670  222.7550 C   0  0  0  0  0  0  0  0  0  0  0  0
  141.0950   77.3170  222.7800 C   0  0  0  0  0  0  0  0  0  0  0  0
  140.0290   76.3370  222.3380 C   0  0  0  0  0  0  0  0  0  0  0  0
  140.3920   73.5620  222.4210 N   0  0  0  0  0  0  0  0  0  0  0  0
  140.5560   72.2390  222.6330 C   0  0  0  0  0  0  0  0  0  0  0  0
  140.0260   71.5750  223.7820 N   0  0  0  0  0  0  0  0  0  0  0  0
  138.8800   70.7290  223.6640 C   0  0  0  0  0  0  0  0  0  0  0  0
  139.1930   69.3400  224.1620 C   0  0  0  0  0  0  0  0  0  0  0  0
  139.7230   69.4690  225.5580 C   0  0  0  0  0  0  0  0  0  0  0  0
  139.5360   68.4360  226.4610 C   0  0  0  0  0  0  0  0  0  0  0  0
  140.0170   68.5360  227.7540 C   0  0  0  0  0  0  0  0  0  0  0  0
  140.6910   69.6710  228.1520 C   0  0  0  0  0  0  0  0  0  0  0  0
  140.8890   70.7110  227.2670 C   0  0  0  0  0  0  0  0  0  0  0  0
  140.4030   70.6040  225.9760 C   0  0  0  0  0  0  0  0  0  0  0  0
  140.6490   71.7570  225.0730 C   0  0  0  0  0  0  0  0  0  0  0  0
  141.2470   71.5510  221.7150 N   0  0  0  0  0  0  0  0  0  0  0  0
  143.6810   71.9420  219.0620 C   0  0  0  0  0  0  0  0  0  0  0  0
  144.7930   70.9520  218.9730 C   0  0  0  0  0  0  0  0  0  0  0  0
  147.1180   68.8800  217.3680 H   0  0  0  0  0  0  0  0  0  0  0  0
  147.3710   69.2760  219.0430 H   0  0  0  0  0  0  0  0  0  0  0  0
  145.3118   67.7365  218.0300 H   0  0  0  0  0  0  0  0  0  0  0  0
  145.5695   68.3224  219.7021 H   0  0  0  0  0  0  0  0  0  0  0  0
  144.0260   69.6809  217.4303 H   0  0  0  0  0  0  0  0  0  0  0  0
  142.7902   68.1557  218.8223 H   0  0  0  0  0  0  0  0  0  0  0  0
  143.4739   68.9366  220.3133 H   0  0  0  0  0  0  0  0  0  0  0  0
  141.5708   70.1233  218.2899 H   0  0  0  0  0  0  0  0  0  0  0  0
  141.2804   69.7463  220.0345 H   0  0  0  0  0  0  0  0  0  0  0  0
  141.4577   75.6828  219.3000 H   0  0  0  0  0  0  0  0  0  0  0  0
  140.0944   76.7841  219.5870 H   0  0  0  0  0  0  0  0  0  0  0  0
  142.9295   76.9642  220.7960 H   0  0  0  0  0  0  0  0  0  0  0  0
  142.1771   78.1204  219.6563 H   0  0  0  0  0  0  0  0  0  0  0  0
  141.3419   79.7679  219.4681 H   0  0  0  0  0  0  0  0  0  0  0  0
  140.9007   82.1859  219.4505 H   0  0  0  0  0  0  0  0  0  0  0  0
  140.4544   83.4252  221.5473 H   0  0  0  0  0  0  0  0  0  0  0  0
  140.4619   82.1625  223.6900 H   0  0  0  0  0  0  0  0  0  0  0  0
  140.9028   79.7385  223.7197 H   0  0  0  0  0  0  0  0  0  0  0  0
  141.9955   76.7767  223.1074 H   0  0  0  0  0  0  0  0  0  0  0  0
  140.7475   77.9271  223.6268 H   0  0  0  0  0  0  0  0  0  0  0  0
  139.7569   75.6618  223.1627 H   0  0  0  0  0  0  0  0  0  0  0  0
  139.1017   76.8420  222.0296 H   0  0  0  0  0  0  0  0  0  0  0  0
  138.0568   71.1499  224.2600 H   0  0  0  0  0  0  0  0  0  0  0  0
  138.5904   70.6694  222.6045 H   0  0  0  0  0  0  0  0  0  0  0  0
  138.2797   68.7268  224.1625 H   0  0  0  0  0  0  0  0  0  0  0  0
  139.9337   68.8533  223.5105 H   0  0  0  0  0  0  0  0  0  0  0  0
  139.0002   67.5279  226.1473 H   0  0  0  0  0  0  0  0  0  0  0  0
  139.8619   67.7105  228.4643 H   0  0  0  0  0  0  0  0  0  0  0  0
  141.0730   69.7479  229.1807 H   0  0  0  0  0  0  0  0  0  0  0  0
  141.4278   71.6159  227.5846 H   0  0  0  0  0  0  0  0  0  0  0  0
  140.2418   72.6664  225.5390 H   0  0  0  0  0  0  0  0  0  0  0  0
  141.7347   71.8419  224.9178 H   0  0  0  0  0  0  0  0  0  0  0  0
  143.4370   72.2893  218.0472 H   0  0  0  0  0  0  0  0  0  0  0  0
  144.0220   72.7679  219.7036 H   0  0  0  0  0  0  0  0  0  0  0  0
  145.5526   71.3384  218.2775 H   0  0  0  0  0  0  0  0  0  0  0  0
  145.1984   70.8175  219.9867 H   0  0  0  0  0  0  0  0  0  0  0  0
  1  2  1  0
  2  3  1  0
  3  4  1  0
  4  5  1  0
  5  6  1  0
  6  7  1  0
  7  8  2  0
  8  9  1  0
  9 10  1  0
 10 11  1  0
 11 12  1  0
 12 13  1  0
 13 14  1  0
 14 15  2  0
 15 16  1  0
 16 17  2  0
 17 18  1  0
 18 19  2  0
 13 20  1  0
 20 21  1  0
  9 22  2  0
 22 23  1  0
 23 24  1  0
 24 25  1  0
 25 26  1  0
 26 27  1  0
 27 28  2  0
 28 29  1  0
 29 30  2  0
 30 31  1  0
 31 32  2  0
 32 33  1  0
 23 34  2  0
  6 35  1  0
 35 36  1  0
 36  3  1  0
 34  7  1  0
 21 10  1  0
 33 24  1  0
 19 14  1  0
 32 27  1  0
  1 37  1  0
  1 38  1  0
  2 39  1  0
  2 40  1  0
  3 41  1  0
  4 42  1  0
  4 43  1  0
  5 44  1  0
  5 45  1  0
 11 46  1  0
 11 47  1  0
 12 48  1  0
 12 49  1  0
 15 50  1  0
 16 51  1  0
 17 52  1  0
 18 53  1  0
 19 54  1  0
 20 55  1  0
 20 56  1  0
 21 57  1  0
 21 58  1  0
 25 59  1  0
 25 60  1  0
 26 61  1  0
 26 62  1  0
 28 63  1  0
 29 64  1  0
 30 65  1  0
 31 66  1  0
 33 67  1  0
 33 68  1  0
 35 69  1  0
 35 70  1  0
 36 71  1  0
 36 72  1  0
M  END
>  <smiles>  (39) 
NCC1CCN(c2nc(N3CCN(c4ccccc4)CC3)nc(N3CCc4ccccc4C3)n2)CC1

>  <score_type>  (39) 
oracle

>  <origin>  (39) 
autodockgpu

>  <m_score__min__energy>  (39) 
-10.050000000000001

>  <m_primary>  (39) 
energy

>  <rmsd>  (39) 
8.875079115492115

>  <m_score__min__rmsd>  (39) 
8.875079115492115

>  <meeko>  (39) 
{"free_energy": -9.52, "intermolecular_energy": -11.31, "internal_energy": -1.21, "cluster_size": 26, "cluster_id": 1, "rank_in_cluster": 17}

>  <energy>  (39) 
-8.68

>  <cluster_rmsd>  (39) 
0.87

>  <cluster>  (39) 
2

$$$$

     RDKit          3D

 72 77  0  0  0  0  0  0  0  0999 V2000
  142.5880   79.0740  222.5170 N   0  0  0  0  0  0  0  0  0  0  0  0
  141.2620   79.4660  222.0720 C   0  0  0  0  0  0  0  0  0  0  0  0
  140.5510   78.2440  221.5300 C   0  0  0  0  0  0  0  0  0  0  0  0
  141.5230   77.4350  220.6970 C   0  0  0  0  0  0  0  0  0  0  0  0
  140.9410   76.1320  220.2600 C   0  0  0  0  0  0  0  0  0  0  0  0
  140.3590   75.4260  221.3720 N   0  0  0  0  0  0  0  0  0  0  0  0
  140.6330   74.0340  221.5390 C   0  0  0  0  0  0  0  0  0  0  0  0
  141.3310   73.3710  220.5790 N   0  0  0  0  0  0  0  0  0  0  0  0
  141.5880   72.0610  220.7400 C   0  0  0  0  0  0  0  0  0  0  0  0
  142.3100   71.2820  219.7920 N   0  0  0  0  0  0  0  0  0  0  0  0
  141.8500   69.9890  219.3330 C   0  0  0  0  0  0  0  0  0  0  0  0
  142.9450   68.9750  219.6990 C   0  0  0  0  0  0  0  0  0  0  0  0
  144.2190   69.4650  219.1860 N   0  0  0  0  0  0  0  0  0  0  0  0
  145.0240   68.7490  218.2690 C   0  0  0  0  0  0  0  0  0  0  0  0
  145.3670   69.2840  217.0230 C   0  0  0  0  0  0  0  0  0  0  0  0
  146.1650   68.5890  216.1270 C   0  0  0  0  0  0  0  0  0  0  0  0
  146.6570   67.3440  216.4160 C   0  0  0  0  0  0  0  0  0  0  0  0
  146.3320   66.8010  217.6350 C   0  0  0  0  0  0  0  0  0  0  0  0
  145.5300   67.4970  218.5380 C   0  0  0  0  0  0  0  0  0  0  0  0
  144.6180   70.7760  219.7100 C   0  0  0  0  0  0  0  0  0  0  0  0
  143.5810   71.7680  219.2280 C   0  0  0  0  0  0  0  0  0  0  0  0
  141.1500   71.4400  221.8410 N   0  0  0  0  0  0  0  0  0  0  0  0
  140.4550   72.0760  222.8070 C   0  0  0  0  0  0  0  0  0  0  0  0
  139.9890   71.4100  223.9820 N   0  0  0  0  0  0  0  0  0  0  0  0
  138.8350   70.5670  223.9260 C   0  0  0  0  0  0  0  0  0  0  0  0
  139.1710   69.1760  224.4020 C   0  0  0  0  0  0  0  0  0  0  0  0
  139.7800   69.2980  225.7650 C   0  0  0  0  0  0  0  0  0  0  0  0
  139.6410   68.2630  226.6740 C   0  0  0  0  0  0  0  0  0  0  0  0
  140.1960   68.3570  227.9380 C   0  0  0  0  0  0  0  0  0  0  0  0
  140.8950   69.4890  228.3000 C   0  0  0  0  0  0  0  0  0  0  0  0
  141.0460   70.5310  227.4100 C   0  0  0  0  0  0  0  0  0  0  0  0
  140.4870   70.4300  226.1470 C   0  0  0  0  0  0  0  0  0  0  0  0
  140.6840   71.5850  225.2360 C   0  0  0  0  0  0  0  0  0  0  0  0
  140.2090   73.3810  222.6290 N   0  0  0  0  0  0  0  0  0  0  0  0
  139.5010   76.1120  222.3130 C   0  0  0  0  0  0  0  0  0  0  0  0
  140.0340   77.4490  222.7070 C   0  0  0  0  0  0  0  0  0  0  0  0
  143.3410   79.3700  221.8750 H   0  0  0  0  0  0  0  0  0  0  0  0
  142.5690   78.0370  222.6840 H   0  0  0  0  0  0  0  0  0  0  0  0
  140.6945   79.8793  222.9188 H   0  0  0  0  0  0  0  0  0  0  0  0
  141.3414   80.2325  221.2870 H   0  0  0  0  0  0  0  0  0  0  0  0
  139.7047   78.5224  220.8848 H   0  0  0  0  0  0  0  0  0  0  0  0
  141.7961   78.0181  219.8051 H   0  0  0  0  0  0  0  0  0  0  0  0
  142.4041   77.2199  221.3194 H   0  0  0  0  0  0  0  0  0  0  0  0
  140.1619   76.3210  219.5068 H   0  0  0  0  0  0  0  0  0  0  0  0
  141.7462   75.5139  219.8362 H   0  0  0  0  0  0  0  0  0  0  0  0
  140.9059   69.7237  219.8313 H   0  0  0  0  0  0  0  0  0  0  0  0
  141.6649   69.9971  218.2487 H   0  0  0  0  0  0  0  0  0  0  0  0
  143.0015   68.8683  220.7924 H   0  0  0  0  0  0  0  0  0  0  0  0
  142.7132   67.9942  219.2582 H   0  0  0  0  0  0  0  0  0  0  0  0
  144.9942   70.2814  216.7469 H   0  0  0  0  0  0  0  0  0  0  0  0
  146.4093   69.0498  215.1585 H   0  0  0  0  0  0  0  0  0  0  0  0
  147.2887   66.7994  215.6988 H   0  0  0  0  0  0  0  0  0  0  0  0
  146.7098   65.8031  217.9024 H   0  0  0  0  0  0  0  0  0  0  0  0
  145.2919   67.0274  219.5038 H   0  0  0  0  0  0  0  0  0  0  0  0
  144.6405   70.7545  220.8096 H   0  0  0  0  0  0  0  0  0  0  0  0
  145.6240   71.0530  219.3619 H   0  0  0  0  0  0  0  0  0  0  0  0
  143.8088   72.7784  219.5983 H   0  0  0  0  0  0  0  0  0  0  0  0
  143.5501   71.8385  218.1307 H   0  0  0  0  0  0  0  0  0  0  0  0
  138.0477   70.9886  224.5681 H   0  0  0  0  0  0  0  0  0  0  0  0
  138.4866   70.5111  222.8841 H   0  0  0  0  0  0  0  0  0  0  0  0
  138.2570   68.5661  224.4529 H   0  0  0  0  0  0  0  0  0  0  0  0
  139.8721   68.6892  223.7080 H   0  0  0  0  0  0  0  0  0  0  0  0
  139.0845   67.3580  226.3888 H   0  0  0  0  0  0  0  0  0  0  0  0
  140.0797   67.5295  228.6533 H   0  0  0  0  0  0  0  0  0  0  0  0
  141.3351   69.5612  229.3055 H   0  0  0  0  0  0  0  0  0  0  0  0
  141.6046   71.4331  227.7000 H   0  0  0  0  0  0  0  0  0  0  0  0
  140.3061   72.4935  225.7276 H   0  0  0  0  0  0  0  0  0  0  0  0
  141.7594   71.6675  225.0197 H   0  0  0  0  0  0  0  0  0  0  0  0
  138.5116   76.2491  221.8523 H   0  0  0  0  0  0  0  0  0  0  0  0
  139.4436   75.4953  223.2221 H   0  0  0  0  0  0  0  0  0  0  0  0
  139.2276   78.0203  223.1899 H   0  0  0  0  0  0  0  0  0  0  0  0
  140.8799   77.2801  223.3895 H   0  0  0  0  0  0  0  0  0  0  0  0
  1  2  1  0
  2  3  1  0
  3  4  1  0
  4  5  1  0
  5  6  1  0
  6  7  1  0
  7  8  2  0
  8  9  1  0
  9 10  1  0
 10 11  1  0
 11 12  1  0
 12 13  1  0
 13 14  1  0
 14 15  2  0
 15 16  1  0
 16 17  2  0
 17 18  1  0
 18 19  2  0
 13 20  1  0
 20 21  1  0
  9 22  2  0
 22 23  1  0
 23 24  1  0
 24 25  1  0
 25 26  1  0
 26 27  1  0
 27 28  2  0
 28 29  1  0
 29 30  2  0
 30 31  1  0
 31 32  2  0
 32 33  1  0
 23 34  2  0
  6 35  1  0
 35 36  1  0
 36  3  1  0
 34  7  1  0
 21 10  1  0
 33 24  1  0
 19 14  1  0
 32 27  1  0
  1 37  1  0
  1 38  1  0
  2 39  1  0
  2 40  1  0
  3 41  1  0
  4 42  1  0
  4 43  1  0
  5 44  1  0
  5 45  1  0
 11 46  1  0
 11 47  1  0
 12 48  1  0
 12 49  1  0
 15 50  1  0
 16 51  1  0
 17 52  1  0
 18 53  1  0
 19 54  1  0
 20 55  1  0
 20 56  1  0
 21 57  1  0
 21 58  1  0
 25 59  1  0
 25 60  1  0
 26 61  1  0
 26 62  1  0
 28 63  1  0
 29 64  1  0
 30 65  1  0
 31 66  1  0
 33 67  1  0
 33 68  1  0
 35 69  1  0
 35 70  1  0
 36 71  1  0
 36 72  1  0
M  END
>  <smiles>  (40) 
NCC1CCN(c2nc(N3CCN(c4ccccc4)CC3)nc(N3CCc4ccccc4C3)n2)CC1

>  <score_type>  (40) 
oracle

>  <origin>  (40) 
autodockgpu

>  <m_score__min__energy>  (40) 
-10.050000000000001

>  <m_primary>  (40) 
energy

>  <rmsd>  (40) 
8.594042521676085

>  <m_score__min__rmsd>  (40) 
8.594042521676085

>  <meeko>  (40) 
{"free_energy": -9.63, "intermolecular_energy": -11.42, "internal_energy": -1.2, "cluster_size": 13, "cluster_id": 2, "rank_in_cluster": 1}

>  <energy>  (40) 
-9.18

>  <cluster_rmsd>  (40) 
0.0

>  <cluster>  (40) 
3

$$$$

     RDKit          3D

 72 77  0  0  0  0  0  0  0  0999 V2000
  145.9260   67.8990  220.1130 N   0  0  0  0  0  0  0  0  0  0  0  0
  146.2880   68.9590  219.1880 C   0  0  0  0  0  0  0  0  0  0  0  0
  145.0560   69.7910  218.8990 C   0  0  0  0  0  0  0  0  0  0  0  0
  143.8810   69.2180  219.6610 C   0  0  0  0  0  0  0  0  0  0  0  0
  142.6660   70.0790  219.5530 C   0  0  0  0  0  0  0  0  0  0  0  0
  142.9760   71.4520  219.8560 N   0  0  0  0  0  0  0  0  0  0  0  0
  142.1180   72.1870  220.7300 C   0  0  0  0  0  0  0  0  0  0  0  0
  141.9020   73.5100  220.4980 N   0  0  0  0  0  0  0  0  0  0  0  0
  141.0940   74.1990  221.3220 C   0  0  0  0  0  0  0  0  0  0  0  0
  140.8070   75.5830  221.1620 N   0  0  0  0  0  0  0  0  0  0  0  0
  141.2020   76.3290  219.9850 C   0  0  0  0  0  0  0  0  0  0  0  0
  142.1150   77.4660  220.4700 C   0  0  0  0  0  0  0  0  0  0  0  0
  141.4300   78.1880  221.5360 N   0  0  0  0  0  0  0  0  0  0  0  0
  141.1320   79.5690  221.4820 C   0  0  0  0  0  0  0  0  0  0  0  0
  140.3930   80.1990  222.4900 C   0  0  0  0  0  0  0  0  0  0  0  0
  140.1100   81.5550  222.4460 C   0  0  0  0  0  0  0  0  0  0  0  0
  140.5370   82.3470  221.4130 C   0  0  0  0  0  0  0  0  0  0  0  0
  141.2630   81.7490  220.4130 C   0  0  0  0  0  0  0  0  0  0  0  0
  141.5500   80.3860  220.4550 C   0  0  0  0  0  0  0  0  0  0  0  0
  141.0760   77.3620  222.6950 C   0  0  0  0  0  0  0  0  0  0  0  0
  140.0830   76.3300  222.2040 C   0  0  0  0  0  0  0  0  0  0  0  0
  140.5200   73.5660  222.3530 N   0  0  0  0  0  0  0  0  0  0  0  0
  140.7180   72.2550  222.6030 C   0  0  0  0  0  0  0  0  0  0  0  0
  140.1030   71.5830  223.7040 N   0  0  0  0  0  0  0  0  0  0  0  0
  138.9440   70.7720  223.5000 C   0  0  0  0  0  0  0  0  0  0  0  0
  139.1880   69.3650  223.9850 C   0  0  0  0  0  0  0  0  0  0  0  0
  139.6380   69.4500  225.4110 C   0  0  0  0  0  0  0  0  0  0  0  0
  139.3700   68.4050  226.2790 C   0  0  0  0  0  0  0  0  0  0  0  0
  139.7760   68.4640  227.6000 C   0  0  0  0  0  0  0  0  0  0  0  0
  140.4560   69.5710  228.0620 C   0  0  0  0  0  0  0  0  0  0  0  0
  140.7350   70.6230  227.2140 C   0  0  0  0  0  0  0  0  0  0  0  0
  140.3230   70.5570  225.8940 C   0  0  0  0  0  0  0  0  0  0  0  0
  140.6530   71.7200  225.0330 C   0  0  0  0  0  0  0  0  0  0  0  0
  141.5270   71.5860  221.7710 N   0  0  0  0  0  0  0  0  0  0  0  0
  144.1420   72.0880  219.2830 C   0  0  0  0  0  0  0  0  0  0  0  0
  145.3500   71.2140  219.3190 C   0  0  0  0  0  0  0  0  0  0  0  0
  146.7390   67.3710  220.4710 H   0  0  0  0  0  0  0  0  0  0  0  0
  145.2160   67.2910  219.6320 H   0  0  0  0  0  0  0  0  0  0  0  0
  147.0662   69.5932  219.6376 H   0  0  0  0  0  0  0  0  0  0  0  0
  146.6761   68.5261  218.2542 H   0  0  0  0  0  0  0  0  0  0  0  0
  144.8014   69.7770  217.8290 H   0  0  0  0  0  0  0  0  0  0  0  0
  143.6471   68.2225  219.2556 H   0  0  0  0  0  0  0  0  0  0  0  0
  144.1619   69.1614  220.7230 H   0  0  0  0  0  0  0  0  0  0  0  0
  142.2718   70.0173  218.5279 H   0  0  0  0  0  0  0  0  0  0  0  0
  141.9185   69.7214  220.2764 H   0  0  0  0  0  0  0  0  0  0  0  0
  141.7471   75.6762  219.2874 H   0  0  0  0  0  0  0  0  0  0  0  0
  140.3239   76.7252  219.4540 H   0  0  0  0  0  0  0  0  0  0  0  0
  143.0578   77.0473  220.8520 H   0  0  0  0  0  0  0  0  0  0  0  0
  142.3407   78.1487  219.6376 H   0  0  0  0  0  0  0  0  0  0  0  0
  140.0275   79.6025  223.3389 H   0  0  0  0  0  0  0  0  0  0  0  0
  139.5272   82.0072  223.2620 H   0  0  0  0  0  0  0  0  0  0  0  0
  140.3067   83.4223  221.3858 H   0  0  0  0  0  0  0  0  0  0  0  0
  141.6229   82.3537  219.5675 H   0  0  0  0  0  0  0  0  0  0  0  0
  142.1344   79.9445  219.6343 H   0  0  0  0  0  0  0  0  0  0  0  0
  141.9724   76.8657  223.0953 H   0  0  0  0  0  0  0  0  0  0  0  0
  140.6458   77.9739  223.5015 H   0  0  0  0  0  0  0  0  0  0  0  0
  139.7818   75.6605  223.0232 H   0  0  0  0  0  0  0  0  0  0  0  0
  139.1593   76.7891  221.8220 H   0  0  0  0  0  0  0  0  0  0  0  0
  138.0983   71.2041  224.0551 H   0  0  0  0  0  0  0  0  0  0  0  0
  138.7176   70.7417  222.4240 H   0  0  0  0  0  0  0  0  0  0  0  0
  138.2595   68.7790  223.9189 H   0  0  0  0  0  0  0  0  0  0  0  0
  139.9520   68.8702  223.3673 H   0  0  0  0  0  0  0  0  0  0  0  0
  138.8290   67.5193  225.9145 H   0  0  0  0  0  0  0  0  0  0  0  0
  139.5566   67.6287  228.2812 H   0  0  0  0  0  0  0  0  0  0  0  0
  140.7779   69.6157  229.1129 H   0  0  0  0  0  0  0  0  0  0  0  0
  141.2791   71.5049  227.5829 H   0  0  0  0  0  0  0  0  0  0  0  0
  140.2439   72.6309  225.4945 H   0  0  0  0  0  0  0  0  0  0  0  0
  141.7479   71.7765  224.9434 H   0  0  0  0  0  0  0  0  0  0  0  0
  143.9241   72.3444  218.2357 H   0  0  0  0  0  0  0  0  0  0  0  0
  144.3613   72.9831  219.8836 H   0  0  0  0  0  0  0  0  0  0  0  0
  146.1068   71.6320  218.6389 H   0  0  0  0  0  0  0  0  0  0  0  0
  145.7076   71.1855  220.3589 H   0  0  0  0  0  0  0  0  0  0  0  0
  1  2  1  0
  2  3  1  0
  3  4  1  0
  4  5  1  0
  5  6  1  0
  6  7  1  0
  7  8  2  0
  8  9  1  0
  9 10  1  0
 10 11  1  0
 11 12  1  0
 12 13  1  0
 13 14  1  0
 14 15  2  0
 15 16  1  0
 16 17  2  0
 17 18  1  0
 18 19  2  0
 13 20  1  0
 20 21  1  0
  9 22  2  0
 22 23  1  0
 23 24  1  0
 24 25  1  0
 25 26  1  0
 26 27  1  0
 27 28  2  0
 28 29  1  0
 29 30  2  0
 30 31  1  0
 31 32  2  0
 32 33  1  0
 23 34  2  0
  6 35  1  0
 35 36  1  0
 36  3  1  0
 34  7  1  0
 21 10  1  0
 33 24  1  0
 19 14  1  0
 32 27  1  0
  1 37  1  0
  1 38  1  0
  2 39  1  0
  2 40  1  0
  3 41  1  0
  4 42  1  0
  4 43  1  0
  5 44  1  0
  5 45  1  0
 11 46  1  0
 11 47  1  0
 12 48  1  0
 12 49  1  0
 15 50  1  0
 16 51  1  0
 17 52  1  0
 18 53  1  0
 19 54  1  0
 20 55  1  0
 20 56  1  0
 21 57  1  0
 21 58  1  0
 25 59  1  0
 25 60  1  0
 26 61  1  0
 26 62  1  0
 28 63  1  0
 29 64  1  0
 30 65  1  0
 31 66  1  0
 33 67  1  0
 33 68  1  0
 35 69  1  0
 35 70  1  0
 36 71  1  0
 36 72  1  0
M  END
>  <smiles>  (41) 
NCC1CCN(c2nc(N3CCN(c4ccccc4)CC3)nc(N3CCc4ccccc4C3)n2)CC1

>  <score_type>  (41) 
oracle

>  <origin>  (41) 
autodockgpu

>  <m_score__min__energy>  (41) 
-10.050000000000001

>  <m_primary>  (41) 
energy

>  <rmsd>  (41) 
9.042326511831053

>  <m_score__min__rmsd>  (41) 
9.042326511831053

>  <meeko>  (41) 
{"free_energy": -10.05, "intermolecular_energy": -11.84, "internal_energy": -1.19, "cluster_size": 26, "cluster_id": 1, "rank_in_cluster": 1}

>  <energy>  (41) 
-9.15

>  <cluster_rmsd>  (41) 
0.18

>  <cluster>  (41) 
3

$$$$

     RDKit          3D

 72 77  0  0  0  0  0  0  0  0999 V2000
  145.9010   67.8570  220.1050 N   0  0  0  0  0  0  0  0  0  0  0  0
  146.2670   68.9240  219.1910 C   0  0  0  0  0  0  0  0  0  0  0  0
  145.0360   69.7560  218.8980 C   0  0  0  0  0  0  0  0  0  0  0  0
  143.8620   69.1910  219.6680 C   0  0  0  0  0  0  0  0  0  0  0  0
  142.6480   70.0520  219.5580 C   0  0  0  0  0  0  0  0  0  0  0  0
  142.9600   71.4280  219.8490 N   0  0  0  0  0  0  0  0  0  0  0  0
  142.1060   72.1710  220.7190 C   0  0  0  0  0  0  0  0  0  0  0  0
  141.8990   73.4940  220.4830 N   0  0  0  0  0  0  0  0  0  0  0  0
  141.0940   74.1900  221.3050 C   0  0  0  0  0  0  0  0  0  0  0  0
  140.8160   75.5760  221.1390 N   0  0  0  0  0  0  0  0  0  0  0  0
  141.2250   76.3180  219.9650 C   0  0  0  0  0  0  0  0  0  0  0  0
  142.1400   77.4510  220.4550 C   0  0  0  0  0  0  0  0  0  0  0  0
  141.4500   78.1780  221.5140 N   0  0  0  0  0  0  0  0  0  0  0  0
  141.1600   79.5610  221.4560 C   0  0  0  0  0  0  0  0  0  0  0  0
  141.4560   80.4170  222.5230 C   0  0  0  0  0  0  0  0  0  0  0  0
  141.1830   81.7750  222.4640 C   0  0  0  0  0  0  0  0  0  0  0  0
  140.6100   82.3480  221.3590 C   0  0  0  0  0  0  0  0  0  0  0  0
  140.3110   81.5250  220.3010 C   0  0  0  0  0  0  0  0  0  0  0  0
  140.5850   80.1590  220.3570 C   0  0  0  0  0  0  0  0  0  0  0  0
  141.0820   77.3560  222.6720 C   0  0  0  0  0  0  0  0  0  0  0  0
  140.0870   76.3290  222.1740 C   0  0  0  0  0  0  0  0  0  0  0  0
  140.5150   73.5640  222.3360 N   0  0  0  0  0  0  0  0  0  0  0  0
  140.7050   72.2530  222.5910 C   0  0  0  0  0  0  0  0  0  0  0  0
  140.0840   71.5880  223.6930 N   0  0  0  0  0  0  0  0  0  0  0  0
  138.9150   70.7910  223.4910 C   0  0  0  0  0  0  0  0  0  0  0  0
  139.1430   69.3810  223.9760 C   0  0  0  0  0  0  0  0  0  0  0  0
  139.5970   69.4610  225.4010 C   0  0  0  0  0  0  0  0  0  0  0  0
  139.3190   68.4190  226.2700 C   0  0  0  0  0  0  0  0  0  0  0  0
  139.7290   68.4730  227.5900 C   0  0  0  0  0  0  0  0  0  0  0  0
  140.4230   69.5720  228.0500 C   0  0  0  0  0  0  0  0  0  0  0  0
  140.7120   70.6210  227.2010 C   0  0  0  0  0  0  0  0  0  0  0  0
  140.2970   70.5600  225.8820 C   0  0  0  0  0  0  0  0  0  0  0  0
  140.6380   71.7190  225.0200 C   0  0  0  0  0  0  0  0  0  0  0  0
  141.5100   71.5770  221.7620 N   0  0  0  0  0  0  0  0  0  0  0  0
  144.1260   72.0570  219.2680 C   0  0  0  0  0  0  0  0  0  0  0  0
  145.3330   71.1820  219.3060 C   0  0  0  0  0  0  0  0  0  0  0  0
  146.7140   67.3580  220.5010 H   0  0  0  0  0  0  0  0  0  0  0  0
  145.2340   67.2230  219.5960 H   0  0  0  0  0  0  0  0  0  0  0  0
  147.0404   69.5566  219.6512 H   0  0  0  0  0  0  0  0  0  0  0  0
  146.6626   68.4982  218.2571 H   0  0  0  0  0  0  0  0  0  0  0  0
  144.7791   69.7340  217.8286 H   0  0  0  0  0  0  0  0  0  0  0  0
  143.6254   68.1928  219.2709 H   0  0  0  0  0  0  0  0  0  0  0  0
  144.1464   69.1428  220.7295 H   0  0  0  0  0  0  0  0  0  0  0  0
  142.2498   69.9825  218.5350 H   0  0  0  0  0  0  0  0  0  0  0  0
  141.9033   69.7008  220.2874 H   0  0  0  0  0  0  0  0  0  0  0  0
  141.7724   75.6611  219.2731 H   0  0  0  0  0  0  0  0  0  0  0  0
  140.3533   76.7184  219.4266 H   0  0  0  0  0  0  0  0  0  0  0  0
  143.0775   77.0282  220.8453 H   0  0  0  0  0  0  0  0  0  0  0  0
  142.3762   78.1310  219.6232 H   0  0  0  0  0  0  0  0  0  0  0  0
  141.9169   80.0018  223.4314 H   0  0  0  0  0  0  0  0  0  0  0  0
  141.4330   82.4093  223.3272 H   0  0  0  0  0  0  0  0  0  0  0  0
  140.3975   83.4266  221.3208 H   0  0  0  0  0  0  0  0  0  0  0  0
  139.8491   81.9492  219.3972 H   0  0  0  0  0  0  0  0  0  0  0  0
  140.3316   79.5338  219.4881 H   0  0  0  0  0  0  0  0  0  0  0  0
  141.9722   76.8553  223.0804 H   0  0  0  0  0  0  0  0  0  0  0  0
  140.6491   77.9716  223.4743 H   0  0  0  0  0  0  0  0  0  0  0  0
  139.7749   75.6625  222.9916 H   0  0  0  0  0  0  0  0  0  0  0  0
  139.1692   76.7928  221.7835 H   0  0  0  0  0  0  0  0  0  0  0  0
  138.0754   71.2333  224.0474 H   0  0  0  0  0  0  0  0  0  0  0  0
  138.6864   70.7633  222.4154 H   0  0  0  0  0  0  0  0  0  0  0  0
  138.2073   68.8062  223.9120 H   0  0  0  0  0  0  0  0  0  0  0  0
  139.8996   68.8767  223.3569 H   0  0  0  0  0  0  0  0  0  0  0  0
  138.7667   67.5397  225.9069 H   0  0  0  0  0  0  0  0  0  0  0  0
  139.5017   67.6403  228.2718 H   0  0  0  0  0  0  0  0  0  0  0  0
  140.7483   69.6129  229.1000 H   0  0  0  0  0  0  0  0  0  0  0  0
  141.2666   71.4968  227.5689 H   0  0  0  0  0  0  0  0  0  0  0  0
  140.2401   72.6345  225.4821 H   0  0  0  0  0  0  0  0  0  0  0  0
  141.7333   71.7633  224.9280 H   0  0  0  0  0  0  0  0  0  0  0  0
  143.9053   72.3063  218.2196 H   0  0  0  0  0  0  0  0  0  0  0  0
  144.3489   72.9553  219.8624 H   0  0  0  0  0  0  0  0  0  0  0  0
  146.0876   71.5940  218.6198 H   0  0  0  0  0  0  0  0  0  0  0  0
  145.6944   71.1610  220.3447 H   0  0  0  0  0  0  0  0  0  0  0  0
  1  2  1  0
  2  3  1  0
  3  4  1  0
  4  5  1  0
  5  6  1  0
  6  7  1  0
  7  8  2  0
  8  9  1  0
  9 10  1  0
 10 11  1  0
 11 12  1  0
 12 13  1  0
 13 14  1  0
 14 15  2  0
 15 16  1  0
 16 17  2  0
 17 18  1  0
 18 19  2  0
 13 20  1  0
 20 21  1  0
  9 22  2  0
 22 23  1  0
 23 24  1  0
 24 25  1  0
 25 26  1  0
 26 27  1  0
 27 28  2  0
 28 29  1  0
 29 30  2  0
 30 31  1  0
 31 32  2  0
 32 33  1  0
 23 34  2  0
  6 35  1  0
 35 36  1  0
 36  3  1  0
 34  7  1  0
 21 10  1  0
 33 24  1  0
 19 14  1  0
 32 27  1  0
  1 37  1  0
  1 38  1  0
  2 39  1  0
  2 40  1  0
  3 41  1  0
  4 42  1  0
  4 43  1  0
  5 44  1  0
  5 45  1  0
 11 46  1  0
 11 47  1  0
 12 48  1  0
 12 49  1  0
 15 50  1  0
 16 51  1  0
 17 52  1  0
 18 53  1  0
 19 54  1  0
 20 55  1  0
 20 56  1  0
 21 57  1  0
 21 58  1  0
 25 59  1  0
 25 60  1  0
 26 61  1  0
 26 62  1  0
 28 63  1  0
 29 64  1  0
 30 65  1  0
 31 66  1  0
 33 67  1  0
 33 68  1  0
 35 69  1  0
 35 70  1  0
 36 71  1  0
 36 72  1  0
M  END
>  <smiles>  (42) 
NCC1CCN(c2nc(N3CCN(c4ccccc4)CC3)nc(N3CCc4ccccc4C3)n2)CC1

>  <score_type>  (42) 
oracle

>  <origin>  (42) 
autodockgpu

>  <m_score__min__energy>  (42) 
-10.050000000000001

>  <m_primary>  (42) 
energy

>  <rmsd>  (42) 
9.071797905556094

>  <m_score__min__rmsd>  (42) 
9.071797905556094

>  <meeko>  (42) 
{"free_energy": -10.03, "intermolecular_energy": -11.82, "internal_energy": -1.2, "cluster_size": 26, "cluster_id": 1, "rank_in_cluster": 3}

>  <energy>  (42) 
-9.13

>  <cluster_rmsd>  (42) 
0.54

>  <cluster>  (42) 
3

$$$$

     RDKit          3D

 72 77  0  0  0  0  0  0  0  0999 V2000
  142.6470   79.0400  222.4940 N   0  0  0  0  0  0  0  0  0  0  0  0
  141.4100   79.4750  221.8700 C   0  0  0  0  0  0  0  0  0  0  0  0
  140.6390   78.2530  221.4160 C   0  0  0  0  0  0  0  0  0  0  0  0
  141.5250   77.4150  220.5200 C   0  0  0  0  0  0  0  0  0  0  0  0
  140.8920   76.1120  220.1600 C   0  0  0  0  0  0  0  0  0  0  0  0
  140.3980   75.4350  221.3320 N   0  0  0  0  0  0  0  0  0  0  0  0
  140.6680   74.0430  221.5030 C   0  0  0  0  0  0  0  0  0  0  0  0
  141.3650   73.3750  220.5460 N   0  0  0  0  0  0  0  0  0  0  0  0
  141.6180   72.0650  220.7100 C   0  0  0  0  0  0  0  0  0  0  0  0
  142.3390   71.2820  219.7660 N   0  0  0  0  0  0  0  0  0  0  0  0
  141.8860   69.9800  219.3250 C   0  0  0  0  0  0  0  0  0  0  0  0
  142.9920   68.9790  219.6930 C   0  0  0  0  0  0  0  0  0  0  0  0
  144.2580   69.4750  219.1650 N   0  0  0  0  0  0  0  0  0  0  0  0
  145.0610   68.7550  218.2500 C   0  0  0  0  0  0  0  0  0  0  0  0
  145.5800   69.3580  217.0980 C   0  0  0  0  0  0  0  0  0  0  0  0
  146.3770   68.6580  216.2060 C   0  0  0  0  0  0  0  0  0  0  0  0
  146.6970   67.3410  216.4050 C   0  0  0  0  0  0  0  0  0  0  0  0
  146.1970   66.7300  217.5290 C   0  0  0  0  0  0  0  0  0  0  0  0
  145.3960   67.4310  218.4280 C   0  0  0  0  0  0  0  0  0  0  0  0
  144.6500   70.7950  219.6700 C   0  0  0  0  0  0  0  0  0  0  0  0
  143.6000   71.7720  219.1850 C   0  0  0  0  0  0  0  0  0  0  0  0
  141.1760   71.4490  221.8130 N   0  0  0  0  0  0  0  0  0  0  0  0
  140.4820   72.0900  222.7760 C   0  0  0  0  0  0  0  0  0  0  0  0
  140.0120   71.4280  223.9520 N   0  0  0  0  0  0  0  0  0  0  0  0
  138.8650   70.5770  223.8940 C   0  0  0  0  0  0  0  0  0  0  0  0
  139.2060   69.1910  224.3810 C   0  0  0  0  0  0  0  0  0  0  0  0
  139.8050   69.3260  225.7480 C   0  0  0  0  0  0  0  0  0  0  0  0
  139.6670   68.2960  226.6630 C   0  0  0  0  0  0  0  0  0  0  0  0
  140.2130   68.4020  227.9300 C   0  0  0  0  0  0  0  0  0  0  0  0
  140.9020   69.5410  228.2890 C   0  0  0  0  0  0  0  0  0  0  0  0
  141.0520   70.5780  227.3930 C   0  0  0  0  0  0  0  0  0  0  0  0
  140.5020   70.4660  226.1270 C   0  0  0  0  0  0  0  0  0  0  0  0
  140.6980   71.6150  225.2100 C   0  0  0  0  0  0  0  0  0  0  0  0
  140.2400   73.3940  222.5940 N   0  0  0  0  0  0  0  0  0  0  0  0
  139.6330   76.1520  222.3290 C   0  0  0  0  0  0  0  0  0  0  0  0
  140.2140   77.4880  222.6490 C   0  0  0  0  0  0  0  0  0  0  0  0
  143.4930   79.3500  221.9890 H   0  0  0  0  0  0  0  0  0  0  0  0
  142.5910   77.9960  222.6060 H   0  0  0  0  0  0  0  0  0  0  0  0
  140.8093   80.0432  222.5955 H   0  0  0  0  0  0  0  0  0  0  0  0
  141.6322   80.1198  221.0070 H   0  0  0  0  0  0  0  0  0  0  0  0
  139.7439   78.5312  220.8403 H   0  0  0  0  0  0  0  0  0  0  0  0
  141.7280   77.9773  219.5966 H   0  0  0  0  0  0  0  0  0  0  0  0
  142.4531   77.1990  221.0696 H   0  0  0  0  0  0  0  0  0  0  0  0
  140.0540   76.2974  219.4720 H   0  0  0  0  0  0  0  0  0  0  0  0
  141.6505   75.4749  219.6817 H   0  0  0  0  0  0  0  0  0  0  0  0
  140.9482   69.7126  219.8339 H   0  0  0  0  0  0  0  0  0  0  0  0
  141.6921   69.9747  218.2422 H   0  0  0  0  0  0  0  0  0  0  0  0
  143.0577   68.8839  220.7869 H   0  0  0  0  0  0  0  0  0  0  0  0
  142.7653   67.9917  219.2643 H   0  0  0  0  0  0  0  0  0  0  0  0
  145.3493   70.4143  216.8957 H   0  0  0  0  0  0  0  0  0  0  0  0
  146.7629   69.1738  215.3144 H   0  0  0  0  0  0  0  0  0  0  0  0
  147.3305   66.7934  215.6916 H   0  0  0  0  0  0  0  0  0  0  0  0
  146.4322   65.6729  217.7220 H   0  0  0  0  0  0  0  0  0  0  0  0
  145.0156   66.9055  219.3163 H   0  0  0  0  0  0  0  0  0  0  0  0
  144.6819   70.7867  220.7695 H   0  0  0  0  0  0  0  0  0  0  0  0
  145.6507   71.0766  219.3103 H   0  0  0  0  0  0  0  0  0  0  0  0
  143.8221   72.7889  219.5409 H   0  0  0  0  0  0  0  0  0  0  0  0
  143.5588   71.8287  218.0872 H   0  0  0  0  0  0  0  0  0  0  0  0
  138.0706   70.9975  224.5281 H   0  0  0  0  0  0  0  0  0  0  0  0
  138.5247   70.5119  222.8500 H   0  0  0  0  0  0  0  0  0  0  0  0
  138.2954   68.5758  224.4295 H   0  0  0  0  0  0  0  0  0  0  0  0
  139.9145   68.7038  223.6950 H   0  0  0  0  0  0  0  0  0  0  0  0
  139.1185   67.3854  226.3802 H   0  0  0  0  0  0  0  0  0  0  0  0
  140.0975   67.5784  228.6500 H   0  0  0  0  0  0  0  0  0  0  0  0
  141.3348   69.6229  229.2969 H   0  0  0  0  0  0  0  0  0  0  0  0
  141.6031   71.4854  227.6809 H   0  0  0  0  0  0  0  0  0  0  0  0
  140.3117   72.5246  225.6931 H   0  0  0  0  0  0  0  0  0  0  0  0
  141.7743   71.7018  225.0000 H   0  0  0  0  0  0  0  0  0  0  0  0
  138.6095   76.2945  221.9520 H   0  0  0  0  0  0  0  0  0  0  0  0
  139.6468   75.5538  223.2520 H   0  0  0  0  0  0  0  0  0  0  0  0
  139.4588   78.0799  223.1868 H   0  0  0  0  0  0  0  0  0  0  0  0
  141.1127   77.3203  223.2607 H   0  0  0  0  0  0  0  0  0  0  0  0
  1  2  1  0
  2  3  1  0
  3  4  1  0
  4  5  1  0
  5  6  1  0
  6  7  1  0
  7  8  2  0
  8  9  1  0
  9 10  1  0
 10 11  1  0
 11 12  1  0
 12 13  1  0
 13 14  1  0
 14 15  2  0
 15 16  1  0
 16 17  2  0
 17 18  1  0
 18 19  2  0
 13 20  1  0
 20 21  1  0
  9 22  2  0
 22 23  1  0
 23 24  1  0
 24 25  1  0
 25 26  1  0
 26 27  1  0
 27 28  2  0
 28 29  1  0
 29 30  2  0
 30 31  1  0
 31 32  2  0
 32 33  1  0
 23 34  2  0
  6 35  1  0
 35 36  1  0
 36  3  1  0
 34  7  1  0
 21 10  1  0
 33 24  1  0
 19 14  1  0
 32 27  1  0
  1 37  1  0
  1 38  1  0
  2 39  1  0
  2 40  1  0
  3 41  1  0
  4 42  1  0
  4 43  1  0
  5 44  1  0
  5 45  1  0
 11 46  1  0
 11 47  1  0
 12 48  1  0
 12 49  1  0
 15 50  1  0
 16 51  1  0
 17 52  1  0
 18 53  1  0
 19 54  1  0
 20 55  1  0
 20 56  1  0
 21 57  1  0
 21 58  1  0
 25 59  1  0
 25 60  1  0
 26 61  1  0
 26 62  1  0
 28 63  1  0
 29 64  1  0
 30 65  1  0
 31 66  1  0
 33 67  1  0
 33 68  1  0
 35 69  1  0
 35 70  1  0
 36 71  1  0
 36 72  1  0
M  END
>  <smiles>  (43) 
NCC1CCN(c2nc(N3CCN(c4ccccc4)CC3)nc(N3CCc4ccccc4C3)n2)CC1

>  <score_type>  (43) 
oracle

>  <origin>  (43) 
autodockgpu

>  <m_score__min__energy>  (43) 
-10.050000000000001

>  <m_primary>  (43) 
energy

>  <rmsd>  (43) 
8.628976271137722

>  <m_score__min__rmsd>  (43) 
8.628976271137722

>  <meeko>  (43) 
{"free_energy": -9.61, "intermolecular_energy": -11.4, "internal_energy": -1.21, "cluster_size": 13, "cluster_id": 2, "rank_in_cluster": 3}

>  <energy>  (43) 
-9.07

>  <cluster_rmsd>  (43) 
0.48

>  <cluster>  (43) 
3

$$$$

     RDKit          3D

 72 77  0  0  0  0  0  0  0  0999 V2000
  145.7360   68.1320  220.3010 N   0  0  0  0  0  0  0  0  0  0  0  0
  145.5020   68.2560  218.8730 C   0  0  0  0  0  0  0  0  0  0  0  0
  144.5150   69.3800  218.6390 C   0  0  0  0  0  0  0  0  0  0  0  0
  143.1670   68.9780  219.1970 C   0  0  0  0  0  0  0  0  0  0  0  0
  142.1800   70.0980  219.1480 C   0  0  0  0  0  0  0  0  0  0  0  0
  142.7360   71.3030  219.7080 N   0  0  0  0  0  0  0  0  0  0  0  0
  141.9590   72.0710  220.6280 C   0  0  0  0  0  0  0  0  0  0  0  0
  141.7720   73.3980  220.4000 N   0  0  0  0  0  0  0  0  0  0  0  0
  141.0400   74.1180  221.2670 C   0  0  0  0  0  0  0  0  0  0  0  0
  140.7890   75.5110  221.1140 N   0  0  0  0  0  0  0  0  0  0  0  0
  141.2210   76.2570  219.9510 C   0  0  0  0  0  0  0  0  0  0  0  0
  142.1530   77.3670  220.4610 C   0  0  0  0  0  0  0  0  0  0  0  0
  141.4660   78.0960  221.5210 N   0  0  0  0  0  0  0  0  0  0  0  0
  141.2020   79.4850  221.4740 C   0  0  0  0  0  0  0  0  0  0  0  0
  140.7750   80.1100  220.2970 C   0  0  0  0  0  0  0  0  0  0  0  0
  140.5040   81.4690  220.2510 C   0  0  0  0  0  0  0  0  0  0  0  0
  140.6420   82.2690  221.3550 C   0  0  0  0  0  0  0  0  0  0  0  0
  141.0610   81.6750  222.5200 C   0  0  0  0  0  0  0  0  0  0  0  0
  141.3330   80.3090  222.5690 C   0  0  0  0  0  0  0  0  0  0  0  0
  141.0730   77.2700  222.6670 C   0  0  0  0  0  0  0  0  0  0  0  0
  140.0650   76.2660  222.1500 C   0  0  0  0  0  0  0  0  0  0  0  0
  140.5120   73.5110  222.3370 N   0  0  0  0  0  0  0  0  0  0  0  0
  140.6830   72.1960  222.5850 C   0  0  0  0  0  0  0  0  0  0  0  0
  140.1170   71.5510  223.7270 N   0  0  0  0  0  0  0  0  0  0  0  0
  138.9590   70.7230  223.5910 C   0  0  0  0  0  0  0  0  0  0  0  0
  139.2360   69.3340  224.1070 C   0  0  0  0  0  0  0  0  0  0  0  0
  139.7380   69.4650  225.5130 C   0  0  0  0  0  0  0  0  0  0  0  0
  139.5140   68.4440  226.4200 C   0  0  0  0  0  0  0  0  0  0  0  0
  139.9690   68.5460  227.7230 C   0  0  0  0  0  0  0  0  0  0  0  0
  140.6540   69.6730  228.1250 C   0  0  0  0  0  0  0  0  0  0  0  0
  140.8890   70.7020  227.2370 C   0  0  0  0  0  0  0  0  0  0  0  0
  140.4290   70.5920  225.9360 C   0  0  0  0  0  0  0  0  0  0  0  0
  140.7140   71.7320  225.0300 C   0  0  0  0  0  0  0  0  0  0  0  0
  141.4160   71.4960  221.7090 N   0  0  0  0  0  0  0  0  0  0  0  0
  144.0670   71.7380  219.3460 C   0  0  0  0  0  0  0  0  0  0  0  0
  145.0520   70.6180  219.3210 C   0  0  0  0  0  0  0  0  0  0  0  0
  146.3900   67.3710  220.5460 H   0  0  0  0  0  0  0  0  0  0  0  0
  144.7980   68.0380  220.7660 H   0  0  0  0  0  0  0  0  0  0  0  0
  146.4489   68.4822  218.3610 H   0  0  0  0  0  0  0  0  0  0  0  0
  145.0976   67.3132  218.4761 H   0  0  0  0  0  0  0  0  0  0  0  0
  144.3870   69.5883  217.5665 H   0  0  0  0  0  0  0  0  0  0  0  0
  142.7764   68.1354  218.6075 H   0  0  0  0  0  0  0  0  0  0  0  0
  143.3077   68.6974  220.2513 H   0  0  0  0  0  0  0  0  0  0  0  0
  141.8996   70.2844  218.1008 H   0  0  0  0  0  0  0  0  0  0  0  0
  141.2974   69.8125  219.7392 H   0  0  0  0  0  0  0  0  0  0  0  0
  141.7616   75.5972  219.2564 H   0  0  0  0  0  0  0  0  0  0  0  0
  140.3616   76.6791  219.4095 H   0  0  0  0  0  0  0  0  0  0  0  0
  143.0785   76.9224  220.8558 H   0  0  0  0  0  0  0  0  0  0  0  0
  142.4108   78.0507  219.6387 H   0  0  0  0  0  0  0  0  0  0  0  0
  140.6512   79.5077  219.3849 H   0  0  0  0  0  0  0  0  0  0  0  0
  140.1695   81.9167  219.3036 H   0  0  0  0  0  0  0  0  0  0  0  0
  140.4253   83.3465  221.3097 H   0  0  0  0  0  0  0  0  0  0  0  0
  141.1836   82.2855  223.4268 H   0  0  0  0  0  0  0  0  0  0  0  0
  141.6660   79.8713  223.5217 H   0  0  0  0  0  0  0  0  0  0  0  0
  141.9504   76.7496  223.0786 H   0  0  0  0  0  0  0  0  0  0  0  0
  140.6437   77.8854  223.4713 H   0  0  0  0  0  0  0  0  0  0  0  0
  139.7342   75.5969  222.9580 H   0  0  0  0  0  0  0  0  0  0  0  0
  139.1591   76.7500  221.7563 H   0  0  0  0  0  0  0  0  0  0  0  0
  138.1304   71.1633  224.1651 H   0  0  0  0  0  0  0  0  0  0  0  0
  138.6922   70.6588  222.5258 H   0  0  0  0  0  0  0  0  0  0  0  0
  138.3120   68.7373  224.0926 H   0  0  0  0  0  0  0  0  0  0  0  0
  139.9819   68.8289  223.4758 H   0  0  0  0  0  0  0  0  0  0  0  0
  138.9691   67.5428  226.1022 H   0  0  0  0  0  0  0  0  0  0  0  0
  139.7845   67.7295  228.4366 H   0  0  0  0  0  0  0  0  0  0  0  0
  141.0156   69.7521  229.1609 H   0  0  0  0  0  0  0  0  0  0  0  0
  141.4360   71.6003  227.5592 H   0  0  0  0  0  0  0  0  0  0  0  0
  140.3124   72.6520  225.4798 H   0  0  0  0  0  0  0  0  0  0  0  0
  141.8042   71.7963  224.8979 H   0  0  0  0  0  0  0  0  0  0  0  0
  144.0281   72.1948  218.3461 H   0  0  0  0  0  0  0  0  0  0  0  0
  144.4006   72.4567  220.1090 H   0  0  0  0  0  0  0  0  0  0  0  0
  145.9514   70.9530  218.7836 H   0  0  0  0  0  0  0  0  0  0  0  0
  145.2756   70.3505  220.3643 H   0  0  0  0  0  0  0  0  0  0  0  0
  1  2  1  0
  2  3  1  0
  3  4  1  0
  4  5  1  0
  5  6  1  0
  6  7  1  0
  7  8  2  0
  8  9  1  0
  9 10  1  0
 10 11  1  0
 11 12  1  0
 12 13  1  0
 13 14  1  0
 14 15  2  0
 15 16  1  0
 16 17  2  0
 17 18  1  0
 18 19  2  0
 13 20  1  0
 20 21  1  0
  9 22  2  0
 22 23  1  0
 23 24  1  0
 24 25  1  0
 25 26  1  0
 26 27  1  0
 27 28  2  0
 28 29  1  0
 29 30  2  0
 30 31  1  0
 31 32  2  0
 32 33  1  0
 23 34  2  0
  6 35  1  0
 35 36  1  0
 36  3  1  0
 34  7  1  0
 21 10  1  0
 33 24  1  0
 19 14  1  0
 32 27  1  0
  1 37  1  0
  1 38  1  0
  2 39  1  0
  2 40  1  0
  3 41  1  0
  4 42  1  0
  4 43  1  0
  5 44  1  0
  5 45  1  0
 11 46  1  0
 11 47  1  0
 12 48  1  0
 12 49  1  0
 15 50  1  0
 16 51  1  0
 17 52  1  0
 18 53  1  0
 19 54  1  0
 20 55  1  0
 20 56  1  0
 21 57  1  0
 21 58  1  0
 25 59  1  0
 25 60  1  0
 26 61  1  0
 26 62  1  0
 28 63  1  0
 29 64  1  0
 30 65  1  0
 31 66  1  0
 33 67  1  0
 33 68  1  0
 35 69  1  0
 35 70  1  0
 36 71  1  0
 36 72  1  0
M  END
>  <smiles>  (44) 
NCC1CCN(c2nc(N3CCN(c4ccccc4)CC3)nc(N3CCc4ccccc4C3)n2)CC1

>  <score_type>  (44) 
oracle

>  <origin>  (44) 
autodockgpu

>  <m_score__min__energy>  (44) 
-10.050000000000001

>  <m_primary>  (44) 
energy

>  <rmsd>  (44) 
8.848671564505834

>  <m_score__min__rmsd>  (44) 
8.848671564505834

>  <meeko>  (44) 
{"free_energy": -9.95, "intermolecular_energy": -11.74, "internal_energy": -1.21, "cluster_size": 26, "cluster_id": 1, "rank_in_cluster": 8}

>  <energy>  (44) 
-8.97

>  <cluster_rmsd>  (44) 
0.7

>  <cluster>  (44) 
3

$$$$

     RDKit          3D

 72 77  0  0  0  0  0  0  0  0999 V2000
  140.0480   67.8210  227.1230 N   0  0  0  0  0  0  0  0  0  0  0  0
  139.2680   67.9150  225.9020 C   0  0  0  0  0  0  0  0  0  0  0  0
  139.1820   69.3710  225.4930 C   0  0  0  0  0  0  0  0  0  0  0  0
  140.5670   69.9800  225.5390 C   0  0  0  0  0  0  0  0  0  0  0  0
  140.5890   71.3700  224.9950 C   0  0  0  0  0  0  0  0  0  0  0  0
  139.9400   71.4340  223.7110 N   0  0  0  0  0  0  0  0  0  0  0  0
  140.5680   72.1430  222.6420 C   0  0  0  0  0  0  0  0  0  0  0  0
  140.3210   73.4700  222.4840 N   0  0  0  0  0  0  0  0  0  0  0  0
  140.9140   74.1350  221.4770 C   0  0  0  0  0  0  0  0  0  0  0  0
  140.7180   75.5230  221.2310 N   0  0  0  0  0  0  0  0  0  0  0  0
  141.1650   76.1690  220.0160 C   0  0  0  0  0  0  0  0  0  0  0  0
  142.1480   77.2730  220.4390 C   0  0  0  0  0  0  0  0  0  0  0  0
  141.5060   78.1000  221.4530 N   0  0  0  0  0  0  0  0  0  0  0  0
  141.2980   79.4920  221.3140 C   0  0  0  0  0  0  0  0  0  0  0  0
  141.0960   80.3170  222.4270 C   0  0  0  0  0  0  0  0  0  0  0  0
  140.9030   81.6830  222.2940 C   0  0  0  0  0  0  0  0  0  0  0  0
  140.8990   82.2950  221.0690 C   0  0  0  0  0  0  0  0  0  0  0  0
  141.0950   81.5030  219.9640 C   0  0  0  0  0  0  0  0  0  0  0  0
  141.2900   80.1290  220.0940 C   0  0  0  0  0  0  0  0  0  0  0  0
  141.0940   77.3700  222.6580 C   0  0  0  0  0  0  0  0  0  0  0  0
  140.0390   76.3760  222.2200 C   0  0  0  0  0  0  0  0  0  0  0  0
  141.7360   73.4730  220.6540 N   0  0  0  0  0  0  0  0  0  0  0  0
  141.9980   72.1570  220.7910 C   0  0  0  0  0  0  0  0  0  0  0  0
  142.8760   71.4540  219.9100 N   0  0  0  0  0  0  0  0  0  0  0  0
  143.9010   72.1540  219.1990 C   0  0  0  0  0  0  0  0  0  0  0  0
  145.2560   71.5690  219.5080 C   0  0  0  0  0  0  0  0  0  0  0  0
  145.1930   70.1020  219.2130 C   0  0  0  0  0  0  0  0  0  0  0  0
  146.3400   69.4300  218.8230 C   0  0  0  0  0  0  0  0  0  0  0  0
  146.3030   68.0750  218.5460 C   0  0  0  0  0  0  0  0  0  0  0  0
  145.1160   67.3820  218.6580 C   0  0  0  0  0  0  0  0  0  0  0  0
  143.9630   68.0310  219.0470 C   0  0  0  0  0  0  0  0  0  0  0  0
  144.0080   69.3870  219.3210 C   0  0  0  0  0  0  0  0  0  0  0  0
  142.7340   70.0270  219.7330 C   0  0  0  0  0  0  0  0  0  0  0  0
  141.3960   71.5120  221.7990 N   0  0  0  0  0  0  0  0  0  0  0  0
  138.6620   70.7910  223.4990 C   0  0  0  0  0  0  0  0  0  0  0  0
  138.5980   69.4260  224.0990 C   0  0  0  0  0  0  0  0  0  0  0  0
  140.3480   66.8570  227.3450 H   0  0  0  0  0  0  0  0  0  0  0  0
  139.4850   68.2660  227.8910 H   0  0  0  0  0  0  0  0  0  0  0  0
  139.7561   67.3347  225.1051 H   0  0  0  0  0  0  0  0  0  0  0  0
  138.2583   67.5120  226.0697 H   0  0  0  0  0  0  0  0  0  0  0  0
  138.5385   69.9452  226.1758 H   0  0  0  0  0  0  0  0  0  0  0  0
  140.9096   70.0029  226.5840 H   0  0  0  0  0  0  0  0  0  0  0  0
  141.2291   69.3620  224.9147 H   0  0  0  0  0  0  0  0  0  0  0  0
  140.0667   72.0383  225.6954 H   0  0  0  0  0  0  0  0  0  0  0  0
  141.6370   71.6811  224.8729 H   0  0  0  0  0  0  0  0  0  0  0  0
  141.6698   75.4415  219.3634 H   0  0  0  0  0  0  0  0  0  0  0  0
  140.3165   76.5881  219.4553 H   0  0  0  0  0  0  0  0  0  0  0  0
  143.0601   76.8189  220.8535 H   0  0  0  0  0  0  0  0  0  0  0  0
  142.4215   77.8879  219.5689 H   0  0  0  0  0  0  0  0  0  0  0  0
  141.0903   79.8699  223.4320 H   0  0  0  0  0  0  0  0  0  0  0  0
  140.7489   82.2920  223.1969 H   0  0  0  0  0  0  0  0  0  0  0  0
  140.7447   83.3799  220.9735 H   0  0  0  0  0  0  0  0  0  0  0  0
  141.0981   81.9592  218.9631 H   0  0  0  0  0  0  0  0  0  0  0  0
  141.4437   79.5295  219.1846 H   0  0  0  0  0  0  0  0  0  0  0  0
  141.9545   76.8426  223.0954 H   0  0  0  0  0  0  0  0  0  0  0  0
  140.7008   78.0557  223.4230 H   0  0  0  0  0  0  0  0  0  0  0  0
  139.6910   75.7775  223.0748 H   0  0  0  0  0  0  0  0  0  0  0  0
  139.1490   76.8699  221.8029 H   0  0  0  0  0  0  0  0  0  0  0  0
  143.7106   72.0740  218.1186 H   0  0  0  0  0  0  0  0  0  0  0  0
  143.8911   73.2090  219.5102 H   0  0  0  0  0  0  0  0  0  0  0  0
  146.0227   72.0456  218.8794 H   0  0  0  0  0  0  0  0  0  0  0  0
  145.5199   71.7404  220.5620 H   0  0  0  0  0  0  0  0  0  0  0  0
  147.2890   69.9789  218.7327 H   0  0  0  0  0  0  0  0  0  0  0  0
  147.2194   67.5510  218.2368 H   0  0  0  0  0  0  0  0  0  0  0  0
  145.0887   66.3050  218.4357 H   0  0  0  0  0  0  0  0  0  0  0  0
  143.0173   67.4767  219.1386 H   0  0  0  0  0  0  0  0  0  0  0  0
  141.9758   69.8392  218.9585 H   0  0  0  0  0  0  0  0  0  0  0  0
  142.4335   69.5937  220.6984 H   0  0  0  0  0  0  0  0  0  0  0  0
  137.8758   71.4122  223.9528 H   0  0  0  0  0  0  0  0  0  0  0  0
  138.5196   70.6840  222.4135 H   0  0  0  0  0  0  0  0  0  0  0  0
  137.5449   69.1119  224.1464 H   0  0  0  0  0  0  0  0  0  0  0  0
  139.1952   68.7561  223.4629 H   0  0  0  0  0  0  0  0  0  0  0  0
  1  2  1  0
  2  3  1  0
  3  4  1  0
  4  5  1  0
  5  6  1  0
  6  7  1  0
  7  8  2  0
  8  9  1  0
  9 10  1  0
 10 11  1  0
 11 12  1  0
 12 13  1  0
 13 14  1  0
 14 15  2  0
 15 16  1  0
 16 17  2  0
 17 18  1  0
 18 19  2  0
 13 20  1  0
 20 21  1  0
  9 22  2  0
 22 23  1  0
 23 24  1  0
 24 25  1  0
 25 26  1  0
 26 27  1  0
 27 28  2  0
 28 29  1  0
 29 30  2  0
 30 31  1  0
 31 32  2  0
 32 33  1  0
 23 34  2  0
  6 35  1  0
 35 36  1  0
 36  3  1  0
 34  7  1  0
 21 10  1  0
 33 24  1  0
 19 14  1  0
 32 27  1  0
  1 37  1  0
  1 38  1  0
  2 39  1  0
  2 40  1  0
  3 41  1  0
  4 42  1  0
  4 43  1  0
  5 44  1  0
  5 45  1  0
 11 46  1  0
 11 47  1  0
 12 48  1  0
 12 49  1  0
 15 50  1  0
 16 51  1  0
 17 52  1  0
 18 53  1  0
 19 54  1  0
 20 55  1  0
 20 56  1  0
 21 57  1  0
 21 58  1  0
 25 59  1  0
 25 60  1  0
 26 61  1  0
 26 62  1  0
 28 63  1  0
 29 64  1  0
 30 65  1  0
 31 66  1  0
 33 67  1  0
 33 68  1  0
 35 69  1  0
 35 70  1  0
 36 71  1  0
 36 72  1  0
M  END
>  <smiles>  (45) 
NCC1CCN(c2nc(N3CCN(c4ccccc4)CC3)nc(N3CCc4ccccc4C3)n2)CC1

>  <score_type>  (45) 
oracle

>  <origin>  (45) 
autodockgpu

>  <m_score__min__energy>  (45) 
-10.050000000000001

>  <m_primary>  (45) 
energy

>  <rmsd>  (45) 
9.086788984284468

>  <m_score__min__rmsd>  (45) 
9.086788984284468

>  <meeko>  (45) 
{"free_energy": -8.87, "intermolecular_energy": -10.66, "internal_energy": -1.22, "cluster_size": 6, "cluster_id": 4, "rank_in_cluster": 4}

>  <energy>  (45) 
-9.02

>  <cluster_rmsd>  (45) 
0.0

>  <cluster>  (45) 
4

$$$$

     RDKit          3D

 72 77  0  0  0  0  0  0  0  0999 V2000
  145.8820   67.9030  220.1360 N   0  0  0  0  0  0  0  0  0  0  0  0
  146.2180   68.8770  219.1120 C   0  0  0  0  0  0  0  0  0  0  0  0
  144.9980   69.7300  218.8350 C   0  0  0  0  0  0  0  0  0  0  0  0
  143.8190   69.1730  219.6040 C   0  0  0  0  0  0  0  0  0  0  0  0
  142.6170   70.0540  219.5090 C   0  0  0  0  0  0  0  0  0  0  0  0
  142.9520   71.4210  219.8150 N   0  0  0  0  0  0  0  0  0  0  0  0
  142.1120   72.1660  220.6980 C   0  0  0  0  0  0  0  0  0  0  0  0
  141.9070   73.4900  220.4660 N   0  0  0  0  0  0  0  0  0  0  0  0
  141.1160   74.1890  221.2990 C   0  0  0  0  0  0  0  0  0  0  0  0
  140.8410   75.5760  221.1390 N   0  0  0  0  0  0  0  0  0  0  0  0
  141.2610   76.3240  219.9720 C   0  0  0  0  0  0  0  0  0  0  0  0
  142.1730   77.4530  220.4770 C   0  0  0  0  0  0  0  0  0  0  0  0
  141.4750   78.1750  221.5340 N   0  0  0  0  0  0  0  0  0  0  0  0
  141.1870   79.5590  221.4800 C   0  0  0  0  0  0  0  0  0  0  0  0
  141.6800   80.4470  222.4420 C   0  0  0  0  0  0  0  0  0  0  0  0
  141.4100   81.8050  222.3870 C   0  0  0  0  0  0  0  0  0  0  0  0
  140.6450   82.3470  221.3880 C   0  0  0  0  0  0  0  0  0  0  0  0
  140.1500   81.4920  220.4330 C   0  0  0  0  0  0  0  0  0  0  0  0
  140.4210   80.1260  220.4860 C   0  0  0  0  0  0  0  0  0  0  0  0
  141.0960   77.3470  222.6840 C   0  0  0  0  0  0  0  0  0  0  0  0
  140.1050   76.3240  222.1720 C   0  0  0  0  0  0  0  0  0  0  0  0
  140.5490   73.5640  222.3380 N   0  0  0  0  0  0  0  0  0  0  0  0
  140.7370   72.2520  222.5890 C   0  0  0  0  0  0  0  0  0  0  0  0
  140.1300   71.5880  223.6990 N   0  0  0  0  0  0  0  0  0  0  0  0
  138.9670   70.7780  223.5090 C   0  0  0  0  0  0  0  0  0  0  0  0
  139.2120   69.3740  224.0010 C   0  0  0  0  0  0  0  0  0  0  0  0
  139.6730   69.4670  225.4240 C   0  0  0  0  0  0  0  0  0  0  0  0
  139.4100   68.4290  226.3000 C   0  0  0  0  0  0  0  0  0  0  0  0
  139.8270   68.4960  227.6180 C   0  0  0  0  0  0  0  0  0  0  0  0
  140.5130   69.6040  228.0660 C   0  0  0  0  0  0  0  0  0  0  0  0
  140.7870   70.6500  227.2090 C   0  0  0  0  0  0  0  0  0  0  0  0
  140.3650   70.5760  225.8930 C   0  0  0  0  0  0  0  0  0  0  0  0
  140.6900   71.7330  225.0220 C   0  0  0  0  0  0  0  0  0  0  0  0
  141.5290   71.5730  221.7480 N   0  0  0  0  0  0  0  0  0  0  0  0
  144.1230   72.0400  219.2350 C   0  0  0  0  0  0  0  0  0  0  0  0
  145.3170   71.1460  219.2580 C   0  0  0  0  0  0  0  0  0  0  0  0
  146.7000   67.3840  220.4940 H   0  0  0  0  0  0  0  0  0  0  0  0
  145.1360   67.2770  219.7400 H   0  0  0  0  0  0  0  0  0  0  0  0
  147.0431   69.5140  219.4634 H   0  0  0  0  0  0  0  0  0  0  0  0
  146.5316   68.3613  218.1924 H   0  0  0  0  0  0  0  0  0  0  0  0
  144.7362   69.7242  217.7666 H   0  0  0  0  0  0  0  0  0  0  0  0
  143.5659   68.1831  219.1964 H   0  0  0  0  0  0  0  0  0  0  0  0
  144.1071   69.1077  220.6636 H   0  0  0  0  0  0  0  0  0  0  0  0
  142.2137   70.0029  218.4869 H   0  0  0  0  0  0  0  0  0  0  0  0
  141.8694   69.7056  220.2368 H   0  0  0  0  0  0  0  0  0  0  0  0
  141.8137   75.6703  219.2812 H   0  0  0  0  0  0  0  0  0  0  0  0
  140.3947   76.7282  219.4277 H   0  0  0  0  0  0  0  0  0  0  0  0
  143.1064   77.0266  220.8731 H   0  0  0  0  0  0  0  0  0  0  0  0
  142.4171   78.1376  219.6513 H   0  0  0  0  0  0  0  0  0  0  0  0
  142.2983   80.0569  223.2639 H   0  0  0  0  0  0  0  0  0  0  0  0
  141.8205   82.4649  223.1655 H   0  0  0  0  0  0  0  0  0  0  0  0
  140.4349   83.4261  221.3518 H   0  0  0  0  0  0  0  0  0  0  0  0
  139.5315   81.8911  219.6156 H   0  0  0  0  0  0  0  0  0  0  0  0
  140.0065   79.4747  219.7025 H   0  0  0  0  0  0  0  0  0  0  0  0
  141.9821   76.8432  223.0975 H   0  0  0  0  0  0  0  0  0  0  0  0
  140.6565   77.9586  223.4857 H   0  0  0  0  0  0  0  0  0  0  0  0
  139.7856   75.6533  222.9832 H   0  0  0  0  0  0  0  0  0  0  0  0
  139.1911   76.7912  221.7762 H   0  0  0  0  0  0  0  0  0  0  0  0
  138.1266   71.2154  224.0679 H   0  0  0  0  0  0  0  0  0  0  0  0
  138.7319   70.7415  222.4351 H   0  0  0  0  0  0  0  0  0  0  0  0
  138.2819   68.7893  223.9454 H   0  0  0  0  0  0  0  0  0  0  0  0
  139.9706   68.8740  223.3809 H   0  0  0  0  0  0  0  0  0  0  0  0
  138.8643   67.5421  225.9456 H   0  0  0  0  0  0  0  0  0  0  0  0
  139.6111   67.6660  228.3069 H   0  0  0  0  0  0  0  0  0  0  0  0
  140.8443   69.6548  229.1137 H   0  0  0  0  0  0  0  0  0  0  0  0
  141.3352   71.5336  227.5680 H   0  0  0  0  0  0  0  0  0  0  0  0
  140.2856   72.6474  225.4806 H   0  0  0  0  0  0  0  0  0  0  0  0
  141.7842   71.7876  224.9238 H   0  0  0  0  0  0  0  0  0  0  0  0
  143.9009   72.3039  218.1905 H   0  0  0  0  0  0  0  0  0  0  0  0
  144.3617   72.9292  219.8369 H   0  0  0  0  0  0  0  0  0  0  0  0
  146.0751   71.5547  218.5737 H   0  0  0  0  0  0  0  0  0  0  0  0
  145.6813   71.1073  220.2952 H   0  0  0  0  0  0  0  0  0  0  0  0
  1  2  1  0
  2  3  1  0
  3  4  1  0
  4  5  1  0
  5  6  1  0
  6  7  1  0
  7  8  2  0
  8  9  1  0
  9 10  1  0
 10 11  1  0
 11 12  1  0
 12 13  1  0
 13 14  1  0
 14 15  2  0
 15 16  1  0
 16 17  2  0
 17 18  1  0
 18 19  2  0
 13 20  1  0
 20 21  1  0
  9 22  2  0
 22 23  1  0
 23 24  1  0
 24 25  1  0
 25 26  1  0
 26 27  1  0
 27 28  2  0
 28 29  1  0
 29 30  2  0
 30 31  1  0
 31 32  2  0
 32 33  1  0
 23 34  2  0
  6 35  1  0
 35 36  1  0
 36  3  1  0
 34  7  1  0
 21 10  1  0
 33 24  1  0
 19 14  1  0
 32 27  1  0
  1 37  1  0
  1 38  1  0
  2 39  1  0
  2 40  1  0
  3 41  1  0
  4 42  1  0
  4 43  1  0
  5 44  1  0
  5 45  1  0
 11 46  1  0
 11 47  1  0
 12 48  1  0
 12 49  1  0
 15 50  1  0
 16 51  1  0
 17 52  1  0
 18 53  1  0
 19 54  1  0
 20 55  1  0
 20 56  1  0
 21 57  1  0
 21 58  1  0
 25 59  1  0
 25 60  1  0
 26 61  1  0
 26 62  1  0
 28 63  1  0
 29 64  1  0
 30 65  1  0
 31 66  1  0
 33 67  1  0
 33 68  1  0
 35 69  1  0
 35 70  1  0
 36 71  1  0
 36 72  1  0
M  END
>  <smiles>  (46) 
NCC1CCN(c2nc(N3CCN(c4ccccc4)CC3)nc(N3CCc4ccccc4C3)n2)CC1

>  <score_type>  (46) 
oracle

>  <origin>  (46) 
autodockgpu

>  <m_score__min__energy>  (46) 
-10.050000000000001

>  <m_primary>  (46) 
energy

>  <rmsd>  (46) 
9.068446582111969

>  <m_score__min__rmsd>  (46) 
9.068446582111969

>  <meeko>  (46) 
{"free_energy": -10.03, "intermolecular_energy": -11.82, "internal_energy": -1.19, "cluster_size": 26, "cluster_id": 1, "rank_in_cluster": 2}

>  <energy>  (46) 
-9.02

>  <cluster_rmsd>  (46) 
0.58

>  <cluster>  (46) 
4

$$$$

     RDKit          3D

 72 77  0  0  0  0  0  0  0  0999 V2000
  146.5810   73.7450  217.4360 N   0  0  0  0  0  0  0  0  0  0  0  0
  145.6020   72.7420  217.0530 C   0  0  0  0  0  0  0  0  0  0  0  0
  144.9980   72.1500  218.3090 C   0  0  0  0  0  0  0  0  0  0  0  0
  145.1030   73.1580  219.4320 C   0  0  0  0  0  0  0  0  0  0  0  0
  144.3850   72.7090  220.6620 C   0  0  0  0  0  0  0  0  0  0  0  0
  143.0450   72.2810  220.3520 N   0  0  0  0  0  0  0  0  0  0  0  0
  141.9610   72.7270  221.1680 C   0  0  0  0  0  0  0  0  0  0  0  0
  141.4660   73.9810  220.9950 N   0  0  0  0  0  0  0  0  0  0  0  0
  140.4460   74.3980  221.7650 C   0  0  0  0  0  0  0  0  0  0  0  0
  139.8610   75.6910  221.6580 N   0  0  0  0  0  0  0  0  0  0  0  0
  140.6520   76.8940  221.5070 C   0  0  0  0  0  0  0  0  0  0  0  0
  140.3160   77.7960  222.7050 C   0  0  0  0  0  0  0  0  0  0  0  0
  138.8670   77.9390  222.7850 N   0  0  0  0  0  0  0  0  0  0  0  0
  138.1970   79.1830  222.7230 C   0  0  0  0  0  0  0  0  0  0  0  0
  138.6160   80.2790  223.4840 C   0  0  0  0  0  0  0  0  0  0  0  0
  137.9690   81.5030  223.4170 C   0  0  0  0  0  0  0  0  0  0  0  0
  136.8850   81.7010  222.6030 C   0  0  0  0  0  0  0  0  0  0  0  0
  136.4560   80.6380  221.8470 C   0  0  0  0  0  0  0  0  0  0  0  0
  137.1060   79.4060  221.9120 C   0  0  0  0  0  0  0  0  0  0  0  0
  138.1410   76.6740  222.9490 C   0  0  0  0  0  0  0  0  0  0  0  0
  138.3990   75.8640  221.6960 C   0  0  0  0  0  0  0  0  0  0  0  0
  139.9410   73.5670  222.6850 N   0  0  0  0  0  0  0  0  0  0  0  0
  140.4140   72.3180  222.8750 C   0  0  0  0  0  0  0  0  0  0  0  0
  139.8720   71.4340  223.8580 N   0  0  0  0  0  0  0  0  0  0  0  0
  138.7990   70.5510  223.5220 C   0  0  0  0  0  0  0  0  0  0  0  0
  139.1830   69.1190  223.7990 C   0  0  0  0  0  0  0  0  0  0  0  0
  139.6260   69.0370  225.2280 C   0  0  0  0  0  0  0  0  0  0  0  0
  139.4650   67.8540  225.9290 C   0  0  0  0  0  0  0  0  0  0  0  0
  139.8680   67.7580  227.2500 C   0  0  0  0  0  0  0  0  0  0  0  0
  140.4350   68.8470  227.8770 C   0  0  0  0  0  0  0  0  0  0  0  0
  140.6050   70.0350  227.1960 C   0  0  0  0  0  0  0  0  0  0  0  0
  140.1990   70.1230  225.8760 C   0  0  0  0  0  0  0  0  0  0  0  0
  140.4090   71.4270  225.1990 C   0  0  0  0  0  0  0  0  0  0  0  0
  141.4320   71.9220  222.0990 N   0  0  0  0  0  0  0  0  0  0  0  0
  142.7930   71.4060  219.2290 C   0  0  0  0  0  0  0  0  0  0  0  0
  143.5580   71.8000  218.0100 C   0  0  0  0  0  0  0  0  0  0  0  0
  146.7800   73.7580  218.4500 H   0  0  0  0  0  0  0  0  0  0  0  0
  146.2430   74.6690  217.0690 H   0  0  0  0  0  0  0  0  0  0  0  0
  144.8118   73.2085  216.4464 H   0  0  0  0  0  0  0  0  0  0  0  0
  146.0866   71.9515  216.4611 H   0  0  0  0  0  0  0  0  0  0  0  0
  145.5313   71.2405  218.6228 H   0  0  0  0  0  0  0  0  0  0  0  0
  146.1652   73.3068  219.6763 H   0  0  0  0  0  0  0  0  0  0  0  0
  144.6358   74.0936  219.0908 H   0  0  0  0  0  0  0  0  0  0  0  0
  144.9350   71.8700  221.1132 H   0  0  0  0  0  0  0  0  0  0  0  0
  144.3287   73.5551  221.3627 H   0  0  0  0  0  0  0  0  0  0  0  0
  141.7236   76.6458  221.5080 H   0  0  0  0  0  0  0  0  0  0  0  0
  140.4271   77.3989  220.5559 H   0  0  0  0  0  0  0  0  0  0  0  0
  140.6954   77.3394  223.6311 H   0  0  0  0  0  0  0  0  0  0  0  0
  140.7854   78.7826  222.5771 H   0  0  0  0  0  0  0  0  0  0  0  0
  139.4817   80.1667  224.1533 H   0  0  0  0  0  0  0  0  0  0  0  0
  138.3354   82.3371  224.0335 H   0  0  0  0  0  0  0  0  0  0  0  0
  136.3770   82.6756  222.5567 H   0  0  0  0  0  0  0  0  0  0  0  0
  135.5885   80.7598  221.1816 H   0  0  0  0  0  0  0  0  0  0  0  0
  136.7325   78.5788  221.2906 H   0  0  0  0  0  0  0  0  0  0  0  0
  138.5121   76.1348  223.8331 H   0  0  0  0  0  0  0  0  0  0  0  0
  137.0649   76.8492  223.0946 H   0  0  0  0  0  0  0  0  0  0  0  0
  137.8942   74.8884  221.7538 H   0  0  0  0  0  0  0  0  0  0  0  0
  138.0147   76.3604  220.7927 H   0  0  0  0  0  0  0  0  0  0  0  0
  137.9152   70.8110  224.1231 H   0  0  0  0  0  0  0  0  0  0  0  0
  138.5750   70.6570  222.4503 H   0  0  0  0  0  0  0  0  0  0  0  0
  138.3172   68.4603  223.6363 H   0  0  0  0  0  0  0  0  0  0  0  0
  139.9911   68.7985  223.1250 H   0  0  0  0  0  0  0  0  0  0  0  0
  139.0130   66.9829  225.4321 H   0  0  0  0  0  0  0  0  0  0  0  0
  139.7359   66.8138  227.7987 H   0  0  0  0  0  0  0  0  0  0  0  0
  140.7539   68.7684  228.9268 H   0  0  0  0  0  0  0  0  0  0  0  0
  141.0584   70.9029  227.6971 H   0  0  0  0  0  0  0  0  0  0  0  0
  139.9125   72.2149  225.7844 H   0  0  0  0  0  0  0  0  0  0  0  0
  141.4926   71.6039  225.1317 H   0  0  0  0  0  0  0  0  0  0  0  0
  143.0804   70.3818  219.5093 H   0  0  0  0  0  0  0  0  0  0  0  0
  141.7223   71.4758  218.9867 H   0  0  0  0  0  0  0  0  0  0  0  0
  143.5407   70.9616  217.2981 H   0  0  0  0  0  0  0  0  0  0  0  0
  143.0785   72.6985  217.5944 H   0  0  0  0  0  0  0  0  0  0  0  0
  1  2  1  0
  2  3  1  0
  3  4  1  0
  4  5  1  0
  5  6  1  0
  6  7  1  0
  7  8  2  0
  8  9  1  0
  9 10  1  0
 10 11  1  0
 11 12  1  0
 12 13  1  0
 13 14  1  0
 14 15  2  0
 15 16  1  0
 16 17  2  0
 17 18  1  0
 18 19  2  0
 13 20  1  0
 20 21  1  0
  9 22  2  0
 22 23  1  0
 23 24  1  0
 24 25  1  0
 25 26  1  0
 26 27  1  0
 27 28  2  0
 28 29  1  0
 29 30  2  0
 30 31  1  0
 31 32  2  0
 32 33  1  0
 23 34  2  0
  6 35  1  0
 35 36  1  0
 36  3  1  0
 34  7  1  0
 21 10  1  0
 33 24  1  0
 19 14  1  0
 32 27  1  0
  1 37  1  0
  1 38  1  0
  2 39  1  0
  2 40  1  0
  3 41  1  0
  4 42  1  0
  4 43  1  0
  5 44  1  0
  5 45  1  0
 11 46  1  0
 11 47  1  0
 12 48  1  0
 12 49  1  0
 15 50  1  0
 16 51  1  0
 17 52  1  0
 18 53  1  0
 19 54  1  0
 20 55  1  0
 20 56  1  0
 21 57  1  0
 21 58  1  0
 25 59  1  0
 25 60  1  0
 26 61  1  0
 26 62  1  0
 28 63  1  0
 29 64  1  0
 30 65  1  0
 31 66  1  0
 33 67  1  0
 33 68  1  0
 35 69  1  0
 35 70  1  0
 36 71  1  0
 36 72  1  0
M  END
>  <smiles>  (47) 
NCC1CCN(c2nc(N3CCN(c4ccccc4)CC3)nc(N3CCc4ccccc4C3)n2)CC1

>  <score_type>  (47) 
oracle

>  <origin>  (47) 
autodockgpu

>  <m_score__min__energy>  (47) 
-10.050000000000001

>  <m_primary>  (47) 
energy

>  <rmsd>  (47) 
8.604178972862128

>  <m_score__min__rmsd>  (47) 
8.604178972862128

>  <meeko>  (47) 
{"free_energy": -9.18, "intermolecular_energy": -10.97, "internal_energy": -1.03, "cluster_size": 5, "cluster_id": 3, "rank_in_cluster": 1}

>  <energy>  (47) 
-8.9

>  <cluster_rmsd>  (47) 
0.64

>  <cluster>  (47) 
4

$$$$

     RDKit          3D

 72 77  0  0  0  0  0  0  0  0999 V2000
  146.0310   68.0480  220.1260 N   0  0  0  0  0  0  0  0  0  0  0  0
  146.1060   68.7990  218.8860 C   0  0  0  0  0  0  0  0  0  0  0  0
  144.7970   69.5340  218.6840 C   0  0  0  0  0  0  0  0  0  0  0  0
  143.7700   68.9910  219.6530 C   0  0  0  0  0  0  0  0  0  0  0  0
  142.5000   69.7750  219.6260 C   0  0  0  0  0  0  0  0  0  0  0  0
  142.7600   71.1870  219.7430 N   0  0  0  0  0  0  0  0  0  0  0  0
  141.9790   71.9700  220.6470 C   0  0  0  0  0  0  0  0  0  0  0  0
  141.7990   73.2950  220.3990 N   0  0  0  0  0  0  0  0  0  0  0  0
  141.0630   74.0290  221.2520 C   0  0  0  0  0  0  0  0  0  0  0  0
  140.8180   75.4200  221.0770 N   0  0  0  0  0  0  0  0  0  0  0  0
  141.2790   76.1530  219.9180 C   0  0  0  0  0  0  0  0  0  0  0  0
  142.2000   77.2680  220.4380 C   0  0  0  0  0  0  0  0  0  0  0  0
  141.4890   78.0090  221.4730 N   0  0  0  0  0  0  0  0  0  0  0  0
  141.2290   79.3980  221.4060 C   0  0  0  0  0  0  0  0  0  0  0  0
  140.9180   80.0260  220.1950 C   0  0  0  0  0  0  0  0  0  0  0  0
  140.6500   81.3850  220.1270 C   0  0  0  0  0  0  0  0  0  0  0  0
  140.6780   82.1810  221.2410 C   0  0  0  0  0  0  0  0  0  0  0  0
  140.9820   81.5840  222.4400 C   0  0  0  0  0  0  0  0  0  0  0  0
  141.2510   80.2180  222.5110 C   0  0  0  0  0  0  0  0  0  0  0  0
  141.0670   77.1960  222.6190 C   0  0  0  0  0  0  0  0  0  0  0  0
  140.0700   76.1880  222.0880 C   0  0  0  0  0  0  0  0  0  0  0  0
  140.5250   73.4380  222.3250 N   0  0  0  0  0  0  0  0  0  0  0  0
  140.6890   72.1260  222.5920 C   0  0  0  0  0  0  0  0  0  0  0  0
  140.1130   71.4990  223.7400 N   0  0  0  0  0  0  0  0  0  0  0  0
  138.9550   70.6710  223.6060 C   0  0  0  0  0  0  0  0  0  0  0  0
  139.2260   69.2890  224.1450 C   0  0  0  0  0  0  0  0  0  0  0  0
  139.7170   69.4400  225.5530 C   0  0  0  0  0  0  0  0  0  0  0  0
  139.4840   68.4330  226.4730 C   0  0  0  0  0  0  0  0  0  0  0  0
  139.9290   68.5540  227.7780 C   0  0  0  0  0  0  0  0  0  0  0  0
  140.6120   69.6860  228.1690 C   0  0  0  0  0  0  0  0  0  0  0  0
  140.8550   70.7010  227.2680 C   0  0  0  0  0  0  0  0  0  0  0  0
  140.4060   70.5730  225.9650 C   0  0  0  0  0  0  0  0  0  0  0  0
  140.7000   71.6990  225.0440 C   0  0  0  0  0  0  0  0  0  0  0  0
  141.4260   71.4120  221.7320 N   0  0  0  0  0  0  0  0  0  0  0  0
  143.7990   71.8130  218.9550 C   0  0  0  0  0  0  0  0  0  0  0  0
  145.0540   71.0070  218.9140 C   0  0  0  0  0  0  0  0  0  0  0  0
  146.6850   68.3850  220.8510 H   0  0  0  0  0  0  0  0  0  0  0  0
  146.1650   67.0330  219.8880 H   0  0  0  0  0  0  0  0  0  0  0  0
  146.9324   69.5229  218.9410 H   0  0  0  0  0  0  0  0  0  0  0  0
  146.2858   68.1149  218.0436 H   0  0  0  0  0  0  0  0  0  0  0  0
  144.4064   69.3916  217.6656 H   0  0  0  0  0  0  0  0  0  0  0  0
  143.5479   67.9473  219.3859 H   0  0  0  0  0  0  0  0  0  0  0  0
  144.1905   69.0637  220.6669 H   0  0  0  0  0  0  0  0  0  0  0  0
  141.9793   69.5830  218.6763 H   0  0  0  0  0  0  0  0  0  0  0  0
  141.8781   69.4624  220.4778 H   0  0  0  0  0  0  0  0  0  0  0  0
  141.8355   75.4853  219.2439 H   0  0  0  0  0  0  0  0  0  0  0  0
  140.4333   76.5704  219.3518 H   0  0  0  0  0  0  0  0  0  0  0  0
  143.1153   76.8270  220.8596 H   0  0  0  0  0  0  0  0  0  0  0  0
  142.4780   77.9424  219.6146 H   0  0  0  0  0  0  0  0  0  0  0  0
  140.8852   79.4265  219.2733 H   0  0  0  0  0  0  0  0  0  0  0  0
  140.4086   81.8353  219.1528 H   0  0  0  0  0  0  0  0  0  0  0  0
  140.4650   83.2583  221.1779 H   0  0  0  0  0  0  0  0  0  0  0  0
  141.0136   82.1917  223.3563 H   0  0  0  0  0  0  0  0  0  0  0  0
  141.4906   79.7776  223.4901 H   0  0  0  0  0  0  0  0  0  0  0  0
  141.9332   76.6788  223.0574 H   0  0  0  0  0  0  0  0  0  0  0  0
  140.6198   77.8206  223.4063 H   0  0  0  0  0  0  0  0  0  0  0  0
  139.7183   75.5281  222.8947 H   0  0  0  0  0  0  0  0  0  0  0  0
  139.1750   76.6695  221.6671 H   0  0  0  0  0  0  0  0  0  0  0  0
  138.1221   71.1208  224.1663 H   0  0  0  0  0  0  0  0  0  0  0  0
  138.6970   70.5917  222.5396 H   0  0  0  0  0  0  0  0  0  0  0  0
  138.3013   68.6934  224.1321 H   0  0  0  0  0  0  0  0  0  0  0  0
  139.9763   68.7737  223.5274 H   0  0  0  0  0  0  0  0  0  0  0  0
  138.9401   67.5280  226.1644 H   0  0  0  0  0  0  0  0  0  0  0  0
  139.7380   67.7482  228.5021 H   0  0  0  0  0  0  0  0  0  0  0  0
  140.9653   69.7800  229.2065 H   0  0  0  0  0  0  0  0  0  0  0  0
  141.4002   71.6034  227.5816 H   0  0  0  0  0  0  0  0  0  0  0  0
  140.2963   72.6263  225.4767 H   0  0  0  0  0  0  0  0  0  0  0  0
  141.7912   71.7599  224.9195 H   0  0  0  0  0  0  0  0  0  0  0  0
  143.4307   71.9436  217.9268 H   0  0  0  0  0  0  0  0  0  0  0  0
  144.0384   72.7776  219.4264 H   0  0  0  0  0  0  0  0  0  0  0  0
  145.6879   71.3848  218.0983 H   0  0  0  0  0  0  0  0  0  0  0  0
  145.5453   71.1088  219.8929 H   0  0  0  0  0  0  0  0  0  0  0  0
  1  2  1  0
  2  3  1  0
  3  4  1  0
  4  5  1  0
  5  6  1  0
  6  7  1  0
  7  8  2  0
  8  9  1  0
  9 10  1  0
 10 11  1  0
 11 12  1  0
 12 13  1  0
 13 14  1  0
 14 15  2  0
 15 16  1  0
 16 17  2  0
 17 18  1  0
 18 19  2  0
 13 20  1  0
 20 21  1  0
  9 22  2  0
 22 23  1  0
 23 24  1  0
 24 25  1  0
 25 26  1  0
 26 27  1  0
 27 28  2  0
 28 29  1  0
 29 30  2  0
 30 31  1  0
 31 32  2  0
 32 33  1  0
 23 34  2  0
  6 35  1  0
 35 36  1  0
 36  3  1  0
 34  7  1  0
 21 10  1  0
 33 24  1  0
 19 14  1  0
 32 27  1  0
  1 37  1  0
  1 38  1  0
  2 39  1  0
  2 40  1  0
  3 41  1  0
  4 42  1  0
  4 43  1  0
  5 44  1  0
  5 45  1  0
 11 46  1  0
 11 47  1  0
 12 48  1  0
 12 49  1  0
 15 50  1  0
 16 51  1  0
 17 52  1  0
 18 53  1  0
 19 54  1  0
 20 55  1  0
 20 56  1  0
 21 57  1  0
 21 58  1  0
 25 59  1  0
 25 60  1  0
 26 61  1  0
 26 62  1  0
 28 63  1  0
 29 64  1  0
 30 65  1  0
 31 66  1  0
 33 67  1  0
 33 68  1  0
 35 69  1  0
 35 70  1  0
 36 71  1  0
 36 72  1  0
M  END
>  <smiles>  (48) 
NCC1CCN(c2nc(N3CCN(c4ccccc4)CC3)nc(N3CCc4ccccc4C3)n2)CC1

>  <score_type>  (48) 
oracle

>  <origin>  (48) 
autodockgpu

>  <m_score__min__energy>  (48) 
-10.050000000000001

>  <m_primary>  (48) 
energy

>  <rmsd>  (48) 
8.806532476210657

>  <m_score__min__rmsd>  (48) 
8.806532476210657

>  <meeko>  (48) 
{"free_energy": -9.65, "intermolecular_energy": -11.44, "internal_energy": -1.22, "cluster_size": 26, "cluster_id": 1, "rank_in_cluster": 15}

>  <energy>  (48) 
-8.87

>  <cluster_rmsd>  (48) 
0.6

>  <cluster>  (48) 
4

$$$$

     RDKit          3D

 72 77  0  0  0  0  0  0  0  0999 V2000
  142.5830   79.0700  222.4210 N   0  0  0  0  0  0  0  0  0  0  0  0
  141.3910   79.4910  221.7070 C   0  0  0  0  0  0  0  0  0  0  0  0
  140.6120   78.2600  221.2930 C   0  0  0  0  0  0  0  0  0  0  0  0
  141.4800   77.4050  220.3960 C   0  0  0  0  0  0  0  0  0  0  0  0
  140.8400   76.0940  220.0760 C   0  0  0  0  0  0  0  0  0  0  0  0
  140.3720   75.4410  221.2720 N   0  0  0  0  0  0  0  0  0  0  0  0
  140.6470   74.0530  221.4650 C   0  0  0  0  0  0  0  0  0  0  0  0
  141.3510   73.3740  220.5210 N   0  0  0  0  0  0  0  0  0  0  0  0
  141.6080   72.0670  220.7050 C   0  0  0  0  0  0  0  0  0  0  0  0
  142.3370   71.2730  219.7760 N   0  0  0  0  0  0  0  0  0  0  0  0
  141.8760   69.9740  219.3320 C   0  0  0  0  0  0  0  0  0  0  0  0
  142.9650   68.9630  219.7220 C   0  0  0  0  0  0  0  0  0  0  0  0
  144.2450   69.4420  219.2130 N   0  0  0  0  0  0  0  0  0  0  0  0
  145.0560   68.7100  218.3140 C   0  0  0  0  0  0  0  0  0  0  0  0
  145.8630   67.6540  218.7500 C   0  0  0  0  0  0  0  0  0  0  0  0
  146.6500   66.9270  217.8690 C   0  0  0  0  0  0  0  0  0  0  0  0
  146.6780   67.2080  216.5290 C   0  0  0  0  0  0  0  0  0  0  0  0
  145.8930   68.2410  216.0800 C   0  0  0  0  0  0  0  0  0  0  0  0
  145.1000   68.9730  216.9630 C   0  0  0  0  0  0  0  0  0  0  0  0
  144.6440   70.7600  219.7210 C   0  0  0  0  0  0  0  0  0  0  0  0
  143.6130   71.7470  219.2150 C   0  0  0  0  0  0  0  0  0  0  0  0
  141.1640   71.4650  221.8160 N   0  0  0  0  0  0  0  0  0  0  0  0
  140.4640   72.1180  222.7660 C   0  0  0  0  0  0  0  0  0  0  0  0
  139.9920   71.4720  223.9500 N   0  0  0  0  0  0  0  0  0  0  0  0
  138.8430   70.6230  223.9020 C   0  0  0  0  0  0  0  0  0  0  0  0
  139.1820   69.2430  224.4070 C   0  0  0  0  0  0  0  0  0  0  0  0
  139.7800   69.3930  225.7720 C   0  0  0  0  0  0  0  0  0  0  0  0
  139.6390   68.3760  226.7000 C   0  0  0  0  0  0  0  0  0  0  0  0
  140.1840   68.4960  227.9660 C   0  0  0  0  0  0  0  0  0  0  0  0
  140.8760   69.6380  228.3110 C   0  0  0  0  0  0  0  0  0  0  0  0
  141.0280   70.6640  227.4020 C   0  0  0  0  0  0  0  0  0  0  0  0
  140.4790   70.5360  226.1380 C   0  0  0  0  0  0  0  0  0  0  0  0
  140.6780   71.6740  225.2060 C   0  0  0  0  0  0  0  0  0  0  0  0
  140.2180   73.4190  222.5630 N   0  0  0  0  0  0  0  0  0  0  0  0
  139.6280   76.1770  222.2700 C   0  0  0  0  0  0  0  0  0  0  0  0
  140.2150   77.5200  222.5510 C   0  0  0  0  0  0  0  0  0  0  0  0
  143.4550   79.4660  222.0340 H   0  0  0  0  0  0  0  0  0  0  0  0
  142.5810   78.0190  222.4430 H   0  0  0  0  0  0  0  0  0  0  0  0
  140.7696   80.1191  222.3623 H   0  0  0  0  0  0  0  0  0  0  0  0
  141.6734   80.0724  220.8169 H   0  0  0  0  0  0  0  0  0  0  0  0
  139.7049   78.5254  220.7302 H   0  0  0  0  0  0  0  0  0  0  0  0
  141.6630   77.9485  219.4573 H   0  0  0  0  0  0  0  0  0  0  0  0
  142.4199   77.2010  220.9298 H   0  0  0  0  0  0  0  0  0  0  0  0
  139.9872   76.2651  219.4027 H   0  0  0  0  0  0  0  0  0  0  0  0
  141.5884   75.4475  219.5944 H   0  0  0  0  0  0  0  0  0  0  0  0
  140.9271   69.7189  219.8265 H   0  0  0  0  0  0  0  0  0  0  0  0
  141.6991   69.9664  218.2463 H   0  0  0  0  0  0  0  0  0  0  0  0
  143.0118   68.8721  220.8172 H   0  0  0  0  0  0  0  0  0  0  0  0
  142.7343   67.9766  219.2933 H   0  0  0  0  0  0  0  0  0  0  0  0
  145.8738   67.3935  219.8186 H   0  0  0  0  0  0  0  0  0  0  0  0
  147.2676   66.1034  218.2567 H   0  0  0  0  0  0  0  0  0  0  0  0
  147.3064   66.6273  215.8377 H   0  0  0  0  0  0  0  0  0  0  0  0
  145.8896   68.4945  215.0096 H   0  0  0  0  0  0  0  0  0  0  0  0
  144.4850   69.7933  216.5645 H   0  0  0  0  0  0  0  0  0  0  0  0
  144.6573   70.7550  220.8209 H   0  0  0  0  0  0  0  0  0  0  0  0
  145.6538   71.0292  219.3778 H   0  0  0  0  0  0  0  0  0  0  0  0
  143.8403   72.7626  219.5713 H   0  0  0  0  0  0  0  0  0  0  0  0
  143.5911   71.8004  218.1165 H   0  0  0  0  0  0  0  0  0  0  0  0
  138.0491   71.0531  224.5303 H   0  0  0  0  0  0  0  0  0  0  0  0
  138.5024   70.5455  222.8589 H   0  0  0  0  0  0  0  0  0  0  0  0
  138.2705   68.6297  224.4624 H   0  0  0  0  0  0  0  0  0  0  0  0
  139.8909   68.7470  223.7277 H   0  0  0  0  0  0  0  0  0  0  0  0
  139.0883   67.4634  226.4284 H   0  0  0  0  0  0  0  0  0  0  0  0
  140.0656   67.6819  228.6962 H   0  0  0  0  0  0  0  0  0  0  0  0
  141.3095   69.7311  229.3177 H   0  0  0  0  0  0  0  0  0  0  0  0
  141.5798   71.5745  227.6787 H   0  0  0  0  0  0  0  0  0  0  0  0
  140.2932   72.5904  225.6773 H   0  0  0  0  0  0  0  0  0  0  0  0
  141.7545   71.7564  224.9956 H   0  0  0  0  0  0  0  0  0  0  0  0
  138.5966   76.3115  221.9120 H   0  0  0  0  0  0  0  0  0  0  0  0
  139.6617   75.5974  223.2043 H   0  0  0  0  0  0  0  0  0  0  0  0
  139.4713   78.1223  223.0934 H   0  0  0  0  0  0  0  0  0  0  0  0
  141.1269   77.3653  223.1465 H   0  0  0  0  0  0  0  0  0  0  0  0
  1  2  1  0
  2  3  1  0
  3  4  1  0
  4  5  1  0
  5  6  1  0
  6  7  1  0
  7  8  2  0
  8  9  1  0
  9 10  1  0
 10 11  1  0
 11 12  1  0
 12 13  1  0
 13 14  1  0
 14 15  2  0
 15 16  1  0
 16 17  2  0
 17 18  1  0
 18 19  2  0
 13 20  1  0
 20 21  1  0
  9 22  2  0
 22 23  1  0
 23 24  1  0
 24 25  1  0
 25 26  1  0
 26 27  1  0
 27 28  2  0
 28 29  1  0
 29 30  2  0
 30 31  1  0
 31 32  2  0
 32 33  1  0
 23 34  2  0
  6 35  1  0
 35 36  1  0
 36  3  1  0
 34  7  1  0
 21 10  1  0
 33 24  1  0
 19 14  1  0
 32 27  1  0
  1 37  1  0
  1 38  1  0
  2 39  1  0
  2 40  1  0
  3 41  1  0
  4 42  1  0
  4 43  1  0
  5 44  1  0
  5 45  1  0
 11 46  1  0
 11 47  1  0
 12 48  1  0
 12 49  1  0
 15 50  1  0
 16 51  1  0
 17 52  1  0
 18 53  1  0
 19 54  1  0
 20 55  1  0
 20 56  1  0
 21 57  1  0
 21 58  1  0
 25 59  1  0
 25 60  1  0
 26 61  1  0
 26 62  1  0
 28 63  1  0
 29 64  1  0
 30 65  1  0
 31 66  1  0
 33 67  1  0
 33 68  1  0
 35 69  1  0
 35 70  1  0
 36 71  1  0
 36 72  1  0
M  END
>  <smiles>  (49) 
NCC1CCN(c2nc(N3CCN(c4ccccc4)CC3)nc(N3CCc4ccccc4C3)n2)CC1

>  <score_type>  (49) 
oracle

>  <origin>  (49) 
autodockgpu

>  <m_score__min__energy>  (49) 
-10.050000000000001

>  <m_primary>  (49) 
energy

>  <rmsd>  (49) 
8.760208170713744

>  <m_score__min__rmsd>  (49) 
8.760208170713744

>  <meeko>  (49) 
{"free_energy": -9.6, "intermolecular_energy": -11.39, "internal_energy": -1.21, "cluster_size": 13, "cluster_id": 2, "rank_in_cluster": 5}

>  <energy>  (49) 
-8.76

>  <cluster_rmsd>  (49) 
0.44

>  <cluster>  (49) 
4

$$$$

     RDKit          3D

 72 77  0  0  0  0  0  0  0  0999 V2000
  145.5630   68.3800  220.0760 N   0  0  0  0  0  0  0  0  0  0  0  0
  144.9760   68.3690  218.7480 C   0  0  0  0  0  0  0  0  0  0  0  0
  144.0240   69.5400  218.6290 C   0  0  0  0  0  0  0  0  0  0  0  0
  142.6550   69.1170  219.1160 C   0  0  0  0  0  0  0  0  0  0  0  0
  141.7000   70.2640  219.1800 C   0  0  0  0  0  0  0  0  0  0  0  0
  142.2780   71.3790  219.8840 N   0  0  0  0  0  0  0  0  0  0  0  0
  141.5040   72.0590  220.8730 C   0  0  0  0  0  0  0  0  0  0  0  0
  141.1930   73.3710  220.6930 N   0  0  0  0  0  0  0  0  0  0  0  0
  140.4640   74.0080  221.6270 C   0  0  0  0  0  0  0  0  0  0  0  0
  140.0880   75.3770  221.5270 N   0  0  0  0  0  0  0  0  0  0  0  0
  141.0590   76.4500  221.4840 C   0  0  0  0  0  0  0  0  0  0  0  0
  140.7660   77.3580  222.6880 C   0  0  0  0  0  0  0  0  0  0  0  0
  139.3530   77.7170  222.6640 N   0  0  0  0  0  0  0  0  0  0  0  0
  138.8830   79.0500  222.6010 C   0  0  0  0  0  0  0  0  0  0  0  0
  138.8090   79.8550  223.7430 C   0  0  0  0  0  0  0  0  0  0  0  0
  138.3600   81.1650  223.6830 C   0  0  0  0  0  0  0  0  0  0  0  0
  137.9640   81.7370  222.5030 C   0  0  0  0  0  0  0  0  0  0  0  0
  138.0270   80.9640  221.3700 C   0  0  0  0  0  0  0  0  0  0  0  0
  138.4800   79.6460  221.4280 C   0  0  0  0  0  0  0  0  0  0  0  0
  138.4370   76.5730  222.7230 C   0  0  0  0  0  0  0  0  0  0  0  0
  138.6700   75.7680  221.4630 C   0  0  0  0  0  0  0  0  0  0  0  0
  140.0620   73.3350  222.7120 N   0  0  0  0  0  0  0  0  0  0  0  0
  140.3580   72.0340  222.9120 C   0  0  0  0  0  0  0  0  0  0  0  0
  139.9260   71.3200  224.0720 N   0  0  0  0  0  0  0  0  0  0  0  0
  138.8160   70.4220  223.9970 C   0  0  0  0  0  0  0  0  0  0  0  0
  139.2220   69.0390  224.4420 C   0  0  0  0  0  0  0  0  0  0  0  0
  139.8240   69.1620  225.8080 C   0  0  0  0  0  0  0  0  0  0  0  0
  139.7380   68.1010  226.6940 C   0  0  0  0  0  0  0  0  0  0  0  0
  140.2880   68.1950  227.9610 C   0  0  0  0  0  0  0  0  0  0  0  0
  140.9290   69.3520  228.3480 C   0  0  0  0  0  0  0  0  0  0  0  0
  141.0270   70.4200  227.4800 C   0  0  0  0  0  0  0  0  0  0  0  0
  140.4730   70.3190  226.2160 C   0  0  0  0  0  0  0  0  0  0  0  0
  140.6120   71.5020  225.3300 C   0  0  0  0  0  0  0  0  0  0  0  0
  141.0850   71.4180  221.9720 N   0  0  0  0  0  0  0  0  0  0  0  0
  143.6270   71.8140  219.5960 C   0  0  0  0  0  0  0  0  0  0  0  0
  144.5810   70.6760  219.4580 C   0  0  0  0  0  0  0  0  0  0  0  0
  144.8750   68.5430  220.8290 H   0  0  0  0  0  0  0  0  0  0  0  0
  146.3420   69.0860  220.0690 H   0  0  0  0  0  0  0  0  0  0  0  0
  145.7696   68.4587  217.9916 H   0  0  0  0  0  0  0  0  0  0  0  0
  144.4330   67.4262  218.5858 H   0  0  0  0  0  0  0  0  0  0  0  0
  143.9222   69.8723  217.5853 H   0  0  0  0  0  0  0  0  0  0  0  0
  142.2527   68.3590  218.4278 H   0  0  0  0  0  0  0  0  0  0  0  0
  142.7679   68.7142  220.1333 H   0  0  0  0  0  0  0  0  0  0  0  0
  141.4456   70.5776  218.1568 H   0  0  0  0  0  0  0  0  0  0  0  0
  140.7981   69.9389  219.7193 H   0  0  0  0  0  0  0  0  0  0  0  0
  142.0781   76.0423  221.5556 H   0  0  0  0  0  0  0  0  0  0  0  0
  140.9891   77.0097  220.5396 H   0  0  0  0  0  0  0  0  0  0  0  0
  140.9971   76.8231  223.6210 H   0  0  0  0  0  0  0  0  0  0  0  0
  141.3862   78.2650  222.6357 H   0  0  0  0  0  0  0  0  0  0  0  0
  139.1151   79.4375  224.7136 H   0  0  0  0  0  0  0  0  0  0  0  0
  138.3207   81.7607  224.6069 H   0  0  0  0  0  0  0  0  0  0  0  0
  137.6086   82.7773  222.4646 H   0  0  0  0  0  0  0  0  0  0  0  0
  137.7163   81.3894  220.4044 H   0  0  0  0  0  0  0  0  0  0  0  0
  138.5166   79.0592  220.4983 H   0  0  0  0  0  0  0  0  0  0  0  0
  138.6521   75.9598  223.6105 H   0  0  0  0  0  0  0  0  0  0  0  0
  137.3908   76.9054  222.7939 H   0  0  0  0  0  0  0  0  0  0  0  0
  138.0227   74.8788  221.4454 H   0  0  0  0  0  0  0  0  0  0  0  0
  138.4366   76.3411  220.5535 H   0  0  0  0  0  0  0  0  0  0  0  0
  138.0091   70.7892  224.6482 H   0  0  0  0  0  0  0  0  0  0  0  0
  138.4697   70.3720  222.9541 H   0  0  0  0  0  0  0  0  0  0  0  0
  138.3401   68.3825  224.4784 H   0  0  0  0  0  0  0  0  0  0  0  0
  139.9464   68.6035  223.7381 H   0  0  0  0  0  0  0  0  0  0  0  0
  139.2282   67.1754  226.3883 H   0  0  0  0  0  0  0  0  0  0  0  0
  140.2135   67.3472  228.6580 H   0  0  0  0  0  0  0  0  0  0  0  0
  141.3652   69.4245  229.3552 H   0  0  0  0  0  0  0  0  0  0  0  0
  141.5403   71.3423  227.7896 H   0  0  0  0  0  0  0  0  0  0  0  0
  140.1897   72.3798  225.8409 H   0  0  0  0  0  0  0  0  0  0  0  0
  141.6819   71.6423  225.1162 H   0  0  0  0  0  0  0  0  0  0  0  0
  143.6199   72.3835  218.6549 H   0  0  0  0  0  0  0  0  0  0  0  0
  143.9652   72.4307  220.4417 H   0  0  0  0  0  0  0  0  0  0  0  0
  145.4995   71.0440  218.9775 H   0  0  0  0  0  0  0  0  0  0  0  0
  144.7765   70.2841  220.4671 H   0  0  0  0  0  0  0  0  0  0  0  0
  1  2  1  0
  2  3  1  0
  3  4  1  0
  4  5  1  0
  5  6  1  0
  6  7  1  0
  7  8  2  0
  8  9  1  0
  9 10  1  0
 10 11  1  0
 11 12  1  0
 12 13  1  0
 13 14  1  0
 14 15  2  0
 15 16  1  0
 16 17  2  0
 17 18  1  0
 18 19  2  0
 13 20  1  0
 20 21  1  0
  9 22  2  0
 22 23  1  0
 23 24  1  0
 24 25  1  0
 25 26  1  0
 26 27  1  0
 27 28  2  0
 28 29  1  0
 29 30  2  0
 30 31  1  0
 31 32  2  0
 32 33  1  0
 23 34  2  0
  6 35  1  0
 35 36  1  0
 36  3  1  0
 34  7  1  0
 21 10  1  0
 33 24  1  0
 19 14  1  0
 32 27  1  0
  1 37  1  0
  1 38  1  0
  2 39  1  0
  2 40  1  0
  3 41  1  0
  4 42  1  0
  4 43  1  0
  5 44  1  0
  5 45  1  0
 11 46  1  0
 11 47  1  0
 12 48  1  0
 12 49  1  0
 15 50  1  0
 16 51  1  0
 17 52  1  0
 18 53  1  0
 19 54  1  0
 20 55  1  0
 20 56  1  0
 21 57  1  0
 21 58  1  0
 25 59  1  0
 25 60  1  0
 26 61  1  0
 26 62  1  0
 28 63  1  0
 29 64  1  0
 30 65  1  0
 31 66  1  0
 33 67  1  0
 33 68  1  0
 35 69  1  0
 35 70  1  0
 36 71  1  0
 36 72  1  0
M  END
>  <smiles>  (50) 
NCC1CCN(c2nc(N3CCN(c4ccccc4)CC3)nc(N3CCc4ccccc4C3)n2)CC1

>  <score_type>  (50) 
oracle

>  <origin>  (50) 
autodockgpu

>  <m_score__min__energy>  (50) 
-10.050000000000001

>  <m_primary>  (50) 
energy

>  <rmsd>  (50) 
8.53151250527075

>  <m_score__min__rmsd>  (50) 
8.53151250527075

>  <meeko>  (50) 
{"free_energy": -9.01, "intermolecular_energy": -10.8, "internal_energy": -1.2, "cluster_size": 26, "cluster_id": 1, "rank_in_cluster": 25}

>  <energy>  (50) 
-8.63

>  <cluster_rmsd>  (50) 
1.27

>  <cluster>  (50) 
4

$$$$
