
     RDKit          3D

 44 46  0  0  0  0  0  0  0  0999 V2000
  138.3590   70.6250  222.3990 C   0  0  0  0  0  0  0  0  0  0  0  0
  138.9040   71.5980  223.4240 C   0  0  2  0  0  0  0  0  0  0  0  0
  139.6350   72.6550  222.7560 N   0  0  0  0  0  0  0  0  0  0  0  0
  140.6540   72.3460  221.8250 C   0  0  0  0  0  0  0  0  0  0  0  0
  140.8990   71.1280  221.5950 O   0  0  0  0  0  0  0  0  0  0  0  0
  141.4610   73.3420  221.0910 C   0  0  0  0  0  0  0  0  0  0  0  0
  141.3640   74.6740  221.5870 N   0  0  0  0  0  0  0  0  0  0  0  0
  140.1340   75.3770  221.6510 C   0  0  0  0  0  0  0  0  0  0  0  0
  139.0300   74.9010  221.2880 O   0  0  0  0  0  0  0  0  0  0  0  0
  140.1630   76.7520  222.1780 C   0  0  0  0  0  0  0  0  0  0  0  0
  139.0060   77.4030  222.5250 C   0  0  0  0  0  0  0  0  0  0  0  0
  138.9680   78.6890  223.0230 C   0  0  0  0  0  0  0  0  0  0  0  0
  140.1880   79.3390  223.1690 C   0  0  0  0  0  0  0  0  0  0  0  0
  140.1550   80.6250  223.6660 C   0  0  0  0  0  0  0  0  0  0  0  0
  141.3410   81.3220  223.8350 C   0  0  0  0  0  0  0  0  0  0  0  0
  142.5070   80.6730  223.4870 C   0  0  0  0  0  0  0  0  0  0  0  0
  142.5390   79.3850  222.9900 C   0  0  0  0  0  0  0  0  0  0  0  0
  141.3440   78.6850  222.8210 C   0  0  0  0  0  0  0  0  0  0  0  0
  141.3220   77.4290  222.3400 N   0  0  0  0  0  0  0  0  0  0  0  0
  139.6900   70.9100  224.4720 C   0  0  0  0  0  0  0  0  0  0  0  0
  140.6950   71.5830  225.1690 C   0  0  0  0  0  0  0  0  0  0  0  0
  141.4410   70.9620  226.1500 C   0  0  0  0  0  0  0  0  0  0  0  0
  141.2150   69.6400  226.4790 C   0  0  0  0  0  0  0  0  0  0  0  0
  140.2120   68.9510  225.7910 C   0  0  0  0  0  0  0  0  0  0  0  0
  139.4700   69.5810  224.8090 C   0  0  0  0  0  0  0  0  0  0  0  0
  137.8841   69.7772  222.9145 H   0  0  0  0  0  0  0  0  0  0  0  0
  137.6150   71.1345  221.7691 H   0  0  0  0  0  0  0  0  0  0  0  0
  139.1821   70.2567  221.7691 H   0  0  0  0  0  0  0  0  0  0  0  0
  138.0642   72.0670  223.9577 H   0  0  0  0  0  0  0  0  0  0  0  0
  139.3840   73.6210  222.9720 H   0  0  0  0  0  0  0  0  0  0  0  0
  142.5155   73.0335  221.1436 H   0  0  0  0  0  0  0  0  0  0  0  0
  141.0653   73.3647  220.0649 H   0  0  0  0  0  0  0  0  0  0  0  0
  142.2500   75.1530  221.9210 H   0  0  0  0  0  0  0  0  0  0  0  0
  138.0531   76.8682  222.3987 H   0  0  0  0  0  0  0  0  0  0  0  0
  138.0189   79.1761  223.2913 H   0  0  0  0  0  0  0  0  0  0  0  0
  139.1947   81.0940  223.9263 H   0  0  0  0  0  0  0  0  0  0  0  0
  141.3518   82.3487  224.2297 H   0  0  0  0  0  0  0  0  0  0  0  0
  143.4598   81.2084  223.6116 H   0  0  0  0  0  0  0  0  0  0  0  0
  143.4987   78.9148  222.7295 H   0  0  0  0  0  0  0  0  0  0  0  0
  140.8979   72.6373  224.9297 H   0  0  0  0  0  0  0  0  0  0  0  0
  142.2248   71.5267  226.6760 H   0  0  0  0  0  0  0  0  0  0  0  0
  141.8079   69.1429  227.2609 H   0  0  0  0  0  0  0  0  0  0  0  0
  140.0110   67.8970  226.0333 H   0  0  0  0  0  0  0  0  0  0  0  0
  138.6868   69.0160  224.2822 H   0  0  0  0  0  0  0  0  0  0  0  0
  1  2  1  0
  2  3  1  0
  3  4  1  0
  4  5  2  0
  4  6  1  0
  6  7  1  0
  7  8  1  0
  8  9  2  0
  8 10  1  0
 10 11  2  0
 11 12  1  0
 12 13  2  0
 13 14  1  0
 14 15  2  0
 15 16  1  0
 16 17  2  0
 17 18  1  0
 18 19  2  0
  2 20  1  0
 20 21  2  0
 21 22  1  0
 22 23  2  0
 23 24  1  0
 24 25  2  0
 19 10  1  0
 25 20  1  0
 18 13  1  0
  1 26  1  0
  1 27  1  0
  1 28  1  0
  2 29  1  1
  3 30  1  0
  6 31  1  0
  6 32  1  0
  7 33  1  0
 11 34  1  0
 12 35  1  0
 14 36  1  0
 15 37  1  0
 16 38  1  0
 17 39  1  0
 21 40  1  0
 22 41  1  0
 23 42  1  0
 24 43  1  0
 25 44  1  0
M  END
>  <smiles>  (1) 
C[C@H](NC(=O)CNC(=O)c1ccc2ccccc2n1)c1ccccc1

>  <score_type>  (1) 
oracle

>  <origin>  (1) 
autodockgpu

>  <m_score__min__energy>  (1) 
-8.6600000000000001

>  <m_primary>  (1) 
energy

>  <rmsd>  (1) 
9.903339150345323

>  <m_score__min__rmsd>  (1) 
9.903339150345323

>  <meeko>  (1) 
{"free_energy": -7.94, "intermolecular_energy": -9.43, "internal_energy": -1.86, "cluster_size": 24, "cluster_id": 3, "rank_in_cluster": 23}

>  <energy>  (1) 
-8.66

>  <cluster_rmsd>  (1) 
0.0

>  <cluster>  (1) 
1

$$$$

     RDKit          3D

 44 46  0  0  0  0  0  0  0  0999 V2000
  138.3890   70.6030  222.4270 C   0  0  0  0  0  0  0  0  0  0  0  0
  138.9080   71.5860  223.4560 C   0  0  2  0  0  0  0  0  0  0  0  0
  139.6620   72.6330  222.7970 N   0  0  0  0  0  0  0  0  0  0  0  0
  140.6580   72.3100  221.8480 C   0  0  0  0  0  0  0  0  0  0  0  0
  140.8640   71.0890  221.5930 O   0  0  0  0  0  0  0  0  0  0  0  0
  141.4870   73.2940  221.1210 C   0  0  0  0  0  0  0  0  0  0  0  0
  141.3950   74.6300  221.6080 N   0  0  0  0  0  0  0  0  0  0  0  0
  140.1670   75.3340  221.6800 C   0  0  0  0  0  0  0  0  0  0  0  0
  139.0580   74.8550  221.3320 O   0  0  0  0  0  0  0  0  0  0  0  0
  140.2020   76.7120  222.1960 C   0  0  0  0  0  0  0  0  0  0  0  0
  139.0460   77.3800  222.5150 C   0  0  0  0  0  0  0  0  0  0  0  0
  139.0130   78.6710  223.0020 C   0  0  0  0  0  0  0  0  0  0  0  0
  140.2380   79.3070  223.1680 C   0  0  0  0  0  0  0  0  0  0  0  0
  140.2110   80.5970  223.6550 C   0  0  0  0  0  0  0  0  0  0  0  0
  141.4010   81.2810  223.8410 C   0  0  0  0  0  0  0  0  0  0  0  0
  142.5670   80.6150  223.5230 C   0  0  0  0  0  0  0  0  0  0  0  0
  142.5920   79.3230  223.0360 C   0  0  0  0  0  0  0  0  0  0  0  0
  141.3930   78.6360  222.8480 C   0  0  0  0  0  0  0  0  0  0  0  0
  141.3650   77.3760  222.3770 N   0  0  0  0  0  0  0  0  0  0  0  0
  139.6590   70.9090  224.5360 C   0  0  0  0  0  0  0  0  0  0  0  0
  139.3640   69.5910  224.8920 C   0  0  0  0  0  0  0  0  0  0  0  0
  140.0510   68.9390  225.8960 C   0  0  0  0  0  0  0  0  0  0  0  0
  141.0630   69.5740  226.5880 C   0  0  0  0  0  0  0  0  0  0  0  0
  141.3710   70.8930  226.2430 C   0  0  0  0  0  0  0  0  0  0  0  0
  140.6770   71.5400  225.2370 C   0  0  0  0  0  0  0  0  0  0  0  0
  137.9344   69.7420  222.9390 H   0  0  0  0  0  0  0  0  0  0  0  0
  137.6336   71.0959  221.7974 H   0  0  0  0  0  0  0  0  0  0  0  0
  139.2221   70.2572  221.7974 H   0  0  0  0  0  0  0  0  0  0  0  0
  138.0546   72.0640  223.9592 H   0  0  0  0  0  0  0  0  0  0  0  0
  139.4430   73.6020  223.0330 H   0  0  0  0  0  0  0  0  0  0  0  0
  142.5374   72.9755  221.1924 H   0  0  0  0  0  0  0  0  0  0  0  0
  141.1084   73.3145  220.0884 H   0  0  0  0  0  0  0  0  0  0  0  0
  142.2850   75.1100  221.9300 H   0  0  0  0  0  0  0  0  0  0  0  0
  138.0895   76.8554  222.3742 H   0  0  0  0  0  0  0  0  0  0  0  0
  138.0646   79.1717  223.2466 H   0  0  0  0  0  0  0  0  0  0  0  0
  139.2516   81.0791  223.8939 H   0  0  0  0  0  0  0  0  0  0  0  0
  141.4160   82.3114  224.2259 H   0  0  0  0  0  0  0  0  0  0  0  0
  143.5237   81.1391  223.6644 H   0  0  0  0  0  0  0  0  0  0  0  0
  143.5508   78.8392  222.7980 H   0  0  0  0  0  0  0  0  0  0  0  0
  138.5630   69.0586  224.3581 H   0  0  0  0  0  0  0  0  0  0  0  0
  139.7890   67.9008  226.1479 H   0  0  0  0  0  0  0  0  0  0  0  0
  141.6116   69.0563  227.3886 H   0  0  0  0  0  0  0  0  0  0  0  0
  142.1739   71.4220  226.7774 H   0  0  0  0  0  0  0  0  0  0  0  0
  140.9379   72.5789  224.9866 H   0  0  0  0  0  0  0  0  0  0  0  0
  1  2  1  0
  2  3  1  0
  3  4  1  0
  4  5  2  0
  4  6  1  0
  6  7  1  0
  7  8  1  0
  8  9  2  0
  8 10  1  0
 10 11  2  0
 11 12  1  0
 12 13  2  0
 13 14  1  0
 14 15  2  0
 15 16  1  0
 16 17  2  0
 17 18  1  0
 18 19  2  0
  2 20  1  0
 20 21  2  0
 21 22  1  0
 22 23  2  0
 23 24  1  0
 24 25  2  0
 19 10  1  0
 25 20  1  0
 18 13  1  0
  1 26  1  0
  1 27  1  0
  1 28  1  0
  2 29  1  1
  3 30  1  0
  6 31  1  0
  6 32  1  0
  7 33  1  0
 11 34  1  0
 12 35  1  0
 14 36  1  0
 15 37  1  0
 16 38  1  0
 17 39  1  0
 21 40  1  0
 22 41  1  0
 23 42  1  0
 24 43  1  0
 25 44  1  0
M  END
>  <smiles>  (2) 
C[C@H](NC(=O)CNC(=O)c1ccc2ccccc2n1)c1ccccc1

>  <score_type>  (2) 
oracle

>  <origin>  (2) 
autodockgpu

>  <m_score__min__energy>  (2) 
-8.6600000000000001

>  <m_primary>  (2) 
energy

>  <rmsd>  (2) 
9.791729010080031

>  <m_score__min__rmsd>  (2) 
9.791729010080031

>  <meeko>  (2) 
{"free_energy": -8.0, "intermolecular_energy": -9.5, "internal_energy": -1.79, "cluster_size": 24, "cluster_id": 3, "rank_in_cluster": 7}

>  <energy>  (2) 
-8.56

>  <cluster_rmsd>  (2) 
0.52

>  <cluster>  (2) 
1

$$$$

     RDKit          3D

 44 46  0  0  0  0  0  0  0  0999 V2000
  140.1560   71.8260  223.5900 C   0  0  0  0  0  0  0  0  0  0  0  0
  139.6270   70.7290  224.4920 C   0  0  2  0  0  0  0  0  0  0  0  0
  138.1790   70.7620  224.5050 N   0  0  0  0  0  0  0  0  0  0  0  0
  137.4360   69.5720  224.6810 C   0  0  0  0  0  0  0  0  0  0  0  0
  138.0720   68.4900  224.8270 O   0  0  0  0  0  0  0  0  0  0  0  0
  135.9610   69.4900  224.7070 C   0  0  0  0  0  0  0  0  0  0  0  0
  135.3040   70.6680  225.1680 N   0  0  0  0  0  0  0  0  0  0  0  0
  134.1670   70.6270  226.0140 C   0  0  0  0  0  0  0  0  0  0  0  0
  133.6400   69.5670  226.4360 O   0  0  0  0  0  0  0  0  0  0  0  0
  133.5730   71.9120  226.4180 C   0  0  0  0  0  0  0  0  0  0  0  0
  132.4160   71.9580  227.1530 C   0  0  0  0  0  0  0  0  0  0  0  0
  131.8100   73.1290  227.5630 C   0  0  0  0  0  0  0  0  0  0  0  0
  132.4320   74.3150  227.1910 C   0  0  0  0  0  0  0  0  0  0  0  0
  131.8310   75.4880  227.5970 C   0  0  0  0  0  0  0  0  0  0  0  0
  132.4060   76.7020  227.2570 C   0  0  0  0  0  0  0  0  0  0  0  0
  133.5700   76.6620  226.5180 C   0  0  0  0  0  0  0  0  0  0  0  0
  134.1700   75.4870  226.1120 C   0  0  0  0  0  0  0  0  0  0  0  0
  133.5900   74.2660  226.4550 C   0  0  0  0  0  0  0  0  0  0  0  0
  134.1360   73.0940  226.0850 N   0  0  0  0  0  0  0  0  0  0  0  0
  140.2310   70.7870  225.8410 C   0  0  0  0  0  0  0  0  0  0  0  0
  140.1840   69.6800  226.6920 C   0  0  0  0  0  0  0  0  0  0  0  0
  140.7400   69.7110  227.9550 C   0  0  0  0  0  0  0  0  0  0  0  0
  141.3670   70.8480  228.4230 C   0  0  0  0  0  0  0  0  0  0  0  0
  141.4230   71.9650  227.5840 C   0  0  0  0  0  0  0  0  0  0  0  0
  140.8630   71.9250  226.3210 C   0  0  0  0  0  0  0  0  0  0  0  0
  140.5521   72.6474  224.2052 H   0  0  0  0  0  0  0  0  0  0  0  0
  140.9589   71.4233  222.9551 H   0  0  0  0  0  0  0  0  0  0  0  0
  139.3409   72.2035  222.9551 H   0  0  0  0  0  0  0  0  0  0  0  0
  139.9283   69.7517  224.0868 H   0  0  0  0  0  0  0  0  0  0  0  0
  137.7190   71.6670  224.3950 H   0  0  0  0  0  0  0  0  0  0  0  0
  135.6120   69.2815  223.6849 H   0  0  0  0  0  0  0  0  0  0  0  0
  135.7081   68.6944  225.4233 H   0  0  0  0  0  0  0  0  0  0  0  0
  135.6870   71.6090  224.8640 H   0  0  0  0  0  0  0  0  0  0  0  0
  131.9426   71.0052  227.4325 H   0  0  0  0  0  0  0  0  0  0  0  0
  130.8822   73.1235  228.1539 H   0  0  0  0  0  0  0  0  0  0  0  0
  130.9025   75.4601  228.1861 H   0  0  0  0  0  0  0  0  0  0  0  0
  131.9536   77.6567  227.5633 H   0  0  0  0  0  0  0  0  0  0  0  0
  134.0440   77.6144  226.2381 H   0  0  0  0  0  0  0  0  0  0  0  0
  135.0983   75.5135  225.5225 H   0  0  0  0  0  0  0  0  0  0  0  0
  139.6909   68.7594  226.3464 H   0  0  0  0  0  0  0  0  0  0  0  0
  140.6827   68.8190  228.5961 H   0  0  0  0  0  0  0  0  0  0  0  0
  141.8108   70.8746  229.4292 H   0  0  0  0  0  0  0  0  0  0  0  0
  141.9172   72.8840  227.9322 H   0  0  0  0  0  0  0  0  0  0  0  0
  140.9198   72.8175  225.6806 H   0  0  0  0  0  0  0  0  0  0  0  0
  1  2  1  0
  2  3  1  0
  3  4  1  0
  4  5  2  0
  4  6  1  0
  6  7  1  0
  7  8  1  0
  8  9  2  0
  8 10  1  0
 10 11  2  0
 11 12  1  0
 12 13  2  0
 13 14  1  0
 14 15  2  0
 15 16  1  0
 16 17  2  0
 17 18  1  0
 18 19  2  0
  2 20  1  0
 20 21  2  0
 21 22  1  0
 22 23  2  0
 23 24  1  0
 24 25  2  0
 19 10  1  0
 25 20  1  0
 18 13  1  0
  1 26  1  0
  1 27  1  0
  1 28  1  0
  2 29  1  6
  3 30  1  0
  6 31  1  0
  6 32  1  0
  7 33  1  0
 11 34  1  0
 12 35  1  0
 14 36  1  0
 15 37  1  0
 16 38  1  0
 17 39  1  0
 21 40  1  0
 22 41  1  0
 23 42  1  0
 24 43  1  0
 25 44  1  0
M  END
>  <smiles>  (3) 
C[C@H](NC(=O)CNC(=O)c1ccc2ccccc2n1)c1ccccc1

>  <score_type>  (3) 
oracle

>  <origin>  (3) 
autodockgpu

>  <m_score__min__energy>  (3) 
-8.6600000000000001

>  <m_primary>  (3) 
energy

>  <rmsd>  (3) 
10.163701371113888

>  <m_score__min__rmsd>  (3) 
10.163701371113888

>  <meeko>  (3) 
{"free_energy": -8.38, "intermolecular_energy": -9.88, "internal_energy": -1.25, "cluster_size": 8, "cluster_id": 2, "rank_in_cluster": 7}

>  <energy>  (3) 
-8.55

>  <cluster_rmsd>  (3) 
0.51

>  <cluster>  (3) 
1

$$$$

     RDKit          3D

 44 46  0  0  0  0  0  0  0  0999 V2000
  140.1410   71.8500  223.5220 C   0  0  0  0  0  0  0  0  0  0  0  0
  139.5960   70.7590  224.4200 C   0  0  2  0  0  0  0  0  0  0  0  0
  138.1470   70.7990  224.4160 N   0  0  0  0  0  0  0  0  0  0  0  0
  137.3970   69.6200  224.6270 C   0  0  0  0  0  0  0  0  0  0  0  0
  138.0250   68.5410  224.8210 O   0  0  0  0  0  0  0  0  0  0  0  0
  135.9210   69.5470  224.6390 C   0  0  0  0  0  0  0  0  0  0  0  0
  135.2670   70.7200  225.1120 N   0  0  0  0  0  0  0  0  0  0  0  0
  134.1740   70.6740  226.0140 C   0  0  0  0  0  0  0  0  0  0  0  0
  133.6870   69.6130  226.4780 O   0  0  0  0  0  0  0  0  0  0  0  0
  133.5770   71.9560  226.4260 C   0  0  0  0  0  0  0  0  0  0  0  0
  132.4280   71.9950  227.1750 C   0  0  0  0  0  0  0  0  0  0  0  0
  131.8210   73.1620  227.5920 C   0  0  0  0  0  0  0  0  0  0  0  0
  132.4320   74.3530  227.2150 C   0  0  0  0  0  0  0  0  0  0  0  0
  131.8290   75.5220  227.6290 C   0  0  0  0  0  0  0  0  0  0  0  0
  132.3940   76.7390  227.2840 C   0  0  0  0  0  0  0  0  0  0  0  0
  133.5500   76.7060  226.5310 C   0  0  0  0  0  0  0  0  0  0  0  0
  134.1520   75.5350  226.1180 C   0  0  0  0  0  0  0  0  0  0  0  0
  133.5820   74.3100  226.4660 C   0  0  0  0  0  0  0  0  0  0  0  0
  134.1300   73.1410  226.0880 N   0  0  0  0  0  0  0  0  0  0  0  0
  140.1830   70.8180  225.7770 C   0  0  0  0  0  0  0  0  0  0  0  0
  140.8790   71.9500  226.2060 C   0  0  0  0  0  0  0  0  0  0  0  0
  141.4350   72.0270  227.4670 C   0  0  0  0  0  0  0  0  0  0  0  0
  141.3210   70.9770  228.3540 C   0  0  0  0  0  0  0  0  0  0  0  0
  140.6270   69.8350  227.9420 C   0  0  0  0  0  0  0  0  0  0  0  0
  140.0730   69.7660  226.6770 C   0  0  0  0  0  0  0  0  0  0  0  0
  140.5478   72.6642  224.1397 H   0  0  0  0  0  0  0  0  0  0  0  0
  140.9390   71.4377  222.8870 H   0  0  0  0  0  0  0  0  0  0  0  0
  139.3321   72.2405  222.8870 H   0  0  0  0  0  0  0  0  0  0  0  0
  139.8981   69.7797  224.0205 H   0  0  0  0  0  0  0  0  0  0  0  0
  137.6940   71.7020  224.2660 H   0  0  0  0  0  0  0  0  0  0  0  0
  135.5798   69.3565  223.6107 H   0  0  0  0  0  0  0  0  0  0  0  0
  135.6574   68.7422  225.3411 H   0  0  0  0  0  0  0  0  0  0  0  0
  135.6180   71.6630  224.7750 H   0  0  0  0  0  0  0  0  0  0  0  0
  131.9633   71.0396  227.4599 H   0  0  0  0  0  0  0  0  0  0  0  0
  130.8996   73.1508  228.1928 H   0  0  0  0  0  0  0  0  0  0  0  0
  130.9071   75.4885  228.2281 H   0  0  0  0  0  0  0  0  0  0  0  0
  131.9405   77.6910  227.5969 H   0  0  0  0  0  0  0  0  0  0  0  0
  134.0150   77.6612  226.2457 H   0  0  0  0  0  0  0  0  0  0  0  0
  135.0741   75.5671  225.5191 H   0  0  0  0  0  0  0  0  0  0  0  0
  140.9871   72.8034  225.5205 H   0  0  0  0  0  0  0  0  0  0  0  0
  141.9754   72.9366  227.7681 H   0  0  0  0  0  0  0  0  0  0  0  0
  141.7643   71.0363  229.3590 H   0  0  0  0  0  0  0  0  0  0  0  0
  140.5208   68.9838  228.6306 H   0  0  0  0  0  0  0  0  0  0  0  0
  139.5324   68.8564  226.3764 H   0  0  0  0  0  0  0  0  0  0  0  0
  1  2  1  0
  2  3  1  0
  3  4  1  0
  4  5  2  0
  4  6  1  0
  6  7  1  0
  7  8  1  0
  8  9  2  0
  8 10  1  0
 10 11  2  0
 11 12  1  0
 12 13  2  0
 13 14  1  0
 14 15  2  0
 15 16  1  0
 16 17  2  0
 17 18  1  0
 18 19  2  0
  2 20  1  0
 20 21  2  0
 21 22  1  0
 22 23  2  0
 23 24  1  0
 24 25  2  0
 19 10  1  0
 25 20  1  0
 18 13  1  0
  1 26  1  0
  1 27  1  0
  1 28  1  0
  2 29  1  6
  3 30  1  0
  6 31  1  0
  6 32  1  0
  7 33  1  0
 11 34  1  0
 12 35  1  0
 14 36  1  0
 15 37  1  0
 16 38  1  0
 17 39  1  0
 21 40  1  0
 22 41  1  0
 23 42  1  0
 24 43  1  0
 25 44  1  0
M  END
>  <smiles>  (4) 
C[C@H](NC(=O)CNC(=O)c1ccc2ccccc2n1)c1ccccc1

>  <score_type>  (4) 
oracle

>  <origin>  (4) 
autodockgpu

>  <m_score__min__energy>  (4) 
-8.6600000000000001

>  <m_primary>  (4) 
energy

>  <rmsd>  (4) 
10.274857109523879

>  <m_score__min__rmsd>  (4) 
10.274857109523879

>  <meeko>  (4) 
{"free_energy": -8.48, "intermolecular_energy": -9.97, "internal_energy": -1.25, "cluster_size": 8, "cluster_id": 2, "rank_in_cluster": 4}

>  <energy>  (4) 
-8.36

>  <cluster_rmsd>  (4) 
0.44

>  <cluster>  (4) 
1

$$$$

     RDKit          3D

 44 46  0  0  0  0  0  0  0  0999 V2000
  138.4670   70.4970  222.5220 C   0  0  0  0  0  0  0  0  0  0  0  0
  138.9060   71.5970  223.4670 C   0  0  2  0  0  0  0  0  0  0  0  0
  139.5630   72.6510  222.7200 N   0  0  0  0  0  0  0  0  0  0  0  0
  140.6790   72.3610  221.9020 C   0  0  0  0  0  0  0  0  0  0  0  0
  141.0770   71.1640  221.8410 O   0  0  0  0  0  0  0  0  0  0  0  0
  141.4230   73.3570  221.1030 C   0  0  0  0  0  0  0  0  0  0  0  0
  141.3560   74.6920  221.5950 N   0  0  0  0  0  0  0  0  0  0  0  0
  140.1400   75.4150  221.6770 C   0  0  0  0  0  0  0  0  0  0  0  0
  139.0220   74.9560  221.3330 O   0  0  0  0  0  0  0  0  0  0  0  0
  140.2000   76.7910  222.1980 C   0  0  0  0  0  0  0  0  0  0  0  0
  139.0590   77.4670  222.5500 C   0  0  0  0  0  0  0  0  0  0  0  0
  139.0490   78.7550  223.0440 C   0  0  0  0  0  0  0  0  0  0  0  0
  140.2830   79.3810  223.1810 C   0  0  0  0  0  0  0  0  0  0  0  0
  140.2790   80.6690  223.6740 C   0  0  0  0  0  0  0  0  0  0  0  0
  141.4800   81.3410  223.8330 C   0  0  0  0  0  0  0  0  0  0  0  0
  142.6310   80.6670  223.4810 C   0  0  0  0  0  0  0  0  0  0  0  0
  142.6330   79.3770  222.9880 C   0  0  0  0  0  0  0  0  0  0  0  0
  141.4230   78.7010  222.8280 C   0  0  0  0  0  0  0  0  0  0  0  0
  141.3730   77.4440  222.3520 N   0  0  0  0  0  0  0  0  0  0  0  0
  139.7200   71.0700  224.5840 C   0  0  0  0  0  0  0  0  0  0  0  0
  139.5500   69.7600  225.0370 C   0  0  0  0  0  0  0  0  0  0  0  0
  140.2980   69.2470  226.0770 C   0  0  0  0  0  0  0  0  0  0  0  0
  141.2480   70.0210  226.7120 C   0  0  0  0  0  0  0  0  0  0  0  0
  141.4320   71.3350  226.2720 C   0  0  0  0  0  0  0  0  0  0  0  0
  140.6780   71.8410  225.2290 C   0  0  0  0  0  0  0  0  0  0  0  0
  138.1210   69.6301  223.1040 H   0  0  0  0  0  0  0  0  0  0  0  0
  137.6465   70.8641  221.8880 H   0  0  0  0  0  0  0  0  0  0  0  0
  139.3148   70.1983  221.8880 H   0  0  0  0  0  0  0  0  0  0  0  0
  138.0186   72.0383  223.9443 H   0  0  0  0  0  0  0  0  0  0  0  0
  139.1880   73.5970  222.7980 H   0  0  0  0  0  0  0  0  0  0  0  0
  142.4803   73.0545  221.0786 H   0  0  0  0  0  0  0  0  0  0  0  0
  140.9507   73.3704  220.1096 H   0  0  0  0  0  0  0  0  0  0  0  0
  142.2550   75.1560  221.9140 H   0  0  0  0  0  0  0  0  0  0  0  0
  138.0948   76.9511  222.4312 H   0  0  0  0  0  0  0  0  0  0  0  0
  138.1113   79.2617  223.3160 H   0  0  0  0  0  0  0  0  0  0  0  0
  139.3302   81.1586  223.9387 H   0  0  0  0  0  0  0  0  0  0  0  0
  141.5143   82.3688  224.2235 H   0  0  0  0  0  0  0  0  0  0  0  0
  143.5954   81.1828  223.5989 H   0  0  0  0  0  0  0  0  0  0  0  0
  143.5812   78.8862  222.7235 H   0  0  0  0  0  0  0  0  0  0  0  0
  138.7991   69.1194  224.5514 H   0  0  0  0  0  0  0  0  0  0  0  0
  140.1352   68.2093  226.4036 H   0  0  0  0  0  0  0  0  0  0  0  0
  141.8444   69.6147  227.5422 H   0  0  0  0  0  0  0  0  0  0  0  0
  142.1838   71.9726  226.7601 H   0  0  0  0  0  0  0  0  0  0  0  0
  140.8410   72.8787  224.9026 H   0  0  0  0  0  0  0  0  0  0  0  0
  1  2  1  0
  2  3  1  0
  3  4  1  0
  4  5  2  0
  4  6  1  0
  6  7  1  0
  7  8  1  0
  8  9  2  0
  8 10  1  0
 10 11  2  0
 11 12  1  0
 12 13  2  0
 13 14  1  0
 14 15  2  0
 15 16  1  0
 16 17  2  0
 17 18  1  0
 18 19  2  0
  2 20  1  0
 20 21  2  0
 21 22  1  0
 22 23  2  0
 23 24  1  0
 24 25  2  0
 19 10  1  0
 25 20  1  0
 18 13  1  0
  1 26  1  0
  1 27  1  0
  1 28  1  0
  2 29  1  1
  3 30  1  0
  6 31  1  0
  6 32  1  0
  7 33  1  0
 11 34  1  0
 12 35  1  0
 14 36  1  0
 15 37  1  0
 16 38  1  0
 17 39  1  0
 21 40  1  0
 22 41  1  0
 23 42  1  0
 24 43  1  0
 25 44  1  0
M  END
>  <smiles>  (5) 
C[C@H](NC(=O)CNC(=O)c1ccc2ccccc2n1)c1ccccc1

>  <score_type>  (5) 
oracle

>  <origin>  (5) 
autodockgpu

>  <m_score__min__energy>  (5) 
-8.6600000000000001

>  <m_primary>  (5) 
energy

>  <rmsd>  (5) 
9.74045775279358

>  <m_score__min__rmsd>  (5) 
9.74045775279358

>  <meeko>  (5) 
{"free_energy": -8.0, "intermolecular_energy": -9.49, "internal_energy": -1.92, "cluster_size": 24, "cluster_id": 3, "rank_in_cluster": 8}

>  <energy>  (5) 
-7.98

>  <cluster_rmsd>  (5) 
1.73

>  <cluster>  (5) 
1

$$$$

     RDKit          3D

 44 46  0  0  0  0  0  0  0  0999 V2000
  136.5690   75.8130  222.8200 C   0  0  0  0  0  0  0  0  0  0  0  0
  137.8080   75.7360  221.9520 C   0  0  2  0  0  0  0  0  0  0  0  0
  138.3330   74.3860  221.9670 N   0  0  0  0  0  0  0  0  0  0  0  0
  138.2550   73.5720  220.8140 C   0  0  0  0  0  0  0  0  0  0  0  0
  137.7200   74.0590  219.7780 O   0  0  0  0  0  0  0  0  0  0  0  0
  138.7540   72.1850  220.7210 C   0  0  0  0  0  0  0  0  0  0  0  0
  139.0400   71.5660  221.9710 N   0  0  0  0  0  0  0  0  0  0  0  0
  139.9990   72.0840  222.8780 C   0  0  0  0  0  0  0  0  0  0  0  0
  140.6760   73.1230  222.6720 O   0  0  0  0  0  0  0  0  0  0  0  0
  140.2110   71.3510  224.1370 C   0  0  0  0  0  0  0  0  0  0  0  0
  140.9500   71.8930  225.1580 C   0  0  0  0  0  0  0  0  0  0  0  0
  141.1840   71.2570  226.3610 C   0  0  0  0  0  0  0  0  0  0  0  0
  140.6260   69.9940  226.5180 C   0  0  0  0  0  0  0  0  0  0  0  0
  140.8560   69.3540  227.7170 C   0  0  0  0  0  0  0  0  0  0  0  0
  140.3240   68.0930  227.9310 C   0  0  0  0  0  0  0  0  0  0  0  0
  139.5790   67.5420  226.9080 C   0  0  0  0  0  0  0  0  0  0  0  0
  139.3490   68.1840  225.7080 C   0  0  0  0  0  0  0  0  0  0  0  0
  139.8860   69.4540  225.4940 C   0  0  0  0  0  0  0  0  0  0  0  0
  139.6900   70.1210  224.3420 N   0  0  0  0  0  0  0  0  0  0  0  0
  138.8070   76.7620  222.3250 C   0  0  0  0  0  0  0  0  0  0  0  0
  138.4040   78.0370  222.7280 C   0  0  0  0  0  0  0  0  0  0  0  0
  139.3180   79.0100  223.0800 C   0  0  0  0  0  0  0  0  0  0  0  0
  140.6730   78.7510  223.0450 C   0  0  0  0  0  0  0  0  0  0  0  0
  141.0930   77.4800  222.6440 C   0  0  0  0  0  0  0  0  0  0  0  0
  140.1710   76.5110  222.2920 C   0  0  0  0  0  0  0  0  0  0  0  0
  136.8622   75.7948  223.8800 H   0  0  0  0  0  0  0  0  0  0  0  0
  136.0282   76.7465  222.6052 H   0  0  0  0  0  0  0  0  0  0  0  0
  135.9168   74.9537  222.6052 H   0  0  0  0  0  0  0  0  0  0  0  0
  137.5348   75.9697  220.9124 H   0  0  0  0  0  0  0  0  0  0  0  0
  138.7670   74.0510  222.8290 H   0  0  0  0  0  0  0  0  0  0  0  0
  137.9915   71.5812  220.2072 H   0  0  0  0  0  0  0  0  0  0  0  0
  139.7084   72.2362  220.1764 H   0  0  0  0  0  0  0  0  0  0  0  0
  138.5100   70.6840  222.2300 H   0  0  0  0  0  0  0  0  0  0  0  0
  141.3817   72.8938  225.0094 H   0  0  0  0  0  0  0  0  0  0  0  0
  141.7824   71.7267  227.1556 H   0  0  0  0  0  0  0  0  0  0  0  0
  141.4578   69.8412  228.4984 H   0  0  0  0  0  0  0  0  0  0  0  0
  140.4882   67.5539  228.8757 H   0  0  0  0  0  0  0  0  0  0  0  0
  139.1470   66.5413  227.0565 H   0  0  0  0  0  0  0  0  0  0  0  0
  138.7468   67.6981  224.9261 H   0  0  0  0  0  0  0  0  0  0  0  0
  137.3301   78.2722  222.7659 H   0  0  0  0  0  0  0  0  0  0  0  0
  138.9621   80.0030  223.3919 H   0  0  0  0  0  0  0  0  0  0  0  0
  141.4031   79.5245  223.3253 H   0  0  0  0  0  0  0  0  0  0  0  0
  142.1676   77.2478  222.6079 H   0  0  0  0  0  0  0  0  0  0  0  0
  140.5274   75.5186  221.9787 H   0  0  0  0  0  0  0  0  0  0  0  0
  1  2  1  0
  2  3  1  0
  3  4  1  0
  4  5  2  0
  4  6  1  0
  6  7  1  0
  7  8  1  0
  8  9  2  0
  8 10  1  0
 10 11  2  0
 11 12  1  0
 12 13  2  0
 13 14  1  0
 14 15  2  0
 15 16  1  0
 16 17  2  0
 17 18  1  0
 18 19  2  0
  2 20  1  0
 20 21  2  0
 21 22  1  0
 22 23  2  0
 23 24  1  0
 24 25  2  0
 19 10  1  0
 25 20  1  0
 18 13  1  0
  1 26  1  0
  1 27  1  0
  1 28  1  0
  2 29  1  6
  3 30  1  0
  6 31  1  0
  6 32  1  0
  7 33  1  0
 11 34  1  0
 12 35  1  0
 14 36  1  0
 15 37  1  0
 16 38  1  0
 17 39  1  0
 21 40  1  0
 22 41  1  0
 23 42  1  0
 24 43  1  0
 25 44  1  0
M  END
>  <smiles>  (6) 
C[C@H](NC(=O)CNC(=O)c1ccc2ccccc2n1)c1ccccc1

>  <score_type>  (6) 
oracle

>  <origin>  (6) 
autodockgpu

>  <m_score__min__energy>  (6) 
-8.6600000000000001

>  <m_primary>  (6) 
energy

>  <rmsd>  (6) 
4.780856316213362

>  <m_score__min__rmsd>  (6) 
4.780856316213362

>  <meeko>  (6) 
{"free_energy": -7.7, "intermolecular_energy": -9.19, "internal_energy": -2.04, "cluster_size": 13, "cluster_id": 1, "rank_in_cluster": 11}

>  <energy>  (6) 
-7.93

>  <cluster_rmsd>  (6) 
1.57

>  <cluster>  (6) 
1

$$$$

     RDKit          3D

 44 46  0  0  0  0  0  0  0  0999 V2000
  138.4240   70.5450  222.4550 C   0  0  0  0  0  0  0  0  0  0  0  0
  138.8750   71.6180  223.4250 C   0  0  2  0  0  0  0  0  0  0  0  0
  139.5560   72.6740  222.7040 N   0  0  0  0  0  0  0  0  0  0  0  0
  140.6560   72.3770  221.8670 C   0  0  0  0  0  0  0  0  0  0  0  0
  141.0190   71.1700  221.7670 O   0  0  0  0  0  0  0  0  0  0  0  0
  141.4230   73.3730  221.0910 C   0  0  0  0  0  0  0  0  0  0  0  0
  141.3450   74.7070  221.5860 N   0  0  0  0  0  0  0  0  0  0  0  0
  140.1250   75.4260  221.6540 C   0  0  0  0  0  0  0  0  0  0  0  0
  139.0130   74.9640  221.2940 O   0  0  0  0  0  0  0  0  0  0  0  0
  140.1740   76.8010  222.1790 C   0  0  0  0  0  0  0  0  0  0  0  0
  139.0260   77.4690  222.5250 C   0  0  0  0  0  0  0  0  0  0  0  0
  139.0060   78.7560  223.0220 C   0  0  0  0  0  0  0  0  0  0  0  0
  140.2350   79.3880  223.1690 C   0  0  0  0  0  0  0  0  0  0  0  0
  140.2200   80.6750  223.6650 C   0  0  0  0  0  0  0  0  0  0  0  0
  141.4160   81.3540  223.8330 C   0  0  0  0  0  0  0  0  0  0  0  0
  142.5730   80.6880  223.4870 C   0  0  0  0  0  0  0  0  0  0  0  0
  142.5860   79.4000  222.9900 C   0  0  0  0  0  0  0  0  0  0  0  0
  141.3820   78.7170  222.8210 C   0  0  0  0  0  0  0  0  0  0  0  0
  141.3410   77.4610  222.3420 N   0  0  0  0  0  0  0  0  0  0  0  0
  139.6710   71.0550  224.5380 C   0  0  0  0  0  0  0  0  0  0  0  0
  140.6460   71.8230  225.1780 C   0  0  0  0  0  0  0  0  0  0  0  0
  141.4010   71.3200  226.2180 C   0  0  0  0  0  0  0  0  0  0  0  0
  141.2150   70.0270  226.6640 C   0  0  0  0  0  0  0  0  0  0  0  0
  140.2440   69.2440  226.0340 C   0  0  0  0  0  0  0  0  0  0  0  0
  139.4920   69.7560  224.9930 C   0  0  0  0  0  0  0  0  0  0  0  0
  138.0576   69.6732  223.0170 H   0  0  0  0  0  0  0  0  0  0  0  0
  137.6155   70.9394  221.8219 H   0  0  0  0  0  0  0  0  0  0  0  0
  139.2715   70.2434  221.8219 H   0  0  0  0  0  0  0  0  0  0  0  0
  137.9918   72.0653  223.9045 H   0  0  0  0  0  0  0  0  0  0  0  0
  139.2110   73.6290  222.8130 H   0  0  0  0  0  0  0  0  0  0  0  0
  142.4800   73.0685  221.0939 H   0  0  0  0  0  0  0  0  0  0  0  0
  140.9783   73.3901  220.0851 H   0  0  0  0  0  0  0  0  0  0  0  0
  142.2380   75.1740  221.9170 H   0  0  0  0  0  0  0  0  0  0  0  0
  138.0656   76.9478  222.3986 H   0  0  0  0  0  0  0  0  0  0  0  0
  138.0638   79.2571  223.2887 H   0  0  0  0  0  0  0  0  0  0  0  0
  139.2666   81.1582  223.9249 H   0  0  0  0  0  0  0  0  0  0  0  0
  141.4416   82.3811  224.2258 H   0  0  0  0  0  0  0  0  0  0  0  0
  143.5335   81.2090  223.6133 H   0  0  0  0  0  0  0  0  0  0  0  0
  143.5389   78.9162  222.7293 H   0  0  0  0  0  0  0  0  0  0  0  0
  140.8169   72.8571  224.8441 H   0  0  0  0  0  0  0  0  0  0  0  0
  142.1595   71.9566  226.6969 H   0  0  0  0  0  0  0  0  0  0  0  0
  141.8150   69.6238  227.4931 H   0  0  0  0  0  0  0  0  0  0  0  0
  140.0763   68.2100  226.3697 H   0  0  0  0  0  0  0  0  0  0  0  0
  138.7339   69.1189  224.5140 H   0  0  0  0  0  0  0  0  0  0  0  0
  1  2  1  0
  2  3  1  0
  3  4  1  0
  4  5  2  0
  4  6  1  0
  6  7  1  0
  7  8  1  0
  8  9  2  0
  8 10  1  0
 10 11  2  0
 11 12  1  0
 12 13  2  0
 13 14  1  0
 14 15  2  0
 15 16  1  0
 16 17  2  0
 17 18  1  0
 18 19  2  0
  2 20  1  0
 20 21  2  0
 21 22  1  0
 22 23  2  0
 23 24  1  0
 24 25  2  0
 19 10  1  0
 25 20  1  0
 18 13  1  0
  1 26  1  0
  1 27  1  0
  1 28  1  0
  2 29  1  1
  3 30  1  0
  6 31  1  0
  6 32  1  0
  7 33  1  0
 11 34  1  0
 12 35  1  0
 14 36  1  0
 15 37  1  0
 16 38  1  0
 17 39  1  0
 21 40  1  0
 22 41  1  0
 23 42  1  0
 24 43  1  0
 25 44  1  0
M  END
>  <smiles>  (7) 
C[C@H](NC(=O)CNC(=O)c1ccc2ccccc2n1)c1ccccc1

>  <score_type>  (7) 
oracle

>  <origin>  (7) 
autodockgpu

>  <m_score__min__energy>  (7) 
-8.6600000000000001

>  <m_primary>  (7) 
energy

>  <rmsd>  (7) 
9.86429584085399

>  <m_score__min__rmsd>  (7) 
9.86429584085399

>  <meeko>  (7) 
{"free_energy": -7.97, "intermolecular_energy": -9.46, "internal_energy": -1.9, "cluster_size": 24, "cluster_id": 3, "rank_in_cluster": 17}

>  <energy>  (7) 
-7.92

>  <cluster_rmsd>  (7) 
1.55

>  <cluster>  (7) 
1

$$$$

     RDKit          3D

 44 46  0  0  0  0  0  0  0  0999 V2000
  136.4530   75.9160  222.9930 C   0  0  0  0  0  0  0  0  0  0  0  0
  137.6170   75.7910  222.0320 C   0  0  2  0  0  0  0  0  0  0  0  0
  138.0640   74.4140  221.9810 N   0  0  0  0  0  0  0  0  0  0  0  0
  138.1750   73.7400  220.7430 C   0  0  0  0  0  0  0  0  0  0  0  0
  137.8760   74.3750  219.6920 O   0  0  0  0  0  0  0  0  0  0  0  0
  138.6160   72.3400  220.5780 C   0  0  0  0  0  0  0  0  0  0  0  0
  138.9160   71.6590  221.7920 N   0  0  0  0  0  0  0  0  0  0  0  0
  139.7910   72.1930  222.7710 C   0  0  0  0  0  0  0  0  0  0  0  0
  140.3740   73.3010  222.6670 O   0  0  0  0  0  0  0  0  0  0  0  0
  140.0270   71.3910  223.9830 C   0  0  0  0  0  0  0  0  0  0  0  0
  140.7500   71.8920  225.0360 C   0  0  0  0  0  0  0  0  0  0  0  0
  141.0050   71.1920  226.1970 C   0  0  0  0  0  0  0  0  0  0  0  0
  140.4870   69.9040  226.2760 C   0  0  0  0  0  0  0  0  0  0  0  0
  140.7400   69.1990  227.4340 C   0  0  0  0  0  0  0  0  0  0  0  0
  140.2480   67.9110  227.5690 C   0  0  0  0  0  0  0  0  0  0  0  0
  139.5200   67.4010  226.5140 C   0  0  0  0  0  0  0  0  0  0  0  0
  139.2680   68.1080  225.3550 C   0  0  0  0  0  0  0  0  0  0  0  0
  139.7640   69.4050  225.2200 C   0  0  0  0  0  0  0  0  0  0  0  0
  139.5460   70.1340  224.1120 N   0  0  0  0  0  0  0  0  0  0  0  0
  138.6980   76.7500  222.3470 C   0  0  0  0  0  0  0  0  0  0  0  0
  140.0390   76.3660  222.2710 C   0  0  0  0  0  0  0  0  0  0  0  0
  141.0640   77.2440  222.5610 C   0  0  0  0  0  0  0  0  0  0  0  0
  140.7940   78.5440  222.9390 C   0  0  0  0  0  0  0  0  0  0  0  0
  139.4580   78.9450  223.0200 C   0  0  0  0  0  0  0  0  0  0  0  0
  138.4370   78.0590  222.7280 C   0  0  0  0  0  0  0  0  0  0  0  0
  136.8255   75.8760  224.0272 H   0  0  0  0  0  0  0  0  0  0  0  0
  135.9400   76.8744  222.8248 H   0  0  0  0  0  0  0  0  0  0  0  0
  135.7482   75.0884  222.8248 H   0  0  0  0  0  0  0  0  0  0  0  0
  137.2799   76.0643  221.0212 H   0  0  0  0  0  0  0  0  0  0  0  0
  138.3040   73.9560  222.8620 H   0  0  0  0  0  0  0  0  0  0  0  0
  137.8148   71.7875  220.0653 H   0  0  0  0  0  0  0  0  0  0  0  0
  139.5544   72.3776  220.0053 H   0  0  0  0  0  0  0  0  0  0  0  0
  138.4610   70.7150  221.9660 H   0  0  0  0  0  0  0  0  0  0  0  0
  141.1503   72.9129  224.9492 H   0  0  0  0  0  0  0  0  0  0  0  0
  141.5891   71.6309  227.0194 H   0  0  0  0  0  0  0  0  0  0  0  0
  141.3277   69.6557  228.2439 H   0  0  0  0  0  0  0  0  0  0  0  0
  140.4301   67.3201  228.4788 H   0  0  0  0  0  0  0  0  0  0  0  0
  139.1202   66.3799  226.6004 H   0  0  0  0  0  0  0  0  0  0  0  0
  138.6807   67.6521  224.5443 H   0  0  0  0  0  0  0  0  0  0  0  0
  140.2848   75.3363  221.9720 H   0  0  0  0  0  0  0  0  0  0  0  0
  142.1077   76.9039  222.4901 H   0  0  0  0  0  0  0  0  0  0  0  0
  141.6091   79.2456  223.1703 H   0  0  0  0  0  0  0  0  0  0  0  0
  139.2159   79.9755  223.3190 H   0  0  0  0  0  0  0  0  0  0  0  0
  137.3935   78.3997  222.7993 H   0  0  0  0  0  0  0  0  0  0  0  0
  1  2  1  0
  2  3  1  0
  3  4  1  0
  4  5  2  0
  4  6  1  0
  6  7  1  0
  7  8  1  0
  8  9  2  0
  8 10  1  0
 10 11  2  0
 11 12  1  0
 12 13  2  0
 13 14  1  0
 14 15  2  0
 15 16  1  0
 16 17  2  0
 17 18  1  0
 18 19  2  0
  2 20  1  0
 20 21  2  0
 21 22  1  0
 22 23  2  0
 23 24  1  0
 24 25  2  0
 19 10  1  0
 25 20  1  0
 18 13  1  0
  1 26  1  0
  1 27  1  0
  1 28  1  0
  2 29  1  6
  3 30  1  0
  6 31  1  0
  6 32  1  0
  7 33  1  0
 11 34  1  0
 12 35  1  0
 14 36  1  0
 15 37  1  0
 16 38  1  0
 17 39  1  0
 21 40  1  0
 22 41  1  0
 23 42  1  0
 24 43  1  0
 25 44  1  0
M  END
>  <smiles>  (8) 
C[C@H](NC(=O)CNC(=O)c1ccc2ccccc2n1)c1ccccc1

>  <score_type>  (8) 
oracle

>  <origin>  (8) 
autodockgpu

>  <m_score__min__energy>  (8) 
-8.6600000000000001

>  <m_primary>  (8) 
energy

>  <rmsd>  (8) 
4.8507855981509636

>  <m_score__min__rmsd>  (8) 
4.8507855981509636

>  <meeko>  (8) 
{"free_energy": -7.67, "intermolecular_energy": -9.16, "internal_energy": -2.04, "cluster_size": 5, "cluster_id": 4, "rank_in_cluster": 5}

>  <energy>  (8) 
-7.91

>  <cluster_rmsd>  (8) 
1.57

>  <cluster>  (8) 
1

$$$$

     RDKit          3D

 44 46  0  0  0  0  0  0  0  0999 V2000
  139.2270   69.8380  223.4530 C   0  0  0  0  0  0  0  0  0  0  0  0
  139.5920   71.1050  224.1980 C   0  0  2  0  0  0  0  0  0  0  0  0
  140.5080   71.8960  223.4010 N   0  0  0  0  0  0  0  0  0  0  0  0
  140.0220   72.7340  222.3710 C   0  0  0  0  0  0  0  0  0  0  0  0
  138.7750   72.7740  222.1740 O   0  0  0  0  0  0  0  0  0  0  0  0
  140.8650   73.5780  221.4980 C   0  0  0  0  0  0  0  0  0  0  0  0
  140.9980   74.9320  221.9200 N   0  0  0  0  0  0  0  0  0  0  0  0
  139.8970   75.8220  221.9890 C   0  0  0  0  0  0  0  0  0  0  0  0
  138.7160   75.5070  221.6930 O   0  0  0  0  0  0  0  0  0  0  0  0
  140.1620   77.2000  222.4350 C   0  0  0  0  0  0  0  0  0  0  0  0
  139.1350   78.0540  222.7490 C   0  0  0  0  0  0  0  0  0  0  0  0
  139.3180   79.3540  223.1720 C   0  0  0  0  0  0  0  0  0  0  0  0
  140.6310   79.7980  223.2760 C   0  0  0  0  0  0  0  0  0  0  0  0
  140.8200   81.0970  223.6980 C   0  0  0  0  0  0  0  0  0  0  0  0
  142.1080   81.5940  223.8210 C   0  0  0  0  0  0  0  0  0  0  0  0
  143.1450   80.7400  223.5070 C   0  0  0  0  0  0  0  0  0  0  0  0
  142.9540   79.4400  223.0840 C   0  0  0  0  0  0  0  0  0  0  0  0
  141.6570   78.9410  222.9610 C   0  0  0  0  0  0  0  0  0  0  0  0
  141.4190   77.6810  222.5530 N   0  0  0  0  0  0  0  0  0  0  0  0
  140.0920   70.8190  225.5600 C   0  0  0  0  0  0  0  0  0  0  0  0
  140.6440   71.8320  226.3470 C   0  0  0  0  0  0  0  0  0  0  0  0
  141.1180   71.5880  227.6190 C   0  0  0  0  0  0  0  0  0  0  0  0
  141.0610   70.3210  228.1630 C   0  0  0  0  0  0  0  0  0  0  0  0
  140.5110   69.2940  227.3900 C   0  0  0  0  0  0  0  0  0  0  0  0
  140.0390   69.5470  226.1150 C   0  0  0  0  0  0  0  0  0  0  0  0
  138.9974   69.0410  224.1756 H   0  0  0  0  0  0  0  0  0  0  0  0
  138.3462   70.0250  222.8212 H   0  0  0  0  0  0  0  0  0  0  0  0
  140.0723   69.5277  222.8212 H   0  0  0  0  0  0  0  0  0  0  0  0
  138.6842   71.7077  224.3485 H   0  0  0  0  0  0  0  0  0  0  0  0
  141.5040   71.8330  223.6140 H   0  0  0  0  0  0  0  0  0  0  0  0
  141.8698   73.1321  221.4586 H   0  0  0  0  0  0  0  0  0  0  0  0
  140.3631   73.6077  220.5196 H   0  0  0  0  0  0  0  0  0  0  0  0
  141.9620   75.2810  222.1950 H   0  0  0  0  0  0  0  0  0  0  0  0
  138.1046   77.6797  222.6580 H   0  0  0  0  0  0  0  0  0  0  0  0
  138.4669   80.0071  223.4150 H   0  0  0  0  0  0  0  0  0  0  0  0
  139.9552   81.7340  223.9352 H   0  0  0  0  0  0  0  0  0  0  0  0
  142.2954   82.6253  224.1547 H   0  0  0  0  0  0  0  0  0  0  0  0
  144.1755   81.1137  223.5983 H   0  0  0  0  0  0  0  0  0  0  0  0
  143.8180   78.8022  222.8457 H   0  0  0  0  0  0  0  0  0  0  0  0
  140.7024   72.8527  225.9412 H   0  0  0  0  0  0  0  0  0  0  0  0
  141.5465   72.4131  228.2069 H   0  0  0  0  0  0  0  0  0  0  0  0
  141.4381   70.1244  229.1774 H   0  0  0  0  0  0  0  0  0  0  0  0
  140.4532   68.2749  227.8000 H   0  0  0  0  0  0  0  0  0  0  0  0
  139.6116   68.7216  225.5267 H   0  0  0  0  0  0  0  0  0  0  0  0
  1  2  1  0
  2  3  1  0
  3  4  1  0
  4  5  2  0
  4  6  1  0
  6  7  1  0
  7  8  1  0
  8  9  2  0
  8 10  1  0
 10 11  2  0
 11 12  1  0
 12 13  2  0
 13 14  1  0
 14 15  2  0
 15 16  1  0
 16 17  2  0
 17 18  1  0
 18 19  2  0
  2 20  1  0
 20 21  2  0
 21 22  1  0
 22 23  2  0
 23 24  1  0
 24 25  2  0
 19 10  1  0
 25 20  1  0
 18 13  1  0
  1 26  1  0
  1 27  1  0
  1 28  1  0
  2 29  1  1
  3 30  1  0
  6 31  1  0
  6 32  1  0
  7 33  1  0
 11 34  1  0
 12 35  1  0
 14 36  1  0
 15 37  1  0
 16 38  1  0
 17 39  1  0
 21 40  1  0
 22 41  1  0
 23 42  1  0
 24 43  1  0
 25 44  1  0
M  END
>  <smiles>  (9) 
C[C@H](NC(=O)CNC(=O)c1ccc2ccccc2n1)c1ccccc1

>  <score_type>  (9) 
oracle

>  <origin>  (9) 
autodockgpu

>  <m_score__min__energy>  (9) 
-8.6600000000000001

>  <m_primary>  (9) 
energy

>  <rmsd>  (9) 
10.18282601916353

>  <m_score__min__rmsd>  (9) 
10.18282601916353

>  <meeko>  (9) 
{"free_energy": -8.45, "intermolecular_energy": -9.95, "internal_energy": -1.17, "cluster_size": 24, "cluster_id": 3, "rank_in_cluster": 2}

>  <energy>  (9) 
-7.83

>  <cluster_rmsd>  (9) 
1.88

>  <cluster>  (9) 
1

$$$$

     RDKit          3D

 44 46  0  0  0  0  0  0  0  0999 V2000
  136.4710   76.0440  223.0870 C   0  0  0  0  0  0  0  0  0  0  0  0
  137.6330   75.9480  222.1200 C   0  0  2  0  0  0  0  0  0  0  0  0
  138.1010   74.5790  222.0510 N   0  0  0  0  0  0  0  0  0  0  0  0
  137.8670   73.7980  220.8950 C   0  0  0  0  0  0  0  0  0  0  0  0
  137.2450   74.3310  219.9330 O   0  0  0  0  0  0  0  0  0  0  0  0
  138.2960   72.3950  220.7200 C   0  0  0  0  0  0  0  0  0  0  0  0
  138.6480   71.7220  221.9250 N   0  0  0  0  0  0  0  0  0  0  0  0
  139.7130   72.1500  222.7560 C   0  0  0  0  0  0  0  0  0  0  0  0
  140.4360   73.1510  222.5170 O   0  0  0  0  0  0  0  0  0  0  0  0
  139.9850   71.3670  223.9730 C   0  0  0  0  0  0  0  0  0  0  0  0
  140.7440   71.8830  224.9940 C   0  0  0  0  0  0  0  0  0  0  0  0
  141.0330   71.2000  226.1580 C   0  0  0  0  0  0  0  0  0  0  0  0
  140.5120   69.9160  226.2750 C   0  0  0  0  0  0  0  0  0  0  0  0
  140.7980   69.2290  227.4360 C   0  0  0  0  0  0  0  0  0  0  0  0
  140.3050   67.9460  227.6080 C   0  0  0  0  0  0  0  0  0  0  0  0
  139.5410   67.4230  226.5850 C   0  0  0  0  0  0  0  0  0  0  0  0
  139.2550   68.1120  225.4240 C   0  0  0  0  0  0  0  0  0  0  0  0
  139.7530   69.4040  225.2510 C   0  0  0  0  0  0  0  0  0  0  0  0
  139.5020   70.1160  224.1380 N   0  0  0  0  0  0  0  0  0  0  0  0
  138.7010   76.9200  222.4440 C   0  0  0  0  0  0  0  0  0  0  0  0
  138.3850   78.2110  222.8730 C   0  0  0  0  0  0  0  0  0  0  0  0
  139.3630   79.1340  223.1800 C   0  0  0  0  0  0  0  0  0  0  0  0
  140.7000   78.8090  223.0720 C   0  0  0  0  0  0  0  0  0  0  0  0
  141.0340   77.5210  222.6440 C   0  0  0  0  0  0  0  0  0  0  0  0
  140.0480   76.6020  222.3380 C   0  0  0  0  0  0  0  0  0  0  0  0
  136.8495   76.0127  224.1193 H   0  0  0  0  0  0  0  0  0  0  0  0
  135.9338   76.9896  222.9219 H   0  0  0  0  0  0  0  0  0  0  0  0
  135.7859   75.1994  222.9219 H   0  0  0  0  0  0  0  0  0  0  0  0
  137.2879   76.2277  221.1137 H   0  0  0  0  0  0  0  0  0  0  0  0
  138.6090   74.2050  222.8540 H   0  0  0  0  0  0  0  0  0  0  0  0
  137.4710   71.8415  220.2477 H   0  0  0  0  0  0  0  0  0  0  0  0
  139.2076   72.4249  220.1051 H   0  0  0  0  0  0  0  0  0  0  0  0
  138.0850   70.8670  222.2070 H   0  0  0  0  0  0  0  0  0  0  0  0
  141.1454   72.9005  224.8775 H   0  0  0  0  0  0  0  0  0  0  0  0
  141.6452   71.6491  226.9539 H   0  0  0  0  0  0  0  0  0  0  0  0
  141.4128   69.6962  228.2194 H   0  0  0  0  0  0  0  0  0  0  0  0
  140.5136   67.3689  228.5209 H   0  0  0  0  0  0  0  0  0  0  0  0
  139.1396   66.4054  226.7007 H   0  0  0  0  0  0  0  0  0  0  0  0
  138.6390   67.6462  224.6407 H   0  0  0  0  0  0  0  0  0  0  0  0
  137.3278   78.4995  222.9686 H   0  0  0  0  0  0  0  0  0  0  0  0
  139.0739   80.1411  223.5149 H   0  0  0  0  0  0  0  0  0  0  0  0
  141.4815   79.5436  223.3161 H   0  0  0  0  0  0  0  0  0  0  0  0
  142.0922   77.2359  222.5497 H   0  0  0  0  0  0  0  0  0  0  0  0
  140.3375   75.5951  222.0027 H   0  0  0  0  0  0  0  0  0  0  0  0
  1  2  1  0
  2  3  1  0
  3  4  1  0
  4  5  2  0
  4  6  1  0
  6  7  1  0
  7  8  1  0
  8  9  2  0
  8 10  1  0
 10 11  2  0
 11 12  1  0
 12 13  2  0
 13 14  1  0
 14 15  2  0
 15 16  1  0
 16 17  2  0
 17 18  1  0
 18 19  2  0
  2 20  1  0
 20 21  2  0
 21 22  1  0
 22 23  2  0
 23 24  1  0
 24 25  2  0
 19 10  1  0
 25 20  1  0
 18 13  1  0
  1 26  1  0
  1 27  1  0
  1 28  1  0
  2 29  1  6
  3 30  1  0
  6 31  1  0
  6 32  1  0
  7 33  1  0
 11 34  1  0
 12 35  1  0
 14 36  1  0
 15 37  1  0
 16 38  1  0
 17 39  1  0
 21 40  1  0
 22 41  1  0
 23 42  1  0
 24 43  1  0
 25 44  1  0
M  END
>  <smiles>  (10) 
C[C@H](NC(=O)CNC(=O)c1ccc2ccccc2n1)c1ccccc1

>  <score_type>  (10) 
oracle

>  <origin>  (10) 
autodockgpu

>  <m_score__min__energy>  (10) 
-8.6600000000000001

>  <m_primary>  (10) 
energy

>  <rmsd>  (10) 
4.7148684953228

>  <m_score__min__rmsd>  (10) 
4.7148684953228

>  <meeko>  (10) 
{"free_energy": -7.71, "intermolecular_energy": -9.2, "internal_energy": -2.02, "cluster_size": 5, "cluster_id": 4, "rank_in_cluster": 3}

>  <energy>  (10) 
-7.7

>  <cluster_rmsd>  (10) 
1.99

>  <cluster>  (10) 
1

$$$$

     RDKit          3D

 44 46  0  0  0  0  0  0  0  0999 V2000
  138.5410   70.4540  222.4890 C   0  0  0  0  0  0  0  0  0  0  0  0
  138.8990   71.5850  223.4310 C   0  0  2  0  0  0  0  0  0  0  0  0
  139.5590   72.6450  222.6950 N   0  0  0  0  0  0  0  0  0  0  0  0
  140.6690   72.3590  221.8670 C   0  0  0  0  0  0  0  0  0  0  0  0
  141.0600   71.1600  221.7890 O   0  0  0  0  0  0  0  0  0  0  0  0
  141.4160   73.3600  221.0780 C   0  0  0  0  0  0  0  0  0  0  0  0
  141.3430   74.6930  221.5770 N   0  0  0  0  0  0  0  0  0  0  0  0
  140.1230   75.4090  221.6650 C   0  0  0  0  0  0  0  0  0  0  0  0
  139.0060   74.9460  221.3210 O   0  0  0  0  0  0  0  0  0  0  0  0
  140.1770   76.7830  222.1920 C   0  0  0  0  0  0  0  0  0  0  0  0
  139.0330   77.4500  222.5520 C   0  0  0  0  0  0  0  0  0  0  0  0
  139.0170   78.7360  223.0520 C   0  0  0  0  0  0  0  0  0  0  0  0
  140.2480   79.3680  223.1870 C   0  0  0  0  0  0  0  0  0  0  0  0
  140.2390   80.6540  223.6850 C   0  0  0  0  0  0  0  0  0  0  0  0
  141.4360   81.3340  223.8420 C   0  0  0  0  0  0  0  0  0  0  0  0
  142.5890   80.6680  223.4820 C   0  0  0  0  0  0  0  0  0  0  0  0
  142.5970   79.3810  222.9830 C   0  0  0  0  0  0  0  0  0  0  0  0
  141.3910   78.6980  222.8250 C   0  0  0  0  0  0  0  0  0  0  0  0
  141.3460   77.4430  222.3440 N   0  0  0  0  0  0  0  0  0  0  0  0
  139.6740   71.1060  224.5970 C   0  0  0  0  0  0  0  0  0  0  0  0
  139.4040   69.8620  225.1720 C   0  0  0  0  0  0  0  0  0  0  0  0
  140.1130   69.3950  226.2600 C   0  0  0  0  0  0  0  0  0  0  0  0
  141.1240   70.1490  226.8210 C   0  0  0  0  0  0  0  0  0  0  0  0
  141.4080   71.3960  226.2580 C   0  0  0  0  0  0  0  0  0  0  0  0
  140.6920   71.8570  225.1680 C   0  0  0  0  0  0  0  0  0  0  0  0
  138.2597   69.5654  223.0732 H   0  0  0  0  0  0  0  0  0  0  0  0
  137.6954   70.7587  221.8549 H   0  0  0  0  0  0  0  0  0  0  0  0
  139.4079   70.2166  221.8549 H   0  0  0  0  0  0  0  0  0  0  0  0
  137.9759   72.0063  223.8556 H   0  0  0  0  0  0  0  0  0  0  0  0
  139.1910   73.5930  222.7880 H   0  0  0  0  0  0  0  0  0  0  0  0
  142.4740   73.0597  221.0588 H   0  0  0  0  0  0  0  0  0  0  0  0
  140.9504   73.3775  220.0816 H   0  0  0  0  0  0  0  0  0  0  0  0
  142.2400   75.1610  221.8960 H   0  0  0  0  0  0  0  0  0  0  0  0
  138.0716   76.9285  222.4350 H   0  0  0  0  0  0  0  0  0  0  0  0
  138.0774   79.2360  223.3298 H   0  0  0  0  0  0  0  0  0  0  0  0
  139.2882   81.1365  223.9557 H   0  0  0  0  0  0  0  0  0  0  0  0
  141.4655   82.3604  224.2366 H   0  0  0  0  0  0  0  0  0  0  0  0
  143.5509   81.1888  223.5984 H   0  0  0  0  0  0  0  0  0  0  0  0
  143.5472   78.8976  222.7120 H   0  0  0  0  0  0  0  0  0  0  0  0
  138.6047   69.2377  224.7461 H   0  0  0  0  0  0  0  0  0  0  0  0
  139.8696   68.4101  226.6852 H   0  0  0  0  0  0  0  0  0  0  0  0
  141.6907   69.7783  227.6878 H   0  0  0  0  0  0  0  0  0  0  0  0
  142.2088   72.0171  226.6858 H   0  0  0  0  0  0  0  0  0  0  0  0
  140.9352   72.8423  224.7436 H   0  0  0  0  0  0  0  0  0  0  0  0
  1  2  1  0
  2  3  1  0
  3  4  1  0
  4  5  2  0
  4  6  1  0
  6  7  1  0
  7  8  1  0
  8  9  2  0
  8 10  1  0
 10 11  2  0
 11 12  1  0
 12 13  2  0
 13 14  1  0
 14 15  2  0
 15 16  1  0
 16 17  2  0
 17 18  1  0
 18 19  2  0
  2 20  1  0
 20 21  2  0
 21 22  1  0
 22 23  2  0
 23 24  1  0
 24 25  2  0
 19 10  1  0
 25 20  1  0
 18 13  1  0
  1 26  1  0
  1 27  1  0
  1 28  1  0
  2 29  1  1
  3 30  1  0
  6 31  1  0
  6 32  1  0
  7 33  1  0
 11 34  1  0
 12 35  1  0
 14 36  1  0
 15 37  1  0
 16 38  1  0
 17 39  1  0
 21 40  1  0
 22 41  1  0
 23 42  1  0
 24 43  1  0
 25 44  1  0
M  END
>  <smiles>  (11) 
C[C@H](NC(=O)CNC(=O)c1ccc2ccccc2n1)c1ccccc1

>  <score_type>  (11) 
oracle

>  <origin>  (11) 
autodockgpu

>  <m_score__min__energy>  (11) 
-8.6600000000000001

>  <m_primary>  (11) 
energy

>  <rmsd>  (11) 
9.713152287034463

>  <m_score__min__rmsd>  (11) 
9.713152287034463

>  <meeko>  (11) 
{"free_energy": -8.06, "intermolecular_energy": -9.55, "internal_energy": -1.87, "cluster_size": 24, "cluster_id": 3, "rank_in_cluster": 3}

>  <energy>  (11) 
-7.7

>  <cluster_rmsd>  (11) 
1.95

>  <cluster>  (11) 
1

$$$$

     RDKit          3D

 44 46  0  0  0  0  0  0  0  0999 V2000
  136.5760   76.0210  223.1100 C   0  0  0  0  0  0  0  0  0  0  0  0
  137.7460   75.9880  222.1490 C   0  0  2  0  0  0  0  0  0  0  0  0
  138.2810   74.6430  222.0740 N   0  0  0  0  0  0  0  0  0  0  0  0
  138.1650   73.8910  220.8820 C   0  0  0  0  0  0  0  0  0  0  0  0
  137.5890   74.4280  219.8940 O   0  0  0  0  0  0  0  0  0  0  0  0
  138.6690   72.5150  220.6970 C   0  0  0  0  0  0  0  0  0  0  0  0
  138.9400   71.8090  221.9050 N   0  0  0  0  0  0  0  0  0  0  0  0
  139.9220   72.2340  222.8340 C   0  0  0  0  0  0  0  0  0  0  0  0
  140.6350   73.2580  222.6880 O   0  0  0  0  0  0  0  0  0  0  0  0
  140.1140   71.4160  224.0430 C   0  0  0  0  0  0  0  0  0  0  0  0
  140.8200   71.8940  225.1180 C   0  0  0  0  0  0  0  0  0  0  0  0
  141.0340   71.1780  226.2790 C   0  0  0  0  0  0  0  0  0  0  0  0
  140.4910   69.8990  226.3320 C   0  0  0  0  0  0  0  0  0  0  0  0
  140.7020   69.1790  227.4890 C   0  0  0  0  0  0  0  0  0  0  0  0
  140.1830   67.8990  227.5990 C   0  0  0  0  0  0  0  0  0  0  0  0
  139.4720   67.4120  226.5210 C   0  0  0  0  0  0  0  0  0  0  0  0
  139.2620   68.1350  225.3640 C   0  0  0  0  0  0  0  0  0  0  0  0
  139.7840   69.4240  225.2540 C   0  0  0  0  0  0  0  0  0  0  0  0
  139.6070   70.1680  224.1480 N   0  0  0  0  0  0  0  0  0  0  0  0
  138.7630   77.0080  222.4850 C   0  0  0  0  0  0  0  0  0  0  0  0
  140.1260   76.7280  222.3590 C   0  0  0  0  0  0  0  0  0  0  0  0
  141.0920   77.6630  222.6670 C   0  0  0  0  0  0  0  0  0  0  0  0
  140.7400   78.9210  223.1150 C   0  0  0  0  0  0  0  0  0  0  0  0
  139.3810   79.2190  223.2470 C   0  0  0  0  0  0  0  0  0  0  0  0
  138.4190   78.2750  222.9360 C   0  0  0  0  0  0  0  0  0  0  0  0
  136.9506   76.0104  224.1442 H   0  0  0  0  0  0  0  0  0  0  0  0
  135.9891   76.9361  222.9419 H   0  0  0  0  0  0  0  0  0  0  0  0
  135.9385   75.1405  222.9419 H   0  0  0  0  0  0  0  0  0  0  0  0
  137.3929   76.2570  221.1425 H   0  0  0  0  0  0  0  0  0  0  0  0
  138.7480   74.2670  222.9000 H   0  0  0  0  0  0  0  0  0  0  0  0
  137.9151   71.9479  220.1313 H   0  0  0  0  0  0  0  0  0  0  0  0
  139.6302   72.6062  220.1700 H   0  0  0  0  0  0  0  0  0  0  0  0
  138.3780   70.9320  222.1120 H   0  0  0  0  0  0  0  0  0  0  0  0
  141.2407   72.9082  225.0509 H   0  0  0  0  0  0  0  0  0  0  0  0
  141.6053   71.5983  227.1198 H   0  0  0  0  0  0  0  0  0  0  0  0
  141.2775   69.6172  228.3177 H   0  0  0  0  0  0  0  0  0  0  0  0
  140.3314   67.2964  228.5072 H   0  0  0  0  0  0  0  0  0  0  0  0
  139.0519   66.3975  226.5871 H   0  0  0  0  0  0  0  0  0  0  0  0
  138.6870   67.6977  224.5344 H   0  0  0  0  0  0  0  0  0  0  0  0
  140.4373   75.7344  222.0043 H   0  0  0  0  0  0  0  0  0  0  0  0
  142.1551   77.4037  222.5545 H   0  0  0  0  0  0  0  0  0  0  0  0
  141.5086   79.6684  223.3613 H   0  0  0  0  0  0  0  0  0  0  0  0
  139.0734   80.2138  223.6016 H   0  0  0  0  0  0  0  0  0  0  0  0
  137.3560   78.5345  223.0488 H   0  0  0  0  0  0  0  0  0  0  0  0
  1  2  1  0
  2  3  1  0
  3  4  1  0
  4  5  2  0
  4  6  1  0
  6  7  1  0
  7  8  1  0
  8  9  2  0
  8 10  1  0
 10 11  2  0
 11 12  1  0
 12 13  2  0
 13 14  1  0
 14 15  2  0
 15 16  1  0
 16 17  2  0
 17 18  1  0
 18 19  2  0
  2 20  1  0
 20 21  2  0
 21 22  1  0
 22 23  2  0
 23 24  1  0
 24 25  2  0
 19 10  1  0
 25 20  1  0
 18 13  1  0
  1 26  1  0
  1 27  1  0
  1 28  1  0
  2 29  1  6
  3 30  1  0
  6 31  1  0
  6 32  1  0
  7 33  1  0
 11 34  1  0
 12 35  1  0
 14 36  1  0
 15 37  1  0
 16 38  1  0
 17 39  1  0
 21 40  1  0
 22 41  1  0
 23 42  1  0
 24 43  1  0
 25 44  1  0
M  END
>  <smiles>  (12) 
C[C@H](NC(=O)CNC(=O)c1ccc2ccccc2n1)c1ccccc1

>  <score_type>  (12) 
oracle

>  <origin>  (12) 
autodockgpu

>  <m_score__min__energy>  (12) 
-8.6600000000000001

>  <m_primary>  (12) 
energy

>  <rmsd>  (12) 
4.735478315376348

>  <m_score__min__rmsd>  (12) 
4.735478315376348

>  <meeko>  (12) 
{"free_energy": -7.69, "intermolecular_energy": -9.18, "internal_energy": -2.04, "cluster_size": 13, "cluster_id": 1, "rank_in_cluster": 12}

>  <energy>  (12) 
-7.69

>  <cluster_rmsd>  (12) 
1.98

>  <cluster>  (12) 
1

$$$$

     RDKit          3D

 44 46  0  0  0  0  0  0  0  0999 V2000
  141.8160   78.2300  219.3520 C   0  0  0  0  0  0  0  0  0  0  0  0
  141.7560   77.6050  220.7300 C   0  0  2  0  0  0  0  0  0  0  0  0
  140.6140   76.7160  220.8150 N   0  0  0  0  0  0  0  0  0  0  0  0
  140.7950   75.3400  221.0830 C   0  0  0  0  0  0  0  0  0  0  0  0
  141.9740   74.9160  221.2480 O   0  0  0  0  0  0  0  0  0  0  0  0
  139.7060   74.3470  221.1880 C   0  0  0  0  0  0  0  0  0  0  0  0
  139.7600   73.5170  222.3440 N   0  0  0  0  0  0  0  0  0  0  0  0
  140.0540   72.1320  222.2770 C   0  0  0  0  0  0  0  0  0  0  0  0
  140.2940   71.5130  221.2110 O   0  0  0  0  0  0  0  0  0  0  0  0
  140.0750   71.3790  223.5430 C   0  0  0  0  0  0  0  0  0  0  0  0
  139.5960   70.0950  223.6120 C   0  0  0  0  0  0  0  0  0  0  0  0
  139.5880   69.3380  224.7650 C   0  0  0  0  0  0  0  0  0  0  0  0
  140.1010   69.9390  225.9100 C   0  0  0  0  0  0  0  0  0  0  0  0
  140.0950   69.1870  227.0660 C   0  0  0  0  0  0  0  0  0  0  0  0
  140.5940   69.7330  228.2370 C   0  0  0  0  0  0  0  0  0  0  0  0
  141.0770   71.0240  228.1740 C   0  0  0  0  0  0  0  0  0  0  0  0
  141.0820   71.7750  227.0160 C   0  0  0  0  0  0  0  0  0  0  0  0
  140.5790   71.2240  225.8370 C   0  0  0  0  0  0  0  0  0  0  0  0
  140.5620   71.9150  224.6830 N   0  0  0  0  0  0  0  0  0  0  0  0
  141.7880   78.6260  221.8000 C   0  0  0  0  0  0  0  0  0  0  0  0
  142.1480   79.9450  221.5170 C   0  0  0  0  0  0  0  0  0  0  0  0
  142.1870   80.9150  222.4990 C   0  0  0  0  0  0  0  0  0  0  0  0
  141.8670   80.6090  223.8060 C   0  0  0  0  0  0  0  0  0  0  0  0
  141.5040   79.2930  224.1070 C   0  0  0  0  0  0  0  0  0  0  0  0
  141.4690   78.3280  223.1170 C   0  0  0  0  0  0  0  0  0  0  0  0
  141.9207   79.3208  219.4484 H   0  0  0  0  0  0  0  0  0  0  0  0
  142.6795   77.8258  218.8033 H   0  0  0  0  0  0  0  0  0  0  0  0
  140.8914   77.9975  218.8033 H   0  0  0  0  0  0  0  0  0  0  0  0
  142.6585   76.9966  220.8891 H   0  0  0  0  0  0  0  0  0  0  0  0
  139.6840   77.1170  220.6860 H   0  0  0  0  0  0  0  0  0  0  0  0
  138.7492   74.8895  221.2014 H   0  0  0  0  0  0  0  0  0  0  0  0
  139.8151   73.6772  220.3223 H   0  0  0  0  0  0  0  0  0  0  0  0
  139.5750   73.9600  223.2910 H   0  0  0  0  0  0  0  0  0  0  0  0
  139.1945   69.6425  222.6933 H   0  0  0  0  0  0  0  0  0  0  0  0
  139.1956   68.3105  224.7785 H   0  0  0  0  0  0  0  0  0  0  0  0
  139.6970   68.1615  227.0581 H   0  0  0  0  0  0  0  0  0  0  0  0
  140.6048   69.1619  229.1770 H   0  0  0  0  0  0  0  0  0  0  0  0
  141.4781   71.4773  229.0925 H   0  0  0  0  0  0  0  0  0  0  0  0
  141.4797   72.8006  227.0226 H   0  0  0  0  0  0  0  0  0  0  0  0
  142.4076   80.2189  220.4837 H   0  0  0  0  0  0  0  0  0  0  0  0
  142.4764   81.9433  222.2365 H   0  0  0  0  0  0  0  0  0  0  0  0
  141.8968   81.3800  224.5900 H   0  0  0  0  0  0  0  0  0  0  0  0
  141.2438   79.0225  225.1410 H   0  0  0  0  0  0  0  0  0  0  0  0
  141.1813   77.2994  223.3800 H   0  0  0  0  0  0  0  0  0  0  0  0
  1  2  1  0
  2  3  1  0
  3  4  1  0
  4  5  2  0
  4  6  1  0
  6  7  1  0
  7  8  1  0
  8  9  2  0
  8 10  1  0
 10 11  2  0
 11 12  1  0
 12 13  2  0
 13 14  1  0
 14 15  2  0
 15 16  1  0
 16 17  2  0
 17 18  1  0
 18 19  2  0
  2 20  1  0
 20 21  2  0
 21 22  1  0
 22 23  2  0
 23 24  1  0
 24 25  2  0
 19 10  1  0
 25 20  1  0
 18 13  1  0
  1 26  1  0
  1 27  1  0
  1 28  1  0
  2 29  1  1
  3 30  1  0
  6 31  1  0
  6 32  1  0
  7 33  1  0
 11 34  1  0
 12 35  1  0
 14 36  1  0
 15 37  1  0
 16 38  1  0
 17 39  1  0
 21 40  1  0
 22 41  1  0
 23 42  1  0
 24 43  1  0
 25 44  1  0
M  END
>  <smiles>  (13) 
C[C@H](NC(=O)CNC(=O)c1ccc2ccccc2n1)c1ccccc1

>  <score_type>  (13) 
oracle

>  <origin>  (13) 
autodockgpu

>  <m_score__min__energy>  (13) 
-8.6600000000000001

>  <m_primary>  (13) 
energy

>  <rmsd>  (13) 
4.213270167990974

>  <m_score__min__rmsd>  (13) 
4.213270167990974

>  <meeko>  (13) 
{"free_energy": -8.56, "intermolecular_energy": -10.05, "internal_energy": -1.07, "cluster_size": 13, "cluster_id": 1, "rank_in_cluster": 2}

>  <energy>  (13) 
-7.67

>  <cluster_rmsd>  (13) 
1.98

>  <cluster>  (13) 
1

$$$$

     RDKit          3D

 44 46  0  0  0  0  0  0  0  0999 V2000
  138.4480   70.4570  222.5510 C   0  0  0  0  0  0  0  0  0  0  0  0
  138.8390   71.5980  223.4680 C   0  0  2  0  0  0  0  0  0  0  0  0
  139.4730   72.6490  222.6980 N   0  0  0  0  0  0  0  0  0  0  0  0
  140.6360   72.3810  221.9410 C   0  0  0  0  0  0  0  0  0  0  0  0
  141.0970   71.2050  221.9550 O   0  0  0  0  0  0  0  0  0  0  0  0
  141.3630   73.3760  221.1250 C   0  0  0  0  0  0  0  0  0  0  0  0
  141.2950   74.7130  221.6110 N   0  0  0  0  0  0  0  0  0  0  0  0
  140.0750   75.4280  221.7120 C   0  0  0  0  0  0  0  0  0  0  0  0
  138.9540   74.9590  221.3930 O   0  0  0  0  0  0  0  0  0  0  0  0
  140.1350   76.8080  222.2240 C   0  0  0  0  0  0  0  0  0  0  0  0
  138.9940   77.4830  222.5770 C   0  0  0  0  0  0  0  0  0  0  0  0
  138.9840   78.7750  223.0620 C   0  0  0  0  0  0  0  0  0  0  0  0
  140.2180   79.4040  223.1890 C   0  0  0  0  0  0  0  0  0  0  0  0
  140.2140   80.6950  223.6730 C   0  0  0  0  0  0  0  0  0  0  0  0
  141.4140   81.3710  223.8220 C   0  0  0  0  0  0  0  0  0  0  0  0
  142.5650   80.6970  223.4690 C   0  0  0  0  0  0  0  0  0  0  0  0
  142.5670   79.4040  222.9840 C   0  0  0  0  0  0  0  0  0  0  0  0
  141.3580   78.7240  222.8350 C   0  0  0  0  0  0  0  0  0  0  0  0
  141.3070   77.4640  222.3680 N   0  0  0  0  0  0  0  0  0  0  0  0
  139.6530   71.1310  224.6110 C   0  0  0  0  0  0  0  0  0  0  0  0
  139.3980   69.8970  225.2130 C   0  0  0  0  0  0  0  0  0  0  0  0
  140.1440   69.4410  226.2810 C   0  0  0  0  0  0  0  0  0  0  0  0
  141.1780   70.1990  226.7950 C   0  0  0  0  0  0  0  0  0  0  0  0
  141.4460   71.4370  226.2040 C   0  0  0  0  0  0  0  0  0  0  0  0
  140.6940   71.8860  225.1350 C   0  0  0  0  0  0  0  0  0  0  0  0
  138.1499   69.5871  223.1547 H   0  0  0  0  0  0  0  0  0  0  0  0
  137.6055   70.7689  221.9163 H   0  0  0  0  0  0  0  0  0  0  0  0
  139.3048   70.1866  221.9163 H   0  0  0  0  0  0  0  0  0  0  0  0
  137.9317   72.0250  223.9202 H   0  0  0  0  0  0  0  0  0  0  0  0
  139.0480   73.5770  222.7140 H   0  0  0  0  0  0  0  0  0  0  0  0
  142.4216   73.0794  221.0870 H   0  0  0  0  0  0  0  0  0  0  0  0
  140.8773   73.3807  220.1381 H   0  0  0  0  0  0  0  0  0  0  0  0
  142.1970   75.1870  221.9100 H   0  0  0  0  0  0  0  0  0  0  0  0
  138.0305   76.9639  222.4670 H   0  0  0  0  0  0  0  0  0  0  0  0
  138.0467   79.2821  223.3346 H   0  0  0  0  0  0  0  0  0  0  0  0
  139.2654   81.1844  223.9388 H   0  0  0  0  0  0  0  0  0  0  0  0
  141.4478   82.4014  224.2055 H   0  0  0  0  0  0  0  0  0  0  0  0
  143.5289   81.2153  223.5794 H   0  0  0  0  0  0  0  0  0  0  0  0
  143.5149   78.9138  222.7171 H   0  0  0  0  0  0  0  0  0  0  0  0
  138.5804   69.2714  224.8255 H   0  0  0  0  0  0  0  0  0  0  0  0
  139.9125   68.4629  226.7279 H   0  0  0  0  0  0  0  0  0  0  0  0
  141.7742   69.8383  227.6461 H   0  0  0  0  0  0  0  0  0  0  0  0
  142.2641   72.0604  226.5939 H   0  0  0  0  0  0  0  0  0  0  0  0
  140.9255   72.8644  224.6887 H   0  0  0  0  0  0  0  0  0  0  0  0
  1  2  1  0
  2  3  1  0
  3  4  1  0
  4  5  2  0
  4  6  1  0
  6  7  1  0
  7  8  1  0
  8  9  2  0
  8 10  1  0
 10 11  2  0
 11 12  1  0
 12 13  2  0
 13 14  1  0
 14 15  2  0
 15 16  1  0
 16 17  2  0
 17 18  1  0
 18 19  2  0
  2 20  1  0
 20 21  2  0
 21 22  1  0
 22 23  2  0
 23 24  1  0
 24 25  2  0
 19 10  1  0
 25 20  1  0
 18 13  1  0
  1 26  1  0
  1 27  1  0
  1 28  1  0
  2 29  1  1
  3 30  1  0
  6 31  1  0
  6 32  1  0
  7 33  1  0
 11 34  1  0
 12 35  1  0
 14 36  1  0
 15 37  1  0
 16 38  1  0
 17 39  1  0
 21 40  1  0
 22 41  1  0
 23 42  1  0
 24 43  1  0
 25 44  1  0
M  END
>  <smiles>  (14) 
C[C@H](NC(=O)CNC(=O)c1ccc2ccccc2n1)c1ccccc1

>  <score_type>  (14) 
oracle

>  <origin>  (14) 
autodockgpu

>  <m_score__min__energy>  (14) 
-8.6600000000000001

>  <m_primary>  (14) 
energy

>  <rmsd>  (14) 
9.71517221587558

>  <m_score__min__rmsd>  (14) 
9.71517221587558

>  <meeko>  (14) 
{"free_energy": -8.0, "intermolecular_energy": -9.5, "internal_energy": -1.92, "cluster_size": 24, "cluster_id": 3, "rank_in_cluster": 6}

>  <energy>  (14) 
-8.51

>  <cluster_rmsd>  (14) 
0.0

>  <cluster>  (14) 
2

$$$$

     RDKit          3D

 44 46  0  0  0  0  0  0  0  0999 V2000
  138.3950   70.5930  222.4440 C   0  0  0  0  0  0  0  0  0  0  0  0
  138.9310   71.5610  223.4780 C   0  0  2  0  0  0  0  0  0  0  0  0
  139.6920   72.6060  222.8240 N   0  0  0  0  0  0  0  0  0  0  0  0
  140.6820   72.2820  221.8680 C   0  0  0  0  0  0  0  0  0  0  0  0
  140.8770   71.0610  221.6050 O   0  0  0  0  0  0  0  0  0  0  0  0
  141.5150   73.2650  221.1450 C   0  0  0  0  0  0  0  0  0  0  0  0
  141.4190   74.6020  221.6270 N   0  0  0  0  0  0  0  0  0  0  0  0
  140.1870   75.3010  221.6990 C   0  0  0  0  0  0  0  0  0  0  0  0
  139.0800   74.8160  221.3540 O   0  0  0  0  0  0  0  0  0  0  0  0
  140.2170   76.6810  222.2100 C   0  0  0  0  0  0  0  0  0  0  0  0
  139.0590   77.3490  222.5170 C   0  0  0  0  0  0  0  0  0  0  0  0
  139.0210   78.6420  222.9990 C   0  0  0  0  0  0  0  0  0  0  0  0
  140.2440   79.2800  223.1720 C   0  0  0  0  0  0  0  0  0  0  0  0
  140.2110   80.5720  223.6530 C   0  0  0  0  0  0  0  0  0  0  0  0
  141.4000   81.2570  223.8460 C   0  0  0  0  0  0  0  0  0  0  0  0
  142.5680   80.5910  223.5390 C   0  0  0  0  0  0  0  0  0  0  0  0
  142.5990   79.2980  223.0580 C   0  0  0  0  0  0  0  0  0  0  0  0
  141.4010   78.6080  222.8630 C   0  0  0  0  0  0  0  0  0  0  0  0
  141.3780   77.3470  222.3970 N   0  0  0  0  0  0  0  0  0  0  0  0
  139.6840   70.8650  224.5450 C   0  0  0  0  0  0  0  0  0  0  0  0
  140.6970   71.5210  225.2490 C   0  0  0  0  0  0  0  0  0  0  0  0
  141.4130   70.8920  226.2470 C   0  0  0  0  0  0  0  0  0  0  0  0
  141.1470   69.5810  226.5880 C   0  0  0  0  0  0  0  0  0  0  0  0
  140.1360   68.9100  225.8940 C   0  0  0  0  0  0  0  0  0  0  0  0
  139.4240   69.5470  224.8950 C   0  0  0  0  0  0  0  0  0  0  0  0
  137.9222   69.7392  222.9514 H   0  0  0  0  0  0  0  0  0  0  0  0
  137.6510   71.1034  221.8148 H   0  0  0  0  0  0  0  0  0  0  0  0
  139.2225   70.2333  221.8148 H   0  0  0  0  0  0  0  0  0  0  0  0
  138.0860   72.0432  223.9913 H   0  0  0  0  0  0  0  0  0  0  0  0
  139.4810   73.5760  223.0670 H   0  0  0  0  0  0  0  0  0  0  0  0
  142.5651   72.9475  221.2249 H   0  0  0  0  0  0  0  0  0  0  0  0
  141.1431   73.2827  220.1099 H   0  0  0  0  0  0  0  0  0  0  0  0
  142.3070   75.0870  221.9460 H   0  0  0  0  0  0  0  0  0  0  0  0
  138.1040   76.8232  222.3704 H   0  0  0  0  0  0  0  0  0  0  0  0
  138.0703   79.1426  223.2345 H   0  0  0  0  0  0  0  0  0  0  0  0
  139.2493   81.0546  223.8815 H   0  0  0  0  0  0  0  0  0  0  0  0
  141.4117   82.2885  224.2279 H   0  0  0  0  0  0  0  0  0  0  0  0
  143.5230   81.1170  223.6849 H   0  0  0  0  0  0  0  0  0  0  0  0
  143.5604   78.8145  222.8299 H   0  0  0  0  0  0  0  0  0  0  0  0
  140.9301   72.5670  225.0010 H   0  0  0  0  0  0  0  0  0  0  0  0
  142.2049   71.4416  226.7770 H   0  0  0  0  0  0  0  0  0  0  0  0
  141.7153   69.0780  227.3843 H   0  0  0  0  0  0  0  0  0  0  0  0
  139.9047   67.8644  226.1454 H   0  0  0  0  0  0  0  0  0  0  0  0
  138.6328   68.9966  224.3649 H   0  0  0  0  0  0  0  0  0  0  0  0
  1  2  1  0
  2  3  1  0
  3  4  1  0
  4  5  2  0
  4  6  1  0
  6  7  1  0
  7  8  1  0
  8  9  2  0
  8 10  1  0
 10 11  2  0
 11 12  1  0
 12 13  2  0
 13 14  1  0
 14 15  2  0
 15 16  1  0
 16 17  2  0
 17 18  1  0
 18 19  2  0
  2 20  1  0
 20 21  2  0
 21 22  1  0
 22 23  2  0
 23 24  1  0
 24 25  2  0
 19 10  1  0
 25 20  1  0
 18 13  1  0
  1 26  1  0
  1 27  1  0
  1 28  1  0
  2 29  1  1
  3 30  1  0
  6 31  1  0
  6 32  1  0
  7 33  1  0
 11 34  1  0
 12 35  1  0
 14 36  1  0
 15 37  1  0
 16 38  1  0
 17 39  1  0
 21 40  1  0
 22 41  1  0
 23 42  1  0
 24 43  1  0
 25 44  1  0
M  END
>  <smiles>  (15) 
C[C@H](NC(=O)CNC(=O)c1ccc2ccccc2n1)c1ccccc1

>  <score_type>  (15) 
oracle

>  <origin>  (15) 
autodockgpu

>  <m_score__min__energy>  (15) 
-8.6600000000000001

>  <m_primary>  (15) 
energy

>  <rmsd>  (15) 
9.918591874934508

>  <m_score__min__rmsd>  (15) 
9.918591874934508

>  <meeko>  (15) 
{"free_energy": -7.98, "intermolecular_energy": -9.47, "internal_energy": -1.8, "cluster_size": 24, "cluster_id": 3, "rank_in_cluster": 13}

>  <energy>  (15) 
-8.49

>  <cluster_rmsd>  (15) 
0.06

>  <cluster>  (15) 
2

$$$$

     RDKit          3D

 44 46  0  0  0  0  0  0  0  0999 V2000
  141.7520   78.4130  219.1650 C   0  0  0  0  0  0  0  0  0  0  0  0
  141.7010   77.6620  220.4800 C   0  0  2  0  0  0  0  0  0  0  0  0
  140.5620   76.7660  220.4880 N   0  0  0  0  0  0  0  0  0  0  0  0
  140.6150   75.5450  221.2000 C   0  0  0  0  0  0  0  0  0  0  0  0
  141.6770   75.2670  221.8260 O   0  0  0  0  0  0  0  0  0  0  0  0
  139.5170   74.5590  221.2720 C   0  0  0  0  0  0  0  0  0  0  0  0
  139.5940   73.6550  222.3710 N   0  0  0  0  0  0  0  0  0  0  0  0
  139.7420   72.2560  222.1990 C   0  0  0  0  0  0  0  0  0  0  0  0
  139.8220   71.6870  221.0810 O   0  0  0  0  0  0  0  0  0  0  0  0
  139.8040   71.4240  223.4130 C   0  0  0  0  0  0  0  0  0  0  0  0
  139.3420   70.1330  223.4110 C   0  0  0  0  0  0  0  0  0  0  0  0
  139.3730   69.3040  224.5140 C   0  0  0  0  0  0  0  0  0  0  0  0
  139.9080   69.8370  225.6810 C   0  0  0  0  0  0  0  0  0  0  0  0
  139.9400   69.0130  226.7870 C   0  0  0  0  0  0  0  0  0  0  0  0
  140.4640   69.4900  227.9780 C   0  0  0  0  0  0  0  0  0  0  0  0
  140.9310   70.7880  227.9850 C   0  0  0  0  0  0  0  0  0  0  0  0
  140.8970   71.6120  226.8770 C   0  0  0  0  0  0  0  0  0  0  0  0
  140.3700   71.1300  225.6790 C   0  0  0  0  0  0  0  0  0  0  0  0
  140.3150   71.8930  224.5720 N   0  0  0  0  0  0  0  0  0  0  0  0
  141.7370   78.5790  221.6400 C   0  0  0  0  0  0  0  0  0  0  0  0
  142.1320   79.9100  221.4860 C   0  0  0  0  0  0  0  0  0  0  0  0
  142.1740   80.7840  222.5530 C   0  0  0  0  0  0  0  0  0  0  0  0
  141.8220   80.3670  223.8220 C   0  0  0  0  0  0  0  0  0  0  0  0
  141.4230   79.0390  223.9930 C   0  0  0  0  0  0  0  0  0  0  0  0
  141.3850   78.1700  222.9190 C   0  0  0  0  0  0  0  0  0  0  0  0
  141.8253   79.4927  219.3620 H   0  0  0  0  0  0  0  0  0  0  0  0
  142.6299   78.0849  218.5892 H   0  0  0  0  0  0  0  0  0  0  0  0
  140.8378   78.2066  218.5892 H   0  0  0  0  0  0  0  0  0  0  0  0
  142.6057   77.0439  220.5771 H   0  0  0  0  0  0  0  0  0  0  0  0
  139.7260   77.0490  219.9750 H   0  0  0  0  0  0  0  0  0  0  0  0
  138.5677   75.1095  221.3481 H   0  0  0  0  0  0  0  0  0  0  0  0
  139.5926   73.9457  220.3620 H   0  0  0  0  0  0  0  0  0  0  0  0
  139.5410   74.0520  223.3540 H   0  0  0  0  0  0  0  0  0  0  0  0
  138.9221   69.7347  222.4755 H   0  0  0  0  0  0  0  0  0  0  0  0
  138.9931   68.2725  224.4717 H   0  0  0  0  0  0  0  0  0  0  0  0
  139.5526   67.9854  226.7240 H   0  0  0  0  0  0  0  0  0  0  0  0
  140.5058   68.8605  228.8791 H   0  0  0  0  0  0  0  0  0  0  0  0
  141.3516   71.1868  228.9199 H   0  0  0  0  0  0  0  0  0  0  0  0
  141.2826   72.6403  226.9390 H   0  0  0  0  0  0  0  0  0  0  0  0
  142.4173   80.2712  220.4869 H   0  0  0  0  0  0  0  0  0  0  0  0
  142.4914   81.8247  222.3912 H   0  0  0  0  0  0  0  0  0  0  0  0
  141.8549   81.0614  224.6745 H   0  0  0  0  0  0  0  0  0  0  0  0
  141.1361   78.6814  224.9929 H   0  0  0  0  0  0  0  0  0  0  0  0
  141.0682   77.1292  223.0816 H   0  0  0  0  0  0  0  0  0  0  0  0
  1  2  1  0
  2  3  1  0
  3  4  1  0
  4  5  2  0
  4  6  1  0
  6  7  1  0
  7  8  1  0
  8  9  2  0
  8 10  1  0
 10 11  2  0
 11 12  1  0
 12 13  2  0
 13 14  1  0
 14 15  2  0
 15 16  1  0
 16 17  2  0
 17 18  1  0
 18 19  2  0
  2 20  1  0
 20 21  2  0
 21 22  1  0
 22 23  2  0
 23 24  1  0
 24 25  2  0
 19 10  1  0
 25 20  1  0
 18 13  1  0
  1 26  1  0
  1 27  1  0
  1 28  1  0
  2 29  1  1
  3 30  1  0
  6 31  1  0
  6 32  1  0
  7 33  1  0
 11 34  1  0
 12 35  1  0
 14 36  1  0
 15 37  1  0
 16 38  1  0
 17 39  1  0
 21 40  1  0
 22 41  1  0
 23 42  1  0
 24 43  1  0
 25 44  1  0
M  END
>  <smiles>  (16) 
C[C@H](NC(=O)CNC(=O)c1ccc2ccccc2n1)c1ccccc1

>  <score_type>  (16) 
oracle

>  <origin>  (16) 
autodockgpu

>  <m_score__min__energy>  (16) 
-8.6600000000000001

>  <m_primary>  (16) 
energy

>  <rmsd>  (16) 
4.186063915617905

>  <m_score__min__rmsd>  (16) 
4.186063915617905

>  <meeko>  (16) 
{"free_energy": -8.36, "intermolecular_energy": -9.85, "internal_energy": -1.16, "cluster_size": 13, "cluster_id": 1, "rank_in_cluster": 4}

>  <energy>  (16) 
-8.48

>  <cluster_rmsd>  (16) 
0.11

>  <cluster>  (16) 
2

$$$$

     RDKit          3D

 44 46  0  0  0  0  0  0  0  0999 V2000
  136.4940   75.9770  223.0660 C   0  0  0  0  0  0  0  0  0  0  0  0
  137.6460   75.8530  222.0900 C   0  0  2  0  0  0  0  0  0  0  0  0
  138.0940   74.4760  222.0320 N   0  0  0  0  0  0  0  0  0  0  0  0
  138.1170   73.7800  220.8020 C   0  0  0  0  0  0  0  0  0  0  0  0
  137.7400   74.3940  219.7640 O   0  0  0  0  0  0  0  0  0  0  0  0
  138.5500   72.3780  220.6310 C   0  0  0  0  0  0  0  0  0  0  0  0
  138.8600   71.6950  221.8420 N   0  0  0  0  0  0  0  0  0  0  0  0
  139.7870   72.1990  222.7880 C   0  0  0  0  0  0  0  0  0  0  0  0
  140.4120   73.2810  222.6550 O   0  0  0  0  0  0  0  0  0  0  0  0
  140.0280   71.3980  223.9990 C   0  0  0  0  0  0  0  0  0  0  0  0
  140.7600   71.8980  225.0470 C   0  0  0  0  0  0  0  0  0  0  0  0
  141.0200   71.1970  226.2070 C   0  0  0  0  0  0  0  0  0  0  0  0
  140.4970   69.9120  226.2910 C   0  0  0  0  0  0  0  0  0  0  0  0
  140.7540   69.2070  227.4480 C   0  0  0  0  0  0  0  0  0  0  0  0
  140.2580   67.9210  227.5880 C   0  0  0  0  0  0  0  0  0  0  0  0
  139.5210   67.4130  226.5380 C   0  0  0  0  0  0  0  0  0  0  0  0
  139.2650   68.1200  225.3800 C   0  0  0  0  0  0  0  0  0  0  0  0
  139.7650   69.4150  225.2400 C   0  0  0  0  0  0  0  0  0  0  0  0
  139.5430   70.1440  224.1330 N   0  0  0  0  0  0  0  0  0  0  0  0
  138.7300   76.8140  222.3920 C   0  0  0  0  0  0  0  0  0  0  0  0
  138.4370   78.1260  222.7700 C   0  0  0  0  0  0  0  0  0  0  0  0
  139.4310   79.0390  223.0560 C   0  0  0  0  0  0  0  0  0  0  0  0
  140.7620   78.6820  222.9780 C   0  0  0  0  0  0  0  0  0  0  0  0
  141.0730   77.3720  222.6020 C   0  0  0  0  0  0  0  0  0  0  0  0
  140.0710   76.4640  222.3170 C   0  0  0  0  0  0  0  0  0  0  0  0
  136.8795   75.9355  224.0954 H   0  0  0  0  0  0  0  0  0  0  0  0
  135.9791   76.9357  222.9056 H   0  0  0  0  0  0  0  0  0  0  0  0
  135.7869   75.1498  222.9056 H   0  0  0  0  0  0  0  0  0  0  0  0
  137.2958   76.1256  221.0835 H   0  0  0  0  0  0  0  0  0  0  0  0
  138.3990   74.0360  222.9020 H   0  0  0  0  0  0  0  0  0  0  0  0
  137.7409   71.8294  220.1266 H   0  0  0  0  0  0  0  0  0  0  0  0
  139.4821   72.4115  220.0479 H   0  0  0  0  0  0  0  0  0  0  0  0
  138.3720   70.7730  222.0390 H   0  0  0  0  0  0  0  0  0  0  0  0
  141.1631   72.9175  224.9570 H   0  0  0  0  0  0  0  0  0  0  0  0
  141.6120   71.6337  227.0248 H   0  0  0  0  0  0  0  0  0  0  0  0
  141.3484   69.6623  228.2538 H   0  0  0  0  0  0  0  0  0  0  0  0
  140.4438   67.3303  228.4972 H   0  0  0  0  0  0  0  0  0  0  0  0
  139.1172   66.3938  226.6280 H   0  0  0  0  0  0  0  0  0  0  0  0
  138.6710   67.6655  224.5734 H   0  0  0  0  0  0  0  0  0  0  0  0
  137.3852   78.4400  222.8417 H   0  0  0  0  0  0  0  0  0  0  0  0
  139.1595   80.0637  223.3497 H   0  0  0  0  0  0  0  0  0  0  0  0
  141.5562   79.4083  223.2054 H   0  0  0  0  0  0  0  0  0  0  0  0
  142.1258   77.0609  222.5323 H   0  0  0  0  0  0  0  0  0  0  0  0
  140.3427   75.4392  222.0237 H   0  0  0  0  0  0  0  0  0  0  0  0
  1  2  1  0
  2  3  1  0
  3  4  1  0
  4  5  2  0
  4  6  1  0
  6  7  1  0
  7  8  1  0
  8  9  2  0
  8 10  1  0
 10 11  2  0
 11 12  1  0
 12 13  2  0
 13 14  1  0
 14 15  2  0
 15 16  1  0
 16 17  2  0
 17 18  1  0
 18 19  2  0
  2 20  1  0
 20 21  2  0
 21 22  1  0
 22 23  2  0
 23 24  1  0
 24 25  2  0
 19 10  1  0
 25 20  1  0
 18 13  1  0
  1 26  1  0
  1 27  1  0
  1 28  1  0
  2 29  1  6
  3 30  1  0
  6 31  1  0
  6 32  1  0
  7 33  1  0
 11 34  1  0
 12 35  1  0
 14 36  1  0
 15 37  1  0
 16 38  1  0
 17 39  1  0
 21 40  1  0
 22 41  1  0
 23 42  1  0
 24 43  1  0
 25 44  1  0
M  END
>  <smiles>  (17) 
C[C@H](NC(=O)CNC(=O)c1ccc2ccccc2n1)c1ccccc1

>  <score_type>  (17) 
oracle

>  <origin>  (17) 
autodockgpu

>  <m_score__min__energy>  (17) 
-8.6600000000000001

>  <m_primary>  (17) 
energy

>  <rmsd>  (17) 
4.727504295780226

>  <m_score__min__rmsd>  (17) 
4.727504295780226

>  <meeko>  (17) 
{"free_energy": -7.69, "intermolecular_energy": -9.18, "internal_energy": -2.04, "cluster_size": 5, "cluster_id": 4, "rank_in_cluster": 4}

>  <energy>  (17) 
-8.48

>  <cluster_rmsd>  (17) 
0.11

>  <cluster>  (17) 
2

$$$$

     RDKit          3D

 44 46  0  0  0  0  0  0  0  0999 V2000
  139.2580   69.9650  223.4820 C   0  0  0  0  0  0  0  0  0  0  0  0
  139.5830   71.2200  224.2660 C   0  0  2  0  0  0  0  0  0  0  0  0
  140.5190   72.0350  223.5190 N   0  0  0  0  0  0  0  0  0  0  0  0
  140.1340   72.6280  222.2940 C   0  0  0  0  0  0  0  0  0  0  0  0
  138.9580   72.4270  221.8800 O   0  0  0  0  0  0  0  0  0  0  0  0
  141.0060   73.4730  221.4520 C   0  0  0  0  0  0  0  0  0  0  0  0
  141.0810   74.8390  221.8490 N   0  0  0  0  0  0  0  0  0  0  0  0
  139.9290   75.6420  222.0460 C   0  0  0  0  0  0  0  0  0  0  0  0
  138.7510   75.2320  221.8960 O   0  0  0  0  0  0  0  0  0  0  0  0
  140.1370   77.0420  222.4500 C   0  0  0  0  0  0  0  0  0  0  0  0
  139.0740   77.8710  222.7080 C   0  0  0  0  0  0  0  0  0  0  0  0
  139.2020   79.1900  223.0900 C   0  0  0  0  0  0  0  0  0  0  0  0
  140.4970   79.6820  223.2110 C   0  0  0  0  0  0  0  0  0  0  0  0
  140.6310   81.0010  223.5920 C   0  0  0  0  0  0  0  0  0  0  0  0
  141.8980   81.5450  223.7300 C   0  0  0  0  0  0  0  0  0  0  0  0
  142.9700   80.7170  223.4720 C   0  0  0  0  0  0  0  0  0  0  0  0
  142.8340   79.3970  223.0900 C   0  0  0  0  0  0  0  0  0  0  0  0
  141.5590   78.8500  222.9520 C   0  0  0  0  0  0  0  0  0  0  0  0
  141.3730   77.5700  222.5830 N   0  0  0  0  0  0  0  0  0  0  0  0
  140.0390   70.9080  225.6390 C   0  0  0  0  0  0  0  0  0  0  0  0
  139.8560   69.6330  226.1800 C   0  0  0  0  0  0  0  0  0  0  0  0
  140.2720   69.3200  227.4580 C   0  0  0  0  0  0  0  0  0  0  0  0
  140.8890   70.2660  228.2520 C   0  0  0  0  0  0  0  0  0  0  0  0
  141.0800   71.5460  227.7260 C   0  0  0  0  0  0  0  0  0  0  0  0
  140.6600   71.8520  226.4450 C   0  0  0  0  0  0  0  0  0  0  0  0
  139.0448   69.1417  224.1797 H   0  0  0  0  0  0  0  0  0  0  0  0
  138.3771   70.1462  222.8485 H   0  0  0  0  0  0  0  0  0  0  0  0
  140.1161   69.6959  222.8485 H   0  0  0  0  0  0  0  0  0  0  0  0
  138.6648   71.8115  224.3969 H   0  0  0  0  0  0  0  0  0  0  0  0
  141.4520   72.1740  223.9100 H   0  0  0  0  0  0  0  0  0  0  0  0
  142.0219   73.0521  221.4818 H   0  0  0  0  0  0  0  0  0  0  0  0
  140.5623   73.4679  220.4455 H   0  0  0  0  0  0  0  0  0  0  0  0
  142.0400   75.2660  222.0040 H   0  0  0  0  0  0  0  0  0  0  0  0
  138.0595   77.4588  222.6039 H   0  0  0  0  0  0  0  0  0  0  0  0
  138.3235   79.8214  223.2890 H   0  0  0  0  0  0  0  0  0  0  0  0
  139.7395   81.6159  223.7847 H   0  0  0  0  0  0  0  0  0  0  0  0
  142.0424   82.5927  224.0325 H   0  0  0  0  0  0  0  0  0  0  0  0
  143.9847   81.1288  223.5757 H   0  0  0  0  0  0  0  0  0  0  0  0
  143.7249   78.7817  222.8960 H   0  0  0  0  0  0  0  0  0  0  0  0
  139.3674   68.8581  225.5711 H   0  0  0  0  0  0  0  0  0  0  0  0
  140.1101   68.3046  227.8488 H   0  0  0  0  0  0  0  0  0  0  0  0
  141.2212   70.0186  229.2710 H   0  0  0  0  0  0  0  0  0  0  0  0
  141.5696   72.3183  228.3374 H   0  0  0  0  0  0  0  0  0  0  0  0
  140.8218   72.8678  226.0552 H   0  0  0  0  0  0  0  0  0  0  0  0
  1  2  1  0
  2  3  1  0
  3  4  1  0
  4  5  2  0
  4  6  1  0
  6  7  1  0
  7  8  1  0
  8  9  2  0
  8 10  1  0
 10 11  2  0
 11 12  1  0
 12 13  2  0
 13 14  1  0
 14 15  2  0
 15 16  1  0
 16 17  2  0
 17 18  1  0
 18 19  2  0
  2 20  1  0
 20 21  2  0
 21 22  1  0
 22 23  2  0
 23 24  1  0
 24 25  2  0
 19 10  1  0
 25 20  1  0
 18 13  1  0
  1 26  1  0
  1 27  1  0
  1 28  1  0
  2 29  1  1
  3 30  1  0
  6 31  1  0
  6 32  1  0
  7 33  1  0
 11 34  1  0
 12 35  1  0
 14 36  1  0
 15 37  1  0
 16 38  1  0
 17 39  1  0
 21 40  1  0
 22 41  1  0
 23 42  1  0
 24 43  1  0
 25 44  1  0
M  END
>  <smiles>  (18) 
C[C@H](NC(=O)CNC(=O)c1ccc2ccccc2n1)c1ccccc1

>  <score_type>  (18) 
oracle

>  <origin>  (18) 
autodockgpu

>  <m_score__min__energy>  (18) 
-8.6600000000000001

>  <m_primary>  (18) 
energy

>  <rmsd>  (18) 
10.017964579629515

>  <m_score__min__rmsd>  (18) 
10.017964579629515

>  <meeko>  (18) 
{"free_energy": -8.48, "intermolecular_energy": -9.97, "internal_energy": -1.18, "cluster_size": 24, "cluster_id": 3, "rank_in_cluster": 1}

>  <energy>  (18) 
-8.43

>  <cluster_rmsd>  (18) 
0.15

>  <cluster>  (18) 
2

$$$$

     RDKit          3D

 44 46  0  0  0  0  0  0  0  0999 V2000
  137.4300   76.4180  222.7410 C   0  0  0  0  0  0  0  0  0  0  0  0
  138.7750   76.5240  222.0540 C   0  0  2  0  0  0  0  0  0  0  0  0
  139.4310   75.2310  222.0590 N   0  0  0  0  0  0  0  0  0  0  0  0
  140.3100   74.8690  221.0130 C   0  0  0  0  0  0  0  0  0  0  0  0
  140.5050   75.7030  220.0840 O   0  0  0  0  0  0  0  0  0  0  0  0
  141.0260   73.5800  220.9170 C   0  0  0  0  0  0  0  0  0  0  0  0
  140.9380   72.7580  222.0780 N   0  0  0  0  0  0  0  0  0  0  0  0
  139.6990   72.3440  222.6290 C   0  0  0  0  0  0  0  0  0  0  0  0
  138.5780   72.6530  222.1530 O   0  0  0  0  0  0  0  0  0  0  0  0
  139.7390   71.5010  223.8350 C   0  0  0  0  0  0  0  0  0  0  0  0
  139.1290   70.2720  223.8610 C   0  0  0  0  0  0  0  0  0  0  0  0
  139.1310   69.4360  224.9590 C   0  0  0  0  0  0  0  0  0  0  0  0
  139.7960   69.8930  226.0910 C   0  0  0  0  0  0  0  0  0  0  0  0
  139.8010   69.0610  227.1910 C   0  0  0  0  0  0  0  0  0  0  0  0
  140.4490   69.4640  228.3480 C   0  0  0  0  0  0  0  0  0  0  0  0
  141.0640   70.6990  228.3270 C   0  0  0  0  0  0  0  0  0  0  0  0
  141.0590   71.5300  227.2250 C   0  0  0  0  0  0  0  0  0  0  0  0
  140.4050   71.1240  226.0610 C   0  0  0  0  0  0  0  0  0  0  0  0
  140.3720   71.8970  224.9610 N   0  0  0  0  0  0  0  0  0  0  0  0
  139.6040   77.6070  222.6270 C   0  0  0  0  0  0  0  0  0  0  0  0
  140.9920   77.4780  222.7090 C   0  0  0  0  0  0  0  0  0  0  0  0
  141.7850   78.4750  223.2400 C   0  0  0  0  0  0  0  0  0  0  0  0
  141.2250   79.6440  223.7140 C   0  0  0  0  0  0  0  0  0  0  0  0
  139.8370   79.7900  223.6400 C   0  0  0  0  0  0  0  0  0  0  0  0
  139.0510   78.7870  223.1060 C   0  0  0  0  0  0  0  0  0  0  0  0
  137.5734   76.4293  223.8316 H   0  0  0  0  0  0  0  0  0  0  0  0
  136.7991   77.2692  222.4453 H   0  0  0  0  0  0  0  0  0  0  0  0
  136.9403   75.4785  222.4453 H   0  0  0  0  0  0  0  0  0  0  0  0
  138.6201   76.8098  221.0031 H   0  0  0  0  0  0  0  0  0  0  0  0
  139.2450   74.6030  222.8420 H   0  0  0  0  0  0  0  0  0  0  0  0
  140.6078   73.0189  220.0683 H   0  0  0  0  0  0  0  0  0  0  0  0
  142.0908   73.8265  220.7929 H   0  0  0  0  0  0  0  0  0  0  0  0
  141.8400   72.4450  222.5420 H   0  0  0  0  0  0  0  0  0  0  0  0
  138.6079   69.9334  222.9534 H   0  0  0  0  0  0  0  0  0  0  0  0
  138.6311   68.4564  224.9394 H   0  0  0  0  0  0  0  0  0  0  0  0
  139.2947   68.0853  227.1504 H   0  0  0  0  0  0  0  0  0  0  0  0
  140.4720   68.8268  229.2443 H   0  0  0  0  0  0  0  0  0  0  0  0
  141.5847   71.0385  229.2346 H   0  0  0  0  0  0  0  0  0  0  0  0
  141.5667   72.5050  227.2640 H   0  0  0  0  0  0  0  0  0  0  0  0
  141.4663   76.5565  222.3403 H   0  0  0  0  0  0  0  0  0  0  0  0
  142.8753   78.3364  223.2859 H   0  0  0  0  0  0  0  0  0  0  0  0
  141.8545   80.4398  224.1388 H   0  0  0  0  0  0  0  0  0  0  0  0
  139.3658   80.7123  224.0105 H   0  0  0  0  0  0  0  0  0  0  0  0
  137.9609   78.9267  223.0592 H   0  0  0  0  0  0  0  0  0  0  0  0
  1  2  1  0
  2  3  1  0
  3  4  1  0
  4  5  2  0
  4  6  1  0
  6  7  1  0
  7  8  1  0
  8  9  2  0
  8 10  1  0
 10 11  2  0
 11 12  1  0
 12 13  2  0
 13 14  1  0
 14 15  2  0
 15 16  1  0
 16 17  2  0
 17 18  1  0
 18 19  2  0
  2 20  1  0
 20 21  2  0
 21 22  1  0
 22 23  2  0
 23 24  1  0
 24 25  2  0
 19 10  1  0
 25 20  1  0
 18 13  1  0
  1 26  1  0
  1 27  1  0
  1 28  1  0
  2 29  1  6
  3 30  1  0
  6 31  1  0
  6 32  1  0
  7 33  1  0
 11 34  1  0
 12 35  1  0
 14 36  1  0
 15 37  1  0
 16 38  1  0
 17 39  1  0
 21 40  1  0
 22 41  1  0
 23 42  1  0
 24 43  1  0
 25 44  1  0
M  END
>  <smiles>  (19) 
C[C@H](NC(=O)CNC(=O)c1ccc2ccccc2n1)c1ccccc1

>  <score_type>  (19) 
oracle

>  <origin>  (19) 
autodockgpu

>  <m_score__min__energy>  (19) 
-8.6600000000000001

>  <m_primary>  (19) 
energy

>  <rmsd>  (19) 
4.673369063836791

>  <m_score__min__rmsd>  (19) 
4.673369063836791

>  <meeko>  (19) 
{"free_energy": -7.91, "intermolecular_energy": -9.4, "internal_energy": -1.71, "cluster_size": 13, "cluster_id": 1, "rank_in_cluster": 8}

>  <energy>  (19) 
-8.41

>  <cluster_rmsd>  (19) 
0.17

>  <cluster>  (19) 
2

$$$$

     RDKit          3D

 44 46  0  0  0  0  0  0  0  0999 V2000
  141.8180   78.1640  219.2910 C   0  0  0  0  0  0  0  0  0  0  0  0
  141.7680   77.5240  220.6630 C   0  0  2  0  0  0  0  0  0  0  0  0
  140.6280   76.6330  220.7460 N   0  0  0  0  0  0  0  0  0  0  0  0
  140.8060   75.2710  221.0800 C   0  0  0  0  0  0  0  0  0  0  0  0
  141.9810   74.8610  221.3030 O   0  0  0  0  0  0  0  0  0  0  0  0
  139.7180   74.2770  221.1890 C   0  0  0  0  0  0  0  0  0  0  0  0
  139.7680   73.4600  222.3550 N   0  0  0  0  0  0  0  0  0  0  0  0
  140.0630   72.0740  222.3050 C   0  0  0  0  0  0  0  0  0  0  0  0
  140.3090   71.4440  221.2460 O   0  0  0  0  0  0  0  0  0  0  0  0
  140.0790   71.3350  223.5780 C   0  0  0  0  0  0  0  0  0  0  0  0
  139.5870   70.0570  223.6620 C   0  0  0  0  0  0  0  0  0  0  0  0
  139.5740   69.3130  224.8240 C   0  0  0  0  0  0  0  0  0  0  0  0
  140.0950   69.9210  225.9610 C   0  0  0  0  0  0  0  0  0  0  0  0
  140.0830   69.1820  227.1250 C   0  0  0  0  0  0  0  0  0  0  0  0
  140.5900   69.7360  228.2900 C   0  0  0  0  0  0  0  0  0  0  0  0
  141.0860   71.0220  228.2110 C   0  0  0  0  0  0  0  0  0  0  0  0
  141.0960   71.7600  227.0450 C   0  0  0  0  0  0  0  0  0  0  0  0
  140.5860   71.2010  225.8730 C   0  0  0  0  0  0  0  0  0  0  0  0
  140.5740   71.8790  224.7120 N   0  0  0  0  0  0  0  0  0  0  0  0
  141.8070   78.5340  221.7430 C   0  0  0  0  0  0  0  0  0  0  0  0
  141.4610   78.1930  223.0530 C   0  0  0  0  0  0  0  0  0  0  0  0
  141.4900   79.1170  224.0770 C   0  0  0  0  0  0  0  0  0  0  0  0
  141.8650   80.4240  223.8380 C   0  0  0  0  0  0  0  0  0  0  0  0
  142.2140   80.7830  222.5330 C   0  0  0  0  0  0  0  0  0  0  0  0
  142.1830   79.8500  221.5130 C   0  0  0  0  0  0  0  0  0  0  0  0
  141.9032   79.2554  219.3984 H   0  0  0  0  0  0  0  0  0  0  0  0
  142.6889   77.7807  218.7391 H   0  0  0  0  0  0  0  0  0  0  0  0
  140.8981   77.9206  218.7391 H   0  0  0  0  0  0  0  0  0  0  0  0
  142.6718   76.9144  220.8101 H   0  0  0  0  0  0  0  0  0  0  0  0
  139.7020   77.0230  220.5680 H   0  0  0  0  0  0  0  0  0  0  0  0
  138.7600   74.8175  221.1911 H   0  0  0  0  0  0  0  0  0  0  0  0
  139.8324   73.5983  220.3310 H   0  0  0  0  0  0  0  0  0  0  0  0
  139.5780   73.9130  223.2950 H   0  0  0  0  0  0  0  0  0  0  0  0
  139.1789   69.5985  222.7492 H   0  0  0  0  0  0  0  0  0  0  0  0
  139.1715   68.2896  224.8497 H   0  0  0  0  0  0  0  0  0  0  0  0
  139.6742   68.1608  227.1290 H   0  0  0  0  0  0  0  0  0  0  0  0
  140.5969   69.1754  229.2364 H   0  0  0  0  0  0  0  0  0  0  0  0
  141.4938   71.4815  229.1235 H   0  0  0  0  0  0  0  0  0  0  0  0
  141.5032   72.7818  227.0397 H   0  0  0  0  0  0  0  0  0  0  0  0
  141.1570   77.1592  223.2740 H   0  0  0  0  0  0  0  0  0  0  0  0
  141.2112   78.8089  225.0955 H   0  0  0  0  0  0  0  0  0  0  0  0
  141.8885   81.1629  224.6526 H   0  0  0  0  0  0  0  0  0  0  0  0
  142.5163   81.8180  222.3153 H   0  0  0  0  0  0  0  0  0  0  0  0
  142.4630   80.1582  220.4949 H   0  0  0  0  0  0  0  0  0  0  0  0
  1  2  1  0
  2  3  1  0
  3  4  1  0
  4  5  2  0
  4  6  1  0
  6  7  1  0
  7  8  1  0
  8  9  2  0
  8 10  1  0
 10 11  2  0
 11 12  1  0
 12 13  2  0
 13 14  1  0
 14 15  2  0
 15 16  1  0
 16 17  2  0
 17 18  1  0
 18 19  2  0
  2 20  1  0
 20 21  2  0
 21 22  1  0
 22 23  2  0
 23 24  1  0
 24 25  2  0
 19 10  1  0
 25 20  1  0
 18 13  1  0
  1 26  1  0
  1 27  1  0
  1 28  1  0
  2 29  1  1
  3 30  1  0
  6 31  1  0
  6 32  1  0
  7 33  1  0
 11 34  1  0
 12 35  1  0
 14 36  1  0
 15 37  1  0
 16 38  1  0
 17 39  1  0
 21 40  1  0
 22 41  1  0
 23 42  1  0
 24 43  1  0
 25 44  1  0
M  END
>  <smiles>  (20) 
C[C@H](NC(=O)CNC(=O)c1ccc2ccccc2n1)c1ccccc1

>  <score_type>  (20) 
oracle

>  <origin>  (20) 
autodockgpu

>  <m_score__min__energy>  (20) 
-8.6600000000000001

>  <m_primary>  (20) 
energy

>  <rmsd>  (20) 
4.05380293479996

>  <m_score__min__rmsd>  (20) 
4.05380293479996

>  <meeko>  (20) 
{"free_energy": -8.55, "intermolecular_energy": -10.04, "internal_energy": -1.07, "cluster_size": 13, "cluster_id": 1, "rank_in_cluster": 3}

>  <energy>  (20) 
-8.38

>  <cluster_rmsd>  (20) 
0.17

>  <cluster>  (20) 
2

$$$$

     RDKit          3D

 44 46  0  0  0  0  0  0  0  0999 V2000
  138.3490   70.4890  222.5690 C   0  0  0  0  0  0  0  0  0  0  0  0
  138.8160   71.5950  223.4930 C   0  0  2  0  0  0  0  0  0  0  0  0
  139.4440   72.6470  222.7190 N   0  0  0  0  0  0  0  0  0  0  0  0
  140.5980   72.3780  221.9470 C   0  0  0  0  0  0  0  0  0  0  0  0
  141.0560   71.2010  221.9520 O   0  0  0  0  0  0  0  0  0  0  0  0
  141.3180   73.3740  221.1260 C   0  0  0  0  0  0  0  0  0  0  0  0
  141.2640   74.7090  221.6200 N   0  0  0  0  0  0  0  0  0  0  0  0
  140.0520   75.4370  221.7220 C   0  0  0  0  0  0  0  0  0  0  0  0
  138.9260   74.9820  221.3970 O   0  0  0  0  0  0  0  0  0  0  0  0
  140.1260   76.8130  222.2420 C   0  0  0  0  0  0  0  0  0  0  0  0
  138.9930   77.4950  222.6070 C   0  0  0  0  0  0  0  0  0  0  0  0
  138.9960   78.7840  223.1010 C   0  0  0  0  0  0  0  0  0  0  0  0
  140.2360   79.4020  223.2230 C   0  0  0  0  0  0  0  0  0  0  0  0
  140.2450   80.6900  223.7150 C   0  0  0  0  0  0  0  0  0  0  0  0
  141.4510   81.3570  223.8590 C   0  0  0  0  0  0  0  0  0  0  0  0
  142.5940   80.6760  223.4930 C   0  0  0  0  0  0  0  0  0  0  0  0
  142.5830   79.3860  223.0000 C   0  0  0  0  0  0  0  0  0  0  0  0
  141.3680   78.7160  222.8560 C   0  0  0  0  0  0  0  0  0  0  0  0
  141.3040   77.4600  222.3810 N   0  0  0  0  0  0  0  0  0  0  0  0
  139.6700   71.0770  224.5840 C   0  0  0  0  0  0  0  0  0  0  0  0
  139.5080   69.7740  225.0600 C   0  0  0  0  0  0  0  0  0  0  0  0
  140.2920   69.2690  226.0780 C   0  0  0  0  0  0  0  0  0  0  0  0
  141.2720   70.0440  226.6650 C   0  0  0  0  0  0  0  0  0  0  0  0
  141.4480   71.3500  226.2000 C   0  0  0  0  0  0  0  0  0  0  0  0
  140.6580   71.8480  225.1810 C   0  0  0  0  0  0  0  0  0  0  0  0
  137.9899   69.6386  223.1672 H   0  0  0  0  0  0  0  0  0  0  0  0
  137.5316   70.8620  221.9344 H   0  0  0  0  0  0  0  0  0  0  0  0
  139.1864   70.1633  221.9344 H   0  0  0  0  0  0  0  0  0  0  0  0
  137.9434   72.0352  223.9979 H   0  0  0  0  0  0  0  0  0  0  0  0
  139.0220   73.5760  222.7430 H   0  0  0  0  0  0  0  0  0  0  0  0
  142.3744   73.0723  221.0710 H   0  0  0  0  0  0  0  0  0  0  0  0
  140.8177   73.3866  220.1465 H   0  0  0  0  0  0  0  0  0  0  0  0
  142.1700   75.1700  221.9230 H   0  0  0  0  0  0  0  0  0  0  0  0
  138.0246   76.9844  222.4996 H   0  0  0  0  0  0  0  0  0  0  0  0
  138.0647   79.2965  223.3839 H   0  0  0  0  0  0  0  0  0  0  0  0
  139.3019   81.1843  223.9911 H   0  0  0  0  0  0  0  0  0  0  0  0
  141.4953   82.3849  224.2482 H   0  0  0  0  0  0  0  0  0  0  0  0
  143.5626   81.1863  223.5993 H   0  0  0  0  0  0  0  0  0  0  0  0
  143.5252   78.8906  222.7230 H   0  0  0  0  0  0  0  0  0  0  0  0
  138.7348   69.1328  224.6117 H   0  0  0  0  0  0  0  0  0  0  0  0
  140.1340   68.2373  226.4253 H   0  0  0  0  0  0  0  0  0  0  0  0
  141.8975   69.6443  227.4768 H   0  0  0  0  0  0  0  0  0  0  0  0
  142.2231   71.9881  226.6495 H   0  0  0  0  0  0  0  0  0  0  0  0
  140.8160   72.8801  224.8348 H   0  0  0  0  0  0  0  0  0  0  0  0
  1  2  1  0
  2  3  1  0
  3  4  1  0
  4  5  2  0
  4  6  1  0
  6  7  1  0
  7  8  1  0
  8  9  2  0
  8 10  1  0
 10 11  2  0
 11 12  1  0
 12 13  2  0
 13 14  1  0
 14 15  2  0
 15 16  1  0
 16 17  2  0
 17 18  1  0
 18 19  2  0
  2 20  1  0
 20 21  2  0
 21 22  1  0
 22 23  2  0
 23 24  1  0
 24 25  2  0
 19 10  1  0
 25 20  1  0
 18 13  1  0
  1 26  1  0
  1 27  1  0
  1 28  1  0
  2 29  1  1
  3 30  1  0
  6 31  1  0
  6 32  1  0
  7 33  1  0
 11 34  1  0
 12 35  1  0
 14 36  1  0
 15 37  1  0
 16 38  1  0
 17 39  1  0
 21 40  1  0
 22 41  1  0
 23 42  1  0
 24 43  1  0
 25 44  1  0
M  END
>  <smiles>  (21) 
C[C@H](NC(=O)CNC(=O)c1ccc2ccccc2n1)c1ccccc1

>  <score_type>  (21) 
oracle

>  <origin>  (21) 
autodockgpu

>  <m_score__min__energy>  (21) 
-8.6600000000000001

>  <m_primary>  (21) 
energy

>  <rmsd>  (21) 
9.741211929582741

>  <m_score__min__rmsd>  (21) 
9.741211929582741

>  <meeko>  (21) 
{"free_energy": -7.95, "intermolecular_energy": -9.45, "internal_energy": -1.95, "cluster_size": 24, "cluster_id": 3, "rank_in_cluster": 20}

>  <energy>  (21) 
-7.47

>  <cluster_rmsd>  (21) 
1.29

>  <cluster>  (21) 
2

$$$$

     RDKit          3D

 44 46  0  0  0  0  0  0  0  0999 V2000
  138.4000   70.6320  222.4370 C   0  0  0  0  0  0  0  0  0  0  0  0
  138.9670   71.5880  223.4660 C   0  0  2  0  0  0  0  0  0  0  0  0
  139.7110   72.6390  222.8000 N   0  0  0  0  0  0  0  0  0  0  0  0
  140.7080   72.3200  221.8500 C   0  0  0  0  0  0  0  0  0  0  0  0
  140.9240   71.1000  221.6010 O   0  0  0  0  0  0  0  0  0  0  0  0
  141.5260   73.3080  221.1170 C   0  0  0  0  0  0  0  0  0  0  0  0
  141.4350   74.6430  221.6070 N   0  0  0  0  0  0  0  0  0  0  0  0
  140.2060   75.3470  221.6810 C   0  0  0  0  0  0  0  0  0  0  0  0
  139.0980   74.8690  221.3310 O   0  0  0  0  0  0  0  0  0  0  0  0
  140.2420   76.7240  222.2000 C   0  0  0  0  0  0  0  0  0  0  0  0
  139.0880   77.3810  222.5470 C   0  0  0  0  0  0  0  0  0  0  0  0
  139.0550   78.6700  223.0390 C   0  0  0  0  0  0  0  0  0  0  0  0
  140.2780   79.3160  223.1790 C   0  0  0  0  0  0  0  0  0  0  0  0
  140.2510   80.6050  223.6690 C   0  0  0  0  0  0  0  0  0  0  0  0
  141.4400   81.2980  223.8310 C   0  0  0  0  0  0  0  0  0  0  0  0
  142.6030   80.6430  223.4840 C   0  0  0  0  0  0  0  0  0  0  0  0
  142.6290   79.3530  222.9930 C   0  0  0  0  0  0  0  0  0  0  0  0
  141.4310   78.6560  222.8300 C   0  0  0  0  0  0  0  0  0  0  0  0
  141.4030   77.3970  222.3560 N   0  0  0  0  0  0  0  0  0  0  0  0
  139.7480   70.8810  224.5040 C   0  0  0  0  0  0  0  0  0  0  0  0
  140.7090   71.5560  225.2590 C   0  0  0  0  0  0  0  0  0  0  0  0
  141.4500   70.9170  226.2320 C   0  0  0  0  0  0  0  0  0  0  0  0
  141.2620   69.5750  226.4950 C   0  0  0  0  0  0  0  0  0  0  0  0
  140.3030   68.8840  225.7490 C   0  0  0  0  0  0  0  0  0  0  0  0
  139.5660   69.5320  224.7750 C   0  0  0  0  0  0  0  0  0  0  0  0
  137.9033   69.7946  222.9489 H   0  0  0  0  0  0  0  0  0  0  0  0
  137.6699   71.1617  221.8074 H   0  0  0  0  0  0  0  0  0  0  0  0
  139.2149   70.2454  221.8074 H   0  0  0  0  0  0  0  0  0  0  0  0
  138.1381   72.0655  224.0090 H   0  0  0  0  0  0  0  0  0  0  0  0
  139.4840   73.6070  223.0320 H   0  0  0  0  0  0  0  0  0  0  0  0
  142.5781   72.9927  221.1772 H   0  0  0  0  0  0  0  0  0  0  0  0
  141.1364   73.3293  220.0885 H   0  0  0  0  0  0  0  0  0  0  0  0
  142.3240   75.1220  221.9300 H   0  0  0  0  0  0  0  0  0  0  0  0
  138.1330   76.8487  222.4258 H   0  0  0  0  0  0  0  0  0  0  0  0
  138.1082   79.1617  223.3070 H   0  0  0  0  0  0  0  0  0  0  0  0
  139.2932   81.0792  223.9292 H   0  0  0  0  0  0  0  0  0  0  0  0
  141.4556   82.3269  224.2198 H   0  0  0  0  0  0  0  0  0  0  0  0
  143.5581   81.1753  223.6045 H   0  0  0  0  0  0  0  0  0  0  0  0
  143.5864   78.8783  222.7323 H   0  0  0  0  0  0  0  0  0  0  0  0
  140.8802   72.6266  225.0731 H   0  0  0  0  0  0  0  0  0  0  0  0
  142.1991   71.4835  226.8046 H   0  0  0  0  0  0  0  0  0  0  0  0
  141.8508   69.0633  227.2705 H   0  0  0  0  0  0  0  0  0  0  0  0
  140.1329   67.8139  225.9387 H   0  0  0  0  0  0  0  0  0  0  0  0
  138.8179   68.9651  224.2014 H   0  0  0  0  0  0  0  0  0  0  0  0
  1  2  1  0
  2  3  1  0
  3  4  1  0
  4  5  2  0
  4  6  1  0
  6  7  1  0
  7  8  1  0
  8  9  2  0
  8 10  1  0
 10 11  2  0
 11 12  1  0
 12 13  2  0
 13 14  1  0
 14 15  2  0
 15 16  1  0
 16 17  2  0
 17 18  1  0
 18 19  2  0
  2 20  1  0
 20 21  2  0
 21 22  1  0
 22 23  2  0
 23 24  1  0
 24 25  2  0
 19 10  1  0
 25 20  1  0
 18 13  1  0
  1 26  1  0
  1 27  1  0
  1 28  1  0
  2 29  1  1
  3 30  1  0
  6 31  1  0
  6 32  1  0
  7 33  1  0
 11 34  1  0
 12 35  1  0
 14 36  1  0
 15 37  1  0
 16 38  1  0
 17 39  1  0
 21 40  1  0
 22 41  1  0
 23 42  1  0
 24 43  1  0
 25 44  1  0
M  END
>  <smiles>  (22) 
C[C@H](NC(=O)CNC(=O)c1ccc2ccccc2n1)c1ccccc1

>  <score_type>  (22) 
oracle

>  <origin>  (22) 
autodockgpu

>  <m_score__min__energy>  (22) 
-8.6600000000000001

>  <m_primary>  (22) 
energy

>  <rmsd>  (22) 
9.910511029748665

>  <m_score__min__rmsd>  (22) 
9.910511029748665

>  <meeko>  (22) 
{"free_energy": -7.95, "intermolecular_energy": -9.44, "internal_energy": -1.84, "cluster_size": 24, "cluster_id": 3, "rank_in_cluster": 21}

>  <energy>  (22) 
-8.48

>  <cluster_rmsd>  (22) 
0.0

>  <cluster>  (22) 
3

$$$$

     RDKit          3D

 44 46  0  0  0  0  0  0  0  0999 V2000
  137.3960   76.4820  222.7490 C   0  0  0  0  0  0  0  0  0  0  0  0
  138.7450   76.5510  222.0630 C   0  0  2  0  0  0  0  0  0  0  0  0
  139.3550   75.2370  222.0490 N   0  0  0  0  0  0  0  0  0  0  0  0
  140.3270   74.9080  221.0770 C   0  0  0  0  0  0  0  0  0  0  0  0
  140.6460   75.7910  220.2310 O   0  0  0  0  0  0  0  0  0  0  0  0
  141.0090   73.6010  220.9700 C   0  0  0  0  0  0  0  0  0  0  0  0
  140.9100   72.7770  222.1270 N   0  0  0  0  0  0  0  0  0  0  0  0
  139.6700   72.3030  222.6240 C   0  0  0  0  0  0  0  0  0  0  0  0
  138.5570   72.5550  222.0980 O   0  0  0  0  0  0  0  0  0  0  0  0
  139.6970   71.4630  223.8330 C   0  0  0  0  0  0  0  0  0  0  0  0
  139.0490   70.2540  223.8720 C   0  0  0  0  0  0  0  0  0  0  0  0
  139.0370   69.4230  224.9730 C   0  0  0  0  0  0  0  0  0  0  0  0
  139.7310   69.8630  226.0950 C   0  0  0  0  0  0  0  0  0  0  0  0
  139.7220   69.0360  227.1990 C   0  0  0  0  0  0  0  0  0  0  0  0
  140.3980   69.4220  228.3450 C   0  0  0  0  0  0  0  0  0  0  0  0
  141.0520   70.6360  228.3120 C   0  0  0  0  0  0  0  0  0  0  0  0
  141.0590   71.4630  227.2060 C   0  0  0  0  0  0  0  0  0  0  0  0
  140.3790   71.0730  226.0530 C   0  0  0  0  0  0  0  0  0  0  0  0
  140.3570   71.8420  224.9500 N   0  0  0  0  0  0  0  0  0  0  0  0
  139.6100   77.5960  222.6530 C   0  0  0  0  0  0  0  0  0  0  0  0
  139.0650   78.7930  223.1230 C   0  0  0  0  0  0  0  0  0  0  0  0
  139.8520   79.7820  223.6770 C   0  0  0  0  0  0  0  0  0  0  0  0
  141.2180   79.6190  223.7860 C   0  0  0  0  0  0  0  0  0  0  0  0
  141.7810   78.4270  223.3210 C   0  0  0  0  0  0  0  0  0  0  0  0
  140.9850   77.4420  222.7670 C   0  0  0  0  0  0  0  0  0  0  0  0
  137.5385   76.4893  223.8397 H   0  0  0  0  0  0  0  0  0  0  0  0
  136.7891   77.3503  222.4527 H   0  0  0  0  0  0  0  0  0  0  0  0
  136.8809   75.5563  222.4527 H   0  0  0  0  0  0  0  0  0  0  0  0
  138.6016   76.8570  221.0162 H   0  0  0  0  0  0  0  0  0  0  0  0
  139.0680   74.5680  222.7660 H   0  0  0  0  0  0  0  0  0  0  0  0
  140.5694   73.0545  220.1226 H   0  0  0  0  0  0  0  0  0  0  0  0
  142.0787   73.8209  220.8383 H   0  0  0  0  0  0  0  0  0  0  0  0
  141.8040   72.5090  222.6320 H   0  0  0  0  0  0  0  0  0  0  0  0
  138.5070   69.9282  222.9719 H   0  0  0  0  0  0  0  0  0  0  0  0
  138.5050   68.4602  224.9640 H   0  0  0  0  0  0  0  0  0  0  0  0
  139.1825   68.0779  227.1697 H   0  0  0  0  0  0  0  0  0  0  0  0
  140.4126   68.7872  229.2432 H   0  0  0  0  0  0  0  0  0  0  0  0
  141.5951   70.9617  229.2115 H   0  0  0  0  0  0  0  0  0  0  0  0
  141.5970   72.4221  227.2345 H   0  0  0  0  0  0  0  0  0  0  0  0
  137.9790   78.9517  223.0496 H   0  0  0  0  0  0  0  0  0  0  0  0
  139.3851   80.7111  224.0359 H   0  0  0  0  0  0  0  0  0  0  0  0
  141.8471   80.4062  224.2271 H   0  0  0  0  0  0  0  0  0  0  0  0
  142.8673   78.2714  223.3966 H   0  0  0  0  0  0  0  0  0  0  0  0
  141.4525   76.5134  222.4077 H   0  0  0  0  0  0  0  0  0  0  0  0
  1  2  1  0
  2  3  1  0
  3  4  1  0
  4  5  2  0
  4  6  1  0
  6  7  1  0
  7  8  1  0
  8  9  2  0
  8 10  1  0
 10 11  2  0
 11 12  1  0
 12 13  2  0
 13 14  1  0
 14 15  2  0
 15 16  1  0
 16 17  2  0
 17 18  1  0
 18 19  2  0
  2 20  1  0
 20 21  2  0
 21 22  1  0
 22 23  2  0
 23 24  1  0
 24 25  2  0
 19 10  1  0
 25 20  1  0
 18 13  1  0
  1 26  1  0
  1 27  1  0
  1 28  1  0
  2 29  1  6
  3 30  1  0
  6 31  1  0
  6 32  1  0
  7 33  1  0
 11 34  1  0
 12 35  1  0
 14 36  1  0
 15 37  1  0
 16 38  1  0
 17 39  1  0
 21 40  1  0
 22 41  1  0
 23 42  1  0
 24 43  1  0
 25 44  1  0
M  END
>  <smiles>  (23) 
C[C@H](NC(=O)CNC(=O)c1ccc2ccccc2n1)c1ccccc1

>  <score_type>  (23) 
oracle

>  <origin>  (23) 
autodockgpu

>  <m_score__min__energy>  (23) 
-8.6600000000000001

>  <m_primary>  (23) 
energy

>  <rmsd>  (23) 
4.563730645158581

>  <m_score__min__rmsd>  (23) 
4.563730645158581

>  <meeko>  (23) 
{"free_energy": -7.92, "intermolecular_energy": -9.41, "internal_energy": -1.73, "cluster_size": 13, "cluster_id": 1, "rank_in_cluster": 7}

>  <energy>  (23) 
-8.45

>  <cluster_rmsd>  (23) 
0.22

>  <cluster>  (23) 
3

$$$$

     RDKit          3D

 44 46  0  0  0  0  0  0  0  0999 V2000
  136.5370   76.0290  223.1180 C   0  0  0  0  0  0  0  0  0  0  0  0
  137.7060   75.9550  222.1570 C   0  0  2  0  0  0  0  0  0  0  0  0
  138.1930   74.5920  222.0830 N   0  0  0  0  0  0  0  0  0  0  0  0
  137.7180   73.7140  221.0820 C   0  0  0  0  0  0  0  0  0  0  0  0
  136.8650   74.1540  220.2600 O   0  0  0  0  0  0  0  0  0  0  0  0
  138.1430   72.3090  220.9170 C   0  0  0  0  0  0  0  0  0  0  0  0
  138.5350   71.6570  222.1220 N   0  0  0  0  0  0  0  0  0  0  0  0
  139.6540   72.0730  222.8860 C   0  0  0  0  0  0  0  0  0  0  0  0
  140.3940   73.0430  222.5830 O   0  0  0  0  0  0  0  0  0  0  0  0
  139.9630   71.3140  224.1100 C   0  0  0  0  0  0  0  0  0  0  0  0
  140.7670   71.8430  225.0880 C   0  0  0  0  0  0  0  0  0  0  0  0
  141.0920   71.1830  226.2560 C   0  0  0  0  0  0  0  0  0  0  0  0
  140.5600   69.9090  226.4230 C   0  0  0  0  0  0  0  0  0  0  0  0
  140.8830   69.2450  227.5880 C   0  0  0  0  0  0  0  0  0  0  0  0
  140.3810   67.9730  227.8080 C   0  0  0  0  0  0  0  0  0  0  0  0
  139.5710   67.4360  226.8280 C   0  0  0  0  0  0  0  0  0  0  0  0
  139.2500   68.1020  225.6630 C   0  0  0  0  0  0  0  0  0  0  0  0
  139.7560   69.3830  225.4410 C   0  0  0  0  0  0  0  0  0  0  0  0
  139.4720   70.0730  224.3220 N   0  0  0  0  0  0  0  0  0  0  0  0
  138.7580   76.9400  222.4910 C   0  0  0  0  0  0  0  0  0  0  0  0
  138.4220   78.2120  222.9620 C   0  0  0  0  0  0  0  0  0  0  0  0
  139.3860   79.1470  223.2790 C   0  0  0  0  0  0  0  0  0  0  0  0
  140.7280   78.8530  223.1410 C   0  0  0  0  0  0  0  0  0  0  0  0
  141.0810   77.5850  222.6720 C   0  0  0  0  0  0  0  0  0  0  0  0
  140.1090   76.6540  222.3550 C   0  0  0  0  0  0  0  0  0  0  0  0
  136.9106   76.0054  224.1523 H   0  0  0  0  0  0  0  0  0  0  0  0
  135.9826   76.9640  222.9497 H   0  0  0  0  0  0  0  0  0  0  0  0
  135.8691   75.1713  222.9497 H   0  0  0  0  0  0  0  0  0  0  0  0
  137.3631   76.2360  221.1503 H   0  0  0  0  0  0  0  0  0  0  0  0
  138.8920   74.2960  222.7660 H   0  0  0  0  0  0  0  0  0  0  0  0
  137.3040   71.7468  220.4812 H   0  0  0  0  0  0  0  0  0  0  0  0
  139.0340   72.3291  220.2722 H   0  0  0  0  0  0  0  0  0  0  0  0
  137.9620   70.8290  222.4560 H   0  0  0  0  0  0  0  0  0  0  0  0
  141.1765   72.8520  224.9322 H   0  0  0  0  0  0  0  0  0  0  0  0
  141.7399   71.6422  227.0172 H   0  0  0  0  0  0  0  0  0  0  0  0
  141.5337   69.7216  228.3360 H   0  0  0  0  0  0  0  0  0  0  0  0
  140.6180   67.4142  228.7254 H   0  0  0  0  0  0  0  0  0  0  0  0
  139.1610   66.4271  226.9834 H   0  0  0  0  0  0  0  0  0  0  0  0
  138.5995   67.6261  224.9144 H   0  0  0  0  0  0  0  0  0  0  0  0
  137.3608   78.4749  223.0833 H   0  0  0  0  0  0  0  0  0  0  0  0
  139.0817   80.1383  223.6460 H   0  0  0  0  0  0  0  0  0  0  0  0
  141.4982   79.5967  223.3934 H   0  0  0  0  0  0  0  0  0  0  0  0
  142.1432   77.3247  222.5537 H   0  0  0  0  0  0  0  0  0  0  0  0
  140.4139   75.6635  221.9864 H   0  0  0  0  0  0  0  0  0  0  0  0
  1  2  1  0
  2  3  1  0
  3  4  1  0
  4  5  2  0
  4  6  1  0
  6  7  1  0
  7  8  1  0
  8  9  2  0
  8 10  1  0
 10 11  2  0
 11 12  1  0
 12 13  2  0
 13 14  1  0
 14 15  2  0
 15 16  1  0
 16 17  2  0
 17 18  1  0
 18 19  2  0
  2 20  1  0
 20 21  2  0
 21 22  1  0
 22 23  2  0
 23 24  1  0
 24 25  2  0
 19 10  1  0
 25 20  1  0
 18 13  1  0
  1 26  1  0
  1 27  1  0
  1 28  1  0
  2 29  1  6
  3 30  1  0
  6 31  1  0
  6 32  1  0
  7 33  1  0
 11 34  1  0
 12 35  1  0
 14 36  1  0
 15 37  1  0
 16 38  1  0
 17 39  1  0
 21 40  1  0
 22 41  1  0
 23 42  1  0
 24 43  1  0
 25 44  1  0
M  END
>  <smiles>  (24) 
C[C@H](NC(=O)CNC(=O)c1ccc2ccccc2n1)c1ccccc1

>  <score_type>  (24) 
oracle

>  <origin>  (24) 
autodockgpu

>  <m_score__min__energy>  (24) 
-8.6600000000000001

>  <m_primary>  (24) 
energy

>  <rmsd>  (24) 
4.7523763844560545

>  <m_score__min__rmsd>  (24) 
4.7523763844560545

>  <meeko>  (24) 
{"free_energy": -7.72, "intermolecular_energy": -9.21, "internal_energy": -1.99, "cluster_size": 5, "cluster_id": 4, "rank_in_cluster": 2}

>  <energy>  (24) 
-8.06

>  <cluster_rmsd>  (24) 
1.05

>  <cluster>  (24) 
3

$$$$

     RDKit          3D

 44 46  0  0  0  0  0  0  0  0999 V2000
  138.3890   70.4640  222.5640 C   0  0  0  0  0  0  0  0  0  0  0  0
  138.8240   71.5770  223.4940 C   0  0  2  0  0  0  0  0  0  0  0  0
  139.4650   72.6300  222.7310 N   0  0  0  0  0  0  0  0  0  0  0  0
  140.6150   72.3560  221.9560 C   0  0  0  0  0  0  0  0  0  0  0  0
  141.0590   71.1730  221.9480 O   0  0  0  0  0  0  0  0  0  0  0  0
  141.3470   73.3510  221.1460 C   0  0  0  0  0  0  0  0  0  0  0  0
  141.2950   74.6840  221.6450 N   0  0  0  0  0  0  0  0  0  0  0  0
  140.0890   75.4240  221.7230 C   0  0  0  0  0  0  0  0  0  0  0  0
  138.9670   74.9830  221.3690 O   0  0  0  0  0  0  0  0  0  0  0  0
  140.1650   76.7970  222.2510 C   0  0  0  0  0  0  0  0  0  0  0  0
  139.0330   77.4760  222.6260 C   0  0  0  0  0  0  0  0  0  0  0  0
  139.0390   78.7620  223.1280 C   0  0  0  0  0  0  0  0  0  0  0  0
  140.2780   79.3800  223.2490 C   0  0  0  0  0  0  0  0  0  0  0  0
  140.2900   80.6650  223.7490 C   0  0  0  0  0  0  0  0  0  0  0  0
  141.4960   81.3300  223.8930 C   0  0  0  0  0  0  0  0  0  0  0  0
  142.6380   80.6510  223.5180 C   0  0  0  0  0  0  0  0  0  0  0  0
  142.6250   79.3650  223.0170 C   0  0  0  0  0  0  0  0  0  0  0  0
  141.4090   78.6960  222.8730 C   0  0  0  0  0  0  0  0  0  0  0  0
  141.3440   77.4430  222.3900 N   0  0  0  0  0  0  0  0  0  0  0  0
  139.6520   71.0710  224.6100 C   0  0  0  0  0  0  0  0  0  0  0  0
  140.6540   71.8650  225.1740 C   0  0  0  0  0  0  0  0  0  0  0  0
  141.4380   71.4140  226.2160 C   0  0  0  0  0  0  0  0  0  0  0  0
  141.2580   70.1490  226.7400 C   0  0  0  0  0  0  0  0  0  0  0  0
  140.2600   69.3420  226.1880 C   0  0  0  0  0  0  0  0  0  0  0  0
  139.4780   69.8020  225.1440 C   0  0  0  0  0  0  0  0  0  0  0  0
  138.0518   69.6012  223.1572 H   0  0  0  0  0  0  0  0  0  0  0  0
  137.5631   70.8181  221.9296 H   0  0  0  0  0  0  0  0  0  0  0  0
  139.2361   70.1642  221.9296 H   0  0  0  0  0  0  0  0  0  0  0  0
  137.9354   72.0132  223.9737 H   0  0  0  0  0  0  0  0  0  0  0  0
  139.0540   73.5640  222.7650 H   0  0  0  0  0  0  0  0  0  0  0  0
  142.4023   73.0443  221.0993 H   0  0  0  0  0  0  0  0  0  0  0  0
  140.8559   73.3700  220.1619 H   0  0  0  0  0  0  0  0  0  0  0  0
  142.1990   75.1350  221.9720 H   0  0  0  0  0  0  0  0  0  0  0  0
  138.0642   76.9658  222.5204 H   0  0  0  0  0  0  0  0  0  0  0  0
  138.1088   79.2725  223.4180 H   0  0  0  0  0  0  0  0  0  0  0  0
  139.3482   81.1583  224.0314 H   0  0  0  0  0  0  0  0  0  0  0  0
  141.5421   82.3552  224.2892 H   0  0  0  0  0  0  0  0  0  0  0  0
  143.6071   81.1605  223.6238 H   0  0  0  0  0  0  0  0  0  0  0  0
  143.5661   78.8712  222.7334 H   0  0  0  0  0  0  0  0  0  0  0  0
  140.8223   72.8768  224.7766 H   0  0  0  0  0  0  0  0  0  0  0  0
  142.2157   72.0699  226.6343 H   0  0  0  0  0  0  0  0  0  0  0  0
  141.8833   69.7867  227.5693 H   0  0  0  0  0  0  0  0  0  0  0  0
  140.0945   68.3306  226.5877 H   0  0  0  0  0  0  0  0  0  0  0  0
  138.6995   69.1462  224.7270 H   0  0  0  0  0  0  0  0  0  0  0  0
  1  2  1  0
  2  3  1  0
  3  4  1  0
  4  5  2  0
  4  6  1  0
  6  7  1  0
  7  8  1  0
  8  9  2  0
  8 10  1  0
 10 11  2  0
 11 12  1  0
 12 13  2  0
 13 14  1  0
 14 15  2  0
 15 16  1  0
 16 17  2  0
 17 18  1  0
 18 19  2  0
  2 20  1  0
 20 21  2  0
 21 22  1  0
 22 23  2  0
 23 24  1  0
 24 25  2  0
 19 10  1  0
 25 20  1  0
 18 13  1  0
  1 26  1  0
  1 27  1  0
  1 28  1  0
  2 29  1  1
  3 30  1  0
  6 31  1  0
  6 32  1  0
  7 33  1  0
 11 34  1  0
 12 35  1  0
 14 36  1  0
 15 37  1  0
 16 38  1  0
 17 39  1  0
 21 40  1  0
 22 41  1  0
 23 42  1  0
 24 43  1  0
 25 44  1  0
M  END
>  <smiles>  (25) 
C[C@H](NC(=O)CNC(=O)c1ccc2ccccc2n1)c1ccccc1

>  <score_type>  (25) 
oracle

>  <origin>  (25) 
autodockgpu

>  <m_score__min__energy>  (25) 
-8.6600000000000001

>  <m_primary>  (25) 
energy

>  <rmsd>  (25) 
9.864847441800416

>  <m_score__min__rmsd>  (25) 
9.864847441800416

>  <meeko>  (25) 
{"free_energy": -7.94, "intermolecular_energy": -9.44, "internal_energy": -1.94, "cluster_size": 24, "cluster_id": 3, "rank_in_cluster": 22}

>  <energy>  (25) 
-8.01

>  <cluster_rmsd>  (25) 
1.05

>  <cluster>  (25) 
3

$$$$

     RDKit          3D

 44 46  0  0  0  0  0  0  0  0999 V2000
  138.4710   70.5360  222.4690 C   0  0  0  0  0  0  0  0  0  0  0  0
  138.9380   71.6010  223.4400 C   0  0  2  0  0  0  0  0  0  0  0  0
  139.6100   72.6620  222.7170 N   0  0  0  0  0  0  0  0  0  0  0  0
  140.6900   72.3680  221.8520 C   0  0  0  0  0  0  0  0  0  0  0  0
  141.0430   71.1610  221.7300 O   0  0  0  0  0  0  0  0  0  0  0  0
  141.4460   73.3700  221.0720 C   0  0  0  0  0  0  0  0  0  0  0  0
  141.3600   74.7030  221.5650 N   0  0  0  0  0  0  0  0  0  0  0  0
  140.1310   75.4050  221.6590 C   0  0  0  0  0  0  0  0  0  0  0  0
  139.0180   74.9260  221.3260 O   0  0  0  0  0  0  0  0  0  0  0  0
  140.1720   76.7820  222.1800 C   0  0  0  0  0  0  0  0  0  0  0  0
  139.0210   77.4450  222.5200 C   0  0  0  0  0  0  0  0  0  0  0  0
  138.9930   78.7340  223.0130 C   0  0  0  0  0  0  0  0  0  0  0  0
  140.2190   79.3730  223.1610 C   0  0  0  0  0  0  0  0  0  0  0  0
  140.1970   80.6610  223.6530 C   0  0  0  0  0  0  0  0  0  0  0  0
  141.3890   81.3460  223.8230 C   0  0  0  0  0  0  0  0  0  0  0  0
  142.5500   80.6840  223.4820 C   0  0  0  0  0  0  0  0  0  0  0  0
  142.5710   79.3940  222.9900 C   0  0  0  0  0  0  0  0  0  0  0  0
  141.3700   78.7050  222.8190 C   0  0  0  0  0  0  0  0  0  0  0  0
  141.3370   77.4470  222.3440 N   0  0  0  0  0  0  0  0  0  0  0  0
  139.7500   71.0290  224.5360 C   0  0  0  0  0  0  0  0  0  0  0  0
  139.5850   69.6980  224.9280 C   0  0  0  0  0  0  0  0  0  0  0  0
  140.3310   69.1440  225.9480 C   0  0  0  0  0  0  0  0  0  0  0  0
  141.2740   69.8930  226.6220 C   0  0  0  0  0  0  0  0  0  0  0  0
  141.4520   71.2270  226.2430 C   0  0  0  0  0  0  0  0  0  0  0  0
  140.7000   71.7750  225.2200 C   0  0  0  0  0  0  0  0  0  0  0  0
  138.0910   69.6695  223.0301 H   0  0  0  0  0  0  0  0  0  0  0  0
  137.6689   70.9433  221.8360 H   0  0  0  0  0  0  0  0  0  0  0  0
  139.3140   70.2219  221.8360 H   0  0  0  0  0  0  0  0  0  0  0  0
  138.0624   72.0454  223.9358 H   0  0  0  0  0  0  0  0  0  0  0  0
  139.2730   73.6170  222.8450 H   0  0  0  0  0  0  0  0  0  0  0  0
  142.5054   73.0738  221.0709 H   0  0  0  0  0  0  0  0  0  0  0  0
  140.9963   73.3828  220.0682 H   0  0  0  0  0  0  0  0  0  0  0  0
  142.2530   75.1840  221.8750 H   0  0  0  0  0  0  0  0  0  0  0  0
  138.0635   76.9187  222.3924 H   0  0  0  0  0  0  0  0  0  0  0  0
  138.0476   79.2311  223.2758 H   0  0  0  0  0  0  0  0  0  0  0  0
  139.2406   81.1407  223.9084 H   0  0  0  0  0  0  0  0  0  0  0  0
  141.4088   82.3742  224.2134 H   0  0  0  0  0  0  0  0  0  0  0  0
  143.5076   81.2103  223.6084 H   0  0  0  0  0  0  0  0  0  0  0  0
  143.5270   78.9134  222.7349 H   0  0  0  0  0  0  0  0  0  0  0  0
  138.8408   69.0754  224.4098 H   0  0  0  0  0  0  0  0  0  0  0  0
  140.1721   68.0920  226.2275 H   0  0  0  0  0  0  0  0  0  0  0  0
  141.8694   69.4525  227.4353 H   0  0  0  0  0  0  0  0  0  0  0  0
  142.1972   71.8464  226.7635 H   0  0  0  0  0  0  0  0  0  0  0  0
  140.8584   72.8273  224.9416 H   0  0  0  0  0  0  0  0  0  0  0  0
  1  2  1  0
  2  3  1  0
  3  4  1  0
  4  5  2  0
  4  6  1  0
  6  7  1  0
  7  8  1  0
  8  9  2  0
  8 10  1  0
 10 11  2  0
 11 12  1  0
 12 13  2  0
 13 14  1  0
 14 15  2  0
 15 16  1  0
 16 17  2  0
 17 18  1  0
 18 19  2  0
  2 20  1  0
 20 21  2  0
 21 22  1  0
 22 23  2  0
 23 24  1  0
 24 25  2  0
 19 10  1  0
 25 20  1  0
 18 13  1  0
  1 26  1  0
  1 27  1  0
  1 28  1  0
  2 29  1  1
  3 30  1  0
  6 31  1  0
  6 32  1  0
  7 33  1  0
 11 34  1  0
 12 35  1  0
 14 36  1  0
 15 37  1  0
 16 38  1  0
 17 39  1  0
 21 40  1  0
 22 41  1  0
 23 42  1  0
 24 43  1  0
 25 44  1  0
M  END
>  <smiles>  (26) 
C[C@H](NC(=O)CNC(=O)c1ccc2ccccc2n1)c1ccccc1

>  <score_type>  (26) 
oracle

>  <origin>  (26) 
autodockgpu

>  <m_score__min__energy>  (26) 
-8.6600000000000001

>  <m_primary>  (26) 
energy

>  <rmsd>  (26) 
9.751296085497822

>  <m_score__min__rmsd>  (26) 
9.751296085497822

>  <meeko>  (26) 
{"free_energy": -7.98, "intermolecular_energy": -9.47, "internal_energy": -1.89, "cluster_size": 24, "cluster_id": 3, "rank_in_cluster": 14}

>  <energy>  (26) 
-8.01

>  <cluster_rmsd>  (26) 
1.06

>  <cluster>  (26) 
3

$$$$

     RDKit          3D

 44 46  0  0  0  0  0  0  0  0999 V2000
  140.3900   71.8640  223.4420 C   0  0  0  0  0  0  0  0  0  0  0  0
  139.6690   70.8150  224.2640 C   0  0  2  0  0  0  0  0  0  0  0  0
  138.2370   71.0020  224.1480 N   0  0  0  0  0  0  0  0  0  0  0  0
  137.3510   69.9290  224.4000 C   0  0  0  0  0  0  0  0  0  0  0  0
  137.8460   68.8140  224.7300 O   0  0  0  0  0  0  0  0  0  0  0  0
  135.8790   70.0080  224.3080 C   0  0  0  0  0  0  0  0  0  0  0  0
  135.3070   71.1930  224.8530 N   0  0  0  0  0  0  0  0  0  0  0  0
  135.5560   72.4800  224.3120 C   0  0  0  0  0  0  0  0  0  0  0  0
  136.2890   72.6960  223.3140 O   0  0  0  0  0  0  0  0  0  0  0  0
  134.9110   73.6300  224.9680 C   0  0  0  0  0  0  0  0  0  0  0  0
  135.2990   74.9160  224.6860 C   0  0  0  0  0  0  0  0  0  0  0  0
  134.7350   76.0340  225.2660 C   0  0  0  0  0  0  0  0  0  0  0  0
  133.7170   75.8130  226.1870 C   0  0  0  0  0  0  0  0  0  0  0  0
  133.1500   76.9270  226.7700 C   0  0  0  0  0  0  0  0  0  0  0  0
  132.1310   76.7680  227.6940 C   0  0  0  0  0  0  0  0  0  0  0  0
  131.7360   75.4780  227.9820 C   0  0  0  0  0  0  0  0  0  0  0  0
  132.3050   74.3640  227.3970 C   0  0  0  0  0  0  0  0  0  0  0  0
  133.3320   74.5250  226.4660 C   0  0  0  0  0  0  0  0  0  0  0  0
  133.9170   73.4720  225.8690 N   0  0  0  0  0  0  0  0  0  0  0  0
  140.1480   70.7870  225.6630 C   0  0  0  0  0  0  0  0  0  0  0  0
  140.0270   69.6300  226.4360 C   0  0  0  0  0  0  0  0  0  0  0  0
  140.4660   69.5800  227.7440 C   0  0  0  0  0  0  0  0  0  0  0  0
  141.0460   70.6840  228.3360 C   0  0  0  0  0  0  0  0  0  0  0  0
  141.1750   71.8500  227.5770 C   0  0  0  0  0  0  0  0  0  0  0  0
  140.7320   71.8910  226.2680 C   0  0  0  0  0  0  0  0  0  0  0  0
  140.8832   72.5815  224.1143 H   0  0  0  0  0  0  0  0  0  0  0  0
  141.1453   71.3773  222.8075 H   0  0  0  0  0  0  0  0  0  0  0  0
  139.6650   72.3947  222.8075 H   0  0  0  0  0  0  0  0  0  0  0  0
  139.9034   69.8182  223.8623 H   0  0  0  0  0  0  0  0  0  0  0  0
  137.8940   71.9290  223.8900 H   0  0  0  0  0  0  0  0  0  0  0  0
  135.5994   69.9509  223.2456 H   0  0  0  0  0  0  0  0  0  0  0  0
  135.4871   69.1726  224.9068 H   0  0  0  0  0  0  0  0  0  0  0  0
  134.6680   71.1030  225.6960 H   0  0  0  0  0  0  0  0  0  0  0  0
  136.1071   75.0642  223.9546 H   0  0  0  0  0  0  0  0  0  0  0  0
  135.0739   77.0493  225.0124 H   0  0  0  0  0  0  0  0  0  0  0  0
  133.5044   77.9336  226.5031 H   0  0  0  0  0  0  0  0  0  0  0  0
  131.6563   77.6342  228.1782 H   0  0  0  0  0  0  0  0  0  0  0  0
  130.9281   75.3294  228.7136 H   0  0  0  0  0  0  0  0  0  0  0  0
  131.9512   73.3570  227.6630 H   0  0  0  0  0  0  0  0  0  0  0  0
  139.5695   68.7343  225.9906 H   0  0  0  0  0  0  0  0  0  0  0  0
  140.3524   68.6503  228.3208 H   0  0  0  0  0  0  0  0  0  0  0  0
  141.3973   70.6467  229.3777 H   0  0  0  0  0  0  0  0  0  0  0  0
  141.6334   72.7438  228.0252 H   0  0  0  0  0  0  0  0  0  0  0  0
  140.8452   72.8213  225.6921 H   0  0  0  0  0  0  0  0  0  0  0  0
  1  2  1  0
  2  3  1  0
  3  4  1  0
  4  5  2  0
  4  6  1  0
  6  7  1  0
  7  8  1  0
  8  9  2  0
  8 10  1  0
 10 11  2  0
 11 12  1  0
 12 13  2  0
 13 14  1  0
 14 15  2  0
 15 16  1  0
 16 17  2  0
 17 18  1  0
 18 19  2  0
  2 20  1  0
 20 21  2  0
 21 22  1  0
 22 23  2  0
 23 24  1  0
 24 25  2  0
 19 10  1  0
 25 20  1  0
 18 13  1  0
  1 26  1  0
  1 27  1  0
  1 28  1  0
  2 29  1  6
  3 30  1  0
  6 31  1  0
  6 32  1  0
  7 33  1  0
 11 34  1  0
 12 35  1  0
 14 36  1  0
 15 37  1  0
 16 38  1  0
 17 39  1  0
 21 40  1  0
 22 41  1  0
 23 42  1  0
 24 43  1  0
 25 44  1  0
M  END
>  <smiles>  (27) 
C[C@H](NC(=O)CNC(=O)c1ccc2ccccc2n1)c1ccccc1

>  <score_type>  (27) 
oracle

>  <origin>  (27) 
autodockgpu

>  <m_score__min__energy>  (27) 
-8.6600000000000001

>  <m_primary>  (27) 
energy

>  <rmsd>  (27) 
9.865734481028822

>  <m_score__min__rmsd>  (27) 
9.865734481028822

>  <meeko>  (27) 
{"free_energy": -7.47, "intermolecular_energy": -8.96, "internal_energy": -1.99, "cluster_size": 8, "cluster_id": 2, "rank_in_cluster": 8}

>  <energy>  (27) 
-8.0

>  <cluster_rmsd>  (27) 
1.06

>  <cluster>  (27) 
3

$$$$

     RDKit          3D

 44 46  0  0  0  0  0  0  0  0999 V2000
  138.3680   70.6220  222.4310 C   0  0  0  0  0  0  0  0  0  0  0  0
  138.9290   71.5730  223.4680 C   0  0  2  0  0  0  0  0  0  0  0  0
  139.6990   72.6120  222.8150 N   0  0  0  0  0  0  0  0  0  0  0  0
  140.6740   72.2800  221.8470 C   0  0  0  0  0  0  0  0  0  0  0  0
  140.8480   71.0600  221.5710 O   0  0  0  0  0  0  0  0  0  0  0  0
  141.5150   73.2570  221.1240 C   0  0  0  0  0  0  0  0  0  0  0  0
  141.4220   74.5960  221.6000 N   0  0  0  0  0  0  0  0  0  0  0  0
  140.1900   75.2930  221.6820 C   0  0  0  0  0  0  0  0  0  0  0  0
  139.0800   74.8050  221.3530 O   0  0  0  0  0  0  0  0  0  0  0  0
  140.2230   76.6770  222.1850 C   0  0  0  0  0  0  0  0  0  0  0  0
  139.0660   77.3520  222.4810 C   0  0  0  0  0  0  0  0  0  0  0  0
  139.0310   78.6470  222.9550 C   0  0  0  0  0  0  0  0  0  0  0  0
  140.2560   79.2810  223.1310 C   0  0  0  0  0  0  0  0  0  0  0  0
  140.2260   80.5760  223.6040 C   0  0  0  0  0  0  0  0  0  0  0  0
  141.4170   81.2570  223.8010 C   0  0  0  0  0  0  0  0  0  0  0  0
  142.5840   80.5840  223.5050 C   0  0  0  0  0  0  0  0  0  0  0  0
  142.6120   79.2870  223.0310 C   0  0  0  0  0  0  0  0  0  0  0  0
  141.4120   78.6020  222.8340 C   0  0  0  0  0  0  0  0  0  0  0  0
  141.3860   77.3380  222.3750 N   0  0  0  0  0  0  0  0  0  0  0  0
  139.6810   70.8570  224.5220 C   0  0  0  0  0  0  0  0  0  0  0  0
  139.3890   69.5260  224.8290 C   0  0  0  0  0  0  0  0  0  0  0  0
  140.0770   68.8380  225.8080 C   0  0  0  0  0  0  0  0  0  0  0  0
  141.0860   69.4490  226.5240 C   0  0  0  0  0  0  0  0  0  0  0  0
  141.3920   70.7810  226.2290 C   0  0  0  0  0  0  0  0  0  0  0  0
  140.6980   71.4630  225.2470 C   0  0  0  0  0  0  0  0  0  0  0  0
  137.8715   69.7803  222.9359 H   0  0  0  0  0  0  0  0  0  0  0  0
  137.6390   71.1539  221.8020 H   0  0  0  0  0  0  0  0  0  0  0  0
  139.1861   70.2412  221.8020 H   0  0  0  0  0  0  0  0  0  0  0  0
  138.0967   72.0636  223.9939 H   0  0  0  0  0  0  0  0  0  0  0  0
  139.5060   73.5820  223.0690 H   0  0  0  0  0  0  0  0  0  0  0  0
  142.5634   72.9356  221.2105 H   0  0  0  0  0  0  0  0  0  0  0  0
  141.1485   73.2720  220.0870 H   0  0  0  0  0  0  0  0  0  0  0  0
  142.3130   75.0850  221.9050 H   0  0  0  0  0  0  0  0  0  0  0  0
  138.1095   76.8297  222.3315 H   0  0  0  0  0  0  0  0  0  0  0  0
  138.0812   79.1530  223.1825 H   0  0  0  0  0  0  0  0  0  0  0  0
  139.2650   81.0644  223.8231 H   0  0  0  0  0  0  0  0  0  0  0  0
  141.4309   82.2905  224.1775 H   0  0  0  0  0  0  0  0  0  0  0  0
  143.5405   81.1065  223.6539 H   0  0  0  0  0  0  0  0  0  0  0  0
  143.5723   78.7979  222.8106 H   0  0  0  0  0  0  0  0  0  0  0  0
  138.5891   69.0122  224.2756 H   0  0  0  0  0  0  0  0  0  0  0  0
  139.8179   67.7902  226.0200 H   0  0  0  0  0  0  0  0  0  0  0  0
  141.6347   68.9030  227.3056 H   0  0  0  0  0  0  0  0  0  0  0  0
  142.1930   71.2914  226.7839 H   0  0  0  0  0  0  0  0  0  0  0  0
  140.9578   72.5107  225.0351 H   0  0  0  0  0  0  0  0  0  0  0  0
  1  2  1  0
  2  3  1  0
  3  4  1  0
  4  5  2  0
  4  6  1  0
  6  7  1  0
  7  8  1  0
  8  9  2  0
  8 10  1  0
 10 11  2  0
 11 12  1  0
 12 13  2  0
 13 14  1  0
 14 15  2  0
 15 16  1  0
 16 17  2  0
 17 18  1  0
 18 19  2  0
  2 20  1  0
 20 21  2  0
 21 22  1  0
 22 23  2  0
 23 24  1  0
 24 25  2  0
 19 10  1  0
 25 20  1  0
 18 13  1  0
  1 26  1  0
  1 27  1  0
  1 28  1  0
  2 29  1  1
  3 30  1  0
  6 31  1  0
  6 32  1  0
  7 33  1  0
 11 34  1  0
 12 35  1  0
 14 36  1  0
 15 37  1  0
 16 38  1  0
 17 39  1  0
 21 40  1  0
 22 41  1  0
 23 42  1  0
 24 43  1  0
 25 44  1  0
M  END
>  <smiles>  (28) 
C[C@H](NC(=O)CNC(=O)c1ccc2ccccc2n1)c1ccccc1

>  <score_type>  (28) 
oracle

>  <origin>  (28) 
autodockgpu

>  <m_score__min__energy>  (28) 
-8.6600000000000001

>  <m_primary>  (28) 
energy

>  <rmsd>  (28) 
9.810979444379827

>  <m_score__min__rmsd>  (28) 
9.810979444379827

>  <meeko>  (28) 
{"free_energy": -7.97, "intermolecular_energy": -9.46, "internal_energy": -1.79, "cluster_size": 24, "cluster_id": 3, "rank_in_cluster": 18}

>  <energy>  (28) 
-8.0

>  <cluster_rmsd>  (28) 
1.04

>  <cluster>  (28) 
3

$$$$

     RDKit          3D

 44 46  0  0  0  0  0  0  0  0999 V2000
  140.1600   71.9680  223.5460 C   0  0  0  0  0  0  0  0  0  0  0  0
  139.5820   70.8150  224.3420 C   0  0  2  0  0  0  0  0  0  0  0  0
  138.1340   70.8740  224.3070 N   0  0  0  0  0  0  0  0  0  0  0  0
  137.3680   69.6860  224.3400 C   0  0  0  0  0  0  0  0  0  0  0  0
  137.9820   68.5830  224.4040 O   0  0  0  0  0  0  0  0  0  0  0  0
  135.8920   69.6300  224.3060 C   0  0  0  0  0  0  0  0  0  0  0  0
  135.2360   70.7790  224.8350 N   0  0  0  0  0  0  0  0  0  0  0  0
  134.3050   70.7050  225.9010 C   0  0  0  0  0  0  0  0  0  0  0  0
  133.9770   69.6370  226.4770 O   0  0  0  0  0  0  0  0  0  0  0  0
  133.6890   71.9620  226.3560 C   0  0  0  0  0  0  0  0  0  0  0  0
  132.5470   71.9580  227.1160 C   0  0  0  0  0  0  0  0  0  0  0  0
  131.9220   73.1010  227.5720 C   0  0  0  0  0  0  0  0  0  0  0  0
  132.5070   74.3130  227.2240 C   0  0  0  0  0  0  0  0  0  0  0  0
  131.8860   75.4590  227.6770 C   0  0  0  0  0  0  0  0  0  0  0  0
  132.4240   76.6960  227.3620 C   0  0  0  0  0  0  0  0  0  0  0  0
  133.5730   76.7070  226.5970 C   0  0  0  0  0  0  0  0  0  0  0  0
  134.1930   75.5590  226.1450 C   0  0  0  0  0  0  0  0  0  0  0  0
  133.6500   74.3140  226.4630 C   0  0  0  0  0  0  0  0  0  0  0  0
  134.2160   73.1670  226.0460 N   0  0  0  0  0  0  0  0  0  0  0  0
  140.1360   70.7600  225.7130 C   0  0  0  0  0  0  0  0  0  0  0  0
  140.7080   71.8920  226.2990 C   0  0  0  0  0  0  0  0  0  0  0  0
  141.2320   71.8640  227.5750 C   0  0  0  0  0  0  0  0  0  0  0  0
  141.2080   70.7030  228.3220 C   0  0  0  0  0  0  0  0  0  0  0  0
  140.6400   69.5610  227.7510 C   0  0  0  0  0  0  0  0  0  0  0  0
  140.1170   69.5980  226.4720 C   0  0  0  0  0  0  0  0  0  0  0  0
  140.5439   72.7339  224.2360 H   0  0  0  0  0  0  0  0  0  0  0  0
  140.9807   71.6010  222.9122 H   0  0  0  0  0  0  0  0  0  0  0  0
  139.3749   72.4060  222.9122 H   0  0  0  0  0  0  0  0  0  0  0  0
  139.8837   69.8664  223.8738 H   0  0  0  0  0  0  0  0  0  0  0  0
  137.6930   71.7940  224.2690 H   0  0  0  0  0  0  0  0  0  0  0  0
  135.5786   69.5095  223.2585 H   0  0  0  0  0  0  0  0  0  0  0  0
  135.6003   68.7854  224.9475 H   0  0  0  0  0  0  0  0  0  0  0  0
  135.4590   71.7260  224.4100 H   0  0  0  0  0  0  0  0  0  0  0  0
  132.1030   70.9862  227.3775 H   0  0  0  0  0  0  0  0  0  0  0  0
  131.0067   73.0551  228.1804 H   0  0  0  0  0  0  0  0  0  0  0  0
  130.9709   75.3908  228.2835 H   0  0  0  0  0  0  0  0  0  0  0  0
  131.9556   77.6297  227.7067 H   0  0  0  0  0  0  0  0  0  0  0  0
  134.0168   77.6787  226.3344 H   0  0  0  0  0  0  0  0  0  0  0  0
  135.1083   75.6257  225.5386 H   0  0  0  0  0  0  0  0  0  0  0  0
  140.7415   72.8312  225.7274 H   0  0  0  0  0  0  0  0  0  0  0  0
  141.6737   72.7765  228.0019 H   0  0  0  0  0  0  0  0  0  0  0  0
  141.6249   70.6777  229.3396 H   0  0  0  0  0  0  0  0  0  0  0  0
  140.6088   68.6232  228.3251 H   0  0  0  0  0  0  0  0  0  0  0  0
  139.6754   68.6852  226.0457 H   0  0  0  0  0  0  0  0  0  0  0  0
  1  2  1  0
  2  3  1  0
  3  4  1  0
  4  5  2  0
  4  6  1  0
  6  7  1  0
  7  8  1  0
  8  9  2  0
  8 10  1  0
 10 11  2  0
 11 12  1  0
 12 13  2  0
 13 14  1  0
 14 15  2  0
 15 16  1  0
 16 17  2  0
 17 18  1  0
 18 19  2  0
  2 20  1  0
 20 21  2  0
 21 22  1  0
 22 23  2  0
 23 24  1  0
 24 25  2  0
 19 10  1  0
 25 20  1  0
 18 13  1  0
  1 26  1  0
  1 27  1  0
  1 28  1  0
  2 29  1  6
  3 30  1  0
  6 31  1  0
  6 32  1  0
  7 33  1  0
 11 34  1  0
 12 35  1  0
 14 36  1  0
 15 37  1  0
 16 38  1  0
 17 39  1  0
 21 40  1  0
 22 41  1  0
 23 42  1  0
 24 43  1  0
 25 44  1  0
M  END
>  <smiles>  (29) 
C[C@H](NC(=O)CNC(=O)c1ccc2ccccc2n1)c1ccccc1

>  <score_type>  (29) 
oracle

>  <origin>  (29) 
autodockgpu

>  <m_score__min__energy>  (29) 
-8.6600000000000001

>  <m_primary>  (29) 
energy

>  <rmsd>  (29) 
10.234459310154405

>  <m_score__min__rmsd>  (29) 
10.234459310154405

>  <meeko>  (29) 
{"free_energy": -8.41, "intermolecular_energy": -9.9, "internal_energy": -1.26, "cluster_size": 8, "cluster_id": 2, "rank_in_cluster": 6}

>  <energy>  (29) 
-8.0

>  <cluster_rmsd>  (29) 
1.05

>  <cluster>  (29) 
3

$$$$

     RDKit          3D

 44 46  0  0  0  0  0  0  0  0999 V2000
  138.4670   70.5030  222.4830 C   0  0  0  0  0  0  0  0  0  0  0  0
  138.8880   71.6000  223.4390 C   0  0  2  0  0  0  0  0  0  0  0  0
  139.5550   72.6580  222.7070 N   0  0  0  0  0  0  0  0  0  0  0  0
  140.6720   72.3700  221.8890 C   0  0  0  0  0  0  0  0  0  0  0  0
  141.0620   71.1700  221.8160 O   0  0  0  0  0  0  0  0  0  0  0  0
  141.4260   73.3690  221.1040 C   0  0  0  0  0  0  0  0  0  0  0  0
  141.3510   74.7020  221.6000 N   0  0  0  0  0  0  0  0  0  0  0  0
  140.1310   75.4210  221.6750 C   0  0  0  0  0  0  0  0  0  0  0  0
  139.0170   74.9590  221.3210 O   0  0  0  0  0  0  0  0  0  0  0  0
  140.1820   76.7950  222.2010 C   0  0  0  0  0  0  0  0  0  0  0  0
  139.0360   77.4650  222.5490 C   0  0  0  0  0  0  0  0  0  0  0  0
  139.0180   78.7520  223.0470 C   0  0  0  0  0  0  0  0  0  0  0  0
  140.2490   79.3820  223.1930 C   0  0  0  0  0  0  0  0  0  0  0  0
  140.2370   80.6680  223.6900 C   0  0  0  0  0  0  0  0  0  0  0  0
  141.4340   81.3460  223.8570 C   0  0  0  0  0  0  0  0  0  0  0  0
  142.5900   80.6780  223.5090 C   0  0  0  0  0  0  0  0  0  0  0  0
  142.6000   79.3900  223.0120 C   0  0  0  0  0  0  0  0  0  0  0  0
  141.3940   78.7090  222.8430 C   0  0  0  0  0  0  0  0  0  0  0  0
  141.3510   77.4530  222.3630 N   0  0  0  0  0  0  0  0  0  0  0  0
  139.6850   71.0720  224.5680 C   0  0  0  0  0  0  0  0  0  0  0  0
  140.6700   71.8540  225.1750 C   0  0  0  0  0  0  0  0  0  0  0  0
  141.4260   71.3820  226.2290 C   0  0  0  0  0  0  0  0  0  0  0  0
  141.2300   70.1080  226.7230 C   0  0  0  0  0  0  0  0  0  0  0  0
  140.2480   69.3120  226.1280 C   0  0  0  0  0  0  0  0  0  0  0  0
  139.4960   69.7920  225.0720 C   0  0  0  0  0  0  0  0  0  0  0  0
  138.1306   69.6264  223.0561 H   0  0  0  0  0  0  0  0  0  0  0  0
  137.6438   70.8648  221.8494 H   0  0  0  0  0  0  0  0  0  0  0  0
  139.3209   70.2212  221.8494 H   0  0  0  0  0  0  0  0  0  0  0  0
  137.9913   72.0365  223.9030 H   0  0  0  0  0  0  0  0  0  0  0  0
  139.1870   73.6060  222.7940 H   0  0  0  0  0  0  0  0  0  0  0  0
  142.4838   73.0674  221.0931 H   0  0  0  0  0  0  0  0  0  0  0  0
  140.9677   73.3856  220.1042 H   0  0  0  0  0  0  0  0  0  0  0  0
  142.2460   75.1690  221.9280 H   0  0  0  0  0  0  0  0  0  0  0  0
  138.0746   76.9454  222.4235 H   0  0  0  0  0  0  0  0  0  0  0  0
  138.0768   79.2543  223.3151 H   0  0  0  0  0  0  0  0  0  0  0  0
  139.2846   81.1521  223.9520 H   0  0  0  0  0  0  0  0  0  0  0  0
  141.4614   82.3730  224.2502 H   0  0  0  0  0  0  0  0  0  0  0  0
  143.5515   81.1975  223.6338 H   0  0  0  0  0  0  0  0  0  0  0  0
  143.5518   78.9042  222.7511 H   0  0  0  0  0  0  0  0  0  0  0  0
  140.8482   72.8738  224.8031 H   0  0  0  0  0  0  0  0  0  0  0  0
  142.1932   72.0283  226.6803 H   0  0  0  0  0  0  0  0  0  0  0  0
  141.8311   69.7295  227.5629 H   0  0  0  0  0  0  0  0  0  0  0  0
  140.0715   68.2933  226.5035 H   0  0  0  0  0  0  0  0  0  0  0  0
  138.7298   69.1447  224.6203 H   0  0  0  0  0  0  0  0  0  0  0  0
  1  2  1  0
  2  3  1  0
  3  4  1  0
  4  5  2  0
  4  6  1  0
  6  7  1  0
  7  8  1  0
  8  9  2  0
  8 10  1  0
 10 11  2  0
 11 12  1  0
 12 13  2  0
 13 14  1  0
 14 15  2  0
 15 16  1  0
 16 17  2  0
 17 18  1  0
 18 19  2  0
  2 20  1  0
 20 21  2  0
 21 22  1  0
 22 23  2  0
 23 24  1  0
 24 25  2  0
 19 10  1  0
 25 20  1  0
 18 13  1  0
  1 26  1  0
  1 27  1  0
  1 28  1  0
  2 29  1  1
  3 30  1  0
  6 31  1  0
  6 32  1  0
  7 33  1  0
 11 34  1  0
 12 35  1  0
 14 36  1  0
 15 37  1  0
 16 38  1  0
 17 39  1  0
 21 40  1  0
 22 41  1  0
 23 42  1  0
 24 43  1  0
 25 44  1  0
M  END
>  <smiles>  (30) 
C[C@H](NC(=O)CNC(=O)c1ccc2ccccc2n1)c1ccccc1

>  <score_type>  (30) 
oracle

>  <origin>  (30) 
autodockgpu

>  <m_score__min__energy>  (30) 
-8.6600000000000001

>  <m_primary>  (30) 
energy

>  <rmsd>  (30) 
9.858634093048913

>  <m_score__min__rmsd>  (30) 
9.858634093048913

>  <meeko>  (30) 
{"free_energy": -8.0, "intermolecular_energy": -9.49, "internal_energy": -1.91, "cluster_size": 24, "cluster_id": 3, "rank_in_cluster": 10}

>  <energy>  (30) 
-8.0

>  <cluster_rmsd>  (30) 
1.06

>  <cluster>  (30) 
3

$$$$

     RDKit          3D

 44 46  0  0  0  0  0  0  0  0999 V2000
  136.4430   76.0960  223.0580 C   0  0  0  0  0  0  0  0  0  0  0  0
  137.5880   75.9720  222.0730 C   0  0  2  0  0  0  0  0  0  0  0  0
  137.9790   74.5830  221.9480 N   0  0  0  0  0  0  0  0  0  0  0  0
  138.1810   74.0060  220.6740 C   0  0  0  0  0  0  0  0  0  0  0  0
  138.0150   74.7370  219.6570 O   0  0  0  0  0  0  0  0  0  0  0  0
  138.5770   72.6030  220.4330 C   0  0  0  0  0  0  0  0  0  0  0  0
  138.8100   71.8350  221.6100 N   0  0  0  0  0  0  0  0  0  0  0  0
  139.6360   72.2920  222.6680 C   0  0  0  0  0  0  0  0  0  0  0  0
  140.2290   73.4000  222.6720 O   0  0  0  0  0  0  0  0  0  0  0  0
  139.8040   71.4050  223.8310 C   0  0  0  0  0  0  0  0  0  0  0  0
  139.4260   70.0870  223.7780 C   0  0  0  0  0  0  0  0  0  0  0  0
  139.5580   69.2060  224.8320 C   0  0  0  0  0  0  0  0  0  0  0  0
  140.1100   69.7120  226.0040 C   0  0  0  0  0  0  0  0  0  0  0  0
  140.2440   68.8360  227.0600 C   0  0  0  0  0  0  0  0  0  0  0  0
  140.7880   69.2850  228.2530 C   0  0  0  0  0  0  0  0  0  0  0  0
  141.1710   70.6090  228.3120 C   0  0  0  0  0  0  0  0  0  0  0  0
  141.0360   71.4840  227.2530 C   0  0  0  0  0  0  0  0  0  0  0  0
  140.4880   71.0320  226.0530 C   0  0  0  0  0  0  0  0  0  0  0  0
  140.3360   71.8450  224.9930 N   0  0  0  0  0  0  0  0  0  0  0  0
  138.7100   76.8720  222.4170 C   0  0  0  0  0  0  0  0  0  0  0  0
  138.4710   78.1760  222.8590 C   0  0  0  0  0  0  0  0  0  0  0  0
  139.5020   79.0330  223.1850 C   0  0  0  0  0  0  0  0  0  0  0  0
  140.8180   78.6260  223.0840 C   0  0  0  0  0  0  0  0  0  0  0  0
  141.0750   77.3250  222.6440 C   0  0  0  0  0  0  0  0  0  0  0  0
  140.0360   76.4720  222.3190 C   0  0  0  0  0  0  0  0  0  0  0  0
  136.8361   76.0534  224.0845 H   0  0  0  0  0  0  0  0  0  0  0  0
  135.9276   77.0552  222.9022 H   0  0  0  0  0  0  0  0  0  0  0  0
  135.7342   75.2694  222.9022 H   0  0  0  0  0  0  0  0  0  0  0  0
  137.2481   76.3064  221.0817 H   0  0  0  0  0  0  0  0  0  0  0  0
  138.1110   74.0440  222.8060 H   0  0  0  0  0  0  0  0  0  0  0  0
  137.7748   72.1151  219.8599 H   0  0  0  0  0  0  0  0  0  0  0  0
  139.5355   72.6411  219.8946 H   0  0  0  0  0  0  0  0  0  0  0  0
  138.3420   70.8860  221.6930 H   0  0  0  0  0  0  0  0  0  0  0  0
  138.9921   69.7104  222.8400 H   0  0  0  0  0  0  0  0  0  0  0  0
  139.2423   68.1555  224.7493 H   0  0  0  0  0  0  0  0  0  0  0  0
  139.9218   67.7893  226.9566 H   0  0  0  0  0  0  0  0  0  0  0  0
  140.9092   68.6141  229.1163 H   0  0  0  0  0  0  0  0  0  0  0  0
  141.6056   70.9861  229.2495 H   0  0  0  0  0  0  0  0  0  0  0  0
  141.3585   72.5307  227.3550 H   0  0  0  0  0  0  0  0  0  0  0  0
  137.4330   78.5287  222.9494 H   0  0  0  0  0  0  0  0  0  0  0  0
  139.2732   80.0523  223.5294 H   0  0  0  0  0  0  0  0  0  0  0  0
  141.6415   79.3077  223.3430 H   0  0  0  0  0  0  0  0  0  0  0  0
  142.1143   76.9756  222.5552 H   0  0  0  0  0  0  0  0  0  0  0  0
  140.2655   75.4528  221.9748 H   0  0  0  0  0  0  0  0  0  0  0  0
  1  2  1  0
  2  3  1  0
  3  4  1  0
  4  5  2  0
  4  6  1  0
  6  7  1  0
  7  8  1  0
  8  9  2  0
  8 10  1  0
 10 11  2  0
 11 12  1  0
 12 13  2  0
 13 14  1  0
 14 15  2  0
 15 16  1  0
 16 17  2  0
 17 18  1  0
 18 19  2  0
  2 20  1  0
 20 21  2  0
 21 22  1  0
 22 23  2  0
 23 24  1  0
 24 25  2  0
 19 10  1  0
 25 20  1  0
 18 13  1  0
  1 26  1  0
  1 27  1  0
  1 28  1  0
  2 29  1  6
  3 30  1  0
  6 31  1  0
  6 32  1  0
  7 33  1  0
 11 34  1  0
 12 35  1  0
 14 36  1  0
 15 37  1  0
 16 38  1  0
 17 39  1  0
 21 40  1  0
 22 41  1  0
 23 42  1  0
 24 43  1  0
 25 44  1  0
M  END
>  <smiles>  (31) 
C[C@H](NC(=O)CNC(=O)c1ccc2ccccc2n1)c1ccccc1

>  <score_type>  (31) 
oracle

>  <origin>  (31) 
autodockgpu

>  <m_score__min__energy>  (31) 
-8.6600000000000001

>  <m_primary>  (31) 
energy

>  <rmsd>  (31) 
5.080157934575577

>  <m_score__min__rmsd>  (31) 
5.080157934575577

>  <meeko>  (31) 
{"free_energy": -7.83, "intermolecular_energy": -9.32, "internal_energy": -1.65, "cluster_size": 13, "cluster_id": 1, "rank_in_cluster": 9}

>  <energy>  (31) 
-8.0

>  <cluster_rmsd>  (31) 
1.06

>  <cluster>  (31) 
3

$$$$

     RDKit          3D

 44 46  0  0  0  0  0  0  0  0999 V2000
  136.5230   75.9350  222.9850 C   0  0  0  0  0  0  0  0  0  0  0  0
  137.7190   75.8330  222.0600 C   0  0  2  0  0  0  0  0  0  0  0  0
  138.2160   74.4720  222.0520 N   0  0  0  0  0  0  0  0  0  0  0  0
  138.0970   73.6720  220.8920 C   0  0  0  0  0  0  0  0  0  0  0  0
  137.5500   74.1800  219.8730 O   0  0  0  0  0  0  0  0  0  0  0  0
  138.5660   72.2750  220.7750 C   0  0  0  0  0  0  0  0  0  0  0  0
  138.8760   71.6420  222.0130 N   0  0  0  0  0  0  0  0  0  0  0  0
  139.8740   72.1320  222.8920 C   0  0  0  0  0  0  0  0  0  0  0  0
  140.5670   73.1570  222.6710 O   0  0  0  0  0  0  0  0  0  0  0  0
  140.1070   71.3860  224.1400 C   0  0  0  0  0  0  0  0  0  0  0  0
  140.8370   71.9310  225.1670 C   0  0  0  0  0  0  0  0  0  0  0  0
  141.0890   71.2840  226.3590 C   0  0  0  0  0  0  0  0  0  0  0  0
  140.5630   70.0050  226.4990 C   0  0  0  0  0  0  0  0  0  0  0  0
  140.8130   69.3530  227.6890 C   0  0  0  0  0  0  0  0  0  0  0  0
  140.3130   68.0760  227.8850 C   0  0  0  0  0  0  0  0  0  0  0  0
  139.5780   67.5230  226.8560 C   0  0  0  0  0  0  0  0  0  0  0  0
  139.3290   68.1760  225.6660 C   0  0  0  0  0  0  0  0  0  0  0  0
  139.8340   69.4620  225.4690 C   0  0  0  0  0  0  0  0  0  0  0  0
  139.6180   70.1410  224.3280 N   0  0  0  0  0  0  0  0  0  0  0  0
  138.7540   76.8370  222.3870 C   0  0  0  0  0  0  0  0  0  0  0  0
  140.1110   76.5070  222.3340 C   0  0  0  0  0  0  0  0  0  0  0  0
  141.0940   77.4270  222.6350 C   0  0  0  0  0  0  0  0  0  0  0  0
  140.7670   78.7170  223.0010 C   0  0  0  0  0  0  0  0  0  0  0  0
  139.4140   79.0640  223.0590 C   0  0  0  0  0  0  0  0  0  0  0  0
  138.4350   78.1360  222.7570 C   0  0  0  0  0  0  0  0  0  0  0  0
  136.8644   75.9059  224.0303 H   0  0  0  0  0  0  0  0  0  0  0  0
  135.9946   76.8815  222.7981 H   0  0  0  0  0  0  0  0  0  0  0  0
  135.8419   75.0917  222.7981 H   0  0  0  0  0  0  0  0  0  0  0  0
  137.4037   76.0727  221.0338 H   0  0  0  0  0  0  0  0  0  0  0  0
  138.6600   74.1190  222.9010 H   0  0  0  0  0  0  0  0  0  0  0  0
  137.7771   71.6898  220.2798 H   0  0  0  0  0  0  0  0  0  0  0  0
  139.5047   72.3110  220.2027 H   0  0  0  0  0  0  0  0  0  0  0  0
  138.3330   70.7710  222.2830 H   0  0  0  0  0  0  0  0  0  0  0  0
  141.2451   72.9435  225.0314 H   0  0  0  0  0  0  0  0  0  0  0  0
  141.6772   71.7569  227.1592 H   0  0  0  0  0  0  0  0  0  0  0  0
  141.4047   69.8434  228.4760 H   0  0  0  0  0  0  0  0  0  0  0  0
  140.4940   67.5264  228.8205 H   0  0  0  0  0  0  0  0  0  0  0  0
  139.1700   66.5105  226.9913 H   0  0  0  0  0  0  0  0  0  0  0  0
  138.7369   67.6865  224.8787 H   0  0  0  0  0  0  0  0  0  0  0  0
  140.4030   75.4867  222.0446 H   0  0  0  0  0  0  0  0  0  0  0  0
  142.1515   77.1287  222.5826 H   0  0  0  0  0  0  0  0  0  0  0  0
  141.5496   79.4520  223.2405 H   0  0  0  0  0  0  0  0  0  0  0  0
  139.1256   80.0855  223.3478 H   0  0  0  0  0  0  0  0  0  0  0  0
  137.3776   78.4343  222.8113 H   0  0  0  0  0  0  0  0  0  0  0  0
  1  2  1  0
  2  3  1  0
  3  4  1  0
  4  5  2  0
  4  6  1  0
  6  7  1  0
  7  8  1  0
  8  9  2  0
  8 10  1  0
 10 11  2  0
 11 12  1  0
 12 13  2  0
 13 14  1  0
 14 15  2  0
 15 16  1  0
 16 17  2  0
 17 18  1  0
 18 19  2  0
  2 20  1  0
 20 21  2  0
 21 22  1  0
 22 23  2  0
 23 24  1  0
 24 25  2  0
 19 10  1  0
 25 20  1  0
 18 13  1  0
  1 26  1  0
  1 27  1  0
  1 28  1  0
  2 29  1  6
  3 30  1  0
  6 31  1  0
  6 32  1  0
  7 33  1  0
 11 34  1  0
 12 35  1  0
 14 36  1  0
 15 37  1  0
 16 38  1  0
 17 39  1  0
 21 40  1  0
 22 41  1  0
 23 42  1  0
 24 43  1  0
 25 44  1  0
M  END
>  <smiles>  (32) 
C[C@H](NC(=O)CNC(=O)c1ccc2ccccc2n1)c1ccccc1

>  <score_type>  (32) 
oracle

>  <origin>  (32) 
autodockgpu

>  <m_score__min__energy>  (32) 
-8.6600000000000001

>  <m_primary>  (32) 
energy

>  <rmsd>  (32) 
4.8624963497426

>  <m_score__min__rmsd>  (32) 
4.8624963497426

>  <meeko>  (32) 
{"free_energy": -7.67, "intermolecular_energy": -9.16, "internal_energy": -2.04, "cluster_size": 13, "cluster_id": 1, "rank_in_cluster": 13}

>  <energy>  (32) 
-7.99

>  <cluster_rmsd>  (32) 
1.05

>  <cluster>  (32) 
3

$$$$

     RDKit          3D

 44 46  0  0  0  0  0  0  0  0999 V2000
  138.4370   70.5780  222.4720 C   0  0  0  0  0  0  0  0  0  0  0  0
  138.9010   71.6480  223.4400 C   0  0  2  0  0  0  0  0  0  0  0  0
  139.5800   72.7030  222.7150 N   0  0  0  0  0  0  0  0  0  0  0  0
  140.6750   72.4040  221.8720 C   0  0  0  0  0  0  0  0  0  0  0  0
  141.0370   71.1970  221.7720 O   0  0  0  0  0  0  0  0  0  0  0  0
  141.4390   73.3990  221.0920 C   0  0  0  0  0  0  0  0  0  0  0  0
  141.3670   74.7330  221.5880 N   0  0  0  0  0  0  0  0  0  0  0  0
  140.1480   75.4530  221.6680 C   0  0  0  0  0  0  0  0  0  0  0  0
  139.0330   74.9920  221.3190 O   0  0  0  0  0  0  0  0  0  0  0  0
  140.2030   76.8280  222.1930 C   0  0  0  0  0  0  0  0  0  0  0  0
  139.0580   77.5030  222.5320 C   0  0  0  0  0  0  0  0  0  0  0  0
  139.0430   78.7910  223.0290 C   0  0  0  0  0  0  0  0  0  0  0  0
  140.2760   79.4150  223.1820 C   0  0  0  0  0  0  0  0  0  0  0  0
  140.2670   80.7020  223.6770 C   0  0  0  0  0  0  0  0  0  0  0  0
  141.4660   81.3740  223.8520 C   0  0  0  0  0  0  0  0  0  0  0  0
  142.6210   80.7000  223.5120 C   0  0  0  0  0  0  0  0  0  0  0  0
  142.6280   79.4110  223.0160 C   0  0  0  0  0  0  0  0  0  0  0  0
  141.4200   78.7360  222.8400 C   0  0  0  0  0  0  0  0  0  0  0  0
  141.3740   77.4800  222.3610 N   0  0  0  0  0  0  0  0  0  0  0  0
  139.7050   71.0800  224.5440 C   0  0  0  0  0  0  0  0  0  0  0  0
  139.5260   69.7560  224.9510 C   0  0  0  0  0  0  0  0  0  0  0  0
  140.2640   69.2050  225.9780 C   0  0  0  0  0  0  0  0  0  0  0  0
  141.2130   69.9520  226.6450 C   0  0  0  0  0  0  0  0  0  0  0  0
  141.4060   71.2790  226.2510 C   0  0  0  0  0  0  0  0  0  0  0  0
  140.6620   71.8240  225.2210 C   0  0  0  0  0  0  0  0  0  0  0  0
  138.0612   69.7115  223.0358 H   0  0  0  0  0  0  0  0  0  0  0  0
  137.6325   70.9803  221.8388 H   0  0  0  0  0  0  0  0  0  0  0  0
  139.2805   70.2657  221.8388 H   0  0  0  0  0  0  0  0  0  0  0  0
  138.0237   72.0977  223.9279 H   0  0  0  0  0  0  0  0  0  0  0  0
  139.2350   73.6580  222.8250 H   0  0  0  0  0  0  0  0  0  0  0  0
  142.4954   73.0923  221.0881 H   0  0  0  0  0  0  0  0  0  0  0  0
  140.9877   73.4177  220.0890 H   0  0  0  0  0  0  0  0  0  0  0  0
  142.2640   75.1990  221.9110 H   0  0  0  0  0  0  0  0  0  0  0  0
  138.0951   76.9878  222.4001 H   0  0  0  0  0  0  0  0  0  0  0  0
  138.1026   79.2981  223.2908 H   0  0  0  0  0  0  0  0  0  0  0  0
  139.3152   81.1914  223.9310 H   0  0  0  0  0  0  0  0  0  0  0  0
  141.4958   82.4009  224.2452 H   0  0  0  0  0  0  0  0  0  0  0  0
  143.5842   81.2150  223.6425 H   0  0  0  0  0  0  0  0  0  0  0  0
  143.5791   78.9203  222.7617 H   0  0  0  0  0  0  0  0  0  0  0  0
  138.7760   69.1356  224.4386 H   0  0  0  0  0  0  0  0  0  0  0  0
  140.0939   68.1578  226.2685 H   0  0  0  0  0  0  0  0  0  0  0  0
  141.8019   69.5149  227.4649 H   0  0  0  0  0  0  0  0  0  0  0  0
  142.1574   71.8960  226.7656 H   0  0  0  0  0  0  0  0  0  0  0  0
  140.8322   72.8714  224.9311 H   0  0  0  0  0  0  0  0  0  0  0  0
  1  2  1  0
  2  3  1  0
  3  4  1  0
  4  5  2  0
  4  6  1  0
  6  7  1  0
  7  8  1  0
  8  9  2  0
  8 10  1  0
 10 11  2  0
 11 12  1  0
 12 13  2  0
 13 14  1  0
 14 15  2  0
 15 16  1  0
 16 17  2  0
 17 18  1  0
 18 19  2  0
  2 20  1  0
 20 21  2  0
 21 22  1  0
 22 23  2  0
 23 24  1  0
 24 25  2  0
 19 10  1  0
 25 20  1  0
 18 13  1  0
  1 26  1  0
  1 27  1  0
  1 28  1  0
  2 29  1  1
  3 30  1  0
  6 31  1  0
  6 32  1  0
  7 33  1  0
 11 34  1  0
 12 35  1  0
 14 36  1  0
 15 37  1  0
 16 38  1  0
 17 39  1  0
 21 40  1  0
 22 41  1  0
 23 42  1  0
 24 43  1  0
 25 44  1  0
M  END
>  <smiles>  (33) 
C[C@H](NC(=O)CNC(=O)c1ccc2ccccc2n1)c1ccccc1

>  <score_type>  (33) 
oracle

>  <origin>  (33) 
autodockgpu

>  <m_score__min__energy>  (33) 
-8.6600000000000001

>  <m_primary>  (33) 
energy

>  <rmsd>  (33) 
9.743940931764937

>  <m_score__min__rmsd>  (33) 
9.743940931764937

>  <meeko>  (33) 
{"free_energy": -7.98, "intermolecular_energy": -9.48, "internal_energy": -1.9, "cluster_size": 24, "cluster_id": 3, "rank_in_cluster": 12}

>  <energy>  (33) 
-7.98

>  <cluster_rmsd>  (33) 
1.06

>  <cluster>  (33) 
3

$$$$

     RDKit          3D

 44 46  0  0  0  0  0  0  0  0999 V2000
  138.4330   70.3270  222.6570 C   0  0  0  0  0  0  0  0  0  0  0  0
  138.7450   71.5260  223.5300 C   0  0  2  0  0  0  0  0  0  0  0  0
  139.3440   72.5730  222.7280 N   0  0  0  0  0  0  0  0  0  0  0  0
  140.5260   72.3250  221.9920 C   0  0  0  0  0  0  0  0  0  0  0  0
  141.0340   71.1700  222.0540 O   0  0  0  0  0  0  0  0  0  0  0  0
  141.2210   73.3180  221.1470 C   0  0  0  0  0  0  0  0  0  0  0  0
  141.1820   74.6540  221.6380 N   0  0  0  0  0  0  0  0  0  0  0  0
  139.9780   75.3960  221.7390 C   0  0  0  0  0  0  0  0  0  0  0  0
  138.8480   74.9540  221.4130 O   0  0  0  0  0  0  0  0  0  0  0  0
  140.0680   76.7720  222.2560 C   0  0  0  0  0  0  0  0  0  0  0  0
  138.9430   77.4640  222.6300 C   0  0  0  0  0  0  0  0  0  0  0  0
  138.9610   78.7530  223.1220 C   0  0  0  0  0  0  0  0  0  0  0  0
  140.2060   79.3620  223.2330 C   0  0  0  0  0  0  0  0  0  0  0  0
  140.2300   80.6500  223.7240 C   0  0  0  0  0  0  0  0  0  0  0  0
  141.4430   81.3070  223.8570 C   0  0  0  0  0  0  0  0  0  0  0  0
  142.5770   80.6160  223.4830 C   0  0  0  0  0  0  0  0  0  0  0  0
  142.5520   79.3260  222.9920 C   0  0  0  0  0  0  0  0  0  0  0  0
  141.3300   78.6660  222.8580 C   0  0  0  0  0  0  0  0  0  0  0  0
  141.2520   77.4090  222.3850 N   0  0  0  0  0  0  0  0  0  0  0  0
  139.5540   71.1510  224.7110 C   0  0  0  0  0  0  0  0  0  0  0  0
  139.2120   70.0430  225.4890 C   0  0  0  0  0  0  0  0  0  0  0  0
  139.9510   69.6750  226.5940 C   0  0  0  0  0  0  0  0  0  0  0  0
  141.0650   70.3980  226.9710 C   0  0  0  0  0  0  0  0  0  0  0  0
  141.4220   71.5090  226.2040 C   0  0  0  0  0  0  0  0  0  0  0  0
  140.6760   71.8710  225.0980 C   0  0  0  0  0  0  0  0  0  0  0  0
  138.2071   69.4588  223.2936 H   0  0  0  0  0  0  0  0  0  0  0  0
  137.5635   70.5522  222.0219 H   0  0  0  0  0  0  0  0  0  0  0  0
  139.3019   70.0998  222.0219 H   0  0  0  0  0  0  0  0  0  0  0  0
  137.8069   71.9260  223.9424 H   0  0  0  0  0  0  0  0  0  0  0  0
  138.8820   73.4830  222.7060 H   0  0  0  0  0  0  0  0  0  0  0  0
  142.2752   73.0159  221.0613 H   0  0  0  0  0  0  0  0  0  0  0  0
  140.6915   73.3277  220.1829 H   0  0  0  0  0  0  0  0  0  0  0  0
  142.0930   75.1060  221.9420 H   0  0  0  0  0  0  0  0  0  0  0  0
  137.9696   76.9612  222.5317 H   0  0  0  0  0  0  0  0  0  0  0  0
  138.0361   79.2731  223.4120 H   0  0  0  0  0  0  0  0  0  0  0  0
  139.2935   81.1524  224.0080 H   0  0  0  0  0  0  0  0  0  0  0  0
  141.4992   82.3351  224.2441 H   0  0  0  0  0  0  0  0  0  0  0  0
  143.5506   81.1185  223.5810 H   0  0  0  0  0  0  0  0  0  0  0  0
  143.4880   78.8224  222.7087 H   0  0  0  0  0  0  0  0  0  0  0  0
  138.3293   69.4475  225.2131 H   0  0  0  0  0  0  0  0  0  0  0  0
  139.6493   68.7954  227.1815 H   0  0  0  0  0  0  0  0  0  0  0  0
  141.6557   70.1067  227.8521 H   0  0  0  0  0  0  0  0  0  0  0  0
  142.3056   72.1020  226.4827 H   0  0  0  0  0  0  0  0  0  0  0  0
  140.9786   72.7505  224.5106 H   0  0  0  0  0  0  0  0  0  0  0  0
  1  2  1  0
  2  3  1  0
  3  4  1  0
  4  5  2  0
  4  6  1  0
  6  7  1  0
  7  8  1  0
  8  9  2  0
  8 10  1  0
 10 11  2  0
 11 12  1  0
 12 13  2  0
 13 14  1  0
 14 15  2  0
 15 16  1  0
 16 17  2  0
 17 18  1  0
 18 19  2  0
  2 20  1  0
 20 21  2  0
 21 22  1  0
 22 23  2  0
 23 24  1  0
 24 25  2  0
 19 10  1  0
 25 20  1  0
 18 13  1  0
  1 26  1  0
  1 27  1  0
  1 28  1  0
  2 29  1  1
  3 30  1  0
  6 31  1  0
  6 32  1  0
  7 33  1  0
 11 34  1  0
 12 35  1  0
 14 36  1  0
 15 37  1  0
 16 38  1  0
 17 39  1  0
 21 40  1  0
 22 41  1  0
 23 42  1  0
 24 43  1  0
 25 44  1  0
M  END
>  <smiles>  (34) 
C[C@H](NC(=O)CNC(=O)c1ccc2ccccc2n1)c1ccccc1

>  <score_type>  (34) 
oracle

>  <origin>  (34) 
autodockgpu

>  <m_score__min__energy>  (34) 
-8.6600000000000001

>  <m_primary>  (34) 
energy

>  <rmsd>  (34) 
9.696124136833808

>  <m_score__min__rmsd>  (34) 
9.696124136833808

>  <meeko>  (34) 
{"free_energy": -8.0, "intermolecular_energy": -9.49, "internal_energy": -1.91, "cluster_size": 24, "cluster_id": 3, "rank_in_cluster": 9}

>  <energy>  (34) 
-7.98

>  <cluster_rmsd>  (34) 
1.04

>  <cluster>  (34) 
3

$$$$

     RDKit          3D

 44 46  0  0  0  0  0  0  0  0999 V2000
  140.1930   71.8230  223.4910 C   0  0  0  0  0  0  0  0  0  0  0  0
  139.6160   70.7440  224.3830 C   0  0  2  0  0  0  0  0  0  0  0  0
  138.1680   70.7960  224.3420 N   0  0  0  0  0  0  0  0  0  0  0  0
  137.4040   69.6140  224.4780 C   0  0  0  0  0  0  0  0  0  0  0  0
  138.0200   68.5230  224.6380 O   0  0  0  0  0  0  0  0  0  0  0  0
  135.9280   69.5530  224.4480 C   0  0  0  0  0  0  0  0  0  0  0  0
  135.2700   70.7110  224.9530 N   0  0  0  0  0  0  0  0  0  0  0  0
  134.2590   70.6440  225.9450 C   0  0  0  0  0  0  0  0  0  0  0  0
  133.8550   69.5750  226.4680 O   0  0  0  0  0  0  0  0  0  0  0  0
  133.6480   71.9100  226.3820 C   0  0  0  0  0  0  0  0  0  0  0  0
  132.4980   71.9220  227.1300 C   0  0  0  0  0  0  0  0  0  0  0  0
  131.8790   73.0740  227.5690 C   0  0  0  0  0  0  0  0  0  0  0  0
  132.4770   74.2790  227.2170 C   0  0  0  0  0  0  0  0  0  0  0  0
  131.8620   75.4330  227.6530 C   0  0  0  0  0  0  0  0  0  0  0  0
  132.4140   76.6630  227.3330 C   0  0  0  0  0  0  0  0  0  0  0  0
  133.5710   76.6570  226.5810 C   0  0  0  0  0  0  0  0  0  0  0  0
  134.1850   75.5010  226.1450 C   0  0  0  0  0  0  0  0  0  0  0  0
  133.6280   74.2630  226.4680 C   0  0  0  0  0  0  0  0  0  0  0  0
  134.1890   73.1080  226.0670 N   0  0  0  0  0  0  0  0  0  0  0  0
  140.1690   70.8080  225.7540 C   0  0  0  0  0  0  0  0  0  0  0  0
  140.9290   71.9050  226.1660 C   0  0  0  0  0  0  0  0  0  0  0  0
  141.4560   71.9870  227.4390 C   0  0  0  0  0  0  0  0  0  0  0  0
  141.2470   70.9770  228.3560 C   0  0  0  0  0  0  0  0  0  0  0  0
  140.4880   69.8720  227.9600 C   0  0  0  0  0  0  0  0  0  0  0  0
  139.9650   69.7980  226.6830 C   0  0  0  0  0  0  0  0  0  0  0  0
  140.6208   72.6230  224.1130 H   0  0  0  0  0  0  0  0  0  0  0  0
  140.9807   71.3914  222.8560 H   0  0  0  0  0  0  0  0  0  0  0  0
  139.3967   72.2384  222.8560 H   0  0  0  0  0  0  0  0  0  0  0  0
  139.9197   69.7592  223.9984 H   0  0  0  0  0  0  0  0  0  0  0  0
  137.7250   71.7080  224.2240 H   0  0  0  0  0  0  0  0  0  0  0  0
  135.6130   69.4089  223.4040 H   0  0  0  0  0  0  0  0  0  0  0  0
  135.6399   68.7216  225.1081 H   0  0  0  0  0  0  0  0  0  0  0  0
  135.5530   71.6590  224.5690 H   0  0  0  0  0  0  0  0  0  0  0  0
  132.0428   70.9564  227.3953 H   0  0  0  0  0  0  0  0  0  0  0  0
  130.9572   73.0410  228.1683 H   0  0  0  0  0  0  0  0  0  0  0  0
  130.9400   75.3779  228.2504 H   0  0  0  0  0  0  0  0  0  0  0  0
  131.9499   77.6037  227.6641 H   0  0  0  0  0  0  0  0  0  0  0  0
  134.0267   77.6224  226.3158 H   0  0  0  0  0  0  0  0  0  0  0  0
  135.1068   75.5548  225.5472 H   0  0  0  0  0  0  0  0  0  0  0  0
  141.1125   72.7257  225.4569 H   0  0  0  0  0  0  0  0  0  0  0  0
  142.0495   72.8676  227.7260 H   0  0  0  0  0  0  0  0  0  0  0  0
  141.6663   71.0398  229.3710 H   0  0  0  0  0  0  0  0  0  0  0  0
  140.3053   69.0534  228.6717 H   0  0  0  0  0  0  0  0  0  0  0  0
  139.3725   68.9168  226.3961 H   0  0  0  0  0  0  0  0  0  0  0  0
  1  2  1  0
  2  3  1  0
  3  4  1  0
  4  5  2  0
  4  6  1  0
  6  7  1  0
  7  8  1  0
  8  9  2  0
  8 10  1  0
 10 11  2  0
 11 12  1  0
 12 13  2  0
 13 14  1  0
 14 15  2  0
 15 16  1  0
 16 17  2  0
 17 18  1  0
 18 19  2  0
  2 20  1  0
 20 21  2  0
 21 22  1  0
 22 23  2  0
 23 24  1  0
 24 25  2  0
 19 10  1  0
 25 20  1  0
 18 13  1  0
  1 26  1  0
  1 27  1  0
  1 28  1  0
  2 29  1  6
  3 30  1  0
  6 31  1  0
  6 32  1  0
  7 33  1  0
 11 34  1  0
 12 35  1  0
 14 36  1  0
 15 37  1  0
 16 38  1  0
 17 39  1  0
 21 40  1  0
 22 41  1  0
 23 42  1  0
 24 43  1  0
 25 44  1  0
M  END
>  <smiles>  (35) 
C[C@H](NC(=O)CNC(=O)c1ccc2ccccc2n1)c1ccccc1

>  <score_type>  (35) 
oracle

>  <origin>  (35) 
autodockgpu

>  <m_score__min__energy>  (35) 
-8.6600000000000001

>  <m_primary>  (35) 
energy

>  <rmsd>  (35) 
10.240919840103105

>  <m_score__min__rmsd>  (35) 
10.240919840103105

>  <meeko>  (35) 
{"free_energy": -8.51, "intermolecular_energy": -10.0, "internal_energy": -1.25, "cluster_size": 8, "cluster_id": 2, "rank_in_cluster": 1}

>  <energy>  (35) 
-7.98

>  <cluster_rmsd>  (35) 
1.07

>  <cluster>  (35) 
3

$$$$

     RDKit          3D

 44 46  0  0  0  0  0  0  0  0999 V2000
  136.7900   76.4220  223.0760 C   0  0  0  0  0  0  0  0  0  0  0  0
  137.9770   76.3740  222.1360 C   0  0  2  0  0  0  0  0  0  0  0  0
  138.4330   75.0070  221.9930 N   0  0  0  0  0  0  0  0  0  0  0  0
  138.3060   74.3340  220.7560 C   0  0  0  0  0  0  0  0  0  0  0  0
  137.7900   74.9600  219.7880 O   0  0  0  0  0  0  0  0  0  0  0  0
  138.7340   72.9420  220.5020 C   0  0  0  0  0  0  0  0  0  0  0  0
  138.8820   72.1380  221.6690 N   0  0  0  0  0  0  0  0  0  0  0  0
  139.8500   72.4110  222.6670 C   0  0  0  0  0  0  0  0  0  0  0  0
  140.6550   73.3750  222.6240 O   0  0  0  0  0  0  0  0  0  0  0  0
  139.9090   71.5030  223.8250 C   0  0  0  0  0  0  0  0  0  0  0  0
  139.4190   70.2230  223.7480 C   0  0  0  0  0  0  0  0  0  0  0  0
  139.4450   69.3250  224.7950 C   0  0  0  0  0  0  0  0  0  0  0  0
  140.0050   69.7720  225.9870 C   0  0  0  0  0  0  0  0  0  0  0  0
  140.0330   68.8790  227.0370 C   0  0  0  0  0  0  0  0  0  0  0  0
  140.5810   69.2680  228.2490 C   0  0  0  0  0  0  0  0  0  0  0  0
  141.0750   70.5540  228.3330 C   0  0  0  0  0  0  0  0  0  0  0  0
  141.0460   71.4470  227.2800 C   0  0  0  0  0  0  0  0  0  0  0  0
  140.4940   71.0530  226.0600 C   0  0  0  0  0  0  0  0  0  0  0  0
  140.4430   71.8860  225.0050 N   0  0  0  0  0  0  0  0  0  0  0  0
  139.0440   77.3120  222.5480 C   0  0  0  0  0  0  0  0  0  0  0  0
  138.7280   78.5550  223.1020 C   0  0  0  0  0  0  0  0  0  0  0  0
  139.7060   79.4460  223.4930 C   0  0  0  0  0  0  0  0  0  0  0  0
  141.0440   79.1350  223.3480 C   0  0  0  0  0  0  0  0  0  0  0  0
  141.3770   77.8950  222.7960 C   0  0  0  0  0  0  0  0  0  0  0  0
  140.3910   77.0090  222.4070 C   0  0  0  0  0  0  0  0  0  0  0  0
  137.1457   76.4076  224.1168 H   0  0  0  0  0  0  0  0  0  0  0  0
  136.2175   77.3440  222.8969 H   0  0  0  0  0  0  0  0  0  0  0  0
  136.1449   75.5492  222.8969 H   0  0  0  0  0  0  0  0  0  0  0  0
  137.6627   76.7201  221.1403 H   0  0  0  0  0  0  0  0  0  0  0  0
  138.8550   74.5550  222.8070 H   0  0  0  0  0  0  0  0  0  0  0  0
  137.9840   72.4669  219.8525 H   0  0  0  0  0  0  0  0  0  0  0  0
  139.7311   73.0047  220.0417 H   0  0  0  0  0  0  0  0  0  0  0  0
  138.2360   71.3040  221.7900 H   0  0  0  0  0  0  0  0  0  0  0  0
  138.9795   69.8938  222.7949 H   0  0  0  0  0  0  0  0  0  0  0  0
  139.0429   68.3063  224.6922 H   0  0  0  0  0  0  0  0  0  0  0  0
  139.6235   67.8655  226.9137 H   0  0  0  0  0  0  0  0  0  0  0  0
  140.6205   68.5812  229.1073 H   0  0  0  0  0  0  0  0  0  0  0  0
  141.5137   70.8841  229.2862 H   0  0  0  0  0  0  0  0  0  0  0  0
  141.4548   72.4610  227.4017 H   0  0  0  0  0  0  0  0  0  0  0  0
  137.6708   78.8307  223.2299 H   0  0  0  0  0  0  0  0  0  0  0  0
  139.4169   80.4153  223.9252 H   0  0  0  0  0  0  0  0  0  0  0  0
  141.8259   79.8438  223.6584 H   0  0  0  0  0  0  0  0  0  0  0  0
  142.4350   77.6217  222.6700 H   0  0  0  0  0  0  0  0  0  0  0  0
  140.6806   76.0397  221.9750 H   0  0  0  0  0  0  0  0  0  0  0  0
  1  2  1  0
  2  3  1  0
  3  4  1  0
  4  5  2  0
  4  6  1  0
  6  7  1  0
  7  8  1  0
  8  9  2  0
  8 10  1  0
 10 11  2  0
 11 12  1  0
 12 13  2  0
 13 14  1  0
 14 15  2  0
 15 16  1  0
 16 17  2  0
 17 18  1  0
 18 19  2  0
  2 20  1  0
 20 21  2  0
 21 22  1  0
 22 23  2  0
 23 24  1  0
 24 25  2  0
 19 10  1  0
 25 20  1  0
 18 13  1  0
  1 26  1  0
  1 27  1  0
  1 28  1  0
  2 29  1  6
  3 30  1  0
  6 31  1  0
  6 32  1  0
  7 33  1  0
 11 34  1  0
 12 35  1  0
 14 36  1  0
 15 37  1  0
 16 38  1  0
 17 39  1  0
 21 40  1  0
 22 41  1  0
 23 42  1  0
 24 43  1  0
 25 44  1  0
M  END
>  <smiles>  (36) 
C[C@H](NC(=O)CNC(=O)c1ccc2ccccc2n1)c1ccccc1

>  <score_type>  (36) 
oracle

>  <origin>  (36) 
autodockgpu

>  <m_score__min__energy>  (36) 
-8.6600000000000001

>  <m_primary>  (36) 
energy

>  <rmsd>  (36) 
4.817195773055596

>  <m_score__min__rmsd>  (36) 
4.817195773055596

>  <meeko>  (36) 
{"free_energy": -7.98, "intermolecular_energy": -9.47, "internal_energy": -1.71, "cluster_size": 13, "cluster_id": 1, "rank_in_cluster": 5}

>  <energy>  (36) 
-7.97

>  <cluster_rmsd>  (36) 
1.06

>  <cluster>  (36) 
3

$$$$

     RDKit          3D

 44 46  0  0  0  0  0  0  0  0999 V2000
  138.4160   70.6290  222.3740 C   0  0  0  0  0  0  0  0  0  0  0  0
  138.9780   71.5480  223.4380 C   0  0  2  0  0  0  0  0  0  0  0  0
  139.7630   72.5950  222.8160 N   0  0  0  0  0  0  0  0  0  0  0  0
  140.7060   72.2830  221.8100 C   0  0  0  0  0  0  0  0  0  0  0  0
  140.8380   71.0720  221.4730 O   0  0  0  0  0  0  0  0  0  0  0  0
  141.5590   73.2680  221.1140 C   0  0  0  0  0  0  0  0  0  0  0  0
  141.4440   74.6050  221.5930 N   0  0  0  0  0  0  0  0  0  0  0  0
  140.1980   75.2730  221.7010 C   0  0  0  0  0  0  0  0  0  0  0  0
  139.0930   74.7580  221.3940 O   0  0  0  0  0  0  0  0  0  0  0  0
  140.2090   76.6560  222.2050 C   0  0  0  0  0  0  0  0  0  0  0  0
  139.0400   77.3180  222.4850 C   0  0  0  0  0  0  0  0  0  0  0  0
  138.9840   78.6130  222.9590 C   0  0  0  0  0  0  0  0  0  0  0  0
  140.1990   79.2600  223.1530 C   0  0  0  0  0  0  0  0  0  0  0  0
  140.1490   80.5540  223.6270 C   0  0  0  0  0  0  0  0  0  0  0  0
  141.3290   81.2480  223.8400 C   0  0  0  0  0  0  0  0  0  0  0  0
  142.5080   80.5880  223.5600 C   0  0  0  0  0  0  0  0  0  0  0  0
  142.5560   79.2920  223.0860 C   0  0  0  0  0  0  0  0  0  0  0  0
  141.3670   78.5940  222.8720 C   0  0  0  0  0  0  0  0  0  0  0  0
  141.3610   77.3300  222.4120 N   0  0  0  0  0  0  0  0  0  0  0  0
  139.7160   70.7990  224.4790 C   0  0  0  0  0  0  0  0  0  0  0  0
  140.7470   71.4050  225.2000 C   0  0  0  0  0  0  0  0  0  0  0  0
  141.4490   70.7260  226.1750 C   0  0  0  0  0  0  0  0  0  0  0  0
  141.1510   69.4110  226.4740 C   0  0  0  0  0  0  0  0  0  0  0  0
  140.1210   68.7900  225.7620 C   0  0  0  0  0  0  0  0  0  0  0  0
  139.4230   69.4770  224.7860 C   0  0  0  0  0  0  0  0  0  0  0  0
  137.8997   69.7847  222.8542 H   0  0  0  0  0  0  0  0  0  0  0  0
  137.7038   71.1859  221.7474 H   0  0  0  0  0  0  0  0  0  0  0  0
  139.2362   70.2487  221.7474 H   0  0  0  0  0  0  0  0  0  0  0  0
  138.1465   72.0331  223.9702 H   0  0  0  0  0  0  0  0  0  0  0  0
  139.6040   73.5570  223.1190 H   0  0  0  0  0  0  0  0  0  0  0  0
  142.6069   72.9532  221.2274 H   0  0  0  0  0  0  0  0  0  0  0  0
  141.2205   73.2848  220.0675 H   0  0  0  0  0  0  0  0  0  0  0  0
  142.3290   75.1140  221.8810 H   0  0  0  0  0  0  0  0  0  0  0  0
  138.0916   76.7851  222.3220 H   0  0  0  0  0  0  0  0  0  0  0  0
  138.0255   79.1086  223.1727 H   0  0  0  0  0  0  0  0  0  0  0  0
  139.1799   81.0314  223.8343 H   0  0  0  0  0  0  0  0  0  0  0  0
  141.3261   82.2816  224.2164 H   0  0  0  0  0  0  0  0  0  0  0  0
  143.4566   81.1207  223.7224 H   0  0  0  0  0  0  0  0  0  0  0  0
  143.5245   78.8134  222.8786 H   0  0  0  0  0  0  0  0  0  0  0  0
  141.0066   72.4521  224.9849 H   0  0  0  0  0  0  0  0  0  0  0  0
  142.2554   71.2381  226.7204 H   0  0  0  0  0  0  0  0  0  0  0  0
  141.7088   68.8675  227.2509 H   0  0  0  0  0  0  0  0  0  0  0  0
  139.8629   67.7433  225.9805 H   0  0  0  0  0  0  0  0  0  0  0  0
  138.6171   68.9645  224.2402 H   0  0  0  0  0  0  0  0  0  0  0  0
  1  2  1  0
  2  3  1  0
  3  4  1  0
  4  5  2  0
  4  6  1  0
  6  7  1  0
  7  8  1  0
  8  9  2  0
  8 10  1  0
 10 11  2  0
 11 12  1  0
 12 13  2  0
 13 14  1  0
 14 15  2  0
 15 16  1  0
 16 17  2  0
 17 18  1  0
 18 19  2  0
  2 20  1  0
 20 21  2  0
 21 22  1  0
 22 23  2  0
 23 24  1  0
 24 25  2  0
 19 10  1  0
 25 20  1  0
 18 13  1  0
  1 26  1  0
  1 27  1  0
  1 28  1  0
  2 29  1  1
  3 30  1  0
  6 31  1  0
  6 32  1  0
  7 33  1  0
 11 34  1  0
 12 35  1  0
 14 36  1  0
 15 37  1  0
 16 38  1  0
 17 39  1  0
 21 40  1  0
 22 41  1  0
 23 42  1  0
 24 43  1  0
 25 44  1  0
M  END
>  <smiles>  (37) 
C[C@H](NC(=O)CNC(=O)c1ccc2ccccc2n1)c1ccccc1

>  <score_type>  (37) 
oracle

>  <origin>  (37) 
autodockgpu

>  <m_score__min__energy>  (37) 
-8.6600000000000001

>  <m_primary>  (37) 
energy

>  <rmsd>  (37) 
9.930831580957406

>  <m_score__min__rmsd>  (37) 
9.930831580957406

>  <meeko>  (37) 
{"free_energy": -7.96, "intermolecular_energy": -9.45, "internal_energy": -1.72, "cluster_size": 24, "cluster_id": 3, "rank_in_cluster": 19}

>  <energy>  (37) 
-7.97

>  <cluster_rmsd>  (37) 
1.06

>  <cluster>  (37) 
3

$$$$

     RDKit          3D

 44 46  0  0  0  0  0  0  0  0999 V2000
  138.4790   70.4900  222.5040 C   0  0  0  0  0  0  0  0  0  0  0  0
  138.8820   71.5990  223.4540 C   0  0  2  0  0  0  0  0  0  0  0  0
  139.5530   72.6530  222.7200 N   0  0  0  0  0  0  0  0  0  0  0  0
  140.6710   72.3610  221.9060 C   0  0  0  0  0  0  0  0  0  0  0  0
  141.0600   71.1600  221.8380 O   0  0  0  0  0  0  0  0  0  0  0  0
  141.4290   73.3560  221.1200 C   0  0  0  0  0  0  0  0  0  0  0  0
  141.3550   74.6910  221.6130 N   0  0  0  0  0  0  0  0  0  0  0  0
  140.1360   75.4100  221.6890 C   0  0  0  0  0  0  0  0  0  0  0  0
  139.0210   74.9470  221.3390 O   0  0  0  0  0  0  0  0  0  0  0  0
  140.1890   76.7860  222.2100 C   0  0  0  0  0  0  0  0  0  0  0  0
  139.0440   77.4570  222.5600 C   0  0  0  0  0  0  0  0  0  0  0  0
  139.0280   78.7450  223.0540 C   0  0  0  0  0  0  0  0  0  0  0  0
  140.2590   79.3760  223.1940 C   0  0  0  0  0  0  0  0  0  0  0  0
  140.2490   80.6640  223.6870 C   0  0  0  0  0  0  0  0  0  0  0  0
  141.4460   81.3420  223.8490 C   0  0  0  0  0  0  0  0  0  0  0  0
  142.6010   80.6720  223.4990 C   0  0  0  0  0  0  0  0  0  0  0  0
  142.6100   79.3830  223.0060 C   0  0  0  0  0  0  0  0  0  0  0  0
  141.4030   78.7010  222.8430 C   0  0  0  0  0  0  0  0  0  0  0  0
  141.3590   77.4440  222.3670 N   0  0  0  0  0  0  0  0  0  0  0  0
  139.6680   71.0850  224.5980 C   0  0  0  0  0  0  0  0  0  0  0  0
  140.6620   71.8670  225.1900 C   0  0  0  0  0  0  0  0  0  0  0  0
  141.4070   71.4090  226.2570 C   0  0  0  0  0  0  0  0  0  0  0  0
  141.1920   70.1500  226.7800 C   0  0  0  0  0  0  0  0  0  0  0  0
  140.2010   69.3540  226.2000 C   0  0  0  0  0  0  0  0  0  0  0  0
  139.4590   69.8200  225.1300 C   0  0  0  0  0  0  0  0  0  0  0  0
  138.1593   69.6103  223.0819 H   0  0  0  0  0  0  0  0  0  0  0  0
  137.6484   70.8340  221.8701 H   0  0  0  0  0  0  0  0  0  0  0  0
  139.3367   70.2205  221.8701 H   0  0  0  0  0  0  0  0  0  0  0  0
  137.9776   72.0363  223.9021 H   0  0  0  0  0  0  0  0  0  0  0  0
  139.1860   73.6020  222.8030 H   0  0  0  0  0  0  0  0  0  0  0  0
  142.4862   73.0524  221.1125 H   0  0  0  0  0  0  0  0  0  0  0  0
  140.9738   73.3707  220.1187 H   0  0  0  0  0  0  0  0  0  0  0  0
  142.2510   75.1580  221.9360 H   0  0  0  0  0  0  0  0  0  0  0  0
  138.0822   76.9370  222.4395 H   0  0  0  0  0  0  0  0  0  0  0  0
  138.0877   79.2480  223.3238 H   0  0  0  0  0  0  0  0  0  0  0  0
  139.2974   81.1493  223.9496 H   0  0  0  0  0  0  0  0  0  0  0  0
  141.4749   82.3699  224.2397 H   0  0  0  0  0  0  0  0  0  0  0  0
  143.5630   81.1918  223.6191 H   0  0  0  0  0  0  0  0  0  0  0  0
  143.5611   78.8967  222.7435 H   0  0  0  0  0  0  0  0  0  0  0  0
  140.8562   72.8751  224.7950 H   0  0  0  0  0  0  0  0  0  0  0  0
  142.1816   72.0549  226.6961 H   0  0  0  0  0  0  0  0  0  0  0  0
  141.7850   69.7831  227.6307 H   0  0  0  0  0  0  0  0  0  0  0  0
  140.0091   68.3468  226.5983 H   0  0  0  0  0  0  0  0  0  0  0  0
  138.6854   69.1733  224.6904 H   0  0  0  0  0  0  0  0  0  0  0  0
  1  2  1  0
  2  3  1  0
  3  4  1  0
  4  5  2  0
  4  6  1  0
  6  7  1  0
  7  8  1  0
  8  9  2  0
  8 10  1  0
 10 11  2  0
 11 12  1  0
 12 13  2  0
 13 14  1  0
 14 15  2  0
 15 16  1  0
 16 17  2  0
 17 18  1  0
 18 19  2  0
  2 20  1  0
 20 21  2  0
 21 22  1  0
 22 23  2  0
 23 24  1  0
 24 25  2  0
 19 10  1  0
 25 20  1  0
 18 13  1  0
  1 26  1  0
  1 27  1  0
  1 28  1  0
  2 29  1  1
  3 30  1  0
  6 31  1  0
  6 32  1  0
  7 33  1  0
 11 34  1  0
 12 35  1  0
 14 36  1  0
 15 37  1  0
 16 38  1  0
 17 39  1  0
 21 40  1  0
 22 41  1  0
 23 42  1  0
 24 43  1  0
 25 44  1  0
M  END
>  <smiles>  (38) 
C[C@H](NC(=O)CNC(=O)c1ccc2ccccc2n1)c1ccccc1

>  <score_type>  (38) 
oracle

>  <origin>  (38) 
autodockgpu

>  <m_score__min__energy>  (38) 
-8.6600000000000001

>  <m_primary>  (38) 
energy

>  <rmsd>  (38) 
9.856137272217456

>  <m_score__min__rmsd>  (38) 
9.856137272217456

>  <meeko>  (38) 
{"free_energy": -8.01, "intermolecular_energy": -9.51, "internal_energy": -1.9, "cluster_size": 24, "cluster_id": 3, "rank_in_cluster": 4}

>  <energy>  (38) 
-7.97

>  <cluster_rmsd>  (38) 
1.07

>  <cluster>  (38) 
3

$$$$

     RDKit          3D

 44 46  0  0  0  0  0  0  0  0999 V2000
  140.1310   71.8450  223.5230 C   0  0  0  0  0  0  0  0  0  0  0  0
  139.6060   70.7480  224.4270 C   0  0  2  0  0  0  0  0  0  0  0  0
  138.1580   70.7800  224.4440 N   0  0  0  0  0  0  0  0  0  0  0  0
  137.4170   69.5980  224.6720 C   0  0  0  0  0  0  0  0  0  0  0  0
  138.0550   68.5230  224.8620 O   0  0  0  0  0  0  0  0  0  0  0  0
  135.9420   69.5160  224.7080 C   0  0  0  0  0  0  0  0  0  0  0  0
  135.2880   70.6930  225.1710 N   0  0  0  0  0  0  0  0  0  0  0  0
  134.1560   70.6530  226.0230 C   0  0  0  0  0  0  0  0  0  0  0  0
  133.6310   69.5930  226.4490 O   0  0  0  0  0  0  0  0  0  0  0  0
  133.5640   71.9380  226.4290 C   0  0  0  0  0  0  0  0  0  0  0  0
  132.4180   71.9850  227.1830 C   0  0  0  0  0  0  0  0  0  0  0  0
  131.8150   73.1560  227.5950 C   0  0  0  0  0  0  0  0  0  0  0  0
  132.4260   74.3430  227.2070 C   0  0  0  0  0  0  0  0  0  0  0  0
  131.8280   75.5160  227.6150 C   0  0  0  0  0  0  0  0  0  0  0  0
  132.3930   76.7300  227.2590 C   0  0  0  0  0  0  0  0  0  0  0  0
  133.5440   76.6900  226.5000 C   0  0  0  0  0  0  0  0  0  0  0  0
  134.1420   75.5140  226.0920 C   0  0  0  0  0  0  0  0  0  0  0  0
  133.5730   74.2930  226.4520 C   0  0  0  0  0  0  0  0  0  0  0  0
  134.1170   73.1210  226.0790 N   0  0  0  0  0  0  0  0  0  0  0  0
  140.2130   70.8080  225.7740 C   0  0  0  0  0  0  0  0  0  0  0  0
  140.1410   69.7140  226.6390 C   0  0  0  0  0  0  0  0  0  0  0  0
  140.6990   69.7460  227.9010 C   0  0  0  0  0  0  0  0  0  0  0  0
  141.3550   70.8730  228.3540 C   0  0  0  0  0  0  0  0  0  0  0  0
  141.4370   71.9770  227.5010 C   0  0  0  0  0  0  0  0  0  0  0  0
  140.8750   71.9360  226.2390 C   0  0  0  0  0  0  0  0  0  0  0  0
  140.5251   72.6685  224.1366 H   0  0  0  0  0  0  0  0  0  0  0  0
  140.9346   71.4437  222.8881 H   0  0  0  0  0  0  0  0  0  0  0  0
  139.3143   72.2191  222.8881 H   0  0  0  0  0  0  0  0  0  0  0  0
  139.9076   69.7708  224.0219 H   0  0  0  0  0  0  0  0  0  0  0  0
  137.6970   71.6790  224.2980 H   0  0  0  0  0  0  0  0  0  0  0  0
  135.5863   69.3059  223.6885 H   0  0  0  0  0  0  0  0  0  0  0  0
  135.6943   68.7217  225.4275 H   0  0  0  0  0  0  0  0  0  0  0  0
  135.6690   71.6350  224.8640 H   0  0  0  0  0  0  0  0  0  0  0  0
  131.9525   71.0325  227.4764 H   0  0  0  0  0  0  0  0  0  0  0  0
  130.8966   73.1505  228.2003 H   0  0  0  0  0  0  0  0  0  0  0  0
  130.9090   75.4885  228.2188 H   0  0  0  0  0  0  0  0  0  0  0  0
  131.9429   77.6848  227.5684 H   0  0  0  0  0  0  0  0  0  0  0  0
  134.0088   77.6423  226.2050 H   0  0  0  0  0  0  0  0  0  0  0  0
  135.0606   75.5403  225.4874 H   0  0  0  0  0  0  0  0  0  0  0  0
  139.6253   68.8015  226.3053 H   0  0  0  0  0  0  0  0  0  0  0  0
  140.6201   68.8636  228.5531 H   0  0  0  0  0  0  0  0  0  0  0  0
  141.8011   70.9013  229.3591 H   0  0  0  0  0  0  0  0  0  0  0  0
  141.9540   72.8878  227.8374 H   0  0  0  0  0  0  0  0  0  0  0  0
  140.9542   72.8186  225.5873 H   0  0  0  0  0  0  0  0  0  0  0  0
  1  2  1  0
  2  3  1  0
  3  4  1  0
  4  5  2  0
  4  6  1  0
  6  7  1  0
  7  8  1  0
  8  9  2  0
  8 10  1  0
 10 11  2  0
 11 12  1  0
 12 13  2  0
 13 14  1  0
 14 15  2  0
 15 16  1  0
 16 17  2  0
 17 18  1  0
 18 19  2  0
  2 20  1  0
 20 21  2  0
 21 22  1  0
 22 23  2  0
 23 24  1  0
 24 25  2  0
 19 10  1  0
 25 20  1  0
 18 13  1  0
  1 26  1  0
  1 27  1  0
  1 28  1  0
  2 29  1  6
  3 30  1  0
  6 31  1  0
  6 32  1  0
  7 33  1  0
 11 34  1  0
 12 35  1  0
 14 36  1  0
 15 37  1  0
 16 38  1  0
 17 39  1  0
 21 40  1  0
 22 41  1  0
 23 42  1  0
 24 43  1  0
 25 44  1  0
M  END
>  <smiles>  (39) 
C[C@H](NC(=O)CNC(=O)c1ccc2ccccc2n1)c1ccccc1

>  <score_type>  (39) 
oracle

>  <origin>  (39) 
autodockgpu

>  <m_score__min__energy>  (39) 
-8.6600000000000001

>  <m_primary>  (39) 
energy

>  <rmsd>  (39) 
10.14673932975007

>  <m_score__min__rmsd>  (39) 
10.14673932975007

>  <meeko>  (39) 
{"free_energy": -8.43, "intermolecular_energy": -9.92, "internal_energy": -1.24, "cluster_size": 8, "cluster_id": 2, "rank_in_cluster": 5}

>  <energy>  (39) 
-7.97

>  <cluster_rmsd>  (39) 
1.05

>  <cluster>  (39) 
3

$$$$

     RDKit          3D

 44 46  0  0  0  0  0  0  0  0999 V2000
  142.0190   78.0980  219.2130 C   0  0  0  0  0  0  0  0  0  0  0  0
  141.7470   77.4760  220.5680 C   0  0  2  0  0  0  0  0  0  0  0  0
  140.5610   76.6470  220.4980 N   0  0  0  0  0  0  0  0  0  0  0  0
  140.4770   75.4520  221.2470 C   0  0  0  0  0  0  0  0  0  0  0  0
  141.4590   75.1350  221.9760 O   0  0  0  0  0  0  0  0  0  0  0  0
  139.3190   74.5330  221.2470 C   0  0  0  0  0  0  0  0  0  0  0  0
  139.3010   73.5930  222.3180 N   0  0  0  0  0  0  0  0  0  0  0  0
  140.2090   72.5070  222.3970 C   0  0  0  0  0  0  0  0  0  0  0  0
  141.1050   72.2740  221.5470 O   0  0  0  0  0  0  0  0  0  0  0  0
  140.0860   71.5990  223.5490 C   0  0  0  0  0  0  0  0  0  0  0  0
  139.4030   70.4130  223.4480 C   0  0  0  0  0  0  0  0  0  0  0  0
  139.2530   69.5210  224.4900 C   0  0  0  0  0  0  0  0  0  0  0  0
  139.8370   69.8720  225.7020 C   0  0  0  0  0  0  0  0  0  0  0  0
  139.6900   68.9840  226.7470 C   0  0  0  0  0  0  0  0  0  0  0  0
  140.2520   69.2810  227.9780 C   0  0  0  0  0  0  0  0  0  0  0  0
  140.9400   70.4720  228.0860 C   0  0  0  0  0  0  0  0  0  0  0  0
  141.0860   71.3600  227.0390 C   0  0  0  0  0  0  0  0  0  0  0  0
  140.5200   71.0600  225.8000 C   0  0  0  0  0  0  0  0  0  0  0  0
  140.6350   71.8920  224.7490 N   0  0  0  0  0  0  0  0  0  0  0  0
  141.6920   78.4950  221.6400 C   0  0  0  0  0  0  0  0  0  0  0  0
  141.4250   78.1280  222.9610 C   0  0  0  0  0  0  0  0  0  0  0  0
  141.3680   79.0600  223.9770 C   0  0  0  0  0  0  0  0  0  0  0  0
  141.5760   80.4000  223.7180 C   0  0  0  0  0  0  0  0  0  0  0  0
  141.8460   80.7840  222.4020 C   0  0  0  0  0  0  0  0  0  0  0  0
  141.9000   79.8440  221.3900 C   0  0  0  0  0  0  0  0  0  0  0  0
  142.4563   79.0980  219.3497 H   0  0  0  0  0  0  0  0  0  0  0  0
  142.7220   77.4639  218.6529 H   0  0  0  0  0  0  0  0  0  0  0  0
  141.0761   78.1836  218.6529 H   0  0  0  0  0  0  0  0  0  0  0  0
  142.5881   76.8210  220.8392 H   0  0  0  0  0  0  0  0  0  0  0  0
  139.7930   76.9600  219.9020 H   0  0  0  0  0  0  0  0  0  0  0  0
  138.4023   75.1379  221.3074 H   0  0  0  0  0  0  0  0  0  0  0  0
  139.3911   73.9447  220.3203 H   0  0  0  0  0  0  0  0  0  0  0  0
  138.5780   73.7180  223.0850 H   0  0  0  0  0  0  0  0  0  0  0  0
  138.9483   70.1585  222.4793 H   0  0  0  0  0  0  0  0  0  0  0  0
  138.6988   68.5787  224.3679 H   0  0  0  0  0  0  0  0  0  0  0  0
  139.1310   68.0474  226.6042 H   0  0  0  0  0  0  0  0  0  0  0  0
  140.1538   68.5961  228.8332 H   0  0  0  0  0  0  0  0  0  0  0  0
  141.3949   70.7268  229.0546 H   0  0  0  0  0  0  0  0  0  0  0  0
  141.6445   72.2970  227.1809 H   0  0  0  0  0  0  0  0  0  0  0  0
  141.2556   77.0672  223.1978 H   0  0  0  0  0  0  0  0  0  0  0  0
  141.1544   78.7316  225.0049 H   0  0  0  0  0  0  0  0  0  0  0  0
  141.5304   81.1452  224.5258 H   0  0  0  0  0  0  0  0  0  0  0  0
  142.0173   81.8453  222.1689 H   0  0  0  0  0  0  0  0  0  0  0  0
  142.1129   80.1731  220.3622 H   0  0  0  0  0  0  0  0  0  0  0  0
  1  2  1  0
  2  3  1  0
  3  4  1  0
  4  5  2  0
  4  6  1  0
  6  7  1  0
  7  8  1  0
  8  9  2  0
  8 10  1  0
 10 11  2  0
 11 12  1  0
 12 13  2  0
 13 14  1  0
 14 15  2  0
 15 16  1  0
 16 17  2  0
 17 18  1  0
 18 19  2  0
  2 20  1  0
 20 21  2  0
 21 22  1  0
 22 23  2  0
 23 24  1  0
 24 25  2  0
 19 10  1  0
 25 20  1  0
 18 13  1  0
  1 26  1  0
  1 27  1  0
  1 28  1  0
  2 29  1  1
  3 30  1  0
  6 31  1  0
  6 32  1  0
  7 33  1  0
 11 34  1  0
 12 35  1  0
 14 36  1  0
 15 37  1  0
 16 38  1  0
 17 39  1  0
 21 40  1  0
 22 41  1  0
 23 42  1  0
 24 43  1  0
 25 44  1  0
M  END
>  <smiles>  (40) 
C[C@H](NC(=O)CNC(=O)c1ccc2ccccc2n1)c1ccccc1

>  <score_type>  (40) 
oracle

>  <origin>  (40) 
autodockgpu

>  <m_score__min__energy>  (40) 
-8.6600000000000001

>  <m_primary>  (40) 
energy

>  <rmsd>  (40) 
3.9543365487921056

>  <m_score__min__rmsd>  (40) 
3.9543365487921056

>  <meeko>  (40) 
{"free_energy": -8.66, "intermolecular_energy": -10.15, "internal_energy": -0.94, "cluster_size": 13, "cluster_id": 1, "rank_in_cluster": 1}

>  <energy>  (40) 
-7.96

>  <cluster_rmsd>  (40) 
1.07

>  <cluster>  (40) 
3

$$$$

     RDKit          3D

 44 46  0  0  0  0  0  0  0  0999 V2000
  136.4400   76.0540  223.0060 C   0  0  0  0  0  0  0  0  0  0  0  0
  137.6210   75.9080  222.0690 C   0  0  2  0  0  0  0  0  0  0  0  0
  138.0580   74.5270  222.0420 N   0  0  0  0  0  0  0  0  0  0  0  0
  137.6840   73.6770  220.9760 C   0  0  0  0  0  0  0  0  0  0  0  0
  136.9660   74.1590  220.0550 O   0  0  0  0  0  0  0  0  0  0  0  0
  138.0700   72.2560  220.8520 C   0  0  0  0  0  0  0  0  0  0  0  0
  138.4650   71.6330  222.0700 N   0  0  0  0  0  0  0  0  0  0  0  0
  139.5980   72.0550  222.8110 C   0  0  0  0  0  0  0  0  0  0  0  0
  140.3480   73.0050  222.4730 O   0  0  0  0  0  0  0  0  0  0  0  0
  139.9080   71.3270  224.0530 C   0  0  0  0  0  0  0  0  0  0  0  0
  140.6960   71.8890  225.0260 C   0  0  0  0  0  0  0  0  0  0  0  0
  141.0220   71.2590  226.2100 C   0  0  0  0  0  0  0  0  0  0  0  0
  140.5080   69.9820  226.4000 C   0  0  0  0  0  0  0  0  0  0  0  0
  140.8320   69.3480  227.5810 C   0  0  0  0  0  0  0  0  0  0  0  0
  140.3470   68.0730  227.8260 C   0  0  0  0  0  0  0  0  0  0  0  0
  139.5540   67.5030  226.8510 C   0  0  0  0  0  0  0  0  0  0  0  0
  139.2310   68.1390  225.6690 C   0  0  0  0  0  0  0  0  0  0  0  0
  139.7200   69.4230  225.4240 C   0  0  0  0  0  0  0  0  0  0  0  0
  139.4340   70.0840  224.2880 N   0  0  0  0  0  0  0  0  0  0  0  0
  138.7040   76.8630  222.3950 C   0  0  0  0  0  0  0  0  0  0  0  0
  140.0450   76.4890  222.2780 C   0  0  0  0  0  0  0  0  0  0  0  0
  141.0710   77.3620  222.5770 C   0  0  0  0  0  0  0  0  0  0  0  0
  140.8030   78.6470  223.0050 C   0  0  0  0  0  0  0  0  0  0  0  0
  139.4660   79.0380  223.1260 C   0  0  0  0  0  0  0  0  0  0  0  0
  138.4440   78.1570  222.8250 C   0  0  0  0  0  0  0  0  0  0  0  0
  136.7908   76.0106  224.0476 H   0  0  0  0  0  0  0  0  0  0  0  0
  135.9459   77.0201  222.8254 H   0  0  0  0  0  0  0  0  0  0  0  0
  135.7255   75.2373  222.8254 H   0  0  0  0  0  0  0  0  0  0  0  0
  137.3056   76.1713  221.0486 H   0  0  0  0  0  0  0  0  0  0  0  0
  138.6480   74.1970  222.8080 H   0  0  0  0  0  0  0  0  0  0  0  0
  137.2095   71.7022  220.4485 H   0  0  0  0  0  0  0  0  0  0  0  0
  138.9510   72.2322  220.1938 H   0  0  0  0  0  0  0  0  0  0  0  0
  137.8830   70.8240  222.4340 H   0  0  0  0  0  0  0  0  0  0  0  0
  141.0909   72.9008  224.8521 H   0  0  0  0  0  0  0  0  0  0  0  0
  141.6573   71.7438  226.9659 H   0  0  0  0  0  0  0  0  0  0  0  0
  141.4704   69.8503  228.3228 H   0  0  0  0  0  0  0  0  0  0  0  0
  140.5840   67.5384  228.7577 H   0  0  0  0  0  0  0  0  0  0  0  0
  139.1594   66.4910  227.0243 H   0  0  0  0  0  0  0  0  0  0  0  0
  138.5932   67.6377  224.9261 H   0  0  0  0  0  0  0  0  0  0  0  0
  140.2895   75.4716  221.9385 H   0  0  0  0  0  0  0  0  0  0  0  0
  142.1146   77.0302  222.4731 H   0  0  0  0  0  0  0  0  0  0  0  0
  141.6193   79.3444  223.2444 H   0  0  0  0  0  0  0  0  0  0  0  0
  139.2250   80.0566  223.4640 H   0  0  0  0  0  0  0  0  0  0  0  0
  137.4005   78.4892  222.9286 H   0  0  0  0  0  0  0  0  0  0  0  0
  1  2  1  0
  2  3  1  0
  3  4  1  0
  4  5  2  0
  4  6  1  0
  6  7  1  0
  7  8  1  0
  8  9  2  0
  8 10  1  0
 10 11  2  0
 11 12  1  0
 12 13  2  0
 13 14  1  0
 14 15  2  0
 15 16  1  0
 16 17  2  0
 17 18  1  0
 18 19  2  0
  2 20  1  0
 20 21  2  0
 21 22  1  0
 22 23  2  0
 23 24  1  0
 24 25  2  0
 19 10  1  0
 25 20  1  0
 18 13  1  0
  1 26  1  0
  1 27  1  0
  1 28  1  0
  2 29  1  6
  3 30  1  0
  6 31  1  0
  6 32  1  0
  7 33  1  0
 11 34  1  0
 12 35  1  0
 14 36  1  0
 15 37  1  0
 16 38  1  0
 17 39  1  0
 21 40  1  0
 22 41  1  0
 23 42  1  0
 24 43  1  0
 25 44  1  0
M  END
>  <smiles>  (41) 
C[C@H](NC(=O)CNC(=O)c1ccc2ccccc2n1)c1ccccc1

>  <score_type>  (41) 
oracle

>  <origin>  (41) 
autodockgpu

>  <m_score__min__energy>  (41) 
-8.6600000000000001

>  <m_primary>  (41) 
energy

>  <rmsd>  (41) 
4.907009433417875

>  <m_score__min__rmsd>  (41) 
4.907009433417875

>  <meeko>  (41) 
{"free_energy": -7.75, "intermolecular_energy": -9.24, "internal_energy": -2.01, "cluster_size": 5, "cluster_id": 4, "rank_in_cluster": 1}

>  <energy>  (41) 
-7.95

>  <cluster_rmsd>  (41) 
1.07

>  <cluster>  (41) 
3

$$$$

     RDKit          3D

 44 46  0  0  0  0  0  0  0  0999 V2000
  138.3890   70.3850  222.6020 C   0  0  0  0  0  0  0  0  0  0  0  0
  138.7610   71.5460  223.5010 C   0  0  2  0  0  0  0  0  0  0  0  0
  139.3860   72.5920  222.7160 N   0  0  0  0  0  0  0  0  0  0  0  0
  140.5690   72.3310  221.9860 C   0  0  0  0  0  0  0  0  0  0  0  0
  141.0550   71.1660  222.0380 O   0  0  0  0  0  0  0  0  0  0  0  0
  141.2890   73.3210  221.1590 C   0  0  0  0  0  0  0  0  0  0  0  0
  141.2400   74.6580  221.6480 N   0  0  0  0  0  0  0  0  0  0  0  0
  140.0320   75.3930  221.7450 C   0  0  0  0  0  0  0  0  0  0  0  0
  138.9050   74.9430  221.4180 O   0  0  0  0  0  0  0  0  0  0  0  0
  140.1120   76.7700  222.2600 C   0  0  0  0  0  0  0  0  0  0  0  0
  138.9820   77.4570  222.6260 C   0  0  0  0  0  0  0  0  0  0  0  0
  138.9900   78.7470  223.1160 C   0  0  0  0  0  0  0  0  0  0  0  0
  140.2320   79.3620  223.2320 C   0  0  0  0  0  0  0  0  0  0  0  0
  140.2460   80.6520  223.7210 C   0  0  0  0  0  0  0  0  0  0  0  0
  141.4550   81.3150  223.8590 C   0  0  0  0  0  0  0  0  0  0  0  0
  142.5950   80.6290  223.4930 C   0  0  0  0  0  0  0  0  0  0  0  0
  142.5790   79.3380  223.0050 C   0  0  0  0  0  0  0  0  0  0  0  0
  141.3610   78.6720  222.8650 C   0  0  0  0  0  0  0  0  0  0  0  0
  141.2920   77.4140  222.3940 N   0  0  0  0  0  0  0  0  0  0  0  0
  139.5750   71.1100  224.6560 C   0  0  0  0  0  0  0  0  0  0  0  0
  140.6620   71.8700  225.0920 C   0  0  0  0  0  0  0  0  0  0  0  0
  141.4360   71.4830  226.1670 C   0  0  0  0  0  0  0  0  0  0  0  0
  141.1570   70.3180  226.8550 C   0  0  0  0  0  0  0  0  0  0  0  0
  140.0720   69.5450  226.4320 C   0  0  0  0  0  0  0  0  0  0  0  0
  139.3020   69.9410  225.3540 C   0  0  0  0  0  0  0  0  0  0  0  0
  138.1112   69.5178  223.2191 H   0  0  0  0  0  0  0  0  0  0  0  0
  137.5376   70.6711  221.9670 H   0  0  0  0  0  0  0  0  0  0  0  0
  139.2482   70.1230  221.9670 H   0  0  0  0  0  0  0  0  0  0  0  0
  137.8457   71.9684  223.9412 H   0  0  0  0  0  0  0  0  0  0  0  0
  138.9410   73.5110  222.7020 H   0  0  0  0  0  0  0  0  0  0  0  0
  142.3444   73.0162  221.1020 H   0  0  0  0  0  0  0  0  0  0  0  0
  140.7861   73.3310  220.1808 H   0  0  0  0  0  0  0  0  0  0  0  0
  142.1480   75.1160  221.9520 H   0  0  0  0  0  0  0  0  0  0  0  0
  138.0118   76.9491  222.5227 H   0  0  0  0  0  0  0  0  0  0  0  0
  138.0610   79.2628  223.4005 H   0  0  0  0  0  0  0  0  0  0  0  0
  139.3054   81.1500  223.9990 H   0  0  0  0  0  0  0  0  0  0  0  0
  141.5039   82.3443  224.2439 H   0  0  0  0  0  0  0  0  0  0  0  0
  143.5655   81.1366  223.5953 H   0  0  0  0  0  0  0  0  0  0  0  0
  143.5191   78.8381  222.7287 H   0  0  0  0  0  0  0  0  0  0  0  0
  140.9083   72.8031  224.5640 H   0  0  0  0  0  0  0  0  0  0  0  0
  142.2846   72.1092  226.4796 H   0  0  0  0  0  0  0  0  0  0  0  0
  141.7720   70.0071  227.7124 H   0  0  0  0  0  0  0  0  0  0  0  0
  139.8283   68.6124  226.9620 H   0  0  0  0  0  0  0  0  0  0  0  0
  138.4530   69.3151  225.0419 H   0  0  0  0  0  0  0  0  0  0  0  0
  1  2  1  0
  2  3  1  0
  3  4  1  0
  4  5  2  0
  4  6  1  0
  6  7  1  0
  7  8  1  0
  8  9  2  0
  8 10  1  0
 10 11  2  0
 11 12  1  0
 12 13  2  0
 13 14  1  0
 14 15  2  0
 15 16  1  0
 16 17  2  0
 17 18  1  0
 18 19  2  0
  2 20  1  0
 20 21  2  0
 21 22  1  0
 22 23  2  0
 23 24  1  0
 24 25  2  0
 19 10  1  0
 25 20  1  0
 18 13  1  0
  1 26  1  0
  1 27  1  0
  1 28  1  0
  2 29  1  1
  3 30  1  0
  6 31  1  0
  6 32  1  0
  7 33  1  0
 11 34  1  0
 12 35  1  0
 14 36  1  0
 15 37  1  0
 16 38  1  0
 17 39  1  0
 21 40  1  0
 22 41  1  0
 23 42  1  0
 24 43  1  0
 25 44  1  0
M  END
>  <smiles>  (42) 
C[C@H](NC(=O)CNC(=O)c1ccc2ccccc2n1)c1ccccc1

>  <score_type>  (42) 
oracle

>  <origin>  (42) 
autodockgpu

>  <m_score__min__energy>  (42) 
-8.6600000000000001

>  <m_primary>  (42) 
energy

>  <rmsd>  (42) 
9.85591020868657

>  <m_score__min__rmsd>  (42) 
9.85591020868657

>  <meeko>  (42) 
{"free_energy": -7.97, "intermolecular_energy": -9.46, "internal_energy": -1.92, "cluster_size": 24, "cluster_id": 3, "rank_in_cluster": 15}

>  <energy>  (42) 
-7.95

>  <cluster_rmsd>  (42) 
1.06

>  <cluster>  (42) 
3

$$$$

     RDKit          3D

 44 46  0  0  0  0  0  0  0  0999 V2000
  137.3340   76.3920  222.7600 C   0  0  0  0  0  0  0  0  0  0  0  0
  138.6710   76.4940  222.0560 C   0  0  2  0  0  0  0  0  0  0  0  0
  139.3130   75.1960  222.0330 N   0  0  0  0  0  0  0  0  0  0  0  0
  140.2380   74.8710  221.0140 C   0  0  0  0  0  0  0  0  0  0  0  0
  140.4860   75.7440  220.1350 O   0  0  0  0  0  0  0  0  0  0  0  0
  140.9460   73.5790  220.8940 C   0  0  0  0  0  0  0  0  0  0  0  0
  140.8960   72.7580  222.0570 N   0  0  0  0  0  0  0  0  0  0  0  0
  139.6780   72.2870  222.6070 C   0  0  0  0  0  0  0  0  0  0  0  0
  138.5440   72.5390  222.1290 O   0  0  0  0  0  0  0  0  0  0  0  0
  139.7560   71.4490  223.8160 C   0  0  0  0  0  0  0  0  0  0  0  0
  139.2330   70.1810  223.8350 C   0  0  0  0  0  0  0  0  0  0  0  0
  139.2750   69.3480  224.9350 C   0  0  0  0  0  0  0  0  0  0  0  0
  139.8880   69.8520  226.0760 C   0  0  0  0  0  0  0  0  0  0  0  0
  139.9320   69.0250  227.1790 C   0  0  0  0  0  0  0  0  0  0  0  0
  140.5320   69.4730  228.3440 C   0  0  0  0  0  0  0  0  0  0  0  0
  141.0590   70.7480  228.3310 C   0  0  0  0  0  0  0  0  0  0  0  0
  141.0140   71.5750  227.2270 C   0  0  0  0  0  0  0  0  0  0  0  0
  140.4100   71.1220  226.0540 C   0  0  0  0  0  0  0  0  0  0  0  0
  140.3410   71.8900  224.9510 N   0  0  0  0  0  0  0  0  0  0  0  0
  139.5180   77.5600  222.6350 C   0  0  0  0  0  0  0  0  0  0  0  0
  140.9010   77.3960  222.7400 C   0  0  0  0  0  0  0  0  0  0  0  0
  141.7110   78.3760  223.2770 C   0  0  0  0  0  0  0  0  0  0  0  0
  141.1750   79.5640  223.7330 C   0  0  0  0  0  0  0  0  0  0  0  0
  139.7920   79.7450  223.6350 C   0  0  0  0  0  0  0  0  0  0  0  0
  138.9880   78.7580  223.0960 C   0  0  0  0  0  0  0  0  0  0  0  0
  137.4910   76.4040  223.8487 H   0  0  0  0  0  0  0  0  0  0  0  0
  136.7016   77.2445  222.4713 H   0  0  0  0  0  0  0  0  0  0  0  0
  136.8383   75.4534  222.4713 H   0  0  0  0  0  0  0  0  0  0  0  0
  138.5057   76.7962  221.0113 H   0  0  0  0  0  0  0  0  0  0  0  0
  139.0840   74.5350  222.7770 H   0  0  0  0  0  0  0  0  0  0  0  0
  140.4965   73.0190  220.0607 H   0  0  0  0  0  0  0  0  0  0  0  0
  142.0067   73.8220  220.7329 H   0  0  0  0  0  0  0  0  0  0  0  0
  141.8110   72.4900  222.5230 H   0  0  0  0  0  0  0  0  0  0  0  0
  138.7518   69.8058  222.9198 H   0  0  0  0  0  0  0  0  0  0  0  0
  138.8448   68.3359  224.9097 H   0  0  0  0  0  0  0  0  0  0  0  0
  139.4938   68.0171  227.1336 H   0  0  0  0  0  0  0  0  0  0  0  0
  140.5861   68.8393  229.2415 H   0  0  0  0  0  0  0  0  0  0  0  0
  141.5391   71.1242  229.2464 H   0  0  0  0  0  0  0  0  0  0  0  0
  141.4510   72.5835  227.2717 H   0  0  0  0  0  0  0  0  0  0  0  0
  141.3572   76.4601  222.3850 H   0  0  0  0  0  0  0  0  0  0  0  0
  142.7962   78.2087  223.3425 H   0  0  0  0  0  0  0  0  0  0  0  0
  141.8184   80.3465  224.1616 H   0  0  0  0  0  0  0  0  0  0  0  0
  139.3391   80.6823  223.9904 H   0  0  0  0  0  0  0  0  0  0  0  0
  137.9028   78.9255  223.0307 H   0  0  0  0  0  0  0  0  0  0  0  0
  1  2  1  0
  2  3  1  0
  3  4  1  0
  4  5  2  0
  4  6  1  0
  6  7  1  0
  7  8  1  0
  8  9  2  0
  8 10  1  0
 10 11  2  0
 11 12  1  0
 12 13  2  0
 13 14  1  0
 14 15  2  0
 15 16  1  0
 16 17  2  0
 17 18  1  0
 18 19  2  0
  2 20  1  0
 20 21  2  0
 21 22  1  0
 22 23  2  0
 23 24  1  0
 24 25  2  0
 19 10  1  0
 25 20  1  0
 18 13  1  0
  1 26  1  0
  1 27  1  0
  1 28  1  0
  2 29  1  6
  3 30  1  0
  6 31  1  0
  6 32  1  0
  7 33  1  0
 11 34  1  0
 12 35  1  0
 14 36  1  0
 15 37  1  0
 16 38  1  0
 17 39  1  0
 21 40  1  0
 22 41  1  0
 23 42  1  0
 24 43  1  0
 25 44  1  0
M  END
>  <smiles>  (43) 
C[C@H](NC(=O)CNC(=O)c1ccc2ccccc2n1)c1ccccc1

>  <score_type>  (43) 
oracle

>  <origin>  (43) 
autodockgpu

>  <m_score__min__energy>  (43) 
-8.6600000000000001

>  <m_primary>  (43) 
energy

>  <rmsd>  (43) 
4.707927519624873

>  <m_score__min__rmsd>  (43) 
4.707927519624873

>  <meeko>  (43) 
{"free_energy": -7.93, "intermolecular_energy": -9.42, "internal_energy": -1.71, "cluster_size": 13, "cluster_id": 1, "rank_in_cluster": 6}

>  <energy>  (43) 
-7.94

>  <cluster_rmsd>  (43) 
1.06

>  <cluster>  (43) 
3

$$$$

     RDKit          3D

 44 46  0  0  0  0  0  0  0  0999 V2000
  140.1500   71.8720  223.4170 C   0  0  0  0  0  0  0  0  0  0  0  0
  139.5660   70.8150  224.3310 C   0  0  2  0  0  0  0  0  0  0  0  0
  138.1190   70.8600  224.2720 N   0  0  0  0  0  0  0  0  0  0  0  0
  137.3580   69.6780  224.4220 C   0  0  0  0  0  0  0  0  0  0  0  0
  137.9760   68.5930  224.6110 O   0  0  0  0  0  0  0  0  0  0  0  0
  135.8830   69.6100  224.3750 C   0  0  0  0  0  0  0  0  0  0  0  0
  135.2130   70.7600  224.8850 N   0  0  0  0  0  0  0  0  0  0  0  0
  134.2750   70.6890  225.9450 C   0  0  0  0  0  0  0  0  0  0  0  0
  133.9500   69.6250  226.5300 O   0  0  0  0  0  0  0  0  0  0  0  0
  133.6440   71.9460  226.3800 C   0  0  0  0  0  0  0  0  0  0  0  0
  132.4850   71.9410  227.1150 C   0  0  0  0  0  0  0  0  0  0  0  0
  131.8460   73.0840  227.5520 C   0  0  0  0  0  0  0  0  0  0  0  0
  132.4340   74.2970  227.2120 C   0  0  0  0  0  0  0  0  0  0  0  0
  131.8000   75.4420  227.6460 C   0  0  0  0  0  0  0  0  0  0  0  0
  132.3410   76.6790  227.3370 C   0  0  0  0  0  0  0  0  0  0  0  0
  133.5060   76.6910  226.5980 C   0  0  0  0  0  0  0  0  0  0  0  0
  134.1400   75.5440  226.1650 C   0  0  0  0  0  0  0  0  0  0  0  0
  133.5940   74.2980  226.4760 C   0  0  0  0  0  0  0  0  0  0  0  0
  134.1740   73.1520  226.0770 N   0  0  0  0  0  0  0  0  0  0  0  0
  140.1030   70.9190  225.7060 C   0  0  0  0  0  0  0  0  0  0  0  0
  139.8060   69.9460  226.6640 C   0  0  0  0  0  0  0  0  0  0  0  0
  140.2950   70.0220  227.9520 C   0  0  0  0  0  0  0  0  0  0  0  0
  141.1020   71.0730  228.3400 C   0  0  0  0  0  0  0  0  0  0  0  0
  141.4090   72.0540  227.3940 C   0  0  0  0  0  0  0  0  0  0  0  0
  140.9150   71.9710  226.1060 C   0  0  0  0  0  0  0  0  0  0  0  0
  140.5941   72.6757  224.0227 H   0  0  0  0  0  0  0  0  0  0  0  0
  140.9262   71.4197  222.7823 H   0  0  0  0  0  0  0  0  0  0  0  0
  139.3539   72.2883  222.7823 H   0  0  0  0  0  0  0  0  0  0  0  0
  139.8771   69.8212  223.9767 H   0  0  0  0  0  0  0  0  0  0  0  0
  137.6740   71.7680  224.1290 H   0  0  0  0  0  0  0  0  0  0  0  0
  135.5803   69.4753  223.3261 H   0  0  0  0  0  0  0  0  0  0  0  0
  135.5919   68.7704  225.0233 H   0  0  0  0  0  0  0  0  0  0  0  0
  135.4320   71.7030  224.4510 H   0  0  0  0  0  0  0  0  0  0  0  0
  132.0388   70.9687  227.3711 H   0  0  0  0  0  0  0  0  0  0  0  0
  130.9176   73.0373  228.1401 H   0  0  0  0  0  0  0  0  0  0  0  0
  130.8721   75.3735  228.2328 H   0  0  0  0  0  0  0  0  0  0  0  0
  131.8620   77.6126  227.6669 H   0  0  0  0  0  0  0  0  0  0  0  0
  133.9518   77.6632  226.3411 H   0  0  0  0  0  0  0  0  0  0  0  0
  135.0686   75.6115  225.5792 H   0  0  0  0  0  0  0  0  0  0  0  0
  139.1653   69.0969  226.3838 H   0  0  0  0  0  0  0  0  0  0  0  0
  140.0390   69.2363  228.6780 H   0  0  0  0  0  0  0  0  0  0  0  0
  141.4927   71.1361  229.3663 H   0  0  0  0  0  0  0  0  0  0  0  0
  142.0506   72.9014  227.6773 H   0  0  0  0  0  0  0  0  0  0  0  0
  141.1714   72.7573  225.3808 H   0  0  0  0  0  0  0  0  0  0  0  0
  1  2  1  0
  2  3  1  0
  3  4  1  0
  4  5  2  0
  4  6  1  0
  6  7  1  0
  7  8  1  0
  8  9  2  0
  8 10  1  0
 10 11  2  0
 11 12  1  0
 12 13  2  0
 13 14  1  0
 14 15  2  0
 15 16  1  0
 16 17  2  0
 17 18  1  0
 18 19  2  0
  2 20  1  0
 20 21  2  0
 21 22  1  0
 22 23  2  0
 23 24  1  0
 24 25  2  0
 19 10  1  0
 25 20  1  0
 18 13  1  0
  1 26  1  0
  1 27  1  0
  1 28  1  0
  2 29  1  6
  3 30  1  0
  6 31  1  0
  6 32  1  0
  7 33  1  0
 11 34  1  0
 12 35  1  0
 14 36  1  0
 15 37  1  0
 16 38  1  0
 17 39  1  0
 21 40  1  0
 22 41  1  0
 23 42  1  0
 24 43  1  0
 25 44  1  0
M  END
>  <smiles>  (44) 
C[C@H](NC(=O)CNC(=O)c1ccc2ccccc2n1)c1ccccc1

>  <score_type>  (44) 
oracle

>  <origin>  (44) 
autodockgpu

>  <m_score__min__energy>  (44) 
-8.6600000000000001

>  <m_primary>  (44) 
energy

>  <rmsd>  (44) 
10.045466268214689

>  <m_score__min__rmsd>  (44) 
10.045466268214689

>  <meeko>  (44) 
{"free_energy": -8.48, "intermolecular_energy": -9.97, "internal_energy": -1.24, "cluster_size": 8, "cluster_id": 2, "rank_in_cluster": 3}

>  <energy>  (44) 
-7.94

>  <cluster_rmsd>  (44) 
1.08

>  <cluster>  (44) 
3

$$$$

     RDKit          3D

 44 46  0  0  0  0  0  0  0  0999 V2000
  138.3780   70.6220  222.4260 C   0  0  0  0  0  0  0  0  0  0  0  0
  138.9110   71.5980  223.4550 C   0  0  2  0  0  0  0  0  0  0  0  0
  139.6660   72.6430  222.7930 N   0  0  0  0  0  0  0  0  0  0  0  0
  140.6630   72.3170  221.8450 C   0  0  0  0  0  0  0  0  0  0  0  0
  140.8700   71.0960  221.5950 O   0  0  0  0  0  0  0  0  0  0  0  0
  141.4920   73.3000  221.1160 C   0  0  0  0  0  0  0  0  0  0  0  0
  141.4010   74.6360  221.6010 N   0  0  0  0  0  0  0  0  0  0  0  0
  140.1730   75.3410  221.6710 C   0  0  0  0  0  0  0  0  0  0  0  0
  139.0640   74.8630  221.3230 O   0  0  0  0  0  0  0  0  0  0  0  0
  140.2090   76.7210  222.1840 C   0  0  0  0  0  0  0  0  0  0  0  0
  139.0520   77.4020  222.4680 C   0  0  0  0  0  0  0  0  0  0  0  0
  139.0190   78.6950  222.9510 C   0  0  0  0  0  0  0  0  0  0  0  0
  140.2450   79.3180  223.1500 C   0  0  0  0  0  0  0  0  0  0  0  0
  140.2180   80.6100  223.6320 C   0  0  0  0  0  0  0  0  0  0  0  0
  141.4110   81.2810  223.8510 C   0  0  0  0  0  0  0  0  0  0  0  0
  142.5770   80.6010  223.5680 C   0  0  0  0  0  0  0  0  0  0  0  0
  142.6030   79.3080  223.0850 C   0  0  0  0  0  0  0  0  0  0  0  0
  141.4010   78.6330  222.8650 C   0  0  0  0  0  0  0  0  0  0  0  0
  141.3730   77.3730  222.3970 N   0  0  0  0  0  0  0  0  0  0  0  0
  139.6680   70.9120  224.5250 C   0  0  0  0  0  0  0  0  0  0  0  0
  139.3830   69.5870  224.8640 C   0  0  0  0  0  0  0  0  0  0  0  0
  140.0760   68.9260  225.8580 C   0  0  0  0  0  0  0  0  0  0  0  0
  141.0830   69.5600  226.5580 C   0  0  0  0  0  0  0  0  0  0  0  0
  141.3810   70.8860  226.2310 C   0  0  0  0  0  0  0  0  0  0  0  0
  140.6830   71.5400  225.2330 C   0  0  0  0  0  0  0  0  0  0  0  0
  137.9114   69.7676  222.9382 H   0  0  0  0  0  0  0  0  0  0  0  0
  137.6295   71.1254  221.7964 H   0  0  0  0  0  0  0  0  0  0  0  0
  139.2061   70.2644  221.7964 H   0  0  0  0  0  0  0  0  0  0  0  0
  138.0649   72.0787  223.9678 H   0  0  0  0  0  0  0  0  0  0  0  0
  139.4470   73.6130  223.0260 H   0  0  0  0  0  0  0  0  0  0  0  0
  142.5424   72.9812  221.1871 H   0  0  0  0  0  0  0  0  0  0  0  0
  141.1126   73.3193  220.0837 H   0  0  0  0  0  0  0  0  0  0  0  0
  142.2910   75.1170  221.9220 H   0  0  0  0  0  0  0  0  0  0  0  0
  138.0943   76.8873  222.3010 H   0  0  0  0  0  0  0  0  0  0  0  0
  138.0695   79.2065  223.1675 H   0  0  0  0  0  0  0  0  0  0  0  0
  139.2576   81.1039  223.8409 H   0  0  0  0  0  0  0  0  0  0  0  0
  141.4270   82.3120  224.2342 H   0  0  0  0  0  0  0  0  0  0  0  0
  143.5349   81.1150  223.7356 H   0  0  0  0  0  0  0  0  0  0  0  0
  143.5630   78.8136  222.8752 H   0  0  0  0  0  0  0  0  0  0  0  0
  138.5849   69.0562  224.3243 H   0  0  0  0  0  0  0  0  0  0  0  0
  139.8230   67.8821  226.0951 H   0  0  0  0  0  0  0  0  0  0  0  0
  141.6358   69.0359  227.3515 H   0  0  0  0  0  0  0  0  0  0  0  0
  142.1790   71.4144  226.7733 H   0  0  0  0  0  0  0  0  0  0  0  0
  140.9382   72.5830  224.9944 H   0  0  0  0  0  0  0  0  0  0  0  0
  1  2  1  0
  2  3  1  0
  3  4  1  0
  4  5  2  0
  4  6  1  0
  6  7  1  0
  7  8  1  0
  8  9  2  0
  8 10  1  0
 10 11  2  0
 11 12  1  0
 12 13  2  0
 13 14  1  0
 14 15  2  0
 15 16  1  0
 16 17  2  0
 17 18  1  0
 18 19  2  0
  2 20  1  0
 20 21  2  0
 21 22  1  0
 22 23  2  0
 23 24  1  0
 24 25  2  0
 19 10  1  0
 25 20  1  0
 18 13  1  0
  1 26  1  0
  1 27  1  0
  1 28  1  0
  2 29  1  1
  3 30  1  0
  6 31  1  0
  6 32  1  0
  7 33  1  0
 11 34  1  0
 12 35  1  0
 14 36  1  0
 15 37  1  0
 16 38  1  0
 17 39  1  0
 21 40  1  0
 22 41  1  0
 23 42  1  0
 24 43  1  0
 25 44  1  0
M  END
>  <smiles>  (45) 
C[C@H](NC(=O)CNC(=O)c1ccc2ccccc2n1)c1ccccc1

>  <score_type>  (45) 
oracle

>  <origin>  (45) 
autodockgpu

>  <m_score__min__energy>  (45) 
-8.6600000000000001

>  <m_primary>  (45) 
energy

>  <rmsd>  (45) 
9.794751986909935

>  <m_score__min__rmsd>  (45) 
9.794751986909935

>  <meeko>  (45) 
{"free_energy": -7.99, "intermolecular_energy": -9.48, "internal_energy": -1.81, "cluster_size": 24, "cluster_id": 3, "rank_in_cluster": 11}

>  <energy>  (45) 
-7.94

>  <cluster_rmsd>  (45) 
1.08

>  <cluster>  (45) 
3

$$$$

     RDKit          3D

 44 46  0  0  0  0  0  0  0  0999 V2000
  136.6190   76.0610  223.0970 C   0  0  0  0  0  0  0  0  0  0  0  0
  137.7960   76.0560  222.1430 C   0  0  2  0  0  0  0  0  0  0  0  0
  138.3480   74.7190  222.0530 N   0  0  0  0  0  0  0  0  0  0  0  0
  138.0570   73.8970  220.9400 C   0  0  0  0  0  0  0  0  0  0  0  0
  137.3090   74.3640  220.0350 O   0  0  0  0  0  0  0  0  0  0  0  0
  138.5610   72.5220  220.7490 C   0  0  0  0  0  0  0  0  0  0  0  0
  138.8510   71.8170  221.9530 N   0  0  0  0  0  0  0  0  0  0  0  0
  139.8730   72.2230  222.8480 C   0  0  0  0  0  0  0  0  0  0  0  0
  140.6060   73.2280  222.6720 O   0  0  0  0  0  0  0  0  0  0  0  0
  140.0810   71.4090  224.0570 C   0  0  0  0  0  0  0  0  0  0  0  0
  140.8060   71.8880  225.1190 C   0  0  0  0  0  0  0  0  0  0  0  0
  141.0360   71.1750  226.2780 C   0  0  0  0  0  0  0  0  0  0  0  0
  140.4900   69.8990  226.3440 C   0  0  0  0  0  0  0  0  0  0  0  0
  140.7180   69.1820  227.5000 C   0  0  0  0  0  0  0  0  0  0  0  0
  140.1960   67.9040  227.6230 C   0  0  0  0  0  0  0  0  0  0  0  0
  139.4660   67.4160  226.5590 C   0  0  0  0  0  0  0  0  0  0  0  0
  139.2400   68.1350  225.4030 C   0  0  0  0  0  0  0  0  0  0  0  0
  139.7650   69.4220  225.2800 C   0  0  0  0  0  0  0  0  0  0  0  0
  139.5720   70.1630  224.1740 N   0  0  0  0  0  0  0  0  0  0  0  0
  138.7980   77.0840  222.5010 C   0  0  0  0  0  0  0  0  0  0  0  0
  138.4000   78.3270  223.0000 C   0  0  0  0  0  0  0  0  0  0  0  0
  139.3170   79.3010  223.3390 C   0  0  0  0  0  0  0  0  0  0  0  0
  140.6710   79.0770  223.1950 C   0  0  0  0  0  0  0  0  0  0  0  0
  141.0870   77.8400  222.6970 C   0  0  0  0  0  0  0  0  0  0  0  0
  140.1620   76.8690  222.3590 C   0  0  0  0  0  0  0  0  0  0  0  0
  136.9872   76.0594  224.1336 H   0  0  0  0  0  0  0  0  0  0  0  0
  136.0115   76.9617  222.9250 H   0  0  0  0  0  0  0  0  0  0  0  0
  136.0038   75.1655  222.9250 H   0  0  0  0  0  0  0  0  0  0  0  0
  137.4468   76.3346  221.1378 H   0  0  0  0  0  0  0  0  0  0  0  0
  138.9560   74.4000  222.8090 H   0  0  0  0  0  0  0  0  0  0  0  0
  137.8002   71.9530  220.1946 H   0  0  0  0  0  0  0  0  0  0  0  0
  139.5145   72.6150  220.2085 H   0  0  0  0  0  0  0  0  0  0  0  0
  138.2750   70.9570  222.1840 H   0  0  0  0  0  0  0  0  0  0  0  0
  141.2290   72.9005  225.0420 H   0  0  0  0  0  0  0  0  0  0  0  0
  141.6223   71.5959  227.1081 H   0  0  0  0  0  0  0  0  0  0  0  0
  141.3091   69.6208  228.3174 H   0  0  0  0  0  0  0  0  0  0  0  0
  140.3570   67.3040  228.5308 H   0  0  0  0  0  0  0  0  0  0  0  0
  139.0431   66.4035  226.6359 H   0  0  0  0  0  0  0  0  0  0  0  0
  138.6503   67.6967  224.5844 H   0  0  0  0  0  0  0  0  0  0  0  0
  137.3272   78.5347  223.1260 H   0  0  0  0  0  0  0  0  0  0  0  0
  138.9644   80.2674  223.7286 H   0  0  0  0  0  0  0  0  0  0  0  0
  141.4033   79.8520  223.4652 H   0  0  0  0  0  0  0  0  0  0  0  0
  142.1608   77.6362  222.5725 H   0  0  0  0  0  0  0  0  0  0  0  0
  140.5156   75.9034  221.9683 H   0  0  0  0  0  0  0  0  0  0  0  0
  1  2  1  0
  2  3  1  0
  3  4  1  0
  4  5  2  0
  4  6  1  0
  6  7  1  0
  7  8  1  0
  8  9  2  0
  8 10  1  0
 10 11  2  0
 11 12  1  0
 12 13  2  0
 13 14  1  0
 14 15  2  0
 15 16  1  0
 16 17  2  0
 17 18  1  0
 18 19  2  0
  2 20  1  0
 20 21  2  0
 21 22  1  0
 22 23  2  0
 23 24  1  0
 24 25  2  0
 19 10  1  0
 25 20  1  0
 18 13  1  0
  1 26  1  0
  1 27  1  0
  1 28  1  0
  2 29  1  6
  3 30  1  0
  6 31  1  0
  6 32  1  0
  7 33  1  0
 11 34  1  0
 12 35  1  0
 14 36  1  0
 15 37  1  0
 16 38  1  0
 17 39  1  0
 21 40  1  0
 22 41  1  0
 23 42  1  0
 24 43  1  0
 25 44  1  0
M  END
>  <smiles>  (46) 
C[C@H](NC(=O)CNC(=O)c1ccc2ccccc2n1)c1ccccc1

>  <score_type>  (46) 
oracle

>  <origin>  (46) 
autodockgpu

>  <m_score__min__energy>  (46) 
-8.6600000000000001

>  <m_primary>  (46) 
energy

>  <rmsd>  (46) 
4.582624695824536

>  <m_score__min__rmsd>  (46) 
4.582624695824536

>  <meeko>  (46) 
{"free_energy": -7.7, "intermolecular_energy": -9.19, "internal_energy": -2.02, "cluster_size": 13, "cluster_id": 1, "rank_in_cluster": 10}

>  <energy>  (46) 
-7.75

>  <cluster_rmsd>  (46) 
0.0

>  <cluster>  (46) 
4

$$$$

     RDKit          3D

 44 46  0  0  0  0  0  0  0  0999 V2000
  138.3910   70.4520  222.5580 C   0  0  0  0  0  0  0  0  0  0  0  0
  138.8540   71.5670  223.4730 C   0  0  2  0  0  0  0  0  0  0  0  0
  139.4720   72.6180  222.6910 N   0  0  0  0  0  0  0  0  0  0  0  0
  140.6300   72.3540  221.9240 C   0  0  0  0  0  0  0  0  0  0  0  0
  141.1000   71.1810  221.9410 O   0  0  0  0  0  0  0  0  0  0  0  0
  141.3410   73.3490  221.0950 C   0  0  0  0  0  0  0  0  0  0  0  0
  141.2890   74.6860  221.5860 N   0  0  0  0  0  0  0  0  0  0  0  0
  140.0740   75.4070  221.7080 C   0  0  0  0  0  0  0  0  0  0  0  0
  138.9460   74.9440  221.4040 O   0  0  0  0  0  0  0  0  0  0  0  0
  140.1500   76.7840  222.2230 C   0  0  0  0  0  0  0  0  0  0  0  0
  139.0160   77.4760  222.5660 C   0  0  0  0  0  0  0  0  0  0  0  0
  139.0200   78.7670  223.0540 C   0  0  0  0  0  0  0  0  0  0  0  0
  140.2610   79.3770  223.1930 C   0  0  0  0  0  0  0  0  0  0  0  0
  140.2720   80.6680  223.6800 C   0  0  0  0  0  0  0  0  0  0  0  0
  141.4800   81.3260  223.8410 C   0  0  0  0  0  0  0  0  0  0  0  0
  142.6240   80.6350  223.4970 C   0  0  0  0  0  0  0  0  0  0  0  0
  142.6120   79.3440  223.0100 C   0  0  0  0  0  0  0  0  0  0  0  0
  141.3950   78.6820  222.8480 C   0  0  0  0  0  0  0  0  0  0  0  0
  141.3300   77.4230  222.3780 N   0  0  0  0  0  0  0  0  0  0  0  0
  139.7140   71.0620  224.5660 C   0  0  0  0  0  0  0  0  0  0  0  0
  139.5920   69.7470  225.0210 C   0  0  0  0  0  0  0  0  0  0  0  0
  140.3820   69.2540  226.0380 C   0  0  0  0  0  0  0  0  0  0  0  0
  141.3300   70.0520  226.6460 C   0  0  0  0  0  0  0  0  0  0  0  0
  141.4660   71.3710  226.2030 C   0  0  0  0  0  0  0  0  0  0  0  0
  140.6690   71.8570  225.1830 C   0  0  0  0  0  0  0  0  0  0  0  0
  138.0387   69.6036  223.1631 H   0  0  0  0  0  0  0  0  0  0  0  0
  137.5696   70.8158  221.9233 H   0  0  0  0  0  0  0  0  0  0  0  0
  139.2285   70.1270  221.9233 H   0  0  0  0  0  0  0  0  0  0  0  0
  137.9800   72.0048  223.9773 H   0  0  0  0  0  0  0  0  0  0  0  0
  139.0400   73.5430  222.7050 H   0  0  0  0  0  0  0  0  0  0  0  0
  142.3974   73.0490  221.0319 H   0  0  0  0  0  0  0  0  0  0  0  0
  140.8321   73.3584  220.1198 H   0  0  0  0  0  0  0  0  0  0  0  0
  142.1970   75.1530  221.8720 H   0  0  0  0  0  0  0  0  0  0  0  0
  138.0459   76.9718  222.4448 H   0  0  0  0  0  0  0  0  0  0  0  0
  138.0878   79.2870  223.3196 H   0  0  0  0  0  0  0  0  0  0  0  0
  139.3284   81.1708  223.9384 H   0  0  0  0  0  0  0  0  0  0  0  0
  141.5256   82.3552  224.2265 H   0  0  0  0  0  0  0  0  0  0  0  0
  143.5944   81.1388  223.6171 H   0  0  0  0  0  0  0  0  0  0  0  0
  143.5553   78.8406  222.7514 H   0  0  0  0  0  0  0  0  0  0  0  0
  138.8454   69.0868  224.5554 H   0  0  0  0  0  0  0  0  0  0  0  0
  140.2552   68.2125  226.3686 H   0  0  0  0  0  0  0  0  0  0  0  0
  141.9615   69.6607  227.4572 H   0  0  0  0  0  0  0  0  0  0  0  0
  142.2141   72.0283  226.6703 H   0  0  0  0  0  0  0  0  0  0  0  0
  140.7951   72.8987  224.8529 H   0  0  0  0  0  0  0  0  0  0  0  0
  1  2  1  0
  2  3  1  0
  3  4  1  0
  4  5  2  0
  4  6  1  0
  6  7  1  0
  7  8  1  0
  8  9  2  0
  8 10  1  0
 10 11  2  0
 11 12  1  0
 12 13  2  0
 13 14  1  0
 14 15  2  0
 15 16  1  0
 16 17  2  0
 17 18  1  0
 18 19  2  0
  2 20  1  0
 20 21  2  0
 21 22  1  0
 22 23  2  0
 23 24  1  0
 24 25  2  0
 19 10  1  0
 25 20  1  0
 18 13  1  0
  1 26  1  0
  1 27  1  0
  1 28  1  0
  2 29  1  1
  3 30  1  0
  6 31  1  0
  6 32  1  0
  7 33  1  0
 11 34  1  0
 12 35  1  0
 14 36  1  0
 15 37  1  0
 16 38  1  0
 17 39  1  0
 21 40  1  0
 22 41  1  0
 23 42  1  0
 24 43  1  0
 25 44  1  0
M  END
>  <smiles>  (47) 
C[C@H](NC(=O)CNC(=O)c1ccc2ccccc2n1)c1ccccc1

>  <score_type>  (47) 
oracle

>  <origin>  (47) 
autodockgpu

>  <m_score__min__energy>  (47) 
-8.6600000000000001

>  <m_primary>  (47) 
energy

>  <rmsd>  (47) 
9.739948225622745

>  <m_score__min__rmsd>  (47) 
9.739948225622745

>  <meeko>  (47) 
{"free_energy": -7.94, "intermolecular_energy": -9.43, "internal_energy": -1.96, "cluster_size": 24, "cluster_id": 3, "rank_in_cluster": 24}

>  <energy>  (47) 
-7.72

>  <cluster_rmsd>  (47) 
0.15

>  <cluster>  (47) 
4

$$$$

     RDKit          3D

 44 46  0  0  0  0  0  0  0  0999 V2000
  138.3900   70.6130  222.4340 C   0  0  0  0  0  0  0  0  0  0  0  0
  138.9310   71.5880  223.4600 C   0  0  2  0  0  0  0  0  0  0  0  0
  139.6750   72.6380  222.7930 N   0  0  0  0  0  0  0  0  0  0  0  0
  140.6810   72.3170  221.8530 C   0  0  0  0  0  0  0  0  0  0  0  0
  140.9040   71.0970  221.6130 O   0  0  0  0  0  0  0  0  0  0  0  0
  141.5000   73.3050  221.1190 C   0  0  0  0  0  0  0  0  0  0  0  0
  141.4040   74.6410  221.6050 N   0  0  0  0  0  0  0  0  0  0  0  0
  140.1740   75.3430  221.6710 C   0  0  0  0  0  0  0  0  0  0  0  0
  139.0680   74.8630  221.3180 O   0  0  0  0  0  0  0  0  0  0  0  0
  140.2050   76.7220  222.1860 C   0  0  0  0  0  0  0  0  0  0  0  0
  139.0460   77.3990  222.4700 C   0  0  0  0  0  0  0  0  0  0  0  0
  139.0080   78.6910  222.9540 C   0  0  0  0  0  0  0  0  0  0  0  0
  140.2330   79.3180  223.1550 C   0  0  0  0  0  0  0  0  0  0  0  0
  140.2010   80.6090  223.6390 C   0  0  0  0  0  0  0  0  0  0  0  0
  141.3910   81.2840  223.8590 C   0  0  0  0  0  0  0  0  0  0  0  0
  142.5600   80.6080  223.5760 C   0  0  0  0  0  0  0  0  0  0  0  0
  142.5900   79.3160  223.0920 C   0  0  0  0  0  0  0  0  0  0  0  0
  141.3910   78.6370  222.8700 C   0  0  0  0  0  0  0  0  0  0  0  0
  141.3670   77.3770  222.4000 N   0  0  0  0  0  0  0  0  0  0  0  0
  139.7010   70.9020  224.5200 C   0  0  0  0  0  0  0  0  0  0  0  0
  139.4640   69.5580  224.8190 C   0  0  0  0  0  0  0  0  0  0  0  0
  140.1700   68.8970  225.8040 C   0  0  0  0  0  0  0  0  0  0  0  0
  141.1430   69.5490  226.5330 C   0  0  0  0  0  0  0  0  0  0  0  0
  141.3940   70.8940  226.2460 C   0  0  0  0  0  0  0  0  0  0  0  0
  140.6820   71.5490  225.2580 C   0  0  0  0  0  0  0  0  0  0  0  0
  137.9184   69.7630  222.9489 H   0  0  0  0  0  0  0  0  0  0  0  0
  137.6441   71.1199  221.8041 H   0  0  0  0  0  0  0  0  0  0  0  0
  139.2148   70.2483  221.8041 H   0  0  0  0  0  0  0  0  0  0  0  0
  138.0888   72.0644  223.9832 H   0  0  0  0  0  0  0  0  0  0  0  0
  139.4410   73.6060  223.0170 H   0  0  0  0  0  0  0  0  0  0  0  0
  142.5526   72.9923  221.1837 H   0  0  0  0  0  0  0  0  0  0  0  0
  141.1144   73.3222  220.0890 H   0  0  0  0  0  0  0  0  0  0  0  0
  142.2910   75.1230  221.9300 H   0  0  0  0  0  0  0  0  0  0  0  0
  138.0901   76.8813  222.3020 H   0  0  0  0  0  0  0  0  0  0  0  0
  138.0566   79.1992  223.1699 H   0  0  0  0  0  0  0  0  0  0  0  0
  139.2387   81.0989  223.8487 H   0  0  0  0  0  0  0  0  0  0  0  0
  141.4031   82.3148  224.2429 H   0  0  0  0  0  0  0  0  0  0  0  0
  143.5162   81.1249  223.7447 H   0  0  0  0  0  0  0  0  0  0  0  0
  143.5518   78.8249  222.8827 H   0  0  0  0  0  0  0  0  0  0  0  0
  138.6941   69.0118  224.2543 H   0  0  0  0  0  0  0  0  0  0  0  0
  139.9543   67.8382  226.0100 H   0  0  0  0  0  0  0  0  0  0  0  0
  141.7062   69.0246  227.3190 H   0  0  0  0  0  0  0  0  0  0  0  0
  142.1656   71.4367  226.8118 H   0  0  0  0  0  0  0  0  0  0  0  0
  140.8983   72.6077  225.0522 H   0  0  0  0  0  0  0  0  0  0  0  0
  1  2  1  0
  2  3  1  0
  3  4  1  0
  4  5  2  0
  4  6  1  0
  6  7  1  0
  7  8  1  0
  8  9  2  0
  8 10  1  0
 10 11  2  0
 11 12  1  0
 12 13  2  0
 13 14  1  0
 14 15  2  0
 15 16  1  0
 16 17  2  0
 17 18  1  0
 18 19  2  0
  2 20  1  0
 20 21  2  0
 21 22  1  0
 22 23  2  0
 23 24  1  0
 24 25  2  0
 19 10  1  0
 25 20  1  0
 18 13  1  0
  1 26  1  0
  1 27  1  0
  1 28  1  0
  2 29  1  1
  3 30  1  0
  6 31  1  0
  6 32  1  0
  7 33  1  0
 11 34  1  0
 12 35  1  0
 14 36  1  0
 15 37  1  0
 16 38  1  0
 17 39  1  0
 21 40  1  0
 22 41  1  0
 23 42  1  0
 24 43  1  0
 25 44  1  0
M  END
>  <smiles>  (48) 
C[C@H](NC(=O)CNC(=O)c1ccc2ccccc2n1)c1ccccc1

>  <score_type>  (48) 
oracle

>  <origin>  (48) 
autodockgpu

>  <m_score__min__energy>  (48) 
-8.6600000000000001

>  <m_primary>  (48) 
energy

>  <rmsd>  (48) 
9.79949218847745

>  <m_score__min__rmsd>  (48) 
9.79949218847745

>  <meeko>  (48) 
{"free_energy": -7.97, "intermolecular_energy": -9.46, "internal_energy": -1.84, "cluster_size": 24, "cluster_id": 3, "rank_in_cluster": 16}

>  <energy>  (48) 
-7.71

>  <cluster_rmsd>  (48) 
0.19

>  <cluster>  (48) 
4

$$$$

     RDKit          3D

 44 46  0  0  0  0  0  0  0  0999 V2000
  140.2140   71.8800  223.5100 C   0  0  0  0  0  0  0  0  0  0  0  0
  139.6510   70.7720  224.3760 C   0  0  2  0  0  0  0  0  0  0  0  0
  138.2030   70.8160  224.3480 N   0  0  0  0  0  0  0  0  0  0  0  0
  137.4470   69.6290  224.4800 C   0  0  0  0  0  0  0  0  0  0  0  0
  138.0700   68.5400  224.6260 O   0  0  0  0  0  0  0  0  0  0  0  0
  135.9710   69.5590  224.4620 C   0  0  0  0  0  0  0  0  0  0  0  0
  135.3090   70.7160  224.9650 N   0  0  0  0  0  0  0  0  0  0  0  0
  134.3020   70.6480  225.9590 C   0  0  0  0  0  0  0  0  0  0  0  0
  133.9040   69.5800  226.4880 O   0  0  0  0  0  0  0  0  0  0  0  0
  133.6880   71.9140  226.3940 C   0  0  0  0  0  0  0  0  0  0  0  0
  132.5420   71.9240  227.1490 C   0  0  0  0  0  0  0  0  0  0  0  0
  131.9200   73.0760  227.5870 C   0  0  0  0  0  0  0  0  0  0  0  0
  132.5100   74.2810  227.2240 C   0  0  0  0  0  0  0  0  0  0  0  0
  131.8920   75.4350  227.6590 C   0  0  0  0  0  0  0  0  0  0  0  0
  132.4360   76.6650  227.3290 C   0  0  0  0  0  0  0  0  0  0  0  0
  133.5880   76.6620  226.5700 C   0  0  0  0  0  0  0  0  0  0  0  0
  134.2060   75.5060  226.1360 C   0  0  0  0  0  0  0  0  0  0  0  0
  133.6570   74.2670  226.4680 C   0  0  0  0  0  0  0  0  0  0  0  0
  134.2210   73.1130  226.0700 N   0  0  0  0  0  0  0  0  0  0  0  0
  140.2140   70.8020  225.7440 C   0  0  0  0  0  0  0  0  0  0  0  0
  140.9090   71.9230  226.2060 C   0  0  0  0  0  0  0  0  0  0  0  0
  141.4440   71.9730  227.4770 C   0  0  0  0  0  0  0  0  0  0  0  0
  141.3080   70.9070  228.3430 C   0  0  0  0  0  0  0  0  0  0  0  0
  140.6160   69.7770  227.8970 C   0  0  0  0  0  0  0  0  0  0  0  0
  140.0840   69.7350  226.6220 C   0  0  0  0  0  0  0  0  0  0  0  0
  140.6189   72.6768  224.1513 H   0  0  0  0  0  0  0  0  0  0  0  0
  141.0167   71.4770  222.8749 H   0  0  0  0  0  0  0  0  0  0  0  0
  139.4153   72.2908  222.8749 H   0  0  0  0  0  0  0  0  0  0  0  0
  139.9581   69.8004  223.9617 H   0  0  0  0  0  0  0  0  0  0  0  0
  137.7530   71.7270  224.2400 H   0  0  0  0  0  0  0  0  0  0  0  0
  135.6489   69.4064  223.4213 H   0  0  0  0  0  0  0  0  0  0  0  0
  135.6935   68.7302  225.1299 H   0  0  0  0  0  0  0  0  0  0  0  0
  135.5880   71.6640  224.5770 H   0  0  0  0  0  0  0  0  0  0  0  0
  132.0928   70.9575  227.4211 H   0  0  0  0  0  0  0  0  0  0  0  0
  131.0028   73.0419  228.1933 H   0  0  0  0  0  0  0  0  0  0  0  0
  130.9745   75.3787  228.2631 H   0  0  0  0  0  0  0  0  0  0  0  0
  131.9691   77.6050  227.6583 H   0  0  0  0  0  0  0  0  0  0  0  0
  134.0365   77.6286  226.2970 H   0  0  0  0  0  0  0  0  0  0  0  0
  135.1243   75.5615  225.5330 H   0  0  0  0  0  0  0  0  0  0  0  0
  141.0329   72.7886  225.5386 H   0  0  0  0  0  0  0  0  0  0  0  0
  141.9853   72.8731  227.8038 H   0  0  0  0  0  0  0  0  0  0  0  0
  141.7327   70.9454  229.3570 H   0  0  0  0  0  0  0  0  0  0  0  0
  140.4938   68.9133  228.5671 H   0  0  0  0  0  0  0  0  0  0  0  0
  139.5444   68.8339  226.2952 H   0  0  0  0  0  0  0  0  0  0  0  0
  1  2  1  0
  2  3  1  0
  3  4  1  0
  4  5  2  0
  4  6  1  0
  6  7  1  0
  7  8  1  0
  8  9  2  0
  8 10  1  0
 10 11  2  0
 11 12  1  0
 12 13  2  0
 13 14  1  0
 14 15  2  0
 15 16  1  0
 16 17  2  0
 17 18  1  0
 18 19  2  0
  2 20  1  0
 20 21  2  0
 21 22  1  0
 22 23  2  0
 23 24  1  0
 24 25  2  0
 19 10  1  0
 25 20  1  0
 18 13  1  0
  1 26  1  0
  1 27  1  0
  1 28  1  0
  2 29  1  6
  3 30  1  0
  6 31  1  0
  6 32  1  0
  7 33  1  0
 11 34  1  0
 12 35  1  0
 14 36  1  0
 15 37  1  0
 16 38  1  0
 17 39  1  0
 21 40  1  0
 22 41  1  0
 23 42  1  0
 24 43  1  0
 25 44  1  0
M  END
>  <smiles>  (49) 
C[C@H](NC(=O)CNC(=O)c1ccc2ccccc2n1)c1ccccc1

>  <score_type>  (49) 
oracle

>  <origin>  (49) 
autodockgpu

>  <m_score__min__energy>  (49) 
-8.6600000000000001

>  <m_primary>  (49) 
energy

>  <rmsd>  (49) 
10.229076055660599

>  <m_score__min__rmsd>  (49) 
10.229076055660599

>  <meeko>  (49) 
{"free_energy": -8.49, "intermolecular_energy": -9.98, "internal_energy": -1.25, "cluster_size": 8, "cluster_id": 2, "rank_in_cluster": 2}

>  <energy>  (49) 
-7.69

>  <cluster_rmsd>  (49) 
0.31

>  <cluster>  (49) 
4

$$$$

     RDKit          3D

 44 46  0  0  0  0  0  0  0  0999 V2000
  138.4350   70.3430  222.6280 C   0  0  0  0  0  0  0  0  0  0  0  0
  138.7610   71.5290  223.5130 C   0  0  2  0  0  0  0  0  0  0  0  0
  139.3690   72.5790  222.7200 N   0  0  0  0  0  0  0  0  0  0  0  0
  140.5480   72.3280  221.9810 C   0  0  0  0  0  0  0  0  0  0  0  0
  141.0470   71.1680  222.0320 O   0  0  0  0  0  0  0  0  0  0  0  0
  141.2510   73.3230  221.1450 C   0  0  0  0  0  0  0  0  0  0  0  0
  141.2060   74.6590  221.6390 N   0  0  0  0  0  0  0  0  0  0  0  0
  139.9990   75.3940  221.7430 C   0  0  0  0  0  0  0  0  0  0  0  0
  138.8700   74.9470  221.4190 O   0  0  0  0  0  0  0  0  0  0  0  0
  140.0830   76.7690  222.2630 C   0  0  0  0  0  0  0  0  0  0  0  0
  138.9540   77.4600  222.6260 C   0  0  0  0  0  0  0  0  0  0  0  0
  138.9660   78.7490  223.1200 C   0  0  0  0  0  0  0  0  0  0  0  0
  140.2100   79.3580  223.2440 C   0  0  0  0  0  0  0  0  0  0  0  0
  140.2280   80.6460  223.7360 C   0  0  0  0  0  0  0  0  0  0  0  0
  141.4390   81.3030  223.8820 C   0  0  0  0  0  0  0  0  0  0  0  0
  142.5780   80.6140  223.5190 C   0  0  0  0  0  0  0  0  0  0  0  0
  142.5580   79.3240  223.0260 C   0  0  0  0  0  0  0  0  0  0  0  0
  141.3380   78.6640  222.8790 C   0  0  0  0  0  0  0  0  0  0  0  0
  141.2650   77.4080  222.4040 N   0  0  0  0  0  0  0  0  0  0  0  0
  139.5690   71.1330  224.6870 C   0  0  0  0  0  0  0  0  0  0  0  0
  139.2350   70.0030  225.4360 C   0  0  0  0  0  0  0  0  0  0  0  0
  139.9740   69.6150  226.5350 C   0  0  0  0  0  0  0  0  0  0  0  0
  141.0800   70.3390  226.9340 C   0  0  0  0  0  0  0  0  0  0  0  0
  141.4280   71.4730  226.1950 C   0  0  0  0  0  0  0  0  0  0  0  0
  140.6820   71.8550  225.0960 C   0  0  0  0  0  0  0  0  0  0  0  0
  138.1956   69.4720  223.2557 H   0  0  0  0  0  0  0  0  0  0  0  0
  137.5704   70.5861  221.9929 H   0  0  0  0  0  0  0  0  0  0  0  0
  139.3024   70.1100  221.9929 H   0  0  0  0  0  0  0  0  0  0  0  0
  137.8283   71.9341  223.9324 H   0  0  0  0  0  0  0  0  0  0  0  0
  138.9140   73.4930  222.7070 H   0  0  0  0  0  0  0  0  0  0  0  0
  142.3062   73.0217  221.0694 H   0  0  0  0  0  0  0  0  0  0  0  0
  140.7317   73.3343  220.1754 H   0  0  0  0  0  0  0  0  0  0  0  0
  142.1160   75.1140  221.9420 H   0  0  0  0  0  0  0  0  0  0  0  0
  137.9819   76.9568  222.5168 H   0  0  0  0  0  0  0  0  0  0  0  0
  138.0381   79.2684  223.4014 H   0  0  0  0  0  0  0  0  0  0  0  0
  139.2884   81.1479  224.0104 H   0  0  0  0  0  0  0  0  0  0  0  0
  141.4903   82.3307  224.2710 H   0  0  0  0  0  0  0  0  0  0  0  0
  143.5502   81.1171  223.6276 H   0  0  0  0  0  0  0  0  0  0  0  0
  143.4969   78.8210  222.7514 H   0  0  0  0  0  0  0  0  0  0  0  0
  138.3592   69.4059  225.1422 H   0  0  0  0  0  0  0  0  0  0  0  0
  139.6785   68.7185  227.0997 H   0  0  0  0  0  0  0  0  0  0  0  0
  141.6709   70.0317  227.8094 H   0  0  0  0  0  0  0  0  0  0  0  0
  142.3047   72.0677  226.4911 H   0  0  0  0  0  0  0  0  0  0  0  0
  140.9771   72.7522  224.5321 H   0  0  0  0  0  0  0  0  0  0  0  0
  1  2  1  0
  2  3  1  0
  3  4  1  0
  4  5  2  0
  4  6  1  0
  6  7  1  0
  7  8  1  0
  8  9  2  0
  8 10  1  0
 10 11  2  0
 11 12  1  0
 12 13  2  0
 13 14  1  0
 14 15  2  0
 15 16  1  0
 16 17  2  0
 17 18  1  0
 18 19  2  0
  2 20  1  0
 20 21  2  0
 21 22  1  0
 22 23  2  0
 23 24  1  0
 24 25  2  0
 19 10  1  0
 25 20  1  0
 18 13  1  0
  1 26  1  0
  1 27  1  0
  1 28  1  0
  2 29  1  1
  3 30  1  0
  6 31  1  0
  6 32  1  0
  7 33  1  0
 11 34  1  0
 12 35  1  0
 14 36  1  0
 15 37  1  0
 16 38  1  0
 17 39  1  0
 21 40  1  0
 22 41  1  0
 23 42  1  0
 24 43  1  0
 25 44  1  0
M  END
>  <smiles>  (50) 
C[C@H](NC(=O)CNC(=O)c1ccc2ccccc2n1)c1ccccc1

>  <score_type>  (50) 
oracle

>  <origin>  (50) 
autodockgpu

>  <m_score__min__energy>  (50) 
-8.6600000000000001

>  <m_primary>  (50) 
energy

>  <rmsd>  (50) 
9.70095458940011

>  <m_score__min__rmsd>  (50) 
9.70095458940011

>  <meeko>  (50) 
{"free_energy": -8.01, "intermolecular_energy": -9.51, "internal_energy": -1.91, "cluster_size": 24, "cluster_id": 3, "rank_in_cluster": 5}

>  <energy>  (50) 
-7.67

>  <cluster_rmsd>  (50) 
0.36

>  <cluster>  (50) 
4

$$$$
