
     RDKit          3D

 43 44  0  0  0  0  0  0  0  0999 V2000
  145.5950   73.2970  218.8720 C   0  0  0  0  0  0  0  0  0  0  0  0
  144.8920   73.2570  220.1830 C   0  0  0  0  0  0  0  0  0  0  0  0
  146.0020   73.4130  221.2500 C   0  0  0  0  0  0  0  0  0  0  0  0
  144.3590   71.8410  220.4180 C   0  0  0  0  0  0  0  0  0  0  0  0
  143.8620   74.2680  220.4830 C   0  0  0  0  0  0  0  0  0  0  0  0
  142.5360   73.8790  220.7800 N   0  0  0  0  0  0  0  0  0  0  0  0
  141.3440   74.6070  220.7070 C   0  0  0  0  0  0  0  0  0  0  0  0
  141.3860   75.8300  220.3310 O   0  0  0  0  0  0  0  0  0  0  0  0
  139.9940   74.1050  221.0260 C   0  0  0  0  0  0  0  0  0  0  0  0
  139.8350   73.4600  222.2920 N   0  0  0  0  0  0  0  0  0  0  0  0
  140.3860   72.1350  222.4190 C   0  0  0  0  0  0  0  0  0  0  0  0
  140.9640   71.6350  221.4200 O   0  0  0  0  0  0  0  0  0  0  0  0
  140.2610   71.4160  223.6820 C   0  0  0  0  0  0  0  0  0  0  0  0
  139.6390   70.1850  223.6680 C   0  0  0  0  0  0  0  0  0  0  0  0
  139.4920   69.4600  224.8300 C   0  0  0  0  0  0  0  0  0  0  0  0
  139.9730   69.9730  226.0160 C   0  0  0  0  0  0  0  0  0  0  0  0
  139.8100   69.2240  227.1530 C   0  0  0  0  0  0  0  0  0  0  0  0
  140.2940   69.7430  228.3360 C   0  0  0  0  0  0  0  0  0  0  0  0
  140.9120   70.9750  228.3300 C   0  0  0  0  0  0  0  0  0  0  0  0
  141.0820   71.7350  227.1910 C   0  0  0  0  0  0  0  0  0  0  0  0
  140.5960   71.2130  226.0100 C   0  0  0  0  0  0  0  0  0  0  0  0
  140.7220   71.8940  224.8530 N   0  0  0  0  0  0  0  0  0  0  0  0
  146.6804   73.3587  219.0397 H   0  0  0  0  0  0  0  0  0  0  0  0
  145.3631   72.3842  218.3036 H   0  0  0  0  0  0  0  0  0  0  0  0
  145.2611   74.1776  218.3036 H   0  0  0  0  0  0  0  0  0  0  0  0
  145.5569   73.3504  222.2540 H   0  0  0  0  0  0  0  0  0  0  0  0
  146.7440   72.6103  221.1272 H   0  0  0  0  0  0  0  0  0  0  0  0
  146.4940   74.3891  221.1272 H   0  0  0  0  0  0  0  0  0  0  0  0
  144.2874   71.6509  221.4991 H   0  0  0  0  0  0  0  0  0  0  0  0
  143.3627   71.7438  219.9619 H   0  0  0  0  0  0  0  0  0  0  0  0
  145.0439   71.1110  219.9619 H   0  0  0  0  0  0  0  0  0  0  0  0
  144.2244   74.8382  221.3511 H   0  0  0  0  0  0  0  0  0  0  0  0
  143.7538   74.8002  219.5264 H   0  0  0  0  0  0  0  0  0  0  0  0
  142.4120   72.8570  221.1160 H   0  0  0  0  0  0  0  0  0  0  0  0
  139.3041   74.9613  220.9984 H   0  0  0  0  0  0  0  0  0  0  0  0
  139.7882   73.3274  220.2757 H   0  0  0  0  0  0  0  0  0  0  0  0
  139.3700   73.8290  223.1380 H   0  0  0  0  0  0  0  0  0  0  0  0
  139.2568   69.7784  222.7201 H   0  0  0  0  0  0  0  0  0  0  0  0
  138.9946   68.4791  224.8119 H   0  0  0  0  0  0  0  0  0  0  0  0
  139.3110   68.2441  227.1229 H   0  0  0  0  0  0  0  0  0  0  0  0
  140.1878   69.1793  229.2746 H   0  0  0  0  0  0  0  0  0  0  0  0
  141.2895   71.3733  229.2833 H   0  0  0  0  0  0  0  0  0  0  0  0
  141.5829   72.7138  227.2231 H   0  0  0  0  0  0  0  0  0  0  0  0
  1  2  1  0
  2  3  1  0
  2  4  1  0
  2  5  1  0
  5  6  1  0
  6  7  1  0
  7  8  2  0
  7  9  1  0
  9 10  1  0
 10 11  1  0
 11 12  2  0
 11 13  1  0
 13 14  2  0
 14 15  1  0
 15 16  2  0
 16 17  1  0
 17 18  2  0
 18 19  1  0
 19 20  2  0
 20 21  1  0
 21 22  2  0
 22 13  1  0
 21 16  1  0
  1 23  1  0
  1 24  1  0
  1 25  1  0
  3 26  1  0
  3 27  1  0
  3 28  1  0
  4 29  1  0
  4 30  1  0
  4 31  1  0
  5 32  1  0
  5 33  1  0
  6 34  1  0
  9 35  1  0
  9 36  1  0
 10 37  1  0
 14 38  1  0
 15 39  1  0
 17 40  1  0
 18 41  1  0
 19 42  1  0
 20 43  1  0
M  END
>  <smiles>  (1) 
CC(C)(C)CNC(=O)CNC(=O)c1ccc2ccccc2n1

>  <score_type>  (1) 
oracle

>  <origin>  (1) 
autodockgpu

>  <m_score__min__energy>  (1) 
-7.5099999999999998

>  <m_primary>  (1) 
energy

>  <rmsd>  (1) 
3.3090569684940228

>  <m_score__min__rmsd>  (1) 
3.3090569684940228

>  <meeko>  (1) 
{"free_energy": -7.02, "intermolecular_energy": -8.52, "internal_energy": -1.59, "cluster_size": 41, "cluster_id": 2, "rank_in_cluster": 11}

>  <energy>  (1) 
-7.51

>  <cluster_rmsd>  (1) 
0.0

>  <cluster>  (1) 
1

$$$$

     RDKit          3D

 43 44  0  0  0  0  0  0  0  0999 V2000
  142.5300   80.0750  222.4940 C   0  0  0  0  0  0  0  0  0  0  0  0
  141.4670   79.0880  222.1590 C   0  0  0  0  0  0  0  0  0  0  0  0
  141.8200   78.5690  220.7440 C   0  0  0  0  0  0  0  0  0  0  0  0
  140.1450   79.8310  221.9530 C   0  0  0  0  0  0  0  0  0  0  0  0
  141.2830   77.9040  223.0180 C   0  0  0  0  0  0  0  0  0  0  0  0
  141.0140   76.6390  222.4500 N   0  0  0  0  0  0  0  0  0  0  0  0
  139.8010   76.0690  222.0480 C   0  0  0  0  0  0  0  0  0  0  0  0
  138.7210   76.7390  222.2010 O   0  0  0  0  0  0  0  0  0  0  0  0
  139.6200   74.7350  221.4460 C   0  0  0  0  0  0  0  0  0  0  0  0
  139.3390   73.6600  222.3460 N   0  0  0  0  0  0  0  0  0  0  0  0
  140.3790   72.6810  222.5330 C   0  0  0  0  0  0  0  0  0  0  0  0
  141.4550   72.8320  221.8990 O   0  0  0  0  0  0  0  0  0  0  0  0
  140.1630   71.5570  223.4360 C   0  0  0  0  0  0  0  0  0  0  0  0
  139.4350   70.4820  222.9710 C   0  0  0  0  0  0  0  0  0  0  0  0
  139.1980   69.3920  223.7780 C   0  0  0  0  0  0  0  0  0  0  0  0
  139.6950   69.3790  225.0650 C   0  0  0  0  0  0  0  0  0  0  0  0
  139.4400   68.2780  225.8410 C   0  0  0  0  0  0  0  0  0  0  0  0
  139.9410   68.2720  227.1270 C   0  0  0  0  0  0  0  0  0  0  0  0
  140.6660   69.3550  227.5740 C   0  0  0  0  0  0  0  0  0  0  0  0
  140.9280   70.4670  226.8010 C   0  0  0  0  0  0  0  0  0  0  0  0
  140.4250   70.4700  225.5160 C   0  0  0  0  0  0  0  0  0  0  0  0
  140.6370   71.5190  224.6960 N   0  0  0  0  0  0  0  0  0  0  0  0
  142.6208   80.1593  223.5870 H   0  0  0  0  0  0  0  0  0  0  0  0
  143.4884   79.7393  222.0713 H   0  0  0  0  0  0  0  0  0  0  0  0
  142.2662   81.0557  222.0713 H   0  0  0  0  0  0  0  0  0  0  0  0
  142.4368   77.6622  220.8294 H   0  0  0  0  0  0  0  0  0  0  0  0
  140.8944   78.3329  220.1986 H   0  0  0  0  0  0  0  0  0  0  0  0
  142.3797   79.3431  220.1986 H   0  0  0  0  0  0  0  0  0  0  0  0
  139.7066   80.0774  222.9313 H   0  0  0  0  0  0  0  0  0  0  0  0
  140.3292   80.7578  221.3898 H   0  0  0  0  0  0  0  0  0  0  0  0
  139.4491   79.1919  221.3898 H   0  0  0  0  0  0  0  0  0  0  0  0
  142.2063   77.7951  223.6060 H   0  0  0  0  0  0  0  0  0  0  0  0
  140.3533   78.1340  223.5591 H   0  0  0  0  0  0  0  0  0  0  0  0
  141.8760   76.0010  222.2940 H   0  0  0  0  0  0  0  0  0  0  0  0
  138.7846   74.8008  220.7334 H   0  0  0  0  0  0  0  0  0  0  0  0
  140.5907   74.4873  220.9918 H   0  0  0  0  0  0  0  0  0  0  0  0
  138.4740   73.4960  222.8860 H   0  0  0  0  0  0  0  0  0  0  0  0
  139.0396   70.4956  221.9446 H   0  0  0  0  0  0  0  0  0  0  0  0
  138.6169   68.5381  223.3996 H   0  0  0  0  0  0  0  0  0  0  0  0
  138.8571   67.4298  225.4527 H   0  0  0  0  0  0  0  0  0  0  0  0
  139.7633   67.4112  227.7884 H   0  0  0  0  0  0  0  0  0  0  0  0
  141.0567   69.3316  228.6020 H   0  0  0  0  0  0  0  0  0  0  0  0
  141.5118   71.3136  227.1914 H   0  0  0  0  0  0  0  0  0  0  0  0
  1  2  1  0
  2  3  1  0
  2  4  1  0
  2  5  1  0
  5  6  1  0
  6  7  1  0
  7  8  2  0
  7  9  1  0
  9 10  1  0
 10 11  1  0
 11 12  2  0
 11 13  1  0
 13 14  2  0
 14 15  1  0
 15 16  2  0
 16 17  1  0
 17 18  2  0
 18 19  1  0
 19 20  2  0
 20 21  1  0
 21 22  2  0
 22 13  1  0
 21 16  1  0
  1 23  1  0
  1 24  1  0
  1 25  1  0
  3 26  1  0
  3 27  1  0
  3 28  1  0
  4 29  1  0
  4 30  1  0
  4 31  1  0
  5 32  1  0
  5 33  1  0
  6 34  1  0
  9 35  1  0
  9 36  1  0
 10 37  1  0
 14 38  1  0
 15 39  1  0
 17 40  1  0
 18 41  1  0
 19 42  1  0
 20 43  1  0
M  END
>  <smiles>  (2) 
CC(C)(C)CNC(=O)CNC(=O)c1ccc2ccccc2n1

>  <score_type>  (2) 
oracle

>  <origin>  (2) 
autodockgpu

>  <m_score__min__energy>  (2) 
-7.5099999999999998

>  <m_primary>  (2) 
energy

>  <rmsd>  (2) 
3.2334732845768266

>  <m_score__min__rmsd>  (2) 
3.2334732845768266

>  <meeko>  (2) 
{"free_energy": -7.4, "intermolecular_energy": -8.89, "internal_energy": -0.81, "cluster_size": 8, "cluster_id": 1, "rank_in_cluster": 4}

>  <energy>  (2) 
-7.49

>  <cluster_rmsd>  (2) 
0.91

>  <cluster>  (2) 
1

$$$$

     RDKit          3D

 43 44  0  0  0  0  0  0  0  0999 V2000
  139.6740   78.1240  220.8830 C   0  0  0  0  0  0  0  0  0  0  0  0
  139.6340   77.6640  222.2980 C   0  0  0  0  0  0  0  0  0  0  0  0
  139.4090   78.9440  223.1400 C   0  0  0  0  0  0  0  0  0  0  0  0
  141.0340   77.2000  222.7100 C   0  0  0  0  0  0  0  0  0  0  0  0
  138.6080   76.6900  222.7130 C   0  0  0  0  0  0  0  0  0  0  0  0
  138.7100   75.3330  222.3350 N   0  0  0  0  0  0  0  0  0  0  0  0
  138.2500   74.6780  221.1870 C   0  0  0  0  0  0  0  0  0  0  0  0
  137.6170   75.3520  220.3010 O   0  0  0  0  0  0  0  0  0  0  0  0
  138.4190   73.2480  220.8710 C   0  0  0  0  0  0  0  0  0  0  0  0
  138.4940   72.3520  221.9830 N   0  0  0  0  0  0  0  0  0  0  0  0
  139.7120   72.3730  222.7520 C   0  0  0  0  0  0  0  0  0  0  0  0
  140.6220   73.1680  222.4000 O   0  0  0  0  0  0  0  0  0  0  0  0
  139.8600   71.4870  223.9000 C   0  0  0  0  0  0  0  0  0  0  0  0
  139.4510   70.1770  223.7640 C   0  0  0  0  0  0  0  0  0  0  0  0
  139.5650   69.2930  224.8140 C   0  0  0  0  0  0  0  0  0  0  0  0
  140.0940   69.7260  226.0120 C   0  0  0  0  0  0  0  0  0  0  0  0
  140.1930   68.8200  227.0360 C   0  0  0  0  0  0  0  0  0  0  0  0
  140.7230   69.2600  228.2310 C   0  0  0  0  0  0  0  0  0  0  0  0
  141.1260   70.5720  228.3480 C   0  0  0  0  0  0  0  0  0  0  0  0
  141.0310   71.4920  227.3240 C   0  0  0  0  0  0  0  0  0  0  0  0
  140.5000   71.0480  226.1300 C   0  0  0  0  0  0  0  0  0  0  0  0
  140.3730   71.8840  225.0800 N   0  0  0  0  0  0  0  0  0  0  0  0
  139.7692   79.2195  220.8561 H   0  0  0  0  0  0  0  0  0  0  0  0
  140.5359   77.6684  220.3736 H   0  0  0  0  0  0  0  0  0  0  0  0
  138.7464   77.8240  220.3736 H   0  0  0  0  0  0  0  0  0  0  0  0
  139.4533   78.6917  224.2098 H   0  0  0  0  0  0  0  0  0  0  0  0
  140.1915   79.6803  222.9042 H   0  0  0  0  0  0  0  0  0  0  0  0
  138.4223   79.3693  222.9042 H   0  0  0  0  0  0  0  0  0  0  0  0
  141.1044   77.1767  223.8075 H   0  0  0  0  0  0  0  0  0  0  0  0
  141.2191   76.1925  222.3092 H   0  0  0  0  0  0  0  0  0  0  0  0
  141.7842   77.8975  222.3092 H   0  0  0  0  0  0  0  0  0  0  0  0
  138.5824   76.7093  223.8125 H   0  0  0  0  0  0  0  0  0  0  0  0
  137.7128   77.0297  222.1716 H   0  0  0  0  0  0  0  0  0  0  0  0
  139.2260   74.6880  223.0360 H   0  0  0  0  0  0  0  0  0  0  0  0
  137.5643   72.9398  220.2509 H   0  0  0  0  0  0  0  0  0  0  0  0
  139.3966   73.1743  220.3722 H   0  0  0  0  0  0  0  0  0  0  0  0
  137.7760   71.6840  222.3090 H   0  0  0  0  0  0  0  0  0  0  0  0
  139.0295   69.8347  222.8074 H   0  0  0  0  0  0  0  0  0  0  0  0
  139.2367   68.2496  224.6981 H   0  0  0  0  0  0  0  0  0  0  0  0
  139.8615   67.7789  226.9092 H   0  0  0  0  0  0  0  0  0  0  0  0
  140.8229   68.5702  229.0820 H   0  0  0  0  0  0  0  0  0  0  0  0
  141.5459   70.9040  229.3090 H   0  0  0  0  0  0  0  0  0  0  0  0
  141.3635   72.5325  227.4535 H   0  0  0  0  0  0  0  0  0  0  0  0
  1  2  1  0
  2  3  1  0
  2  4  1  0
  2  5  1  0
  5  6  1  0
  6  7  1  0
  7  8  2  0
  7  9  1  0
  9 10  1  0
 10 11  1  0
 11 12  2  0
 11 13  1  0
 13 14  2  0
 14 15  1  0
 15 16  2  0
 16 17  1  0
 17 18  2  0
 18 19  1  0
 19 20  2  0
 20 21  1  0
 21 22  2  0
 22 13  1  0
 21 16  1  0
  1 23  1  0
  1 24  1  0
  1 25  1  0
  3 26  1  0
  3 27  1  0
  3 28  1  0
  4 29  1  0
  4 30  1  0
  4 31  1  0
  5 32  1  0
  5 33  1  0
  6 34  1  0
  9 35  1  0
  9 36  1  0
 10 37  1  0
 14 38  1  0
 15 39  1  0
 17 40  1  0
 18 41  1  0
 19 42  1  0
 20 43  1  0
M  END
>  <smiles>  (3) 
CC(C)(C)CNC(=O)CNC(=O)c1ccc2ccccc2n1

>  <score_type>  (3) 
oracle

>  <origin>  (3) 
autodockgpu

>  <m_score__min__energy>  (3) 
-7.5099999999999998

>  <m_primary>  (3) 
energy

>  <rmsd>  (3) 
2.680637694166393

>  <m_score__min__rmsd>  (3) 
2.680637694166393

>  <meeko>  (3) 
{"free_energy": -6.63, "intermolecular_energy": -8.12, "internal_energy": -1.53, "cluster_size": 8, "cluster_id": 1, "rank_in_cluster": 7}

>  <energy>  (3) 
-7.48

>  <cluster_rmsd>  (3) 
0.81

>  <cluster>  (3) 
1

$$$$

     RDKit          3D

 43 44  0  0  0  0  0  0  0  0999 V2000
  145.9390   73.3440  221.2750 C   0  0  0  0  0  0  0  0  0  0  0  0
  144.7810   73.3170  220.3400 C   0  0  0  0  0  0  0  0  0  0  0  0
  144.1350   71.9230  220.5250 C   0  0  0  0  0  0  0  0  0  0  0  0
  145.3050   73.2860  218.9010 C   0  0  0  0  0  0  0  0  0  0  0  0
  143.7050   74.3140  220.4910 C   0  0  0  0  0  0  0  0  0  0  0  0
  142.3930   73.9090  220.8240 N   0  0  0  0  0  0  0  0  0  0  0  0
  141.1690   74.5540  220.6140 C   0  0  0  0  0  0  0  0  0  0  0  0
  141.1630   75.7020  220.0470 O   0  0  0  0  0  0  0  0  0  0  0  0
  139.8370   74.0420  220.9860 C   0  0  0  0  0  0  0  0  0  0  0  0
  139.7300   73.4090  222.2640 N   0  0  0  0  0  0  0  0  0  0  0  0
  140.2520   72.0700  222.3700 C   0  0  0  0  0  0  0  0  0  0  0  0
  140.7620   71.5490  221.3450 O   0  0  0  0  0  0  0  0  0  0  0  0
  140.1770   71.3630  223.6430 C   0  0  0  0  0  0  0  0  0  0  0  0
  139.5930   70.1130  223.6560 C   0  0  0  0  0  0  0  0  0  0  0  0
  139.4940   69.3970  224.8280 C   0  0  0  0  0  0  0  0  0  0  0  0
  139.9840   69.9380  225.9990 C   0  0  0  0  0  0  0  0  0  0  0  0
  139.8690   69.1980  227.1460 C   0  0  0  0  0  0  0  0  0  0  0  0
  140.3620   69.7450  228.3130 C   0  0  0  0  0  0  0  0  0  0  0  0
  140.9420   70.9950  228.2800 C   0  0  0  0  0  0  0  0  0  0  0  0
  141.0630   71.7470  227.1300 C   0  0  0  0  0  0  0  0  0  0  0  0
  140.5690   71.1970  225.9650 C   0  0  0  0  0  0  0  0  0  0  0  0
  140.6480   71.8680  224.7990 N   0  0  0  0  0  0  0  0  0  0  0  0
  145.5730   73.3355  222.3123 H   0  0  0  0  0  0  0  0  0  0  0  0
  146.5708   72.4603  221.1018 H   0  0  0  0  0  0  0  0  0  0  0  0
  146.5289   74.2561  221.1018 H   0  0  0  0  0  0  0  0  0  0  0  0
  144.0341   71.7052  221.5985 H   0  0  0  0  0  0  0  0  0  0  0  0
  143.1410   71.9141  220.0540 H   0  0  0  0  0  0  0  0  0  0  0  0
  144.7708   71.1588  220.0540 H   0  0  0  0  0  0  0  0  0  0  0  0
  146.4030   73.2210  218.9119 H   0  0  0  0  0  0  0  0  0  0  0  0
  144.8911   72.4108  218.3788 H   0  0  0  0  0  0  0  0  0  0  0  0
  144.9972   74.2039  218.3788 H   0  0  0  0  0  0  0  0  0  0  0  0
  144.0291   75.0105  221.2783 H   0  0  0  0  0  0  0  0  0  0  0  0
  143.5900   74.7099  219.4712 H   0  0  0  0  0  0  0  0  0  0  0  0
  142.3090   72.9490  221.3180 H   0  0  0  0  0  0  0  0  0  0  0  0
  139.1375   74.8909  220.9740 H   0  0  0  0  0  0  0  0  0  0  0  0
  139.6128   73.2543  220.2517 H   0  0  0  0  0  0  0  0  0  0  0  0
  139.3210   73.7950  223.1300 H   0  0  0  0  0  0  0  0  0  0  0  0
  139.2028   69.6843  222.7212 H   0  0  0  0  0  0  0  0  0  0  0  0
  139.0276   68.4008  224.8307 H   0  0  0  0  0  0  0  0  0  0  0  0
  139.4003   68.2029  227.1371 H   0  0  0  0  0  0  0  0  0  0  0  0
  140.2929   69.1893  229.2598 H   0  0  0  0  0  0  0  0  0  0  0  0
  141.3287   71.4149  229.2203 H   0  0  0  0  0  0  0  0  0  0  0  0
  141.5327   72.7416  227.1412 H   0  0  0  0  0  0  0  0  0  0  0  0
  1  2  1  0
  2  3  1  0
  2  4  1  0
  2  5  1  0
  5  6  1  0
  6  7  1  0
  7  8  2  0
  7  9  1  0
  9 10  1  0
 10 11  1  0
 11 12  2  0
 11 13  1  0
 13 14  2  0
 14 15  1  0
 15 16  2  0
 16 17  1  0
 17 18  2  0
 18 19  1  0
 19 20  2  0
 20 21  1  0
 21 22  2  0
 22 13  1  0
 21 16  1  0
  1 23  1  0
  1 24  1  0
  1 25  1  0
  3 26  1  0
  3 27  1  0
  3 28  1  0
  4 29  1  0
  4 30  1  0
  4 31  1  0
  5 32  1  0
  5 33  1  0
  6 34  1  0
  9 35  1  0
  9 36  1  0
 10 37  1  0
 14 38  1  0
 15 39  1  0
 17 40  1  0
 18 41  1  0
 19 42  1  0
 20 43  1  0
M  END
>  <smiles>  (4) 
CC(C)(C)CNC(=O)CNC(=O)c1ccc2ccccc2n1

>  <score_type>  (4) 
oracle

>  <origin>  (4) 
autodockgpu

>  <m_score__min__energy>  (4) 
-7.5099999999999998

>  <m_primary>  (4) 
energy

>  <rmsd>  (4) 
3.345958324437156

>  <m_score__min__rmsd>  (4) 
3.345958324437156

>  <meeko>  (4) 
{"free_energy": -7.01, "intermolecular_energy": -8.5, "internal_energy": -1.61, "cluster_size": 41, "cluster_id": 2, "rank_in_cluster": 12}

>  <energy>  (4) 
-7.4

>  <cluster_rmsd>  (4) 
0.83

>  <cluster>  (4) 
1

$$$$

     RDKit          3D

 43 44  0  0  0  0  0  0  0  0999 V2000
  144.4120   71.6610  220.2530 C   0  0  0  0  0  0  0  0  0  0  0  0
  144.8180   73.0930  220.2350 C   0  0  0  0  0  0  0  0  0  0  0  0
  145.5090   73.3070  218.8660 C   0  0  0  0  0  0  0  0  0  0  0  0
  145.9480   73.3010  221.2470 C   0  0  0  0  0  0  0  0  0  0  0  0
  143.7880   74.1390  220.3660 C   0  0  0  0  0  0  0  0  0  0  0  0
  142.4650   73.8030  220.7330 N   0  0  0  0  0  0  0  0  0  0  0  0
  141.2910   74.5620  220.6750 C   0  0  0  0  0  0  0  0  0  0  0  0
  141.3530   75.7660  220.2410 O   0  0  0  0  0  0  0  0  0  0  0  0
  139.9430   74.1160  221.0710 C   0  0  0  0  0  0  0  0  0  0  0  0
  139.8310   73.4710  222.3410 N   0  0  0  0  0  0  0  0  0  0  0  0
  140.3000   72.1110  222.4220 C   0  0  0  0  0  0  0  0  0  0  0  0
  140.7720   71.5840  221.3820 O   0  0  0  0  0  0  0  0  0  0  0  0
  140.2170   71.3890  223.6860 C   0  0  0  0  0  0  0  0  0  0  0  0
  139.6400   70.1370  223.6810 C   0  0  0  0  0  0  0  0  0  0  0  0
  139.5330   69.4080  224.8450 C   0  0  0  0  0  0  0  0  0  0  0  0
  140.0100   69.9390  226.0250 C   0  0  0  0  0  0  0  0  0  0  0  0
  139.8880   69.1860  227.1640 C   0  0  0  0  0  0  0  0  0  0  0  0
  140.3670   69.7230  228.3410 C   0  0  0  0  0  0  0  0  0  0  0  0
  140.9410   70.9760  228.3260 C   0  0  0  0  0  0  0  0  0  0  0  0
  141.0690   71.7410  227.1850 C   0  0  0  0  0  0  0  0  0  0  0  0
  140.5880   71.2010  226.0100 C   0  0  0  0  0  0  0  0  0  0  0  0
  140.6750   71.8850  224.8520 N   0  0  0  0  0  0  0  0  0  0  0  0
  144.3154   71.3203  221.2945 H   0  0  0  0  0  0  0  0  0  0  0  0
  143.4462   71.5472  219.7389 H   0  0  0  0  0  0  0  0  0  0  0  0
  145.1744   71.0572  219.7389 H   0  0  0  0  0  0  0  0  0  0  0  0
  146.5485   73.6289  219.0263 H   0  0  0  0  0  0  0  0  0  0  0  0
  145.5004   72.3641  218.2995 H   0  0  0  0  0  0  0  0  0  0  0  0
  144.9690   74.0800  218.2995 H   0  0  0  0  0  0  0  0  0  0  0  0
  145.5445   73.2267  222.2676 H   0  0  0  0  0  0  0  0  0  0  0  0
  146.7183   72.5296  221.1002 H   0  0  0  0  0  0  0  0  0  0  0  0
  146.3931   74.2962  221.1002 H   0  0  0  0  0  0  0  0  0  0  0  0
  144.1541   74.8484  221.1228 H   0  0  0  0  0  0  0  0  0  0  0  0
  143.6730   74.5025  219.3342 H   0  0  0  0  0  0  0  0  0  0  0  0
  142.3260   72.8010  221.1210 H   0  0  0  0  0  0  0  0  0  0  0  0
  139.2898   75.0009  221.0871 H   0  0  0  0  0  0  0  0  0  0  0  0
  139.6607   73.3522  220.3314 H   0  0  0  0  0  0  0  0  0  0  0  0
  139.4520   73.8610  223.2200 H   0  0  0  0  0  0  0  0  0  0  0  0
  139.2612   69.7158  222.7381 H   0  0  0  0  0  0  0  0  0  0  0  0
  139.0706   68.4100  224.8333 H   0  0  0  0  0  0  0  0  0  0  0  0
  139.4245   68.1887  227.1403 H   0  0  0  0  0  0  0  0  0  0  0  0
  140.2917   69.1573  229.2814 H   0  0  0  0  0  0  0  0  0  0  0  0
  141.3170   71.3880  229.2741 H   0  0  0  0  0  0  0  0  0  0  0  0
  141.5340   72.7375  227.2109 H   0  0  0  0  0  0  0  0  0  0  0  0
  1  2  1  0
  2  3  1  0
  2  4  1  0
  2  5  1  0
  5  6  1  0
  6  7  1  0
  7  8  2  0
  7  9  1  0
  9 10  1  0
 10 11  1  0
 11 12  2  0
 11 13  1  0
 13 14  2  0
 14 15  1  0
 15 16  2  0
 16 17  1  0
 17 18  2  0
 18 19  1  0
 19 20  2  0
 20 21  1  0
 21 22  2  0
 22 13  1  0
 21 16  1  0
  1 23  1  0
  1 24  1  0
  1 25  1  0
  3 26  1  0
  3 27  1  0
  3 28  1  0
  4 29  1  0
  4 30  1  0
  4 31  1  0
  5 32  1  0
  5 33  1  0
  6 34  1  0
  9 35  1  0
  9 36  1  0
 10 37  1  0
 14 38  1  0
 15 39  1  0
 17 40  1  0
 18 41  1  0
 19 42  1  0
 20 43  1  0
M  END
>  <smiles>  (5) 
CC(C)(C)CNC(=O)CNC(=O)c1ccc2ccccc2n1

>  <score_type>  (5) 
oracle

>  <origin>  (5) 
autodockgpu

>  <m_score__min__energy>  (5) 
-7.5099999999999998

>  <m_primary>  (5) 
energy

>  <rmsd>  (5) 
3.2642957114247246

>  <m_score__min__rmsd>  (5) 
3.2642957114247246

>  <meeko>  (5) 
{"free_energy": -6.93, "intermolecular_energy": -8.42, "internal_energy": -1.63, "cluster_size": 41, "cluster_id": 2, "rank_in_cluster": 23}

>  <energy>  (5) 
-7.33

>  <cluster_rmsd>  (5) 
0.8

>  <cluster>  (5) 
1

$$$$

     RDKit          3D

 43 44  0  0  0  0  0  0  0  0999 V2000
  144.0590   71.9940  220.8400 C   0  0  0  0  0  0  0  0  0  0  0  0
  144.6850   73.2740  220.4100 C   0  0  0  0  0  0  0  0  0  0  0  0
  145.2390   73.0040  218.9900 C   0  0  0  0  0  0  0  0  0  0  0  0
  145.9430   73.5190  221.2480 C   0  0  0  0  0  0  0  0  0  0  0  0
  143.8580   74.4910  220.3250 C   0  0  0  0  0  0  0  0  0  0  0  0
  142.5510   74.5110  220.8630 N   0  0  0  0  0  0  0  0  0  0  0  0
  141.3540   74.0060  220.3450 C   0  0  0  0  0  0  0  0  0  0  0  0
  141.3670   73.4320  219.2010 O   0  0  0  0  0  0  0  0  0  0  0  0
  140.0300   74.0620  220.9930 C   0  0  0  0  0  0  0  0  0  0  0  0
  139.9220   73.4480  222.2800 N   0  0  0  0  0  0  0  0  0  0  0  0
  140.2970   72.0590  222.3700 C   0  0  0  0  0  0  0  0  0  0  0  0
  140.6900   71.4830  221.3240 O   0  0  0  0  0  0  0  0  0  0  0  0
  140.2120   71.3680  223.6510 C   0  0  0  0  0  0  0  0  0  0  0  0
  139.6240   70.1200  223.6760 C   0  0  0  0  0  0  0  0  0  0  0  0
  139.5160   69.4190  224.8560 C   0  0  0  0  0  0  0  0  0  0  0  0
  140.0010   69.9720  226.0230 C   0  0  0  0  0  0  0  0  0  0  0  0
  139.8770   69.2470  227.1790 C   0  0  0  0  0  0  0  0  0  0  0  0
  140.3650   69.8070  228.3410 C   0  0  0  0  0  0  0  0  0  0  0  0
  140.9490   71.0540  228.2960 C   0  0  0  0  0  0  0  0  0  0  0  0
  141.0800   71.7920  227.1380 C   0  0  0  0  0  0  0  0  0  0  0  0
  140.5900   71.2290  225.9770 C   0  0  0  0  0  0  0  0  0  0  0  0
  140.6790   71.8850  224.8030 N   0  0  0  0  0  0  0  0  0  0  0  0
  144.0364   71.9478  221.9388 H   0  0  0  0  0  0  0  0  0  0  0  0
  143.0321   71.9387  220.4495 H   0  0  0  0  0  0  0  0  0  0  0  0
  144.6458   71.1495  220.4495 H   0  0  0  0  0  0  0  0  0  0  0  0
  146.2254   72.5232  219.0666 H   0  0  0  0  0  0  0  0  0  0  0  0
  144.5491   72.3411  218.4472 H   0  0  0  0  0  0  0  0  0  0  0  0
  145.3361   73.9558  218.4472 H   0  0  0  0  0  0  0  0  0  0  0  0
  145.6871   73.4692  222.3167 H   0  0  0  0  0  0  0  0  0  0  0  0
  146.6945   72.7503  221.0147 H   0  0  0  0  0  0  0  0  0  0  0  0
  146.3511   74.5135  221.0147 H   0  0  0  0  0  0  0  0  0  0  0  0
  144.4195   75.2893  220.8324 H   0  0  0  0  0  0  0  0  0  0  0  0
  143.6814   74.5942  219.2442 H   0  0  0  0  0  0  0  0  0  0  0  0
  142.4490   74.9890  221.8290 H   0  0  0  0  0  0  0  0  0  0  0  0
  139.7573   75.1218  221.1046 H   0  0  0  0  0  0  0  0  0  0  0  0
  139.3612   73.4841  220.3382 H   0  0  0  0  0  0  0  0  0  0  0  0
  139.6060   73.8790  223.1640 H   0  0  0  0  0  0  0  0  0  0  0  0
  139.2378   69.6810  222.7443 H   0  0  0  0  0  0  0  0  0  0  0  0
  139.0461   68.4245  224.8681 H   0  0  0  0  0  0  0  0  0  0  0  0
  139.4049   68.2535  227.1802 H   0  0  0  0  0  0  0  0  0  0  0  0
  140.2887   69.2634  229.2943 H   0  0  0  0  0  0  0  0  0  0  0  0
  141.3312   71.4841  229.2335 H   0  0  0  0  0  0  0  0  0  0  0  0
  141.5538   72.7847  227.1398 H   0  0  0  0  0  0  0  0  0  0  0  0
  1  2  1  0
  2  3  1  0
  2  4  1  0
  2  5  1  0
  5  6  1  0
  6  7  1  0
  7  8  2  0
  7  9  1  0
  9 10  1  0
 10 11  1  0
 11 12  2  0
 11 13  1  0
 13 14  2  0
 14 15  1  0
 15 16  2  0
 16 17  1  0
 17 18  2  0
 18 19  1  0
 19 20  2  0
 20 21  1  0
 21 22  2  0
 22 13  1  0
 21 16  1  0
  1 23  1  0
  1 24  1  0
  1 25  1  0
  3 26  1  0
  3 27  1  0
  3 28  1  0
  4 29  1  0
  4 30  1  0
  4 31  1  0
  5 32  1  0
  5 33  1  0
  6 34  1  0
  9 35  1  0
  9 36  1  0
 10 37  1  0
 14 38  1  0
 15 39  1  0
 17 40  1  0
 18 41  1  0
 19 42  1  0
 20 43  1  0
M  END
>  <smiles>  (6) 
CC(C)(C)CNC(=O)CNC(=O)c1ccc2ccccc2n1

>  <score_type>  (6) 
oracle

>  <origin>  (6) 
autodockgpu

>  <m_score__min__energy>  (6) 
-7.5099999999999998

>  <m_primary>  (6) 
energy

>  <rmsd>  (6) 
3.2408022395912326

>  <m_score__min__rmsd>  (6) 
3.2408022395912326

>  <meeko>  (6) 
{"free_energy": -7.35, "intermolecular_energy": -8.84, "internal_energy": -1.06, "cluster_size": 41, "cluster_id": 2, "rank_in_cluster": 2}

>  <energy>  (6) 
-7.15

>  <cluster_rmsd>  (6) 
1.09

>  <cluster>  (6) 
1

$$$$

     RDKit          3D

 43 44  0  0  0  0  0  0  0  0999 V2000
  146.0090   73.7260  221.2040 C   0  0  0  0  0  0  0  0  0  0  0  0
  144.8440   73.4700  220.3130 C   0  0  0  0  0  0  0  0  0  0  0  0
  144.2760   72.1020  220.7620 C   0  0  0  0  0  0  0  0  0  0  0  0
  145.3530   73.2040  218.8940 C   0  0  0  0  0  0  0  0  0  0  0  0
  143.7180   74.4210  220.3040 C   0  0  0  0  0  0  0  0  0  0  0  0
  142.4080   73.9880  220.6120 N   0  0  0  0  0  0  0  0  0  0  0  0
  141.2280   74.7220  220.7700 C   0  0  0  0  0  0  0  0  0  0  0  0
  141.2680   75.9960  220.6420 O   0  0  0  0  0  0  0  0  0  0  0  0
  139.8940   74.1750  221.0790 C   0  0  0  0  0  0  0  0  0  0  0  0
  139.7540   73.5010  222.3320 N   0  0  0  0  0  0  0  0  0  0  0  0
  140.3330   72.1850  222.4280 C   0  0  0  0  0  0  0  0  0  0  0  0
  140.9170   71.7190  221.4170 O   0  0  0  0  0  0  0  0  0  0  0  0
  140.2300   71.4380  223.6760 C   0  0  0  0  0  0  0  0  0  0  0  0
  139.6200   70.2010  223.6420 C   0  0  0  0  0  0  0  0  0  0  0  0
  139.4930   69.4490  224.7890 C   0  0  0  0  0  0  0  0  0  0  0  0
  139.9810   69.9410  225.9810 C   0  0  0  0  0  0  0  0  0  0  0  0
  139.8380   69.1660  227.1030 C   0  0  0  0  0  0  0  0  0  0  0  0
  140.3290   69.6640  228.2920 C   0  0  0  0  0  0  0  0  0  0  0  0
  140.9350   70.9020  228.3060 C   0  0  0  0  0  0  0  0  0  0  0  0
  141.0850   71.6890  227.1830 C   0  0  0  0  0  0  0  0  0  0  0  0
  140.5920   71.1870  225.9960 C   0  0  0  0  0  0  0  0  0  0  0  0
  140.6980   71.8950  224.8530 N   0  0  0  0  0  0  0  0  0  0  0  0
  145.6897   73.6558  222.2543 H   0  0  0  0  0  0  0  0  0  0  0  0
  146.7918   72.9784  221.0080 H   0  0  0  0  0  0  0  0  0  0  0  0
  146.4063   74.7329  221.0080 H   0  0  0  0  0  0  0  0  0  0  0  0
  144.2568   72.0558  221.8609 H   0  0  0  0  0  0  0  0  0  0  0  0
  143.2543   71.9834  220.3721 H   0  0  0  0  0  0  0  0  0  0  0  0
  144.9133   71.2946  220.3721 H   0  0  0  0  0  0  0  0  0  0  0  0
  146.3269   72.6950  218.9432 H   0  0  0  0  0  0  0  0  0  0  0  0
  144.6329   72.5669  218.3596 H   0  0  0  0  0  0  0  0  0  0  0  0
  145.4649   74.1589  218.3596 H   0  0  0  0  0  0  0  0  0  0  0  0
  143.9670   75.2104  221.0285 H   0  0  0  0  0  0  0  0  0  0  0  0
  143.6415   74.7021  219.2433 H   0  0  0  0  0  0  0  0  0  0  0  0
  142.2870   72.9200  220.7460 H   0  0  0  0  0  0  0  0  0  0  0  0
  139.1795   75.0113  221.0680 H   0  0  0  0  0  0  0  0  0  0  0  0
  139.7109   73.4064  220.3137 H   0  0  0  0  0  0  0  0  0  0  0  0
  139.2850   73.8420  223.1870 H   0  0  0  0  0  0  0  0  0  0  0  0
  139.2313   69.8115  222.6896 H   0  0  0  0  0  0  0  0  0  0  0  0
  139.0059   68.4633  224.7543 H   0  0  0  0  0  0  0  0  0  0  0  0
  139.3490   68.1818  227.0566 H   0  0  0  0  0  0  0  0  0  0  0  0
  140.2379   69.0793  229.2193 H   0  0  0  0  0  0  0  0  0  0  0  0
  141.3195   71.2827  229.2637 H   0  0  0  0  0  0  0  0  0  0  0  0
  141.5755   72.6724  227.2316 H   0  0  0  0  0  0  0  0  0  0  0  0
  1  2  1  0
  2  3  1  0
  2  4  1  0
  2  5  1  0
  5  6  1  0
  6  7  1  0
  7  8  2  0
  7  9  1  0
  9 10  1  0
 10 11  1  0
 11 12  2  0
 11 13  1  0
 13 14  2  0
 14 15  1  0
 15 16  2  0
 16 17  1  0
 17 18  2  0
 18 19  1  0
 19 20  2  0
 20 21  1  0
 21 22  2  0
 22 13  1  0
 21 16  1  0
  1 23  1  0
  1 24  1  0
  1 25  1  0
  3 26  1  0
  3 27  1  0
  3 28  1  0
  4 29  1  0
  4 30  1  0
  4 31  1  0
  5 32  1  0
  5 33  1  0
  6 34  1  0
  9 35  1  0
  9 36  1  0
 10 37  1  0
 14 38  1  0
 15 39  1  0
 17 40  1  0
 18 41  1  0
 19 42  1  0
 20 43  1  0
M  END
>  <smiles>  (7) 
CC(C)(C)CNC(=O)CNC(=O)c1ccc2ccccc2n1

>  <score_type>  (7) 
oracle

>  <origin>  (7) 
autodockgpu

>  <m_score__min__energy>  (7) 
-7.5099999999999998

>  <m_primary>  (7) 
energy

>  <rmsd>  (7) 
3.315422003310407

>  <m_score__min__rmsd>  (7) 
3.315422003310407

>  <meeko>  (7) 
{"free_energy": -7.08, "intermolecular_energy": -8.57, "internal_energy": -1.56, "cluster_size": 41, "cluster_id": 2, "rank_in_cluster": 8}

>  <energy>  (7) 
-6.63

>  <cluster_rmsd>  (7) 
1.49

>  <cluster>  (7) 
1

$$$$

     RDKit          3D

 43 44  0  0  0  0  0  0  0  0999 V2000
  144.3860   71.6280  220.1390 C   0  0  0  0  0  0  0  0  0  0  0  0
  144.7580   73.0670  220.0510 C   0  0  0  0  0  0  0  0  0  0  0  0
  145.5770   73.2010  218.7450 C   0  0  0  0  0  0  0  0  0  0  0  0
  145.7750   73.3850  221.1510 C   0  0  0  0  0  0  0  0  0  0  0  0
  143.6950   74.0870  220.0000 C   0  0  0  0  0  0  0  0  0  0  0  0
  142.3750   73.7700  220.3930 N   0  0  0  0  0  0  0  0  0  0  0  0
  141.2900   74.6090  220.6710 C   0  0  0  0  0  0  0  0  0  0  0  0
  141.4500   75.8770  220.5890 O   0  0  0  0  0  0  0  0  0  0  0  0
  139.9340   74.1810  221.0640 C   0  0  0  0  0  0  0  0  0  0  0  0
  139.8150   73.5060  222.3180 N   0  0  0  0  0  0  0  0  0  0  0  0
  140.2910   72.1470  222.3720 C   0  0  0  0  0  0  0  0  0  0  0  0
  140.7750   71.6470  221.3240 O   0  0  0  0  0  0  0  0  0  0  0  0
  140.2020   71.3960  223.6180 C   0  0  0  0  0  0  0  0  0  0  0  0
  139.6140   70.1490  223.5830 C   0  0  0  0  0  0  0  0  0  0  0  0
  139.5010   69.3930  224.7290 C   0  0  0  0  0  0  0  0  0  0  0  0
  139.9810   69.8920  225.9220 C   0  0  0  0  0  0  0  0  0  0  0  0
  139.8530   69.1130  227.0420 C   0  0  0  0  0  0  0  0  0  0  0  0
  140.3360   69.6190  228.2320 C   0  0  0  0  0  0  0  0  0  0  0  0
  140.9190   70.8670  228.2470 C   0  0  0  0  0  0  0  0  0  0  0  0
  141.0540   71.6580  227.1250 C   0  0  0  0  0  0  0  0  0  0  0  0
  140.5700   71.1490  225.9370 C   0  0  0  0  0  0  0  0  0  0  0  0
  140.6630   71.8600  224.7950 N   0  0  0  0  0  0  0  0  0  0  0  0
  144.3097   71.3330  221.1960 H   0  0  0  0  0  0  0  0  0  0  0  0
  143.4172   71.4687  219.6430 H   0  0  0  0  0  0  0  0  0  0  0  0
  145.1563   71.0192  219.6430 H   0  0  0  0  0  0  0  0  0  0  0  0
  146.6349   73.3741  218.9917 H   0  0  0  0  0  0  0  0  0  0  0  0
  145.4842   72.2757  218.1574 H   0  0  0  0  0  0  0  0  0  0  0  0
  145.1941   74.0484  218.1574 H   0  0  0  0  0  0  0  0  0  0  0  0
  145.3075   73.2388  222.1359 H   0  0  0  0  0  0  0  0  0  0  0  0
  146.6420   72.7151  221.0536 H   0  0  0  0  0  0  0  0  0  0  0  0
  146.1059   74.4295  221.0536 H   0  0  0  0  0  0  0  0  0  0  0  0
  144.0240   74.9169  220.6426 H   0  0  0  0  0  0  0  0  0  0  0  0
  143.5914   74.2814  218.9223 H   0  0  0  0  0  0  0  0  0  0  0  0
  142.1570   72.7150  220.4960 H   0  0  0  0  0  0  0  0  0  0  0  0
  139.2998   75.0787  221.1066 H   0  0  0  0  0  0  0  0  0  0  0  0
  139.6319   73.4424  220.3069 H   0  0  0  0  0  0  0  0  0  0  0  0
  139.4270   73.8740  223.2020 H   0  0  0  0  0  0  0  0  0  0  0  0
  139.2314   69.7541  222.6303 H   0  0  0  0  0  0  0  0  0  0  0  0
  139.0315   68.3989  224.6930 H   0  0  0  0  0  0  0  0  0  0  0  0
  139.3822   68.1200  226.9945 H   0  0  0  0  0  0  0  0  0  0  0  0
  140.2562   69.0318  229.1587 H   0  0  0  0  0  0  0  0  0  0  0  0
  141.2971   71.2535  229.2049 H   0  0  0  0  0  0  0  0  0  0  0  0
  141.5263   72.6502  227.1749 H   0  0  0  0  0  0  0  0  0  0  0  0
  1  2  1  0
  2  3  1  0
  2  4  1  0
  2  5  1  0
  5  6  1  0
  6  7  1  0
  7  8  2  0
  7  9  1  0
  9 10  1  0
 10 11  1  0
 11 12  2  0
 11 13  1  0
 13 14  2  0
 14 15  1  0
 15 16  2  0
 16 17  1  0
 17 18  2  0
 18 19  1  0
 19 20  2  0
 20 21  1  0
 21 22  2  0
 22 13  1  0
 21 16  1  0
  1 23  1  0
  1 24  1  0
  1 25  1  0
  3 26  1  0
  3 27  1  0
  3 28  1  0
  4 29  1  0
  4 30  1  0
  4 31  1  0
  5 32  1  0
  5 33  1  0
  6 34  1  0
  9 35  1  0
  9 36  1  0
 10 37  1  0
 14 38  1  0
 15 39  1  0
 17 40  1  0
 18 41  1  0
 19 42  1  0
 20 43  1  0
M  END
>  <smiles>  (8) 
CC(C)(C)CNC(=O)CNC(=O)c1ccc2ccccc2n1

>  <score_type>  (8) 
oracle

>  <origin>  (8) 
autodockgpu

>  <m_score__min__energy>  (8) 
-7.5099999999999998

>  <m_primary>  (8) 
energy

>  <rmsd>  (8) 
3.2117678774848764

>  <m_score__min__rmsd>  (8) 
3.2117678774848764

>  <meeko>  (8) 
{"free_energy": -6.85, "intermolecular_energy": -8.34, "internal_energy": -1.63, "cluster_size": 41, "cluster_id": 2, "rank_in_cluster": 33}

>  <energy>  (8) 
-6.47

>  <cluster_rmsd>  (8) 
1.57

>  <cluster>  (8) 
1

$$$$

     RDKit          3D

 43 44  0  0  0  0  0  0  0  0999 V2000
  145.9500   73.4130  221.3430 C   0  0  0  0  0  0  0  0  0  0  0  0
  144.7800   73.4330  220.4230 C   0  0  0  0  0  0  0  0  0  0  0  0
  143.9080   72.2230  220.8410 C   0  0  0  0  0  0  0  0  0  0  0  0
  145.2510   73.0710  219.0120 C   0  0  0  0  0  0  0  0  0  0  0  0
  143.8960   74.6130  220.4020 C   0  0  0  0  0  0  0  0  0  0  0  0
  142.5790   74.5330  220.9070 N   0  0  0  0  0  0  0  0  0  0  0  0
  141.3960   74.1210  220.2830 C   0  0  0  0  0  0  0  0  0  0  0  0
  141.4370   73.7550  219.0560 O   0  0  0  0  0  0  0  0  0  0  0  0
  140.0590   74.0580  220.9020 C   0  0  0  0  0  0  0  0  0  0  0  0
  139.9830   73.4660  222.2010 N   0  0  0  0  0  0  0  0  0  0  0  0
  140.2800   72.0580  222.2900 C   0  0  0  0  0  0  0  0  0  0  0  0
  140.5830   71.4480  221.2330 O   0  0  0  0  0  0  0  0  0  0  0  0
  140.2230   71.3870  223.5830 C   0  0  0  0  0  0  0  0  0  0  0  0
  139.6510   70.1330  223.6380 C   0  0  0  0  0  0  0  0  0  0  0  0
  139.5680   69.4500  224.8300 C   0  0  0  0  0  0  0  0  0  0  0  0
  140.0640   70.0280  225.9800 C   0  0  0  0  0  0  0  0  0  0  0  0
  139.9660   69.3200  227.1500 C   0  0  0  0  0  0  0  0  0  0  0  0
  140.4640   69.9050  228.2960 C   0  0  0  0  0  0  0  0  0  0  0  0
  141.0320   71.1580  228.2220 C   0  0  0  0  0  0  0  0  0  0  0  0
  141.1360   71.8790  227.0500 C   0  0  0  0  0  0  0  0  0  0  0  0
  140.6360   71.2910  225.9060 C   0  0  0  0  0  0  0  0  0  0  0  0
  140.7000   71.9290  224.7200 N   0  0  0  0  0  0  0  0  0  0  0  0
  145.5973   73.4190  222.3849 H   0  0  0  0  0  0  0  0  0  0  0  0
  146.5433   72.5046  221.1620 H   0  0  0  0  0  0  0  0  0  0  0  0
  146.5740   74.3006  221.1620 H   0  0  0  0  0  0  0  0  0  0  0  0
  143.8652   72.1636  221.9386 H   0  0  0  0  0  0  0  0  0  0  0  0
  142.8911   72.3481  220.4406 H   0  0  0  0  0  0  0  0  0  0  0  0
  144.3484   71.2979  220.4406 H   0  0  0  0  0  0  0  0  0  0  0  0
  146.1217   72.4018  219.0765 H   0  0  0  0  0  0  0  0  0  0  0  0
  144.4376   72.5634  218.4728 H   0  0  0  0  0  0  0  0  0  0  0  0
  145.5322   73.9877  218.4728 H   0  0  0  0  0  0  0  0  0  0  0  0
  144.4066   75.3992  220.9774 H   0  0  0  0  0  0  0  0  0  0  0  0
  143.7380   74.7838  219.3269 H   0  0  0  0  0  0  0  0  0  0  0  0
  142.4530   74.8350  221.9390 H   0  0  0  0  0  0  0  0  0  0  0  0
  139.6790   75.0872  220.9814 H   0  0  0  0  0  0  0  0  0  0  0  0
  139.4671   73.4006  220.2482 H   0  0  0  0  0  0  0  0  0  0  0  0
  139.7400   73.9240  223.0940 H   0  0  0  0  0  0  0  0  0  0  0  0
  139.2570   69.6739  222.7193 H   0  0  0  0  0  0  0  0  0  0  0  0
  139.1096   68.4507  224.8653 H   0  0  0  0  0  0  0  0  0  0  0  0
  139.5066   68.3208  227.1742 H   0  0  0  0  0  0  0  0  0  0  0  0
  140.4081   69.3763  229.2590 H   0  0  0  0  0  0  0  0  0  0  0  0
  141.4235   71.6077  229.1464 H   0  0  0  0  0  0  0  0  0  0  0  0
  141.5968   72.8776  227.0286 H   0  0  0  0  0  0  0  0  0  0  0  0
  1  2  1  0
  2  3  1  0
  2  4  1  0
  2  5  1  0
  5  6  1  0
  6  7  1  0
  7  8  2  0
  7  9  1  0
  9 10  1  0
 10 11  1  0
 11 12  2  0
 11 13  1  0
 13 14  2  0
 14 15  1  0
 15 16  2  0
 16 17  1  0
 17 18  2  0
 18 19  1  0
 19 20  2  0
 20 21  1  0
 21 22  2  0
 22 13  1  0
 21 16  1  0
  1 23  1  0
  1 24  1  0
  1 25  1  0
  3 26  1  0
  3 27  1  0
  3 28  1  0
  4 29  1  0
  4 30  1  0
  4 31  1  0
  5 32  1  0
  5 33  1  0
  6 34  1  0
  9 35  1  0
  9 36  1  0
 10 37  1  0
 14 38  1  0
 15 39  1  0
 17 40  1  0
 18 41  1  0
 19 42  1  0
 20 43  1  0
M  END
>  <smiles>  (9) 
CC(C)(C)CNC(=O)CNC(=O)c1ccc2ccccc2n1

>  <score_type>  (9) 
oracle

>  <origin>  (9) 
autodockgpu

>  <m_score__min__energy>  (9) 
-7.5099999999999998

>  <m_primary>  (9) 
energy

>  <rmsd>  (9) 
3.418612020259277

>  <m_score__min__rmsd>  (9) 
3.418612020259277

>  <meeko>  (9) 
{"free_energy": -7.14, "intermolecular_energy": -8.63, "internal_energy": -1.12, "cluster_size": 41, "cluster_id": 2, "rank_in_cluster": 3}

>  <energy>  (9) 
-7.5

>  <cluster_rmsd>  (9) 
0.0

>  <cluster>  (9) 
2

$$$$

     RDKit          3D

 43 44  0  0  0  0  0  0  0  0999 V2000
  145.9740   73.7260  221.0300 C   0  0  0  0  0  0  0  0  0  0  0  0
  144.7880   73.4310  220.1800 C   0  0  0  0  0  0  0  0  0  0  0  0
  144.4140   71.9620  220.4940 C   0  0  0  0  0  0  0  0  0  0  0  0
  145.2260   73.3880  218.7130 C   0  0  0  0  0  0  0  0  0  0  0  0
  143.5620   74.2320  220.3460 C   0  0  0  0  0  0  0  0  0  0  0  0
  142.3200   73.6040  220.5890 N   0  0  0  0  0  0  0  0  0  0  0  0
  141.4420   72.9670  219.7050 C   0  0  0  0  0  0  0  0  0  0  0  0
  141.7410   72.9200  218.4610 O   0  0  0  0  0  0  0  0  0  0  0  0
  140.1640   72.3220  220.0580 C   0  0  0  0  0  0  0  0  0  0  0  0
  140.1640   71.5020  221.2290 N   0  0  0  0  0  0  0  0  0  0  0  0
  140.0920   72.1830  222.4980 C   0  0  0  0  0  0  0  0  0  0  0  0
  140.0350   73.4390  222.4930 O   0  0  0  0  0  0  0  0  0  0  0  0
  140.0880   71.4110  223.7350 C   0  0  0  0  0  0  0  0  0  0  0  0
  139.5480   70.1420  223.7050 C   0  0  0  0  0  0  0  0  0  0  0  0
  139.5160   69.3660  224.8420 C   0  0  0  0  0  0  0  0  0  0  0  0
  140.0300   69.8660  226.0210 C   0  0  0  0  0  0  0  0  0  0  0  0
  139.9820   69.0660  227.1330 C   0  0  0  0  0  0  0  0  0  0  0  0
  140.4980   69.5730  228.3080 C   0  0  0  0  0  0  0  0  0  0  0  0
  141.0330   70.8430  228.3180 C   0  0  0  0  0  0  0  0  0  0  0  0
  141.0860   71.6550  227.2040 C   0  0  0  0  0  0  0  0  0  0  0  0
  140.5690   71.1450  226.0310 C   0  0  0  0  0  0  0  0  0  0  0  0
  140.5830   71.8750  224.8980 N   0  0  0  0  0  0  0  0  0  0  0  0
  145.6915   73.6557  222.0908 H   0  0  0  0  0  0  0  0  0  0  0  0
  146.7702   72.9985  220.8137 H   0  0  0  0  0  0  0  0  0  0  0  0
  146.3367   74.7417  220.8137 H   0  0  0  0  0  0  0  0  0  0  0  0
  144.3773   71.8179  221.5839 H   0  0  0  0  0  0  0  0  0  0  0  0
  143.4291   71.7337  220.0606 H   0  0  0  0  0  0  0  0  0  0  0  0
  145.1698   71.2905  220.0606 H   0  0  0  0  0  0  0  0  0  0  0  0
  146.3195   73.2807  218.6598 H   0  0  0  0  0  0  0  0  0  0  0  0
  144.7488   72.5324  218.2128 H   0  0  0  0  0  0  0  0  0  0  0  0
  144.9243   74.3201  218.2128 H   0  0  0  0  0  0  0  0  0  0  0  0
  143.7421   74.9112  221.1923 H   0  0  0  0  0  0  0  0  0  0  0  0
  143.4220   74.6773  219.3500 H   0  0  0  0  0  0  0  0  0  0  0  0
  141.9860   73.6080  221.6190 H   0  0  0  0  0  0  0  0  0  0  0  0
  139.4186   73.1171  220.2071 H   0  0  0  0  0  0  0  0  0  0  0  0
  139.9436   71.6385  219.2247 H   0  0  0  0  0  0  0  0  0  0  0  0
  140.2090   70.4710  221.2820 H   0  0  0  0  0  0  0  0  0  0  0  0
  139.1390   69.7462  222.7637 H   0  0  0  0  0  0  0  0  0  0  0  0
  139.0839   68.3549  224.8107 H   0  0  0  0  0  0  0  0  0  0  0  0
  139.5478   68.0562  227.0902 H   0  0  0  0  0  0  0  0  0  0  0  0
  140.4825   68.9695  229.2275 H   0  0  0  0  0  0  0  0  0  0  0  0
  141.4393   71.2297  229.2643 H   0  0  0  0  0  0  0  0  0  0  0  0
  141.5211   72.6643  227.2490 H   0  0  0  0  0  0  0  0  0  0  0  0
  1  2  1  0
  2  3  1  0
  2  4  1  0
  2  5  1  0
  5  6  1  0
  6  7  1  0
  7  8  2  0
  7  9  1  0
  9 10  1  0
 10 11  1  0
 11 12  2  0
 11 13  1  0
 13 14  2  0
 14 15  1  0
 15 16  2  0
 16 17  1  0
 17 18  2  0
 18 19  1  0
 19 20  2  0
 20 21  1  0
 21 22  2  0
 22 13  1  0
 21 16  1  0
  1 23  1  0
  1 24  1  0
  1 25  1  0
  3 26  1  0
  3 27  1  0
  3 28  1  0
  4 29  1  0
  4 30  1  0
  4 31  1  0
  5 32  1  0
  5 33  1  0
  6 34  1  0
  9 35  1  0
  9 36  1  0
 10 37  1  0
 14 38  1  0
 15 39  1  0
 17 40  1  0
 18 41  1  0
 19 42  1  0
 20 43  1  0
M  END
>  <smiles>  (10) 
CC(C)(C)CNC(=O)CNC(=O)c1ccc2ccccc2n1

>  <score_type>  (10) 
oracle

>  <origin>  (10) 
autodockgpu

>  <m_score__min__energy>  (10) 
-7.5099999999999998

>  <m_primary>  (10) 
energy

>  <rmsd>  (10) 
3.48514302786543

>  <m_score__min__rmsd>  (10) 
3.48514302786543

>  <meeko>  (10) 
{"free_energy": -6.67, "intermolecular_energy": -8.16, "internal_energy": -1.52, "cluster_size": 41, "cluster_id": 2, "rank_in_cluster": 37}

>  <energy>  (10) 
-7.35

>  <cluster_rmsd>  (10) 
0.18

>  <cluster>  (10) 
2

$$$$

     RDKit          3D

 43 44  0  0  0  0  0  0  0  0999 V2000
  145.5380   73.2300  218.6330 C   0  0  0  0  0  0  0  0  0  0  0  0
  144.8630   73.3870  219.9500 C   0  0  0  0  0  0  0  0  0  0  0  0
  145.9840   73.7820  220.9420 C   0  0  0  0  0  0  0  0  0  0  0  0
  144.4100   72.0100  220.4440 C   0  0  0  0  0  0  0  0  0  0  0  0
  143.7870   74.3840  220.0980 C   0  0  0  0  0  0  0  0  0  0  0  0
  142.4590   73.9760  220.3540 N   0  0  0  0  0  0  0  0  0  0  0  0
  141.3720   74.7030  220.8530 C   0  0  0  0  0  0  0  0  0  0  0  0
  141.5380   75.9350  221.1580 O   0  0  0  0  0  0  0  0  0  0  0  0
  140.0070   74.1900  221.0750 C   0  0  0  0  0  0  0  0  0  0  0  0
  139.7770   73.4990  222.3050 N   0  0  0  0  0  0  0  0  0  0  0  0
  140.4370   72.2290  222.4700 C   0  0  0  0  0  0  0  0  0  0  0  0
  141.1650   71.8140  221.5330 O   0  0  0  0  0  0  0  0  0  0  0  0
  140.2480   71.4680  223.7000 C   0  0  0  0  0  0  0  0  0  0  0  0
  139.5730   70.2680  223.6220 C   0  0  0  0  0  0  0  0  0  0  0  0
  139.3640   69.5060  224.7490 C   0  0  0  0  0  0  0  0  0  0  0  0
  139.8350   69.9500  225.9670 C   0  0  0  0  0  0  0  0  0  0  0  0
  139.6100   69.1660  227.0680 C   0  0  0  0  0  0  0  0  0  0  0  0
  140.0850   69.6170  228.2830 C   0  0  0  0  0  0  0  0  0  0  0  0
  140.7570   70.8180  228.3410 C   0  0  0  0  0  0  0  0  0  0  0  0
  140.9900   71.6140  227.2380 C   0  0  0  0  0  0  0  0  0  0  0  0
  140.5130   71.1600  226.0250 C   0  0  0  0  0  0  0  0  0  0  0  0
  140.6990   71.8790  224.9000 N   0  0  0  0  0  0  0  0  0  0  0  0
  146.5982   72.9834  218.7915 H   0  0  0  0  0  0  0  0  0  0  0  0
  145.0539   72.4205  218.0670 H   0  0  0  0  0  0  0  0  0  0  0  0
  145.4608   74.1701  218.0670 H   0  0  0  0  0  0  0  0  0  0  0  0
  145.6227   73.6547  221.9732 H   0  0  0  0  0  0  0  0  0  0  0  0
  146.8614   73.1389  220.7789 H   0  0  0  0  0  0  0  0  0  0  0  0
  146.2644   74.8331  220.7789 H   0  0  0  0  0  0  0  0  0  0  0  0
  144.4061   71.9981  221.5439 H   0  0  0  0  0  0  0  0  0  0  0  0
  143.3961   71.8021  220.0714 H   0  0  0  0  0  0  0  0  0  0  0  0
  145.1024   71.2408  220.0714 H   0  0  0  0  0  0  0  0  0  0  0  0
  144.0799   75.0420  220.9294 H   0  0  0  0  0  0  0  0  0  0  0  0
  143.7197   74.8249  219.0925 H   0  0  0  0  0  0  0  0  0  0  0  0
  142.2350   72.9410  220.1320 H   0  0  0  0  0  0  0  0  0  0  0  0
  139.3182   75.0469  221.0393 H   0  0  0  0  0  0  0  0  0  0  0  0
  139.8460   73.4407  220.2859 H   0  0  0  0  0  0  0  0  0  0  0  0
  139.1900   73.8000  223.1010 H   0  0  0  0  0  0  0  0  0  0  0  0
  139.1979   69.9163  222.6495 H   0  0  0  0  0  0  0  0  0  0  0  0
  138.8251   68.5496  224.6788 H   0  0  0  0  0  0  0  0  0  0  0  0
  139.0700   68.2111  226.9865 H   0  0  0  0  0  0  0  0  0  0  0  0
  139.9285   69.0233  229.1957 H   0  0  0  0  0  0  0  0  0  0  0  0
  141.1276   71.1608  229.3183 H   0  0  0  0  0  0  0  0  0  0  0  0
  141.5317   72.5677  227.3218 H   0  0  0  0  0  0  0  0  0  0  0  0
  1  2  1  0
  2  3  1  0
  2  4  1  0
  2  5  1  0
  5  6  1  0
  6  7  1  0
  7  8  2  0
  7  9  1  0
  9 10  1  0
 10 11  1  0
 11 12  2  0
 11 13  1  0
 13 14  2  0
 14 15  1  0
 15 16  2  0
 16 17  1  0
 17 18  2  0
 18 19  1  0
 19 20  2  0
 20 21  1  0
 21 22  2  0
 22 13  1  0
 21 16  1  0
  1 23  1  0
  1 24  1  0
  1 25  1  0
  3 26  1  0
  3 27  1  0
  3 28  1  0
  4 29  1  0
  4 30  1  0
  4 31  1  0
  5 32  1  0
  5 33  1  0
  6 34  1  0
  9 35  1  0
  9 36  1  0
 10 37  1  0
 14 38  1  0
 15 39  1  0
 17 40  1  0
 18 41  1  0
 19 42  1  0
 20 43  1  0
M  END
>  <smiles>  (11) 
CC(C)(C)CNC(=O)CNC(=O)c1ccc2ccccc2n1

>  <score_type>  (11) 
oracle

>  <origin>  (11) 
autodockgpu

>  <m_score__min__energy>  (11) 
-7.5099999999999998

>  <m_primary>  (11) 
energy

>  <rmsd>  (11) 
3.2432784600451043

>  <m_score__min__rmsd>  (11) 
3.2432784600451043

>  <meeko>  (11) 
{"free_energy": -7.08, "intermolecular_energy": -8.58, "internal_energy": -1.55, "cluster_size": 41, "cluster_id": 2, "rank_in_cluster": 7}

>  <energy>  (11) 
-7.14

>  <cluster_rmsd>  (11) 
0.25

>  <cluster>  (11) 
2

$$$$

     RDKit          3D

 43 44  0  0  0  0  0  0  0  0999 V2000
  145.9960   73.7600  221.2080 C   0  0  0  0  0  0  0  0  0  0  0  0
  144.8700   73.4450  220.2870 C   0  0  0  0  0  0  0  0  0  0  0  0
  144.2810   72.1080  220.8010 C   0  0  0  0  0  0  0  0  0  0  0  0
  145.4380   73.0870  218.9110 C   0  0  0  0  0  0  0  0  0  0  0  0
  143.7460   74.3920  220.1680 C   0  0  0  0  0  0  0  0  0  0  0  0
  142.4250   73.9800  220.4560 N   0  0  0  0  0  0  0  0  0  0  0  0
  141.3070   74.7310  220.8340 C   0  0  0  0  0  0  0  0  0  0  0  0
  141.4300   75.9980  220.9730 O   0  0  0  0  0  0  0  0  0  0  0  0
  139.9540   74.2090  221.1000 C   0  0  0  0  0  0  0  0  0  0  0  0
  139.7670   73.5210  222.3390 N   0  0  0  0  0  0  0  0  0  0  0  0
  140.3930   72.2290  222.4650 C   0  0  0  0  0  0  0  0  0  0  0  0
  141.0550   71.7940  221.4880 O   0  0  0  0  0  0  0  0  0  0  0  0
  140.2450   71.4700  223.7010 C   0  0  0  0  0  0  0  0  0  0  0  0
  139.6010   70.2520  223.6400 C   0  0  0  0  0  0  0  0  0  0  0  0
  139.4310   69.4890  224.7740 C   0  0  0  0  0  0  0  0  0  0  0  0
  139.9120   69.9520  225.9820 C   0  0  0  0  0  0  0  0  0  0  0  0
  139.7260   69.1670  227.0900 C   0  0  0  0  0  0  0  0  0  0  0  0
  140.2100   69.6360  228.2940 C   0  0  0  0  0  0  0  0  0  0  0  0
  140.8510   70.8550  228.3350 C   0  0  0  0  0  0  0  0  0  0  0  0
  141.0430   71.6520  227.2250 C   0  0  0  0  0  0  0  0  0  0  0  0
  140.5580   71.1800  226.0230 C   0  0  0  0  0  0  0  0  0  0  0  0
  140.7050   71.8980  224.8920 N   0  0  0  0  0  0  0  0  0  0  0  0
  145.6554   73.6647  222.2496 H   0  0  0  0  0  0  0  0  0  0  0  0
  146.8244   73.0591  221.0275 H   0  0  0  0  0  0  0  0  0  0  0  0
  146.3404   74.7890  221.0275 H   0  0  0  0  0  0  0  0  0  0  0  0
  144.2803   72.1064  221.9010 H   0  0  0  0  0  0  0  0  0  0  0  0
  143.2503   71.9961  220.4335 H   0  0  0  0  0  0  0  0  0  0  0  0
  144.8941   71.2719  220.4335 H   0  0  0  0  0  0  0  0  0  0  0  0
  146.3625   72.5043  219.0363 H   0  0  0  0  0  0  0  0  0  0  0  0
  144.7009   72.4899  218.3541 H   0  0  0  0  0  0  0  0  0  0  0  0
  145.6587   74.0096  218.3541 H   0  0  0  0  0  0  0  0  0  0  0  0
  143.9684   75.2310  220.8437 H   0  0  0  0  0  0  0  0  0  0  0  0
  143.7102   74.5975  219.0880 H   0  0  0  0  0  0  0  0  0  0  0  0
  142.2360   72.9170  220.3710 H   0  0  0  0  0  0  0  0  0  0  0  0
  139.2580   75.0606  221.0825 H   0  0  0  0  0  0  0  0  0  0  0  0
  139.7745   73.4554  220.3191 H   0  0  0  0  0  0  0  0  0  0  0  0
  139.2340   73.8370  223.1660 H   0  0  0  0  0  0  0  0  0  0  0  0
  139.2191   69.8860  222.6755 H   0  0  0  0  0  0  0  0  0  0  0  0
  138.9161   68.5186  224.7174 H   0  0  0  0  0  0  0  0  0  0  0  0
  139.2096   68.1982  227.0219 H   0  0  0  0  0  0  0  0  0  0  0  0
  140.0854   69.0427  229.2119 H   0  0  0  0  0  0  0  0  0  0  0  0
  141.2298   71.2118  229.3041 H   0  0  0  0  0  0  0  0  0  0  0  0
  141.5598   72.6205  227.2955 H   0  0  0  0  0  0  0  0  0  0  0  0
  1  2  1  0
  2  3  1  0
  2  4  1  0
  2  5  1  0
  5  6  1  0
  6  7  1  0
  7  8  2  0
  7  9  1  0
  9 10  1  0
 10 11  1  0
 11 12  2  0
 11 13  1  0
 13 14  2  0
 14 15  1  0
 15 16  2  0
 16 17  1  0
 17 18  2  0
 18 19  1  0
 19 20  2  0
 20 21  1  0
 21 22  2  0
 22 13  1  0
 21 16  1  0
  1 23  1  0
  1 24  1  0
  1 25  1  0
  3 26  1  0
  3 27  1  0
  3 28  1  0
  4 29  1  0
  4 30  1  0
  4 31  1  0
  5 32  1  0
  5 33  1  0
  6 34  1  0
  9 35  1  0
  9 36  1  0
 10 37  1  0
 14 38  1  0
 15 39  1  0
 17 40  1  0
 18 41  1  0
 19 42  1  0
 20 43  1  0
M  END
>  <smiles>  (12) 
CC(C)(C)CNC(=O)CNC(=O)c1ccc2ccccc2n1

>  <score_type>  (12) 
oracle

>  <origin>  (12) 
autodockgpu

>  <m_score__min__energy>  (12) 
-7.5099999999999998

>  <m_primary>  (12) 
energy

>  <rmsd>  (12) 
3.3204591058090256

>  <m_score__min__rmsd>  (12) 
3.3204591058090256

>  <meeko>  (12) 
{"free_energy": -7.14, "intermolecular_energy": -8.63, "internal_energy": -1.57, "cluster_size": 41, "cluster_id": 2, "rank_in_cluster": 4}

>  <energy>  (12) 
-7.14

>  <cluster_rmsd>  (12) 
0.92

>  <cluster>  (12) 
2

$$$$

     RDKit          3D

 43 44  0  0  0  0  0  0  0  0999 V2000
  146.0160   73.6800  221.0890 C   0  0  0  0  0  0  0  0  0  0  0  0
  144.8100   73.4040  220.2600 C   0  0  0  0  0  0  0  0  0  0  0  0
  144.4380   71.9300  220.5540 C   0  0  0  0  0  0  0  0  0  0  0  0
  145.2150   73.3880  218.7830 C   0  0  0  0  0  0  0  0  0  0  0  0
  143.5910   74.2050  220.4680 C   0  0  0  0  0  0  0  0  0  0  0  0
  142.3390   73.5760  220.6540 N   0  0  0  0  0  0  0  0  0  0  0  0
  141.4540   73.0310  219.7170 C   0  0  0  0  0  0  0  0  0  0  0  0
  141.7560   73.0880  218.4740 O   0  0  0  0  0  0  0  0  0  0  0  0
  140.1670   72.3750  220.0110 C   0  0  0  0  0  0  0  0  0  0  0  0
  140.1210   71.5520  221.1790 N   0  0  0  0  0  0  0  0  0  0  0  0
  140.0300   72.2300  222.4480 C   0  0  0  0  0  0  0  0  0  0  0  0
  139.9980   73.4870  222.4460 O   0  0  0  0  0  0  0  0  0  0  0  0
  139.9790   71.4550  223.6810 C   0  0  0  0  0  0  0  0  0  0  0  0
  139.3000   70.2540  223.6650 C   0  0  0  0  0  0  0  0  0  0  0  0
  139.2180   69.4790  224.8000 C   0  0  0  0  0  0  0  0  0  0  0  0
  139.8210   69.9100  225.9630 C   0  0  0  0  0  0  0  0  0  0  0  0
  139.7190   69.1130  227.0730 C   0  0  0  0  0  0  0  0  0  0  0  0
  140.3260   69.5510  228.2330 C   0  0  0  0  0  0  0  0  0  0  0  0
  140.9990   70.7530  228.2300 C   0  0  0  0  0  0  0  0  0  0  0  0
  141.1080   71.5620  227.1170 C   0  0  0  0  0  0  0  0  0  0  0  0
  140.5000   71.1210  225.9600 C   0  0  0  0  0  0  0  0  0  0  0  0
  140.5600   71.8530  224.8290 N   0  0  0  0  0  0  0  0  0  0  0  0
  145.7502   73.6192  222.1547 H   0  0  0  0  0  0  0  0  0  0  0  0
  146.7947   72.9368  220.8623 H   0  0  0  0  0  0  0  0  0  0  0  0
  146.3940   74.6879  220.8623 H   0  0  0  0  0  0  0  0  0  0  0  0
  144.3981   71.7719  221.6418 H   0  0  0  0  0  0  0  0  0  0  0  0
  143.4550   71.7053  220.1145 H   0  0  0  0  0  0  0  0  0  0  0  0
  145.1967   71.2657  220.1145 H   0  0  0  0  0  0  0  0  0  0  0  0
  146.3113   73.3447  218.7039 H   0  0  0  0  0  0  0  0  0  0  0  0
  144.7768   72.5065  218.2922 H   0  0  0  0  0  0  0  0  0  0  0  0
  144.8477   74.3014  218.2922 H   0  0  0  0  0  0  0  0  0  0  0  0
  143.7687   74.8221  221.3611 H   0  0  0  0  0  0  0  0  0  0  0  0
  143.4670   74.7192  219.5035 H   0  0  0  0  0  0  0  0  0  0  0  0
  142.0030   73.4940  221.6800 H   0  0  0  0  0  0  0  0  0  0  0  0
  139.4093   73.1638  220.1283 H   0  0  0  0  0  0  0  0  0  0  0  0
  139.9899   71.6918  219.1672 H   0  0  0  0  0  0  0  0  0  0  0  0
  140.1440   70.5200  221.2290 H   0  0  0  0  0  0  0  0  0  0  0  0
  138.8195   69.9124  222.7363 H   0  0  0  0  0  0  0  0  0  0  0  0
  138.6752   68.5225  224.7793 H   0  0  0  0  0  0  0  0  0  0  0  0
  139.1731   68.1586  227.0409 H   0  0  0  0  0  0  0  0  0  0  0  0
  140.2728   68.9463  229.1504 H   0  0  0  0  0  0  0  0  0  0  0  0
  141.4748   71.0858  229.1643 H   0  0  0  0  0  0  0  0  0  0  0  0
  141.6552   72.5156  227.1511 H   0  0  0  0  0  0  0  0  0  0  0  0
  1  2  1  0
  2  3  1  0
  2  4  1  0
  2  5  1  0
  5  6  1  0
  6  7  1  0
  7  8  2  0
  7  9  1  0
  9 10  1  0
 10 11  1  0
 11 12  2  0
 11 13  1  0
 13 14  2  0
 14 15  1  0
 15 16  2  0
 16 17  1  0
 17 18  2  0
 18 19  1  0
 19 20  2  0
 20 21  1  0
 21 22  2  0
 22 13  1  0
 21 16  1  0
  1 23  1  0
  1 24  1  0
  1 25  1  0
  3 26  1  0
  3 27  1  0
  3 28  1  0
  4 29  1  0
  4 30  1  0
  4 31  1  0
  5 32  1  0
  5 33  1  0
  6 34  1  0
  9 35  1  0
  9 36  1  0
 10 37  1  0
 14 38  1  0
 15 39  1  0
 17 40  1  0
 18 41  1  0
 19 42  1  0
 20 43  1  0
M  END
>  <smiles>  (13) 
CC(C)(C)CNC(=O)CNC(=O)c1ccc2ccccc2n1

>  <score_type>  (13) 
oracle

>  <origin>  (13) 
autodockgpu

>  <m_score__min__energy>  (13) 
-7.5099999999999998

>  <m_primary>  (13) 
energy

>  <rmsd>  (13) 
3.511689824746002

>  <m_score__min__rmsd>  (13) 
3.511689824746002

>  <meeko>  (13) 
{"free_energy": -6.6, "intermolecular_energy": -8.09, "internal_energy": -1.53, "cluster_size": 41, "cluster_id": 2, "rank_in_cluster": 40}

>  <energy>  (13) 
-7.1

>  <cluster_rmsd>  (13) 
0.86

>  <cluster>  (13) 
2

$$$$

     RDKit          3D

 43 44  0  0  0  0  0  0  0  0999 V2000
  145.3660   73.2930  218.7860 C   0  0  0  0  0  0  0  0  0  0  0  0
  144.7540   73.2690  220.1430 C   0  0  0  0  0  0  0  0  0  0  0  0
  145.9360   73.4330  221.1300 C   0  0  0  0  0  0  0  0  0  0  0  0
  144.2350   71.8570  220.4300 C   0  0  0  0  0  0  0  0  0  0  0  0
  143.7500   74.2870  220.5020 C   0  0  0  0  0  0  0  0  0  0  0  0
  142.4300   73.9090  220.8350 N   0  0  0  0  0  0  0  0  0  0  0  0
  141.2170   74.5670  220.6050 C   0  0  0  0  0  0  0  0  0  0  0  0
  141.2300   75.7030  220.0140 O   0  0  0  0  0  0  0  0  0  0  0  0
  139.8750   74.0820  220.9790 C   0  0  0  0  0  0  0  0  0  0  0  0
  139.7570   73.4560  222.2590 N   0  0  0  0  0  0  0  0  0  0  0  0
  140.3000   72.1270  222.3840 C   0  0  0  0  0  0  0  0  0  0  0  0
  140.8360   71.6080  221.3720 O   0  0  0  0  0  0  0  0  0  0  0  0
  140.2150   71.4270  223.6600 C   0  0  0  0  0  0  0  0  0  0  0  0
  139.6120   70.1860  223.6810 C   0  0  0  0  0  0  0  0  0  0  0  0
  139.5020   69.4780  224.8560 C   0  0  0  0  0  0  0  0  0  0  0  0
  140.0020   70.0160  226.0230 C   0  0  0  0  0  0  0  0  0  0  0  0
  139.8770   69.2840  227.1750 C   0  0  0  0  0  0  0  0  0  0  0  0
  140.3800   69.8290  228.3380 C   0  0  0  0  0  0  0  0  0  0  0  0
  140.9790   71.0690  228.2980 C   0  0  0  0  0  0  0  0  0  0  0  0
  141.1110   71.8140  227.1450 C   0  0  0  0  0  0  0  0  0  0  0  0
  140.6070   71.2660  225.9830 C   0  0  0  0  0  0  0  0  0  0  0  0
  140.6960   71.9300  224.8130 N   0  0  0  0  0  0  0  0  0  0  0  0
  146.4613   73.3360  218.8784 H   0  0  0  0  0  0  0  0  0  0  0  0
  145.0796   72.3829  218.2385 H   0  0  0  0  0  0  0  0  0  0  0  0
  145.0093   74.1778  218.2385 H   0  0  0  0  0  0  0  0  0  0  0  0
  145.5612   73.3810  222.1629 H   0  0  0  0  0  0  0  0  0  0  0  0
  146.6667   72.6276  220.9641 H   0  0  0  0  0  0  0  0  0  0  0  0
  146.4198   74.4069  220.9641 H   0  0  0  0  0  0  0  0  0  0  0  0
  144.1778   71.7014  221.5174 H   0  0  0  0  0  0  0  0  0  0  0  0
  143.2342   71.7376  219.9893 H   0  0  0  0  0  0  0  0  0  0  0  0
  144.9202   71.1179  219.9893 H   0  0  0  0  0  0  0  0  0  0  0  0
  144.1501   74.8311  221.3703 H   0  0  0  0  0  0  0  0  0  0  0  0
  143.6172   74.8440  219.5628 H   0  0  0  0  0  0  0  0  0  0  0  0
  142.3290   72.9600  221.3470 H   0  0  0  0  0  0  0  0  0  0  0  0
  139.1919   74.9441  220.9643 H   0  0  0  0  0  0  0  0  0  0  0  0
  139.6349   73.2965  220.2474 H   0  0  0  0  0  0  0  0  0  0  0  0
  139.3270   73.8410  223.1160 H   0  0  0  0  0  0  0  0  0  0  0  0
  139.2150   69.7581  222.7486 H   0  0  0  0  0  0  0  0  0  0  0  0
  139.0186   68.4899  224.8641 H   0  0  0  0  0  0  0  0  0  0  0  0
  139.3925   68.2964  227.1722 H   0  0  0  0  0  0  0  0  0  0  0  0
  140.3037   69.2792  229.2877 H   0  0  0  0  0  0  0  0  0  0  0  0
  141.3731   71.4872  229.2360 H   0  0  0  0  0  0  0  0  0  0  0  0
  141.5964   72.8011  227.1512 H   0  0  0  0  0  0  0  0  0  0  0  0
  1  2  1  0
  2  3  1  0
  2  4  1  0
  2  5  1  0
  5  6  1  0
  6  7  1  0
  7  8  2  0
  7  9  1  0
  9 10  1  0
 10 11  1  0
 11 12  2  0
 11 13  1  0
 13 14  2  0
 14 15  1  0
 15 16  2  0
 16 17  1  0
 17 18  2  0
 18 19  1  0
 19 20  2  0
 20 21  1  0
 21 22  2  0
 22 13  1  0
 21 16  1  0
  1 23  1  0
  1 24  1  0
  1 25  1  0
  3 26  1  0
  3 27  1  0
  3 28  1  0
  4 29  1  0
  4 30  1  0
  4 31  1  0
  5 32  1  0
  5 33  1  0
  6 34  1  0
  9 35  1  0
  9 36  1  0
 10 37  1  0
 14 38  1  0
 15 39  1  0
 17 40  1  0
 18 41  1  0
 19 42  1  0
 20 43  1  0
M  END
>  <smiles>  (14) 
CC(C)(C)CNC(=O)CNC(=O)c1ccc2ccccc2n1

>  <score_type>  (14) 
oracle

>  <origin>  (14) 
autodockgpu

>  <m_score__min__energy>  (14) 
-7.5099999999999998

>  <m_primary>  (14) 
energy

>  <rmsd>  (14) 
3.2383748081610864

>  <m_score__min__rmsd>  (14) 
3.2383748081610864

>  <meeko>  (14) 
{"free_energy": -6.95, "intermolecular_energy": -8.44, "internal_energy": -1.62, "cluster_size": 41, "cluster_id": 2, "rank_in_cluster": 22}

>  <energy>  (14) 
-7.08

>  <cluster_rmsd>  (14) 
0.86

>  <cluster>  (14) 
2

$$$$

     RDKit          3D

 43 44  0  0  0  0  0  0  0  0999 V2000
  145.5720   72.4690  218.9800 C   0  0  0  0  0  0  0  0  0  0  0  0
  144.5400   73.0120  219.9040 C   0  0  0  0  0  0  0  0  0  0  0  0
  145.2960   73.9870  220.8390 C   0  0  0  0  0  0  0  0  0  0  0  0
  144.0750   71.8960  220.8430 C   0  0  0  0  0  0  0  0  0  0  0  0
  143.3910   73.7520  219.3500 C   0  0  0  0  0  0  0  0  0  0  0  0
  142.0900   73.5500  219.8640 N   0  0  0  0  0  0  0  0  0  0  0  0
  141.2610   74.4140  220.5870 C   0  0  0  0  0  0  0  0  0  0  0  0
  141.6890   75.5860  220.8760 O   0  0  0  0  0  0  0  0  0  0  0  0
  139.9010   74.1160  221.0720 C   0  0  0  0  0  0  0  0  0  0  0  0
  139.8030   73.4600  222.3390 N   0  0  0  0  0  0  0  0  0  0  0  0
  140.2690   72.0980  222.4020 C   0  0  0  0  0  0  0  0  0  0  0  0
  140.7260   71.5790  221.3510 O   0  0  0  0  0  0  0  0  0  0  0  0
  140.2000   71.3660  223.6610 C   0  0  0  0  0  0  0  0  0  0  0  0
  139.6320   70.1100  223.6500 C   0  0  0  0  0  0  0  0  0  0  0  0
  139.5390   69.3710  224.8090 C   0  0  0  0  0  0  0  0  0  0  0  0
  140.0210   69.8960  225.9900 C   0  0  0  0  0  0  0  0  0  0  0  0
  139.9120   69.1340  227.1240 C   0  0  0  0  0  0  0  0  0  0  0  0
  140.3960   69.6660  228.3010 C   0  0  0  0  0  0  0  0  0  0  0  0
  140.9610   70.9230  228.2920 C   0  0  0  0  0  0  0  0  0  0  0  0
  141.0750   71.6980  227.1560 C   0  0  0  0  0  0  0  0  0  0  0  0
  140.5900   71.1630  225.9810 C   0  0  0  0  0  0  0  0  0  0  0  0
  140.6630   71.8560  224.8270 N   0  0  0  0  0  0  0  0  0  0  0  0
  146.3963   72.0353  219.5651 H   0  0  0  0  0  0  0  0  0  0  0  0
  145.1231   71.6903  218.3459 H   0  0  0  0  0  0  0  0  0  0  0  0
  145.9596   73.2800  218.3459 H   0  0  0  0  0  0  0  0  0  0  0  0
  145.0912   73.7229  221.8870 H   0  0  0  0  0  0  0  0  0  0  0  0
  146.3768   73.9151  220.6472 H   0  0  0  0  0  0  0  0  0  0  0  0
  144.9572   75.0158  220.6472 H   0  0  0  0  0  0  0  0  0  0  0  0
  144.2083   72.2159  221.8870 H   0  0  0  0  0  0  0  0  0  0  0  0
  143.0122   71.6805  220.6584 H   0  0  0  0  0  0  0  0  0  0  0  0
  144.6703   70.9896  220.6584 H   0  0  0  0  0  0  0  0  0  0  0  0
  143.6160   74.8215  219.4743 H   0  0  0  0  0  0  0  0  0  0  0  0
  143.3151   73.3583  218.3257 H   0  0  0  0  0  0  0  0  0  0  0  0
  141.6560   72.5770  219.6710 H   0  0  0  0  0  0  0  0  0  0  0  0
  139.3569   75.0691  221.1466 H   0  0  0  0  0  0  0  0  0  0  0  0
  139.4824   73.4054  220.3441 H   0  0  0  0  0  0  0  0  0  0  0  0
  139.4370   73.8440  223.2250 H   0  0  0  0  0  0  0  0  0  0  0  0
  139.2492   69.6937  222.7065 H   0  0  0  0  0  0  0  0  0  0  0  0
  139.0838   68.3698  224.7927 H   0  0  0  0  0  0  0  0  0  0  0  0
  139.4549   68.1339  227.0965 H   0  0  0  0  0  0  0  0  0  0  0  0
  140.3316   69.0926  229.2375 H   0  0  0  0  0  0  0  0  0  0  0  0
  141.3412   71.3300  229.2406 H   0  0  0  0  0  0  0  0  0  0  0  0
  141.5323   72.6980  227.1863 H   0  0  0  0  0  0  0  0  0  0  0  0
  1  2  1  0
  2  3  1  0
  2  4  1  0
  2  5  1  0
  5  6  1  0
  6  7  1  0
  7  8  2  0
  7  9  1  0
  9 10  1  0
 10 11  1  0
 11 12  2  0
 11 13  1  0
 13 14  2  0
 14 15  1  0
 15 16  2  0
 16 17  1  0
 17 18  2  0
 18 19  1  0
 19 20  2  0
 20 21  1  0
 21 22  2  0
 22 13  1  0
 21 16  1  0
  1 23  1  0
  1 24  1  0
  1 25  1  0
  3 26  1  0
  3 27  1  0
  3 28  1  0
  4 29  1  0
  4 30  1  0
  4 31  1  0
  5 32  1  0
  5 33  1  0
  6 34  1  0
  9 35  1  0
  9 36  1  0
 10 37  1  0
 14 38  1  0
 15 39  1  0
 17 40  1  0
 18 41  1  0
 19 42  1  0
 20 43  1  0
M  END
>  <smiles>  (15) 
CC(C)(C)CNC(=O)CNC(=O)c1ccc2ccccc2n1

>  <score_type>  (15) 
oracle

>  <origin>  (15) 
autodockgpu

>  <m_score__min__energy>  (15) 
-7.5099999999999998

>  <m_primary>  (15) 
energy

>  <rmsd>  (15) 
3.218994424566142

>  <m_score__min__rmsd>  (15) 
3.218994424566142

>  <meeko>  (15) 
{"free_energy": -6.63, "intermolecular_energy": -8.12, "internal_energy": -1.71, "cluster_size": 41, "cluster_id": 2, "rank_in_cluster": 39}

>  <energy>  (15) 
-7.08

>  <cluster_rmsd>  (15) 
0.95

>  <cluster>  (15) 
2

$$$$

     RDKit          3D

 43 44  0  0  0  0  0  0  0  0999 V2000
  142.9570   80.1820  222.7800 C   0  0  0  0  0  0  0  0  0  0  0  0
  141.6990   79.4490  222.4710 C   0  0  0  0  0  0  0  0  0  0  0  0
  141.8120   79.0470  220.9810 C   0  0  0  0  0  0  0  0  0  0  0  0
  140.5300   80.4380  222.4920 C   0  0  0  0  0  0  0  0  0  0  0  0
  141.3720   78.2240  223.2240 C   0  0  0  0  0  0  0  0  0  0  0  0
  141.0620   77.0250  222.5440 N   0  0  0  0  0  0  0  0  0  0  0  0
  139.8230   76.4280  222.2860 C   0  0  0  0  0  0  0  0  0  0  0  0
  138.7590   76.9970  222.7150 O   0  0  0  0  0  0  0  0  0  0  0  0
  139.5970   75.1700  221.5490 C   0  0  0  0  0  0  0  0  0  0  0  0
  139.2920   74.0150  222.3350 N   0  0  0  0  0  0  0  0  0  0  0  0
  140.3210   73.0130  222.4420 C   0  0  0  0  0  0  0  0  0  0  0  0
  141.4100   73.2150  221.8440 O   0  0  0  0  0  0  0  0  0  0  0  0
  140.0810   71.8080  223.2270 C   0  0  0  0  0  0  0  0  0  0  0  0
  139.2280   70.8560  222.7080 C   0  0  0  0  0  0  0  0  0  0  0  0
  138.9620   69.6980  223.4040 C   0  0  0  0  0  0  0  0  0  0  0  0
  139.5560   69.4910  224.6310 C   0  0  0  0  0  0  0  0  0  0  0  0
  139.2700   68.3270  225.2960 C   0  0  0  0  0  0  0  0  0  0  0  0
  139.8680   68.1270  226.5230 C   0  0  0  0  0  0  0  0  0  0  0  0
  140.7170   69.0890  227.0240 C   0  0  0  0  0  0  0  0  0  0  0  0
  141.0130   70.2630  226.3630 C   0  0  0  0  0  0  0  0  0  0  0  0
  140.4120   70.4600  225.1360 C   0  0  0  0  0  0  0  0  0  0  0  0
  140.6490   71.5820  224.4260 N   0  0  0  0  0  0  0  0  0  0  0  0
  143.0809   80.2542  223.8706 H   0  0  0  0  0  0  0  0  0  0  0  0
  143.8121   79.6408  222.3489 H   0  0  0  0  0  0  0  0  0  0  0  0
  142.9078   81.1928  222.3489 H   0  0  0  0  0  0  0  0  0  0  0  0
  142.1090   77.9904  220.9078 H   0  0  0  0  0  0  0  0  0  0  0  0
  140.8390   79.1894  220.4880 H   0  0  0  0  0  0  0  0  0  0  0  0
  142.5683   79.6754  220.4880 H   0  0  0  0  0  0  0  0  0  0  0  0
  140.2610   80.6656  223.5340 H   0  0  0  0  0  0  0  0  0  0  0  0
  140.8248   81.3651  221.9785 H   0  0  0  0  0  0  0  0  0  0  0  0
  139.6646   79.9937  221.9785 H   0  0  0  0  0  0  0  0  0  0  0  0
  142.2392   78.0074  223.8652 H   0  0  0  0  0  0  0  0  0  0  0  0
  140.4223   78.4821  223.7153 H   0  0  0  0  0  0  0  0  0  0  0  0
  141.9090   76.4730  222.1560 H   0  0  0  0  0  0  0  0  0  0  0  0
  138.7577   75.3343  220.8572 H   0  0  0  0  0  0  0  0  0  0  0  0
  140.5557   74.9436  221.0595 H   0  0  0  0  0  0  0  0  0  0  0  0
  138.4160   73.8060  222.8410 H   0  0  0  0  0  0  0  0  0  0  0  0
  138.7558   71.0236  221.7287 H   0  0  0  0  0  0  0  0  0  0  0  0
  138.2805   68.9435  222.9841 H   0  0  0  0  0  0  0  0  0  0  0  0
  138.5877   67.5787  224.8664 H   0  0  0  0  0  0  0  0  0  0  0  0
  139.6689   67.2089  227.0952 H   0  0  0  0  0  0  0  0  0  0  0  0
  141.1841   68.9115  228.0040 H   0  0  0  0  0  0  0  0  0  0  0  0
  141.6972   71.0086  226.7942 H   0  0  0  0  0  0  0  0  0  0  0  0
  1  2  1  0
  2  3  1  0
  2  4  1  0
  2  5  1  0
  5  6  1  0
  6  7  1  0
  7  8  2  0
  7  9  1  0
  9 10  1  0
 10 11  1  0
 11 12  2  0
 11 13  1  0
 13 14  2  0
 14 15  1  0
 15 16  2  0
 16 17  1  0
 17 18  2  0
 18 19  1  0
 19 20  2  0
 20 21  1  0
 21 22  2  0
 22 13  1  0
 21 16  1  0
  1 23  1  0
  1 24  1  0
  1 25  1  0
  3 26  1  0
  3 27  1  0
  3 28  1  0
  4 29  1  0
  4 30  1  0
  4 31  1  0
  5 32  1  0
  5 33  1  0
  6 34  1  0
  9 35  1  0
  9 36  1  0
 10 37  1  0
 14 38  1  0
 15 39  1  0
 17 40  1  0
 18 41  1  0
 19 42  1  0
 20 43  1  0
M  END
>  <smiles>  (16) 
CC(C)(C)CNC(=O)CNC(=O)c1ccc2ccccc2n1

>  <score_type>  (16) 
oracle

>  <origin>  (16) 
autodockgpu

>  <m_score__min__energy>  (16) 
-7.5099999999999998

>  <m_primary>  (16) 
energy

>  <rmsd>  (16) 
3.5319396877053943

>  <m_score__min__rmsd>  (16) 
3.5319396877053943

>  <meeko>  (16) 
{"free_energy": -7.49, "intermolecular_energy": -8.98, "internal_energy": -0.8, "cluster_size": 8, "cluster_id": 1, "rank_in_cluster": 2}

>  <energy>  (16) 
-7.08

>  <cluster_rmsd>  (16) 
0.87

>  <cluster>  (16) 
2

$$$$

     RDKit          3D

 43 44  0  0  0  0  0  0  0  0999 V2000
  144.3280   71.7370  220.3980 C   0  0  0  0  0  0  0  0  0  0  0  0
  144.7140   73.1710  220.2930 C   0  0  0  0  0  0  0  0  0  0  0  0
  145.2590   73.3450  218.8540 C   0  0  0  0  0  0  0  0  0  0  0  0
  145.9390   73.4220  221.1770 C   0  0  0  0  0  0  0  0  0  0  0  0
  143.6910   74.2120  220.4950 C   0  0  0  0  0  0  0  0  0  0  0  0
  142.3690   73.8620  220.8530 N   0  0  0  0  0  0  0  0  0  0  0  0
  141.1610   74.5210  220.6020 C   0  0  0  0  0  0  0  0  0  0  0  0
  141.1810   75.6300  219.9610 O   0  0  0  0  0  0  0  0  0  0  0  0
  139.8180   74.0660  221.0060 C   0  0  0  0  0  0  0  0  0  0  0  0
  139.7160   73.4300  222.2830 N   0  0  0  0  0  0  0  0  0  0  0  0
  140.2410   72.0920  222.3850 C   0  0  0  0  0  0  0  0  0  0  0  0
  140.7480   71.5750  221.3570 O   0  0  0  0  0  0  0  0  0  0  0  0
  140.1720   71.3820  223.6560 C   0  0  0  0  0  0  0  0  0  0  0  0
  139.5860   70.1330  223.6700 C   0  0  0  0  0  0  0  0  0  0  0  0
  139.4920   69.4140  224.8410 C   0  0  0  0  0  0  0  0  0  0  0  0
  139.9890   69.9510  226.0090 C   0  0  0  0  0  0  0  0  0  0  0  0
  139.8790   69.2090  227.1560 C   0  0  0  0  0  0  0  0  0  0  0  0
  140.3800   69.7520  228.3210 C   0  0  0  0  0  0  0  0  0  0  0  0
  140.9620   71.0010  228.2880 C   0  0  0  0  0  0  0  0  0  0  0  0
  141.0780   71.7560  227.1390 C   0  0  0  0  0  0  0  0  0  0  0  0
  140.5760   71.2090  225.9760 C   0  0  0  0  0  0  0  0  0  0  0  0
  140.6500   71.8830  224.8100 N   0  0  0  0  0  0  0  0  0  0  0  0
  144.2519   71.4544  221.4584 H   0  0  0  0  0  0  0  0  0  0  0  0
  143.3562   71.5820  219.9066 H   0  0  0  0  0  0  0  0  0  0  0  0
  145.0907   71.1150  219.9066 H   0  0  0  0  0  0  0  0  0  0  0  0
  146.3061   73.6793  218.8964 H   0  0  0  0  0  0  0  0  0  0  0  0
  145.2022   72.3841  218.3217 H   0  0  0  0  0  0  0  0  0  0  0  0
  144.6558   74.0952  218.3217 H   0  0  0  0  0  0  0  0  0  0  0  0
  145.6458   73.3619  222.2355 H   0  0  0  0  0  0  0  0  0  0  0  0
  146.7058   72.6623  220.9652 H   0  0  0  0  0  0  0  0  0  0  0  0
  146.3453   74.4220  220.9652 H   0  0  0  0  0  0  0  0  0  0  0  0
  144.0675   74.8732  221.2894 H   0  0  0  0  0  0  0  0  0  0  0  0
  143.5691   74.6362  219.4874 H   0  0  0  0  0  0  0  0  0  0  0  0
  142.2630   72.9380  221.4080 H   0  0  0  0  0  0  0  0  0  0  0  0
  139.1568   74.9450  221.0169 H   0  0  0  0  0  0  0  0  0  0  0  0
  139.5402   73.2937  220.2736 H   0  0  0  0  0  0  0  0  0  0  0  0
  139.3100   73.8140  223.1520 H   0  0  0  0  0  0  0  0  0  0  0  0
  139.1898   69.7071  222.7364 H   0  0  0  0  0  0  0  0  0  0  0  0
  139.0238   68.4186  224.8440 H   0  0  0  0  0  0  0  0  0  0  0  0
  139.4077   68.2151  227.1480 H   0  0  0  0  0  0  0  0  0  0  0  0
  140.3157   69.1939  229.2667 H   0  0  0  0  0  0  0  0  0  0  0  0
  141.3547   71.4178  229.2272 H   0  0  0  0  0  0  0  0  0  0  0  0
  141.5497   72.7497  227.1497 H   0  0  0  0  0  0  0  0  0  0  0  0
  1  2  1  0
  2  3  1  0
  2  4  1  0
  2  5  1  0
  5  6  1  0
  6  7  1  0
  7  8  2  0
  7  9  1  0
  9 10  1  0
 10 11  1  0
 11 12  2  0
 11 13  1  0
 13 14  2  0
 14 15  1  0
 15 16  2  0
 16 17  1  0
 17 18  2  0
 18 19  1  0
 19 20  2  0
 20 21  1  0
 21 22  2  0
 22 13  1  0
 21 16  1  0
  1 23  1  0
  1 24  1  0
  1 25  1  0
  3 26  1  0
  3 27  1  0
  3 28  1  0
  4 29  1  0
  4 30  1  0
  4 31  1  0
  5 32  1  0
  5 33  1  0
  6 34  1  0
  9 35  1  0
  9 36  1  0
 10 37  1  0
 14 38  1  0
 15 39  1  0
 17 40  1  0
 18 41  1  0
 19 42  1  0
 20 43  1  0
M  END
>  <smiles>  (17) 
CC(C)(C)CNC(=O)CNC(=O)c1ccc2ccccc2n1

>  <score_type>  (17) 
oracle

>  <origin>  (17) 
autodockgpu

>  <m_score__min__energy>  (17) 
-7.5099999999999998

>  <m_primary>  (17) 
energy

>  <rmsd>  (17) 
3.2187156020684755

>  <m_score__min__rmsd>  (17) 
3.2187156020684755

>  <meeko>  (17) 
{"free_energy": -6.92, "intermolecular_energy": -8.41, "internal_energy": -1.62, "cluster_size": 41, "cluster_id": 2, "rank_in_cluster": 27}

>  <energy>  (17) 
-7.07

>  <cluster_rmsd>  (17) 
0.97

>  <cluster>  (17) 
2

$$$$

     RDKit          3D

 43 44  0  0  0  0  0  0  0  0999 V2000
  144.0850   72.2260  220.8340 C   0  0  0  0  0  0  0  0  0  0  0  0
  144.7100   73.4960  220.3730 C   0  0  0  0  0  0  0  0  0  0  0  0
  145.2400   73.2000  218.9490 C   0  0  0  0  0  0  0  0  0  0  0  0
  145.9810   73.7500  221.1870 C   0  0  0  0  0  0  0  0  0  0  0  0
  143.8860   74.7150  220.2800 C   0  0  0  0  0  0  0  0  0  0  0  0
  142.5690   74.7340  220.7920 N   0  0  0  0  0  0  0  0  0  0  0  0
  141.4320   74.0290  220.3820 C   0  0  0  0  0  0  0  0  0  0  0  0
  141.5220   73.2330  219.3840 O   0  0  0  0  0  0  0  0  0  0  0  0
  140.0920   74.1040  220.9940 C   0  0  0  0  0  0  0  0  0  0  0  0
  139.9370   73.4830  222.2720 N   0  0  0  0  0  0  0  0  0  0  0  0
  140.3190   72.0970  222.3710 C   0  0  0  0  0  0  0  0  0  0  0  0
  140.7580   71.5290  221.3390 O   0  0  0  0  0  0  0  0  0  0  0  0
  140.1890   71.3990  223.6440 C   0  0  0  0  0  0  0  0  0  0  0  0
  139.5510   70.1760  223.6500 C   0  0  0  0  0  0  0  0  0  0  0  0
  139.3980   69.4690  224.8220 C   0  0  0  0  0  0  0  0  0  0  0  0
  139.8880   69.9930  226.0000 C   0  0  0  0  0  0  0  0  0  0  0  0
  139.7180   69.2630  227.1470 C   0  0  0  0  0  0  0  0  0  0  0  0
  140.2120   69.7930  228.3220 C   0  0  0  0  0  0  0  0  0  0  0  0
  140.8460   71.0160  228.2960 C   0  0  0  0  0  0  0  0  0  0  0  0
  141.0220   71.7580  227.1460 C   0  0  0  0  0  0  0  0  0  0  0  0
  140.5270   71.2250  225.9740 C   0  0  0  0  0  0  0  0  0  0  0  0
  140.6590   71.8880  224.8070 N   0  0  0  0  0  0  0  0  0  0  0  0
  144.0729   72.2013  221.9337 H   0  0  0  0  0  0  0  0  0  0  0  0
  143.0543   72.1657  220.4545 H   0  0  0  0  0  0  0  0  0  0  0  0
  144.6660   71.3725  220.4545 H   0  0  0  0  0  0  0  0  0  0  0  0
  146.1985   72.6647  219.0184 H   0  0  0  0  0  0  0  0  0  0  0  0
  144.5111   72.5783  218.4084 H   0  0  0  0  0  0  0  0  0  0  0  0
  145.3870   74.1466  218.4084 H   0  0  0  0  0  0  0  0  0  0  0  0
  145.7446   73.7028  222.2603 H   0  0  0  0  0  0  0  0  0  0  0  0
  146.7319   72.9842  220.9429 H   0  0  0  0  0  0  0  0  0  0  0  0
  146.3799   74.7456  220.9429 H   0  0  0  0  0  0  0  0  0  0  0  0
  144.4386   75.5090  220.8036 H   0  0  0  0  0  0  0  0  0  0  0  0
  143.7306   74.8250  219.1966 H   0  0  0  0  0  0  0  0  0  0  0  0
  142.4030   75.3920  221.6350 H   0  0  0  0  0  0  0  0  0  0  0  0
  139.8354   75.1677  221.1064 H   0  0  0  0  0  0  0  0  0  0  0  0
  139.4317   73.5427  220.3166 H   0  0  0  0  0  0  0  0  0  0  0  0
  139.5820   73.9080  223.1450 H   0  0  0  0  0  0  0  0  0  0  0  0
  139.1604   69.7612  222.7091 H   0  0  0  0  0  0  0  0  0  0  0  0
  138.8889   68.4939  224.8186 H   0  0  0  0  0  0  0  0  0  0  0  0
  139.2062   68.2894  227.1321 H   0  0  0  0  0  0  0  0  0  0  0  0
  140.1007   69.2447  229.2691 H   0  0  0  0  0  0  0  0  0  0  0  0
  141.2324   71.4225  229.2423 H   0  0  0  0  0  0  0  0  0  0  0  0
  141.5343   72.7313  227.1631 H   0  0  0  0  0  0  0  0  0  0  0  0
  1  2  1  0
  2  3  1  0
  2  4  1  0
  2  5  1  0
  5  6  1  0
  6  7  1  0
  7  8  2  0
  7  9  1  0
  9 10  1  0
 10 11  1  0
 11 12  2  0
 11 13  1  0
 13 14  2  0
 14 15  1  0
 15 16  2  0
 16 17  1  0
 17 18  2  0
 18 19  1  0
 19 20  2  0
 20 21  1  0
 21 22  2  0
 22 13  1  0
 21 16  1  0
  1 23  1  0
  1 24  1  0
  1 25  1  0
  3 26  1  0
  3 27  1  0
  3 28  1  0
  4 29  1  0
  4 30  1  0
  4 31  1  0
  5 32  1  0
  5 33  1  0
  6 34  1  0
  9 35  1  0
  9 36  1  0
 10 37  1  0
 14 38  1  0
 15 39  1  0
 17 40  1  0
 18 41  1  0
 19 42  1  0
 20 43  1  0
M  END
>  <smiles>  (18) 
CC(C)(C)CNC(=O)CNC(=O)c1ccc2ccccc2n1

>  <score_type>  (18) 
oracle

>  <origin>  (18) 
autodockgpu

>  <m_score__min__energy>  (18) 
-7.5099999999999998

>  <m_primary>  (18) 
energy

>  <rmsd>  (18) 
3.2073133987270723

>  <m_score__min__rmsd>  (18) 
3.2073133987270723

>  <meeko>  (18) 
{"free_energy": -7.5, "intermolecular_energy": -8.99, "internal_energy": -0.95, "cluster_size": 41, "cluster_id": 2, "rank_in_cluster": 1}

>  <energy>  (18) 
-7.03

>  <cluster_rmsd>  (18) 
0.93

>  <cluster>  (18) 
2

$$$$

     RDKit          3D

 43 44  0  0  0  0  0  0  0  0999 V2000
  145.2250   73.1250  218.8500 C   0  0  0  0  0  0  0  0  0  0  0  0
  144.6090   73.1760  220.2040 C   0  0  0  0  0  0  0  0  0  0  0  0
  145.7910   73.3630  221.1860 C   0  0  0  0  0  0  0  0  0  0  0  0
  144.0620   71.7890  220.5540 C   0  0  0  0  0  0  0  0  0  0  0  0
  143.6230   74.2290  220.5110 C   0  0  0  0  0  0  0  0  0  0  0  0
  142.3070   73.8910  220.8990 N   0  0  0  0  0  0  0  0  0  0  0  0
  141.0800   74.4200  220.4860 C   0  0  0  0  0  0  0  0  0  0  0  0
  141.0720   75.3730  219.6310 O   0  0  0  0  0  0  0  0  0  0  0  0
  139.7450   73.9870  220.9410 C   0  0  0  0  0  0  0  0  0  0  0  0
  139.6780   73.3710  222.2290 N   0  0  0  0  0  0  0  0  0  0  0  0
  140.2460   72.0510  222.3480 C   0  0  0  0  0  0  0  0  0  0  0  0
  140.7570   71.5330  221.3230 O   0  0  0  0  0  0  0  0  0  0  0  0
  140.2130   71.3610  223.6320 C   0  0  0  0  0  0  0  0  0  0  0  0
  139.6560   70.1010  223.6760 C   0  0  0  0  0  0  0  0  0  0  0  0
  139.5970   69.4000  224.8600 C   0  0  0  0  0  0  0  0  0  0  0  0
  140.1020   69.9680  226.0110 C   0  0  0  0  0  0  0  0  0  0  0  0
  140.0270   69.2420  227.1710 C   0  0  0  0  0  0  0  0  0  0  0  0
  140.5340   69.8160  228.3190 C   0  0  0  0  0  0  0  0  0  0  0  0
  141.0870   71.0770  228.2550 C   0  0  0  0  0  0  0  0  0  0  0  0
  141.1680   71.8150  227.0920 C   0  0  0  0  0  0  0  0  0  0  0  0
  140.6590   71.2370  225.9470 C   0  0  0  0  0  0  0  0  0  0  0  0
  140.7000   71.8930  224.7690 N   0  0  0  0  0  0  0  0  0  0  0  0
  146.3170   73.0346  218.9472 H   0  0  0  0  0  0  0  0  0  0  0  0
  144.8325   72.2563  218.3011 H   0  0  0  0  0  0  0  0  0  0  0  0
  144.9808   74.0464  218.3011 H   0  0  0  0  0  0  0  0  0  0  0  0
  145.4212   73.3045  222.2203 H   0  0  0  0  0  0  0  0  0  0  0  0
  146.5362   72.5716  221.0177 H   0  0  0  0  0  0  0  0  0  0  0  0
  146.2555   74.3458  221.0177 H   0  0  0  0  0  0  0  0  0  0  0  0
  144.0180   71.6774  221.6474 H   0  0  0  0  0  0  0  0  0  0  0  0
  143.0520   71.6762  220.1330 H   0  0  0  0  0  0  0  0  0  0  0  0
  144.7231   71.0172  220.1330 H   0  0  0  0  0  0  0  0  0  0  0  0
  144.0479   74.8291  221.3291 H   0  0  0  0  0  0  0  0  0  0  0  0
  143.4746   74.7189  219.5373 H   0  0  0  0  0  0  0  0  0  0  0  0
  142.2240   73.0960  221.6310 H   0  0  0  0  0  0  0  0  0  0  0  0
  139.0949   74.8741  220.9608 H   0  0  0  0  0  0  0  0  0  0  0  0
  139.4340   73.2078  220.2296 H   0  0  0  0  0  0  0  0  0  0  0  0
  139.2700   73.7570  223.0960 H   0  0  0  0  0  0  0  0  0  0  0  0
  139.2546   69.6508  222.7561 H   0  0  0  0  0  0  0  0  0  0  0  0
  139.1506   68.3950  224.8875 H   0  0  0  0  0  0  0  0  0  0  0  0
  139.5787   68.2376  227.1864 H   0  0  0  0  0  0  0  0  0  0  0  0
  140.4972   69.2730  229.2749 H   0  0  0  0  0  0  0  0  0  0  0  0
  141.4850   71.5185  229.1806 H   0  0  0  0  0  0  0  0  0  0  0  0
  141.6180   72.8187  227.0782 H   0  0  0  0  0  0  0  0  0  0  0  0
  1  2  1  0
  2  3  1  0
  2  4  1  0
  2  5  1  0
  5  6  1  0
  6  7  1  0
  7  8  2  0
  7  9  1  0
  9 10  1  0
 10 11  1  0
 11 12  2  0
 11 13  1  0
 13 14  2  0
 14 15  1  0
 15 16  2  0
 16 17  1  0
 17 18  2  0
 18 19  1  0
 19 20  2  0
 20 21  1  0
 21 22  2  0
 22 13  1  0
 21 16  1  0
  1 23  1  0
  1 24  1  0
  1 25  1  0
  3 26  1  0
  3 27  1  0
  3 28  1  0
  4 29  1  0
  4 30  1  0
  4 31  1  0
  5 32  1  0
  5 33  1  0
  6 34  1  0
  9 35  1  0
  9 36  1  0
 10 37  1  0
 14 38  1  0
 15 39  1  0
 17 40  1  0
 18 41  1  0
 19 42  1  0
 20 43  1  0
M  END
>  <smiles>  (19) 
CC(C)(C)CNC(=O)CNC(=O)c1ccc2ccccc2n1

>  <score_type>  (19) 
oracle

>  <origin>  (19) 
autodockgpu

>  <m_score__min__energy>  (19) 
-7.5099999999999998

>  <m_primary>  (19) 
energy

>  <rmsd>  (19) 
3.204783239172261

>  <m_score__min__rmsd>  (19) 
3.204783239172261

>  <meeko>  (19) 
{"free_energy": -6.86, "intermolecular_energy": -8.36, "internal_energy": -1.64, "cluster_size": 41, "cluster_id": 2, "rank_in_cluster": 30}

>  <energy>  (19) 
-7.02

>  <cluster_rmsd>  (19) 
0.84

>  <cluster>  (19) 
2

$$$$

     RDKit          3D

 43 44  0  0  0  0  0  0  0  0999 V2000
  141.4890   79.1610  220.8970 C   0  0  0  0  0  0  0  0  0  0  0  0
  141.5720   79.2330  222.3820 C   0  0  0  0  0  0  0  0  0  0  0  0
  140.4100   80.1610  222.8140 C   0  0  0  0  0  0  0  0  0  0  0  0
  142.8270   80.0180  222.7720 C   0  0  0  0  0  0  0  0  0  0  0  0
  141.4510   77.9960  223.1730 C   0  0  0  0  0  0  0  0  0  0  0  0
  141.0750   76.7810  222.5570 N   0  0  0  0  0  0  0  0  0  0  0  0
  139.8180   76.3360  222.1320 C   0  0  0  0  0  0  0  0  0  0  0  0
  138.8000   77.0920  222.3100 O   0  0  0  0  0  0  0  0  0  0  0  0
  139.5240   75.0470  221.4790 C   0  0  0  0  0  0  0  0  0  0  0  0
  139.2610   73.9390  222.3430 N   0  0  0  0  0  0  0  0  0  0  0  0
  140.3240   72.9800  222.5110 C   0  0  0  0  0  0  0  0  0  0  0  0
  141.4020   73.1780  221.8940 O   0  0  0  0  0  0  0  0  0  0  0  0
  140.1270   71.8240  223.3770 C   0  0  0  0  0  0  0  0  0  0  0  0
  139.4020   70.7600  222.8830 C   0  0  0  0  0  0  0  0  0  0  0  0
  139.1830   69.6410  223.6540 C   0  0  0  0  0  0  0  0  0  0  0  0
  139.6960   69.5870  224.9340 C   0  0  0  0  0  0  0  0  0  0  0  0
  139.4590   68.4580  225.6730 C   0  0  0  0  0  0  0  0  0  0  0  0
  139.9750   68.4110  226.9520 C   0  0  0  0  0  0  0  0  0  0  0  0
  140.6960   69.4830  227.4290 C   0  0  0  0  0  0  0  0  0  0  0  0
  140.9410   70.6240  226.6920 C   0  0  0  0  0  0  0  0  0  0  0  0
  140.4230   70.6680  225.4140 C   0  0  0  0  0  0  0  0  0  0  0  0
  140.6170   71.7460  224.6290 N   0  0  0  0  0  0  0  0  0  0  0  0
  140.6872   78.4656  220.6079 H   0  0  0  0  0  0  0  0  0  0  0  0
  141.2707   80.1606  220.4931 H   0  0  0  0  0  0  0  0  0  0  0  0
  142.4477   78.8036  220.4931 H   0  0  0  0  0  0  0  0  0  0  0  0
  140.3609   80.2002  223.9122 H   0  0  0  0  0  0  0  0  0  0  0  0
  140.5823   81.1728  222.4183 H   0  0  0  0  0  0  0  0  0  0  0  0
  139.4614   79.7692  222.4183 H   0  0  0  0  0  0  0  0  0  0  0  0
  142.9036   80.0659  223.8683 H   0  0  0  0  0  0  0  0  0  0  0  0
  143.7159   79.5146  222.3640 H   0  0  0  0  0  0  0  0  0  0  0  0
  142.7633   81.0375  222.3640 H   0  0  0  0  0  0  0  0  0  0  0  0
  142.4329   77.8224  223.6374 H   0  0  0  0  0  0  0  0  0  0  0  0
  140.5989   78.2099  223.8350 H   0  0  0  0  0  0  0  0  0  0  0  0
  141.8780   76.0780  222.3780 H   0  0  0  0  0  0  0  0  0  0  0  0
  138.6398   75.1900  220.8405 H   0  0  0  0  0  0  0  0  0  0  0  0
  140.4423   74.7803  220.9353 H   0  0  0  0  0  0  0  0  0  0  0  0
  138.3950   73.7350  222.8680 H   0  0  0  0  0  0  0  0  0  0  0  0
  138.9945   70.8060  221.8623 H   0  0  0  0  0  0  0  0  0  0  0  0
  138.6036   68.7963  223.2530 H   0  0  0  0  0  0  0  0  0  0  0  0
  138.8783   67.6192  225.2617 H   0  0  0  0  0  0  0  0  0  0  0  0
  139.8120   67.5258  227.5844 H   0  0  0  0  0  0  0  0  0  0  0  0
  141.0979   69.4270  228.4514 H   0  0  0  0  0  0  0  0  0  0  0  0
  141.5232   71.4609  227.1051 H   0  0  0  0  0  0  0  0  0  0  0  0
  1  2  1  0
  2  3  1  0
  2  4  1  0
  2  5  1  0
  5  6  1  0
  6  7  1  0
  7  8  2  0
  7  9  1  0
  9 10  1  0
 10 11  1  0
 11 12  2  0
 11 13  1  0
 13 14  2  0
 14 15  1  0
 15 16  2  0
 16 17  1  0
 17 18  2  0
 18 19  1  0
 19 20  2  0
 20 21  1  0
 21 22  2  0
 22 13  1  0
 21 16  1  0
  1 23  1  0
  1 24  1  0
  1 25  1  0
  3 26  1  0
  3 27  1  0
  3 28  1  0
  4 29  1  0
  4 30  1  0
  4 31  1  0
  5 32  1  0
  5 33  1  0
  6 34  1  0
  9 35  1  0
  9 36  1  0
 10 37  1  0
 14 38  1  0
 15 39  1  0
 17 40  1  0
 18 41  1  0
 19 42  1  0
 20 43  1  0
M  END
>  <smiles>  (20) 
CC(C)(C)CNC(=O)CNC(=O)c1ccc2ccccc2n1

>  <score_type>  (20) 
oracle

>  <origin>  (20) 
autodockgpu

>  <m_score__min__energy>  (20) 
-7.5099999999999998

>  <m_primary>  (20) 
energy

>  <rmsd>  (20) 
3.2116675137330373

>  <m_score__min__rmsd>  (20) 
3.2116675137330373

>  <meeko>  (20) 
{"free_energy": -7.48, "intermolecular_energy": -8.97, "internal_energy": -0.85, "cluster_size": 8, "cluster_id": 1, "rank_in_cluster": 3}

>  <energy>  (20) 
-7.01

>  <cluster_rmsd>  (20) 
0.79

>  <cluster>  (20) 
2

$$$$

     RDKit          3D

 43 44  0  0  0  0  0  0  0  0999 V2000
  145.4990   73.1670  218.8760 C   0  0  0  0  0  0  0  0  0  0  0  0
  144.7980   73.1770  220.1890 C   0  0  0  0  0  0  0  0  0  0  0  0
  145.9170   73.3230  221.2500 C   0  0  0  0  0  0  0  0  0  0  0  0
  144.2250   71.7820  220.4570 C   0  0  0  0  0  0  0  0  0  0  0  0
  143.8000   74.2250  220.4690 C   0  0  0  0  0  0  0  0  0  0  0  0
  142.4820   73.8800  220.8460 N   0  0  0  0  0  0  0  0  0  0  0  0
  141.2720   74.5360  220.5970 C   0  0  0  0  0  0  0  0  0  0  0  0
  141.2860   75.6360  219.9410 O   0  0  0  0  0  0  0  0  0  0  0  0
  139.9330   74.0870  221.0220 C   0  0  0  0  0  0  0  0  0  0  0  0
  139.8470   73.4520  222.3000 N   0  0  0  0  0  0  0  0  0  0  0  0
  140.3090   72.0900  222.3800 C   0  0  0  0  0  0  0  0  0  0  0  0
  140.7530   71.5520  221.3320 O   0  0  0  0  0  0  0  0  0  0  0  0
  140.2520   71.3780  223.6510 C   0  0  0  0  0  0  0  0  0  0  0  0
  139.6850   70.1210  223.6650 C   0  0  0  0  0  0  0  0  0  0  0  0
  139.6040   69.4010  224.8360 C   0  0  0  0  0  0  0  0  0  0  0  0
  140.0940   69.9460  226.0050 C   0  0  0  0  0  0  0  0  0  0  0  0
  139.9960   69.2020  227.1510 C   0  0  0  0  0  0  0  0  0  0  0  0
  140.4900   69.7530  228.3160 C   0  0  0  0  0  0  0  0  0  0  0  0
  141.0520   71.0110  228.2820 C   0  0  0  0  0  0  0  0  0  0  0  0
  141.1560   71.7670  227.1330 C   0  0  0  0  0  0  0  0  0  0  0  0
  140.6610   71.2130  225.9700 C   0  0  0  0  0  0  0  0  0  0  0  0
  140.7240   71.8870  224.8050 N   0  0  0  0  0  0  0  0  0  0  0  0
  146.5864   73.1515  219.0410 H   0  0  0  0  0  0  0  0  0  0  0  0
  145.2015   72.2730  218.3083 H   0  0  0  0  0  0  0  0  0  0  0  0
  145.2271   74.0691  218.3083 H   0  0  0  0  0  0  0  0  0  0  0  0
  145.4775   73.2657  222.2567 H   0  0  0  0  0  0  0  0  0  0  0  0
  146.6503   72.5129  221.1234 H   0  0  0  0  0  0  0  0  0  0  0  0
  146.4179   74.2941  221.1234 H   0  0  0  0  0  0  0  0  0  0  0  0
  144.1568   71.6159  221.5422 H   0  0  0  0  0  0  0  0  0  0  0  0
  143.2226   71.7054  220.0106 H   0  0  0  0  0  0  0  0  0  0  0  0
  144.8842   71.0229  220.0106 H   0  0  0  0  0  0  0  0  0  0  0  0
  144.2096   74.8403  221.2836 H   0  0  0  0  0  0  0  0  0  0  0  0
  143.6593   74.7004  219.4870 H   0  0  0  0  0  0  0  0  0  0  0  0
  142.3820   72.9640  221.4150 H   0  0  0  0  0  0  0  0  0  0  0  0
  139.2761   74.9691  221.0426 H   0  0  0  0  0  0  0  0  0  0  0  0
  139.6411   73.3155  220.2943 H   0  0  0  0  0  0  0  0  0  0  0  0
  139.4920   73.8520  223.1840 H   0  0  0  0  0  0  0  0  0  0  0  0
  139.2937   69.6894  222.7319 H   0  0  0  0  0  0  0  0  0  0  0  0
  139.1518   68.3983  224.8394 H   0  0  0  0  0  0  0  0  0  0  0  0
  139.5398   68.2011  227.1430 H   0  0  0  0  0  0  0  0  0  0  0  0
  140.4358   69.1939  229.2618 H   0  0  0  0  0  0  0  0  0  0  0  0
  141.4380   71.4346  229.2209 H   0  0  0  0  0  0  0  0  0  0  0  0
  141.6133   72.7674  227.1432 H   0  0  0  0  0  0  0  0  0  0  0  0
  1  2  1  0
  2  3  1  0
  2  4  1  0
  2  5  1  0
  5  6  1  0
  6  7  1  0
  7  8  2  0
  7  9  1  0
  9 10  1  0
 10 11  1  0
 11 12  2  0
 11 13  1  0
 13 14  2  0
 14 15  1  0
 15 16  2  0
 16 17  1  0
 17 18  2  0
 18 19  1  0
 19 20  2  0
 20 21  1  0
 21 22  2  0
 22 13  1  0
 21 16  1  0
  1 23  1  0
  1 24  1  0
  1 25  1  0
  3 26  1  0
  3 27  1  0
  3 28  1  0
  4 29  1  0
  4 30  1  0
  4 31  1  0
  5 32  1  0
  5 33  1  0
  6 34  1  0
  9 35  1  0
  9 36  1  0
 10 37  1  0
 14 38  1  0
 15 39  1  0
 17 40  1  0
 18 41  1  0
 19 42  1  0
 20 43  1  0
M  END
>  <smiles>  (21) 
CC(C)(C)CNC(=O)CNC(=O)c1ccc2ccccc2n1

>  <score_type>  (21) 
oracle

>  <origin>  (21) 
autodockgpu

>  <m_score__min__energy>  (21) 
-7.5099999999999998

>  <m_primary>  (21) 
energy

>  <rmsd>  (21) 
3.290702539348342

>  <m_score__min__rmsd>  (21) 
3.290702539348342

>  <meeko>  (21) 
{"free_energy": -6.92, "intermolecular_energy": -8.42, "internal_energy": -1.65, "cluster_size": 41, "cluster_id": 2, "rank_in_cluster": 26}

>  <energy>  (21) 
-7.01

>  <cluster_rmsd>  (21) 
0.79

>  <cluster>  (21) 
2

$$$$

     RDKit          3D

 43 44  0  0  0  0  0  0  0  0999 V2000
  145.9800   73.7060  221.0460 C   0  0  0  0  0  0  0  0  0  0  0  0
  144.7880   73.4170  220.2030 C   0  0  0  0  0  0  0  0  0  0  0  0
  144.4150   71.9460  220.5110 C   0  0  0  0  0  0  0  0  0  0  0  0
  145.2150   73.3820  218.7330 C   0  0  0  0  0  0  0  0  0  0  0  0
  143.5640   74.2180  220.3820 C   0  0  0  0  0  0  0  0  0  0  0  0
  142.3220   73.5890  220.6230 N   0  0  0  0  0  0  0  0  0  0  0  0
  141.4310   72.9790  219.7330 C   0  0  0  0  0  0  0  0  0  0  0  0
  141.7170   72.9610  218.4850 O   0  0  0  0  0  0  0  0  0  0  0  0
  140.1540   72.3300  220.0840 C   0  0  0  0  0  0  0  0  0  0  0  0
  140.1530   71.5150  221.2590 N   0  0  0  0  0  0  0  0  0  0  0  0
  140.0820   72.2020  222.5240 C   0  0  0  0  0  0  0  0  0  0  0  0
  140.0260   73.4580  222.5140 O   0  0  0  0  0  0  0  0  0  0  0  0
  140.0760   71.4360  223.7650 C   0  0  0  0  0  0  0  0  0  0  0  0
  139.5000   70.1830  223.7500 C   0  0  0  0  0  0  0  0  0  0  0  0
  139.4640   69.4130  224.8910 C   0  0  0  0  0  0  0  0  0  0  0  0
  140.0110   69.9030  226.0580 C   0  0  0  0  0  0  0  0  0  0  0  0
  139.9580   69.1090  227.1750 C   0  0  0  0  0  0  0  0  0  0  0  0
  140.5070   69.6060  228.3390 C   0  0  0  0  0  0  0  0  0  0  0  0
  141.0780   70.8600  228.3350 C   0  0  0  0  0  0  0  0  0  0  0  0
  141.1370   71.6660  227.2160 C   0  0  0  0  0  0  0  0  0  0  0  0
  140.5860   71.1660  226.0540 C   0  0  0  0  0  0  0  0  0  0  0  0
  140.6030   71.8910  224.9170 N   0  0  0  0  0  0  0  0  0  0  0  0
  145.7028   73.6388  222.1084 H   0  0  0  0  0  0  0  0  0  0  0  0
  146.7707   72.9736  220.8264 H   0  0  0  0  0  0  0  0  0  0  0  0
  146.3475   74.7193  220.8264 H   0  0  0  0  0  0  0  0  0  0  0  0
  144.3774   71.7976  221.6003 H   0  0  0  0  0  0  0  0  0  0  0  0
  143.4307   71.7185  220.0757 H   0  0  0  0  0  0  0  0  0  0  0  0
  145.1719   71.2769  220.0757 H   0  0  0  0  0  0  0  0  0  0  0  0
  146.3096   73.2923  218.6712 H   0  0  0  0  0  0  0  0  0  0  0  0
  144.7477   72.5191  218.2359 H   0  0  0  0  0  0  0  0  0  0  0  0
  144.8944   74.3094  218.2359 H   0  0  0  0  0  0  0  0  0  0  0  0
  143.7482   74.8880  221.2348 H   0  0  0  0  0  0  0  0  0  0  0  0
  143.4210   74.6743  219.3914 H   0  0  0  0  0  0  0  0  0  0  0  0
  141.9990   73.5680  221.6570 H   0  0  0  0  0  0  0  0  0  0  0  0
  139.4047   73.1226  220.2267 H   0  0  0  0  0  0  0  0  0  0  0  0
  139.9397   71.6419  219.2529 H   0  0  0  0  0  0  0  0  0  0  0  0
  140.1960   70.4850  221.3160 H   0  0  0  0  0  0  0  0  0  0  0  0
  139.0650   69.7948  222.8172 H   0  0  0  0  0  0  0  0  0  0  0  0
  139.0024   68.4147  224.8716 H   0  0  0  0  0  0  0  0  0  0  0  0
  139.4945   68.1119  227.1439 H   0  0  0  0  0  0  0  0  0  0  0  0
  140.4891   69.0069  229.2614 H   0  0  0  0  0  0  0  0  0  0  0  0
  141.5097   71.2388  229.2732 H   0  0  0  0  0  0  0  0  0  0  0  0
  141.6024   72.6622  227.2491 H   0  0  0  0  0  0  0  0  0  0  0  0
  1  2  1  0
  2  3  1  0
  2  4  1  0
  2  5  1  0
  5  6  1  0
  6  7  1  0
  7  8  2  0
  7  9  1  0
  9 10  1  0
 10 11  1  0
 11 12  2  0
 11 13  1  0
 13 14  2  0
 14 15  1  0
 15 16  2  0
 16 17  1  0
 17 18  2  0
 18 19  1  0
 19 20  2  0
 20 21  1  0
 21 22  2  0
 22 13  1  0
 21 16  1  0
  1 23  1  0
  1 24  1  0
  1 25  1  0
  3 26  1  0
  3 27  1  0
  3 28  1  0
  4 29  1  0
  4 30  1  0
  4 31  1  0
  5 32  1  0
  5 33  1  0
  6 34  1  0
  9 35  1  0
  9 36  1  0
 10 37  1  0
 14 38  1  0
 15 39  1  0
 17 40  1  0
 18 41  1  0
 19 42  1  0
 20 43  1  0
M  END
>  <smiles>  (22) 
CC(C)(C)CNC(=O)CNC(=O)c1ccc2ccccc2n1

>  <score_type>  (22) 
oracle

>  <origin>  (22) 
autodockgpu

>  <m_score__min__energy>  (22) 
-7.5099999999999998

>  <m_primary>  (22) 
energy

>  <rmsd>  (22) 
3.4944830785220145

>  <m_score__min__rmsd>  (22) 
3.4944830785220145

>  <meeko>  (22) 
{"free_energy": -6.66, "intermolecular_energy": -8.16, "internal_energy": -1.53, "cluster_size": 41, "cluster_id": 2, "rank_in_cluster": 38}

>  <energy>  (22) 
-7.01

>  <cluster_rmsd>  (22) 
0.89

>  <cluster>  (22) 
2

$$$$

     RDKit          3D

 43 44  0  0  0  0  0  0  0  0999 V2000
  145.7560   73.7530  221.2250 C   0  0  0  0  0  0  0  0  0  0  0  0
  144.7700   73.2910  220.2100 C   0  0  0  0  0  0  0  0  0  0  0  0
  144.1240   72.0200  220.8130 C   0  0  0  0  0  0  0  0  0  0  0  0
  145.5240   72.7680  218.9850 C   0  0  0  0  0  0  0  0  0  0  0  0
  143.6680   74.1860  219.8140 C   0  0  0  0  0  0  0  0  0  0  0  0
  142.3310   73.8730  220.1480 N   0  0  0  0  0  0  0  0  0  0  0  0
  141.3650   74.6340  220.8150 C   0  0  0  0  0  0  0  0  0  0  0  0
  141.6760   75.8060  221.2290 O   0  0  0  0  0  0  0  0  0  0  0  0
  139.9790   74.2240  221.1070 C   0  0  0  0  0  0  0  0  0  0  0  0
  139.7650   73.5260  222.3370 N   0  0  0  0  0  0  0  0  0  0  0  0
  140.3990   72.2380  222.4700 C   0  0  0  0  0  0  0  0  0  0  0  0
  141.0910   71.8160  221.5090 O   0  0  0  0  0  0  0  0  0  0  0  0
  140.2250   71.4690  223.6960 C   0  0  0  0  0  0  0  0  0  0  0  0
  139.5690   70.2580  223.6140 C   0  0  0  0  0  0  0  0  0  0  0  0
  139.3750   69.4870  224.7380 C   0  0  0  0  0  0  0  0  0  0  0  0
  139.8420   69.9330  225.9570 C   0  0  0  0  0  0  0  0  0  0  0  0
  139.6310   69.1400  227.0550 C   0  0  0  0  0  0  0  0  0  0  0  0
  140.1020   69.5930  228.2710 C   0  0  0  0  0  0  0  0  0  0  0  0
  140.7540   70.8050  228.3330 C   0  0  0  0  0  0  0  0  0  0  0  0
  140.9720   71.6100  227.2340 C   0  0  0  0  0  0  0  0  0  0  0  0
  140.5000   71.1540  226.0200 C   0  0  0  0  0  0  0  0  0  0  0  0
  140.6720   71.8810  224.8980 N   0  0  0  0  0  0  0  0  0  0  0  0
  145.3585   73.5668  222.2336 H   0  0  0  0  0  0  0  0  0  0  0  0
  146.7001   73.2035  221.0957 H   0  0  0  0  0  0  0  0  0  0  0  0
  145.9380   74.8301  221.0957 H   0  0  0  0  0  0  0  0  0  0  0  0
  144.1540   72.0791  221.9110 H   0  0  0  0  0  0  0  0  0  0  0  0
  143.0788   71.9458  220.4782 H   0  0  0  0  0  0  0  0  0  0  0  0
  144.6801   71.1319  220.4782 H   0  0  0  0  0  0  0  0  0  0  0  0
  146.3867   72.1696  219.3133 H   0  0  0  0  0  0  0  0  0  0  0  0
  144.8517   72.1413  218.3807 H   0  0  0  0  0  0  0  0  0  0  0  0
  145.8755   73.6172  218.3807 H   0  0  0  0  0  0  0  0  0  0  0  0
  143.8829   75.1671  220.2627 H   0  0  0  0  0  0  0  0  0  0  0  0
  143.6717   74.1101  218.7166 H   0  0  0  0  0  0  0  0  0  0  0  0
  141.9890   72.8920  219.8420 H   0  0  0  0  0  0  0  0  0  0  0  0
  139.3589   75.1324  221.1261 H   0  0  0  0  0  0  0  0  0  0  0  0
  139.7151   73.5067  220.3159 H   0  0  0  0  0  0  0  0  0  0  0  0
  139.2080   73.8310  223.1510 H   0  0  0  0  0  0  0  0  0  0  0  0
  139.1972   69.9050  222.6408 H   0  0  0  0  0  0  0  0  0  0  0  0
  138.8514   68.5224  224.6646 H   0  0  0  0  0  0  0  0  0  0  0  0
  139.1054   68.1774  226.9702 H   0  0  0  0  0  0  0  0  0  0  0  0
  139.9582   68.9923  229.1812 H   0  0  0  0  0  0  0  0  0  0  0  0
  141.1205   71.1494  229.3113 H   0  0  0  0  0  0  0  0  0  0  0  0
  141.4983   72.5719  227.3214 H   0  0  0  0  0  0  0  0  0  0  0  0
  1  2  1  0
  2  3  1  0
  2  4  1  0
  2  5  1  0
  5  6  1  0
  6  7  1  0
  7  8  2  0
  7  9  1  0
  9 10  1  0
 10 11  1  0
 11 12  2  0
 11 13  1  0
 13 14  2  0
 14 15  1  0
 15 16  2  0
 16 17  1  0
 17 18  2  0
 18 19  1  0
 19 20  2  0
 20 21  1  0
 21 22  2  0
 22 13  1  0
 21 16  1  0
  1 23  1  0
  1 24  1  0
  1 25  1  0
  3 26  1  0
  3 27  1  0
  3 28  1  0
  4 29  1  0
  4 30  1  0
  4 31  1  0
  5 32  1  0
  5 33  1  0
  6 34  1  0
  9 35  1  0
  9 36  1  0
 10 37  1  0
 14 38  1  0
 15 39  1  0
 17 40  1  0
 18 41  1  0
 19 42  1  0
 20 43  1  0
M  END
>  <smiles>  (23) 
CC(C)(C)CNC(=O)CNC(=O)c1ccc2ccccc2n1

>  <score_type>  (23) 
oracle

>  <origin>  (23) 
autodockgpu

>  <m_score__min__energy>  (23) 
-7.5099999999999998

>  <m_primary>  (23) 
energy

>  <rmsd>  (23) 
3.2613318411118173

>  <m_score__min__rmsd>  (23) 
3.2613318411118173

>  <meeko>  (23) 
{"free_energy": -7.0, "intermolecular_energy": -8.49, "internal_energy": -1.6, "cluster_size": 41, "cluster_id": 2, "rank_in_cluster": 18}

>  <energy>  (23) 
-7.0

>  <cluster_rmsd>  (23) 
0.82

>  <cluster>  (23) 
2

$$$$

     RDKit          3D

 43 44  0  0  0  0  0  0  0  0999 V2000
  144.3840   71.7880  220.4580 C   0  0  0  0  0  0  0  0  0  0  0  0
  144.7020   73.2230  220.2190 C   0  0  0  0  0  0  0  0  0  0  0  0
  145.0740   73.3170  218.7190 C   0  0  0  0  0  0  0  0  0  0  0  0
  146.0080   73.5700  220.9390 C   0  0  0  0  0  0  0  0  0  0  0  0
  143.6690   74.2440  220.4710 C   0  0  0  0  0  0  0  0  0  0  0  0
  142.3530   73.8640  220.8200 N   0  0  0  0  0  0  0  0  0  0  0  0
  141.1360   74.5190  220.6000 C   0  0  0  0  0  0  0  0  0  0  0  0
  141.1410   75.6520  220.0030 O   0  0  0  0  0  0  0  0  0  0  0  0
  139.8000   74.0330  220.9910 C   0  0  0  0  0  0  0  0  0  0  0  0
  139.6980   73.4070  222.2720 N   0  0  0  0  0  0  0  0  0  0  0  0
  140.2650   72.0870  222.3970 C   0  0  0  0  0  0  0  0  0  0  0  0
  140.8060   71.5770  221.3830 O   0  0  0  0  0  0  0  0  0  0  0  0
  140.1980   71.3880  223.6740 C   0  0  0  0  0  0  0  0  0  0  0  0
  139.5940   70.1480  223.7030 C   0  0  0  0  0  0  0  0  0  0  0  0
  139.5010   69.4390  224.8800 C   0  0  0  0  0  0  0  0  0  0  0  0
  140.0180   69.9780  226.0400 C   0  0  0  0  0  0  0  0  0  0  0  0
  139.9080   69.2460  227.1930 C   0  0  0  0  0  0  0  0  0  0  0  0
  140.4280   69.7910  228.3500 C   0  0  0  0  0  0  0  0  0  0  0  0
  141.0270   71.0310  228.3010 C   0  0  0  0  0  0  0  0  0  0  0  0
  141.1430   71.7750  227.1450 C   0  0  0  0  0  0  0  0  0  0  0  0
  140.6220   71.2270  225.9910 C   0  0  0  0  0  0  0  0  0  0  0  0
  140.6950   71.8910  224.8200 N   0  0  0  0  0  0  0  0  0  0  0  0
  144.3417   71.5972  221.5405 H   0  0  0  0  0  0  0  0  0  0  0  0
  143.4108   71.5477  220.0050 H   0  0  0  0  0  0  0  0  0  0  0  0
  145.1646   71.1591  220.0050 H   0  0  0  0  0  0  0  0  0  0  0  0
  146.1362   73.5854  218.6208 H   0  0  0  0  0  0  0  0  0  0  0  0
  144.8951   72.3454  218.2353 H   0  0  0  0  0  0  0  0  0  0  0  0
  144.4550   74.0870  218.2353 H   0  0  0  0  0  0  0  0  0  0  0  0
  145.8494   73.5279  222.0267 H   0  0  0  0  0  0  0  0  0  0  0  0
  146.7870   72.8477  220.6538 H   0  0  0  0  0  0  0  0  0  0  0  0
  146.3258   74.5837  220.6538 H   0  0  0  0  0  0  0  0  0  0  0  0
  144.0428   74.8743  221.2914 H   0  0  0  0  0  0  0  0  0  0  0  0
  143.5374   74.7107  219.4837 H   0  0  0  0  0  0  0  0  0  0  0  0
  142.2600   72.9180  221.3380 H   0  0  0  0  0  0  0  0  0  0  0  0
  139.1161   74.8945  220.9848 H   0  0  0  0  0  0  0  0  0  0  0  0
  139.5519   73.2469  220.2626 H   0  0  0  0  0  0  0  0  0  0  0  0
  139.2650   73.7850  223.1310 H   0  0  0  0  0  0  0  0  0  0  0  0
  139.1824   69.7212  222.7765 H   0  0  0  0  0  0  0  0  0  0  0  0
  139.0183   68.4507  224.8951 H   0  0  0  0  0  0  0  0  0  0  0  0
  139.4225   68.2589  227.1967 H   0  0  0  0  0  0  0  0  0  0  0  0
  140.3648   69.2413  229.3007 H   0  0  0  0  0  0  0  0  0  0  0  0
  141.4343   71.4499  229.2330 H   0  0  0  0  0  0  0  0  0  0  0  0
  141.6294   72.7616  227.1434 H   0  0  0  0  0  0  0  0  0  0  0  0
  1  2  1  0
  2  3  1  0
  2  4  1  0
  2  5  1  0
  5  6  1  0
  6  7  1  0
  7  8  2  0
  7  9  1  0
  9 10  1  0
 10 11  1  0
 11 12  2  0
 11 13  1  0
 13 14  2  0
 14 15  1  0
 15 16  2  0
 16 17  1  0
 17 18  2  0
 18 19  1  0
 19 20  2  0
 20 21  1  0
 21 22  2  0
 22 13  1  0
 21 16  1  0
  1 23  1  0
  1 24  1  0
  1 25  1  0
  3 26  1  0
  3 27  1  0
  3 28  1  0
  4 29  1  0
  4 30  1  0
  4 31  1  0
  5 32  1  0
  5 33  1  0
  6 34  1  0
  9 35  1  0
  9 36  1  0
 10 37  1  0
 14 38  1  0
 15 39  1  0
 17 40  1  0
 18 41  1  0
 19 42  1  0
 20 43  1  0
M  END
>  <smiles>  (24) 
CC(C)(C)CNC(=O)CNC(=O)c1ccc2ccccc2n1

>  <score_type>  (24) 
oracle

>  <origin>  (24) 
autodockgpu

>  <m_score__min__energy>  (24) 
-7.5099999999999998

>  <m_primary>  (24) 
energy

>  <rmsd>  (24) 
3.208202151395941

>  <m_score__min__rmsd>  (24) 
3.208202151395941

>  <meeko>  (24) 
{"free_energy": -6.91, "intermolecular_energy": -8.4, "internal_energy": -1.61, "cluster_size": 41, "cluster_id": 2, "rank_in_cluster": 28}

>  <energy>  (24) 
-7.0

>  <cluster_rmsd>  (24) 
0.77

>  <cluster>  (24) 
2

$$$$

     RDKit          3D

 43 44  0  0  0  0  0  0  0  0999 V2000
  146.1480   73.7340  220.9910 C   0  0  0  0  0  0  0  0  0  0  0  0
  144.8720   73.5300  220.2510 C   0  0  0  0  0  0  0  0  0  0  0  0
  144.3540   72.1420  220.7000 C   0  0  0  0  0  0  0  0  0  0  0  0
  145.1850   73.3370  218.7650 C   0  0  0  0  0  0  0  0  0  0  0  0
  143.7650   74.4850  220.4410 C   0  0  0  0  0  0  0  0  0  0  0  0
  142.4550   74.0240  220.7000 N   0  0  0  0  0  0  0  0  0  0  0  0
  141.2490   74.7300  220.7790 C   0  0  0  0  0  0  0  0  0  0  0  0
  141.2620   75.9990  220.6140 O   0  0  0  0  0  0  0  0  0  0  0  0
  139.9170   74.1540  221.0410 C   0  0  0  0  0  0  0  0  0  0  0  0
  139.7450   73.4850  222.2930 N   0  0  0  0  0  0  0  0  0  0  0  0
  140.3470   72.1820  222.4210 C   0  0  0  0  0  0  0  0  0  0  0  0
  140.9780   71.7220  221.4350 O   0  0  0  0  0  0  0  0  0  0  0  0
  140.2130   71.4410  223.6690 C   0  0  0  0  0  0  0  0  0  0  0  0
  139.5690   70.2220  223.6330 C   0  0  0  0  0  0  0  0  0  0  0  0
  139.4120   69.4760  224.7800 C   0  0  0  0  0  0  0  0  0  0  0  0
  139.9040   69.9570  225.9750 C   0  0  0  0  0  0  0  0  0  0  0  0
  139.7300   69.1890  227.0970 C   0  0  0  0  0  0  0  0  0  0  0  0
  140.2250   69.6770  228.2890 C   0  0  0  0  0  0  0  0  0  0  0  0
  140.8640   70.8970  228.3060 C   0  0  0  0  0  0  0  0  0  0  0  0
  141.0450   71.6770  227.1820 C   0  0  0  0  0  0  0  0  0  0  0  0
  140.5480   71.1870  225.9920 C   0  0  0  0  0  0  0  0  0  0  0  0
  140.6840   71.8880  224.8490 N   0  0  0  0  0  0  0  0  0  0  0  0
  145.9533   73.7029  222.0732 H   0  0  0  0  0  0  0  0  0  0  0  0
  146.8584   72.9380  220.7232 H   0  0  0  0  0  0  0  0  0  0  0  0
  146.5749   74.7118  220.7232 H   0  0  0  0  0  0  0  0  0  0  0  0
  144.3365   72.0951  221.7989 H   0  0  0  0  0  0  0  0  0  0  0  0
  143.3373   71.9864  220.3101 H   0  0  0  0  0  0  0  0  0  0  0  0
  145.0202   71.3583  220.3101 H   0  0  0  0  0  0  0  0  0  0  0  0
  146.1169   72.7624  218.6582 H   0  0  0  0  0  0  0  0  0  0  0  0
  144.3601   72.7905  218.2845 H   0  0  0  0  0  0  0  0  0  0  0  0
  145.3029   74.3195  218.2845 H   0  0  0  0  0  0  0  0  0  0  0  0
  144.0458   75.1279  221.2882 H   0  0  0  0  0  0  0  0  0  0  0  0
  143.6703   74.9531  219.4501 H   0  0  0  0  0  0  0  0  0  0  0  0
  142.3560   72.9580  220.8610 H   0  0  0  0  0  0  0  0  0  0  0  0
  139.1843   74.9732  220.9967 H   0  0  0  0  0  0  0  0  0  0  0  0
  139.7809   73.3764  220.2749 H   0  0  0  0  0  0  0  0  0  0  0  0
  139.2370   73.8220  223.1270 H   0  0  0  0  0  0  0  0  0  0  0  0
  139.1767   69.8416  222.6783 H   0  0  0  0  0  0  0  0  0  0  0  0
  138.8982   68.5041  224.7431 H   0  0  0  0  0  0  0  0  0  0  0  0
  139.2143   68.2186  227.0489 H   0  0  0  0  0  0  0  0  0  0  0  0
  140.1104   69.0972  229.2168 H   0  0  0  0  0  0  0  0  0  0  0  0
  141.2505   71.2693  229.2662 H   0  0  0  0  0  0  0  0  0  0  0  0
  141.5625   72.6463  227.2327 H   0  0  0  0  0  0  0  0  0  0  0  0
  1  2  1  0
  2  3  1  0
  2  4  1  0
  2  5  1  0
  5  6  1  0
  6  7  1  0
  7  8  2  0
  7  9  1  0
  9 10  1  0
 10 11  1  0
 11 12  2  0
 11 13  1  0
 13 14  2  0
 14 15  1  0
 15 16  2  0
 16 17  1  0
 17 18  2  0
 18 19  1  0
 19 20  2  0
 20 21  1  0
 21 22  2  0
 22 13  1  0
 21 16  1  0
  1 23  1  0
  1 24  1  0
  1 25  1  0
  3 26  1  0
  3 27  1  0
  3 28  1  0
  4 29  1  0
  4 30  1  0
  4 31  1  0
  5 32  1  0
  5 33  1  0
  6 34  1  0
  9 35  1  0
  9 36  1  0
 10 37  1  0
 14 38  1  0
 15 39  1  0
 17 40  1  0
 18 41  1  0
 19 42  1  0
 20 43  1  0
M  END
>  <smiles>  (25) 
CC(C)(C)CNC(=O)CNC(=O)c1ccc2ccccc2n1

>  <score_type>  (25) 
oracle

>  <origin>  (25) 
autodockgpu

>  <m_score__min__energy>  (25) 
-7.5099999999999998

>  <m_primary>  (25) 
energy

>  <rmsd>  (25) 
3.3354970074199097

>  <m_score__min__rmsd>  (25) 
3.3354970074199097

>  <meeko>  (25) 
{"free_energy": -7.08, "intermolecular_energy": -8.58, "internal_energy": -1.54, "cluster_size": 41, "cluster_id": 2, "rank_in_cluster": 6}

>  <energy>  (25) 
-7.0

>  <cluster_rmsd>  (25) 
0.83

>  <cluster>  (25) 
2

$$$$

     RDKit          3D

 43 44  0  0  0  0  0  0  0  0999 V2000
  140.5530   80.4050  223.5320 C   0  0  0  0  0  0  0  0  0  0  0  0
  141.3040   79.3720  222.7670 C   0  0  0  0  0  0  0  0  0  0  0  0
  141.8200   78.3700  223.8280 C   0  0  0  0  0  0  0  0  0  0  0  0
  142.5840   80.0000  222.2080 C   0  0  0  0  0  0  0  0  0  0  0  0
  140.6040   78.5850  221.7360 C   0  0  0  0  0  0  0  0  0  0  0  0
  140.8520   77.2000  221.5970 N   0  0  0  0  0  0  0  0  0  0  0  0
  139.9630   76.1390  221.3950 C   0  0  0  0  0  0  0  0  0  0  0  0
  138.7080   76.3870  221.3280 O   0  0  0  0  0  0  0  0  0  0  0  0
  140.3200   74.7170  221.2460 C   0  0  0  0  0  0  0  0  0  0  0  0
  139.9640   73.8510  222.3270 N   0  0  0  0  0  0  0  0  0  0  0  0
  140.6830   72.6060  222.4260 C   0  0  0  0  0  0  0  0  0  0  0  0
  141.5670   72.3630  221.5650 O   0  0  0  0  0  0  0  0  0  0  0  0
  140.3720   71.6740  223.5030 C   0  0  0  0  0  0  0  0  0  0  0  0
  139.6490   70.5410  223.1910 C   0  0  0  0  0  0  0  0  0  0  0  0
  139.3260   69.6250  224.1670 C   0  0  0  0  0  0  0  0  0  0  0  0
  139.7310   69.8440  225.4670 C   0  0  0  0  0  0  0  0  0  0  0  0
  139.3920   68.9110  226.4120 C   0  0  0  0  0  0  0  0  0  0  0  0
  139.8000   69.1380  227.7100 C   0  0  0  0  0  0  0  0  0  0  0  0
  140.5220   70.2750  228.0020 C   0  0  0  0  0  0  0  0  0  0  0  0
  140.8680   71.2200  227.0580 C   0  0  0  0  0  0  0  0  0  0  0  0
  140.4580   70.9900  225.7610 C   0  0  0  0  0  0  0  0  0  0  0  0
  140.7560   71.8650  224.7790 N   0  0  0  0  0  0  0  0  0  0  0  0
  140.6814   80.2284  224.6101 H   0  0  0  0  0  0  0  0  0  0  0  0
  140.9378   81.4031  223.2756 H   0  0  0  0  0  0  0  0  0  0  0  0
  139.4849   80.3468  223.2756 H   0  0  0  0  0  0  0  0  0  0  0  0
  141.6168   78.7646  224.8345 H   0  0  0  0  0  0  0  0  0  0  0  0
  141.3065   77.4055  223.7018 H   0  0  0  0  0  0  0  0  0  0  0  0
  142.9035   78.2279  223.7018 H   0  0  0  0  0  0  0  0  0  0  0  0
  143.2303   80.3171  223.0397 H   0  0  0  0  0  0  0  0  0  0  0  0
  143.1161   79.2607  221.5914 H   0  0  0  0  0  0  0  0  0  0  0  0
  142.3249   80.8733  221.5914 H   0  0  0  0  0  0  0  0  0  0  0  0
  139.5274   78.6938  221.9338 H   0  0  0  0  0  0  0  0  0  0  0  0
  140.9986   79.0016  220.7975 H   0  0  0  0  0  0  0  0  0  0  0  0
  141.8920   76.9020  221.6520 H   0  0  0  0  0  0  0  0  0  0  0  0
  139.8227   74.3412  220.3396 H   0  0  0  0  0  0  0  0  0  0  0  0
  141.4191   74.6963  221.2075 H   0  0  0  0  0  0  0  0  0  0  0  0
  139.2470   74.0080  223.0550 H   0  0  0  0  0  0  0  0  0  0  0  0
  139.3278   70.3679  222.1533 H   0  0  0  0  0  0  0  0  0  0  0  0
  138.7486   68.7243  223.9114 H   0  0  0  0  0  0  0  0  0  0  0  0
  138.8152   68.0133  226.1449 H   0  0  0  0  0  0  0  0  0  0  0  0
  139.5515   68.4186  228.5042 H   0  0  0  0  0  0  0  0  0  0  0  0
  140.8392   70.4378  229.0426 H   0  0  0  0  0  0  0  0  0  0  0  0
  141.4451   72.1168  227.3276 H   0  0  0  0  0  0  0  0  0  0  0  0
  1  2  1  0
  2  3  1  0
  2  4  1  0
  2  5  1  0
  5  6  1  0
  6  7  1  0
  7  8  2  0
  7  9  1  0
  9 10  1  0
 10 11  1  0
 11 12  2  0
 11 13  1  0
 13 14  2  0
 14 15  1  0
 15 16  2  0
 16 17  1  0
 17 18  2  0
 18 19  1  0
 19 20  2  0
 20 21  1  0
 21 22  2  0
 22 13  1  0
 21 16  1  0
  1 23  1  0
  1 24  1  0
  1 25  1  0
  3 26  1  0
  3 27  1  0
  3 28  1  0
  4 29  1  0
  4 30  1  0
  4 31  1  0
  5 32  1  0
  5 33  1  0
  6 34  1  0
  9 35  1  0
  9 36  1  0
 10 37  1  0
 14 38  1  0
 15 39  1  0
 17 40  1  0
 18 41  1  0
 19 42  1  0
 20 43  1  0
M  END
>  <smiles>  (26) 
CC(C)(C)CNC(=O)CNC(=O)c1ccc2ccccc2n1

>  <score_type>  (26) 
oracle

>  <origin>  (26) 
autodockgpu

>  <m_score__min__energy>  (26) 
-7.5099999999999998

>  <m_primary>  (26) 
energy

>  <rmsd>  (26) 
3.4225403636214087

>  <m_score__min__rmsd>  (26) 
3.4225403636214087

>  <meeko>  (26) 
{"free_energy": -7.51, "intermolecular_energy": -9.01, "internal_energy": -0.75, "cluster_size": 8, "cluster_id": 1, "rank_in_cluster": 1}

>  <energy>  (26) 
-7.0

>  <cluster_rmsd>  (26) 
0.98

>  <cluster>  (26) 
2

$$$$

     RDKit          3D

 43 44  0  0  0  0  0  0  0  0999 V2000
  139.4480   78.4880  223.0750 C   0  0  0  0  0  0  0  0  0  0  0  0
  140.8270   78.7790  222.5940 C   0  0  0  0  0  0  0  0  0  0  0  0
  141.7360   78.6270  223.8380 C   0  0  0  0  0  0  0  0  0  0  0  0
  140.9300   80.2670  222.2500 C   0  0  0  0  0  0  0  0  0  0  0  0
  141.4120   77.9450  221.5280 C   0  0  0  0  0  0  0  0  0  0  0  0
  141.2050   76.5470  221.5140 N   0  0  0  0  0  0  0  0  0  0  0  0
  140.1860   75.7920  220.9240 C   0  0  0  0  0  0  0  0  0  0  0  0
  139.2520   76.3980  220.2910 O   0  0  0  0  0  0  0  0  0  0  0  0
  140.0620   74.3220  220.9500 C   0  0  0  0  0  0  0  0  0  0  0  0
  139.9000   73.7180  222.2360 N   0  0  0  0  0  0  0  0  0  0  0  0
  140.2840   72.3340  222.3550 C   0  0  0  0  0  0  0  0  0  0  0  0
  140.7310   71.7530  221.3330 O   0  0  0  0  0  0  0  0  0  0  0  0
  140.1470   71.6520  223.6360 C   0  0  0  0  0  0  0  0  0  0  0  0
  139.4120   70.4850  223.6730 C   0  0  0  0  0  0  0  0  0  0  0  0
  139.2480   69.7960  224.8550 C   0  0  0  0  0  0  0  0  0  0  0  0
  139.8250   70.2810  226.0100 C   0  0  0  0  0  0  0  0  0  0  0  0
  139.6410   69.5700  227.1670 C   0  0  0  0  0  0  0  0  0  0  0  0
  140.2210   70.0620  228.3190 C   0  0  0  0  0  0  0  0  0  0  0  0
  140.9510   71.2290  228.2620 C   0  0  0  0  0  0  0  0  0  0  0  0
  141.1430   71.9510  227.1020 C   0  0  0  0  0  0  0  0  0  0  0  0
  140.5610   71.4570  225.9520 C   0  0  0  0  0  0  0  0  0  0  0  0
  140.7000   72.1040  224.7770 N   0  0  0  0  0  0  0  0  0  0  0  0
  139.4362   78.4855  224.1749 H   0  0  0  0  0  0  0  0  0  0  0  0
  138.7591   79.2606  222.7027 H   0  0  0  0  0  0  0  0  0  0  0  0
  139.1300   77.5030  222.7027 H   0  0  0  0  0  0  0  0  0  0  0  0
  141.1294   78.7284  224.7500 H   0  0  0  0  0  0  0  0  0  0  0  0
  142.2141   77.6364  223.8239 H   0  0  0  0  0  0  0  0  0  0  0  0
  142.5104   79.4081  223.8239 H   0  0  0  0  0  0  0  0  0  0  0  0
  140.9708   80.8559  223.1782 H   0  0  0  0  0  0  0  0  0  0  0  0
  141.8426   80.4452  221.6623 H   0  0  0  0  0  0  0  0  0  0  0  0
  140.0506   80.5692  221.6623 H   0  0  0  0  0  0  0  0  0  0  0  0
  141.0199   78.3309  220.5755 H   0  0  0  0  0  0  0  0  0  0  0  0
  142.4930   78.0324  221.7117 H   0  0  0  0  0  0  0  0  0  0  0  0
  141.9480   75.9580  222.0370 H   0  0  0  0  0  0  0  0  0  0  0  0
  139.1879   74.0495  220.3403 H   0  0  0  0  0  0  0  0  0  0  0  0
  141.0213   73.9421  220.5687 H   0  0  0  0  0  0  0  0  0  0  0  0
  139.5390   74.1530  223.1000 H   0  0  0  0  0  0  0  0  0  0  0  0
  138.9526   70.1010  222.7503 H   0  0  0  0  0  0  0  0  0  0  0  0
  138.6611   68.8659  224.8772 H   0  0  0  0  0  0  0  0  0  0  0  0
  139.0524   68.6408  227.1774 H   0  0  0  0  0  0  0  0  0  0  0  0
  140.1015   69.5276  229.2730 H   0  0  0  0  0  0  0  0  0  0  0  0
  141.4049   71.6052  229.1907 H   0  0  0  0  0  0  0  0  0  0  0  0
  141.7336   72.8790  227.0940 H   0  0  0  0  0  0  0  0  0  0  0  0
  1  2  1  0
  2  3  1  0
  2  4  1  0
  2  5  1  0
  5  6  1  0
  6  7  1  0
  7  8  2  0
  7  9  1  0
  9 10  1  0
 10 11  1  0
 11 12  2  0
 11 13  1  0
 13 14  2  0
 14 15  1  0
 15 16  2  0
 16 17  1  0
 17 18  2  0
 18 19  1  0
 19 20  2  0
 20 21  1  0
 21 22  2  0
 22 13  1  0
 21 16  1  0
  1 23  1  0
  1 24  1  0
  1 25  1  0
  3 26  1  0
  3 27  1  0
  3 28  1  0
  4 29  1  0
  4 30  1  0
  4 31  1  0
  5 32  1  0
  5 33  1  0
  6 34  1  0
  9 35  1  0
  9 36  1  0
 10 37  1  0
 14 38  1  0
 15 39  1  0
 17 40  1  0
 18 41  1  0
 19 42  1  0
 20 43  1  0
M  END
>  <smiles>  (27) 
CC(C)(C)CNC(=O)CNC(=O)c1ccc2ccccc2n1

>  <score_type>  (27) 
oracle

>  <origin>  (27) 
autodockgpu

>  <m_score__min__energy>  (27) 
-7.5099999999999998

>  <m_primary>  (27) 
energy

>  <rmsd>  (27) 
3.19587251838729

>  <m_score__min__rmsd>  (27) 
3.19587251838729

>  <meeko>  (27) 
{"free_energy": -7.33, "intermolecular_energy": -8.83, "internal_energy": -0.83, "cluster_size": 8, "cluster_id": 1, "rank_in_cluster": 5}

>  <energy>  (27) 
-6.99

>  <cluster_rmsd>  (27) 
0.81

>  <cluster>  (27) 
2

$$$$

     RDKit          3D

 43 44  0  0  0  0  0  0  0  0999 V2000
  145.7890   73.3690  221.2630 C   0  0  0  0  0  0  0  0  0  0  0  0
  144.6010   73.2870  220.3710 C   0  0  0  0  0  0  0  0  0  0  0  0
  144.0580   71.8470  220.5410 C   0  0  0  0  0  0  0  0  0  0  0  0
  145.0690   73.3280  218.9140 C   0  0  0  0  0  0  0  0  0  0  0  0
  143.4670   74.2030  220.5910 C   0  0  0  0  0  0  0  0  0  0  0  0
  142.2040   73.7030  220.9830 N   0  0  0  0  0  0  0  0  0  0  0  0
  140.9180   74.1490  220.6610 C   0  0  0  0  0  0  0  0  0  0  0  0
  140.7880   75.1750  219.9060 O   0  0  0  0  0  0  0  0  0  0  0  0
  139.6480   73.5480  221.1100 C   0  0  0  0  0  0  0  0  0  0  0  0
  139.6340   72.9970  222.4290 N   0  0  0  0  0  0  0  0  0  0  0  0
  140.2920   71.7270  222.6080 C   0  0  0  0  0  0  0  0  0  0  0  0
  140.8300   71.1920  221.6060 O   0  0  0  0  0  0  0  0  0  0  0  0
  140.3170   71.1040  223.9260 C   0  0  0  0  0  0  0  0  0  0  0  0
  140.7480   71.8640  224.9940 C   0  0  0  0  0  0  0  0  0  0  0  0
  140.7940   71.3300  226.2620 C   0  0  0  0  0  0  0  0  0  0  0  0
  140.4040   70.0220  226.4640 C   0  0  0  0  0  0  0  0  0  0  0  0
  140.4620   69.5230  227.7390 C   0  0  0  0  0  0  0  0  0  0  0  0
  140.0700   68.2140  227.9330 C   0  0  0  0  0  0  0  0  0  0  0  0
  139.6430   67.4710  226.8540 C   0  0  0  0  0  0  0  0  0  0  0  0
  139.5800   67.9640  225.5670 C   0  0  0  0  0  0  0  0  0  0  0  0
  139.9730   69.2730  225.3770 C   0  0  0  0  0  0  0  0  0  0  0  0
  139.9410   69.8300  224.1500 N   0  0  0  0  0  0  0  0  0  0  0  0
  145.4615   73.3464  222.3129 H   0  0  0  0  0  0  0  0  0  0  0  0
  146.4538   72.5146  221.0678 H   0  0  0  0  0  0  0  0  0  0  0  0
  146.3301   74.3066  221.0678 H   0  0  0  0  0  0  0  0  0  0  0  0
  143.9696   71.6125  221.6121 H   0  0  0  0  0  0  0  0  0  0  0  0
  143.0689   71.7696  220.0658 H   0  0  0  0  0  0  0  0  0  0  0  0
  144.7497   71.1358  220.0658 H   0  0  0  0  0  0  0  0  0  0  0  0
  146.1644   73.4240  218.8833 H   0  0  0  0  0  0  0  0  0  0  0  0
  144.7678   72.4000  218.4059 H   0  0  0  0  0  0  0  0  0  0  0  0
  144.6111   74.1895  218.4059 H   0  0  0  0  0  0  0  0  0  0  0  0
  143.7813   74.9111  221.3719 H   0  0  0  0  0  0  0  0  0  0  0  0
  143.2728   74.6010  219.5841 H   0  0  0  0  0  0  0  0  0  0  0  0
  142.2240   72.8380  221.6330 H   0  0  0  0  0  0  0  0  0  0  0  0
  138.8747   74.3291  221.0659 H   0  0  0  0  0  0  0  0  0  0  0  0
  139.4754   72.6955  220.4366 H   0  0  0  0  0  0  0  0  0  0  0  0
  139.2060   73.3980  223.2800 H   0  0  0  0  0  0  0  0  0  0  0  0
  141.0579   72.9067  224.8306 H   0  0  0  0  0  0  0  0  0  0  0  0
  141.1393   71.9419  227.1084 H   0  0  0  0  0  0  0  0  0  0  0  0
  140.8088   70.1439  228.5782 H   0  0  0  0  0  0  0  0  0  0  0  0
  140.0982   67.7685  228.9384 H   0  0  0  0  0  0  0  0  0  0  0  0
  139.3360   66.4292  227.0281 H   0  0  0  0  0  0  0  0  0  0  0  0
  139.2320   67.3413  224.7296 H   0  0  0  0  0  0  0  0  0  0  0  0
  1  2  1  0
  2  3  1  0
  2  4  1  0
  2  5  1  0
  5  6  1  0
  6  7  1  0
  7  8  2  0
  7  9  1  0
  9 10  1  0
 10 11  1  0
 11 12  2  0
 11 13  1  0
 13 14  2  0
 14 15  1  0
 15 16  2  0
 16 17  1  0
 17 18  2  0
 18 19  1  0
 19 20  2  0
 20 21  1  0
 21 22  2  0
 22 13  1  0
 21 16  1  0
  1 23  1  0
  1 24  1  0
  1 25  1  0
  3 26  1  0
  3 27  1  0
  3 28  1  0
  4 29  1  0
  4 30  1  0
  4 31  1  0
  5 32  1  0
  5 33  1  0
  6 34  1  0
  9 35  1  0
  9 36  1  0
 10 37  1  0
 14 38  1  0
 15 39  1  0
 17 40  1  0
 18 41  1  0
 19 42  1  0
 20 43  1  0
M  END
>  <smiles>  (28) 
CC(C)(C)CNC(=O)CNC(=O)c1ccc2ccccc2n1

>  <score_type>  (28) 
oracle

>  <origin>  (28) 
autodockgpu

>  <m_score__min__energy>  (28) 
-7.5099999999999998

>  <m_primary>  (28) 
energy

>  <rmsd>  (28) 
4.011447948677978

>  <m_score__min__rmsd>  (28) 
4.011447948677978

>  <meeko>  (28) 
{"free_energy": -6.67, "intermolecular_energy": -8.16, "internal_energy": -1.54, "cluster_size": 41, "cluster_id": 2, "rank_in_cluster": 36}

>  <energy>  (28) 
-6.97

>  <cluster_rmsd>  (28) 
0.97

>  <cluster>  (28) 
2

$$$$

     RDKit          3D

 43 44  0  0  0  0  0  0  0  0999 V2000
  146.1150   73.7520  221.1650 C   0  0  0  0  0  0  0  0  0  0  0  0
  144.8980   73.5580  220.3300 C   0  0  0  0  0  0  0  0  0  0  0  0
  144.3510   72.1630  220.7190 C   0  0  0  0  0  0  0  0  0  0  0  0
  145.3200   73.3890  218.8680 C   0  0  0  0  0  0  0  0  0  0  0  0
  143.7780   74.5090  220.4530 C   0  0  0  0  0  0  0  0  0  0  0  0
  142.4670   74.0470  220.7070 N   0  0  0  0  0  0  0  0  0  0  0  0
  141.2630   74.7530  220.8020 C   0  0  0  0  0  0  0  0  0  0  0  0
  141.2790   76.0260  220.6620 O   0  0  0  0  0  0  0  0  0  0  0  0
  139.9300   74.1760  221.0570 C   0  0  0  0  0  0  0  0  0  0  0  0
  139.7530   73.5050  222.3070 N   0  0  0  0  0  0  0  0  0  0  0  0
  140.3690   72.2090  222.4410 C   0  0  0  0  0  0  0  0  0  0  0  0
  141.0150   71.7570  221.4620 O   0  0  0  0  0  0  0  0  0  0  0  0
  140.2300   71.4670  223.6880 C   0  0  0  0  0  0  0  0  0  0  0  0
  139.5910   70.2450  223.6470 C   0  0  0  0  0  0  0  0  0  0  0  0
  139.4300   69.4980  224.7930 C   0  0  0  0  0  0  0  0  0  0  0  0
  139.9140   69.9790  225.9910 C   0  0  0  0  0  0  0  0  0  0  0  0
  139.7370   69.2090  227.1110 C   0  0  0  0  0  0  0  0  0  0  0  0
  140.2240   69.6970  228.3070 C   0  0  0  0  0  0  0  0  0  0  0  0
  140.8600   70.9190  228.3280 C   0  0  0  0  0  0  0  0  0  0  0  0
  141.0440   71.7010  227.2060 C   0  0  0  0  0  0  0  0  0  0  0  0
  140.5550   71.2110  226.0130 C   0  0  0  0  0  0  0  0  0  0  0  0
  140.6940   71.9140  224.8710 N   0  0  0  0  0  0  0  0  0  0  0  0
  145.8403   73.7082  222.2292 H   0  0  0  0  0  0  0  0  0  0  0  0
  146.8434   72.9586  220.9414 H   0  0  0  0  0  0  0  0  0  0  0  0
  146.5606   74.7325  220.9414 H   0  0  0  0  0  0  0  0  0  0  0  0
  144.3166   72.0752  221.8149 H   0  0  0  0  0  0  0  0  0  0  0  0
  143.3377   72.0392  220.3092 H   0  0  0  0  0  0  0  0  0  0  0  0
  145.0100   71.3834  220.3092 H   0  0  0  0  0  0  0  0  0  0  0  0
  146.3404   72.9804  218.8258 H   0  0  0  0  0  0  0  0  0  0  0  0
  144.6275   72.6988  218.3639 H   0  0  0  0  0  0  0  0  0  0  0  0
  145.2953   74.3664  218.3639 H   0  0  0  0  0  0  0  0  0  0  0  0
  144.0352   75.1935  221.2748 H   0  0  0  0  0  0  0  0  0  0  0  0
  143.6991   74.9292  219.4395 H   0  0  0  0  0  0  0  0  0  0  0  0
  142.3660   72.9780  220.8480 H   0  0  0  0  0  0  0  0  0  0  0  0
  139.1971   74.9950  221.0108 H   0  0  0  0  0  0  0  0  0  0  0  0
  139.7974   73.3998  220.2890 H   0  0  0  0  0  0  0  0  0  0  0  0
  139.2330   73.8360  223.1370 H   0  0  0  0  0  0  0  0  0  0  0  0
  139.2063   69.8635  222.6897 H   0  0  0  0  0  0  0  0  0  0  0  0
  138.9190   68.5248  224.7527 H   0  0  0  0  0  0  0  0  0  0  0  0
  139.2251   68.2368  227.0587 H   0  0  0  0  0  0  0  0  0  0  0  0
  140.1055   69.1162  229.2336 H   0  0  0  0  0  0  0  0  0  0  0  0
  141.2414   71.2911  229.2903 H   0  0  0  0  0  0  0  0  0  0  0  0
  141.5579   72.6721  227.2606 H   0  0  0  0  0  0  0  0  0  0  0  0
  1  2  1  0
  2  3  1  0
  2  4  1  0
  2  5  1  0
  5  6  1  0
  6  7  1  0
  7  8  2  0
  7  9  1  0
  9 10  1  0
 10 11  1  0
 11 12  2  0
 11 13  1  0
 13 14  2  0
 14 15  1  0
 15 16  2  0
 16 17  1  0
 17 18  2  0
 18 19  1  0
 19 20  2  0
 20 21  1  0
 21 22  2  0
 22 13  1  0
 21 16  1  0
  1 23  1  0
  1 24  1  0
  1 25  1  0
  3 26  1  0
  3 27  1  0
  3 28  1  0
  4 29  1  0
  4 30  1  0
  4 31  1  0
  5 32  1  0
  5 33  1  0
  6 34  1  0
  9 35  1  0
  9 36  1  0
 10 37  1  0
 14 38  1  0
 15 39  1  0
 17 40  1  0
 18 41  1  0
 19 42  1  0
 20 43  1  0
M  END
>  <smiles>  (29) 
CC(C)(C)CNC(=O)CNC(=O)c1ccc2ccccc2n1

>  <score_type>  (29) 
oracle

>  <origin>  (29) 
autodockgpu

>  <m_score__min__energy>  (29) 
-7.5099999999999998

>  <m_primary>  (29) 
energy

>  <rmsd>  (29) 
3.3519765694885253

>  <m_score__min__rmsd>  (29) 
3.3519765694885253

>  <meeko>  (29) 
{"free_energy": -7.1, "intermolecular_energy": -8.59, "internal_energy": -1.54, "cluster_size": 41, "cluster_id": 2, "rank_in_cluster": 5}

>  <energy>  (29) 
-6.96

>  <cluster_rmsd>  (29) 
0.74

>  <cluster>  (29) 
2

$$$$

     RDKit          3D

 43 44  0  0  0  0  0  0  0  0999 V2000
  144.4280   71.6940  220.2200 C   0  0  0  0  0  0  0  0  0  0  0  0
  144.8360   73.1250  220.2350 C   0  0  0  0  0  0  0  0  0  0  0  0
  145.5370   73.3680  218.8760 C   0  0  0  0  0  0  0  0  0  0  0  0
  145.9570   73.3120  221.2600 C   0  0  0  0  0  0  0  0  0  0  0  0
  143.8040   74.1690  220.3790 C   0  0  0  0  0  0  0  0  0  0  0  0
  142.4840   73.8290  220.7500 N   0  0  0  0  0  0  0  0  0  0  0  0
  141.3040   74.5770  220.6770 C   0  0  0  0  0  0  0  0  0  0  0  0
  141.3570   75.7740  220.2230 O   0  0  0  0  0  0  0  0  0  0  0  0
  139.9580   74.1270  221.0780 C   0  0  0  0  0  0  0  0  0  0  0  0
  139.8520   73.4860  222.3510 N   0  0  0  0  0  0  0  0  0  0  0  0
  140.2930   72.1160  222.4270 C   0  0  0  0  0  0  0  0  0  0  0  0
  140.7380   71.5780  221.3810 O   0  0  0  0  0  0  0  0  0  0  0  0
  140.2150   71.3980  223.6940 C   0  0  0  0  0  0  0  0  0  0  0  0
  139.6370   70.1460  223.6940 C   0  0  0  0  0  0  0  0  0  0  0  0
  139.5350   69.4200  224.8600 C   0  0  0  0  0  0  0  0  0  0  0  0
  140.0150   69.9550  226.0370 C   0  0  0  0  0  0  0  0  0  0  0  0
  139.8970   69.2050  227.1790 C   0  0  0  0  0  0  0  0  0  0  0  0
  140.3810   69.7460  228.3530 C   0  0  0  0  0  0  0  0  0  0  0  0
  140.9540   70.9990  228.3320 C   0  0  0  0  0  0  0  0  0  0  0  0
  141.0790   71.7610  227.1890 C   0  0  0  0  0  0  0  0  0  0  0  0
  140.5940   71.2170  226.0170 C   0  0  0  0  0  0  0  0  0  0  0  0
  140.6770   71.8970  224.8560 N   0  0  0  0  0  0  0  0  0  0  0  0
  144.3246   71.3314  221.2533 H   0  0  0  0  0  0  0  0  0  0  0  0
  143.4652   71.5927  219.6978 H   0  0  0  0  0  0  0  0  0  0  0  0
  145.1926   71.1002  219.6978 H   0  0  0  0  0  0  0  0  0  0  0  0
  146.5631   73.7237  219.0511 H   0  0  0  0  0  0  0  0  0  0  0  0
  145.5671   72.4279  218.3057 H   0  0  0  0  0  0  0  0  0  0  0  0
  144.9788   74.1251  218.3057 H   0  0  0  0  0  0  0  0  0  0  0  0
  145.5405   73.2425  222.2757 H   0  0  0  0  0  0  0  0  0  0  0  0
  146.7159   72.5280  221.1205 H   0  0  0  0  0  0  0  0  0  0  0  0
  146.4204   74.2998  221.1205 H   0  0  0  0  0  0  0  0  0  0  0  0
  144.1729   74.8734  221.1390 H   0  0  0  0  0  0  0  0  0  0  0  0
  143.6830   74.5393  219.3503 H   0  0  0  0  0  0  0  0  0  0  0  0
  142.3520   72.8330  221.1540 H   0  0  0  0  0  0  0  0  0  0  0  0
  139.3013   75.0094  221.0926 H   0  0  0  0  0  0  0  0  0  0  0  0
  139.6766   73.3597  220.3418 H   0  0  0  0  0  0  0  0  0  0  0  0
  139.4960   73.8850  223.2350 H   0  0  0  0  0  0  0  0  0  0  0  0
  139.2537   69.7230  222.7537 H   0  0  0  0  0  0  0  0  0  0  0  0
  139.0743   68.4212  224.8525 H   0  0  0  0  0  0  0  0  0  0  0  0
  139.4332   68.2078  227.1601 H   0  0  0  0  0  0  0  0  0  0  0  0
  140.3101   69.1829  229.2953 H   0  0  0  0  0  0  0  0  0  0  0  0
  141.3322   71.4140  229.2779 H   0  0  0  0  0  0  0  0  0  0  0  0
  141.5443   72.7575  227.2107 H   0  0  0  0  0  0  0  0  0  0  0  0
  1  2  1  0
  2  3  1  0
  2  4  1  0
  2  5  1  0
  5  6  1  0
  6  7  1  0
  7  8  2  0
  7  9  1  0
  9 10  1  0
 10 11  1  0
 11 12  2  0
 11 13  1  0
 13 14  2  0
 14 15  1  0
 15 16  2  0
 16 17  1  0
 17 18  2  0
 18 19  1  0
 19 20  2  0
 20 21  1  0
 21 22  2  0
 22 13  1  0
 21 16  1  0
  1 23  1  0
  1 24  1  0
  1 25  1  0
  3 26  1  0
  3 27  1  0
  3 28  1  0
  4 29  1  0
  4 30  1  0
  4 31  1  0
  5 32  1  0
  5 33  1  0
  6 34  1  0
  9 35  1  0
  9 36  1  0
 10 37  1  0
 14 38  1  0
 15 39  1  0
 17 40  1  0
 18 41  1  0
 19 42  1  0
 20 43  1  0
M  END
>  <smiles>  (30) 
CC(C)(C)CNC(=O)CNC(=O)c1ccc2ccccc2n1

>  <score_type>  (30) 
oracle

>  <origin>  (30) 
autodockgpu

>  <m_score__min__energy>  (30) 
-7.5099999999999998

>  <m_primary>  (30) 
energy

>  <rmsd>  (30) 
3.265194298451919

>  <m_score__min__rmsd>  (30) 
3.265194298451919

>  <meeko>  (30) 
{"free_energy": -6.93, "intermolecular_energy": -8.42, "internal_energy": -1.63, "cluster_size": 41, "cluster_id": 2, "rank_in_cluster": 25}

>  <energy>  (30) 
-6.95

>  <cluster_rmsd>  (30) 
0.79

>  <cluster>  (30) 
2

$$$$

     RDKit          3D

 43 44  0  0  0  0  0  0  0  0999 V2000
  145.3860   73.2190  218.6470 C   0  0  0  0  0  0  0  0  0  0  0  0
  144.7830   73.5040  219.9780 C   0  0  0  0  0  0  0  0  0  0  0  0
  145.9450   74.0440  220.8480 C   0  0  0  0  0  0  0  0  0  0  0  0
  144.4120   72.1790  220.6500 C   0  0  0  0  0  0  0  0  0  0  0  0
  143.6810   74.4780  220.0790 C   0  0  0  0  0  0  0  0  0  0  0  0
  142.3590   74.0440  220.3230 N   0  0  0  0  0  0  0  0  0  0  0  0
  141.2740   74.7260  220.8860 C   0  0  0  0  0  0  0  0  0  0  0  0
  141.4370   75.9340  221.2770 O   0  0  0  0  0  0  0  0  0  0  0  0
  139.9150   74.1900  221.0870 C   0  0  0  0  0  0  0  0  0  0  0  0
  139.6820   73.4820  222.3070 N   0  0  0  0  0  0  0  0  0  0  0  0
  140.4260   72.2630  222.5030 C   0  0  0  0  0  0  0  0  0  0  0  0
  141.2230   71.9040  221.5990 O   0  0  0  0  0  0  0  0  0  0  0  0
  140.2390   71.4890  223.7240 C   0  0  0  0  0  0  0  0  0  0  0  0
  139.5420   70.3010  223.6380 C   0  0  0  0  0  0  0  0  0  0  0  0
  139.3340   69.5270  224.7580 C   0  0  0  0  0  0  0  0  0  0  0  0
  139.8290   69.9460  225.9750 C   0  0  0  0  0  0  0  0  0  0  0  0
  139.6030   69.1510  227.0680 C   0  0  0  0  0  0  0  0  0  0  0  0
  140.1020   69.5760  228.2830 C   0  0  0  0  0  0  0  0  0  0  0  0
  140.7950   70.7650  228.3490 C   0  0  0  0  0  0  0  0  0  0  0  0
  141.0280   71.5720  227.2540 C   0  0  0  0  0  0  0  0  0  0  0  0
  140.5280   71.1440  226.0420 C   0  0  0  0  0  0  0  0  0  0  0  0
  140.7120   71.8750  224.9240 N   0  0  0  0  0  0  0  0  0  0  0  0
  146.3728   72.7526  218.7838 H   0  0  0  0  0  0  0  0  0  0  0  0
  144.7316   72.5349  218.0869 H   0  0  0  0  0  0  0  0  0  0  0  0
  145.4992   74.1589  218.0869 H   0  0  0  0  0  0  0  0  0  0  0  0
  145.6918   73.9263  221.9120 H   0  0  0  0  0  0  0  0  0  0  0  0
  146.8628   73.4801  220.6250 H   0  0  0  0  0  0  0  0  0  0  0  0
  146.1058   75.1091  220.6250 H   0  0  0  0  0  0  0  0  0  0  0  0
  144.4459   72.3000  221.7428 H   0  0  0  0  0  0  0  0  0  0  0  0
  143.3969   71.8848  220.3450 H   0  0  0  0  0  0  0  0  0  0  0  0
  145.1267   71.4004  220.3450 H   0  0  0  0  0  0  0  0  0  0  0  0
  143.9426   75.1657  220.8967 H   0  0  0  0  0  0  0  0  0  0  0  0
  143.6215   74.8897  219.0607 H   0  0  0  0  0  0  0  0  0  0  0  0
  142.1380   73.0260  220.0290 H   0  0  0  0  0  0  0  0  0  0  0  0
  139.2135   75.0366  221.0528 H   0  0  0  0  0  0  0  0  0  0  0  0
  139.7742   73.4471  220.2881 H   0  0  0  0  0  0  0  0  0  0  0  0
  139.0400   73.7370  223.0750 H   0  0  0  0  0  0  0  0  0  0  0  0
  139.1489   69.9692  222.6657 H   0  0  0  0  0  0  0  0  0  0  0  0
  138.7771   68.5814  224.6823 H   0  0  0  0  0  0  0  0  0  0  0  0
  139.0439   68.2078  226.9804 H   0  0  0  0  0  0  0  0  0  0  0  0
  139.9479   68.9716  229.1891 H   0  0  0  0  0  0  0  0  0  0  0  0
  141.1831   71.0881  229.3262 H   0  0  0  0  0  0  0  0  0  0  0  0
  141.5876   72.5147  227.3439 H   0  0  0  0  0  0  0  0  0  0  0  0
  1  2  1  0
  2  3  1  0
  2  4  1  0
  2  5  1  0
  5  6  1  0
  6  7  1  0
  7  8  2  0
  7  9  1  0
  9 10  1  0
 10 11  1  0
 11 12  2  0
 11 13  1  0
 13 14  2  0
 14 15  1  0
 15 16  2  0
 16 17  1  0
 17 18  2  0
 18 19  1  0
 19 20  2  0
 20 21  1  0
 21 22  2  0
 22 13  1  0
 21 16  1  0
  1 23  1  0
  1 24  1  0
  1 25  1  0
  3 26  1  0
  3 27  1  0
  3 28  1  0
  4 29  1  0
  4 30  1  0
  4 31  1  0
  5 32  1  0
  5 33  1  0
  6 34  1  0
  9 35  1  0
  9 36  1  0
 10 37  1  0
 14 38  1  0
 15 39  1  0
 17 40  1  0
 18 41  1  0
 19 42  1  0
 20 43  1  0
M  END
>  <smiles>  (31) 
CC(C)(C)CNC(=O)CNC(=O)c1ccc2ccccc2n1

>  <score_type>  (31) 
oracle

>  <origin>  (31) 
autodockgpu

>  <m_score__min__energy>  (31) 
-7.5099999999999998

>  <m_primary>  (31) 
energy

>  <rmsd>  (31) 
3.181193154289613

>  <m_score__min__rmsd>  (31) 
3.181193154289613

>  <meeko>  (31) 
{"free_energy": -7.07, "intermolecular_energy": -8.56, "internal_energy": -1.53, "cluster_size": 41, "cluster_id": 2, "rank_in_cluster": 9}

>  <energy>  (31) 
-6.93

>  <cluster_rmsd>  (31) 
0.85

>  <cluster>  (31) 
2

$$$$

     RDKit          3D

 43 44  0  0  0  0  0  0  0  0999 V2000
  141.0730   77.9550  222.9860 C   0  0  0  0  0  0  0  0  0  0  0  0
  140.1750   77.2120  222.0590 C   0  0  0  0  0  0  0  0  0  0  0  0
  141.0960   76.2330  221.2910 C   0  0  0  0  0  0  0  0  0  0  0  0
  139.6790   78.1710  220.9730 C   0  0  0  0  0  0  0  0  0  0  0  0
  139.0650   76.4150  222.6120 C   0  0  0  0  0  0  0  0  0  0  0  0
  138.9860   75.0260  222.3660 N   0  0  0  0  0  0  0  0  0  0  0  0
  138.2980   74.3220  221.3720 C   0  0  0  0  0  0  0  0  0  0  0  0
  137.5990   74.9760  220.5210 O   0  0  0  0  0  0  0  0  0  0  0  0
  138.2880   72.8600  221.1860 C   0  0  0  0  0  0  0  0  0  0  0  0
  138.4700   72.0650  222.3600 N   0  0  0  0  0  0  0  0  0  0  0  0
  139.7690   72.1150  222.9830 C   0  0  0  0  0  0  0  0  0  0  0  0
  140.6490   72.8460  222.4600 O   0  0  0  0  0  0  0  0  0  0  0  0
  140.0270   71.3310  224.1840 C   0  0  0  0  0  0  0  0  0  0  0  0
  140.8160   71.8920  225.1670 C   0  0  0  0  0  0  0  0  0  0  0  0
  141.0950   71.1990  226.3240 C   0  0  0  0  0  0  0  0  0  0  0  0
  140.5790   69.9310  226.4980 C   0  0  0  0  0  0  0  0  0  0  0  0
  140.8770   69.2710  227.6610 C   0  0  0  0  0  0  0  0  0  0  0  0
  140.3570   68.0030  227.8280 C   0  0  0  0  0  0  0  0  0  0  0  0
  139.5710   67.4600  226.8360 C   0  0  0  0  0  0  0  0  0  0  0  0
  139.2650   68.1170  225.6610 C   0  0  0  0  0  0  0  0  0  0  0  0
  139.7870   69.3840  225.4980 C   0  0  0  0  0  0  0  0  0  0  0  0
  139.5350   70.0930  224.3790 N   0  0  0  0  0  0  0  0  0  0  0  0
  140.7967   77.7264  224.0259 H   0  0  0  0  0  0  0  0  0  0  0  0
  142.1153   77.6517  222.8084 H   0  0  0  0  0  0  0  0  0  0  0  0
  140.9702   79.0357  222.8084 H   0  0  0  0  0  0  0  0  0  0  0  0
  141.6667   75.6264  222.0096 H   0  0  0  0  0  0  0  0  0  0  0  0
  140.4837   75.5731  220.6589 H   0  0  0  0  0  0  0  0  0  0  0  0
  141.7920   76.8039  220.6589 H   0  0  0  0  0  0  0  0  0  0  0  0
  139.2224   79.0539  221.4442 H   0  0  0  0  0  0  0  0  0  0  0  0
  140.5269   78.4866  220.3474 H   0  0  0  0  0  0  0  0  0  0  0  0
  138.9314   77.6614  220.3474 H   0  0  0  0  0  0  0  0  0  0  0  0
  139.1014   76.5398  223.7043 H   0  0  0  0  0  0  0  0  0  0  0  0
  138.1878   76.8103  222.0789 H   0  0  0  0  0  0  0  0  0  0  0  0
  139.5440   74.3970  223.0490 H   0  0  0  0  0  0  0  0  0  0  0  0
  137.3185   72.5862  220.7444 H   0  0  0  0  0  0  0  0  0  0  0  0
  139.1586   72.6422  220.5499 H   0  0  0  0  0  0  0  0  0  0  0  0
  137.7800   71.4520  222.8240 H   0  0  0  0  0  0  0  0  0  0  0  0
  141.2262   72.9027  225.0252 H   0  0  0  0  0  0  0  0  0  0  0  0
  141.7245   71.6528  227.1036 H   0  0  0  0  0  0  0  0  0  0  0  0
  141.5078   69.7346  228.4338 H   0  0  0  0  0  0  0  0  0  0  0  0
  140.5684   67.4321  228.7442 H   0  0  0  0  0  0  0  0  0  0  0  0
  139.1654   66.4489  226.9880 H   0  0  0  0  0  0  0  0  0  0  0  0
  138.6337   67.6516  224.8897 H   0  0  0  0  0  0  0  0  0  0  0  0
  1  2  1  0
  2  3  1  0
  2  4  1  0
  2  5  1  0
  5  6  1  0
  6  7  1  0
  7  8  2  0
  7  9  1  0
  9 10  1  0
 10 11  1  0
 11 12  2  0
 11 13  1  0
 13 14  2  0
 14 15  1  0
 15 16  2  0
 16 17  1  0
 17 18  2  0
 18 19  1  0
 19 20  2  0
 20 21  1  0
 21 22  2  0
 22 13  1  0
 21 16  1  0
  1 23  1  0
  1 24  1  0
  1 25  1  0
  3 26  1  0
  3 27  1  0
  3 28  1  0
  4 29  1  0
  4 30  1  0
  4 31  1  0
  5 32  1  0
  5 33  1  0
  6 34  1  0
  9 35  1  0
  9 36  1  0
 10 37  1  0
 14 38  1  0
 15 39  1  0
 17 40  1  0
 18 41  1  0
 19 42  1  0
 20 43  1  0
M  END
>  <smiles>  (32) 
CC(C)(C)CNC(=O)CNC(=O)c1ccc2ccccc2n1

>  <score_type>  (32) 
oracle

>  <origin>  (32) 
autodockgpu

>  <m_score__min__energy>  (32) 
-7.5099999999999998

>  <m_primary>  (32) 
energy

>  <rmsd>  (32) 
3.5887727562801466

>  <m_score__min__rmsd>  (32) 
3.5887727562801466

>  <meeko>  (32) 
{"free_energy": -6.47, "intermolecular_energy": -7.96, "internal_energy": -1.68, "cluster_size": 8, "cluster_id": 1, "rank_in_cluster": 8}

>  <energy>  (32) 
-6.93

>  <cluster_rmsd>  (32) 
0.79

>  <cluster>  (32) 
2

$$$$

     RDKit          3D

 43 44  0  0  0  0  0  0  0  0999 V2000
  145.5240   73.2750  218.8760 C   0  0  0  0  0  0  0  0  0  0  0  0
  144.8090   73.2710  220.1820 C   0  0  0  0  0  0  0  0  0  0  0  0
  145.9120   73.4480  221.2550 C   0  0  0  0  0  0  0  0  0  0  0  0
  144.2670   71.8640  220.4480 C   0  0  0  0  0  0  0  0  0  0  0  0
  143.7830   74.2950  220.4480 C   0  0  0  0  0  0  0  0  0  0  0  0
  142.4640   73.9190  220.7900 N   0  0  0  0  0  0  0  0  0  0  0  0
  141.2700   74.6440  220.7110 C   0  0  0  0  0  0  0  0  0  0  0  0
  141.3040   75.8500  220.2830 O   0  0  0  0  0  0  0  0  0  0  0  0
  139.9270   74.1570  221.0800 C   0  0  0  0  0  0  0  0  0  0  0  0
  139.8120   73.4980  222.3440 N   0  0  0  0  0  0  0  0  0  0  0  0
  140.3050   72.1460  222.4180 C   0  0  0  0  0  0  0  0  0  0  0  0
  140.7990   71.6380  221.3790 O   0  0  0  0  0  0  0  0  0  0  0  0
  140.2200   71.4120  223.6750 C   0  0  0  0  0  0  0  0  0  0  0  0
  139.6310   70.1650  223.6580 C   0  0  0  0  0  0  0  0  0  0  0  0
  139.5230   69.4240  224.8140 C   0  0  0  0  0  0  0  0  0  0  0  0
  140.0080   69.9380  225.9980 C   0  0  0  0  0  0  0  0  0  0  0  0
  139.8840   69.1730  227.1290 C   0  0  0  0  0  0  0  0  0  0  0  0
  140.3720   69.6940  228.3100 C   0  0  0  0  0  0  0  0  0  0  0  0
  140.9570   70.9410  228.3070 C   0  0  0  0  0  0  0  0  0  0  0  0
  141.0880   71.7180  227.1740 C   0  0  0  0  0  0  0  0  0  0  0  0
  140.5980   71.1950  225.9950 C   0  0  0  0  0  0  0  0  0  0  0  0
  140.6870   71.8900  224.8440 N   0  0  0  0  0  0  0  0  0  0  0  0
  146.6097   73.2811  219.0524 H   0  0  0  0  0  0  0  0  0  0  0  0
  145.2503   72.3753  218.3054 H   0  0  0  0  0  0  0  0  0  0  0  0
  145.2402   74.1716  218.3054 H   0  0  0  0  0  0  0  0  0  0  0  0
  145.4638   73.3761  222.2570 H   0  0  0  0  0  0  0  0  0  0  0  0
  146.6701   72.6600  221.1350 H   0  0  0  0  0  0  0  0  0  0  0  0
  146.3855   74.4336  221.1350 H   0  0  0  0  0  0  0  0  0  0  0  0
  144.2020   71.6952  221.5330 H   0  0  0  0  0  0  0  0  0  0  0  0
  143.2667   71.7658  220.0010 H   0  0  0  0  0  0  0  0  0  0  0  0
  144.9429   71.1201  220.0010 H   0  0  0  0  0  0  0  0  0  0  0  0
  144.1602   74.9104  221.2780 H   0  0  0  0  0  0  0  0  0  0  0  0
  143.6557   74.7772  219.4675 H   0  0  0  0  0  0  0  0  0  0  0  0
  142.3470   72.9130  221.1710 H   0  0  0  0  0  0  0  0  0  0  0  0
  139.2491   75.0232  221.0918 H   0  0  0  0  0  0  0  0  0  0  0  0
  139.6784   73.3923  220.3294 H   0  0  0  0  0  0  0  0  0  0  0  0
  139.4150   73.8730  223.2210 H   0  0  0  0  0  0  0  0  0  0  0  0
  139.2438   69.7583  222.7121 H   0  0  0  0  0  0  0  0  0  0  0  0
  139.0533   68.4295  224.7928 H   0  0  0  0  0  0  0  0  0  0  0  0
  139.4125   68.1797  227.0962 H   0  0  0  0  0  0  0  0  0  0  0  0
  140.2946   69.1191  229.2446 H   0  0  0  0  0  0  0  0  0  0  0  0
  141.3402   71.3387  229.2583 H   0  0  0  0  0  0  0  0  0  0  0  0
  141.5619   72.7100  227.2093 H   0  0  0  0  0  0  0  0  0  0  0  0
  1  2  1  0
  2  3  1  0
  2  4  1  0
  2  5  1  0
  5  6  1  0
  6  7  1  0
  7  8  2  0
  7  9  1  0
  9 10  1  0
 10 11  1  0
 11 12  2  0
 11 13  1  0
 13 14  2  0
 14 15  1  0
 15 16  2  0
 16 17  1  0
 17 18  2  0
 18 19  1  0
 19 20  2  0
 20 21  1  0
 21 22  2  0
 22 13  1  0
 21 16  1  0
  1 23  1  0
  1 24  1  0
  1 25  1  0
  3 26  1  0
  3 27  1  0
  3 28  1  0
  4 29  1  0
  4 30  1  0
  4 31  1  0
  5 32  1  0
  5 33  1  0
  6 34  1  0
  9 35  1  0
  9 36  1  0
 10 37  1  0
 14 38  1  0
 15 39  1  0
 17 40  1  0
 18 41  1  0
 19 42  1  0
 20 43  1  0
M  END
>  <smiles>  (33) 
CC(C)(C)CNC(=O)CNC(=O)c1ccc2ccccc2n1

>  <score_type>  (33) 
oracle

>  <origin>  (33) 
autodockgpu

>  <m_score__min__energy>  (33) 
-7.5099999999999998

>  <m_primary>  (33) 
energy

>  <rmsd>  (33) 
3.267142793305777

>  <m_score__min__rmsd>  (33) 
3.267142793305777

>  <meeko>  (33) 
{"free_energy": -7.0, "intermolecular_energy": -8.49, "internal_energy": -1.61, "cluster_size": 41, "cluster_id": 2, "rank_in_cluster": 17}

>  <energy>  (33) 
-6.93

>  <cluster_rmsd>  (33) 
0.84

>  <cluster>  (33) 
2

$$$$

     RDKit          3D

 43 44  0  0  0  0  0  0  0  0999 V2000
  145.7850   73.3510  221.2270 C   0  0  0  0  0  0  0  0  0  0  0  0
  144.5320   73.2520  220.4300 C   0  0  0  0  0  0  0  0  0  0  0  0
  143.8980   71.8970  220.8280 C   0  0  0  0  0  0  0  0  0  0  0  0
  144.8950   73.0620  218.9550 C   0  0  0  0  0  0  0  0  0  0  0  0
  143.4880   74.2800  220.5920 C   0  0  0  0  0  0  0  0  0  0  0  0
  142.1700   73.9160  220.9490 N   0  0  0  0  0  0  0  0  0  0  0  0
  140.9500   74.2380  220.3450 C   0  0  0  0  0  0  0  0  0  0  0  0
  140.9510   74.9870  219.3060 O   0  0  0  0  0  0  0  0  0  0  0  0
  139.6140   73.7950  220.7860 C   0  0  0  0  0  0  0  0  0  0  0  0
  139.5320   73.2140  222.0890 N   0  0  0  0  0  0  0  0  0  0  0  0
  140.2480   71.9800  222.2960 C   0  0  0  0  0  0  0  0  0  0  0  0
  140.8930   71.5000  221.3290 O   0  0  0  0  0  0  0  0  0  0  0  0
  140.2100   71.3300  223.6010 C   0  0  0  0  0  0  0  0  0  0  0  0
  139.6410   70.0760  223.6830 C   0  0  0  0  0  0  0  0  0  0  0  0
  139.5750   69.4130  224.8880 C   0  0  0  0  0  0  0  0  0  0  0  0
  140.0850   70.0110  226.0220 C   0  0  0  0  0  0  0  0  0  0  0  0
  140.0030   69.3220  227.2040 C   0  0  0  0  0  0  0  0  0  0  0  0
  140.5150   69.9270  228.3340 C   0  0  0  0  0  0  0  0  0  0  0  0
  141.0800   71.1800  228.2310 C   0  0  0  0  0  0  0  0  0  0  0  0
  141.1670   71.8810  227.0460 C   0  0  0  0  0  0  0  0  0  0  0  0
  140.6540   71.2730  225.9190 C   0  0  0  0  0  0  0  0  0  0  0  0
  140.7000   71.8920  224.7220 N   0  0  0  0  0  0  0  0  0  0  0  0
  145.5400   73.3316  222.2992 H   0  0  0  0  0  0  0  0  0  0  0  0
  146.4413   72.5019  220.9854 H   0  0  0  0  0  0  0  0  0  0  0  0
  146.2998   74.2926  220.9854 H   0  0  0  0  0  0  0  0  0  0  0  0
  143.8608   71.8176  221.9245 H   0  0  0  0  0  0  0  0  0  0  0  0
  142.8778   71.8359  220.4212 H   0  0  0  0  0  0  0  0  0  0  0  0
  144.5048   71.0747  220.4212 H   0  0  0  0  0  0  0  0  0  0  0  0
  145.8673   72.5531  218.8793 H   0  0  0  0  0  0  0  0  0  0  0  0
  144.1228   72.4524  218.4629 H   0  0  0  0  0  0  0  0  0  0  0  0
  144.9558   74.0439  218.4629 H   0  0  0  0  0  0  0  0  0  0  0  0
  143.8451   74.9715  221.3694 H   0  0  0  0  0  0  0  0  0  0  0  0
  143.3676   74.6721  219.5713 H   0  0  0  0  0  0  0  0  0  0  0  0
  142.0780   73.2880  221.8270 H   0  0  0  0  0  0  0  0  0  0  0  0
  138.9489   74.6710  220.7684 H   0  0  0  0  0  0  0  0  0  0  0  0
  139.3301   72.9912  220.0908 H   0  0  0  0  0  0  0  0  0  0  0  0
  139.0180   73.5700  222.9110 H   0  0  0  0  0  0  0  0  0  0  0  0
  139.2362   69.6012  222.7771 H   0  0  0  0  0  0  0  0  0  0  0  0
  139.1189   68.4137  224.9461 H   0  0  0  0  0  0  0  0  0  0  0  0
  139.5456   68.3227  227.2504 H   0  0  0  0  0  0  0  0  0  0  0  0
  140.4726   69.4146  229.3065 H   0  0  0  0  0  0  0  0  0  0  0  0
  141.4830   71.6459  229.1423 H   0  0  0  0  0  0  0  0  0  0  0  0
  141.6250   72.8801  227.0018 H   0  0  0  0  0  0  0  0  0  0  0  0
  1  2  1  0
  2  3  1  0
  2  4  1  0
  2  5  1  0
  5  6  1  0
  6  7  1  0
  7  8  2  0
  7  9  1  0
  9 10  1  0
 10 11  1  0
 11 12  2  0
 11 13  1  0
 13 14  2  0
 14 15  1  0
 15 16  2  0
 16 17  1  0
 17 18  2  0
 18 19  1  0
 19 20  2  0
 20 21  1  0
 21 22  2  0
 22 13  1  0
 21 16  1  0
  1 23  1  0
  1 24  1  0
  1 25  1  0
  3 26  1  0
  3 27  1  0
  3 28  1  0
  4 29  1  0
  4 30  1  0
  4 31  1  0
  5 32  1  0
  5 33  1  0
  6 34  1  0
  9 35  1  0
  9 36  1  0
 10 37  1  0
 14 38  1  0
 15 39  1  0
 17 40  1  0
 18 41  1  0
 19 42  1  0
 20 43  1  0
M  END
>  <smiles>  (34) 
CC(C)(C)CNC(=O)CNC(=O)c1ccc2ccccc2n1

>  <score_type>  (34) 
oracle

>  <origin>  (34) 
autodockgpu

>  <m_score__min__energy>  (34) 
-7.5099999999999998

>  <m_primary>  (34) 
energy

>  <rmsd>  (34) 
3.3050086508096066

>  <m_score__min__rmsd>  (34) 
3.3050086508096066

>  <meeko>  (34) 
{"free_energy": -6.75, "intermolecular_energy": -8.24, "internal_energy": -1.6, "cluster_size": 41, "cluster_id": 2, "rank_in_cluster": 34}

>  <energy>  (34) 
-6.92

>  <cluster_rmsd>  (34) 
0.78

>  <cluster>  (34) 
2

$$$$

     RDKit          3D

 43 44  0  0  0  0  0  0  0  0999 V2000
  145.9020   73.2990  221.5910 C   0  0  0  0  0  0  0  0  0  0  0  0
  144.8470   73.2220  220.5440 C   0  0  0  0  0  0  0  0  0  0  0  0
  144.1060   71.8880  220.8040 C   0  0  0  0  0  0  0  0  0  0  0  0
  145.5130   73.0080  219.1820 C   0  0  0  0  0  0  0  0  0  0  0  0
  143.8200   74.2780  220.4730 C   0  0  0  0  0  0  0  0  0  0  0  0
  142.4830   74.0050  220.8370 N   0  0  0  0  0  0  0  0  0  0  0  0
  141.3240   74.7690  220.6570 C   0  0  0  0  0  0  0  0  0  0  0  0
  141.4180   75.9140  220.0900 O   0  0  0  0  0  0  0  0  0  0  0  0
  139.9570   74.3910  221.0610 C   0  0  0  0  0  0  0  0  0  0  0  0
  139.8310   73.6640  222.2850 N   0  0  0  0  0  0  0  0  0  0  0  0
  140.2910   72.2980  222.2790 C   0  0  0  0  0  0  0  0  0  0  0  0
  140.7680   71.8380  221.2100 O   0  0  0  0  0  0  0  0  0  0  0  0
  140.1940   71.4950  223.4920 C   0  0  0  0  0  0  0  0  0  0  0  0
  139.5480   70.2790  223.4150 C   0  0  0  0  0  0  0  0  0  0  0  0
  139.4250   69.4770  224.5270 C   0  0  0  0  0  0  0  0  0  0  0  0
  139.9540   69.8970  225.7300 C   0  0  0  0  0  0  0  0  0  0  0  0
  139.8140   69.0740  226.8160 C   0  0  0  0  0  0  0  0  0  0  0  0
  140.3460   69.5010  228.0160 C   0  0  0  0  0  0  0  0  0  0  0  0
  140.9880   70.7180  228.0730 C   0  0  0  0  0  0  0  0  0  0  0  0
  141.1360   71.5540  226.9850 C   0  0  0  0  0  0  0  0  0  0  0  0
  140.6010   71.1240  225.7880 C   0  0  0  0  0  0  0  0  0  0  0  0
  140.7030   71.8820  224.6780 N   0  0  0  0  0  0  0  0  0  0  0  0
  145.4343   73.2649  222.5860 H   0  0  0  0  0  0  0  0  0  0  0  0
  146.5911   72.4488  221.4804 H   0  0  0  0  0  0  0  0  0  0  0  0
  146.4603   74.2403  221.4804 H   0  0  0  0  0  0  0  0  0  0  0  0
  144.0151   71.7243  221.8879 H   0  0  0  0  0  0  0  0  0  0  0  0
  143.1030   71.9320  220.3544 H   0  0  0  0  0  0  0  0  0  0  0  0
  144.6733   71.0598  220.3544 H   0  0  0  0  0  0  0  0  0  0  0  0
  146.5508   72.6745  219.3297 H   0  0  0  0  0  0  0  0  0  0  0  0
  144.9586   72.2428  218.6189 H   0  0  0  0  0  0  0  0  0  0  0  0
  145.5081   73.9530  218.6189 H   0  0  0  0  0  0  0  0  0  0  0  0
  144.1631   75.0952  221.1245 H   0  0  0  0  0  0  0  0  0  0  0  0
  143.7460   74.4780  219.3939 H   0  0  0  0  0  0  0  0  0  0  0  0
  142.3150   73.0570  221.3330 H   0  0  0  0  0  0  0  0  0  0  0  0
  139.3701   75.3161  221.1600 H   0  0  0  0  0  0  0  0  0  0  0  0
  139.6014   73.7054  220.2777 H   0  0  0  0  0  0  0  0  0  0  0  0
  139.4480   73.9970  223.1850 H   0  0  0  0  0  0  0  0  0  0  0  0
  139.1266   69.9465  222.4549 H   0  0  0  0  0  0  0  0  0  0  0  0
  138.9087   68.5082  224.4569 H   0  0  0  0  0  0  0  0  0  0  0  0
  139.2960   68.1070  226.7347 H   0  0  0  0  0  0  0  0  0  0  0  0
  140.2581   68.8760  228.9169 H   0  0  0  0  0  0  0  0  0  0  0  0
  141.4055   71.0412  229.0380 H   0  0  0  0  0  0  0  0  0  0  0  0
  141.6568   72.5193  227.0683 H   0  0  0  0  0  0  0  0  0  0  0  0
  1  2  1  0
  2  3  1  0
  2  4  1  0
  2  5  1  0
  5  6  1  0
  6  7  1  0
  7  8  2  0
  7  9  1  0
  9 10  1  0
 10 11  1  0
 11 12  2  0
 11 13  1  0
 13 14  2  0
 14 15  1  0
 15 16  2  0
 16 17  1  0
 17 18  2  0
 18 19  1  0
 19 20  2  0
 20 21  1  0
 21 22  2  0
 22 13  1  0
 21 16  1  0
  1 23  1  0
  1 24  1  0
  1 25  1  0
  3 26  1  0
  3 27  1  0
  3 28  1  0
  4 29  1  0
  4 30  1  0
  4 31  1  0
  5 32  1  0
  5 33  1  0
  6 34  1  0
  9 35  1  0
  9 36  1  0
 10 37  1  0
 14 38  1  0
 15 39  1  0
 17 40  1  0
 18 41  1  0
 19 42  1  0
 20 43  1  0
M  END
>  <smiles>  (35) 
CC(C)(C)CNC(=O)CNC(=O)c1ccc2ccccc2n1

>  <score_type>  (35) 
oracle

>  <origin>  (35) 
autodockgpu

>  <m_score__min__energy>  (35) 
-7.5099999999999998

>  <m_primary>  (35) 
energy

>  <rmsd>  (35) 
3.4240739339073767

>  <m_score__min__rmsd>  (35) 
3.4240739339073767

>  <meeko>  (35) 
{"free_energy": -6.9, "intermolecular_energy": -8.39, "internal_energy": -1.61, "cluster_size": 41, "cluster_id": 2, "rank_in_cluster": 29}

>  <energy>  (35) 
-6.92

>  <cluster_rmsd>  (35) 
0.79

>  <cluster>  (35) 
2

$$$$

     RDKit          3D

 43 44  0  0  0  0  0  0  0  0999 V2000
  145.5620   73.2570  218.9070 C   0  0  0  0  0  0  0  0  0  0  0  0
  144.8500   73.2560  220.2140 C   0  0  0  0  0  0  0  0  0  0  0  0
  145.9540   73.4410  221.2840 C   0  0  0  0  0  0  0  0  0  0  0  0
  144.3130   71.8480  220.4870 C   0  0  0  0  0  0  0  0  0  0  0  0
  143.8200   74.2770  220.4780 C   0  0  0  0  0  0  0  0  0  0  0  0
  142.5020   73.8980  220.8160 N   0  0  0  0  0  0  0  0  0  0  0  0
  141.3010   74.6070  220.7010 C   0  0  0  0  0  0  0  0  0  0  0  0
  141.3270   75.7990  220.2340 O   0  0  0  0  0  0  0  0  0  0  0  0
  139.9600   74.1180  221.0700 C   0  0  0  0  0  0  0  0  0  0  0  0
  139.8420   73.4720  222.3400 N   0  0  0  0  0  0  0  0  0  0  0  0
  140.2990   72.1070  222.4190 C   0  0  0  0  0  0  0  0  0  0  0  0
  140.7660   71.5780  221.3780 O   0  0  0  0  0  0  0  0  0  0  0  0
  140.2100   71.3860  223.6830 C   0  0  0  0  0  0  0  0  0  0  0  0
  139.6320   70.1330  223.6740 C   0  0  0  0  0  0  0  0  0  0  0  0
  139.5200   69.4040  224.8370 C   0  0  0  0  0  0  0  0  0  0  0  0
  139.9910   69.9340  226.0200 C   0  0  0  0  0  0  0  0  0  0  0  0
  139.8640   69.1810  227.1580 C   0  0  0  0  0  0  0  0  0  0  0  0
  140.3380   69.7180  228.3370 C   0  0  0  0  0  0  0  0  0  0  0  0
  140.9120   70.9700  228.3250 C   0  0  0  0  0  0  0  0  0  0  0  0
  141.0460   71.7360  227.1850 C   0  0  0  0  0  0  0  0  0  0  0  0
  140.5700   71.1960  226.0080 C   0  0  0  0  0  0  0  0  0  0  0  0
  140.6630   71.8800  224.8500 N   0  0  0  0  0  0  0  0  0  0  0  0
  146.6481   73.2585  219.0811 H   0  0  0  0  0  0  0  0  0  0  0  0
  145.2833   72.3585  218.3369 H   0  0  0  0  0  0  0  0  0  0  0  0
  145.2808   74.1548  218.3369 H   0  0  0  0  0  0  0  0  0  0  0  0
  145.5086   73.3664  222.2870 H   0  0  0  0  0  0  0  0  0  0  0  0
  146.7172   72.6582  221.1625 H   0  0  0  0  0  0  0  0  0  0  0  0
  146.4203   74.4298  221.1625 H   0  0  0  0  0  0  0  0  0  0  0  0
  144.2503   71.6836  221.5728 H   0  0  0  0  0  0  0  0  0  0  0  0
  143.3123   71.7446  220.0421 H   0  0  0  0  0  0  0  0  0  0  0  0
  144.9907   71.1045  220.0421 H   0  0  0  0  0  0  0  0  0  0  0  0
  144.1933   74.8930  221.3094 H   0  0  0  0  0  0  0  0  0  0  0  0
  143.6939   74.7589  219.4973 H   0  0  0  0  0  0  0  0  0  0  0  0
  142.3910   72.9030  221.2290 H   0  0  0  0  0  0  0  0  0  0  0  0
  139.2781   74.9812  221.0698 H   0  0  0  0  0  0  0  0  0  0  0  0
  139.7186   73.3437  220.3269 H   0  0  0  0  0  0  0  0  0  0  0  0
  139.4670   73.8650  223.2190 H   0  0  0  0  0  0  0  0  0  0  0  0
  139.2572   69.7126  222.7291 H   0  0  0  0  0  0  0  0  0  0  0  0
  139.0580   68.4058  224.8225 H   0  0  0  0  0  0  0  0  0  0  0  0
  139.4005   68.1837  227.1322 H   0  0  0  0  0  0  0  0  0  0  0  0
  140.2584   69.1522  229.2770 H   0  0  0  0  0  0  0  0  0  0  0  0
  141.2835   71.3814  229.2751 H   0  0  0  0  0  0  0  0  0  0  0  0
  141.5114   72.7323  227.2134 H   0  0  0  0  0  0  0  0  0  0  0  0
  1  2  1  0
  2  3  1  0
  2  4  1  0
  2  5  1  0
  5  6  1  0
  6  7  1  0
  7  8  2  0
  7  9  1  0
  9 10  1  0
 10 11  1  0
 11 12  2  0
 11 13  1  0
 13 14  2  0
 14 15  1  0
 15 16  2  0
 16 17  1  0
 17 18  2  0
 18 19  1  0
 19 20  2  0
 20 21  1  0
 21 22  2  0
 22 13  1  0
 21 16  1  0
  1 23  1  0
  1 24  1  0
  1 25  1  0
  3 26  1  0
  3 27  1  0
  3 28  1  0
  4 29  1  0
  4 30  1  0
  4 31  1  0
  5 32  1  0
  5 33  1  0
  6 34  1  0
  9 35  1  0
  9 36  1  0
 10 37  1  0
 14 38  1  0
 15 39  1  0
 17 40  1  0
 18 41  1  0
 19 42  1  0
 20 43  1  0
M  END
>  <smiles>  (36) 
CC(C)(C)CNC(=O)CNC(=O)c1ccc2ccccc2n1

>  <score_type>  (36) 
oracle

>  <origin>  (36) 
autodockgpu

>  <m_score__min__energy>  (36) 
-7.5099999999999998

>  <m_primary>  (36) 
energy

>  <rmsd>  (36) 
3.2896712968662554

>  <m_score__min__rmsd>  (36) 
3.2896712968662554

>  <meeko>  (36) 
{"free_energy": -6.99, "intermolecular_energy": -8.48, "internal_energy": -1.62, "cluster_size": 41, "cluster_id": 2, "rank_in_cluster": 19}

>  <energy>  (36) 
-6.91

>  <cluster_rmsd>  (36) 
0.8

>  <cluster>  (36) 
2

$$$$

     RDKit          3D

 43 44  0  0  0  0  0  0  0  0999 V2000
  145.9450   73.4020  221.2080 C   0  0  0  0  0  0  0  0  0  0  0  0
  144.7610   73.3590  220.3070 C   0  0  0  0  0  0  0  0  0  0  0  0
  144.1190   71.9690  220.5370 C   0  0  0  0  0  0  0  0  0  0  0  0
  145.2430   73.3000  218.8550 C   0  0  0  0  0  0  0  0  0  0  0  0
  143.6900   74.3590  220.4710 C   0  0  0  0  0  0  0  0  0  0  0  0
  142.3790   73.9600  220.8160 N   0  0  0  0  0  0  0  0  0  0  0  0
  141.1500   74.5770  220.5590 C   0  0  0  0  0  0  0  0  0  0  0  0
  141.1360   75.6900  219.9270 O   0  0  0  0  0  0  0  0  0  0  0  0
  139.8210   74.0710  220.9500 C   0  0  0  0  0  0  0  0  0  0  0  0
  139.7260   73.4490  222.2330 N   0  0  0  0  0  0  0  0  0  0  0  0
  140.2580   72.1140  222.3490 C   0  0  0  0  0  0  0  0  0  0  0  0
  140.7660   71.5890  221.3250 O   0  0  0  0  0  0  0  0  0  0  0  0
  140.1960   71.4180  223.6280 C   0  0  0  0  0  0  0  0  0  0  0  0
  139.6210   70.1640  223.6560 C   0  0  0  0  0  0  0  0  0  0  0  0
  139.5340   69.4570  224.8340 C   0  0  0  0  0  0  0  0  0  0  0  0
  140.0270   70.0120  225.9970 C   0  0  0  0  0  0  0  0  0  0  0  0
  139.9240   69.2810  227.1520 C   0  0  0  0  0  0  0  0  0  0  0  0
  140.4200   69.8430  228.3110 C   0  0  0  0  0  0  0  0  0  0  0  0
  140.9900   71.0960  228.2630 C   0  0  0  0  0  0  0  0  0  0  0  0
  141.0990   71.8390  227.1060 C   0  0  0  0  0  0  0  0  0  0  0  0
  140.6020   71.2750  225.9490 C   0  0  0  0  0  0  0  0  0  0  0  0
  140.6700   71.9370  224.7760 N   0  0  0  0  0  0  0  0  0  0  0  0
  145.6093   73.3898  222.2554 H   0  0  0  0  0  0  0  0  0  0  0  0
  146.5830   72.5264  221.0172 H   0  0  0  0  0  0  0  0  0  0  0  0
  146.5178   74.3215  221.0172 H   0  0  0  0  0  0  0  0  0  0  0  0
  144.0316   71.7797  221.6171 H   0  0  0  0  0  0  0  0  0  0  0  0
  143.1193   71.9465  220.0787 H   0  0  0  0  0  0  0  0  0  0  0  0
  144.7500   71.1933  220.0787 H   0  0  0  0  0  0  0  0  0  0  0  0
  146.3347   73.1664  218.8362 H   0  0  0  0  0  0  0  0  0  0  0  0
  144.7612   72.4541  218.3428 H   0  0  0  0  0  0  0  0  0  0  0  0
  144.9794   74.2371  218.3428 H   0  0  0  0  0  0  0  0  0  0  0  0
  144.0247   75.0524  221.2566 H   0  0  0  0  0  0  0  0  0  0  0  0
  143.5662   74.7560  219.4526 H   0  0  0  0  0  0  0  0  0  0  0  0
  142.3020   73.0290  221.3640 H   0  0  0  0  0  0  0  0  0  0  0  0
  139.1234   74.9214  220.9388 H   0  0  0  0  0  0  0  0  0  0  0  0
  139.5875   73.2777  220.2247 H   0  0  0  0  0  0  0  0  0  0  0  0
  139.3200   73.8400  223.0990 H   0  0  0  0  0  0  0  0  0  0  0  0
  139.2280   69.7246  222.7273 H   0  0  0  0  0  0  0  0  0  0  0  0
  139.0750   68.4574  224.8480 H   0  0  0  0  0  0  0  0  0  0  0  0
  139.4627   68.2824  227.1551 H   0  0  0  0  0  0  0  0  0  0  0  0
  140.3607   69.2958  229.2634 H   0  0  0  0  0  0  0  0  0  0  0  0
  141.3791   71.5271  229.1972 H   0  0  0  0  0  0  0  0  0  0  0  0
  141.5617   72.8370  227.1057 H   0  0  0  0  0  0  0  0  0  0  0  0
  1  2  1  0
  2  3  1  0
  2  4  1  0
  2  5  1  0
  5  6  1  0
  6  7  1  0
  7  8  2  0
  7  9  1  0
  9 10  1  0
 10 11  1  0
 11 12  2  0
 11 13  1  0
 13 14  2  0
 14 15  1  0
 15 16  2  0
 16 17  1  0
 17 18  2  0
 18 19  1  0
 19 20  2  0
 20 21  1  0
 21 22  2  0
 22 13  1  0
 21 16  1  0
  1 23  1  0
  1 24  1  0
  1 25  1  0
  3 26  1  0
  3 27  1  0
  3 28  1  0
  4 29  1  0
  4 30  1  0
  4 31  1  0
  5 32  1  0
  5 33  1  0
  6 34  1  0
  9 35  1  0
  9 36  1  0
 10 37  1  0
 14 38  1  0
 15 39  1  0
 17 40  1  0
 18 41  1  0
 19 42  1  0
 20 43  1  0
M  END
>  <smiles>  (37) 
CC(C)(C)CNC(=O)CNC(=O)c1ccc2ccccc2n1

>  <score_type>  (37) 
oracle

>  <origin>  (37) 
autodockgpu

>  <m_score__min__energy>  (37) 
-7.5099999999999998

>  <m_primary>  (37) 
energy

>  <rmsd>  (37) 
3.337970529638861

>  <m_score__min__rmsd>  (37) 
3.337970529638861

>  <meeko>  (37) 
{"free_energy": -7.0, "intermolecular_energy": -8.49, "internal_energy": -1.62, "cluster_size": 41, "cluster_id": 2, "rank_in_cluster": 16}

>  <energy>  (37) 
-6.9

>  <cluster_rmsd>  (37) 
0.83

>  <cluster>  (37) 
2

$$$$

     RDKit          3D

 43 44  0  0  0  0  0  0  0  0999 V2000
  145.2140   73.2990  218.6420 C   0  0  0  0  0  0  0  0  0  0  0  0
  144.7370   73.2810  220.0520 C   0  0  0  0  0  0  0  0  0  0  0  0
  146.0030   73.4890  220.9180 C   0  0  0  0  0  0  0  0  0  0  0  0
  144.2860   71.8610  220.4060 C   0  0  0  0  0  0  0  0  0  0  0  0
  143.7450   74.2790  220.4930 C   0  0  0  0  0  0  0  0  0  0  0  0
  142.4300   73.8850  220.8300 N   0  0  0  0  0  0  0  0  0  0  0  0
  141.2100   74.5360  220.6150 C   0  0  0  0  0  0  0  0  0  0  0  0
  141.2110   75.6790  220.0380 O   0  0  0  0  0  0  0  0  0  0  0  0
  139.8760   74.0350  220.9920 C   0  0  0  0  0  0  0  0  0  0  0  0
  139.7660   73.4130  222.2750 N   0  0  0  0  0  0  0  0  0  0  0  0
  140.2880   72.0750  222.3930 C   0  0  0  0  0  0  0  0  0  0  0  0
  140.8000   71.5460  221.3730 O   0  0  0  0  0  0  0  0  0  0  0  0
  140.2100   71.3770  223.6710 C   0  0  0  0  0  0  0  0  0  0  0  0
  139.6190   70.1310  223.6950 C   0  0  0  0  0  0  0  0  0  0  0  0
  139.5170   69.4250  224.8720 C   0  0  0  0  0  0  0  0  0  0  0  0
  140.0120   69.9710  226.0380 C   0  0  0  0  0  0  0  0  0  0  0  0
  139.8940   69.2410  227.1910 C   0  0  0  0  0  0  0  0  0  0  0  0
  140.3920   69.7940  228.3530 C   0  0  0  0  0  0  0  0  0  0  0  0
  140.9790   71.0400  228.3100 C   0  0  0  0  0  0  0  0  0  0  0  0
  141.1040   71.7830  227.1540 C   0  0  0  0  0  0  0  0  0  0  0  0
  140.6040   71.2260  225.9940 C   0  0  0  0  0  0  0  0  0  0  0  0
  140.6860   71.8880  224.8220 N   0  0  0  0  0  0  0  0  0  0  0  0
  146.3131   73.3405  218.6273 H   0  0  0  0  0  0  0  0  0  0  0  0
  144.8746   72.3874  218.1284 H   0  0  0  0  0  0  0  0  0  0  0  0
  144.8068   74.1824  218.1284 H   0  0  0  0  0  0  0  0  0  0  0  0
  145.7304   73.4442  221.9827 H   0  0  0  0  0  0  0  0  0  0  0  0
  146.7348   72.6990  220.6933 H   0  0  0  0  0  0  0  0  0  0  0  0
  146.4436   74.4716  220.6933 H   0  0  0  0  0  0  0  0  0  0  0  0
  144.2506   71.7495  221.4998 H   0  0  0  0  0  0  0  0  0  0  0  0
  143.2857   71.6786  219.9863 H   0  0  0  0  0  0  0  0  0  0  0  0
  144.9977   71.1349  219.9863 H   0  0  0  0  0  0  0  0  0  0  0  0
  144.1652   74.7681  221.3841 H   0  0  0  0  0  0  0  0  0  0  0  0
  143.5955   74.8928  219.5925 H   0  0  0  0  0  0  0  0  0  0  0  0
  142.3410   72.9300  221.3320 H   0  0  0  0  0  0  0  0  0  0  0  0
  139.1815   74.8878  220.9737 H   0  0  0  0  0  0  0  0  0  0  0  0
  139.6468   73.2426  220.2643 H   0  0  0  0  0  0  0  0  0  0  0  0
  139.3560   73.8060  223.1370 H   0  0  0  0  0  0  0  0  0  0  0  0
  139.2252   69.6972  222.7640 H   0  0  0  0  0  0  0  0  0  0  0  0
  139.0439   68.4320  224.8828 H   0  0  0  0  0  0  0  0  0  0  0  0
  139.4190   68.2489  227.1906 H   0  0  0  0  0  0  0  0  0  0  0  0
  140.3211   69.2458  229.3040 H   0  0  0  0  0  0  0  0  0  0  0  0
  141.3686   71.4648  229.2469 H   0  0  0  0  0  0  0  0  0  0  0  0
  141.5806   72.7744  227.1566 H   0  0  0  0  0  0  0  0  0  0  0  0
  1  2  1  0
  2  3  1  0
  2  4  1  0
  2  5  1  0
  5  6  1  0
  6  7  1  0
  7  8  2  0
  7  9  1  0
  9 10  1  0
 10 11  1  0
 11 12  2  0
 11 13  1  0
 13 14  2  0
 14 15  1  0
 15 16  2  0
 16 17  1  0
 17 18  2  0
 18 19  1  0
 19 20  2  0
 20 21  1  0
 21 22  2  0
 22 13  1  0
 21 16  1  0
  1 23  1  0
  1 24  1  0
  1 25  1  0
  3 26  1  0
  3 27  1  0
  3 28  1  0
  4 29  1  0
  4 30  1  0
  4 31  1  0
  5 32  1  0
  5 33  1  0
  6 34  1  0
  9 35  1  0
  9 36  1  0
 10 37  1  0
 14 38  1  0
 15 39  1  0
 17 40  1  0
 18 41  1  0
 19 42  1  0
 20 43  1  0
M  END
>  <smiles>  (38) 
CC(C)(C)CNC(=O)CNC(=O)c1ccc2ccccc2n1

>  <score_type>  (38) 
oracle

>  <origin>  (38) 
autodockgpu

>  <m_score__min__energy>  (38) 
-7.5099999999999998

>  <m_primary>  (38) 
energy

>  <rmsd>  (38) 
3.1979018359648754

>  <m_score__min__rmsd>  (38) 
3.1979018359648754

>  <meeko>  (38) 
{"free_energy": -6.93, "intermolecular_energy": -8.42, "internal_energy": -1.62, "cluster_size": 41, "cluster_id": 2, "rank_in_cluster": 24}

>  <energy>  (38) 
-6.86

>  <cluster_rmsd>  (38) 
0.74

>  <cluster>  (38) 
2

$$$$

     RDKit          3D

 43 44  0  0  0  0  0  0  0  0999 V2000
  145.2200   73.0970  218.8700 C   0  0  0  0  0  0  0  0  0  0  0  0
  144.5930   73.1640  220.2190 C   0  0  0  0  0  0  0  0  0  0  0  0
  145.7670   73.3630  221.2080 C   0  0  0  0  0  0  0  0  0  0  0  0
  144.0440   71.7810  220.5810 C   0  0  0  0  0  0  0  0  0  0  0  0
  143.6050   74.2200  220.5050 C   0  0  0  0  0  0  0  0  0  0  0  0
  142.2890   73.8850  220.8980 N   0  0  0  0  0  0  0  0  0  0  0  0
  141.0610   74.4050  220.4740 C   0  0  0  0  0  0  0  0  0  0  0  0
  141.0520   75.3440  219.6030 O   0  0  0  0  0  0  0  0  0  0  0  0
  139.7270   73.9780  220.9350 C   0  0  0  0  0  0  0  0  0  0  0  0
  139.6630   73.3630  222.2240 N   0  0  0  0  0  0  0  0  0  0  0  0
  140.2350   72.0460  222.3430 C   0  0  0  0  0  0  0  0  0  0  0  0
  140.7470   71.5270  221.3180 O   0  0  0  0  0  0  0  0  0  0  0  0
  140.2050   71.3570  223.6280 C   0  0  0  0  0  0  0  0  0  0  0  0
  139.6590   70.0910  223.6730 C   0  0  0  0  0  0  0  0  0  0  0  0
  139.6030   69.3920  224.8570 C   0  0  0  0  0  0  0  0  0  0  0  0
  140.1000   69.9650  226.0090 C   0  0  0  0  0  0  0  0  0  0  0  0
  140.0290   69.2410  227.1700 C   0  0  0  0  0  0  0  0  0  0  0  0
  140.5290   69.8210  228.3180 C   0  0  0  0  0  0  0  0  0  0  0  0
  141.0710   71.0860  228.2540 C   0  0  0  0  0  0  0  0  0  0  0  0
  141.1480   71.8230  227.0900 C   0  0  0  0  0  0  0  0  0  0  0  0
  140.6470   71.2400  225.9440 C   0  0  0  0  0  0  0  0  0  0  0  0
  140.6840   71.8940  224.7660 N   0  0  0  0  0  0  0  0  0  0  0  0
  146.3086   72.9807  218.9770 H   0  0  0  0  0  0  0  0  0  0  0  0
  144.8119   72.2374  218.3182 H   0  0  0  0  0  0  0  0  0  0  0  0
  145.0027   74.0235  218.3182 H   0  0  0  0  0  0  0  0  0  0  0  0
  145.3918   73.2994  222.2401 H   0  0  0  0  0  0  0  0  0  0  0  0
  146.5219   72.5800  221.0434 H   0  0  0  0  0  0  0  0  0  0  0  0
  146.2217   74.3510  221.0434 H   0  0  0  0  0  0  0  0  0  0  0  0
  144.0030   71.6777  221.6754 H   0  0  0  0  0  0  0  0  0  0  0  0
  143.0326   71.6673  220.1638 H   0  0  0  0  0  0  0  0  0  0  0  0
  144.7021   71.0046  220.1638 H   0  0  0  0  0  0  0  0  0  0  0  0
  144.0275   74.8363  221.3122 H   0  0  0  0  0  0  0  0  0  0  0  0
  143.4567   74.6921  219.5226 H   0  0  0  0  0  0  0  0  0  0  0  0
  142.2060   73.1030  221.6420 H   0  0  0  0  0  0  0  0  0  0  0  0
  139.0806   74.8678  220.9570 H   0  0  0  0  0  0  0  0  0  0  0  0
  139.4098   73.1995  220.2255 H   0  0  0  0  0  0  0  0  0  0  0  0
  139.2540   73.7480  223.0910 H   0  0  0  0  0  0  0  0  0  0  0  0
  139.2643   69.6355  222.7528 H   0  0  0  0  0  0  0  0  0  0  0  0
  139.1649   68.3834  224.8845 H   0  0  0  0  0  0  0  0  0  0  0  0
  139.5890   68.2330  227.1865 H   0  0  0  0  0  0  0  0  0  0  0  0
  140.4952   69.2788  229.2745 H   0  0  0  0  0  0  0  0  0  0  0  0
  141.4631   71.5321  229.1799 H   0  0  0  0  0  0  0  0  0  0  0  0
  141.5892   72.8306  227.0762 H   0  0  0  0  0  0  0  0  0  0  0  0
  1  2  1  0
  2  3  1  0
  2  4  1  0
  2  5  1  0
  5  6  1  0
  6  7  1  0
  7  8  2  0
  7  9  1  0
  9 10  1  0
 10 11  1  0
 11 12  2  0
 11 13  1  0
 13 14  2  0
 14 15  1  0
 15 16  2  0
 16 17  1  0
 17 18  2  0
 18 19  1  0
 19 20  2  0
 20 21  1  0
 21 22  2  0
 22 13  1  0
 21 16  1  0
  1 23  1  0
  1 24  1  0
  1 25  1  0
  3 26  1  0
  3 27  1  0
  3 28  1  0
  4 29  1  0
  4 30  1  0
  4 31  1  0
  5 32  1  0
  5 33  1  0
  6 34  1  0
  9 35  1  0
  9 36  1  0
 10 37  1  0
 14 38  1  0
 15 39  1  0
 17 40  1  0
 18 41  1  0
 19 42  1  0
 20 43  1  0
M  END
>  <smiles>  (39) 
CC(C)(C)CNC(=O)CNC(=O)c1ccc2ccccc2n1

>  <score_type>  (39) 
oracle

>  <origin>  (39) 
autodockgpu

>  <m_score__min__energy>  (39) 
-7.5099999999999998

>  <m_primary>  (39) 
energy

>  <rmsd>  (39) 
3.202676466851533

>  <m_score__min__rmsd>  (39) 
3.202676466851533

>  <meeko>  (39) 
{"free_energy": -6.86, "intermolecular_energy": -8.35, "internal_energy": -1.65, "cluster_size": 41, "cluster_id": 2, "rank_in_cluster": 31}

>  <energy>  (39) 
-6.86

>  <cluster_rmsd>  (39) 
0.73

>  <cluster>  (39) 
2

$$$$

     RDKit          3D

 43 44  0  0  0  0  0  0  0  0999 V2000
  145.6140   73.1700  218.7930 C   0  0  0  0  0  0  0  0  0  0  0  0
  144.8490   73.3120  220.0610 C   0  0  0  0  0  0  0  0  0  0  0  0
  145.9000   73.6800  221.1370 C   0  0  0  0  0  0  0  0  0  0  0  0
  144.3500   71.9320  220.4990 C   0  0  0  0  0  0  0  0  0  0  0  0
  143.7740   74.3180  220.1480 C   0  0  0  0  0  0  0  0  0  0  0  0
  142.4470   73.9290  220.4390 N   0  0  0  0  0  0  0  0  0  0  0  0
  141.3410   74.7010  220.8120 C   0  0  0  0  0  0  0  0  0  0  0  0
  141.4840   75.9670  220.9410 O   0  0  0  0  0  0  0  0  0  0  0  0
  139.9800   74.2020  221.0820 C   0  0  0  0  0  0  0  0  0  0  0  0
  139.7860   73.5130  222.3200 N   0  0  0  0  0  0  0  0  0  0  0  0
  140.3860   72.2070  222.4370 C   0  0  0  0  0  0  0  0  0  0  0  0
  141.0330   71.7630  221.4540 O   0  0  0  0  0  0  0  0  0  0  0  0
  140.2300   71.4460  223.6700 C   0  0  0  0  0  0  0  0  0  0  0  0
  139.5920   70.2250  223.6020 C   0  0  0  0  0  0  0  0  0  0  0  0
  139.4150   69.4610  224.7340 C   0  0  0  0  0  0  0  0  0  0  0  0
  139.8820   69.9240  225.9460 C   0  0  0  0  0  0  0  0  0  0  0  0
  139.6890   69.1380  227.0520 C   0  0  0  0  0  0  0  0  0  0  0  0
  140.1590   69.6080  228.2610 C   0  0  0  0  0  0  0  0  0  0  0  0
  140.7940   70.8300  228.3100 C   0  0  0  0  0  0  0  0  0  0  0  0
  140.9930   71.6290  227.2020 C   0  0  0  0  0  0  0  0  0  0  0  0
  140.5210   71.1560  225.9950 C   0  0  0  0  0  0  0  0  0  0  0  0
  140.6770   71.8760  224.8660 N   0  0  0  0  0  0  0  0  0  0  0  0
  146.6716   72.9737  219.0229 H   0  0  0  0  0  0  0  0  0  0  0  0
  145.2041   72.3326  218.2093 H   0  0  0  0  0  0  0  0  0  0  0  0
  145.5319   74.0987  218.2093 H   0  0  0  0  0  0  0  0  0  0  0  0
  145.4687   73.5290  222.1376 H   0  0  0  0  0  0  0  0  0  0  0  0
  146.7858   73.0385  221.0189 H   0  0  0  0  0  0  0  0  0  0  0  0
  146.1921   74.7339  221.0189 H   0  0  0  0  0  0  0  0  0  0  0  0
  144.3314   71.8805  221.5976 H   0  0  0  0  0  0  0  0  0  0  0  0
  143.3355   71.7675  220.1070 H   0  0  0  0  0  0  0  0  0  0  0  0
  145.0247   71.1567  220.1070 H   0  0  0  0  0  0  0  0  0  0  0  0
  144.0722   75.0303  220.9314 H   0  0  0  0  0  0  0  0  0  0  0  0
  143.7008   74.6904  219.1155 H   0  0  0  0  0  0  0  0  0  0  0  0
  142.2420   72.8680  220.3630 H   0  0  0  0  0  0  0  0  0  0  0  0
  139.2991   75.0658  221.0702 H   0  0  0  0  0  0  0  0  0  0  0  0
  139.7839   73.4543  220.2994 H   0  0  0  0  0  0  0  0  0  0  0  0
  139.2650   73.8360  223.1510 H   0  0  0  0  0  0  0  0  0  0  0  0
  139.2208   69.8578  222.6338 H   0  0  0  0  0  0  0  0  0  0  0  0
  138.9048   68.4885  224.6718 H   0  0  0  0  0  0  0  0  0  0  0  0
  139.1775   68.1669  226.9784 H   0  0  0  0  0  0  0  0  0  0  0  0
  140.0281   69.0131  229.1769 H   0  0  0  0  0  0  0  0  0  0  0  0
  141.1617   71.1876  229.2831 H   0  0  0  0  0  0  0  0  0  0  0  0
  141.5051   72.5996  227.2781 H   0  0  0  0  0  0  0  0  0  0  0  0
  1  2  1  0
  2  3  1  0
  2  4  1  0
  2  5  1  0
  5  6  1  0
  6  7  1  0
  7  8  2  0
  7  9  1  0
  9 10  1  0
 10 11  1  0
 11 12  2  0
 11 13  1  0
 13 14  2  0
 14 15  1  0
 15 16  2  0
 16 17  1  0
 17 18  2  0
 18 19  1  0
 19 20  2  0
 20 21  1  0
 21 22  2  0
 22 13  1  0
 21 16  1  0
  1 23  1  0
  1 24  1  0
  1 25  1  0
  3 26  1  0
  3 27  1  0
  3 28  1  0
  4 29  1  0
  4 30  1  0
  4 31  1  0
  5 32  1  0
  5 33  1  0
  6 34  1  0
  9 35  1  0
  9 36  1  0
 10 37  1  0
 14 38  1  0
 15 39  1  0
 17 40  1  0
 18 41  1  0
 19 42  1  0
 20 43  1  0
M  END
>  <smiles>  (40) 
CC(C)(C)CNC(=O)CNC(=O)c1ccc2ccccc2n1

>  <score_type>  (40) 
oracle

>  <origin>  (40) 
autodockgpu

>  <m_score__min__energy>  (40) 
-7.5099999999999998

>  <m_primary>  (40) 
energy

>  <rmsd>  (40) 
3.264493075455274

>  <m_score__min__rmsd>  (40) 
3.264493075455274

>  <meeko>  (40) 
{"free_energy": -7.03, "intermolecular_energy": -8.52, "internal_energy": -1.57, "cluster_size": 41, "cluster_id": 2, "rank_in_cluster": 10}

>  <energy>  (40) 
-6.85

>  <cluster_rmsd>  (40) 
0.72

>  <cluster>  (40) 
2

$$$$

     RDKit          3D

 43 44  0  0  0  0  0  0  0  0999 V2000
  145.8510   73.3460  221.2320 C   0  0  0  0  0  0  0  0  0  0  0  0
  144.6120   73.2410  220.4120 C   0  0  0  0  0  0  0  0  0  0  0  0
  143.9700   71.8900  220.8080 C   0  0  0  0  0  0  0  0  0  0  0  0
  145.0020   73.0420  218.9450 C   0  0  0  0  0  0  0  0  0  0  0  0
  143.5660   74.2710  220.5490 C   0  0  0  0  0  0  0  0  0  0  0  0
  142.2530   73.9160  220.9290 N   0  0  0  0  0  0  0  0  0  0  0  0
  141.0190   74.3810  220.4590 C   0  0  0  0  0  0  0  0  0  0  0  0
  141.0030   75.2820  219.5490 O   0  0  0  0  0  0  0  0  0  0  0  0
  139.6880   73.9350  220.9110 C   0  0  0  0  0  0  0  0  0  0  0  0
  139.6220   73.3330  222.2060 N   0  0  0  0  0  0  0  0  0  0  0  0
  140.2380   72.0380  222.3520 C   0  0  0  0  0  0  0  0  0  0  0  0
  140.7880   71.5270  221.3430 O   0  0  0  0  0  0  0  0  0  0  0  0
  140.2100   71.3630  223.6440 C   0  0  0  0  0  0  0  0  0  0  0  0
  139.6700   70.0950  223.7010 C   0  0  0  0  0  0  0  0  0  0  0  0
  139.6160   69.4080  224.8930 C   0  0  0  0  0  0  0  0  0  0  0  0
  140.1060   69.9970  226.0400 C   0  0  0  0  0  0  0  0  0  0  0  0
  140.0360   69.2850  227.2080 C   0  0  0  0  0  0  0  0  0  0  0  0
  140.5290   69.8810  228.3510 C   0  0  0  0  0  0  0  0  0  0  0  0
  141.0640   71.1480  228.2750 C   0  0  0  0  0  0  0  0  0  0  0  0
  141.1400   71.8730  227.1030 C   0  0  0  0  0  0  0  0  0  0  0  0
  140.6450   71.2740  225.9620 C   0  0  0  0  0  0  0  0  0  0  0  0
  140.6820   71.9160  224.7770 N   0  0  0  0  0  0  0  0  0  0  0  0
  145.5871   73.3236  222.2996 H   0  0  0  0  0  0  0  0  0  0  0  0
  146.5163   72.5010  221.0010 H   0  0  0  0  0  0  0  0  0  0  0  0
  146.3646   74.2909  221.0010 H   0  0  0  0  0  0  0  0  0  0  0  0
  143.9318   71.8096  221.9044 H   0  0  0  0  0  0  0  0  0  0  0  0
  142.9497   71.8355  220.4006 H   0  0  0  0  0  0  0  0  0  0  0  0
  144.5721   71.0645  220.4006 H   0  0  0  0  0  0  0  0  0  0  0  0
  145.9806   72.5427  218.8903 H   0  0  0  0  0  0  0  0  0  0  0  0
  144.2446   72.4202  218.4454 H   0  0  0  0  0  0  0  0  0  0  0  0
  145.0610   74.0202  218.4454 H   0  0  0  0  0  0  0  0  0  0  0  0
  143.9277   74.9889  221.2999 H   0  0  0  0  0  0  0  0  0  0  0  0
  143.4356   74.6284  219.5169 H   0  0  0  0  0  0  0  0  0  0  0  0
  142.1760   73.1630  221.7040 H   0  0  0  0  0  0  0  0  0  0  0  0
  139.0256   74.8131  220.9167 H   0  0  0  0  0  0  0  0  0  0  0  0
  139.3920   73.1434  220.2069 H   0  0  0  0  0  0  0  0  0  0  0  0
  139.1830   73.7130  223.0610 H   0  0  0  0  0  0  0  0  0  0  0  0
  139.2786   69.6281  222.7851 H   0  0  0  0  0  0  0  0  0  0  0  0
  139.1851   68.3966  224.9304 H   0  0  0  0  0  0  0  0  0  0  0  0
  139.6024   68.2744  227.2341 H   0  0  0  0  0  0  0  0  0  0  0  0
  140.4950   69.3493  229.3134 H   0  0  0  0  0  0  0  0  0  0  0  0
  141.4511   71.6062  229.1971 H   0  0  0  0  0  0  0  0  0  0  0  0
  141.5755   72.8828  227.0792 H   0  0  0  0  0  0  0  0  0  0  0  0
  1  2  1  0
  2  3  1  0
  2  4  1  0
  2  5  1  0
  5  6  1  0
  6  7  1  0
  7  8  2  0
  7  9  1  0
  9 10  1  0
 10 11  1  0
 11 12  2  0
 11 13  1  0
 13 14  2  0
 14 15  1  0
 15 16  2  0
 16 17  1  0
 17 18  2  0
 18 19  1  0
 19 20  2  0
 20 21  1  0
 21 22  2  0
 22 13  1  0
 21 16  1  0
  1 23  1  0
  1 24  1  0
  1 25  1  0
  3 26  1  0
  3 27  1  0
  3 28  1  0
  4 29  1  0
  4 30  1  0
  4 31  1  0
  5 32  1  0
  5 33  1  0
  6 34  1  0
  9 35  1  0
  9 36  1  0
 10 37  1  0
 14 38  1  0
 15 39  1  0
 17 40  1  0
 18 41  1  0
 19 42  1  0
 20 43  1  0
M  END
>  <smiles>  (41) 
CC(C)(C)CNC(=O)CNC(=O)c1ccc2ccccc2n1

>  <score_type>  (41) 
oracle

>  <origin>  (41) 
autodockgpu

>  <m_score__min__energy>  (41) 
-7.5099999999999998

>  <m_primary>  (41) 
energy

>  <rmsd>  (41) 
3.3275074083736254

>  <m_score__min__rmsd>  (41) 
3.3275074083736254

>  <meeko>  (41) 
{"free_energy": -6.85, "intermolecular_energy": -8.34, "internal_energy": -1.64, "cluster_size": 41, "cluster_id": 2, "rank_in_cluster": 32}

>  <energy>  (41) 
-6.85

>  <cluster_rmsd>  (41) 
0.93

>  <cluster>  (41) 
2

$$$$

     RDKit          3D

 43 44  0  0  0  0  0  0  0  0999 V2000
  139.2980   79.3920  223.3700 C   0  0  0  0  0  0  0  0  0  0  0  0
  140.5980   79.0970  222.7090 C   0  0  0  0  0  0  0  0  0  0  0  0
  141.6440   79.9610  223.4550 C   0  0  0  0  0  0  0  0  0  0  0  0
  140.5830   79.6860  221.2950 C   0  0  0  0  0  0  0  0  0  0  0  0
  141.1090   77.7140  222.7020 C   0  0  0  0  0  0  0  0  0  0  0  0
  140.2500   76.6320  222.4040 N   0  0  0  0  0  0  0  0  0  0  0  0
  140.4050   75.5810  221.4930 C   0  0  0  0  0  0  0  0  0  0  0  0
  141.4630   75.5350  220.7730 O   0  0  0  0  0  0  0  0  0  0  0  0
  139.4520   74.4800  221.2610 C   0  0  0  0  0  0  0  0  0  0  0  0
  139.2630   73.5600  222.3380 N   0  0  0  0  0  0  0  0  0  0  0  0
  140.3350   72.6300  222.5930 C   0  0  0  0  0  0  0  0  0  0  0  0
  141.3560   72.6880  221.8600 O   0  0  0  0  0  0  0  0  0  0  0  0
  140.2130   71.6630  223.6770 C   0  0  0  0  0  0  0  0  0  0  0  0
  139.5830   70.4650  223.4080 C   0  0  0  0  0  0  0  0  0  0  0  0
  139.4380   69.5120  224.3920 C   0  0  0  0  0  0  0  0  0  0  0  0
  139.9270   69.7610  225.6570 C   0  0  0  0  0  0  0  0  0  0  0  0
  139.7650   68.7910  226.6110 C   0  0  0  0  0  0  0  0  0  0  0  0
  140.2580   69.0470  227.8740 C   0  0  0  0  0  0  0  0  0  0  0  0
  140.8840   70.2490  228.1240 C   0  0  0  0  0  0  0  0  0  0  0  0
  141.0520   71.2320  227.1700 C   0  0  0  0  0  0  0  0  0  0  0  0
  140.5580   70.9720  225.9080 C   0  0  0  0  0  0  0  0  0  0  0  0
  140.6820   71.8810  224.9200 N   0  0  0  0  0  0  0  0  0  0  0  0
  139.4269   79.3627  224.4620 H   0  0  0  0  0  0  0  0  0  0  0  0
  138.9518   80.3915  223.0683 H   0  0  0  0  0  0  0  0  0  0  0  0
  138.5542   78.6398  223.0683 H   0  0  0  0  0  0  0  0  0  0  0  0
  141.5064   79.8474  224.5404 H   0  0  0  0  0  0  0  0  0  0  0  0
  142.6563   79.6323  223.1773 H   0  0  0  0  0  0  0  0  0  0  0  0
  141.5124   81.0172  223.1773 H   0  0  0  0  0  0  0  0  0  0  0  0
  140.5550   80.7840  221.3554 H   0  0  0  0  0  0  0  0  0  0  0  0
  141.4894   79.3714  220.7571 H   0  0  0  0  0  0  0  0  0  0  0  0
  139.6937   79.3256  220.7571 H   0  0  0  0  0  0  0  0  0  0  0  0
  141.9228   77.6828  221.9626 H   0  0  0  0  0  0  0  0  0  0  0  0
  141.3668   77.5409  223.7573 H   0  0  0  0  0  0  0  0  0  0  0  0
  139.3240   76.6000  222.9630 H   0  0  0  0  0  0  0  0  0  0  0  0
  138.4744   74.9280  221.0293 H   0  0  0  0  0  0  0  0  0  0  0  0
  139.8886   73.8856  220.4449 H   0  0  0  0  0  0  0  0  0  0  0  0
  138.4460   73.4760  222.9650 H   0  0  0  0  0  0  0  0  0  0  0  0
  139.1929   70.2693  222.3983 H   0  0  0  0  0  0  0  0  0  0  0  0
  138.9356   68.5589  224.1702 H   0  0  0  0  0  0  0  0  0  0  0  0
  139.2599   67.8419  226.3783 H   0  0  0  0  0  0  0  0  0  0  0  0
  140.1524   68.2990  228.6735 H   0  0  0  0  0  0  0  0  0  0  0  0
  141.2701   70.4347  229.1372 H   0  0  0  0  0  0  0  0  0  0  0  0
  141.5572   72.1804  227.4051 H   0  0  0  0  0  0  0  0  0  0  0  0
  1  2  1  0
  2  3  1  0
  2  4  1  0
  2  5  1  0
  5  6  1  0
  6  7  1  0
  7  8  2  0
  7  9  1  0
  9 10  1  0
 10 11  1  0
 11 12  2  0
 11 13  1  0
 13 14  2  0
 14 15  1  0
 15 16  2  0
 16 17  1  0
 17 18  2  0
 18 19  1  0
 19 20  2  0
 20 21  1  0
 21 22  2  0
 22 13  1  0
 21 16  1  0
  1 23  1  0
  1 24  1  0
  1 25  1  0
  3 26  1  0
  3 27  1  0
  3 28  1  0
  4 29  1  0
  4 30  1  0
  4 31  1  0
  5 32  1  0
  5 33  1  0
  6 34  1  0
  9 35  1  0
  9 36  1  0
 10 37  1  0
 14 38  1  0
 15 39  1  0
 17 40  1  0
 18 41  1  0
 19 42  1  0
 20 43  1  0
M  END
>  <smiles>  (42) 
CC(C)(C)CNC(=O)CNC(=O)c1ccc2ccccc2n1

>  <score_type>  (42) 
oracle

>  <origin>  (42) 
autodockgpu

>  <m_score__min__energy>  (42) 
-7.5099999999999998

>  <m_primary>  (42) 
energy

>  <rmsd>  (42) 
3.3668865351181863

>  <m_score__min__rmsd>  (42) 
3.3668865351181863

>  <meeko>  (42) 
{"free_energy": -7.15, "intermolecular_energy": -8.65, "internal_energy": -0.75, "cluster_size": 8, "cluster_id": 1, "rank_in_cluster": 6}

>  <energy>  (42) 
-6.75

>  <cluster_rmsd>  (42) 
0.7

>  <cluster>  (42) 
2

$$$$

     RDKit          3D

 43 44  0  0  0  0  0  0  0  0999 V2000
  145.9580   73.3420  221.4830 C   0  0  0  0  0  0  0  0  0  0  0  0
  144.8970   73.3090  220.4400 C   0  0  0  0  0  0  0  0  0  0  0  0
  144.2340   71.9170  220.5710 C   0  0  0  0  0  0  0  0  0  0  0  0
  145.5580   73.2680  219.0590 C   0  0  0  0  0  0  0  0  0  0  0  0
  143.8130   74.3080  220.4800 C   0  0  0  0  0  0  0  0  0  0  0  0
  142.4980   73.9270  220.8300 N   0  0  0  0  0  0  0  0  0  0  0  0
  141.2820   74.5900  220.6310 C   0  0  0  0  0  0  0  0  0  0  0  0
  141.2880   75.7350  220.0560 O   0  0  0  0  0  0  0  0  0  0  0  0
  139.9470   74.1020  221.0220 C   0  0  0  0  0  0  0  0  0  0  0  0
  139.8470   73.4720  222.3010 N   0  0  0  0  0  0  0  0  0  0  0  0
  140.3120   72.1110  222.3930 C   0  0  0  0  0  0  0  0  0  0  0  0
  140.7710   71.5710  221.3540 O   0  0  0  0  0  0  0  0  0  0  0  0
  140.2410   71.4050  223.6660 C   0  0  0  0  0  0  0  0  0  0  0  0
  139.6860   70.1420  223.6760 C   0  0  0  0  0  0  0  0  0  0  0  0
  139.5910   69.4260  224.8490 C   0  0  0  0  0  0  0  0  0  0  0  0
  140.0570   69.9810  226.0230 C   0  0  0  0  0  0  0  0  0  0  0  0
  139.9470   69.2410  227.1710 C   0  0  0  0  0  0  0  0  0  0  0  0
  140.4150   69.8020  228.3420 C   0  0  0  0  0  0  0  0  0  0  0  0
  140.9660   71.0650  228.3120 C   0  0  0  0  0  0  0  0  0  0  0  0
  141.0820   71.8180  227.1610 C   0  0  0  0  0  0  0  0  0  0  0  0
  140.6120   71.2530  225.9930 C   0  0  0  0  0  0  0  0  0  0  0  0
  140.6880   71.9240  224.8250 N   0  0  0  0  0  0  0  0  0  0  0  0
  145.4929   73.3275  222.4797 H   0  0  0  0  0  0  0  0  0  0  0  0
  146.6106   72.4637  221.3701 H   0  0  0  0  0  0  0  0  0  0  0  0
  146.5547   74.2591  221.3701 H   0  0  0  0  0  0  0  0  0  0  0  0
  144.1146   71.6664  221.6354 H   0  0  0  0  0  0  0  0  0  0  0  0
  143.2471   71.9337  220.0854 H   0  0  0  0  0  0  0  0  0  0  0  0
  144.8689   71.1613  220.0854 H   0  0  0  0  0  0  0  0  0  0  0  0
  146.6496   73.2003  219.1768 H   0  0  0  0  0  0  0  0  0  0  0  0
  145.1940   72.3907  218.5042 H   0  0  0  0  0  0  0  0  0  0  0  0
  145.3052   74.1836  218.5042 H   0  0  0  0  0  0  0  0  0  0  0  0
  144.1208   75.0779  221.2028 H   0  0  0  0  0  0  0  0  0  0  0  0
  143.7117   74.6048  219.4257 H   0  0  0  0  0  0  0  0  0  0  0  0
  142.4040   72.9720  221.3320 H   0  0  0  0  0  0  0  0  0  0  0  0
  139.2626   74.9631  221.0193 H   0  0  0  0  0  0  0  0  0  0  0  0
  139.6985   73.3181  220.2915 H   0  0  0  0  0  0  0  0  0  0  0  0
  139.4780   73.8740  223.1790 H   0  0  0  0  0  0  0  0  0  0  0  0
  139.3157   69.7024  222.7381 H   0  0  0  0  0  0  0  0  0  0  0  0
  139.1470   68.4196  224.8496 H   0  0  0  0  0  0  0  0  0  0  0  0
  139.5015   68.2353  227.1597 H   0  0  0  0  0  0  0  0  0  0  0  0
  140.3489   69.2469  229.2894 H   0  0  0  0  0  0  0  0  0  0  0  0
  141.3328   71.4958  229.2554 H   0  0  0  0  0  0  0  0  0  0  0  0
  141.5289   72.8230  227.1742 H   0  0  0  0  0  0  0  0  0  0  0  0
  1  2  1  0
  2  3  1  0
  2  4  1  0
  2  5  1  0
  5  6  1  0
  6  7  1  0
  7  8  2  0
  7  9  1  0
  9 10  1  0
 10 11  1  0
 11 12  2  0
 11 13  1  0
 13 14  2  0
 14 15  1  0
 15 16  2  0
 16 17  1  0
 17 18  2  0
 18 19  1  0
 19 20  2  0
 20 21  1  0
 21 22  2  0
 22 13  1  0
 21 16  1  0
  1 23  1  0
  1 24  1  0
  1 25  1  0
  3 26  1  0
  3 27  1  0
  3 28  1  0
  4 29  1  0
  4 30  1  0
  4 31  1  0
  5 32  1  0
  5 33  1  0
  6 34  1  0
  9 35  1  0
  9 36  1  0
 10 37  1  0
 14 38  1  0
 15 39  1  0
 17 40  1  0
 18 41  1  0
 19 42  1  0
 20 43  1  0
M  END
>  <smiles>  (43) 
CC(C)(C)CNC(=O)CNC(=O)c1ccc2ccccc2n1

>  <score_type>  (43) 
oracle

>  <origin>  (43) 
autodockgpu

>  <m_score__min__energy>  (43) 
-7.5099999999999998

>  <m_primary>  (43) 
energy

>  <rmsd>  (43) 
3.4116834791710238

>  <m_score__min__rmsd>  (43) 
3.4116834791710238

>  <meeko>  (43) 
{"free_energy": -7.01, "intermolecular_energy": -8.5, "internal_energy": -1.63, "cluster_size": 41, "cluster_id": 2, "rank_in_cluster": 13}

>  <energy>  (43) 
-6.73

>  <cluster_rmsd>  (43) 
1.02

>  <cluster>  (43) 
2

$$$$

     RDKit          3D

 43 44  0  0  0  0  0  0  0  0999 V2000
  145.4780   72.4630  218.9440 C   0  0  0  0  0  0  0  0  0  0  0  0
  144.5050   72.9900  219.9400 C   0  0  0  0  0  0  0  0  0  0  0  0
  145.3340   73.8930  220.8860 C   0  0  0  0  0  0  0  0  0  0  0  0
  144.0470   71.8420  220.8440 C   0  0  0  0  0  0  0  0  0  0  0  0
  143.3580   73.7910  219.4760 C   0  0  0  0  0  0  0  0  0  0  0  0
  142.0700   73.5860  220.0220 N   0  0  0  0  0  0  0  0  0  0  0  0
  141.1600   74.5050  220.5550 C   0  0  0  0  0  0  0  0  0  0  0  0
  141.4820   75.7430  220.6000 O   0  0  0  0  0  0  0  0  0  0  0  0
  139.8210   74.1950  221.0920 C   0  0  0  0  0  0  0  0  0  0  0  0
  139.7780   73.5310  222.3570 N   0  0  0  0  0  0  0  0  0  0  0  0
  140.1440   72.1370  222.3710 C   0  0  0  0  0  0  0  0  0  0  0  0
  140.4730   71.6000  221.2820 O   0  0  0  0  0  0  0  0  0  0  0  0
  140.1230   71.3950  223.6250 C   0  0  0  0  0  0  0  0  0  0  0  0
  139.5860   70.1240  223.6180 C   0  0  0  0  0  0  0  0  0  0  0  0
  139.5400   69.3750  224.7720 C   0  0  0  0  0  0  0  0  0  0  0  0
  140.0340   69.9030  225.9460 C   0  0  0  0  0  0  0  0  0  0  0  0
  139.9720   69.1300  227.0760 C   0  0  0  0  0  0  0  0  0  0  0  0
  140.4690   69.6660  228.2460 C   0  0  0  0  0  0  0  0  0  0  0  0
  141.0010   70.9370  228.2340 C   0  0  0  0  0  0  0  0  0  0  0  0
  141.0690   71.7230  227.1020 C   0  0  0  0  0  0  0  0  0  0  0  0
  140.5700   71.1840  225.9340 C   0  0  0  0  0  0  0  0  0  0  0  0
  140.6000   71.8870  224.7840 N   0  0  0  0  0  0  0  0  0  0  0  0
  146.3277   72.0028  219.4695 H   0  0  0  0  0  0  0  0  0  0  0  0
  144.9848   71.7087  218.3133 H   0  0  0  0  0  0  0  0  0  0  0  0
  145.8403   73.2882  218.3133 H   0  0  0  0  0  0  0  0  0  0  0  0
  145.1018   73.6401  221.9310 H   0  0  0  0  0  0  0  0  0  0  0  0
  146.4062   73.7328  220.6995 H   0  0  0  0  0  0  0  0  0  0  0  0
  145.0829   74.9476  220.6995 H   0  0  0  0  0  0  0  0  0  0  0  0
  144.1642   72.1358  221.8975 H   0  0  0  0  0  0  0  0  0  0  0  0
  142.9897   71.6156  220.6419 H   0  0  0  0  0  0  0  0  0  0  0  0
  144.6581   70.9500  220.6419 H   0  0  0  0  0  0  0  0  0  0  0  0
  143.6143   74.8446  219.6610 H   0  0  0  0  0  0  0  0  0  0  0  0
  143.2375   73.4673  218.4316 H   0  0  0  0  0  0  0  0  0  0  0  0
  141.7230   72.5610  220.0310 H   0  0  0  0  0  0  0  0  0  0  0  0
  139.2743   75.1440  221.1942 H   0  0  0  0  0  0  0  0  0  0  0  0
  139.3780   73.4864  220.3767 H   0  0  0  0  0  0  0  0  0  0  0  0
  139.5150   73.9280  223.2740 H   0  0  0  0  0  0  0  0  0  0  0  0
  139.1907   69.7051  222.6809 H   0  0  0  0  0  0  0  0  0  0  0  0
  139.1119   68.3618  224.7577 H   0  0  0  0  0  0  0  0  0  0  0  0
  139.5413   68.1181  227.0510 H   0  0  0  0  0  0  0  0  0  0  0  0
  140.4408   69.0845  229.1793 H   0  0  0  0  0  0  0  0  0  0  0  0
  141.3923   71.3468  229.1769 H   0  0  0  0  0  0  0  0  0  0  0  0
  141.5016   72.7340  227.1295 H   0  0  0  0  0  0  0  0  0  0  0  0
  1  2  1  0
  2  3  1  0
  2  4  1  0
  2  5  1  0
  5  6  1  0
  6  7  1  0
  7  8  2  0
  7  9  1  0
  9 10  1  0
 10 11  1  0
 11 12  2  0
 11 13  1  0
 13 14  2  0
 14 15  1  0
 15 16  2  0
 16 17  1  0
 17 18  2  0
 18 19  1  0
 19 20  2  0
 20 21  1  0
 21 22  2  0
 22 13  1  0
 21 16  1  0
  1 23  1  0
  1 24  1  0
  1 25  1  0
  3 26  1  0
  3 27  1  0
  3 28  1  0
  4 29  1  0
  4 30  1  0
  4 31  1  0
  5 32  1  0
  5 33  1  0
  6 34  1  0
  9 35  1  0
  9 36  1  0
 10 37  1  0
 14 38  1  0
 15 39  1  0
 17 40  1  0
 18 41  1  0
 19 42  1  0
 20 43  1  0
M  END
>  <smiles>  (44) 
CC(C)(C)CNC(=O)CNC(=O)c1ccc2ccccc2n1

>  <score_type>  (44) 
oracle

>  <origin>  (44) 
autodockgpu

>  <m_score__min__energy>  (44) 
-7.5099999999999998

>  <m_primary>  (44) 
energy

>  <rmsd>  (44) 
3.195422039279811

>  <m_score__min__rmsd>  (44) 
3.195422039279811

>  <meeko>  (44) 
{"free_energy": -6.53, "intermolecular_energy": -8.03, "internal_energy": -1.73, "cluster_size": 41, "cluster_id": 2, "rank_in_cluster": 41}

>  <energy>  (44) 
-6.67

>  <cluster_rmsd>  (44) 
1.16

>  <cluster>  (44) 
2

$$$$

     RDKit          3D

 43 44  0  0  0  0  0  0  0  0999 V2000
  145.7270   73.7410  221.2100 C   0  0  0  0  0  0  0  0  0  0  0  0
  144.7490   73.2820  220.1850 C   0  0  0  0  0  0  0  0  0  0  0  0
  144.1280   71.9860  220.7610 C   0  0  0  0  0  0  0  0  0  0  0  0
  145.5120   72.8000  218.9490 C   0  0  0  0  0  0  0  0  0  0  0  0
  143.6290   74.1640  219.8080 C   0  0  0  0  0  0  0  0  0  0  0  0
  142.3020   73.8320  220.1600 N   0  0  0  0  0  0  0  0  0  0  0  0
  141.3120   74.6040  220.7780 C   0  0  0  0  0  0  0  0  0  0  0  0
  141.5860   75.8080  221.1180 O   0  0  0  0  0  0  0  0  0  0  0  0
  139.9380   74.1710  221.0940 C   0  0  0  0  0  0  0  0  0  0  0  0
  139.7530   73.4900  222.3380 N   0  0  0  0  0  0  0  0  0  0  0  0
  140.3420   72.1800  222.4540 C   0  0  0  0  0  0  0  0  0  0  0  0
  140.9740   71.7250  221.4660 O   0  0  0  0  0  0  0  0  0  0  0  0
  140.1940   71.4260  223.6930 C   0  0  0  0  0  0  0  0  0  0  0  0
  139.5620   70.2020  223.6350 C   0  0  0  0  0  0  0  0  0  0  0  0
  139.3930   69.4440  224.7730 C   0  0  0  0  0  0  0  0  0  0  0  0
  139.8610   69.9180  225.9800 C   0  0  0  0  0  0  0  0  0  0  0  0
  139.6760   69.1390  227.0920 C   0  0  0  0  0  0  0  0  0  0  0  0
  140.1480   69.6190  228.2970 C   0  0  0  0  0  0  0  0  0  0  0  0
  140.7770   70.8440  228.3340 C   0  0  0  0  0  0  0  0  0  0  0  0
  140.9680   71.6360  227.2210 C   0  0  0  0  0  0  0  0  0  0  0  0
  140.4950   71.1530  226.0180 C   0  0  0  0  0  0  0  0  0  0  0  0
  140.6430   71.8660  224.8840 N   0  0  0  0  0  0  0  0  0  0  0  0
  145.3216   73.5507  222.2147 H   0  0  0  0  0  0  0  0  0  0  0  0
  146.6725   73.1926  221.0862 H   0  0  0  0  0  0  0  0  0  0  0  0
  145.9093   74.8187  221.0862 H   0  0  0  0  0  0  0  0  0  0  0  0
  144.1477   72.0270  221.8601 H   0  0  0  0  0  0  0  0  0  0  0  0
  143.0876   71.8932  220.4161 H   0  0  0  0  0  0  0  0  0  0  0  0
  144.7075   71.1170  220.4161 H   0  0  0  0  0  0  0  0  0  0  0  0
  146.4029   72.2372  219.2645 H   0  0  0  0  0  0  0  0  0  0  0  0
  144.8611   72.1489  218.3471 H   0  0  0  0  0  0  0  0  0  0  0  0
  145.8204   73.6675  218.3471 H   0  0  0  0  0  0  0  0  0  0  0  0
  143.8372   75.1463  220.2571 H   0  0  0  0  0  0  0  0  0  0  0  0
  143.6178   74.0921  218.7104 H   0  0  0  0  0  0  0  0  0  0  0  0
  141.9900   72.8250  219.9150 H   0  0  0  0  0  0  0  0  0  0  0  0
  139.2997   75.0668  221.1054 H   0  0  0  0  0  0  0  0  0  0  0  0
  139.6794   73.4351  220.3184 H   0  0  0  0  0  0  0  0  0  0  0  0
  139.2450   73.8220  223.1730 H   0  0  0  0  0  0  0  0  0  0  0  0
  139.1890   69.8269  222.6705 H   0  0  0  0  0  0  0  0  0  0  0  0
  138.8885   68.4680  224.7189 H   0  0  0  0  0  0  0  0  0  0  0  0
  139.1690   68.1650  227.0266 H   0  0  0  0  0  0  0  0  0  0  0  0
  140.0233   69.0299  229.2175 H   0  0  0  0  0  0  0  0  0  0  0  0
  141.1468   71.2102  229.3031 H   0  0  0  0  0  0  0  0  0  0  0  0
  141.4751   72.6098  227.2893 H   0  0  0  0  0  0  0  0  0  0  0  0
  1  2  1  0
  2  3  1  0
  2  4  1  0
  2  5  1  0
  5  6  1  0
  6  7  1  0
  7  8  2  0
  7  9  1  0
  9 10  1  0
 10 11  1  0
 11 12  2  0
 11 13  1  0
 13 14  2  0
 14 15  1  0
 15 16  2  0
 16 17  1  0
 17 18  2  0
 18 19  1  0
 19 20  2  0
 20 21  1  0
 21 22  2  0
 22 13  1  0
 21 16  1  0
  1 23  1  0
  1 24  1  0
  1 25  1  0
  3 26  1  0
  3 27  1  0
  3 28  1  0
  4 29  1  0
  4 30  1  0
  4 31  1  0
  5 32  1  0
  5 33  1  0
  6 34  1  0
  9 35  1  0
  9 36  1  0
 10 37  1  0
 14 38  1  0
 15 39  1  0
 17 40  1  0
 18 41  1  0
 19 42  1  0
 20 43  1  0
M  END
>  <smiles>  (45) 
CC(C)(C)CNC(=O)CNC(=O)c1ccc2ccccc2n1

>  <score_type>  (45) 
oracle

>  <origin>  (45) 
autodockgpu

>  <m_score__min__energy>  (45) 
-7.5099999999999998

>  <m_primary>  (45) 
energy

>  <rmsd>  (45) 
3.2369210401864126

>  <m_score__min__rmsd>  (45) 
3.2369210401864126

>  <meeko>  (45) 
{"free_energy": -6.97, "intermolecular_energy": -8.46, "internal_energy": -1.62, "cluster_size": 41, "cluster_id": 2, "rank_in_cluster": 20}

>  <energy>  (45) 
-6.67

>  <cluster_rmsd>  (45) 
1.27

>  <cluster>  (45) 
2

$$$$

     RDKit          3D

 43 44  0  0  0  0  0  0  0  0999 V2000
  138.9330   69.4870  225.1690 C   0  0  0  0  0  0  0  0  0  0  0  0
  139.0890   70.4270  224.0250 C   0  0  0  0  0  0  0  0  0  0  0  0
  137.7030   71.0940  223.8500 C   0  0  0  0  0  0  0  0  0  0  0  0
  139.2660   69.6180  222.7370 C   0  0  0  0  0  0  0  0  0  0  0  0
  140.0810   71.5140  224.1110 C   0  0  0  0  0  0  0  0  0  0  0  0
  140.1790   72.4810  223.0860 N   0  0  0  0  0  0  0  0  0  0  0  0
  141.0120   72.5270  221.9630 C   0  0  0  0  0  0  0  0  0  0  0  0
  141.8550   71.5800  221.7780 O   0  0  0  0  0  0  0  0  0  0  0  0
  141.0310   73.5800  220.9320 C   0  0  0  0  0  0  0  0  0  0  0  0
  141.2510   74.9170  221.3880 N   0  0  0  0  0  0  0  0  0  0  0  0
  140.1080   75.6200  221.9140 C   0  0  0  0  0  0  0  0  0  0  0  0
  139.0030   75.0190  221.9380 O   0  0  0  0  0  0  0  0  0  0  0  0
  140.2580   76.9870  222.3980 C   0  0  0  0  0  0  0  0  0  0  0  0
  139.1160   77.6830  222.7370 C   0  0  0  0  0  0  0  0  0  0  0  0
  139.1950   78.9770  223.2000 C   0  0  0  0  0  0  0  0  0  0  0  0
  140.4290   79.5810  223.3240 C   0  0  0  0  0  0  0  0  0  0  0  0
  140.4700   80.8700  223.7880 C   0  0  0  0  0  0  0  0  0  0  0  0
  141.7080   81.4670  223.9100 C   0  0  0  0  0  0  0  0  0  0  0  0
  142.8370   80.7560  223.5670 C   0  0  0  0  0  0  0  0  0  0  0  0
  142.8060   79.4580  223.1000 C   0  0  0  0  0  0  0  0  0  0  0  0
  141.5660   78.8640  222.9780 C   0  0  0  0  0  0  0  0  0  0  0  0
  141.4500   77.5990  222.5290 N   0  0  0  0  0  0  0  0  0  0  0  0
  139.0250   70.0416  226.1145 H   0  0  0  0  0  0  0  0  0  0  0  0
  137.9433   69.0095  225.1189 H   0  0  0  0  0  0  0  0  0  0  0  0
  139.7154   68.7154  225.1189 H   0  0  0  0  0  0  0  0  0  0  0  0
  137.2691   71.3028  224.8390 H   0  0  0  0  0  0  0  0  0  0  0  0
  137.8170   72.0359  223.2933 H   0  0  0  0  0  0  0  0  0  0  0  0
  137.0381   70.4173  223.2933 H   0  0  0  0  0  0  0  0  0  0  0  0
  139.4948   68.5721  222.9895 H   0  0  0  0  0  0  0  0  0  0  0  0
  138.3378   69.6584  222.1481 H   0  0  0  0  0  0  0  0  0  0  0  0
  140.0926   70.0423  222.1481 H   0  0  0  0  0  0  0  0  0  0  0  0
  139.8678   72.0616  225.0409 H   0  0  0  0  0  0  0  0  0  0  0  0
  141.0393   70.9791  224.0372 H   0  0  0  0  0  0  0  0  0  0  0  0
  139.5050   73.3250  223.1710 H   0  0  0  0  0  0  0  0  0  0  0  0
  141.8315   73.3345  220.2187 H   0  0  0  0  0  0  0  0  0  0  0  0
  140.0190   73.5829  220.5010 H   0  0  0  0  0  0  0  0  0  0  0  0
  142.1370   75.4490  221.3880 H   0  0  0  0  0  0  0  0  0  0  0  0
  138.1331   77.1994  222.6364 H   0  0  0  0  0  0  0  0  0  0  0  0
  138.2804   79.5256  223.4692 H   0  0  0  0  0  0  0  0  0  0  0  0
  139.5488   81.4094  224.0536 H   0  0  0  0  0  0  0  0  0  0  0  0
  141.7926   82.5003  224.2775 H   0  0  0  0  0  0  0  0  0  0  0  0
  143.8148   81.2491  223.6709 H   0  0  0  0  0  0  0  0  0  0  0  0
  143.7287   78.9203  222.8366 H   0  0  0  0  0  0  0  0  0  0  0  0
  1  2  1  0
  2  3  1  0
  2  4  1  0
  2  5  1  0
  5  6  1  0
  6  7  1  0
  7  8  2  0
  7  9  1  0
  9 10  1  0
 10 11  1  0
 11 12  2  0
 11 13  1  0
 13 14  2  0
 14 15  1  0
 15 16  2  0
 16 17  1  0
 17 18  2  0
 18 19  1  0
 19 20  2  0
 20 21  1  0
 21 22  2  0
 22 13  1  0
 21 16  1  0
  1 23  1  0
  1 24  1  0
  1 25  1  0
  3 26  1  0
  3 27  1  0
  3 28  1  0
  4 29  1  0
  4 30  1  0
  4 31  1  0
  5 32  1  0
  5 33  1  0
  6 34  1  0
  9 35  1  0
  9 36  1  0
 10 37  1  0
 14 38  1  0
 15 39  1  0
 17 40  1  0
 18 41  1  0
 19 42  1  0
 20 43  1  0
M  END
>  <smiles>  (46) 
CC(C)(C)CNC(=O)CNC(=O)c1ccc2ccccc2n1

>  <score_type>  (46) 
oracle

>  <origin>  (46) 
autodockgpu

>  <m_score__min__energy>  (46) 
-7.5099999999999998

>  <m_primary>  (46) 
energy

>  <rmsd>  (46) 
8.560330290614063

>  <m_score__min__rmsd>  (46) 
8.560330290614063

>  <meeko>  (46) 
{"free_energy": -6.31, "intermolecular_energy": -7.8, "internal_energy": -1.77, "cluster_size": 1, "cluster_id": 3, "rank_in_cluster": 1}

>  <energy>  (46) 
-6.66

>  <cluster_rmsd>  (46) 
1.27

>  <cluster>  (46) 
2

$$$$

     RDKit          3D

 43 44  0  0  0  0  0  0  0  0999 V2000
  145.5610   73.2650  218.9050 C   0  0  0  0  0  0  0  0  0  0  0  0
  144.8440   73.2530  220.2090 C   0  0  0  0  0  0  0  0  0  0  0  0
  145.9440   73.4280  221.2850 C   0  0  0  0  0  0  0  0  0  0  0  0
  144.3040   71.8430  220.4670 C   0  0  0  0  0  0  0  0  0  0  0  0
  143.8140   74.2730  220.4780 C   0  0  0  0  0  0  0  0  0  0  0  0
  142.4950   73.8930  220.8140 N   0  0  0  0  0  0  0  0  0  0  0  0
  141.2950   74.6040  220.7090 C   0  0  0  0  0  0  0  0  0  0  0  0
  141.3230   75.8020  220.2550 O   0  0  0  0  0  0  0  0  0  0  0  0
  139.9540   74.1140  221.0750 C   0  0  0  0  0  0  0  0  0  0  0  0
  139.8350   73.4690  222.3460 N   0  0  0  0  0  0  0  0  0  0  0  0
  140.3060   72.1090  222.4300 C   0  0  0  0  0  0  0  0  0  0  0  0
  140.7860   71.5830  221.3930 O   0  0  0  0  0  0  0  0  0  0  0  0
  140.2160   71.3890  223.6940 C   0  0  0  0  0  0  0  0  0  0  0  0
  139.6380   70.1360  223.6870 C   0  0  0  0  0  0  0  0  0  0  0  0
  139.5250   69.4080  224.8500 C   0  0  0  0  0  0  0  0  0  0  0  0
  139.9950   69.9390  226.0330 C   0  0  0  0  0  0  0  0  0  0  0  0
  139.8670   69.1870  227.1710 C   0  0  0  0  0  0  0  0  0  0  0  0
  140.3400   69.7250  228.3500 C   0  0  0  0  0  0  0  0  0  0  0  0
  140.9140   70.9770  228.3380 C   0  0  0  0  0  0  0  0  0  0  0  0
  141.0490   71.7420  227.1970 C   0  0  0  0  0  0  0  0  0  0  0  0
  140.5740   71.2010  226.0200 C   0  0  0  0  0  0  0  0  0  0  0  0
  140.6680   71.8840  224.8620 N   0  0  0  0  0  0  0  0  0  0  0  0
  146.6463   73.2832  219.0835 H   0  0  0  0  0  0  0  0  0  0  0  0
  145.2984   72.3623  218.3338 H   0  0  0  0  0  0  0  0  0  0  0  0
  145.2683   74.1584  218.3338 H   0  0  0  0  0  0  0  0  0  0  0  0
  145.4928   73.3562  222.2856 H   0  0  0  0  0  0  0  0  0  0  0  0
  146.7014   72.6391  221.1668 H   0  0  0  0  0  0  0  0  0  0  0  0
  146.4191   74.4130  221.1668 H   0  0  0  0  0  0  0  0  0  0  0  0
  144.2372   71.6686  221.5510 H   0  0  0  0  0  0  0  0  0  0  0  0
  143.3048   71.7451  220.0176 H   0  0  0  0  0  0  0  0  0  0  0  0
  144.9822   71.1027  220.0176 H   0  0  0  0  0  0  0  0  0  0  0  0
  144.1874   74.8846  221.3126 H   0  0  0  0  0  0  0  0  0  0  0  0
  143.6881   74.7595  219.4995 H   0  0  0  0  0  0  0  0  0  0  0  0
  142.3840   72.8930  221.2160 H   0  0  0  0  0  0  0  0  0  0  0  0
  139.2710   74.9763  221.0726 H   0  0  0  0  0  0  0  0  0  0  0  0
  139.7144   73.3392  220.3319 H   0  0  0  0  0  0  0  0  0  0  0  0
  139.4490   73.8590  223.2210 H   0  0  0  0  0  0  0  0  0  0  0  0
  139.2637   69.7145  222.7424 H   0  0  0  0  0  0  0  0  0  0  0  0
  139.0631   68.4098  224.8359 H   0  0  0  0  0  0  0  0  0  0  0  0
  139.4036   68.1897  227.1455 H   0  0  0  0  0  0  0  0  0  0  0  0
  140.2595   69.1598  229.2902 H   0  0  0  0  0  0  0  0  0  0  0  0
  141.2845   71.3891  229.2882 H   0  0  0  0  0  0  0  0  0  0  0  0
  141.5144   72.7383  227.2249 H   0  0  0  0  0  0  0  0  0  0  0  0
  1  2  1  0
  2  3  1  0
  2  4  1  0
  2  5  1  0
  5  6  1  0
  6  7  1  0
  7  8  2  0
  7  9  1  0
  9 10  1  0
 10 11  1  0
 11 12  2  0
 11 13  1  0
 13 14  2  0
 14 15  1  0
 15 16  2  0
 16 17  1  0
 17 18  2  0
 18 19  1  0
 19 20  2  0
 20 21  1  0
 21 22  2  0
 22 13  1  0
 21 16  1  0
  1 23  1  0
  1 24  1  0
  1 25  1  0
  3 26  1  0
  3 27  1  0
  3 28  1  0
  4 29  1  0
  4 30  1  0
  4 31  1  0
  5 32  1  0
  5 33  1  0
  6 34  1  0
  9 35  1  0
  9 36  1  0
 10 37  1  0
 14 38  1  0
 15 39  1  0
 17 40  1  0
 18 41  1  0
 19 42  1  0
 20 43  1  0
M  END
>  <smiles>  (47) 
CC(C)(C)CNC(=O)CNC(=O)c1ccc2ccccc2n1

>  <score_type>  (47) 
oracle

>  <origin>  (47) 
autodockgpu

>  <m_score__min__energy>  (47) 
-7.5099999999999998

>  <m_primary>  (47) 
energy

>  <rmsd>  (47) 
3.2883183686497413

>  <m_score__min__rmsd>  (47) 
3.2883183686497413

>  <meeko>  (47) 
{"free_energy": -7.0, "intermolecular_energy": -8.49, "internal_energy": -1.62, "cluster_size": 41, "cluster_id": 2, "rank_in_cluster": 15}

>  <energy>  (47) 
-6.63

>  <cluster_rmsd>  (47) 
1.06

>  <cluster>  (47) 
2

$$$$

     RDKit          3D

 43 44  0  0  0  0  0  0  0  0999 V2000
  145.9240   73.3490  221.2430 C   0  0  0  0  0  0  0  0  0  0  0  0
  144.7260   73.2690  220.3630 C   0  0  0  0  0  0  0  0  0  0  0  0
  144.0760   71.8990  220.6760 C   0  0  0  0  0  0  0  0  0  0  0  0
  145.1860   73.1280  218.9090 C   0  0  0  0  0  0  0  0  0  0  0  0
  143.6670   74.2870  220.4890 C   0  0  0  0  0  0  0  0  0  0  0  0
  142.3540   73.9160  220.8580 N   0  0  0  0  0  0  0  0  0  0  0  0
  141.1240   74.4830  220.5080 C   0  0  0  0  0  0  0  0  0  0  0  0
  141.1100   75.5120  219.7460 O   0  0  0  0  0  0  0  0  0  0  0  0
  139.7930   74.0130  220.9350 C   0  0  0  0  0  0  0  0  0  0  0  0
  139.7160   73.3960  222.2230 N   0  0  0  0  0  0  0  0  0  0  0  0
  140.2550   72.0640  222.3370 C   0  0  0  0  0  0  0  0  0  0  0  0
  140.7530   71.5360  221.3100 O   0  0  0  0  0  0  0  0  0  0  0  0
  140.2120   71.3730  223.6200 C   0  0  0  0  0  0  0  0  0  0  0  0
  139.6460   70.1150  223.6600 C   0  0  0  0  0  0  0  0  0  0  0  0
  139.5760   69.4140  224.8420 C   0  0  0  0  0  0  0  0  0  0  0  0
  140.0780   69.9770  225.9970 C   0  0  0  0  0  0  0  0  0  0  0  0
  139.9920   69.2500  227.1560 C   0  0  0  0  0  0  0  0  0  0  0  0
  140.4960   69.8200  228.3070 C   0  0  0  0  0  0  0  0  0  0  0  0
  141.0570   71.0770  228.2480 C   0  0  0  0  0  0  0  0  0  0  0  0
  141.1490   71.8160  227.0870 C   0  0  0  0  0  0  0  0  0  0  0  0
  140.6430   71.2430  225.9380 C   0  0  0  0  0  0  0  0  0  0  0  0
  140.6940   71.9000  224.7610 N   0  0  0  0  0  0  0  0  0  0  0  0
  145.6074   73.3279  222.2962 H   0  0  0  0  0  0  0  0  0  0  0  0
  146.5848   72.4930  221.0415 H   0  0  0  0  0  0  0  0  0  0  0  0
  146.4651   74.2853  221.0415 H   0  0  0  0  0  0  0  0  0  0  0  0
  144.0119   71.7640  221.7658 H   0  0  0  0  0  0  0  0  0  0  0  0
  143.0657   71.8649  220.2423 H   0  0  0  0  0  0  0  0  0  0  0  0
  144.6886   71.0949  220.2423 H   0  0  0  0  0  0  0  0  0  0  0  0
  146.2375   72.8057  218.8867 H   0  0  0  0  0  0  0  0  0  0  0  0
  144.5622   72.3798  218.3980 H   0  0  0  0  0  0  0  0  0  0  0  0
  145.0887   74.0972  218.3980 H   0  0  0  0  0  0  0  0  0  0  0  0
  144.0133   75.0101  221.2421 H   0  0  0  0  0  0  0  0  0  0  0  0
  143.5419   74.6422  219.4555 H   0  0  0  0  0  0  0  0  0  0  0  0
  142.2760   73.0570  221.5130 H   0  0  0  0  0  0  0  0  0  0  0  0
  139.1178   74.8814  220.9397 H   0  0  0  0  0  0  0  0  0  0  0  0
  139.5194   73.2247  220.2183 H   0  0  0  0  0  0  0  0  0  0  0  0
  139.3180   73.7880  223.0910 H   0  0  0  0  0  0  0  0  0  0  0  0
  139.2467   69.6681  222.7376 H   0  0  0  0  0  0  0  0  0  0  0  0
  139.1230   68.4119  224.8657 H   0  0  0  0  0  0  0  0  0  0  0  0
  139.5376   68.2483  227.1680 H   0  0  0  0  0  0  0  0  0  0  0  0
  140.4504   69.2763  229.2622 H   0  0  0  0  0  0  0  0  0  0  0  0
  141.4527   71.5146  229.1764 H   0  0  0  0  0  0  0  0  0  0  0  0
  141.6051   72.8169  227.0774 H   0  0  0  0  0  0  0  0  0  0  0  0
  1  2  1  0
  2  3  1  0
  2  4  1  0
  2  5  1  0
  5  6  1  0
  6  7  1  0
  7  8  2  0
  7  9  1  0
  9 10  1  0
 10 11  1  0
 11 12  2  0
 11 13  1  0
 13 14  2  0
 14 15  1  0
 15 16  2  0
 16 17  1  0
 17 18  2  0
 18 19  1  0
 19 20  2  0
 20 21  1  0
 21 22  2  0
 22 13  1  0
 21 16  1  0
  1 23  1  0
  1 24  1  0
  1 25  1  0
  3 26  1  0
  3 27  1  0
  3 28  1  0
  4 29  1  0
  4 30  1  0
  4 31  1  0
  5 32  1  0
  5 33  1  0
  6 34  1  0
  9 35  1  0
  9 36  1  0
 10 37  1  0
 14 38  1  0
 15 39  1  0
 17 40  1  0
 18 41  1  0
 19 42  1  0
 20 43  1  0
M  END
>  <smiles>  (48) 
CC(C)(C)CNC(=O)CNC(=O)c1ccc2ccccc2n1

>  <score_type>  (48) 
oracle

>  <origin>  (48) 
autodockgpu

>  <m_score__min__energy>  (48) 
-7.5099999999999998

>  <m_primary>  (48) 
energy

>  <rmsd>  (48) 
3.347778129116877

>  <m_score__min__rmsd>  (48) 
3.347778129116877

>  <meeko>  (48) 
{"free_energy": -6.96, "intermolecular_energy": -8.46, "internal_energy": -1.64, "cluster_size": 41, "cluster_id": 2, "rank_in_cluster": 21}

>  <energy>  (48) 
-6.6

>  <cluster_rmsd>  (48) 
1.27

>  <cluster>  (48) 
2

$$$$

     RDKit          3D

 43 44  0  0  0  0  0  0  0  0999 V2000
  144.4690   71.8820  220.4430 C   0  0  0  0  0  0  0  0  0  0  0  0
  144.7660   73.3140  220.1650 C   0  0  0  0  0  0  0  0  0  0  0  0
  145.2240   73.3600  218.6870 C   0  0  0  0  0  0  0  0  0  0  0  0
  146.0180   73.7230  220.9460 C   0  0  0  0  0  0  0  0  0  0  0  0
  143.6950   74.3160  220.3150 C   0  0  0  0  0  0  0  0  0  0  0  0
  142.3770   73.9180  220.6320 N   0  0  0  0  0  0  0  0  0  0  0  0
  141.2160   74.6840  220.7910 C   0  0  0  0  0  0  0  0  0  0  0  0
  141.2890   75.9550  220.6540 O   0  0  0  0  0  0  0  0  0  0  0  0
  139.8710   74.1730  221.1100 C   0  0  0  0  0  0  0  0  0  0  0  0
  139.7240   73.4960  222.3610 N   0  0  0  0  0  0  0  0  0  0  0  0
  140.3240   72.1900  222.4660 C   0  0  0  0  0  0  0  0  0  0  0  0
  140.9310   71.7340  221.4630 O   0  0  0  0  0  0  0  0  0  0  0  0
  140.2150   71.4400  223.7120 C   0  0  0  0  0  0  0  0  0  0  0  0
  139.5940   70.2090  223.6760 C   0  0  0  0  0  0  0  0  0  0  0  0
  139.4610   69.4560  224.8210 C   0  0  0  0  0  0  0  0  0  0  0  0
  139.9560   69.9400  226.0140 C   0  0  0  0  0  0  0  0  0  0  0  0
  139.8070   69.1640  227.1330 C   0  0  0  0  0  0  0  0  0  0  0  0
  140.3050   69.6550  228.3230 C   0  0  0  0  0  0  0  0  0  0  0  0
  140.9220   70.8860  228.3390 C   0  0  0  0  0  0  0  0  0  0  0  0
  141.0780   71.6750  227.2180 C   0  0  0  0  0  0  0  0  0  0  0  0
  140.5790   71.1810  226.0300 C   0  0  0  0  0  0  0  0  0  0  0  0
  140.6900   71.8900  224.8890 N   0  0  0  0  0  0  0  0  0  0  0  0
  144.4352   71.7189  221.5303 H   0  0  0  0  0  0  0  0  0  0  0  0
  143.4967   71.6169  220.0020 H   0  0  0  0  0  0  0  0  0  0  0  0
  145.2556   71.2521  220.0020 H   0  0  0  0  0  0  0  0  0  0  0  0
  146.3177   73.4698  218.6453 H   0  0  0  0  0  0  0  0  0  0  0  0
  144.9296   72.4278  218.1827 H   0  0  0  0  0  0  0  0  0  0  0  0
  144.7501   74.2151  218.1827 H   0  0  0  0  0  0  0  0  0  0  0  0
  145.8150   73.6567  222.0251 H   0  0  0  0  0  0  0  0  0  0  0  0
  146.8481   73.0493  220.6870 H   0  0  0  0  0  0  0  0  0  0  0  0
  146.2903   74.7568  220.6870 H   0  0  0  0  0  0  0  0  0  0  0  0
  144.0164   75.0032  221.1116 H   0  0  0  0  0  0  0  0  0  0  0  0
  143.5920   74.7206  219.2973 H   0  0  0  0  0  0  0  0  0  0  0  0
  142.2290   72.8550  220.7740 H   0  0  0  0  0  0  0  0  0  0  0  0
  139.1801   75.0289  221.1104 H   0  0  0  0  0  0  0  0  0  0  0  0
  139.6592   73.4140  220.3425 H   0  0  0  0  0  0  0  0  0  0  0  0
  139.2380   73.8290  223.2090 H   0  0  0  0  0  0  0  0  0  0  0  0
  139.2011   69.8250  222.7230 H   0  0  0  0  0  0  0  0  0  0  0  0
  138.9636   68.4756  224.7846 H   0  0  0  0  0  0  0  0  0  0  0  0
  139.3084   68.1847  227.0849 H   0  0  0  0  0  0  0  0  0  0  0  0
  140.2100   69.0690  229.2491 H   0  0  0  0  0  0  0  0  0  0  0  0
  141.3115   71.2604  229.2972 H   0  0  0  0  0  0  0  0  0  0  0  0
  141.5776   72.6537  227.2689 H   0  0  0  0  0  0  0  0  0  0  0  0
  1  2  1  0
  2  3  1  0
  2  4  1  0
  2  5  1  0
  5  6  1  0
  6  7  1  0
  7  8  2  0
  7  9  1  0
  9 10  1  0
 10 11  1  0
 11 12  2  0
 11 13  1  0
 13 14  2  0
 14 15  1  0
 15 16  2  0
 16 17  1  0
 17 18  2  0
 18 19  1  0
 19 20  2  0
 20 21  1  0
 21 22  2  0
 22 13  1  0
 21 16  1  0
  1 23  1  0
  1 24  1  0
  1 25  1  0
  3 26  1  0
  3 27  1  0
  3 28  1  0
  4 29  1  0
  4 30  1  0
  4 31  1  0
  5 32  1  0
  5 33  1  0
  6 34  1  0
  9 35  1  0
  9 36  1  0
 10 37  1  0
 14 38  1  0
 15 39  1  0
 17 40  1  0
 18 41  1  0
 19 42  1  0
 20 43  1  0
M  END
>  <smiles>  (49) 
CC(C)(C)CNC(=O)CNC(=O)c1ccc2ccccc2n1

>  <score_type>  (49) 
oracle

>  <origin>  (49) 
autodockgpu

>  <m_score__min__energy>  (49) 
-7.5099999999999998

>  <m_primary>  (49) 
energy

>  <rmsd>  (49) 
3.1998612438424234

>  <m_score__min__rmsd>  (49) 
3.1998612438424234

>  <meeko>  (49) 
{"free_energy": -7.01, "intermolecular_energy": -8.5, "internal_energy": -1.58, "cluster_size": 41, "cluster_id": 2, "rank_in_cluster": 14}

>  <energy>  (49) 
-6.53

>  <cluster_rmsd>  (49) 
1.03

>  <cluster>  (49) 
2

$$$$

     RDKit          3D

 43 44  0  0  0  0  0  0  0  0999 V2000
  145.5170   72.5740  218.8980 C   0  0  0  0  0  0  0  0  0  0  0  0
  144.5900   73.1080  219.9320 C   0  0  0  0  0  0  0  0  0  0  0  0
  145.4750   73.9500  220.8830 C   0  0  0  0  0  0  0  0  0  0  0  0
  144.1090   71.9530  220.8130 C   0  0  0  0  0  0  0  0  0  0  0  0
  143.4640   73.9670  219.5200 C   0  0  0  0  0  0  0  0  0  0  0  0
  142.1540   73.7030  219.9780 N   0  0  0  0  0  0  0  0  0  0  0  0
  141.2580   74.5230  220.6730 C   0  0  0  0  0  0  0  0  0  0  0  0
  141.6210   75.7100  220.9880 O   0  0  0  0  0  0  0  0  0  0  0  0
  139.8930   74.1610  221.0990 C   0  0  0  0  0  0  0  0  0  0  0  0
  139.7730   73.4920  222.3570 N   0  0  0  0  0  0  0  0  0  0  0  0
  140.3090   72.1560  222.4360 C   0  0  0  0  0  0  0  0  0  0  0  0
  140.8410   71.6700  221.4050 O   0  0  0  0  0  0  0  0  0  0  0  0
  140.2220   71.4130  223.6870 C   0  0  0  0  0  0  0  0  0  0  0  0
  139.6420   70.1620  223.6590 C   0  0  0  0  0  0  0  0  0  0  0  0
  139.5320   69.4130  224.8090 C   0  0  0  0  0  0  0  0  0  0  0  0
  140.0070   69.9230  226.0000 C   0  0  0  0  0  0  0  0  0  0  0  0
  139.8810   69.1510  227.1250 C   0  0  0  0  0  0  0  0  0  0  0  0
  140.3580   69.6670  228.3120 C   0  0  0  0  0  0  0  0  0  0  0  0
  140.9340   70.9190  228.3210 C   0  0  0  0  0  0  0  0  0  0  0  0
  141.0660   71.7040  227.1930 C   0  0  0  0  0  0  0  0  0  0  0  0
  140.5870   71.1840  226.0080 C   0  0  0  0  0  0  0  0  0  0  0  0
  140.6780   71.8880  224.8620 N   0  0  0  0  0  0  0  0  0  0  0  0
  146.3700   72.0826  219.3889 H   0  0  0  0  0  0  0  0  0  0  0  0
  144.9849   71.8440  218.2703 H   0  0  0  0  0  0  0  0  0  0  0  0
  145.8815   73.4005  218.2703 H   0  0  0  0  0  0  0  0  0  0  0  0
  145.2231   73.7103  221.9266 H   0  0  0  0  0  0  0  0  0  0  0  0
  146.5345   73.7183  220.6991 H   0  0  0  0  0  0  0  0  0  0  0  0
  145.2963   75.0197  220.6991 H   0  0  0  0  0  0  0  0  0  0  0  0
  144.2233   72.2274  221.8721 H   0  0  0  0  0  0  0  0  0  0  0  0
  143.0498   71.7459  220.6001 H   0  0  0  0  0  0  0  0  0  0  0  0
  144.7081   71.0554  220.6001 H   0  0  0  0  0  0  0  0  0  0  0  0
  143.7115   74.9882  219.8456 H   0  0  0  0  0  0  0  0  0  0  0  0
  143.3906   73.7759  218.4392 H   0  0  0  0  0  0  0  0  0  0  0  0
  141.7710   72.7130  219.7600 H   0  0  0  0  0  0  0  0  0  0  0  0
  139.3039   75.0882  221.1562 H   0  0  0  0  0  0  0  0  0  0  0  0
  139.5367   73.4384  220.3501 H   0  0  0  0  0  0  0  0  0  0  0  0
  139.3460   73.8500  223.2270 H   0  0  0  0  0  0  0  0  0  0  0  0
  139.2635   69.7586  222.7082 H   0  0  0  0  0  0  0  0  0  0  0  0
  139.0690   68.4157  224.7786 H   0  0  0  0  0  0  0  0  0  0  0  0
  139.4159   68.1550  227.0831 H   0  0  0  0  0  0  0  0  0  0  0  0
  140.2794   69.0850  229.2421 H   0  0  0  0  0  0  0  0  0  0  0  0
  141.3082   71.3136  229.2772 H   0  0  0  0  0  0  0  0  0  0  0  0
  141.5321   72.6994  227.2369 H   0  0  0  0  0  0  0  0  0  0  0  0
  1  2  1  0
  2  3  1  0
  2  4  1  0
  2  5  1  0
  5  6  1  0
  6  7  1  0
  7  8  2  0
  7  9  1  0
  9 10  1  0
 10 11  1  0
 11 12  2  0
 11 13  1  0
 13 14  2  0
 14 15  1  0
 15 16  2  0
 16 17  1  0
 17 18  2  0
 18 19  1  0
 19 20  2  0
 20 21  1  0
 21 22  2  0
 22 13  1  0
 21 16  1  0
  1 23  1  0
  1 24  1  0
  1 25  1  0
  3 26  1  0
  3 27  1  0
  3 28  1  0
  4 29  1  0
  4 30  1  0
  4 31  1  0
  5 32  1  0
  5 33  1  0
  6 34  1  0
  9 35  1  0
  9 36  1  0
 10 37  1  0
 14 38  1  0
 15 39  1  0
 17 40  1  0
 18 41  1  0
 19 42  1  0
 20 43  1  0
M  END
>  <smiles>  (50) 
CC(C)(C)CNC(=O)CNC(=O)c1ccc2ccccc2n1

>  <score_type>  (50) 
oracle

>  <origin>  (50) 
autodockgpu

>  <m_score__min__energy>  (50) 
-7.5099999999999998

>  <m_primary>  (50) 
energy

>  <rmsd>  (50) 
3.215717404668638

>  <m_score__min__rmsd>  (50) 
3.215717404668638

>  <meeko>  (50) 
{"free_energy": -6.73, "intermolecular_energy": -8.22, "internal_energy": -1.67, "cluster_size": 41, "cluster_id": 2, "rank_in_cluster": 35}

>  <energy>  (50) 
-6.31

>  <cluster_rmsd>  (50) 
0.0

>  <cluster>  (50) 
3

$$$$
