
     RDKit          3D

 42 44  0  0  0  0  0  0  0  0999 V2000
  139.9220   69.8050  222.7000 O   0  0  0  0  0  0  0  0  0  0  0  0
  139.5300   70.9710  222.9750 C   0  0  0  0  0  0  0  0  0  0  0  0
  138.4780   71.1750  223.9290 N   0  0  0  0  0  0  0  0  0  0  0  0
  137.9070   70.0300  224.5390 C   0  0  0  0  0  0  0  0  0  0  0  0
  138.8610   69.1030  225.1040 C   0  0  0  0  0  0  0  0  0  0  0  0
  138.8610   67.9400  224.4810 O   0  0  0  0  0  0  0  0  0  0  0  0
  139.7640   69.1800  226.1570 N   0  0  0  0  0  0  0  0  0  0  0  0
  140.6510   68.2830  226.8480 C   0  0  0  0  0  0  0  0  0  0  0  0
  140.3540   68.5430  228.3250 C   0  0  1  0  0  0  0  0  0  0  0  0
  141.3900   68.1120  229.1110 F   0  0  0  0  0  0  0  0  0  0  0  0
  140.3080   70.0670  228.3070 C   0  0  0  0  0  0  0  0  0  0  0  0
  139.9670   70.4590  226.9110 C   0  0  1  0  0  0  0  0  0  0  0  0
  141.0930   71.1730  226.2470 C   0  0  0  0  0  0  0  0  0  0  0  0
  141.6050   70.4430  225.1710 O   0  0  0  0  0  0  0  0  0  0  0  0
  140.1270   72.1580  222.3360 C   0  0  0  0  0  0  0  0  0  0  0  0
  141.2140   72.0240  221.5280 C   0  0  0  0  0  0  0  0  0  0  0  0
  141.8010   73.1170  220.9120 C   0  0  0  0  0  0  0  0  0  0  0  0
  141.2560   74.3790  221.1330 C   0  0  0  0  0  0  0  0  0  0  0  0
  141.8050   75.4980  220.5420 C   0  0  0  0  0  0  0  0  0  0  0  0
  141.2240   76.7200  220.7980 C   0  0  0  0  0  0  0  0  0  0  0  0
  141.8210   78.2170  220.1110 Cl  0  0  0  0  0  0  0  0  0  0  0  0
  140.1250   76.7870  221.6250 C   0  0  0  0  0  0  0  0  0  0  0  0
  139.5810   75.6790  222.2110 C   0  0  0  0  0  0  0  0  0  0  0  0
  140.1580   74.4560  221.9590 C   0  0  0  0  0  0  0  0  0  0  0  0
  139.6140   73.3830  222.5380 N   0  0  0  0  0  0  0  0  0  0  0  0
  138.1880   72.1650  224.1220 H   0  0  0  0  0  0  0  0  0  0  0  0
  137.2406   70.3690  225.3459 H   0  0  0  0  0  0  0  0  0  0  0  0
  137.3816   69.4846  223.7412 H   0  0  0  0  0  0  0  0  0  0  0  0
  140.4355   67.2374  226.5831 H   0  0  0  0  0  0  0  0  0  0  0  0
  141.7078   68.4477  226.5910 H   0  0  0  0  0  0  0  0  0  0  0  0
  139.4576   68.0416  228.7187 H   0  0  0  0  0  0  0  0  0  0  0  0
  139.5396   70.4330  229.0038 H   0  0  0  0  0  0  0  0  0  0  0  0
  141.2698   70.4995  228.6199 H   0  0  0  0  0  0  0  0  0  0  0  0
  139.0872   71.1191  226.9232 H   0  0  0  0  0  0  0  0  0  0  0  0
  140.7315   72.1445  225.8789 H   0  0  0  0  0  0  0  0  0  0  0  0
  141.8977   71.3058  226.9851 H   0  0  0  0  0  0  0  0  0  0  0  0
  140.9080   70.0590  224.6080 H   0  0  0  0  0  0  0  0  0  0  0  0
  141.6370   71.0226  221.3599 H   0  0  0  0  0  0  0  0  0  0  0  0
  142.6793   72.9906  220.2619 H   0  0  0  0  0  0  0  0  0  0  0  0
  142.6829   75.4164  219.8842 H   0  0  0  0  0  0  0  0  0  0  0  0
  139.6684   77.7684  221.8210 H   0  0  0  0  0  0  0  0  0  0  0  0
  138.7030   75.7630  222.8683 H   0  0  0  0  0  0  0  0  0  0  0  0
  1  2  2  0
  2  3  1  0
  3  4  1  0
  4  5  1  0
  5  6  2  0
  5  7  1  0
  7  8  1  0
  8  9  1  0
  9 10  1  0
  9 11  1  0
 11 12  1  0
 12 13  1  0
 13 14  1  0
  2 15  1  0
 15 16  2  0
 16 17  1  0
 17 18  2  0
 18 19  1  0
 19 20  2  0
 20 21  1  0
 20 22  1  0
 22 23  2  0
 23 24  1  0
 24 25  2  0
 12  7  1  0
 25 15  1  0
 24 18  1  0
  3 26  1  0
  4 27  1  0
  4 28  1  0
  8 29  1  0
  8 30  1  0
  9 31  1  1
 11 32  1  0
 11 33  1  0
 12 34  1  1
 13 35  1  0
 13 36  1  0
 14 37  1  0
 16 38  1  0
 17 39  1  0
 19 40  1  0
 22 41  1  0
 23 42  1  0
M  END
>  <smiles>  (1) 
O=C(NCC(=O)N1C[C@@H](F)C[C@H]1CO)c1ccc2cc(Cl)ccc2n1

>  <score_type>  (1) 
oracle

>  <origin>  (1) 
autodockgpu

>  <m_score__min__energy>  (1) 
-7.0099999999999998

>  <m_primary>  (1) 
energy

>  <rmsd>  (1) 
8.340737489330907

>  <m_score__min__rmsd>  (1) 
8.340737489330907

>  <meeko>  (1) 
{"free_energy": -6.38, "intermolecular_energy": -8.17, "internal_energy": -2.23, "cluster_size": 20, "cluster_id": 2, "rank_in_cluster": 8}

>  <energy>  (1) 
-7.01

>  <cluster_rmsd>  (1) 
0.0

>  <cluster>  (1) 
1

$$$$

     RDKit          3D

 42 44  0  0  0  0  0  0  0  0999 V2000
  137.5370   71.2640  220.8720 O   0  0  0  0  0  0  0  0  0  0  0  0
  138.0060   71.7960  221.9150 C   0  0  0  0  0  0  0  0  0  0  0  0
  138.1330   73.2220  222.0070 N   0  0  0  0  0  0  0  0  0  0  0  0
  137.7160   73.9960  220.8940 C   0  0  0  0  0  0  0  0  0  0  0  0
  138.7780   74.3930  219.9980 C   0  0  0  0  0  0  0  0  0  0  0  0
  138.3800   74.4480  218.7420 O   0  0  0  0  0  0  0  0  0  0  0  0
  140.1150   74.7210  220.1830 N   0  0  0  0  0  0  0  0  0  0  0  0
  140.8740   75.9040  220.4890 C   0  0  0  0  0  0  0  0  0  0  0  0
  141.9960   75.8950  219.4500 C   0  0  1  0  0  0  0  0  0  0  0  0
  143.0400   76.6820  219.8590 F   0  0  0  0  0  0  0  0  0  0  0  0
  142.3900   74.4240  219.5190 C   0  0  0  0  0  0  0  0  0  0  0  0
  141.1930   73.6930  220.0220 C   0  0  1  0  0  0  0  0  0  0  0  0
  141.4300   73.1070  221.3700 C   0  0  0  0  0  0  0  0  0  0  0  0
  140.6230   73.7060  222.3430 O   0  0  0  0  0  0  0  0  0  0  0  0
  138.4390   70.9850  223.0670 C   0  0  0  0  0  0  0  0  0  0  0  0
  138.0570   69.6830  223.1680 C   0  0  0  0  0  0  0  0  0  0  0  0
  138.4450   68.8930  224.2380 C   0  0  0  0  0  0  0  0  0  0  0  0
  139.2460   69.4560  225.2270 C   0  0  0  0  0  0  0  0  0  0  0  0
  139.6580   68.7090  226.3110 C   0  0  0  0  0  0  0  0  0  0  0  0
  140.4490   69.3200  227.2600 C   0  0  0  0  0  0  0  0  0  0  0  0
  141.0400   68.4860  228.6820 Cl  0  0  0  0  0  0  0  0  0  0  0  0
  140.8000   70.6420  227.0980 C   0  0  0  0  0  0  0  0  0  0  0  0
  140.3930   71.3820  226.0240 C   0  0  0  0  0  0  0  0  0  0  0  0
  139.6020   70.7770  225.0750 C   0  0  0  0  0  0  0  0  0  0  0  0
  139.2120   71.5130  224.0310 N   0  0  0  0  0  0  0  0  0  0  0  0
  138.5300   73.6150  222.8960 H   0  0  0  0  0  0  0  0  0  0  0  0
  136.9876   73.4046  220.3199 H   0  0  0  0  0  0  0  0  0  0  0  0
  137.2946   74.9254  221.3045 H   0  0  0  0  0  0  0  0  0  0  0  0
  140.2525   76.8059  220.3871 H   0  0  0  0  0  0  0  0  0  0  0  0
  141.2507   75.9128  221.5225 H   0  0  0  0  0  0  0  0  0  0  0  0
  141.7168   76.2693  218.4540 H   0  0  0  0  0  0  0  0  0  0  0  0
  142.6683   74.0571  218.5200 H   0  0  0  0  0  0  0  0  0  0  0  0
  143.2569   74.2731  220.1791 H   0  0  0  0  0  0  0  0  0  0  0  0
  140.9413   72.8820  219.3227 H   0  0  0  0  0  0  0  0  0  0  0  0
  141.2069   72.0304  221.3351 H   0  0  0  0  0  0  0  0  0  0  0  0
  142.4816   73.2828  221.6406 H   0  0  0  0  0  0  0  0  0  0  0  0
  140.1600   73.0560  222.9030 H   0  0  0  0  0  0  0  0  0  0  0  0
  137.4246   69.2469  222.3807 H   0  0  0  0  0  0  0  0  0  0  0  0
  138.1264   67.8422  224.3044 H   0  0  0  0  0  0  0  0  0  0  0  0
  139.3633   67.6544  226.4152 H   0  0  0  0  0  0  0  0  0  0  0  0
  141.4314   71.1197  227.8616 H   0  0  0  0  0  0  0  0  0  0  0  0
  140.6906   72.4359  225.9207 H   0  0  0  0  0  0  0  0  0  0  0  0
  1  2  2  0
  2  3  1  0
  3  4  1  0
  4  5  1  0
  5  6  2  0
  5  7  1  0
  7  8  1  0
  8  9  1  0
  9 10  1  0
  9 11  1  0
 11 12  1  0
 12 13  1  0
 13 14  1  0
  2 15  1  0
 15 16  2  0
 16 17  1  0
 17 18  2  0
 18 19  1  0
 19 20  2  0
 20 21  1  0
 20 22  1  0
 22 23  2  0
 23 24  1  0
 24 25  2  0
 12  7  1  0
 25 15  1  0
 24 18  1  0
  3 26  1  0
  4 27  1  0
  4 28  1  0
  8 29  1  0
  8 30  1  0
  9 31  1  6
 11 32  1  0
 11 33  1  0
 12 34  1  6
 13 35  1  0
 13 36  1  0
 14 37  1  0
 16 38  1  0
 17 39  1  0
 19 40  1  0
 22 41  1  0
 23 42  1  0
M  END
>  <smiles>  (2) 
O=C(NCC(=O)N1C[C@@H](F)C[C@H]1CO)c1ccc2cc(Cl)ccc2n1

>  <score_type>  (2) 
oracle

>  <origin>  (2) 
autodockgpu

>  <m_score__min__energy>  (2) 
-7.0099999999999998

>  <m_primary>  (2) 
energy

>  <rmsd>  (2) 
2.2017827731279884

>  <m_score__min__rmsd>  (2) 
2.2017827731279884

>  <meeko>  (2) 
{"free_energy": -5.52, "intermolecular_energy": -7.31, "internal_energy": -2.8, "cluster_size": 6, "cluster_id": 5, "rank_in_cluster": 5}

>  <energy>  (2) 
-6.91

>  <cluster_rmsd>  (2) 
1.1

>  <cluster>  (2) 
1

$$$$

     RDKit          3D

 42 44  0  0  0  0  0  0  0  0999 V2000
  140.2000   72.6350  220.7810 O   0  0  0  0  0  0  0  0  0  0  0  0
  139.9350   72.9410  221.9750 C   0  0  0  0  0  0  0  0  0  0  0  0
  139.5840   74.2890  222.3160 N   0  0  0  0  0  0  0  0  0  0  0  0
  139.5480   75.2480  221.2720 C   0  0  0  0  0  0  0  0  0  0  0  0
  139.2740   76.6010  221.6990 C   0  0  0  0  0  0  0  0  0  0  0  0
  138.0920   76.7160  222.2740 O   0  0  0  0  0  0  0  0  0  0  0  0
  139.9850   77.7920  221.6270 N   0  0  0  0  0  0  0  0  0  0  0  0
  140.2910   78.7730  220.6200 C   0  0  0  0  0  0  0  0  0  0  0  0
  141.8000   78.9770  220.7570 C   0  0  1  0  0  0  0  0  0  0  0  0
  142.1800   80.1680  220.1970 F   0  0  0  0  0  0  0  0  0  0  0  0
  141.9060   79.0540  222.2760 C   0  0  0  0  0  0  0  0  0  0  0  0
  140.7240   78.3260  222.8150 C   0  0  1  0  0  0  0  0  0  0  0  0
  139.7870   79.2420  223.5250 C   0  0  0  0  0  0  0  0  0  0  0  0
  138.4600   79.0220  223.1420 O   0  0  0  0  0  0  0  0  0  0  0  0
  139.9760   71.9400  223.0560 C   0  0  0  0  0  0  0  0  0  0  0  0
  139.5250   70.6750  222.8330 C   0  0  0  0  0  0  0  0  0  0  0  0
  139.5480   69.7100  223.8260 C   0  0  0  0  0  0  0  0  0  0  0  0
  140.0480   70.0540  225.0790 C   0  0  0  0  0  0  0  0  0  0  0  0
  140.0910   69.1270  226.1000 C   0  0  0  0  0  0  0  0  0  0  0  0
  140.5950   69.5250  227.3190 C   0  0  0  0  0  0  0  0  0  0  0  0
  140.7070   68.4480  228.6960 Cl  0  0  0  0  0  0  0  0  0  0  0  0
  141.0360   70.8200  227.4790 C   0  0  0  0  0  0  0  0  0  0  0  0
  140.9930   71.7390  226.4680 C   0  0  0  0  0  0  0  0  0  0  0  0
  140.4900   71.3470  225.2490 C   0  0  0  0  0  0  0  0  0  0  0  0
  140.4550   72.2550  224.2710 N   0  0  0  0  0  0  0  0  0  0  0  0
  139.3740   74.4930  223.3240 H   0  0  0  0  0  0  0  0  0  0  0  0
  140.5251   75.2402  220.7668 H   0  0  0  0  0  0  0  0  0  0  0  0
  138.7158   74.9572  220.6140 H   0  0  0  0  0  0  0  0  0  0  0  0
  140.0355   78.3987  219.6177 H   0  0  0  0  0  0  0  0  0  0  0  0
  139.7221   79.7058  220.7477 H   0  0  0  0  0  0  0  0  0  0  0  0
  142.4233   78.2111  220.2722 H   0  0  0  0  0  0  0  0  0  0  0  0
  142.8360   78.5760  222.6176 H   0  0  0  0  0  0  0  0  0  0  0  0
  141.9251   80.0977  222.6230 H   0  0  0  0  0  0  0  0  0  0  0  0
  141.0644   77.5519  223.5185 H   0  0  0  0  0  0  0  0  0  0  0  0
  139.8778   79.0752  224.6085 H   0  0  0  0  0  0  0  0  0  0  0  0
  140.0531   80.2764  223.2621 H   0  0  0  0  0  0  0  0  0  0  0  0
  138.3650   78.8580  222.1860 H   0  0  0  0  0  0  0  0  0  0  0  0
  139.1326   70.4129  221.8394 H   0  0  0  0  0  0  0  0  0  0  0  0
  139.1789   68.6927  223.6288 H   0  0  0  0  0  0  0  0  0  0  0  0
  139.7328   68.0986  225.9451 H   0  0  0  0  0  0  0  0  0  0  0  0
  141.4376   71.1260  228.4563 H   0  0  0  0  0  0  0  0  0  0  0  0
  141.3518   72.7669  226.6253 H   0  0  0  0  0  0  0  0  0  0  0  0
  1  2  2  0
  2  3  1  0
  3  4  1  0
  4  5  1  0
  5  6  2  0
  5  7  1  0
  7  8  1  0
  8  9  1  0
  9 10  1  0
  9 11  1  0
 11 12  1  0
 12 13  1  0
 13 14  1  0
  2 15  1  0
 15 16  2  0
 16 17  1  0
 17 18  2  0
 18 19  1  0
 19 20  2  0
 20 21  1  0
 20 22  1  0
 22 23  2  0
 23 24  1  0
 24 25  2  0
 12  7  1  0
 25 15  1  0
 24 18  1  0
  3 26  1  0
  4 27  1  0
  4 28  1  0
  8 29  1  0
  8 30  1  0
  9 31  1  6
 11 32  1  0
 11 33  1  0
 12 34  1  1
 13 35  1  0
 13 36  1  0
 14 37  1  0
 16 38  1  0
 17 39  1  0
 19 40  1  0
 22 41  1  0
 23 42  1  0
M  END
>  <smiles>  (3) 
O=C(NCC(=O)N1C[C@@H](F)C[C@H]1CO)c1ccc2cc(Cl)ccc2n1

>  <score_type>  (3) 
oracle

>  <origin>  (3) 
autodockgpu

>  <m_score__min__energy>  (3) 
-7.0099999999999998

>  <m_primary>  (3) 
energy

>  <rmsd>  (3) 
2.8697859300076933

>  <m_score__min__rmsd>  (3) 
2.8697859300076933

>  <meeko>  (3) 
{"free_energy": -6.36, "intermolecular_energy": -8.15, "internal_energy": -1.69, "cluster_size": 15, "cluster_id": 1, "rank_in_cluster": 7}

>  <energy>  (3) 
-6.48

>  <cluster_rmsd>  (3) 
1.75

>  <cluster>  (3) 
1

$$$$

     RDKit          3D

 42 44  0  0  0  0  0  0  0  0999 V2000
  139.7660   69.8440  221.8170 O   0  0  0  0  0  0  0  0  0  0  0  0
  139.5720   70.9210  222.4440 C   0  0  0  0  0  0  0  0  0  0  0  0
  138.7780   70.9310  223.6380 N   0  0  0  0  0  0  0  0  0  0  0  0
  138.2290   69.6990  224.0780 C   0  0  0  0  0  0  0  0  0  0  0  0
  139.1360   68.8660  224.8350 C   0  0  0  0  0  0  0  0  0  0  0  0
  139.1800   67.6290  224.3780 O   0  0  0  0  0  0  0  0  0  0  0  0
  139.9570   69.0930  225.9320 N   0  0  0  0  0  0  0  0  0  0  0  0
  140.8420   68.3190  226.7590 C   0  0  0  0  0  0  0  0  0  0  0  0
  140.4280   68.6900  228.1840 C   0  0  1  0  0  0  0  0  0  0  0  0
  141.4290   68.3960  229.0710 F   0  0  0  0  0  0  0  0  0  0  0  0
  140.2970   70.2010  228.0210 C   0  0  0  0  0  0  0  0  0  0  0  0
  140.0330   70.4440  226.5750 C   0  0  1  0  0  0  0  0  0  0  0  0
  141.1600   71.1660  225.9220 C   0  0  0  0  0  0  0  0  0  0  0  0
  140.7310   71.8960  224.8090 O   0  0  0  0  0  0  0  0  0  0  0  0
  140.1450   72.1980  221.9800 C   0  0  0  0  0  0  0  0  0  0  0  0
  141.2390   72.2020  221.1710 C   0  0  0  0  0  0  0  0  0  0  0  0
  141.8030   73.3830  220.7180 C   0  0  0  0  0  0  0  0  0  0  0  0
  141.2270   74.5890  221.1060 C   0  0  0  0  0  0  0  0  0  0  0  0
  141.7530   75.7910  220.6800 C   0  0  0  0  0  0  0  0  0  0  0  0
  141.1410   76.9530  221.0970 C   0  0  0  0  0  0  0  0  0  0  0  0
  141.7060   78.5440  220.6290 Cl  0  0  0  0  0  0  0  0  0  0  0  0
  140.0350   76.8800  221.9160 C   0  0  0  0  0  0  0  0  0  0  0  0
  139.5140   75.6890  222.3380 C   0  0  0  0  0  0  0  0  0  0  0  0
  140.1220   74.5260  221.9250 C   0  0  0  0  0  0  0  0  0  0  0  0
  139.6010   73.3710  222.3450 N   0  0  0  0  0  0  0  0  0  0  0  0
  138.6460   71.8530  224.1220 H   0  0  0  0  0  0  0  0  0  0  0  0
  137.3576   69.9199  224.7120 H   0  0  0  0  0  0  0  0  0  0  0  0
  137.9736   69.1326  223.1703 H   0  0  0  0  0  0  0  0  0  0  0  0
  140.7052   67.2425  226.5789 H   0  0  0  0  0  0  0  0  0  0  0  0
  141.9032   68.5265  226.5568 H   0  0  0  0  0  0  0  0  0  0  0  0
  139.5361   68.1706  228.5646 H   0  0  0  0  0  0  0  0  0  0  0  0
  139.4621   70.5788  228.6294 H   0  0  0  0  0  0  0  0  0  0  0  0
  141.2082   70.7196  228.3538 H   0  0  0  0  0  0  0  0  0  0  0  0
  139.1179   71.0450  226.4684 H   0  0  0  0  0  0  0  0  0  0  0  0
  141.6099   71.8572  226.6498 H   0  0  0  0  0  0  0  0  0  0  0  0
  141.8933   70.4203  225.5811 H   0  0  0  0  0  0  0  0  0  0  0  0
  139.9480   72.4450  224.9960 H   0  0  0  0  0  0  0  0  0  0  0  0
  141.6865   71.2435  220.8693 H   0  0  0  0  0  0  0  0  0  0  0  0
  142.6880   73.3681  220.0649 H   0  0  0  0  0  0  0  0  0  0  0  0
  142.6366   75.8210  220.0255 H   0  0  0  0  0  0  0  0  0  0  0  0
  139.5541   77.8141  222.2419 H   0  0  0  0  0  0  0  0  0  0  0  0
  138.6300   75.6610  222.9920 H   0  0  0  0  0  0  0  0  0  0  0  0
  1  2  2  0
  2  3  1  0
  3  4  1  0
  4  5  1  0
  5  6  2  0
  5  7  1  0
  7  8  1  0
  8  9  1  0
  9 10  1  0
  9 11  1  0
 11 12  1  0
 12 13  1  0
 13 14  1  0
  2 15  1  0
 15 16  2  0
 16 17  1  0
 17 18  2  0
 18 19  1  0
 19 20  2  0
 20 21  1  0
 20 22  1  0
 22 23  2  0
 23 24  1  0
 24 25  2  0
 12  7  1  0
 25 15  1  0
 24 18  1  0
  3 26  1  0
  4 27  1  0
  4 28  1  0
  8 29  1  0
  8 30  1  0
  9 31  1  1
 11 32  1  0
 11 33  1  0
 12 34  1  1
 13 35  1  0
 13 36  1  0
 14 37  1  0
 16 38  1  0
 17 39  1  0
 19 40  1  0
 22 41  1  0
 23 42  1  0
M  END
>  <smiles>  (4) 
O=C(NCC(=O)N1C[C@@H](F)C[C@H]1CO)c1ccc2cc(Cl)ccc2n1

>  <score_type>  (4) 
oracle

>  <origin>  (4) 
autodockgpu

>  <m_score__min__energy>  (4) 
-7.0099999999999998

>  <m_primary>  (4) 
energy

>  <rmsd>  (4) 
8.27577931487362

>  <m_score__min__rmsd>  (4) 
8.27577931487362

>  <meeko>  (4) 
{"free_energy": -6.5, "intermolecular_energy": -8.29, "internal_energy": -1.96, "cluster_size": 20, "cluster_id": 2, "rank_in_cluster": 2}

>  <energy>  (4) 
-6.44

>  <cluster_rmsd>  (4) 
1.31

>  <cluster>  (4) 
1

$$$$

     RDKit          3D

 42 44  0  0  0  0  0  0  0  0999 V2000
  139.9360   69.8890  222.3710 O   0  0  0  0  0  0  0  0  0  0  0  0
  139.6240   71.0340  222.7970 C   0  0  0  0  0  0  0  0  0  0  0  0
  138.6900   71.1750  223.8760 N   0  0  0  0  0  0  0  0  0  0  0  0
  138.1410   69.9930  224.4360 C   0  0  0  0  0  0  0  0  0  0  0  0
  139.1060   69.1020  225.0380 C   0  0  0  0  0  0  0  0  0  0  0  0
  139.1540   67.9310  224.4330 O   0  0  0  0  0  0  0  0  0  0  0  0
  139.9800   69.2190  226.1120 N   0  0  0  0  0  0  0  0  0  0  0  0
  140.9870   68.4070  226.7400 C   0  0  0  0  0  0  0  0  0  0  0  0
  140.6430   68.4870  228.2290 C   0  0  1  0  0  0  0  0  0  0  0  0
  141.7260   68.1480  228.9950 F   0  0  0  0  0  0  0  0  0  0  0  0
  140.3680   69.9830  228.3410 C   0  0  0  0  0  0  0  0  0  0  0  0
  139.9810   70.4410  226.9780 C   0  0  1  0  0  0  0  0  0  0  0  0
  140.9920   71.3720  226.4020 C   0  0  0  0  0  0  0  0  0  0  0  0
  141.4720   72.2710  227.3600 O   0  0  0  0  0  0  0  0  0  0  0  0
  140.1970   72.2590  222.2110 C   0  0  0  0  0  0  0  0  0  0  0  0
  141.2870   72.1830  221.4000 C   0  0  0  0  0  0  0  0  0  0  0  0
  141.8520   73.3140  220.8330 C   0  0  0  0  0  0  0  0  0  0  0  0
  141.2800   74.5530  221.1070 C   0  0  0  0  0  0  0  0  0  0  0  0
  141.8070   75.7080  220.5650 C   0  0  0  0  0  0  0  0  0  0  0  0
  141.2000   76.9050  220.8720 C   0  0  0  0  0  0  0  0  0  0  0  0
  141.7660   78.4420  220.2510 Cl  0  0  0  0  0  0  0  0  0  0  0  0
  140.0980   76.9140  221.6990 C   0  0  0  0  0  0  0  0  0  0  0  0
  139.5770   75.7710  222.2360 C   0  0  0  0  0  0  0  0  0  0  0  0
  140.1800   74.5720  221.9330 C   0  0  0  0  0  0  0  0  0  0  0  0
  139.6580   73.4640  222.4650 N   0  0  0  0  0  0  0  0  0  0  0  0
  138.4620   72.1500  224.1930 H   0  0  0  0  0  0  0  0  0  0  0  0
  137.4164   70.2858  225.2101 H   0  0  0  0  0  0  0  0  0  0  0  0
  137.6858   69.4383  223.6023 H   0  0  0  0  0  0  0  0  0  0  0  0
  140.9337   67.3687  226.3806 H   0  0  0  0  0  0  0  0  0  0  0  0
  142.0087   68.7501  226.5201 H   0  0  0  0  0  0  0  0  0  0  0  0
  139.8299   67.8242  228.5600 H   0  0  0  0  0  0  0  0  0  0  0  0
  139.5487   70.1673  229.0515 H   0  0  0  0  0  0  0  0  0  0  0  0
  141.2517   70.5251  228.7086 H   0  0  0  0  0  0  0  0  0  0  0  0
  139.0109   70.9570  227.0291 H   0  0  0  0  0  0  0  0  0  0  0  0
  141.8354   70.7845  226.0102 H   0  0  0  0  0  0  0  0  0  0  0  0
  140.5087   71.9502  225.6007 H   0  0  0  0  0  0  0  0  0  0  0  0
  140.8430   72.9900  227.5520 H   0  0  0  0  0  0  0  0  0  0  0  0
  141.7308   71.1988  221.1892 H   0  0  0  0  0  0  0  0  0  0  0  0
  142.7338   73.2344  220.1802 H   0  0  0  0  0  0  0  0  0  0  0  0
  142.6873   75.6730  219.9063 H   0  0  0  0  0  0  0  0  0  0  0  0
  139.6205   77.8763  221.9354 H   0  0  0  0  0  0  0  0  0  0  0  0
  138.6968   75.8083  222.8946 H   0  0  0  0  0  0  0  0  0  0  0  0
  1  2  2  0
  2  3  1  0
  3  4  1  0
  4  5  1  0
  5  6  2  0
  5  7  1  0
  7  8  1  0
  8  9  1  0
  9 10  1  0
  9 11  1  0
 11 12  1  0
 12 13  1  0
 13 14  1  0
  2 15  1  0
 15 16  2  0
 16 17  1  0
 17 18  2  0
 18 19  1  0
 19 20  2  0
 20 21  1  0
 20 22  1  0
 22 23  2  0
 23 24  1  0
 24 25  2  0
 12  7  1  0
 25 15  1  0
 24 18  1  0
  3 26  1  0
  4 27  1  0
  4 28  1  0
  8 29  1  0
  8 30  1  0
  9 31  1  6
 11 32  1  0
 11 33  1  0
 12 34  1  1
 13 35  1  0
 13 36  1  0
 14 37  1  0
 16 38  1  0
 17 39  1  0
 19 40  1  0
 22 41  1  0
 23 42  1  0
M  END
>  <smiles>  (5) 
O=C(NCC(=O)N1C[C@@H](F)C[C@H]1CO)c1ccc2cc(Cl)ccc2n1

>  <score_type>  (5) 
oracle

>  <origin>  (5) 
autodockgpu

>  <m_score__min__energy>  (5) 
-7.0099999999999998

>  <m_primary>  (5) 
energy

>  <rmsd>  (5) 
8.37292400209

>  <m_score__min__rmsd>  (5) 
8.37292400209

>  <meeko>  (5) 
{"free_energy": -6.76, "intermolecular_energy": -8.55, "internal_energy": -1.36, "cluster_size": 20, "cluster_id": 2, "rank_in_cluster": 1}

>  <energy>  (5) 
-6.42

>  <cluster_rmsd>  (5) 
1.65

>  <cluster>  (5) 
1

$$$$

     RDKit          3D

 42 44  0  0  0  0  0  0  0  0999 V2000
  135.6760   68.5160  224.3150 O   0  0  0  0  0  0  0  0  0  0  0  0
  136.0690   69.6580  224.6780 C   0  0  0  0  0  0  0  0  0  0  0  0
  137.4230   70.0660  224.4430 N   0  0  0  0  0  0  0  0  0  0  0  0
  138.2890   69.1470  223.7960 C   0  0  0  0  0  0  0  0  0  0  0  0
  139.1410   68.3890  224.6820 C   0  0  0  0  0  0  0  0  0  0  0  0
  139.1970   67.1120  224.3550 O   0  0  0  0  0  0  0  0  0  0  0  0
  139.9020   68.7200  225.7970 N   0  0  0  0  0  0  0  0  0  0  0  0
  141.0390   68.1780  226.4910 C   0  0  0  0  0  0  0  0  0  0  0  0
  140.6050   68.1830  227.9580 C   0  0  1  0  0  0  0  0  0  0  0  0
  141.6960   68.1190  228.7850 F   0  0  0  0  0  0  0  0  0  0  0  0
  139.9740   69.5690  228.0280 C   0  0  0  0  0  0  0  0  0  0  0  0
  139.5630   69.9120  226.6380 C   0  0  1  0  0  0  0  0  0  0  0  0
  140.3500   71.0550  226.0960 C   0  0  0  0  0  0  0  0  0  0  0  0
  139.8180   71.5230  224.8910 O   0  0  0  0  0  0  0  0  0  0  0  0
  135.1640   70.6080  225.3510 C   0  0  0  0  0  0  0  0  0  0  0  0
  134.2780   70.1640  226.2840 C   0  0  0  0  0  0  0  0  0  0  0  0
  133.4140   71.0290  226.9340 C   0  0  0  0  0  0  0  0  0  0  0  0
  133.4620   72.3830  226.6180 C   0  0  0  0  0  0  0  0  0  0  0  0
  132.6210   73.2830  227.2390 C   0  0  0  0  0  0  0  0  0  0  0  0
  132.7140   74.6110  226.8850 C   0  0  0  0  0  0  0  0  0  0  0  0
  131.7070   75.8550  227.5970 Cl  0  0  0  0  0  0  0  0  0  0  0  0
  133.6330   74.9950  225.9330 C   0  0  0  0  0  0  0  0  0  0  0  0
  134.4660   74.1040  225.3170 C   0  0  0  0  0  0  0  0  0  0  0  0
  134.3770   72.7770  225.6670 C   0  0  0  0  0  0  0  0  0  0  0  0
  135.1980   71.9190  225.0570 N   0  0  0  0  0  0  0  0  0  0  0  0
  137.7010   71.0260  224.7640 H   0  0  0  0  0  0  0  0  0  0  0  0
  137.6708   68.4376  223.2263 H   0  0  0  0  0  0  0  0  0  0  0  0
  138.9584   69.7470  223.1620 H   0  0  0  0  0  0  0  0  0  0  0  0
  141.2558   67.1550  226.1496 H   0  0  0  0  0  0  0  0  0  0  0  0
  141.9593   68.7548  226.3169 H   0  0  0  0  0  0  0  0  0  0  0  0
  139.9570   67.3468  228.2593 H   0  0  0  0  0  0  0  0  0  0  0  0
  139.0971   69.5552  228.6920 H   0  0  0  0  0  0  0  0  0  0  0  0
  140.6804   70.3100  228.4304 H   0  0  0  0  0  0  0  0  0  0  0  0
  138.4962   70.1801  226.6299 H   0  0  0  0  0  0  0  0  0  0  0  0
  140.3425   71.8735  226.8309 H   0  0  0  0  0  0  0  0  0  0  0  0
  141.3756   70.7059  225.9057 H   0  0  0  0  0  0  0  0  0  0  0  0
  138.9230   71.8960  224.9920 H   0  0  0  0  0  0  0  0  0  0  0  0
  134.2476   69.0917  226.5276 H   0  0  0  0  0  0  0  0  0  0  0  0
  132.7038   70.6531  227.6853 H   0  0  0  0  0  0  0  0  0  0  0  0
  131.8960   72.9494  227.9961 H   0  0  0  0  0  0  0  0  0  0  0  0
  133.6986   76.0582  225.6587 H   0  0  0  0  0  0  0  0  0  0  0  0
  135.1899   74.4398  224.5599 H   0  0  0  0  0  0  0  0  0  0  0  0
  1  2  2  0
  2  3  1  0
  3  4  1  0
  4  5  1  0
  5  6  2  0
  5  7  1  0
  7  8  1  0
  8  9  1  0
  9 10  1  0
  9 11  1  0
 11 12  1  0
 12 13  1  0
 13 14  1  0
  2 15  1  0
 15 16  2  0
 16 17  1  0
 17 18  2  0
 18 19  1  0
 19 20  2  0
 20 21  1  0
 20 22  1  0
 22 23  2  0
 23 24  1  0
 24 25  2  0
 12  7  1  0
 25 15  1  0
 24 18  1  0
  3 26  1  0
  4 27  1  0
  4 28  1  0
  8 29  1  0
  8 30  1  0
  9 31  1  6
 11 32  1  0
 11 33  1  0
 12 34  1  1
 13 35  1  0
 13 36  1  0
 14 37  1  0
 16 38  1  0
 17 39  1  0
 19 40  1  0
 22 41  1  0
 23 42  1  0
M  END
>  <smiles>  (6) 
O=C(NCC(=O)N1C[C@@H](F)C[C@H]1CO)c1ccc2cc(Cl)ccc2n1

>  <score_type>  (6) 
oracle

>  <origin>  (6) 
autodockgpu

>  <m_score__min__energy>  (6) 
-7.0099999999999998

>  <m_primary>  (6) 
energy

>  <rmsd>  (6) 
8.534716048008603

>  <m_score__min__rmsd>  (6) 
8.534716048008603

>  <meeko>  (6) 
{"free_energy": -6.42, "intermolecular_energy": -8.21, "internal_energy": -1.85, "cluster_size": 1, "cluster_id": 3, "rank_in_cluster": 1}

>  <energy>  (6) 
-6.36

>  <cluster_rmsd>  (6) 
1.17

>  <cluster>  (6) 
1

$$$$

     RDKit          3D

 42 44  0  0  0  0  0  0  0  0999 V2000
  139.7930   72.5680  220.7450 O   0  0  0  0  0  0  0  0  0  0  0  0
  139.7150   72.9020  221.9590 C   0  0  0  0  0  0  0  0  0  0  0  0
  139.4990   74.2730  222.3200 N   0  0  0  0  0  0  0  0  0  0  0  0
  139.3780   75.2220  221.2730 C   0  0  0  0  0  0  0  0  0  0  0  0
  139.4720   76.6020  221.6900 C   0  0  0  0  0  0  0  0  0  0  0  0
  138.2880   77.1500  221.8840 O   0  0  0  0  0  0  0  0  0  0  0  0
  140.5380   77.4630  221.9230 N   0  0  0  0  0  0  0  0  0  0  0  0
  141.3590   77.8390  223.0430 C   0  0  0  0  0  0  0  0  0  0  0  0
  141.3610   79.3680  222.9940 C   0  0  1  0  0  0  0  0  0  0  0  0
  142.4240   79.8720  223.6970 F   0  0  0  0  0  0  0  0  0  0  0  0
  141.5770   79.5710  221.4990 C   0  0  0  0  0  0  0  0  0  0  0  0
  141.0810   78.3350  220.8330 C   0  0  1  0  0  0  0  0  0  0  0  0
  142.1860   77.5740  220.1870 C   0  0  0  0  0  0  0  0  0  0  0  0
  142.1450   76.2170  220.5230 O   0  0  0  0  0  0  0  0  0  0  0  0
  139.8420   71.9110  223.0430 C   0  0  0  0  0  0  0  0  0  0  0  0
  139.4650   70.6200  222.8350 C   0  0  0  0  0  0  0  0  0  0  0  0
  139.5700   69.6630  223.8310 C   0  0  0  0  0  0  0  0  0  0  0  0
  140.0770   70.0430  225.0710 C   0  0  0  0  0  0  0  0  0  0  0  0
  140.2010   69.1260  226.0940 C   0  0  0  0  0  0  0  0  0  0  0  0
  140.7080   69.5610  227.2990 C   0  0  0  0  0  0  0  0  0  0  0  0
  140.9180   68.5010  228.6770 Cl  0  0  0  0  0  0  0  0  0  0  0  0
  141.0720   70.8820  227.4430 C   0  0  0  0  0  0  0  0  0  0  0  0
  140.9490   71.7900  226.4310 C   0  0  0  0  0  0  0  0  0  0  0  0
  140.4420   71.3620  225.2250 C   0  0  0  0  0  0  0  0  0  0  0  0
  140.3290   72.2610  224.2450 N   0  0  0  0  0  0  0  0  0  0  0  0
  139.4420   74.4990  223.3430 H   0  0  0  0  0  0  0  0  0  0  0  0
  140.1786   75.0301  220.5434 H   0  0  0  0  0  0  0  0  0  0  0  0
  138.3686   75.0937  220.8550 H   0  0  0  0  0  0  0  0  0  0  0  0
  140.9246   77.4773  223.9867 H   0  0  0  0  0  0  0  0  0  0  0  0
  142.3705   77.4096  222.9933 H   0  0  0  0  0  0  0  0  0  0  0  0
  140.4695   79.8531  223.4182 H   0  0  0  0  0  0  0  0  0  0  0  0
  141.0107   80.4462  221.1478 H   0  0  0  0  0  0  0  0  0  0  0  0
  142.6376   79.7506  221.2692 H   0  0  0  0  0  0  0  0  0  0  0  0
  140.3424   78.6078  220.0648 H   0  0  0  0  0  0  0  0  0  0  0  0
  142.0968   77.6738  219.0952 H   0  0  0  0  0  0  0  0  0  0  0  0
  143.1411   77.9869  220.5439 H   0  0  0  0  0  0  0  0  0  0  0  0
  142.4280   76.0450  221.4390 H   0  0  0  0  0  0  0  0  0  0  0  0
  139.0670   70.3292  221.8516 H   0  0  0  0  0  0  0  0  0  0  0  0
  139.2593   68.6241  223.6461 H   0  0  0  0  0  0  0  0  0  0  0  0
  139.9034   68.0766  225.9517 H   0  0  0  0  0  0  0  0  0  0  0  0
  141.4768   71.2175  228.4092 H   0  0  0  0  0  0  0  0  0  0  0  0
  141.2479   72.8386  226.5759 H   0  0  0  0  0  0  0  0  0  0  0  0
  1  2  2  0
  2  3  1  0
  3  4  1  0
  4  5  1  0
  5  6  2  0
  5  7  1  0
  7  8  1  0
  8  9  1  0
  9 10  1  0
  9 11  1  0
 11 12  1  0
 12 13  1  0
 13 14  1  0
  2 15  1  0
 15 16  2  0
 16 17  1  0
 17 18  2  0
 18 19  1  0
 19 20  2  0
 20 21  1  0
 20 22  1  0
 22 23  2  0
 23 24  1  0
 24 25  2  0
 12  7  1  0
 25 15  1  0
 24 18  1  0
  3 26  1  0
  4 27  1  0
  4 28  1  0
  8 29  1  0
  8 30  1  0
  9 31  1  1
 11 32  1  0
 11 33  1  0
 12 34  1  6
 13 35  1  0
 13 36  1  0
 14 37  1  0
 16 38  1  0
 17 39  1  0
 19 40  1  0
 22 41  1  0
 23 42  1  0
M  END
>  <smiles>  (7) 
O=C(NCC(=O)N1C[C@@H](F)C[C@H]1CO)c1ccc2cc(Cl)ccc2n1

>  <score_type>  (7) 
oracle

>  <origin>  (7) 
autodockgpu

>  <m_score__min__energy>  (7) 
-7.0099999999999998

>  <m_primary>  (7) 
energy

>  <rmsd>  (7) 
3.1188265809529727

>  <m_score__min__rmsd>  (7) 
3.1188265809529727

>  <meeko>  (7) 
{"free_energy": -7.01, "intermolecular_energy": -8.8, "internal_energy": -1.23, "cluster_size": 15, "cluster_id": 1, "rank_in_cluster": 1}

>  <energy>  (7) 
-6.36

>  <cluster_rmsd>  (7) 
1.31

>  <cluster>  (7) 
1

$$$$

     RDKit          3D

 42 44  0  0  0  0  0  0  0  0999 V2000
  135.4910   74.1980  221.8450 O   0  0  0  0  0  0  0  0  0  0  0  0
  136.7020   74.2480  222.1960 C   0  0  0  0  0  0  0  0  0  0  0  0
  137.4390   73.0400  222.4270 N   0  0  0  0  0  0  0  0  0  0  0  0
  136.7620   71.8060  222.2480 C   0  0  0  0  0  0  0  0  0  0  0  0
  137.2540   70.7200  223.0640 C   0  0  0  0  0  0  0  0  0  0  0  0
  136.3170   69.8310  223.3330 O   0  0  0  0  0  0  0  0  0  0  0  0
  138.4910   70.4230  223.6210 N   0  0  0  0  0  0  0  0  0  0  0  0
  139.2350   69.2390  223.9570 C   0  0  0  0  0  0  0  0  0  0  0  0
  139.7100   69.5000  225.3870 C   0  0  1  0  0  0  0  0  0  0  0  0
  140.7740   68.6960  225.6980 F   0  0  0  0  0  0  0  0  0  0  0  0
  140.1690   70.9460  225.2380 C   0  0  0  0  0  0  0  0  0  0  0  0
  139.4100   71.5100  224.0870 C   0  0  1  0  0  0  0  0  0  0  0  0
  140.3060   71.8330  222.9410 C   0  0  0  0  0  0  0  0  0  0  0  0
  140.1480   73.1570  222.5200 O   0  0  0  0  0  0  0  0  0  0  0  0
  137.3990   75.5330  222.3810 C   0  0  0  0  0  0  0  0  0  0  0  0
  136.6870   76.6870  222.4910 C   0  0  0  0  0  0  0  0  0  0  0  0
  137.3100   77.9120  222.6650 C   0  0  0  0  0  0  0  0  0  0  0  0
  138.7000   77.9510  222.7280 C   0  0  0  0  0  0  0  0  0  0  0  0
  139.3660   79.1460  222.9000 C   0  0  0  0  0  0  0  0  0  0  0  0
  140.7420   79.1230  222.9530 C   0  0  0  0  0  0  0  0  0  0  0  0
  141.7080   80.5680  223.1690 Cl  0  0  0  0  0  0  0  0  0  0  0  0
  141.4040   77.9200  222.8350 C   0  0  0  0  0  0  0  0  0  0  0  0
  140.7450   76.7360  222.6640 C   0  0  0  0  0  0  0  0  0  0  0  0
  139.3700   76.7540  222.6100 C   0  0  0  0  0  0  0  0  0  0  0  0
  138.7400   75.5880  222.4430 N   0  0  0  0  0  0  0  0  0  0  0  0
  138.4430   73.1360  222.7180 H   0  0  0  0  0  0  0  0  0  0  0  0
  135.6998   71.9606  222.4886 H   0  0  0  0  0  0  0  0  0  0  0  0
  136.9320   71.5089  221.2026 H   0  0  0  0  0  0  0  0  0  0  0  0
  138.5925   68.3472  223.9142 H   0  0  0  0  0  0  0  0  0  0  0  0
  140.0652   69.0467  223.2615 H   0  0  0  0  0  0  0  0  0  0  0  0
  138.9622   69.3141  226.1720 H   0  0  0  0  0  0  0  0  0  0  0  0
  139.9471   71.5123  226.1546 H   0  0  0  0  0  0  0  0  0  0  0  0
  141.2542   71.0051  225.0683 H   0  0  0  0  0  0  0  0  0  0  0  0
  138.8954   72.4286  224.4053 H   0  0  0  0  0  0  0  0  0  0  0  0
  141.3504   71.6792  223.2503 H   0  0  0  0  0  0  0  0  0  0  0  0
  140.0427   71.1720  222.1021 H   0  0  0  0  0  0  0  0  0  0  0  0
  139.5870   73.6810  223.1210 H   0  0  0  0  0  0  0  0  0  0  0  0
  135.5889   76.6463  222.4405 H   0  0  0  0  0  0  0  0  0  0  0  0
  136.7182   78.8352  222.7516 H   0  0  0  0  0  0  0  0  0  0  0  0
  138.8131   80.0924  222.9924 H   0  0  0  0  0  0  0  0  0  0  0  0
  142.5031   77.9132  222.8802 H   0  0  0  0  0  0  0  0  0  0  0  0
  141.3000   75.7908  222.5717 H   0  0  0  0  0  0  0  0  0  0  0  0
  1  2  2  0
  2  3  1  0
  3  4  1  0
  4  5  1  0
  5  6  2  0
  5  7  1  0
  7  8  1  0
  8  9  1  0
  9 10  1  0
  9 11  1  0
 11 12  1  0
 12 13  1  0
 13 14  1  0
  2 15  1  0
 15 16  2  0
 16 17  1  0
 17 18  2  0
 18 19  1  0
 19 20  2  0
 20 21  1  0
 20 22  1  0
 22 23  2  0
 23 24  1  0
 24 25  2  0
 12  7  1  0
 25 15  1  0
 24 18  1  0
  3 26  1  0
  4 27  1  0
  4 28  1  0
  8 29  1  0
  8 30  1  0
  9 31  1  1
 11 32  1  0
 11 33  1  0
 12 34  1  1
 13 35  1  0
 13 36  1  0
 14 37  1  0
 16 38  1  0
 17 39  1  0
 19 40  1  0
 22 41  1  0
 23 42  1  0
M  END
>  <smiles>  (8) 
O=C(NCC(=O)N1C[C@@H](F)C[C@H]1CO)c1ccc2cc(Cl)ccc2n1

>  <score_type>  (8) 
oracle

>  <origin>  (8) 
autodockgpu

>  <m_score__min__energy>  (8) 
-7.0099999999999998

>  <m_primary>  (8) 
energy

>  <rmsd>  (8) 
7.832537069985957

>  <m_score__min__rmsd>  (8) 
7.832537069985957

>  <meeko>  (8) 
{"free_energy": -5.63, "intermolecular_energy": -7.42, "internal_energy": -2.53, "cluster_size": 3, "cluster_id": 7, "rank_in_cluster": 2}

>  <energy>  (8) 
-6.34

>  <cluster_rmsd>  (8) 
1.27

>  <cluster>  (8) 
1

$$$$

     RDKit          3D

 42 44  0  0  0  0  0  0  0  0999 V2000
  141.2640   73.0040  221.2010 O   0  0  0  0  0  0  0  0  0  0  0  0
  140.3860   73.0510  222.1060 C   0  0  0  0  0  0  0  0  0  0  0  0
  139.4380   74.1260  222.1410 N   0  0  0  0  0  0  0  0  0  0  0  0
  139.5260   75.1180  221.1310 C   0  0  0  0  0  0  0  0  0  0  0  0
  140.7740   75.8460  221.1020 C   0  0  0  0  0  0  0  0  0  0  0  0
  141.1790   76.1950  222.3080 O   0  0  0  0  0  0  0  0  0  0  0  0
  141.6230   76.2520  220.0810 N   0  0  0  0  0  0  0  0  0  0  0  0
  142.1290   77.4980  219.5690 C   0  0  0  0  0  0  0  0  0  0  0  0
  141.9050   77.3880  218.0600 C   0  0  1  0  0  0  0  0  0  0  0  0
  142.7100   78.2690  217.3860 F   0  0  0  0  0  0  0  0  0  0  0  0
  142.3890   75.9590  217.8380 C   0  0  0  0  0  0  0  0  0  0  0  0
  142.2370   75.2590  219.1430 C   0  0  1  0  0  0  0  0  0  0  0  0
  143.5560   74.8800  219.7240 C   0  0  0  0  0  0  0  0  0  0  0  0
  143.4320   74.4450  221.0470 O   0  0  0  0  0  0  0  0  0  0  0  0
  140.3010   72.0160  223.1530 C   0  0  0  0  0  0  0  0  0  0  0  0
  139.7780   70.7930  222.8640 C   0  0  0  0  0  0  0  0  0  0  0  0
  139.6830   69.7990  223.8240 C   0  0  0  0  0  0  0  0  0  0  0  0
  140.1370   70.0690  225.1120 C   0  0  0  0  0  0  0  0  0  0  0  0
  140.0630   69.1110  226.1010 C   0  0  0  0  0  0  0  0  0  0  0  0
  140.5270   69.4350  227.3570 C   0  0  0  0  0  0  0  0  0  0  0  0
  140.4920   68.3120  228.7010 Cl  0  0  0  0  0  0  0  0  0  0  0  0
  141.0450   70.6910  227.5830 C   0  0  0  0  0  0  0  0  0  0  0  0
  141.1180   71.6410  226.6040 C   0  0  0  0  0  0  0  0  0  0  0  0
  140.6560   71.3220  225.3480 C   0  0  0  0  0  0  0  0  0  0  0  0
  140.7350   72.2600  224.4010 N   0  0  0  0  0  0  0  0  0  0  0  0
  138.7290   74.1190  222.9140 H   0  0  0  0  0  0  0  0  0  0  0  0
  139.3944   74.6259  220.1560 H   0  0  0  0  0  0  0  0  0  0  0  0
  138.7423   75.8569  221.3543 H   0  0  0  0  0  0  0  0  0  0  0  0
  141.5716   78.3491  219.9872 H   0  0  0  0  0  0  0  0  0  0  0  0
  143.1832   77.6701  219.8319 H   0  0  0  0  0  0  0  0  0  0  0  0
  140.8815   77.6045  217.7199 H   0  0  0  0  0  0  0  0  0  0  0  0
  141.7784   75.4654  217.0676 H   0  0  0  0  0  0  0  0  0  0  0  0
  143.4334   75.9396  217.4931 H   0  0  0  0  0  0  0  0  0  0  0  0
  141.6384   74.3475  218.9983 H   0  0  0  0  0  0  0  0  0  0  0  0
  143.9914   74.0692  219.1214 H   0  0  0  0  0  0  0  0  0  0  0  0
  144.2034   75.7692  219.7144 H   0  0  0  0  0  0  0  0  0  0  0  0
  142.6030   74.7400  221.4660 H   0  0  0  0  0  0  0  0  0  0  0  0
  139.4222   70.5891  221.8433 H   0  0  0  0  0  0  0  0  0  0  0  0
  139.2574   68.8161  223.5737 H   0  0  0  0  0  0  0  0  0  0  0  0
  139.6449   68.1151  225.8927 H   0  0  0  0  0  0  0  0  0  0  0  0
  141.4137   70.9384  228.5894 H   0  0  0  0  0  0  0  0  0  0  0  0
  141.5359   72.6365  226.8148 H   0  0  0  0  0  0  0  0  0  0  0  0
  1  2  2  0
  2  3  1  0
  3  4  1  0
  4  5  1  0
  5  6  2  0
  5  7  1  0
  7  8  1  0
  8  9  1  0
  9 10  1  0
  9 11  1  0
 11 12  1  0
 12 13  1  0
 13 14  1  0
  2 15  1  0
 15 16  2  0
 16 17  1  0
 17 18  2  0
 18 19  1  0
 19 20  2  0
 20 21  1  0
 20 22  1  0
 22 23  2  0
 23 24  1  0
 24 25  2  0
 12  7  1  0
 25 15  1  0
 24 18  1  0
  3 26  1  0
  4 27  1  0
  4 28  1  0
  8 29  1  0
  8 30  1  0
  9 31  1  1
 11 32  1  0
 11 33  1  0
 12 34  1  6
 13 35  1  0
 13 36  1  0
 14 37  1  0
 16 38  1  0
 17 39  1  0
 19 40  1  0
 22 41  1  0
 23 42  1  0
M  END
>  <smiles>  (9) 
O=C(NCC(=O)N1C[C@@H](F)C[C@H]1CO)c1ccc2cc(Cl)ccc2n1

>  <score_type>  (9) 
oracle

>  <origin>  (9) 
autodockgpu

>  <m_score__min__energy>  (9) 
-7.0099999999999998

>  <m_primary>  (9) 
energy

>  <rmsd>  (9) 
2.295520188102873

>  <m_score__min__rmsd>  (9) 
2.295520188102873

>  <meeko>  (9) 
{"free_energy": -6.02, "intermolecular_energy": -7.81, "internal_energy": -2.35, "cluster_size": 15, "cluster_id": 1, "rank_in_cluster": 12}

>  <energy>  (9) 
-6.32

>  <cluster_rmsd>  (9) 
1.76

>  <cluster>  (9) 
1

$$$$

     RDKit          3D

 42 44  0  0  0  0  0  0  0  0999 V2000
  139.6310   74.3360  222.1710 O   0  0  0  0  0  0  0  0  0  0  0  0
  140.7910   74.5410  221.7210 C   0  0  0  0  0  0  0  0  0  0  0  0
  141.3490   75.8620  221.7330 N   0  0  0  0  0  0  0  0  0  0  0  0
  140.5550   76.9110  222.2630 C   0  0  0  0  0  0  0  0  0  0  0  0
  141.0970   78.2380  222.0760 C   0  0  0  0  0  0  0  0  0  0  0  0
  142.2050   78.2300  221.3600 O   0  0  0  0  0  0  0  0  0  0  0  0
  140.7000   79.5020  222.4900 N   0  0  0  0  0  0  0  0  0  0  0  0
  139.6020   80.0700  223.2250 C   0  0  0  0  0  0  0  0  0  0  0  0
  139.1530   81.2470  222.3580 C   0  0  1  0  0  0  0  0  0  0  0  0
  138.4280   82.1440  223.0970 F   0  0  0  0  0  0  0  0  0  0  0  0
  140.5150   81.8340  222.0070 C   0  0  0  0  0  0  0  0  0  0  0  0
  141.4960   80.7200  222.1310 C   0  0  1  0  0  0  0  0  0  0  0  0
  142.4540   80.9490  223.2480 C   0  0  0  0  0  0  0  0  0  0  0  0
  143.6290   80.2100  223.0800 O   0  0  0  0  0  0  0  0  0  0  0  0
  141.6110   73.4470  221.1700 C   0  0  0  0  0  0  0  0  0  0  0  0
  141.0660   72.2140  220.9800 C   0  0  0  0  0  0  0  0  0  0  0  0
  141.8070   71.1640  220.4650 C   0  0  0  0  0  0  0  0  0  0  0  0
  143.1420   71.3860  220.1380 C   0  0  0  0  0  0  0  0  0  0  0  0
  143.9200   70.3710  219.6220 C   0  0  0  0  0  0  0  0  0  0  0  0
  145.2350   70.6500  219.3180 C   0  0  0  0  0  0  0  0  0  0  0  0
  146.3300   69.4530  218.6570 Cl  0  0  0  0  0  0  0  0  0  0  0  0
  145.7250   71.9190  219.5340 C   0  0  0  0  0  0  0  0  0  0  0  0
  144.9540   72.9250  220.0450 C   0  0  0  0  0  0  0  0  0  0  0  0
  143.6410   72.6510  220.3510 C   0  0  0  0  0  0  0  0  0  0  0  0
  142.9000   73.6440  220.8490 N   0  0  0  0  0  0  0  0  0  0  0  0
  142.3170   75.9810  221.3460 H   0  0  0  0  0  0  0  0  0  0  0  0
  139.5692   76.8728  221.7765 H   0  0  0  0  0  0  0  0  0  0  0  0
  140.5107   76.7459  223.3496 H   0  0  0  0  0  0  0  0  0  0  0  0
  138.7894   79.3381  223.3435 H   0  0  0  0  0  0  0  0  0  0  0  0
  139.8843   80.3751  224.2435 H   0  0  0  0  0  0  0  0  0  0  0  0
  138.5117   80.9835  221.5040 H   0  0  0  0  0  0  0  0  0  0  0  0
  140.5083   82.2226  220.9780 H   0  0  0  0  0  0  0  0  0  0  0  0
  140.7735   82.6699  222.6737 H   0  0  0  0  0  0  0  0  0  0  0  0
  142.0620   80.6279  221.1923 H   0  0  0  0  0  0  0  0  0  0  0  0
  142.7078   82.0186  223.2866 H   0  0  0  0  0  0  0  0  0  0  0  0
  141.9748   80.6241  224.1833 H   0  0  0  0  0  0  0  0  0  0  0  0
  143.5840   79.5930  222.3280 H   0  0  0  0  0  0  0  0  0  0  0  0
  140.0107   72.0479  221.2422 H   0  0  0  0  0  0  0  0  0  0  0  0
  141.3502   70.1743  220.3172 H   0  0  0  0  0  0  0  0  0  0  0  0
  143.5026   69.3666  219.4576 H   0  0  0  0  0  0  0  0  0  0  0  0
  146.7756   72.1305  219.2861 H   0  0  0  0  0  0  0  0  0  0  0  0
  145.3729   73.9290  220.2076 H   0  0  0  0  0  0  0  0  0  0  0  0
  1  2  2  0
  2  3  1  0
  3  4  1  0
  4  5  1  0
  5  6  2  0
  5  7  1  0
  7  8  1  0
  8  9  1  0
  9 10  1  0
  9 11  1  0
 11 12  1  0
 12 13  1  0
 13 14  1  0
  2 15  1  0
 15 16  2  0
 16 17  1  0
 17 18  2  0
 18 19  1  0
 19 20  2  0
 20 21  1  0
 20 22  1  0
 22 23  2  0
 23 24  1  0
 24 25  2  0
 12  7  1  0
 25 15  1  0
 24 18  1  0
  3 26  1  0
  4 27  1  0
  4 28  1  0
  8 29  1  0
  8 30  1  0
  9 31  1  6
 11 32  1  0
 11 33  1  0
 12 34  1  6
 13 35  1  0
 13 36  1  0
 14 37  1  0
 16 38  1  0
 17 39  1  0
 19 40  1  0
 22 41  1  0
 23 42  1  0
M  END
>  <smiles>  (10) 
O=C(NCC(=O)N1C[C@@H](F)C[C@H]1CO)c1ccc2cc(Cl)ccc2n1

>  <score_type>  (10) 
oracle

>  <origin>  (10) 
autodockgpu

>  <m_score__min__energy>  (10) 
-7.0099999999999998

>  <m_primary>  (10) 
energy

>  <rmsd>  (10) 
6.283473621291028

>  <m_score__min__rmsd>  (10) 
6.283473621291028

>  <meeko>  (10) 
{"free_energy": -5.92, "intermolecular_energy": -7.71, "internal_energy": -2.4, "cluster_size": 3, "cluster_id": 6, "rank_in_cluster": 3}

>  <energy>  (10) 
-6.26

>  <cluster_rmsd>  (10) 
1.95

>  <cluster>  (10) 
1

$$$$

     RDKit          3D

 42 44  0  0  0  0  0  0  0  0999 V2000
  139.4690   72.0600  220.6320 O   0  0  0  0  0  0  0  0  0  0  0  0
  139.5340   72.4610  221.8260 C   0  0  0  0  0  0  0  0  0  0  0  0
  139.5030   73.8640  222.1220 N   0  0  0  0  0  0  0  0  0  0  0  0
  139.3980   74.7680  221.0330 C   0  0  0  0  0  0  0  0  0  0  0  0
  139.9980   76.0630  221.2590 C   0  0  0  0  0  0  0  0  0  0  0  0
  140.3240   76.2510  222.5240 O   0  0  0  0  0  0  0  0  0  0  0  0
  140.2950   77.1390  220.4330 N   0  0  0  0  0  0  0  0  0  0  0  0
  139.6200   77.8990  219.4160 C   0  0  0  0  0  0  0  0  0  0  0  0
  140.6320   77.9550  218.2700 C   0  0  1  0  0  0  0  0  0  0  0  0
  140.3410   78.9860  217.4170 F   0  0  0  0  0  0  0  0  0  0  0  0
  141.8940   78.2710  219.0660 C   0  0  0  0  0  0  0  0  0  0  0  0
  141.6500   77.7780  220.4500 C   0  0  1  0  0  0  0  0  0  0  0  0
  141.5820   78.8970  221.4310 C   0  0  0  0  0  0  0  0  0  0  0  0
  141.7830   78.4490  222.7410 O   0  0  0  0  0  0  0  0  0  0  0  0
  139.6440   71.5170  222.9520 C   0  0  0  0  0  0  0  0  0  0  0  0
  139.1950   70.2390  222.8190 C   0  0  0  0  0  0  0  0  0  0  0  0
  139.2820   69.3260  223.8570 C   0  0  0  0  0  0  0  0  0  0  0  0
  139.8460   69.7370  225.0620 C   0  0  0  0  0  0  0  0  0  0  0  0
  139.9550   68.8640  226.1240 C   0  0  0  0  0  0  0  0  0  0  0  0
  140.5210   69.3280  227.2910 C   0  0  0  0  0  0  0  0  0  0  0  0
  140.7190   68.3240  228.7130 Cl  0  0  0  0  0  0  0  0  0  0  0  0
  140.9560   70.6330  227.3610 C   0  0  0  0  0  0  0  0  0  0  0  0
  140.8480   71.4980  226.3090 C   0  0  0  0  0  0  0  0  0  0  0  0
  140.2830   71.0400  225.1410 C   0  0  0  0  0  0  0  0  0  0  0  0
  140.1860   71.8970  224.1220 N   0  0  0  0  0  0  0  0  0  0  0  0
  139.5610   74.1460  223.1310 H   0  0  0  0  0  0  0  0  0  0  0  0
  139.8887   74.3113  220.1609 H   0  0  0  0  0  0  0  0  0  0  0  0
  138.3232   74.9473  220.8826 H   0  0  0  0  0  0  0  0  0  0  0  0
  138.6957   77.3943  219.0982 H   0  0  0  0  0  0  0  0  0  0  0  0
  139.3148   78.8972  219.7631 H   0  0  0  0  0  0  0  0  0  0  0  0
  140.6773   77.0554  217.6387 H   0  0  0  0  0  0  0  0  0  0  0  0
  142.7608   77.7564  218.6257 H   0  0  0  0  0  0  0  0  0  0  0  0
  142.1119   79.3492  219.0584 H   0  0  0  0  0  0  0  0  0  0  0  0
  142.4644   77.0988  220.7422 H   0  0  0  0  0  0  0  0  0  0  0  0
  142.3586   79.6357  221.1837 H   0  0  0  0  0  0  0  0  0  0  0  0
  140.5791   79.3449  221.3716 H   0  0  0  0  0  0  0  0  0  0  0  0
  141.9210   77.4860  222.7940 H   0  0  0  0  0  0  0  0  0  0  0  0
  138.7519   69.9232  221.8630 H   0  0  0  0  0  0  0  0  0  0  0  0
  138.9131   68.2973  223.7320 H   0  0  0  0  0  0  0  0  0  0  0  0
  139.5999   67.8262  226.0415 H   0  0  0  0  0  0  0  0  0  0  0  0
  141.4068   70.9918  228.2980 H   0  0  0  0  0  0  0  0  0  0  0  0
  141.2041   72.5353  226.3937 H   0  0  0  0  0  0  0  0  0  0  0  0
  1  2  2  0
  2  3  1  0
  3  4  1  0
  4  5  1  0
  5  6  2  0
  5  7  1  0
  7  8  1  0
  8  9  1  0
  9 10  1  0
  9 11  1  0
 11 12  1  0
 12 13  1  0
 13 14  1  0
  2 15  1  0
 15 16  2  0
 16 17  1  0
 17 18  2  0
 18 19  1  0
 19 20  2  0
 20 21  1  0
 20 22  1  0
 22 23  2  0
 23 24  1  0
 24 25  2  0
 12  7  1  0
 25 15  1  0
 24 18  1  0
  3 26  1  0
  4 27  1  0
  4 28  1  0
  8 29  1  0
  8 30  1  0
  9 31  1  6
 11 32  1  0
 11 33  1  0
 12 34  1  1
 13 35  1  0
 13 36  1  0
 14 37  1  0
 16 38  1  0
 17 39  1  0
 19 40  1  0
 22 41  1  0
 23 42  1  0
M  END
>  <smiles>  (11) 
O=C(NCC(=O)N1C[C@@H](F)C[C@H]1CO)c1ccc2cc(Cl)ccc2n1

>  <score_type>  (11) 
oracle

>  <origin>  (11) 
autodockgpu

>  <m_score__min__energy>  (11) 
-7.0099999999999998

>  <m_primary>  (11) 
energy

>  <rmsd>  (11) 
1.6826109694209417

>  <m_score__min__rmsd>  (11) 
1.6826109694209417

>  <meeko>  (11) 
{"free_energy": -6.32, "intermolecular_energy": -8.11, "internal_energy": -2.21, "cluster_size": 15, "cluster_id": 1, "rank_in_cluster": 9}

>  <energy>  (11) 
-6.13

>  <cluster_rmsd>  (11) 
1.77

>  <cluster>  (11) 
1

$$$$

     RDKit          3D

 42 44  0  0  0  0  0  0  0  0999 V2000
  139.5280   69.3130  222.5100 O   0  0  0  0  0  0  0  0  0  0  0  0
  139.4860   70.5280  222.8450 C   0  0  0  0  0  0  0  0  0  0  0  0
  138.7260   70.9380  223.9900 N   0  0  0  0  0  0  0  0  0  0  0  0
  138.0330   69.9370  224.7170 C   0  0  0  0  0  0  0  0  0  0  0  0
  138.8770   69.0540  225.4900 C   0  0  0  0  0  0  0  0  0  0  0  0
  138.5500   67.7860  225.3360 O   0  0  0  0  0  0  0  0  0  0  0  0
  139.9450   69.2620  226.3540 N   0  0  0  0  0  0  0  0  0  0  0  0
  140.9360   68.4540  227.0110 C   0  0  0  0  0  0  0  0  0  0  0  0
  140.8930   68.9340  228.4630 C   0  0  1  0  0  0  0  0  0  0  0  0
  142.0470   68.5970  229.1190 F   0  0  0  0  0  0  0  0  0  0  0  0
  140.8420   70.4390  228.2280 C   0  0  0  0  0  0  0  0  0  0  0  0
  140.2700   70.6320  226.8670 C   0  0  1  0  0  0  0  0  0  0  0  0
  141.2670   71.2150  225.9260 C   0  0  0  0  0  0  0  0  0  0  0  0
  140.7010   72.2130  225.1270 O   0  0  0  0  0  0  0  0  0  0  0  0
  140.2080   71.5640  222.0840 C   0  0  0  0  0  0  0  0  0  0  0  0
  141.0820   71.2070  221.1040 C   0  0  0  0  0  0  0  0  0  0  0  0
  141.7770   72.1540  220.3700 C   0  0  0  0  0  0  0  0  0  0  0  0
  141.5680   73.5020  220.6510 C   0  0  0  0  0  0  0  0  0  0  0  0
  142.2360   74.4810  219.9470 C   0  0  0  0  0  0  0  0  0  0  0  0
  141.9890   75.7970  220.2700 C   0  0  0  0  0  0  0  0  0  0  0  0
  142.7700   77.1370  219.4540 Cl  0  0  0  0  0  0  0  0  0  0  0  0
  141.0920   76.0920  221.2730 C   0  0  0  0  0  0  0  0  0  0  0  0
  140.4300   75.1210  221.9710 C   0  0  0  0  0  0  0  0  0  0  0  0
  140.6730   73.8050  221.6520 C   0  0  0  0  0  0  0  0  0  0  0  0
  140.0180   72.8690  222.3420 N   0  0  0  0  0  0  0  0  0  0  0  0
  138.7230   71.9610  224.2260 H   0  0  0  0  0  0  0  0  0  0  0  0
  137.3369   70.4358  225.4073 H   0  0  0  0  0  0  0  0  0  0  0  0
  137.5277   69.3066  223.9705 H   0  0  0  0  0  0  0  0  0  0  0  0
  140.6792   67.3865  226.9432 H   0  0  0  0  0  0  0  0  0  0  0  0
  141.9340   68.5533  226.5592 H   0  0  0  0  0  0  0  0  0  0  0  0
  140.0769   68.5172  229.0715 H   0  0  0  0  0  0  0  0  0  0  0  0
  140.2016   70.9204  228.9817 H   0  0  0  0  0  0  0  0  0  0  0  0
  141.8423   70.8896  228.3081 H   0  0  0  0  0  0  0  0  0  0  0  0
  139.4040   71.3075  226.9290 H   0  0  0  0  0  0  0  0  0  0  0  0
  142.0940   71.6494  226.5068 H   0  0  0  0  0  0  0  0  0  0  0  0
  141.6279   70.4114  225.2672 H   0  0  0  0  0  0  0  0  0  0  0  0
  140.8850   72.0870  224.1780 H   0  0  0  0  0  0  0  0  0  0  0  0
  141.2405   70.1398  220.8894 H   0  0  0  0  0  0  0  0  0  0  0  0
  142.4797   71.8476  219.5811 H   0  0  0  0  0  0  0  0  0  0  0  0
  142.9466   74.2185  219.1494 H   0  0  0  0  0  0  0  0  0  0  0  0
  140.9017   77.1466  221.5210 H   0  0  0  0  0  0  0  0  0  0  0  0
  139.7201   75.3854  222.7685 H   0  0  0  0  0  0  0  0  0  0  0  0
  1  2  2  0
  2  3  1  0
  3  4  1  0
  4  5  1  0
  5  6  2  0
  5  7  1  0
  7  8  1  0
  8  9  1  0
  9 10  1  0
  9 11  1  0
 11 12  1  0
 12 13  1  0
 13 14  1  0
  2 15  1  0
 15 16  2  0
 16 17  1  0
 17 18  2  0
 18 19  1  0
 19 20  2  0
 20 21  1  0
 20 22  1  0
 22 23  2  0
 23 24  1  0
 24 25  2  0
 12  7  1  0
 25 15  1  0
 24 18  1  0
  3 26  1  0
  4 27  1  0
  4 28  1  0
  8 29  1  0
  8 30  1  0
  9 31  1  1
 11 32  1  0
 11 33  1  0
 12 34  1  1
 13 35  1  0
 13 36  1  0
 14 37  1  0
 16 38  1  0
 17 39  1  0
 19 40  1  0
 22 41  1  0
 23 42  1  0
M  END
>  <smiles>  (12) 
O=C(NCC(=O)N1C[C@@H](F)C[C@H]1CO)c1ccc2cc(Cl)ccc2n1

>  <score_type>  (12) 
oracle

>  <origin>  (12) 
autodockgpu

>  <m_score__min__energy>  (12) 
-7.0099999999999998

>  <m_primary>  (12) 
energy

>  <rmsd>  (12) 
8.224030154005456

>  <m_score__min__rmsd>  (12) 
8.224030154005456

>  <meeko>  (12) 
{"free_energy": -5.6, "intermolecular_energy": -7.39, "internal_energy": -2.76, "cluster_size": 20, "cluster_id": 2, "rank_in_cluster": 20}

>  <energy>  (12) 
-6.02

>  <cluster_rmsd>  (12) 
1.88

>  <cluster>  (12) 
1

$$$$

     RDKit          3D

 42 44  0  0  0  0  0  0  0  0999 V2000
  137.5820   70.6640  221.0510 O   0  0  0  0  0  0  0  0  0  0  0  0
  137.9430   71.2170  222.1260 C   0  0  0  0  0  0  0  0  0  0  0  0
  137.8220   72.6370  222.2860 N   0  0  0  0  0  0  0  0  0  0  0  0
  137.2890   73.3820  221.2030 C   0  0  0  0  0  0  0  0  0  0  0  0
  138.0780   74.5270  220.8070 C   0  0  0  0  0  0  0  0  0  0  0  0
  137.5760   75.1420  219.7540 O   0  0  0  0  0  0  0  0  0  0  0  0
  139.2430   75.1030  221.2960 N   0  0  0  0  0  0  0  0  0  0  0  0
  139.5910   76.1100  222.2630 C   0  0  0  0  0  0  0  0  0  0  0  0
  140.5840   77.0030  221.5170 C   0  0  1  0  0  0  0  0  0  0  0  0
  141.3370   77.7320  222.3990 F   0  0  0  0  0  0  0  0  0  0  0  0
  141.4420   75.9270  220.8590 C   0  0  0  0  0  0  0  0  0  0  0  0
  140.5850   74.7130  220.7580 C   0  0  1  0  0  0  0  0  0  0  0  0
  141.0890   73.6090  221.6220 C   0  0  0  0  0  0  0  0  0  0  0  0
  140.2320   73.3660  222.7010 O   0  0  0  0  0  0  0  0  0  0  0  0
  138.4960   70.4370  223.2480 C   0  0  0  0  0  0  0  0  0  0  0  0
  138.3320   69.0870  223.2870 C   0  0  0  0  0  0  0  0  0  0  0  0
  138.8380   68.3230  224.3260 C   0  0  0  0  0  0  0  0  0  0  0  0
  139.5310   68.9650  225.3490 C   0  0  0  0  0  0  0  0  0  0  0  0
  140.0540   68.2470  226.4050 C   0  0  0  0  0  0  0  0  0  0  0  0
  140.7290   68.9360  227.3890 C   0  0  0  0  0  0  0  0  0  0  0  0
  141.4410   68.1470  228.7810 Cl  0  0  0  0  0  0  0  0  0  0  0  0
  140.8600   70.3040  227.2890 C   0  0  0  0  0  0  0  0  0  0  0  0
  140.3420   71.0150  226.2430 C   0  0  0  0  0  0  0  0  0  0  0  0
  139.6670   70.3320  225.2580 C   0  0  0  0  0  0  0  0  0  0  0  0
  139.1670   71.0400  224.2430 N   0  0  0  0  0  0  0  0  0  0  0  0
  138.1360   73.0480  223.1990 H   0  0  0  0  0  0  0  0  0  0  0  0
  137.2017   72.7105  220.3361 H   0  0  0  0  0  0  0  0  0  0  0  0
  136.3213   73.7770  221.5460 H   0  0  0  0  0  0  0  0  0  0  0  0
  138.7031   76.6822  222.5700 H   0  0  0  0  0  0  0  0  0  0  0  0
  140.0107   75.6860  223.1872 H   0  0  0  0  0  0  0  0  0  0  0  0
  140.1334   77.7396  220.8356 H   0  0  0  0  0  0  0  0  0  0  0  0
  141.7602   76.2530  219.8578 H   0  0  0  0  0  0  0  0  0  0  0  0
  142.3513   75.7270  221.4448 H   0  0  0  0  0  0  0  0  0  0  0  0
  140.5668   74.3664  219.7142 H   0  0  0  0  0  0  0  0  0  0  0  0
  141.1716   72.6930  221.0186 H   0  0  0  0  0  0  0  0  0  0  0  0
  142.0696   73.9061  222.0221 H   0  0  0  0  0  0  0  0  0  0  0  0
  140.1370   72.4170  222.9010 H   0  0  0  0  0  0  0  0  0  0  0  0
  137.7839   68.5897  222.4732 H   0  0  0  0  0  0  0  0  0  0  0  0
  138.6953   67.2324  224.3425 H   0  0  0  0  0  0  0  0  0  0  0  0
  139.9353   67.1548  226.4597 H   0  0  0  0  0  0  0  0  0  0  0  0
  141.4013   70.8437  228.0800 H   0  0  0  0  0  0  0  0  0  0  0  0
  140.4620   72.1072  226.1901 H   0  0  0  0  0  0  0  0  0  0  0  0
  1  2  2  0
  2  3  1  0
  3  4  1  0
  4  5  1  0
  5  6  2  0
  5  7  1  0
  7  8  1  0
  8  9  1  0
  9 10  1  0
  9 11  1  0
 11 12  1  0
 12 13  1  0
 13 14  1  0
  2 15  1  0
 15 16  2  0
 16 17  1  0
 17 18  2  0
 18 19  1  0
 19 20  2  0
 20 21  1  0
 20 22  1  0
 22 23  2  0
 23 24  1  0
 24 25  2  0
 12  7  1  0
 25 15  1  0
 24 18  1  0
  3 26  1  0
  4 27  1  0
  4 28  1  0
  8 29  1  0
  8 30  1  0
  9 31  1  6
 11 32  1  0
 11 33  1  0
 12 34  1  6
 13 35  1  0
 13 36  1  0
 14 37  1  0
 16 38  1  0
 17 39  1  0
 19 40  1  0
 22 41  1  0
 23 42  1  0
M  END
>  <smiles>  (13) 
O=C(NCC(=O)N1C[C@@H](F)C[C@H]1CO)c1ccc2cc(Cl)ccc2n1

>  <score_type>  (13) 
oracle

>  <origin>  (13) 
autodockgpu

>  <m_score__min__energy>  (13) 
-7.0099999999999998

>  <m_primary>  (13) 
energy

>  <rmsd>  (13) 
2.291394001326494

>  <m_score__min__rmsd>  (13) 
2.291394001326494

>  <meeko>  (13) 
{"free_energy": -5.85, "intermolecular_energy": -7.63, "internal_energy": -2.71, "cluster_size": 15, "cluster_id": 1, "rank_in_cluster": 13}

>  <energy>  (13) 
-5.85

>  <cluster_rmsd>  (13) 
1.77

>  <cluster>  (13) 
1

$$$$

     RDKit          3D

 42 44  0  0  0  0  0  0  0  0999 V2000
  139.6260   74.2340  222.2400 O   0  0  0  0  0  0  0  0  0  0  0  0
  140.7650   74.4580  221.7460 C   0  0  0  0  0  0  0  0  0  0  0  0
  141.2970   75.7900  221.7290 N   0  0  0  0  0  0  0  0  0  0  0  0
  140.5030   76.8270  222.2810 C   0  0  0  0  0  0  0  0  0  0  0  0
  141.0380   78.1580  222.1090 C   0  0  0  0  0  0  0  0  0  0  0  0
  142.1130   78.1720  221.3450 O   0  0  0  0  0  0  0  0  0  0  0  0
  140.6620   79.4100  222.5790 N   0  0  0  0  0  0  0  0  0  0  0  0
  139.6400   79.9470  223.4370 C   0  0  0  0  0  0  0  0  0  0  0  0
  139.0720   81.1210  222.6380 C   0  0  1  0  0  0  0  0  0  0  0  0
  138.4150   81.9950  223.4620 F   0  0  0  0  0  0  0  0  0  0  0  0
  140.3750   81.7420  222.1460 C   0  0  0  0  0  0  0  0  0  0  0  0
  141.3870   80.6480  222.1490 C   0  0  1  0  0  0  0  0  0  0  0  0
  142.4570   80.8900  223.1560 C   0  0  0  0  0  0  0  0  0  0  0  0
  143.6210   80.1740  222.8550 O   0  0  0  0  0  0  0  0  0  0  0  0
  141.5850   73.3750  221.1730 C   0  0  0  0  0  0  0  0  0  0  0  0
  141.0340   72.1530  220.9370 C   0  0  0  0  0  0  0  0  0  0  0  0
  141.7760   71.1140  220.4000 C   0  0  0  0  0  0  0  0  0  0  0  0
  143.1170   71.3370  220.0990 C   0  0  0  0  0  0  0  0  0  0  0  0
  143.8960   70.3330  219.5630 C   0  0  0  0  0  0  0  0  0  0  0  0
  145.2160   70.6120  219.2850 C   0  0  0  0  0  0  0  0  0  0  0  0
  146.3120   69.4280  218.6030 Cl  0  0  0  0  0  0  0  0  0  0  0  0
  145.7120   71.8700  219.5480 C   0  0  0  0  0  0  0  0  0  0  0  0
  144.9400   72.8650  220.0790 C   0  0  0  0  0  0  0  0  0  0  0  0
  143.6210   72.5920  220.3580 C   0  0  0  0  0  0  0  0  0  0  0  0
  142.8800   73.5740  220.8760 N   0  0  0  0  0  0  0  0  0  0  0  0
  142.2490   75.9240  221.3070 H   0  0  0  0  0  0  0  0  0  0  0  0
  139.5133   76.7917  221.8022 H   0  0  0  0  0  0  0  0  0  0  0  0
  140.4679   76.6457  223.3654 H   0  0  0  0  0  0  0  0  0  0  0  0
  138.8616   79.1959  223.6367 H   0  0  0  0  0  0  0  0  0  0  0  0
  140.0269   80.2500  224.4211 H   0  0  0  0  0  0  0  0  0  0  0  0
  138.3457   80.8503  221.8575 H   0  0  0  0  0  0  0  0  0  0  0  0
  140.2470   82.1397  221.1284 H   0  0  0  0  0  0  0  0  0  0  0  0
  140.6876   82.5776  222.7894 H   0  0  0  0  0  0  0  0  0  0  0  0
  141.8477   80.5755  221.1528 H   0  0  0  0  0  0  0  0  0  0  0  0
  142.6935   81.9641  223.1740 H   0  0  0  0  0  0  0  0  0  0  0  0
  142.0893   80.5515  224.1359 H   0  0  0  0  0  0  0  0  0  0  0  0
  143.5340   79.6330  222.0490 H   0  0  0  0  0  0  0  0  0  0  0  0
  139.9738   71.9866  221.1786 H   0  0  0  0  0  0  0  0  0  0  0  0
  141.3151   70.1325  220.2150 H   0  0  0  0  0  0  0  0  0  0  0  0
  143.4748   69.3367  219.3630 H   0  0  0  0  0  0  0  0  0  0  0  0
  146.7677   72.0814  219.3225 H   0  0  0  0  0  0  0  0  0  0  0  0
  145.3634   73.8605  220.2785 H   0  0  0  0  0  0  0  0  0  0  0  0
  1  2  2  0
  2  3  1  0
  3  4  1  0
  4  5  1  0
  5  6  2  0
  5  7  1  0
  7  8  1  0
  8  9  1  0
  9 10  1  0
  9 11  1  0
 11 12  1  0
 12 13  1  0
 13 14  1  0
  2 15  1  0
 15 16  2  0
 16 17  1  0
 17 18  2  0
 18 19  1  0
 19 20  2  0
 20 21  1  0
 20 22  1  0
 22 23  2  0
 23 24  1  0
 24 25  2  0
 12  7  1  0
 25 15  1  0
 24 18  1  0
  3 26  1  0
  4 27  1  0
  4 28  1  0
  8 29  1  0
  8 30  1  0
  9 31  1  6
 11 32  1  0
 11 33  1  0
 12 34  1  6
 13 35  1  0
 13 36  1  0
 14 37  1  0
 16 38  1  0
 17 39  1  0
 19 40  1  0
 22 41  1  0
 23 42  1  0
M  END
>  <smiles>  (14) 
O=C(NCC(=O)N1C[C@@H](F)C[C@H]1CO)c1ccc2cc(Cl)ccc2n1

>  <score_type>  (14) 
oracle

>  <origin>  (14) 
autodockgpu

>  <m_score__min__energy>  (14) 
-7.0099999999999998

>  <m_primary>  (14) 
energy

>  <rmsd>  (14) 
6.275627748888711

>  <m_score__min__rmsd>  (14) 
6.275627748888711

>  <meeko>  (14) 
{"free_energy": -5.94, "intermolecular_energy": -7.73, "internal_energy": -2.39, "cluster_size": 3, "cluster_id": 6, "rank_in_cluster": 1}

>  <energy>  (14) 
-5.76

>  <cluster_rmsd>  (14) 
1.82

>  <cluster>  (14) 
1

$$$$

     RDKit          3D

 42 44  0  0  0  0  0  0  0  0999 V2000
  137.7150   70.8610  220.8540 O   0  0  0  0  0  0  0  0  0  0  0  0
  137.9290   71.3970  221.9760 C   0  0  0  0  0  0  0  0  0  0  0  0
  137.6990   72.8000  222.1630 N   0  0  0  0  0  0  0  0  0  0  0  0
  137.2290   73.5480  221.0540 C   0  0  0  0  0  0  0  0  0  0  0  0
  138.1570   74.5340  220.5490 C   0  0  0  0  0  0  0  0  0  0  0  0
  137.5640   75.6740  220.2510 O   0  0  0  0  0  0  0  0  0  0  0  0
  139.5260   74.5290  220.3120 N   0  0  0  0  0  0  0  0  0  0  0  0
  140.5290   75.4860  219.9290 C   0  0  0  0  0  0  0  0  0  0  0  0
  141.2840   74.7890  218.7970 C   0  0  1  0  0  0  0  0  0  0  0  0
  142.5190   75.3550  218.6180 F   0  0  0  0  0  0  0  0  0  0  0  0
  141.4270   73.4000  219.4090 C   0  0  0  0  0  0  0  0  0  0  0  0
  140.3220   73.2630  220.3980 C   0  0  1  0  0  0  0  0  0  0  0  0
  140.8360   73.1760  221.7930 C   0  0  0  0  0  0  0  0  0  0  0  0
  139.9570   73.7660  222.7060 O   0  0  0  0  0  0  0  0  0  0  0  0
  138.4190   70.6130  223.1240 C   0  0  0  0  0  0  0  0  0  0  0  0
  138.1230   69.2890  223.2240 C   0  0  0  0  0  0  0  0  0  0  0  0
  138.5660   68.5240  224.2900 C   0  0  0  0  0  0  0  0  0  0  0  0
  139.3330   69.1360  225.2780 C   0  0  0  0  0  0  0  0  0  0  0  0
  139.7980   68.4150  226.3580 C   0  0  0  0  0  0  0  0  0  0  0  0
  140.5510   69.0750  227.3040 C   0  0  0  0  0  0  0  0  0  0  0  0
  141.2020   68.2780  228.7220 Cl  0  0  0  0  0  0  0  0  0  0  0  0
  140.8160   70.4170  227.1440 C   0  0  0  0  0  0  0  0  0  0  0  0
  140.3550   71.1310  226.0740 C   0  0  0  0  0  0  0  0  0  0  0  0
  139.6020   70.4780  225.1260 C   0  0  0  0  0  0  0  0  0  0  0  0
  139.1600   71.1890  224.0860 N   0  0  0  0  0  0  0  0  0  0  0  0
  137.8930   73.1970  223.1150 H   0  0  0  0  0  0  0  0  0  0  0  0
  137.0005   72.8449  220.2395 H   0  0  0  0  0  0  0  0  0  0  0  0
  136.3487   74.1048  221.4077 H   0  0  0  0  0  0  0  0  0  0  0  0
  140.0658   76.4188  219.5751 H   0  0  0  0  0  0  0  0  0  0  0  0
  141.1846   75.7728  220.7644 H   0  0  0  0  0  0  0  0  0  0  0  0
  140.7958   74.8300  217.8121 H   0  0  0  0  0  0  0  0  0  0  0  0
  141.3379   72.6293  218.6292 H   0  0  0  0  0  0  0  0  0  0  0  0
  142.4095   73.2731  219.8872 H   0  0  0  0  0  0  0  0  0  0  0  0
  139.7463   72.3526  220.1750 H   0  0  0  0  0  0  0  0  0  0  0  0
  140.9680   72.1168  222.0588 H   0  0  0  0  0  0  0  0  0  0  0  0
  141.7928   73.7166  221.8401 H   0  0  0  0  0  0  0  0  0  0  0  0
  139.6860   73.1580  223.4180 H   0  0  0  0  0  0  0  0  0  0  0  0
  137.5167   68.8142  222.4386 H   0  0  0  0  0  0  0  0  0  0  0  0
  138.3170   67.4545  224.3549 H   0  0  0  0  0  0  0  0  0  0  0  0
  139.5738   67.3430  226.4610 H   0  0  0  0  0  0  0  0  0  0  0  0
  141.4204   70.9326  227.9048 H   0  0  0  0  0  0  0  0  0  0  0  0
  140.5808   72.2028  225.9731 H   0  0  0  0  0  0  0  0  0  0  0  0
  1  2  2  0
  2  3  1  0
  3  4  1  0
  4  5  1  0
  5  6  2  0
  5  7  1  0
  7  8  1  0
  8  9  1  0
  9 10  1  0
  9 11  1  0
 11 12  1  0
 12 13  1  0
 13 14  1  0
  2 15  1  0
 15 16  2  0
 16 17  1  0
 17 18  2  0
 18 19  1  0
 19 20  2  0
 20 21  1  0
 20 22  1  0
 22 23  2  0
 23 24  1  0
 24 25  2  0
 12  7  1  0
 25 15  1  0
 24 18  1  0
  3 26  1  0
  4 27  1  0
  4 28  1  0
  8 29  1  0
  8 30  1  0
  9 31  1  6
 11 32  1  0
 11 33  1  0
 12 34  1  6
 13 35  1  0
 13 36  1  0
 14 37  1  0
 16 38  1  0
 17 39  1  0
 19 40  1  0
 22 41  1  0
 23 42  1  0
M  END
>  <smiles>  (15) 
O=C(NCC(=O)N1C[C@@H](F)C[C@H]1CO)c1ccc2cc(Cl)ccc2n1

>  <score_type>  (15) 
oracle

>  <origin>  (15) 
autodockgpu

>  <m_score__min__energy>  (15) 
-7.0099999999999998

>  <m_primary>  (15) 
energy

>  <rmsd>  (15) 
2.21543872359799

>  <m_score__min__rmsd>  (15) 
2.21543872359799

>  <meeko>  (15) 
{"free_energy": -5.45, "intermolecular_energy": -7.24, "internal_energy": -2.7, "cluster_size": 6, "cluster_id": 5, "rank_in_cluster": 6}

>  <energy>  (15) 
-5.73

>  <cluster_rmsd>  (15) 
1.85

>  <cluster>  (15) 
1

$$$$

     RDKit          3D

 42 44  0  0  0  0  0  0  0  0999 V2000
  135.4360   74.4740  221.6850 O   0  0  0  0  0  0  0  0  0  0  0  0
  136.5920   74.4880  222.1900 C   0  0  0  0  0  0  0  0  0  0  0  0
  137.2220   73.2650  222.5920 N   0  0  0  0  0  0  0  0  0  0  0  0
  136.5040   72.0570  222.4030 C   0  0  0  0  0  0  0  0  0  0  0  0
  137.3090   70.8580  222.4480 C   0  0  0  0  0  0  0  0  0  0  0  0
  136.8750   69.9300  221.6160 O   0  0  0  0  0  0  0  0  0  0  0  0
  138.4280   70.4820  223.1800 N   0  0  0  0  0  0  0  0  0  0  0  0
  139.1150   69.2580  223.4950 C   0  0  0  0  0  0  0  0  0  0  0  0
  139.3180   69.3340  225.0090 C   0  0  1  0  0  0  0  0  0  0  0  0
  140.3190   68.4870  225.4060 F   0  0  0  0  0  0  0  0  0  0  0  0
  139.7770   70.7830  225.1280 C   0  0  0  0  0  0  0  0  0  0  0  0
  139.2330   71.4930  223.9370 C   0  0  1  0  0  0  0  0  0  0  0  0
  140.3170   71.9490  223.0230 C   0  0  0  0  0  0  0  0  0  0  0  0
  140.0550   73.2210  222.5050 O   0  0  0  0  0  0  0  0  0  0  0  0
  137.3330   75.7480  222.3850 C   0  0  0  0  0  0  0  0  0  0  0  0
  136.6600   76.9240  222.5100 C   0  0  0  0  0  0  0  0  0  0  0  0
  137.3240   78.1250  222.6940 C   0  0  0  0  0  0  0  0  0  0  0  0
  138.7150   78.1170  222.7500 C   0  0  0  0  0  0  0  0  0  0  0  0
  139.4210   79.2880  222.9320 C   0  0  0  0  0  0  0  0  0  0  0  0
  140.7960   79.2170  222.9790 C   0  0  0  0  0  0  0  0  0  0  0  0
  141.8110   80.6270  223.2050 Cl  0  0  0  0  0  0  0  0  0  0  0  0
  141.4170   77.9950  222.8460 C   0  0  0  0  0  0  0  0  0  0  0  0
  140.7180   76.8340  222.6660 C   0  0  0  0  0  0  0  0  0  0  0  0
  139.3440   76.8990  222.6180 C   0  0  0  0  0  0  0  0  0  0  0  0
  138.6750   75.7570  222.4420 N   0  0  0  0  0  0  0  0  0  0  0  0
  138.1840   73.3310  223.0070 H   0  0  0  0  0  0  0  0  0  0  0  0
  135.7407   71.9860  223.1919 H   0  0  0  0  0  0  0  0  0  0  0  0
  136.0791   72.1057  221.3896 H   0  0  0  0  0  0  0  0  0  0  0  0
  138.5035   68.3845  223.2248 H   0  0  0  0  0  0  0  0  0  0  0  0
  140.0603   69.1463  222.9437 H   0  0  0  0  0  0  0  0  0  0  0  0
  138.4422   69.0588  225.6150 H   0  0  0  0  0  0  0  0  0  0  0  0
  139.3838   71.2324  226.0518 H   0  0  0  0  0  0  0  0  0  0  0  0
  140.8740   70.8528  225.1686 H   0  0  0  0  0  0  0  0  0  0  0  0
  138.6570   72.3697  224.2682 H   0  0  0  0  0  0  0  0  0  0  0  0
  141.2646   71.9794  223.5809 H   0  0  0  0  0  0  0  0  0  0  0  0
  140.3772   71.2419  222.1825 H   0  0  0  0  0  0  0  0  0  0  0  0
  139.5100   73.7670  223.1000 H   0  0  0  0  0  0  0  0  0  0  0  0
  135.5610   76.9205  222.4637 H   0  0  0  0  0  0  0  0  0  0  0  0
  136.7638   79.0664  222.7939 H   0  0  0  0  0  0  0  0  0  0  0  0
  138.9007   80.2515  223.0367 H   0  0  0  0  0  0  0  0  0  0  0  0
  142.5154   77.9515  222.8860 H   0  0  0  0  0  0  0  0  0  0  0  0
  141.2407   75.8717  222.5621 H   0  0  0  0  0  0  0  0  0  0  0  0
  1  2  2  0
  2  3  1  0
  3  4  1  0
  4  5  1  0
  5  6  2  0
  5  7  1  0
  7  8  1  0
  8  9  1  0
  9 10  1  0
  9 11  1  0
 11 12  1  0
 12 13  1  0
 13 14  1  0
  2 15  1  0
 15 16  2  0
 16 17  1  0
 17 18  2  0
 18 19  1  0
 19 20  2  0
 20 21  1  0
 20 22  1  0
 22 23  2  0
 23 24  1  0
 24 25  2  0
 12  7  1  0
 25 15  1  0
 24 18  1  0
  3 26  1  0
  4 27  1  0
  4 28  1  0
  8 29  1  0
  8 30  1  0
  9 31  1  1
 11 32  1  0
 11 33  1  0
 12 34  1  1
 13 35  1  0
 13 36  1  0
 14 37  1  0
 16 38  1  0
 17 39  1  0
 19 40  1  0
 22 41  1  0
 23 42  1  0
M  END
>  <smiles>  (16) 
O=C(NCC(=O)N1C[C@@H](F)C[C@H]1CO)c1ccc2cc(Cl)ccc2n1

>  <score_type>  (16) 
oracle

>  <origin>  (16) 
autodockgpu

>  <m_score__min__energy>  (16) 
-7.0099999999999998

>  <m_primary>  (16) 
energy

>  <rmsd>  (16) 
7.8559564593513755

>  <m_score__min__rmsd>  (16) 
7.8559564593513755

>  <meeko>  (16) 
{"free_energy": -5.51, "intermolecular_energy": -7.3, "internal_energy": -2.47, "cluster_size": 3, "cluster_id": 7, "rank_in_cluster": 3}

>  <energy>  (16) 
-6.76

>  <cluster_rmsd>  (16) 
0.0

>  <cluster>  (16) 
2

$$$$

     RDKit          3D

 42 44  0  0  0  0  0  0  0  0999 V2000
  139.2910   72.0590  220.7610 O   0  0  0  0  0  0  0  0  0  0  0  0
  139.4400   72.4330  221.9570 C   0  0  0  0  0  0  0  0  0  0  0  0
  139.4460   73.8290  222.2840 N   0  0  0  0  0  0  0  0  0  0  0  0
  139.2810   74.7580  221.2240 C   0  0  0  0  0  0  0  0  0  0  0  0
  139.8220   76.0730  221.4800 C   0  0  0  0  0  0  0  0  0  0  0  0
  140.3870   76.1610  222.6690 O   0  0  0  0  0  0  0  0  0  0  0  0
  139.8660   77.2510  220.7450 N   0  0  0  0  0  0  0  0  0  0  0  0
  138.9360   78.0650  220.0090 C   0  0  0  0  0  0  0  0  0  0  0  0
  139.6470   78.3170  218.6780 C   0  0  1  0  0  0  0  0  0  0  0  0
  139.1160   79.4100  218.0460 F   0  0  0  0  0  0  0  0  0  0  0  0
  141.0440   78.6370  219.1980 C   0  0  0  0  0  0  0  0  0  0  0  0
  141.1560   77.9810  220.5300 C   0  0  1  0  0  0  0  0  0  0  0  0
  141.2690   78.9800  221.6290 C   0  0  0  0  0  0  0  0  0  0  0  0
  141.8530   78.4260  222.7730 O   0  0  0  0  0  0  0  0  0  0  0  0
  139.6130   71.4620  223.0530 C   0  0  0  0  0  0  0  0  0  0  0  0
  139.2270   70.1680  222.8860 C   0  0  0  0  0  0  0  0  0  0  0  0
  139.3750   69.2300  223.8950 C   0  0  0  0  0  0  0  0  0  0  0  0
  139.9320   69.6340  225.1050 C   0  0  0  0  0  0  0  0  0  0  0  0
  140.0990   68.7370  226.1390 C   0  0  0  0  0  0  0  0  0  0  0  0
  140.6550   69.1940  227.3130 C   0  0  0  0  0  0  0  0  0  0  0  0
  140.9230   68.1600  228.7020 Cl  0  0  0  0  0  0  0  0  0  0  0  0
  141.0240   70.5170  227.4170 C   0  0  0  0  0  0  0  0  0  0  0  0
  140.8580   71.4060  226.3930 C   0  0  0  0  0  0  0  0  0  0  0  0
  140.3030   70.9550  225.2180 C   0  0  0  0  0  0  0  0  0  0  0  0
  140.1490   71.8350  224.2270 N   0  0  0  0  0  0  0  0  0  0  0  0
  139.5750   74.0880  223.2930 H   0  0  0  0  0  0  0  0  0  0  0  0
  139.7793   74.3509  220.3318 H   0  0  0  0  0  0  0  0  0  0  0  0
  138.1967   74.8896  221.0941 H   0  0  0  0  0  0  0  0  0  0  0  0
  137.9871   77.5314  219.8517 H   0  0  0  0  0  0  0  0  0  0  0  0
  138.6751   78.9951  220.5352 H   0  0  0  0  0  0  0  0  0  0  0  0
  139.5848   77.4962  217.9483 H   0  0  0  0  0  0  0  0  0  0  0  0
  141.8060   78.2384  218.5121 H   0  0  0  0  0  0  0  0  0  0  0  0
  141.2030   79.7228  219.2731 H   0  0  0  0  0  0  0  0  0  0  0  0
  142.0466   77.3355  220.5436 H   0  0  0  0  0  0  0  0  0  0  0  0
  141.8884   79.8211  221.2841 H   0  0  0  0  0  0  0  0  0  0  0  0
  140.2556   79.3185  221.8906 H   0  0  0  0  0  0  0  0  0  0  0  0
  141.9950   77.4650  222.6970 H   0  0  0  0  0  0  0  0  0  0  0  0
  138.7867   69.8590  221.9265 H   0  0  0  0  0  0  0  0  0  0  0  0
  139.0588   68.1875  223.7430 H   0  0  0  0  0  0  0  0  0  0  0  0
  139.7963   67.6852  226.0290 H   0  0  0  0  0  0  0  0  0  0  0  0
  141.4686   70.8707  228.3590 H   0  0  0  0  0  0  0  0  0  0  0  0
  141.1610   72.4575  226.5055 H   0  0  0  0  0  0  0  0  0  0  0  0
  1  2  2  0
  2  3  1  0
  3  4  1  0
  4  5  1  0
  5  6  2  0
  5  7  1  0
  7  8  1  0
  8  9  1  0
  9 10  1  0
  9 11  1  0
 11 12  1  0
 12 13  1  0
 13 14  1  0
  2 15  1  0
 15 16  2  0
 16 17  1  0
 17 18  2  0
 18 19  1  0
 19 20  2  0
 20 21  1  0
 20 22  1  0
 22 23  2  0
 23 24  1  0
 24 25  2  0
 12  7  1  0
 25 15  1  0
 24 18  1  0
  3 26  1  0
  4 27  1  0
  4 28  1  0
  8 29  1  0
  8 30  1  0
  9 31  1  6
 11 32  1  0
 11 33  1  0
 12 34  1  6
 13 35  1  0
 13 36  1  0
 14 37  1  0
 16 38  1  0
 17 39  1  0
 19 40  1  0
 22 41  1  0
 23 42  1  0
M  END
>  <smiles>  (17) 
O=C(NCC(=O)N1C[C@@H](F)C[C@H]1CO)c1ccc2cc(Cl)ccc2n1

>  <score_type>  (17) 
oracle

>  <origin>  (17) 
autodockgpu

>  <m_score__min__energy>  (17) 
-7.0099999999999998

>  <m_primary>  (17) 
energy

>  <rmsd>  (17) 
1.7516485137910038

>  <m_score__min__rmsd>  (17) 
1.7516485137910038

>  <meeko>  (17) 
{"free_energy": -6.13, "intermolecular_energy": -7.92, "internal_energy": -2.25, "cluster_size": 15, "cluster_id": 1, "rank_in_cluster": 11}

>  <energy>  (17) 
-6.5

>  <cluster_rmsd>  (17) 
0.69

>  <cluster>  (17) 
2

$$$$

     RDKit          3D

 42 44  0  0  0  0  0  0  0  0999 V2000
  135.4470   74.1530  222.0260 O   0  0  0  0  0  0  0  0  0  0  0  0
  136.6740   74.2100  222.3140 C   0  0  0  0  0  0  0  0  0  0  0  0
  137.4280   73.0070  222.5130 N   0  0  0  0  0  0  0  0  0  0  0  0
  136.7490   71.7700  222.3760 C   0  0  0  0  0  0  0  0  0  0  0  0
  137.2470   70.7070  223.2190 C   0  0  0  0  0  0  0  0  0  0  0  0
  136.3080   69.8360  223.5350 O   0  0  0  0  0  0  0  0  0  0  0  0
  138.4920   70.4190  223.7630 N   0  0  0  0  0  0  0  0  0  0  0  0
  139.2400   69.2390  224.1070 C   0  0  0  0  0  0  0  0  0  0  0  0
  139.7370   69.5250  225.5260 C   0  0  1  0  0  0  0  0  0  0  0  0
  140.8050   68.7250  225.8340 F   0  0  0  0  0  0  0  0  0  0  0  0
  140.1950   70.9670  225.3450 C   0  0  0  0  0  0  0  0  0  0  0  0
  139.4200   71.5120  224.1960 C   0  0  1  0  0  0  0  0  0  0  0  0
  140.2980   71.8140  223.0310 C   0  0  0  0  0  0  0  0  0  0  0  0
  140.2670   73.1720  222.6990 O   0  0  0  0  0  0  0  0  0  0  0  0
  137.3730   75.5000  222.4560 C   0  0  0  0  0  0  0  0  0  0  0  0
  136.6610   76.6510  222.6020 C   0  0  0  0  0  0  0  0  0  0  0  0
  137.2870   77.8800  222.7370 C   0  0  0  0  0  0  0  0  0  0  0  0
  138.6780   77.9260  222.7220 C   0  0  0  0  0  0  0  0  0  0  0  0
  139.3460   79.1260  222.8530 C   0  0  0  0  0  0  0  0  0  0  0  0
  140.7230   79.1090  222.8310 C   0  0  0  0  0  0  0  0  0  0  0  0
  141.6910   80.5610  222.9880 Cl  0  0  0  0  0  0  0  0  0  0  0  0
  141.3830   77.9100  222.6810 C   0  0  0  0  0  0  0  0  0  0  0  0
  140.7220   76.7210  222.5500 C   0  0  0  0  0  0  0  0  0  0  0  0
  139.3470   76.7320  222.5720 C   0  0  0  0  0  0  0  0  0  0  0  0
  138.7150   75.5630  222.4440 N   0  0  0  0  0  0  0  0  0  0  0  0
  138.4450   73.1100  222.7520 H   0  0  0  0  0  0  0  0  0  0  0  0
  135.6891   71.9328  222.6213 H   0  0  0  0  0  0  0  0  0  0  0  0
  136.9099   71.4425  221.3383 H   0  0  0  0  0  0  0  0  0  0  0  0
  138.5960   68.3474  224.0892 H   0  0  0  0  0  0  0  0  0  0  0  0
  140.0589   69.0329  223.4021 H   0  0  0  0  0  0  0  0  0  0  0  0
  139.0011   69.3543  226.3256 H   0  0  0  0  0  0  0  0  0  0  0  0
  139.9873   71.5494  226.2547 H   0  0  0  0  0  0  0  0  0  0  0  0
  141.2776   71.0216  225.1581 H   0  0  0  0  0  0  0  0  0  0  0  0
  138.9122   72.4371  224.5064 H   0  0  0  0  0  0  0  0  0  0  0  0
  141.3314   71.5314  223.2806 H   0  0  0  0  0  0  0  0  0  0  0  0
  139.9307   71.2410  222.1668 H   0  0  0  0  0  0  0  0  0  0  0  0
  139.5800   73.6640  223.1840 H   0  0  0  0  0  0  0  0  0  0  0  0
  135.5620   76.6044  222.6131 H   0  0  0  0  0  0  0  0  0  0  0  0
  136.6964   78.8007  222.8537 H   0  0  0  0  0  0  0  0  0  0  0  0
  138.7942   80.0701  222.9717 H   0  0  0  0  0  0  0  0  0  0  0  0
  142.4829   77.9090  222.6660 H   0  0  0  0  0  0  0  0  0  0  0  0
  141.2762   75.7784  222.4299 H   0  0  0  0  0  0  0  0  0  0  0  0
  1  2  2  0
  2  3  1  0
  3  4  1  0
  4  5  1  0
  5  6  2  0
  5  7  1  0
  7  8  1  0
  8  9  1  0
  9 10  1  0
  9 11  1  0
 11 12  1  0
 12 13  1  0
 13 14  1  0
  2 15  1  0
 15 16  2  0
 16 17  1  0
 17 18  2  0
 18 19  1  0
 19 20  2  0
 20 21  1  0
 20 22  1  0
 22 23  2  0
 23 24  1  0
 24 25  2  0
 12  7  1  0
 25 15  1  0
 24 18  1  0
  3 26  1  0
  4 27  1  0
  4 28  1  0
  8 29  1  0
  8 30  1  0
  9 31  1  1
 11 32  1  0
 11 33  1  0
 12 34  1  1
 13 35  1  0
 13 36  1  0
 14 37  1  0
 16 38  1  0
 17 39  1  0
 19 40  1  0
 22 41  1  0
 23 42  1  0
M  END
>  <smiles>  (18) 
O=C(NCC(=O)N1C[C@@H](F)C[C@H]1CO)c1ccc2cc(Cl)ccc2n1

>  <score_type>  (18) 
oracle

>  <origin>  (18) 
autodockgpu

>  <m_score__min__energy>  (18) 
-7.0099999999999998

>  <m_primary>  (18) 
energy

>  <rmsd>  (18) 
7.870742074270419

>  <m_score__min__rmsd>  (18) 
7.870742074270419

>  <meeko>  (18) 
{"free_energy": -5.65, "intermolecular_energy": -7.44, "internal_energy": -2.54, "cluster_size": 3, "cluster_id": 7, "rank_in_cluster": 1}

>  <energy>  (18) 
-6.42

>  <cluster_rmsd>  (18) 
0.84

>  <cluster>  (18) 
2

$$$$

     RDKit          3D

 42 44  0  0  0  0  0  0  0  0999 V2000
  140.7480   73.7080  220.6240 O   0  0  0  0  0  0  0  0  0  0  0  0
  140.1080   73.7060  221.7110 C   0  0  0  0  0  0  0  0  0  0  0  0
  139.5800   74.9290  222.2430 N   0  0  0  0  0  0  0  0  0  0  0  0
  139.8020   76.1210  221.5080 C   0  0  0  0  0  0  0  0  0  0  0  0
  139.8710   77.3230  222.3070 C   0  0  0  0  0  0  0  0  0  0  0  0
  138.8240   77.4600  223.0970 O   0  0  0  0  0  0  0  0  0  0  0  0
  140.7970   78.3530  222.4110 N   0  0  0  0  0  0  0  0  0  0  0  0
  141.8430   78.7360  223.3210 C   0  0  0  0  0  0  0  0  0  0  0  0
  141.5760   80.2200  223.5800 C   0  0  1  0  0  0  0  0  0  0  0  0
  142.7010   80.8390  224.0570 F   0  0  0  0  0  0  0  0  0  0  0  0
  141.2910   80.6760  222.1530 C   0  0  0  0  0  0  0  0  0  0  0  0
  140.8300   79.4680  221.4120 C   0  0  1  0  0  0  0  0  0  0  0  0
  141.8000   79.0660  220.3550 C   0  0  0  0  0  0  0  0  0  0  0  0
  142.2120   77.7390  220.5090 O   0  0  0  0  0  0  0  0  0  0  0  0
  139.8810   72.4630  222.4710 C   0  0  0  0  0  0  0  0  0  0  0  0
  139.0690   71.4940  221.9680 C   0  0  0  0  0  0  0  0  0  0  0  0
  138.8340   70.3150  222.6560 C   0  0  0  0  0  0  0  0  0  0  0  0
  139.4490   70.1280  223.8900 C   0  0  0  0  0  0  0  0  0  0  0  0
  139.2460   68.9700  224.6120 C   0  0  0  0  0  0  0  0  0  0  0  0
  139.8810   68.8410  225.8270 C   0  0  0  0  0  0  0  0  0  0  0  0
  139.7090   67.4240  226.8420 Cl  0  0  0  0  0  0  0  0  0  0  0  0
  140.6910   69.8600  226.2790 C   0  0  0  0  0  0  0  0  0  0  0  0
  140.8930   71.0070  225.5650 C   0  0  0  0  0  0  0  0  0  0  0  0
  140.2600   71.1410  224.3500 C   0  0  0  0  0  0  0  0  0  0  0  0
  140.4680   72.2670  223.6640 N   0  0  0  0  0  0  0  0  0  0  0  0
  139.0560   74.8730  223.1510 H   0  0  0  0  0  0  0  0  0  0  0  0
  140.7531   76.0160  220.9654 H   0  0  0  0  0  0  0  0  0  0  0  0
  138.9335   76.2408  220.8437 H   0  0  0  0  0  0  0  0  0  0  0  0
  141.7812   78.1579  224.2548 H   0  0  0  0  0  0  0  0  0  0  0  0
  142.8486   78.5490  222.9163 H   0  0  0  0  0  0  0  0  0  0  0  0
  140.7880   80.4334  224.3172 H   0  0  0  0  0  0  0  0  0  0  0  0
  140.5069   81.4475  222.1491 H   0  0  0  0  0  0  0  0  0  0  0  0
  142.1861   81.1135  221.6868 H   0  0  0  0  0  0  0  0  0  0  0  0
  139.8586   79.6790  220.9411 H   0  0  0  0  0  0  0  0  0  0  0  0
  141.3219   79.1789  219.3708 H   0  0  0  0  0  0  0  0  0  0  0  0
  142.6862   79.7122  220.4391 H   0  0  0  0  0  0  0  0  0  0  0  0
  142.8740   77.6280  221.2150 H   0  0  0  0  0  0  0  0  0  0  0  0
  138.5876   71.6507  220.9914 H   0  0  0  0  0  0  0  0  0  0  0  0
  138.1743   69.5419  222.2352 H   0  0  0  0  0  0  0  0  0  0  0  0
  138.5945   68.1714  224.2275 H   0  0  0  0  0  0  0  0  0  0  0  0
  141.1936   69.7456  227.2508 H   0  0  0  0  0  0  0  0  0  0  0  0
  141.5454   71.8039  225.9515 H   0  0  0  0  0  0  0  0  0  0  0  0
  1  2  2  0
  2  3  1  0
  3  4  1  0
  4  5  1  0
  5  6  2  0
  5  7  1  0
  7  8  1  0
  8  9  1  0
  9 10  1  0
  9 11  1  0
 11 12  1  0
 12 13  1  0
 13 14  1  0
  2 15  1  0
 15 16  2  0
 16 17  1  0
 17 18  2  0
 18 19  1  0
 19 20  2  0
 20 21  1  0
 20 22  1  0
 22 23  2  0
 23 24  1  0
 24 25  2  0
 12  7  1  0
 25 15  1  0
 24 18  1  0
  3 26  1  0
  4 27  1  0
  4 28  1  0
  8 29  1  0
  8 30  1  0
  9 31  1  1
 11 32  1  0
 11 33  1  0
 12 34  1  6
 13 35  1  0
 13 36  1  0
 14 37  1  0
 16 38  1  0
 17 39  1  0
 19 40  1  0
 22 41  1  0
 23 42  1  0
M  END
>  <smiles>  (19) 
O=C(NCC(=O)N1C[C@@H](F)C[C@H]1CO)c1ccc2cc(Cl)ccc2n1

>  <score_type>  (19) 
oracle

>  <origin>  (19) 
autodockgpu

>  <m_score__min__energy>  (19) 
-7.0099999999999998

>  <m_primary>  (19) 
energy

>  <rmsd>  (19) 
3.9396691296867874

>  <m_score__min__rmsd>  (19) 
3.9396691296867874

>  <meeko>  (19) 
{"free_energy": -6.91, "intermolecular_energy": -8.7, "internal_energy": -1.19, "cluster_size": 15, "cluster_id": 1, "rank_in_cluster": 2}

>  <energy>  (19) 
-6.41

>  <cluster_rmsd>  (19) 
0.65

>  <cluster>  (19) 
2

$$$$

     RDKit          3D

 42 44  0  0  0  0  0  0  0  0999 V2000
  140.3160   70.9910  221.5900 O   0  0  0  0  0  0  0  0  0  0  0  0
  139.6840   71.9710  222.0700 C   0  0  0  0  0  0  0  0  0  0  0  0
  138.4830   71.7600  222.8240 N   0  0  0  0  0  0  0  0  0  0  0  0
  138.0430   70.4240  223.0060 C   0  0  0  0  0  0  0  0  0  0  0  0
  138.6120   69.7470  224.1490 C   0  0  0  0  0  0  0  0  0  0  0  0
  138.1590   68.5140  224.2780 O   0  0  0  0  0  0  0  0  0  0  0  0
  139.5220   70.1210  225.1290 N   0  0  0  0  0  0  0  0  0  0  0  0
  139.9340   71.3420  225.7690 C   0  0  0  0  0  0  0  0  0  0  0  0
  141.4610   71.2900  225.7040 C   0  0  1  0  0  0  0  0  0  0  0  0
  142.0140   72.1300  226.6330 F   0  0  0  0  0  0  0  0  0  0  0  0
  141.6800   69.8370  226.1130 C   0  0  0  0  0  0  0  0  0  0  0  0
  140.4230   69.1130  225.7740 C   0  0  1  0  0  0  0  0  0  0  0  0
  139.7190   68.6280  226.9940 C   0  0  0  0  0  0  0  0  0  0  0  0
  140.5290   67.7790  227.7550 O   0  0  0  0  0  0  0  0  0  0  0  0
  140.1470   73.3570  221.8760 C   0  0  0  0  0  0  0  0  0  0  0  0
  141.3110   73.6030  221.2150 C   0  0  0  0  0  0  0  0  0  0  0  0
  141.7760   74.8920  221.0160 C   0  0  0  0  0  0  0  0  0  0  0  0
  141.0250   75.9560  221.5090 C   0  0  0  0  0  0  0  0  0  0  0  0
  141.4460   77.2580  221.3360 C   0  0  0  0  0  0  0  0  0  0  0  0
  140.6620   78.2690  221.8460 C   0  0  0  0  0  0  0  0  0  0  0  0
  141.0810   79.9630  221.6940 Cl  0  0  0  0  0  0  0  0  0  0  0  0
  139.4940   77.9520  222.5050 C   0  0  0  0  0  0  0  0  0  0  0  0
  139.0770   76.6630  222.6770 C   0  0  0  0  0  0  0  0  0  0  0  0
  139.8560   75.6490  222.1700 C   0  0  0  0  0  0  0  0  0  0  0  0
  139.4350   74.3950  222.3450 N   0  0  0  0  0  0  0  0  0  0  0  0
  137.9940   72.6080  223.2010 H   0  0  0  0  0  0  0  0  0  0  0  0
  136.9497   70.4376  223.1261 H   0  0  0  0  0  0  0  0  0  0  0  0
  138.3763   69.8656  222.1189 H   0  0  0  0  0  0  0  0  0  0  0  0
  139.5482   72.2181  225.2271 H   0  0  0  0  0  0  0  0  0  0  0  0
  139.5546   71.4324  226.7975 H   0  0  0  0  0  0  0  0  0  0  0  0
  141.9004   71.5872  224.7403 H   0  0  0  0  0  0  0  0  0  0  0  0
  142.5277   69.4087  225.5580 H   0  0  0  0  0  0  0  0  0  0  0  0
  141.9123   69.7542  227.1850 H   0  0  0  0  0  0  0  0  0  0  0  0
  140.6616   68.2495  225.1358 H   0  0  0  0  0  0  0  0  0  0  0  0
  139.4334   69.4942  227.6090 H   0  0  0  0  0  0  0  0  0  0  0  0
  138.8316   68.0612  226.6756 H   0  0  0  0  0  0  0  0  0  0  0  0
  140.3400   66.8360  227.5980 H   0  0  0  0  0  0  0  0  0  0  0  0
  141.8974   72.7562  220.8290 H   0  0  0  0  0  0  0  0  0  0  0  0
  142.7193   75.0718  220.4795 H   0  0  0  0  0  0  0  0  0  0  0  0
  142.3827   77.4829  220.8050 H   0  0  0  0  0  0  0  0  0  0  0  0
  138.8747   78.7673  222.9073 H   0  0  0  0  0  0  0  0  0  0  0  0
  138.1400   76.4408  223.2086 H   0  0  0  0  0  0  0  0  0  0  0  0
  1  2  2  0
  2  3  1  0
  3  4  1  0
  4  5  1  0
  5  6  2  0
  5  7  1  0
  7  8  1  0
  8  9  1  0
  9 10  1  0
  9 11  1  0
 11 12  1  0
 12 13  1  0
 13 14  1  0
  2 15  1  0
 15 16  2  0
 16 17  1  0
 17 18  2  0
 18 19  1  0
 19 20  2  0
 20 21  1  0
 20 22  1  0
 22 23  2  0
 23 24  1  0
 24 25  2  0
 12  7  1  0
 25 15  1  0
 24 18  1  0
  3 26  1  0
  4 27  1  0
  4 28  1  0
  8 29  1  0
  8 30  1  0
  9 31  1  6
 11 32  1  0
 11 33  1  0
 12 34  1  6
 13 35  1  0
 13 36  1  0
 14 37  1  0
 16 38  1  0
 17 39  1  0
 19 40  1  0
 22 41  1  0
 23 42  1  0
M  END
>  <smiles>  (20) 
O=C(NCC(=O)N1C[C@@H](F)C[C@H]1CO)c1ccc2cc(Cl)ccc2n1

>  <score_type>  (20) 
oracle

>  <origin>  (20) 
autodockgpu

>  <m_score__min__energy>  (20) 
-7.0099999999999998

>  <m_primary>  (20) 
energy

>  <rmsd>  (20) 
7.853835851860575

>  <m_score__min__rmsd>  (20) 
7.853835851860575

>  <meeko>  (20) 
{"free_energy": -6.4, "intermolecular_energy": -8.19, "internal_energy": -1.52, "cluster_size": 1, "cluster_id": 4, "rank_in_cluster": 1}

>  <energy>  (20) 
-6.39

>  <cluster_rmsd>  (20) 
0.67

>  <cluster>  (20) 
2

$$$$

     RDKit          3D

 42 44  0  0  0  0  0  0  0  0999 V2000
  140.2600   72.3150  220.6310 O   0  0  0  0  0  0  0  0  0  0  0  0
  140.0220   72.6810  221.8140 C   0  0  0  0  0  0  0  0  0  0  0  0
  139.7490   74.0580  222.1050 N   0  0  0  0  0  0  0  0  0  0  0  0
  139.7570   74.9770  221.0250 C   0  0  0  0  0  0  0  0  0  0  0  0
  140.0120   76.3500  221.3980 C   0  0  0  0  0  0  0  0  0  0  0  0
  139.9510   76.5350  222.7020 O   0  0  0  0  0  0  0  0  0  0  0  0
  140.3000   77.5010  220.6760 N   0  0  0  0  0  0  0  0  0  0  0  0
  139.5860   78.4110  219.8200 C   0  0  0  0  0  0  0  0  0  0  0  0
  140.4960   78.5520  218.5990 C   0  0  1  0  0  0  0  0  0  0  0  0
  140.1950   79.6920  217.9010 F   0  0  0  0  0  0  0  0  0  0  0  0
  141.8390   78.7080  219.3040 C   0  0  0  0  0  0  0  0  0  0  0  0
  141.6870   78.0650  220.6400 C   0  0  1  0  0  0  0  0  0  0  0  0
  141.7730   79.0610  221.7440 C   0  0  0  0  0  0  0  0  0  0  0  0
  141.8340   78.4400  222.9960 O   0  0  0  0  0  0  0  0  0  0  0  0
  140.0170   71.7200  222.9330 C   0  0  0  0  0  0  0  0  0  0  0  0
  139.4920   70.4770  222.7620 C   0  0  0  0  0  0  0  0  0  0  0  0
  139.4700   69.5500  223.7920 C   0  0  0  0  0  0  0  0  0  0  0  0
  140.0020   69.9120  225.0270 C   0  0  0  0  0  0  0  0  0  0  0  0
  140.0030   69.0240  226.0820 C   0  0  0  0  0  0  0  0  0  0  0  0
  140.5420   69.4380  227.2800 C   0  0  0  0  0  0  0  0  0  0  0  0
  140.6070   68.4100  228.6970 Cl  0  0  0  0  0  0  0  0  0  0  0  0
  141.0580   70.7110  227.3860 C   0  0  0  0  0  0  0  0  0  0  0  0
  141.0570   71.5910  226.3410 C   0  0  0  0  0  0  0  0  0  0  0  0
  140.5190   71.1830  225.1420 C   0  0  0  0  0  0  0  0  0  0  0  0
  140.5260   72.0530  224.1310 N   0  0  0  0  0  0  0  0  0  0  0  0
  139.5590   74.3110  223.1060 H   0  0  0  0  0  0  0  0  0  0  0  0
  140.5378   74.6646  220.3159 H   0  0  0  0  0  0  0  0  0  0  0  0
  138.7451   74.9565  220.5941 H   0  0  0  0  0  0  0  0  0  0  0  0
  138.6084   77.9953  219.5344 H   0  0  0  0  0  0  0  0  0  0  0  0
  139.3734   79.3746  220.3061 H   0  0  0  0  0  0  0  0  0  0  0  0
  140.4317   77.7326  217.8679 H   0  0  0  0  0  0  0  0  0  0  0  0
  142.6317   78.2077  218.7284 H   0  0  0  0  0  0  0  0  0  0  0  0
  142.1198   79.7672  219.3996 H   0  0  0  0  0  0  0  0  0  0  0  0
  142.4807   77.3156  220.7758 H   0  0  0  0  0  0  0  0  0  0  0  0
  142.6774   79.6714  221.6041 H   0  0  0  0  0  0  0  0  0  0  0  0
  140.8681   79.6857  221.7142 H   0  0  0  0  0  0  0  0  0  0  0  0
  141.8780   77.4690  222.9340 H   0  0  0  0  0  0  0  0  0  0  0  0
  139.0748   70.2008  221.7824 H   0  0  0  0  0  0  0  0  0  0  0  0
  139.0412   68.5489  223.6372 H   0  0  0  0  0  0  0  0  0  0  0  0
  139.5848   68.0128  225.9699 H   0  0  0  0  0  0  0  0  0  0  0  0
  141.4865   71.0306  228.3474 H   0  0  0  0  0  0  0  0  0  0  0  0
  141.4763   72.6015  226.4553 H   0  0  0  0  0  0  0  0  0  0  0  0
  1  2  2  0
  2  3  1  0
  3  4  1  0
  4  5  1  0
  5  6  2  0
  5  7  1  0
  7  8  1  0
  8  9  1  0
  9 10  1  0
  9 11  1  0
 11 12  1  0
 12 13  1  0
 13 14  1  0
  2 15  1  0
 15 16  2  0
 16 17  1  0
 17 18  2  0
 18 19  1  0
 19 20  2  0
 20 21  1  0
 20 22  1  0
 22 23  2  0
 23 24  1  0
 24 25  2  0
 12  7  1  0
 25 15  1  0
 24 18  1  0
  3 26  1  0
  4 27  1  0
  4 28  1  0
  8 29  1  0
  8 30  1  0
  9 31  1  6
 11 32  1  0
 11 33  1  0
 12 34  1  1
 13 35  1  0
 13 36  1  0
 14 37  1  0
 16 38  1  0
 17 39  1  0
 19 40  1  0
 22 41  1  0
 23 42  1  0
M  END
>  <smiles>  (21) 
O=C(NCC(=O)N1C[C@@H](F)C[C@H]1CO)c1ccc2cc(Cl)ccc2n1

>  <score_type>  (21) 
oracle

>  <origin>  (21) 
autodockgpu

>  <m_score__min__energy>  (21) 
-7.0099999999999998

>  <m_primary>  (21) 
energy

>  <rmsd>  (21) 
2.037094377699923

>  <m_score__min__rmsd>  (21) 
2.037094377699923

>  <meeko>  (21) 
{"free_energy": -6.42, "intermolecular_energy": -8.21, "internal_energy": -2.16, "cluster_size": 15, "cluster_id": 1, "rank_in_cluster": 5}

>  <energy>  (21) 
-6.39

>  <cluster_rmsd>  (21) 
0.7

>  <cluster>  (21) 
2

$$$$

     RDKit          3D

 42 44  0  0  0  0  0  0  0  0999 V2000
  139.8560   69.7170  222.1760 O   0  0  0  0  0  0  0  0  0  0  0  0
  139.6230   70.8410  222.6990 C   0  0  0  0  0  0  0  0  0  0  0  0
  138.7790   70.9420  223.8530 N   0  0  0  0  0  0  0  0  0  0  0  0
  138.2250   69.7450  224.3750 C   0  0  0  0  0  0  0  0  0  0  0  0
  139.1660   68.8890  225.0620 C   0  0  0  0  0  0  0  0  0  0  0  0
  139.1710   67.6610  224.5810 O   0  0  0  0  0  0  0  0  0  0  0  0
  140.0520   69.0890  226.1130 N   0  0  0  0  0  0  0  0  0  0  0  0
  141.0380   68.3130  226.8160 C   0  0  0  0  0  0  0  0  0  0  0  0
  140.7100   68.5580  228.2900 C   0  0  1  0  0  0  0  0  0  0  0  0
  141.7890   68.2640  229.0810 F   0  0  0  0  0  0  0  0  0  0  0  0
  140.4830   70.0650  228.2500 C   0  0  0  0  0  0  0  0  0  0  0  0
  140.1000   70.3930  226.8480 C   0  0  1  0  0  0  0  0  0  0  0  0
  141.1330   71.2270  226.1740 C   0  0  0  0  0  0  0  0  0  0  0  0
  140.5630   72.1120  225.2530 O   0  0  0  0  0  0  0  0  0  0  0  0
  140.2010   72.0820  222.1510 C   0  0  0  0  0  0  0  0  0  0  0  0
  141.2790   72.0260  221.3230 C   0  0  0  0  0  0  0  0  0  0  0  0
  141.8480   73.1720  220.7910 C   0  0  0  0  0  0  0  0  0  0  0  0
  141.2930   74.4060  221.1190 C   0  0  0  0  0  0  0  0  0  0  0  0
  141.8230   75.5740  220.6140 C   0  0  0  0  0  0  0  0  0  0  0  0
  141.2330   76.7660  220.9740 C   0  0  0  0  0  0  0  0  0  0  0  0
  141.8060   78.3190  220.4030 Cl  0  0  0  0  0  0  0  0  0  0  0  0
  140.1420   76.7530  221.8160 C   0  0  0  0  0  0  0  0  0  0  0  0
  139.6160   75.5960  222.3160 C   0  0  0  0  0  0  0  0  0  0  0  0
  140.2030   74.4030  221.9610 C   0  0  0  0  0  0  0  0  0  0  0  0
  139.6780   73.2810  222.4570 N   0  0  0  0  0  0  0  0  0  0  0  0
  138.6160   71.9000  224.2500 H   0  0  0  0  0  0  0  0  0  0  0  0
  137.4295   70.0173  225.0843 H   0  0  0  0  0  0  0  0  0  0  0  0
  137.8592   69.1712  223.5107 H   0  0  0  0  0  0  0  0  0  0  0  0
  140.9478   67.2455  226.5664 H   0  0  0  0  0  0  0  0  0  0  0  0
  142.0684   68.5971  226.5559 H   0  0  0  0  0  0  0  0  0  0  0  0
  139.8787   67.9600  228.6917 H   0  0  0  0  0  0  0  0  0  0  0  0
  139.6753   70.3470  228.9414 H   0  0  0  0  0  0  0  0  0  0  0  0
  141.3857   70.6136  228.5567 H   0  0  0  0  0  0  0  0  0  0  0  0
  139.1475   70.9432  226.8506 H   0  0  0  0  0  0  0  0  0  0  0  0
  141.6763   71.8058  226.9354 H   0  0  0  0  0  0  0  0  0  0  0  0
  141.8134   70.5561  225.6291 H   0  0  0  0  0  0  0  0  0  0  0  0
  141.0530   72.1490  224.4110 H   0  0  0  0  0  0  0  0  0  0  0  0
  141.7099   71.0462  221.0694 H   0  0  0  0  0  0  0  0  0  0  0  0
  142.7200   73.1081  220.1235 H   0  0  0  0  0  0  0  0  0  0  0  0
  142.6935   75.5550  219.9417 H   0  0  0  0  0  0  0  0  0  0  0  0
  139.6776   77.7101  222.0957 H   0  0  0  0  0  0  0  0  0  0  0  0
  138.7441   75.6172  222.9863 H   0  0  0  0  0  0  0  0  0  0  0  0
  1  2  2  0
  2  3  1  0
  3  4  1  0
  4  5  1  0
  5  6  2  0
  5  7  1  0
  7  8  1  0
  8  9  1  0
  9 10  1  0
  9 11  1  0
 11 12  1  0
 12 13  1  0
 13 14  1  0
  2 15  1  0
 15 16  2  0
 16 17  1  0
 17 18  2  0
 18 19  1  0
 19 20  2  0
 20 21  1  0
 20 22  1  0
 22 23  2  0
 23 24  1  0
 24 25  2  0
 12  7  1  0
 25 15  1  0
 24 18  1  0
  3 26  1  0
  4 27  1  0
  4 28  1  0
  8 29  1  0
  8 30  1  0
  9 31  1  1
 11 32  1  0
 11 33  1  0
 12 34  1  1
 13 35  1  0
 13 36  1  0
 14 37  1  0
 16 38  1  0
 17 39  1  0
 19 40  1  0
 22 41  1  0
 23 42  1  0
M  END
>  <smiles>  (22) 
O=C(NCC(=O)N1C[C@@H](F)C[C@H]1CO)c1ccc2cc(Cl)ccc2n1

>  <score_type>  (22) 
oracle

>  <origin>  (22) 
autodockgpu

>  <m_score__min__energy>  (22) 
-7.0099999999999998

>  <m_primary>  (22) 
energy

>  <rmsd>  (22) 
8.338228768990389

>  <m_score__min__rmsd>  (22) 
8.338228768990389

>  <meeko>  (22) 
{"free_energy": -6.34, "intermolecular_energy": -8.13, "internal_energy": -2.23, "cluster_size": 20, "cluster_id": 2, "rank_in_cluster": 12}

>  <energy>  (22) 
-6.39

>  <cluster_rmsd>  (22) 
0.86

>  <cluster>  (22) 
2

$$$$

     RDKit          3D

 42 44  0  0  0  0  0  0  0  0999 V2000
  138.7870   73.3210  221.2010 O   0  0  0  0  0  0  0  0  0  0  0  0
  139.8370   72.8860  221.7490 C   0  0  0  0  0  0  0  0  0  0  0  0
  141.1250   73.3110  221.2840 N   0  0  0  0  0  0  0  0  0  0  0  0
  141.1700   74.2240  220.2000 C   0  0  0  0  0  0  0  0  0  0  0  0
  141.8130   75.4850  220.4940 C   0  0  0  0  0  0  0  0  0  0  0  0
  143.1020   75.4670  220.2150 O   0  0  0  0  0  0  0  0  0  0  0  0
  141.3610   76.6940  221.0060 N   0  0  0  0  0  0  0  0  0  0  0  0
  141.3950   78.0780  220.6160 C   0  0  0  0  0  0  0  0  0  0  0  0
  141.8690   78.8010  221.8790 C   0  0  1  0  0  0  0  0  0  0  0  0
  141.5410   80.1300  221.8270 F   0  0  0  0  0  0  0  0  0  0  0  0
  141.0060   78.0870  222.9140 C   0  0  0  0  0  0  0  0  0  0  0  0
  140.6610   76.7610  222.3290 C   0  0  1  0  0  0  0  0  0  0  0  0
  139.2030   76.6450  222.0470 C   0  0  0  0  0  0  0  0  0  0  0  0
  138.5730   75.7690  222.9370 O   0  0  0  0  0  0  0  0  0  0  0  0
  139.7830   71.9360  222.8750 C   0  0  0  0  0  0  0  0  0  0  0  0
  139.0600   70.7890  222.7670 C   0  0  0  0  0  0  0  0  0  0  0  0
  138.9870   69.8750  223.8050 C   0  0  0  0  0  0  0  0  0  0  0  0
  139.6760   70.1480  224.9840 C   0  0  0  0  0  0  0  0  0  0  0  0
  139.6340   69.2690  226.0460 C   0  0  0  0  0  0  0  0  0  0  0  0
  140.3340   69.5930  227.1870 C   0  0  0  0  0  0  0  0  0  0  0  0
  140.3660   68.5650  228.6050 Cl  0  0  0  0  0  0  0  0  0  0  0  0
  141.0480   70.7710  227.2320 C   0  0  0  0  0  0  0  0  0  0  0  0
  141.0890   71.6420  226.1800 C   0  0  0  0  0  0  0  0  0  0  0  0
  140.3910   71.3240  225.0380 C   0  0  0  0  0  0  0  0  0  0  0  0
  140.4420   72.1850  224.0200 N   0  0  0  0  0  0  0  0  0  0  0  0
  141.9680   72.9200  221.7730 H   0  0  0  0  0  0  0  0  0  0  0  0
  141.7160   73.7464  219.3731 H   0  0  0  0  0  0  0  0  0  0  0  0
  140.1248   74.4606  219.9516 H   0  0  0  0  0  0  0  0  0  0  0  0
  142.1006   78.2343  219.7867 H   0  0  0  0  0  0  0  0  0  0  0  0
  140.4216   78.4430  220.2566 H   0  0  0  0  0  0  0  0  0  0  0  0
  142.9539   78.7722  222.0585 H   0  0  0  0  0  0  0  0  0  0  0  0
  141.5663   77.9554  223.8514 H   0  0  0  0  0  0  0  0  0  0  0  0
  140.1016   78.6674  223.1489 H   0  0  0  0  0  0  0  0  0  0  0  0
  140.9509   75.9666  223.0325 H   0  0  0  0  0  0  0  0  0  0  0  0
  138.7418   77.6394  222.1387 H   0  0  0  0  0  0  0  0  0  0  0  0
  139.0808   76.2467  221.0289 H   0  0  0  0  0  0  0  0  0  0  0  0
  138.7690   74.8330  222.7480 H   0  0  0  0  0  0  0  0  0  0  0  0
  138.5196   70.5821  221.8315 H   0  0  0  0  0  0  0  0  0  0  0  0
  138.3970   68.9525  223.7003 H   0  0  0  0  0  0  0  0  0  0  0  0
  139.0571   68.3345  225.9834 H   0  0  0  0  0  0  0  0  0  0  0  0
  141.6048   71.0189  228.1477 H   0  0  0  0  0  0  0  0  0  0  0  0
  141.6667   72.5758  226.2447 H   0  0  0  0  0  0  0  0  0  0  0  0
  1  2  2  0
  2  3  1  0
  3  4  1  0
  4  5  1  0
  5  6  2  0
  5  7  1  0
  7  8  1  0
  8  9  1  0
  9 10  1  0
  9 11  1  0
 11 12  1  0
 12 13  1  0
 13 14  1  0
  2 15  1  0
 15 16  2  0
 16 17  1  0
 17 18  2  0
 18 19  1  0
 19 20  2  0
 20 21  1  0
 20 22  1  0
 22 23  2  0
 23 24  1  0
 24 25  2  0
 12  7  1  0
 25 15  1  0
 24 18  1  0
  3 26  1  0
  4 27  1  0
  4 28  1  0
  8 29  1  0
  8 30  1  0
  9 31  1  1
 11 32  1  0
 11 33  1  0
 12 34  1  1
 13 35  1  0
 13 36  1  0
 14 37  1  0
 16 38  1  0
 17 39  1  0
 19 40  1  0
 22 41  1  0
 23 42  1  0
M  END
>  <smiles>  (23) 
O=C(NCC(=O)N1C[C@@H](F)C[C@H]1CO)c1ccc2cc(Cl)ccc2n1

>  <score_type>  (23) 
oracle

>  <origin>  (23) 
autodockgpu

>  <m_score__min__energy>  (23) 
-7.0099999999999998

>  <m_primary>  (23) 
energy

>  <rmsd>  (23) 
3.1022688573878674

>  <m_score__min__rmsd>  (23) 
3.1022688573878674

>  <meeko>  (23) 
{"free_energy": -6.34, "intermolecular_energy": -8.13, "internal_energy": -1.9, "cluster_size": 15, "cluster_id": 1, "rank_in_cluster": 8}

>  <energy>  (23) 
-6.38

>  <cluster_rmsd>  (23) 
0.86

>  <cluster>  (23) 
2

$$$$

     RDKit          3D

 42 44  0  0  0  0  0  0  0  0999 V2000
  139.7240   76.3150  219.7390 O   0  0  0  0  0  0  0  0  0  0  0  0
  140.3820   75.5990  220.5420 C   0  0  0  0  0  0  0  0  0  0  0  0
  141.7690   75.8680  220.7830 N   0  0  0  0  0  0  0  0  0  0  0  0
  142.3620   76.9540  220.0910 C   0  0  0  0  0  0  0  0  0  0  0  0
  141.7800   78.2460  220.3740 C   0  0  0  0  0  0  0  0  0  0  0  0
  141.3310   78.8440  219.2870 O   0  0  0  0  0  0  0  0  0  0  0  0
  141.6000   78.9810  221.5390 N   0  0  0  0  0  0  0  0  0  0  0  0
  141.9360   80.2970  222.0120 C   0  0  0  0  0  0  0  0  0  0  0  0
  142.5500   80.0420  223.3900 C   0  0  1  0  0  0  0  0  0  0  0  0
  142.5200   81.1810  224.1510 F   0  0  0  0  0  0  0  0  0  0  0  0
  141.5480   79.0260  223.9260 C   0  0  0  0  0  0  0  0  0  0  0  0
  140.9250   78.3840  222.7350 C   0  0  1  0  0  0  0  0  0  0  0  0
  139.4780   78.7180  222.6220 C   0  0  0  0  0  0  0  0  0  0  0  0
  138.9760   78.4150  221.3520 O   0  0  0  0  0  0  0  0  0  0  0  0
  139.7590   74.4700  221.2580 C   0  0  0  0  0  0  0  0  0  0  0  0
  138.4320   74.2100  221.1000 C   0  0  0  0  0  0  0  0  0  0  0  0
  137.8150   73.1580  221.7570 C   0  0  0  0  0  0  0  0  0  0  0  0
  138.5820   72.3550  222.5980 C   0  0  0  0  0  0  0  0  0  0  0  0
  138.0120   71.2960  223.2740 C   0  0  0  0  0  0  0  0  0  0  0  0
  138.8190   70.5370  224.0920 C   0  0  0  0  0  0  0  0  0  0  0  0
  138.2230   69.1660  225.0050 Cl  0  0  0  0  0  0  0  0  0  0  0  0
  140.1550   70.8540  224.2080 C   0  0  0  0  0  0  0  0  0  0  0  0
  140.7190   71.9030  223.5390 C   0  0  0  0  0  0  0  0  0  0  0  0
  139.9170   72.6650  222.7200 C   0  0  0  0  0  0  0  0  0  0  0  0
  140.4830   73.6850  222.0730 N   0  0  0  0  0  0  0  0  0  0  0  0
  142.2720   75.2430  221.4600 H   0  0  0  0  0  0  0  0  0  0  0  0
  143.4271   76.9920  220.3632 H   0  0  0  0  0  0  0  0  0  0  0  0
  142.1927   76.7671  219.0203 H   0  0  0  0  0  0  0  0  0  0  0  0
  142.6624   80.7807  221.3424 H   0  0  0  0  0  0  0  0  0  0  0  0
  141.0672   80.9705  222.0507 H   0  0  0  0  0  0  0  0  0  0  0  0
  143.6016   79.7194  223.3838 H   0  0  0  0  0  0  0  0  0  0  0  0
  142.0620   78.2717  224.5400 H   0  0  0  0  0  0  0  0  0  0  0  0
  140.7909   79.5085  224.5616 H   0  0  0  0  0  0  0  0  0  0  0  0
  141.0313   77.2919  222.8127 H   0  0  0  0  0  0  0  0  0  0  0  0
  138.9190   78.1412  223.3735 H   0  0  0  0  0  0  0  0  0  0  0  0
  139.3610   79.7990  222.7887 H   0  0  0  0  0  0  0  0  0  0  0  0
  139.6780   78.2980  220.6860 H   0  0  0  0  0  0  0  0  0  0  0  0
  137.8352   74.8509  220.4344 H   0  0  0  0  0  0  0  0  0  0  0  0
  136.7418   72.9609  221.6175 H   0  0  0  0  0  0  0  0  0  0  0  0
  136.9425   71.0643  223.1627 H   0  0  0  0  0  0  0  0  0  0  0  0
  140.7904   70.2400  224.8631 H   0  0  0  0  0  0  0  0  0  0  0  0
  141.7887   72.1333  223.6521 H   0  0  0  0  0  0  0  0  0  0  0  0
  1  2  2  0
  2  3  1  0
  3  4  1  0
  4  5  1  0
  5  6  2  0
  5  7  1  0
  7  8  1  0
  8  9  1  0
  9 10  1  0
  9 11  1  0
 11 12  1  0
 12 13  1  0
 13 14  1  0
  2 15  1  0
 15 16  2  0
 16 17  1  0
 17 18  2  0
 18 19  1  0
 19 20  2  0
 20 21  1  0
 20 22  1  0
 22 23  2  0
 23 24  1  0
 24 25  2  0
 12  7  1  0
 25 15  1  0
 24 18  1  0
  3 26  1  0
  4 27  1  0
  4 28  1  0
  8 29  1  0
  8 30  1  0
  9 31  1  6
 11 32  1  0
 11 33  1  0
 12 34  1  1
 13 35  1  0
 13 36  1  0
 14 37  1  0
 16 38  1  0
 17 39  1  0
 19 40  1  0
 22 41  1  0
 23 42  1  0
M  END
>  <smiles>  (24) 
O=C(NCC(=O)N1C[C@@H](F)C[C@H]1CO)c1ccc2cc(Cl)ccc2n1

>  <score_type>  (24) 
oracle

>  <origin>  (24) 
autodockgpu

>  <m_score__min__energy>  (24) 
-7.0099999999999998

>  <m_primary>  (24) 
energy

>  <rmsd>  (24) 
5.348662918809102

>  <m_score__min__rmsd>  (24) 
5.348662918809102

>  <meeko>  (24) 
{"free_energy": -5.11, "intermolecular_energy": -6.9, "internal_energy": -2.78, "cluster_size": 1, "cluster_id": 8, "rank_in_cluster": 1}

>  <energy>  (24) 
-6.37

>  <cluster_rmsd>  (24) 
0.86

>  <cluster>  (24) 
2

$$$$

     RDKit          3D

 42 44  0  0  0  0  0  0  0  0999 V2000
  139.9380   69.8570  221.8830 O   0  0  0  0  0  0  0  0  0  0  0  0
  139.6820   70.9420  222.4720 C   0  0  0  0  0  0  0  0  0  0  0  0
  138.8330   70.9550  223.6280 N   0  0  0  0  0  0  0  0  0  0  0  0
  138.3010   69.7180  224.0730 C   0  0  0  0  0  0  0  0  0  0  0  0
  139.1940   68.9350  224.8970 C   0  0  0  0  0  0  0  0  0  0  0  0
  139.1960   67.6590  224.5630 O   0  0  0  0  0  0  0  0  0  0  0  0
  140.0360   69.2430  225.9580 N   0  0  0  0  0  0  0  0  0  0  0  0
  140.9540   68.5350  226.8090 C   0  0  0  0  0  0  0  0  0  0  0  0
  140.5660   68.9870  228.2180 C   0  0  1  0  0  0  0  0  0  0  0  0
  141.5930   68.7650  229.0970 F   0  0  0  0  0  0  0  0  0  0  0  0
  140.4050   70.4820  227.9660 C   0  0  0  0  0  0  0  0  0  0  0  0
  140.1030   70.6310  226.5150 C   0  0  1  0  0  0  0  0  0  0  0  0
  141.2020   71.3300  225.7920 C   0  0  0  0  0  0  0  0  0  0  0  0
  140.7060   72.2400  224.8530 O   0  0  0  0  0  0  0  0  0  0  0  0
  140.2370   72.2250  222.0040 C   0  0  0  0  0  0  0  0  0  0  0  0
  141.3290   72.2410  221.1910 C   0  0  0  0  0  0  0  0  0  0  0  0
  141.8760   73.4280  220.7330 C   0  0  0  0  0  0  0  0  0  0  0  0
  141.2860   74.6280  221.1200 C   0  0  0  0  0  0  0  0  0  0  0  0
  141.7950   75.8350  220.6900 C   0  0  0  0  0  0  0  0  0  0  0  0
  141.1690   76.9900  221.1060 C   0  0  0  0  0  0  0  0  0  0  0  0
  141.7130   78.5870  220.6320 Cl  0  0  0  0  0  0  0  0  0  0  0  0
  140.0680   76.9050  221.9280 C   0  0  0  0  0  0  0  0  0  0  0  0
  139.5630   75.7090  222.3550 C   0  0  0  0  0  0  0  0  0  0  0  0
  140.1840   74.5520  221.9430 C   0  0  0  0  0  0  0  0  0  0  0  0
  139.6800   73.3920  222.3680 N   0  0  0  0  0  0  0  0  0  0  0  0
  138.6500   71.8840  224.0820 H   0  0  0  0  0  0  0  0  0  0  0  0
  137.3919   69.9265  224.6562 H   0  0  0  0  0  0  0  0  0  0  0  0
  138.1097   69.1204  223.1695 H   0  0  0  0  0  0  0  0  0  0  0  0
  140.8318   67.4474  226.6986 H   0  0  0  0  0  0  0  0  0  0  0  0
  142.0065   68.7459  226.5688 H   0  0  0  0  0  0  0  0  0  0  0  0
  139.6922   68.4779  228.6508 H   0  0  0  0  0  0  0  0  0  0  0  0
  139.5781   70.8833  228.5704 H   0  0  0  0  0  0  0  0  0  0  0  0
  141.3146   71.0346  228.2440 H   0  0  0  0  0  0  0  0  0  0  0  0
  139.1750   71.2090  226.3941 H   0  0  0  0  0  0  0  0  0  0  0  0
  141.8206   71.8725  226.5221 H   0  0  0  0  0  0  0  0  0  0  0  0
  141.7958   70.5743  225.2570 H   0  0  0  0  0  0  0  0  0  0  0  0
  139.7360   72.3340  224.8930 H   0  0  0  0  0  0  0  0  0  0  0  0
  141.7881   71.2876  220.8905 H   0  0  0  0  0  0  0  0  0  0  0  0
  142.7588   73.4227  220.0768 H   0  0  0  0  0  0  0  0  0  0  0  0
  142.6764   75.8749  220.0331 H   0  0  0  0  0  0  0  0  0  0  0  0
  139.5766   77.8339  222.2531 H   0  0  0  0  0  0  0  0  0  0  0  0
  138.6816   75.6720  223.0120 H   0  0  0  0  0  0  0  0  0  0  0  0
  1  2  2  0
  2  3  1  0
  3  4  1  0
  4  5  1  0
  5  6  2  0
  5  7  1  0
  7  8  1  0
  8  9  1  0
  9 10  1  0
  9 11  1  0
 11 12  1  0
 12 13  1  0
 13 14  1  0
  2 15  1  0
 15 16  2  0
 16 17  1  0
 17 18  2  0
 18 19  1  0
 19 20  2  0
 20 21  1  0
 20 22  1  0
 22 23  2  0
 23 24  1  0
 24 25  2  0
 12  7  1  0
 25 15  1  0
 24 18  1  0
  3 26  1  0
  4 27  1  0
  4 28  1  0
  8 29  1  0
  8 30  1  0
  9 31  1  1
 11 32  1  0
 11 33  1  0
 12 34  1  1
 13 35  1  0
 13 36  1  0
 14 37  1  0
 16 38  1  0
 17 39  1  0
 19 40  1  0
 22 41  1  0
 23 42  1  0
M  END
>  <smiles>  (25) 
O=C(NCC(=O)N1C[C@@H](F)C[C@H]1CO)c1ccc2cc(Cl)ccc2n1

>  <score_type>  (25) 
oracle

>  <origin>  (25) 
autodockgpu

>  <m_score__min__energy>  (25) 
-7.0099999999999998

>  <m_primary>  (25) 
energy

>  <rmsd>  (25) 
8.221234704434153

>  <m_score__min__rmsd>  (25) 
8.221234704434153

>  <meeko>  (25) 
{"free_energy": -6.39, "intermolecular_energy": -8.18, "internal_energy": -2.08, "cluster_size": 20, "cluster_id": 2, "rank_in_cluster": 5}

>  <energy>  (25) 
-6.37

>  <cluster_rmsd>  (25) 
0.86

>  <cluster>  (25) 
2

$$$$

     RDKit          3D

 42 44  0  0  0  0  0  0  0  0999 V2000
  140.1730   72.2750  220.6380 O   0  0  0  0  0  0  0  0  0  0  0  0
  139.9580   72.6540  221.8210 C   0  0  0  0  0  0  0  0  0  0  0  0
  139.7250   74.0400  222.1070 N   0  0  0  0  0  0  0  0  0  0  0  0
  139.7480   74.9520  221.0210 C   0  0  0  0  0  0  0  0  0  0  0  0
  141.0660   75.3940  220.6260 C   0  0  0  0  0  0  0  0  0  0  0  0
  141.2730   76.6670  220.9040 O   0  0  0  0  0  0  0  0  0  0  0  0
  142.1460   74.7650  220.0190 N   0  0  0  0  0  0  0  0  0  0  0  0
  142.3780   73.5450  219.2920 C   0  0  0  0  0  0  0  0  0  0  0  0
  143.6200   72.9540  219.9610 C   0  0  1  0  0  0  0  0  0  0  0  0
  144.2280   72.0460  219.1350 F   0  0  0  0  0  0  0  0  0  0  0  0
  144.4700   74.2160  220.0700 C   0  0  0  0  0  0  0  0  0  0  0  0
  143.5180   75.3620  220.0700 C   0  0  1  0  0  0  0  0  0  0  0  0
  143.6660   76.2010  218.8480 C   0  0  0  0  0  0  0  0  0  0  0  0
  143.0740   77.4580  219.0090 O   0  0  0  0  0  0  0  0  0  0  0  0
  139.9370   71.7010  222.9450 C   0  0  0  0  0  0  0  0  0  0  0  0
  139.3560   70.4790  222.7940 C   0  0  0  0  0  0  0  0  0  0  0  0
  139.3180   69.5600  223.8300 C   0  0  0  0  0  0  0  0  0  0  0  0
  139.8920   69.9060  225.0500 C   0  0  0  0  0  0  0  0  0  0  0  0
  139.8790   69.0240  226.1110 C   0  0  0  0  0  0  0  0  0  0  0  0
  140.4600   69.4210  227.2950 C   0  0  0  0  0  0  0  0  0  0  0  0
  140.5130   68.3990  228.7160 Cl  0  0  0  0  0  0  0  0  0  0  0  0
  141.0310   70.6720  227.3820 C   0  0  0  0  0  0  0  0  0  0  0  0
  141.0440   71.5460  226.3320 C   0  0  0  0  0  0  0  0  0  0  0  0
  140.4640   71.1540  225.1470 C   0  0  0  0  0  0  0  0  0  0  0  0
  140.4850   72.0180  224.1300 N   0  0  0  0  0  0  0  0  0  0  0  0
  139.5520   74.3040  223.1070 H   0  0  0  0  0  0  0  0  0  0  0  0
  139.2773   74.4640  220.1548 H   0  0  0  0  0  0  0  0  0  0  0  0
  139.2101   75.8496  221.3602 H   0  0  0  0  0  0  0  0  0  0  0  0
  141.5199   72.8632  219.3862 H   0  0  0  0  0  0  0  0  0  0  0  0
  142.5136   73.7112  218.2131 H   0  0  0  0  0  0  0  0  0  0  0  0
  143.4361   72.4180  220.9038 H   0  0  0  0  0  0  0  0  0  0  0  0
  145.0518   74.2040  221.0035 H   0  0  0  0  0  0  0  0  0  0  0  0
  145.1850   74.2899  219.2373 H   0  0  0  0  0  0  0  0  0  0  0  0
  143.7025   75.9885  220.9551 H   0  0  0  0  0  0  0  0  0  0  0  0
  144.7369   76.3358  218.6356 H   0  0  0  0  0  0  0  0  0  0  0  0
  143.1609   75.6879  218.0164 H   0  0  0  0  0  0  0  0  0  0  0  0
  142.9520   77.7010  219.9450 H   0  0  0  0  0  0  0  0  0  0  0  0
  138.9058   70.2149  221.8257 H   0  0  0  0  0  0  0  0  0  0  0  0
  138.8440   68.5771  223.6913 H   0  0  0  0  0  0  0  0  0  0  0  0
  139.4170   68.0305  226.0139 H   0  0  0  0  0  0  0  0  0  0  0  0
  141.4934   70.9783  228.3319 H   0  0  0  0  0  0  0  0  0  0  0  0
  141.5068   72.5389  226.4313 H   0  0  0  0  0  0  0  0  0  0  0  0
  1  2  2  0
  2  3  1  0
  3  4  1  0
  4  5  1  0
  5  6  2  0
  5  7  1  0
  7  8  1  0
  8  9  1  0
  9 10  1  0
  9 11  1  0
 11 12  1  0
 12 13  1  0
 13 14  1  0
  2 15  1  0
 15 16  2  0
 16 17  1  0
 17 18  2  0
 18 19  1  0
 19 20  2  0
 20 21  1  0
 20 22  1  0
 22 23  2  0
 23 24  1  0
 24 25  2  0
 12  7  1  0
 25 15  1  0
 24 18  1  0
  3 26  1  0
  4 27  1  0
  4 28  1  0
  8 29  1  0
  8 30  1  0
  9 31  1  1
 11 32  1  0
 11 33  1  0
 12 34  1  1
 13 35  1  0
 13 36  1  0
 14 37  1  0
 16 38  1  0
 17 39  1  0
 19 40  1  0
 22 41  1  0
 23 42  1  0
M  END
>  <smiles>  (26) 
O=C(NCC(=O)N1C[C@@H](F)C[C@H]1CO)c1ccc2cc(Cl)ccc2n1

>  <score_type>  (26) 
oracle

>  <origin>  (26) 
autodockgpu

>  <m_score__min__energy>  (26) 
-7.0099999999999998

>  <m_primary>  (26) 
energy

>  <rmsd>  (26) 
2.7929028285197885

>  <m_score__min__rmsd>  (26) 
2.7929028285197885

>  <meeko>  (26) 
{"free_energy": -6.37, "intermolecular_energy": -8.16, "internal_energy": -1.92, "cluster_size": 6, "cluster_id": 5, "rank_in_cluster": 1}

>  <energy>  (26) 
-6.36

>  <cluster_rmsd>  (26) 
0.88

>  <cluster>  (26) 
2

$$$$

     RDKit          3D

 42 44  0  0  0  0  0  0  0  0999 V2000
  140.8010   71.5260  221.4210 O   0  0  0  0  0  0  0  0  0  0  0  0
  140.1090   72.5050  221.8120 C   0  0  0  0  0  0  0  0  0  0  0  0
  138.8490   72.2880  222.4610 N   0  0  0  0  0  0  0  0  0  0  0  0
  138.4200   70.9480  222.6430 C   0  0  0  0  0  0  0  0  0  0  0  0
  138.3250   70.5230  224.0210 C   0  0  0  0  0  0  0  0  0  0  0  0
  137.2080   70.9260  224.5950 O   0  0  0  0  0  0  0  0  0  0  0  0
  139.1580   69.7900  224.8570 N   0  0  0  0  0  0  0  0  0  0  0  0
  139.5780   68.4200  224.9830 C   0  0  0  0  0  0  0  0  0  0  0  0
  139.3860   68.1150  226.4700 C   0  0  1  0  0  0  0  0  0  0  0  0
  140.1340   67.0290  226.8410 F   0  0  0  0  0  0  0  0  0  0  0  0
  139.9770   69.3890  227.0650 C   0  0  0  0  0  0  0  0  0  0  0  0
  139.8570   70.4370  226.0130 C   0  0  1  0  0  0  0  0  0  0  0  0
  141.1910   70.8740  225.5150 C   0  0  0  0  0  0  0  0  0  0  0  0
  141.0800   71.6640  224.3670 O   0  0  0  0  0  0  0  0  0  0  0  0
  140.5600   73.8950  221.6190 C   0  0  0  0  0  0  0  0  0  0  0  0
  141.6200   74.1630  220.8080 C   0  0  0  0  0  0  0  0  0  0  0  0
  142.0700   75.4570  220.6050 C   0  0  0  0  0  0  0  0  0  0  0  0
  141.4140   76.5010  221.2520 C   0  0  0  0  0  0  0  0  0  0  0  0
  141.8250   77.8070  221.0800 C   0  0  0  0  0  0  0  0  0  0  0  0
  141.1380   78.7980  221.7460 C   0  0  0  0  0  0  0  0  0  0  0  0
  141.5560   80.4940  221.6150 Cl  0  0  0  0  0  0  0  0  0  0  0  0
  140.0730   78.4590  222.5520 C   0  0  0  0  0  0  0  0  0  0  0  0
  139.6650   77.1660  222.7210 C   0  0  0  0  0  0  0  0  0  0  0  0
  140.3490   76.1720  222.0590 C   0  0  0  0  0  0  0  0  0  0  0  0
  139.9380   74.9150  222.2350 N   0  0  0  0  0  0  0  0  0  0  0  0
  138.3110   73.1360  222.7670 H   0  0  0  0  0  0  0  0  0  0  0  0
  137.4265   70.8415  222.1830 H   0  0  0  0  0  0  0  0  0  0  0  0
  139.1859   70.3119  222.1753 H   0  0  0  0  0  0  0  0  0  0  0  0
  138.9530   67.7599  224.3636 H   0  0  0  0  0  0  0  0  0  0  0  0
  140.6127   68.2594  224.6458 H   0  0  0  0  0  0  0  0  0  0  0  0
  138.3550   67.8796  226.7727 H   0  0  0  0  0  0  0  0  0  0  0  0
  139.4161   69.6855  227.9636 H   0  0  0  0  0  0  0  0  0  0  0  0
  141.0251   69.2414  227.3644 H   0  0  0  0  0  0  0  0  0  0  0  0
  139.3294   71.3089  226.4272 H   0  0  0  0  0  0  0  0  0  0  0  0
  141.6921   71.4568  226.3019 H   0  0  0  0  0  0  0  0  0  0  0  0
  141.7728   69.9763  225.2590 H   0  0  0  0  0  0  0  0  0  0  0  0
  140.9490   71.1390  223.5570 H   0  0  0  0  0  0  0  0  0  0  0  0
  142.1317   73.3314  220.3015 H   0  0  0  0  0  0  0  0  0  0  0  0
  142.9281   75.6559  219.9461 H   0  0  0  0  0  0  0  0  0  0  0  0
  142.6777   78.0500  220.4290 H   0  0  0  0  0  0  0  0  0  0  0  0
  139.5315   79.2586  223.0786 H   0  0  0  0  0  0  0  0  0  0  0  0
  138.8104   76.9253  223.3705 H   0  0  0  0  0  0  0  0  0  0  0  0
  1  2  2  0
  2  3  1  0
  3  4  1  0
  4  5  1  0
  5  6  2  0
  5  7  1  0
  7  8  1  0
  8  9  1  0
  9 10  1  0
  9 11  1  0
 11 12  1  0
 12 13  1  0
 13 14  1  0
  2 15  1  0
 15 16  2  0
 16 17  1  0
 17 18  2  0
 18 19  1  0
 19 20  2  0
 20 21  1  0
 20 22  1  0
 22 23  2  0
 23 24  1  0
 24 25  2  0
 12  7  1  0
 25 15  1  0
 24 18  1  0
  3 26  1  0
  4 27  1  0
  4 28  1  0
  8 29  1  0
  8 30  1  0
  9 31  1  6
 11 32  1  0
 11 33  1  0
 12 34  1  1
 13 35  1  0
 13 36  1  0
 14 37  1  0
 16 38  1  0
 17 39  1  0
 19 40  1  0
 22 41  1  0
 23 42  1  0
M  END
>  <smiles>  (27) 
O=C(NCC(=O)N1C[C@@H](F)C[C@H]1CO)c1ccc2cc(Cl)ccc2n1

>  <score_type>  (27) 
oracle

>  <origin>  (27) 
autodockgpu

>  <m_score__min__energy>  (27) 
-7.0099999999999998

>  <m_primary>  (27) 
energy

>  <rmsd>  (27) 
8.286725997571814

>  <m_score__min__rmsd>  (27) 
8.286725997571814

>  <meeko>  (27) 
{"free_energy": -5.78, "intermolecular_energy": -7.57, "internal_energy": -2.13, "cluster_size": 20, "cluster_id": 2, "rank_in_cluster": 19}

>  <energy>  (27) 
-6.34

>  <cluster_rmsd>  (27) 
0.7

>  <cluster>  (27) 
2

$$$$

     RDKit          3D

 42 44  0  0  0  0  0  0  0  0999 V2000
  139.9410   69.9280  222.5950 O   0  0  0  0  0  0  0  0  0  0  0  0
  139.5470   71.0860  222.9020 C   0  0  0  0  0  0  0  0  0  0  0  0
  138.4960   71.2630  223.8610 N   0  0  0  0  0  0  0  0  0  0  0  0
  137.9270   70.1000  224.4410 C   0  0  0  0  0  0  0  0  0  0  0  0
  138.8760   69.2020  225.0580 C   0  0  0  0  0  0  0  0  0  0  0  0
  138.8650   68.0040  224.5040 O   0  0  0  0  0  0  0  0  0  0  0  0
  139.7830   69.3350  226.1010 N   0  0  0  0  0  0  0  0  0  0  0  0
  140.6780   68.4760  226.8300 C   0  0  0  0  0  0  0  0  0  0  0  0
  140.3860   68.8070  228.2950 C   0  0  1  0  0  0  0  0  0  0  0  0
  141.4280   68.4200  229.0960 F   0  0  0  0  0  0  0  0  0  0  0  0
  140.3320   70.3280  228.2030 C   0  0  0  0  0  0  0  0  0  0  0  0
  139.9820   70.6490  226.7910 C   0  0  1  0  0  0  0  0  0  0  0  0
  141.1010   71.3360  226.0880 C   0  0  0  0  0  0  0  0  0  0  0  0
  141.5840   70.5760  225.0180 O   0  0  0  0  0  0  0  0  0  0  0  0
  140.1420   72.2900  222.2950 C   0  0  0  0  0  0  0  0  0  0  0  0
  141.2430   72.1830  221.5020 C   0  0  0  0  0  0  0  0  0  0  0  0
  141.8280   73.2930  220.9170 C   0  0  0  0  0  0  0  0  0  0  0  0
  141.2670   74.5450  221.1520 C   0  0  0  0  0  0  0  0  0  0  0  0
  141.8140   75.6800  220.5910 C   0  0  0  0  0  0  0  0  0  0  0  0
  141.2150   76.8920  220.8590 C   0  0  0  0  0  0  0  0  0  0  0  0
  141.8080   78.4070  220.2100 Cl  0  0  0  0  0  0  0  0  0  0  0  0
  140.1020   76.9320  221.6700 C   0  0  0  0  0  0  0  0  0  0  0  0
  139.5600   75.8080  222.2260 C   0  0  0  0  0  0  0  0  0  0  0  0
  140.1540   74.5950  221.9610 C   0  0  0  0  0  0  0  0  0  0  0  0
  139.6130   73.5060  222.5120 N   0  0  0  0  0  0  0  0  0  0  0  0
  138.2040   72.2460  224.0820 H   0  0  0  0  0  0  0  0  0  0  0  0
  137.2079   70.4184  225.2101 H   0  0  0  0  0  0  0  0  0  0  0  0
  137.4625   69.5394  223.6164 H   0  0  0  0  0  0  0  0  0  0  0  0
  140.4661   67.4178  226.6173 H   0  0  0  0  0  0  0  0  0  0  0  0
  141.7328   68.6320  226.5599 H   0  0  0  0  0  0  0  0  0  0  0  0
  139.4938   68.3212  228.7169 H   0  0  0  0  0  0  0  0  0  0  0  0
  139.5651   70.7239  228.8850 H   0  0  0  0  0  0  0  0  0  0  0  0
  141.2928   70.7804  228.4896 H   0  0  0  0  0  0  0  0  0  0  0  0
  139.0980   71.3034  226.7754 H   0  0  0  0  0  0  0  0  0  0  0  0
  140.7415   72.3025  225.7051 H   0  0  0  0  0  0  0  0  0  0  0  0
  141.9220   71.4772  226.8064 H   0  0  0  0  0  0  0  0  0  0  0  0
  140.8770   70.1140  224.5330 H   0  0  0  0  0  0  0  0  0  0  0  0
  141.6790   71.1894  221.3213 H   0  0  0  0  0  0  0  0  0  0  0  0
  142.7182   73.1877  220.2794 H   0  0  0  0  0  0  0  0  0  0  0  0
  142.7040   75.6196  219.9473 H   0  0  0  0  0  0  0  0  0  0  0  0
  139.6325   77.9049  221.8775 H   0  0  0  0  0  0  0  0  0  0  0  0
  138.6704   75.8709  222.8699 H   0  0  0  0  0  0  0  0  0  0  0  0
  1  2  2  0
  2  3  1  0
  3  4  1  0
  4  5  1  0
  5  6  2  0
  5  7  1  0
  7  8  1  0
  8  9  1  0
  9 10  1  0
  9 11  1  0
 11 12  1  0
 12 13  1  0
 13 14  1  0
  2 15  1  0
 15 16  2  0
 16 17  1  0
 17 18  2  0
 18 19  1  0
 19 20  2  0
 20 21  1  0
 20 22  1  0
 22 23  2  0
 23 24  1  0
 24 25  2  0
 12  7  1  0
 25 15  1  0
 24 18  1  0
  3 26  1  0
  4 27  1  0
  4 28  1  0
  8 29  1  0
  8 30  1  0
  9 31  1  1
 11 32  1  0
 11 33  1  0
 12 34  1  1
 13 35  1  0
 13 36  1  0
 14 37  1  0
 16 38  1  0
 17 39  1  0
 19 40  1  0
 22 41  1  0
 23 42  1  0
M  END
>  <smiles>  (28) 
O=C(NCC(=O)N1C[C@@H](F)C[C@H]1CO)c1ccc2cc(Cl)ccc2n1

>  <score_type>  (28) 
oracle

>  <origin>  (28) 
autodockgpu

>  <m_score__min__energy>  (28) 
-7.0099999999999998

>  <m_primary>  (28) 
energy

>  <rmsd>  (28) 
8.280529503882425

>  <m_score__min__rmsd>  (28) 
8.280529503882425

>  <meeko>  (28) 
{"free_energy": -6.37, "intermolecular_energy": -8.16, "internal_energy": -2.27, "cluster_size": 20, "cluster_id": 2, "rank_in_cluster": 10}

>  <energy>  (28) 
-6.31

>  <cluster_rmsd>  (28) 
1.81

>  <cluster>  (28) 
2

$$$$

     RDKit          3D

 42 44  0  0  0  0  0  0  0  0999 V2000
  140.5130   71.6180  221.3490 O   0  0  0  0  0  0  0  0  0  0  0  0
  139.9420   72.6320  221.8350 C   0  0  0  0  0  0  0  0  0  0  0  0
  138.7760   72.4830  222.6560 N   0  0  0  0  0  0  0  0  0  0  0  0
  138.3000   71.1690  222.8970 C   0  0  0  0  0  0  0  0  0  0  0  0
  139.2200   70.3100  223.6070 C   0  0  0  0  0  0  0  0  0  0  0  0
  139.5300   69.2280  222.9180 O   0  0  0  0  0  0  0  0  0  0  0  0
  139.8340   70.3840  224.8500 N   0  0  0  0  0  0  0  0  0  0  0  0
  139.9270   71.3410  225.9200 C   0  0  0  0  0  0  0  0  0  0  0  0
  141.4250   71.3980  226.2280 C   0  0  1  0  0  0  0  0  0  0  0  0
  141.6420   71.9080  227.4810 F   0  0  0  0  0  0  0  0  0  0  0  0
  141.7430   69.9070  226.2050 C   0  0  0  0  0  0  0  0  0  0  0  0
  140.7000   69.2700  225.3530 C   0  0  1  0  0  0  0  0  0  0  0  0
  139.8180   68.3660  226.1430 C   0  0  0  0  0  0  0  0  0  0  0  0
  139.1650   67.4380  225.3270 O   0  0  0  0  0  0  0  0  0  0  0  0
  140.4420   73.9960  221.5790 C   0  0  0  0  0  0  0  0  0  0  0  0
  141.4360   74.2000  220.6730 C   0  0  0  0  0  0  0  0  0  0  0  0
  141.9300   75.4680  220.4100 C   0  0  0  0  0  0  0  0  0  0  0  0
  141.3870   76.5510  221.0960 C   0  0  0  0  0  0  0  0  0  0  0  0
  141.8450   77.8320  220.8680 C   0  0  0  0  0  0  0  0  0  0  0  0
  141.2710   78.8640  221.5760 C   0  0  0  0  0  0  0  0  0  0  0  0
  141.7580   80.5350  221.3820 Cl  0  0  0  0  0  0  0  0  0  0  0  0
  140.2670   78.5890  222.4790 C   0  0  0  0  0  0  0  0  0  0  0  0
  139.8130   77.3200  222.7060 C   0  0  0  0  0  0  0  0  0  0  0  0
  140.3840   76.2860  222.0010 C   0  0  0  0  0  0  0  0  0  0  0  0
  139.9290   75.0520  222.2330 N   0  0  0  0  0  0  0  0  0  0  0  0
  138.3370   73.3580  223.0350 H   0  0  0  0  0  0  0  0  0  0  0  0
  137.3758   71.2434  223.4888 H   0  0  0  0  0  0  0  0  0  0  0  0
  138.1482   70.7095  221.9092 H   0  0  0  0  0  0  0  0  0  0  0  0
  139.5550   72.3252  225.5992 H   0  0  0  0  0  0  0  0  0  0  0  0
  139.3226   71.0611  226.7954 H   0  0  0  0  0  0  0  0  0  0  0  0
  142.0210   72.0243  225.5479 H   0  0  0  0  0  0  0  0  0  0  0  0
  142.7414   69.7371  225.7757 H   0  0  0  0  0  0  0  0  0  0  0  0
  141.7440   69.4828  227.2199 H   0  0  0  0  0  0  0  0  0  0  0  0
  141.1871   68.6851  224.5588 H   0  0  0  0  0  0  0  0  0  0  0  0
  140.4302   67.8246  226.8793 H   0  0  0  0  0  0  0  0  0  0  0  0
  139.0545   68.9814  226.6414 H   0  0  0  0  0  0  0  0  0  0  0  0
  139.2530   67.6420  224.3780 H   0  0  0  0  0  0  0  0  0  0  0  0
  141.8580   73.3377  220.1361 H   0  0  0  0  0  0  0  0  0  0  0  0
  142.7345   75.6156  219.6745 H   0  0  0  0  0  0  0  0  0  0  0  0
  142.6472   78.0239  220.1402 H   0  0  0  0  0  0  0  0  0  0  0  0
  139.8143   79.4214  223.0377 H   0  0  0  0  0  0  0  0  0  0  0  0
  139.0109   77.1302  223.4344 H   0  0  0  0  0  0  0  0  0  0  0  0
  1  2  2  0
  2  3  1  0
  3  4  1  0
  4  5  1  0
  5  6  2  0
  5  7  1  0
  7  8  1  0
  8  9  1  0
  9 10  1  0
  9 11  1  0
 11 12  1  0
 12 13  1  0
 13 14  1  0
  2 15  1  0
 15 16  2  0
 16 17  1  0
 17 18  2  0
 18 19  1  0
 19 20  2  0
 20 21  1  0
 20 22  1  0
 22 23  2  0
 23 24  1  0
 24 25  2  0
 12  7  1  0
 25 15  1  0
 24 18  1  0
  3 26  1  0
  4 27  1  0
  4 28  1  0
  8 29  1  0
  8 30  1  0
  9 31  1  6
 11 32  1  0
 11 33  1  0
 12 34  1  6
 13 35  1  0
 13 36  1  0
 14 37  1  0
 16 38  1  0
 17 39  1  0
 19 40  1  0
 22 41  1  0
 23 42  1  0
M  END
>  <smiles>  (29) 
O=C(NCC(=O)N1C[C@@H](F)C[C@H]1CO)c1ccc2cc(Cl)ccc2n1

>  <score_type>  (29) 
oracle

>  <origin>  (29) 
autodockgpu

>  <m_score__min__energy>  (29) 
-7.0099999999999998

>  <m_primary>  (29) 
energy

>  <rmsd>  (29) 
8.04824840009306

>  <m_score__min__rmsd>  (29) 
8.04824840009306

>  <meeko>  (29) 
{"free_energy": -6.31, "intermolecular_energy": -8.1, "internal_energy": -2.05, "cluster_size": 20, "cluster_id": 2, "rank_in_cluster": 13}

>  <energy>  (29) 
-6.3

>  <cluster_rmsd>  (29) 
1.9

>  <cluster>  (29) 
2

$$$$

     RDKit          3D

 42 44  0  0  0  0  0  0  0  0999 V2000
  140.4740   71.4330  221.1520 O   0  0  0  0  0  0  0  0  0  0  0  0
  139.9460   72.4260  221.7240 C   0  0  0  0  0  0  0  0  0  0  0  0
  138.8380   72.2430  222.6150 N   0  0  0  0  0  0  0  0  0  0  0  0
  138.3670   70.9220  222.8240 C   0  0  0  0  0  0  0  0  0  0  0  0
  139.2130   70.1010  223.6590 C   0  0  0  0  0  0  0  0  0  0  0  0
  139.5310   68.9580  223.0820 O   0  0  0  0  0  0  0  0  0  0  0  0
  139.7510   70.2610  224.9300 N   0  0  0  0  0  0  0  0  0  0  0  0
  139.8130   71.3030  225.9200 C   0  0  0  0  0  0  0  0  0  0  0  0
  141.2890   71.3380  226.3200 C   0  0  1  0  0  0  0  0  0  0  0  0
  141.4460   71.9460  227.5370 F   0  0  0  0  0  0  0  0  0  0  0  0
  141.5500   69.8410  226.4430 C   0  0  0  0  0  0  0  0  0  0  0  0
  140.5400   69.1670  225.5810 C   0  0  1  0  0  0  0  0  0  0  0  0
  139.5760   68.3640  226.3840 C   0  0  0  0  0  0  0  0  0  0  0  0
  138.8770   67.4500  225.5890 O   0  0  0  0  0  0  0  0  0  0  0  0
  140.4400   73.7970  221.5010 C   0  0  0  0  0  0  0  0  0  0  0  0
  141.4360   74.0270  220.6030 C   0  0  0  0  0  0  0  0  0  0  0  0
  141.9240   75.3030  220.3700 C   0  0  0  0  0  0  0  0  0  0  0  0
  141.3740   76.3670  221.0790 C   0  0  0  0  0  0  0  0  0  0  0  0
  141.8260   77.6550  220.8810 C   0  0  0  0  0  0  0  0  0  0  0  0
  141.2450   78.6680  221.6120 C   0  0  0  0  0  0  0  0  0  0  0  0
  141.7250   80.3460  221.4570 Cl  0  0  0  0  0  0  0  0  0  0  0  0
  140.2410   78.3680  222.5060 C   0  0  0  0  0  0  0  0  0  0  0  0
  139.7920   77.0920  222.7020 C   0  0  0  0  0  0  0  0  0  0  0  0
  140.3700   76.0760  221.9750 C   0  0  0  0  0  0  0  0  0  0  0  0
  139.9210   74.8360  222.1770 N   0  0  0  0  0  0  0  0  0  0  0  0
  138.4340   73.1010  223.0650 H   0  0  0  0  0  0  0  0  0  0  0  0
  137.3757   70.9832  223.2969 H   0  0  0  0  0  0  0  0  0  0  0  0
  138.3479   70.4405  221.8351 H   0  0  0  0  0  0  0  0  0  0  0  0
  139.4993   72.2675  225.4941 H   0  0  0  0  0  0  0  0  0  0  0  0
  139.1448   71.1189  226.7741 H   0  0  0  0  0  0  0  0  0  0  0  0
  141.9501   71.8840  225.6309 H   0  0  0  0  0  0  0  0  0  0  0  0
  142.5663   69.6021  226.0965 H   0  0  0  0  0  0  0  0  0  0  0  0
  141.4702   69.5064  227.4878 H   0  0  0  0  0  0  0  0  0  0  0  0
  141.0535   68.4998  224.8731 H   0  0  0  0  0  0  0  0  0  0  0  0
  140.1293   67.8128  227.1586 H   0  0  0  0  0  0  0  0  0  0  0  0
  138.8476   69.0534  226.8357 H   0  0  0  0  0  0  0  0  0  0  0  0
  139.0890   67.5330  224.6420 H   0  0  0  0  0  0  0  0  0  0  0  0
  141.8644   73.1792  220.0483 H   0  0  0  0  0  0  0  0  0  0  0  0
  142.7293   75.4714  219.6399 H   0  0  0  0  0  0  0  0  0  0  0  0
  142.6284   77.8676  220.1592 H   0  0  0  0  0  0  0  0  0  0  0  0
  139.7839   79.1852  223.0833 H   0  0  0  0  0  0  0  0  0  0  0  0
  138.9883   76.8821  223.4231 H   0  0  0  0  0  0  0  0  0  0  0  0
  1  2  2  0
  2  3  1  0
  3  4  1  0
  4  5  1  0
  5  6  2  0
  5  7  1  0
  7  8  1  0
  8  9  1  0
  9 10  1  0
  9 11  1  0
 11 12  1  0
 12 13  1  0
 13 14  1  0
  2 15  1  0
 15 16  2  0
 16 17  1  0
 17 18  2  0
 18 19  1  0
 19 20  2  0
 20 21  1  0
 20 22  1  0
 22 23  2  0
 23 24  1  0
 24 25  2  0
 12  7  1  0
 25 15  1  0
 24 18  1  0
  3 26  1  0
  4 27  1  0
  4 28  1  0
  8 29  1  0
  8 30  1  0
  9 31  1  6
 11 32  1  0
 11 33  1  0
 12 34  1  6
 13 35  1  0
 13 36  1  0
 14 37  1  0
 16 38  1  0
 17 39  1  0
 19 40  1  0
 22 41  1  0
 23 42  1  0
M  END
>  <smiles>  (30) 
O=C(NCC(=O)N1C[C@@H](F)C[C@H]1CO)c1ccc2cc(Cl)ccc2n1

>  <score_type>  (30) 
oracle

>  <origin>  (30) 
autodockgpu

>  <m_score__min__energy>  (30) 
-7.0099999999999998

>  <m_primary>  (30) 
energy

>  <rmsd>  (30) 
8.051471409426881

>  <m_score__min__rmsd>  (30) 
8.051471409426881

>  <meeko>  (30) 
{"free_energy": -6.25, "intermolecular_energy": -8.04, "internal_energy": -2.08, "cluster_size": 20, "cluster_id": 2, "rank_in_cluster": 15}

>  <energy>  (30) 
-6.25

>  <cluster_rmsd>  (30) 
1.79

>  <cluster>  (30) 
2

$$$$

     RDKit          3D

 42 44  0  0  0  0  0  0  0  0999 V2000
  138.6690   73.2320  221.7710 O   0  0  0  0  0  0  0  0  0  0  0  0
  139.7660   72.6960  222.0860 C   0  0  0  0  0  0  0  0  0  0  0  0
  140.9730   73.0610  221.4040 N   0  0  0  0  0  0  0  0  0  0  0  0
  140.8840   74.0340  220.3760 C   0  0  0  0  0  0  0  0  0  0  0  0
  141.6090   75.2570  220.6340 C   0  0  0  0  0  0  0  0  0  0  0  0
  142.9060   75.1230  220.4370 O   0  0  0  0  0  0  0  0  0  0  0  0
  141.2280   76.5290  221.0440 N   0  0  0  0  0  0  0  0  0  0  0  0
  141.3640   77.8750  220.5560 C   0  0  0  0  0  0  0  0  0  0  0  0
  141.8560   78.6560  221.7750 C   0  0  1  0  0  0  0  0  0  0  0  0
  141.6200   79.9970  221.6180 F   0  0  0  0  0  0  0  0  0  0  0  0
  140.9250   78.0800  222.8350 C   0  0  0  0  0  0  0  0  0  0  0  0
  140.5050   76.7390  222.3390 C   0  0  1  0  0  0  0  0  0  0  0  0
  139.0490   76.6980  222.0270 C   0  0  0  0  0  0  0  0  0  0  0  0
  138.3730   75.7830  222.8400 O   0  0  0  0  0  0  0  0  0  0  0  0
  139.8510   71.6830  223.1550 C   0  0  0  0  0  0  0  0  0  0  0  0
  139.4150   70.4140  222.9300 C   0  0  0  0  0  0  0  0  0  0  0  0
  139.4790   69.4400  223.9120 C   0  0  0  0  0  0  0  0  0  0  0  0
  140.0060   69.7780  225.1550 C   0  0  0  0  0  0  0  0  0  0  0  0
  140.0920   68.8420  226.1640 C   0  0  0  0  0  0  0  0  0  0  0  0
  140.6210   69.2350  227.3740 C   0  0  0  0  0  0  0  0  0  0  0  0
  140.7870   68.1470  228.7360 Cl  0  0  0  0  0  0  0  0  0  0  0  0
  141.0450   70.5360  227.5360 C   0  0  0  0  0  0  0  0  0  0  0  0
  140.9610   71.4640  226.5370 C   0  0  0  0  0  0  0  0  0  0  0  0
  140.4320   71.0760  225.3270 C   0  0  0  0  0  0  0  0  0  0  0  0
  140.3570   71.9940  224.3600 N   0  0  0  0  0  0  0  0  0  0  0  0
  141.8590   72.5850  221.7030 H   0  0  0  0  0  0  0  0  0  0  0  0
  141.2795   73.5907  219.4502 H   0  0  0  0  0  0  0  0  0  0  0  0
  139.8223   74.3128  220.3050 H   0  0  0  0  0  0  0  0  0  0  0  0
  142.0973   77.9230  219.7375 H   0  0  0  0  0  0  0  0  0  0  0  0
  140.4259   78.2754  220.1441 H   0  0  0  0  0  0  0  0  0  0  0  0
  142.9321   78.5687  221.9855 H   0  0  0  0  0  0  0  0  0  0  0  0
  141.4542   77.9826  223.7944 H   0  0  0  0  0  0  0  0  0  0  0  0
  140.0567   78.7342  223.0025 H   0  0  0  0  0  0  0  0  0  0  0  0
  140.7253   75.9816  223.1057 H   0  0  0  0  0  0  0  0  0  0  0  0
  138.6219   77.6993  222.1851 H   0  0  0  0  0  0  0  0  0  0  0  0
  138.9306   76.3807  220.9804 H   0  0  0  0  0  0  0  0  0  0  0  0
  138.7100   74.8730  222.7470 H   0  0  0  0  0  0  0  0  0  0  0  0
  139.0016   70.1555  221.9439 H   0  0  0  0  0  0  0  0  0  0  0  0
  139.1204   68.4192  223.7137 H   0  0  0  0  0  0  0  0  0  0  0  0
  139.7475   67.8092  226.0071 H   0  0  0  0  0  0  0  0  0  0  0  0
  141.4668   70.8386  228.5058 H   0  0  0  0  0  0  0  0  0  0  0  0
  141.3076   72.4958  226.6957 H   0  0  0  0  0  0  0  0  0  0  0  0
  1  2  2  0
  2  3  1  0
  3  4  1  0
  4  5  1  0
  5  6  2  0
  5  7  1  0
  7  8  1  0
  8  9  1  0
  9 10  1  0
  9 11  1  0
 11 12  1  0
 12 13  1  0
 13 14  1  0
  2 15  1  0
 15 16  2  0
 16 17  1  0
 17 18  2  0
 18 19  1  0
 19 20  2  0
 20 21  1  0
 20 22  1  0
 22 23  2  0
 23 24  1  0
 24 25  2  0
 12  7  1  0
 25 15  1  0
 24 18  1  0
  3 26  1  0
  4 27  1  0
  4 28  1  0
  8 29  1  0
  8 30  1  0
  9 31  1  1
 11 32  1  0
 11 33  1  0
 12 34  1  1
 13 35  1  0
 13 36  1  0
 14 37  1  0
 16 38  1  0
 17 39  1  0
 19 40  1  0
 22 41  1  0
 23 42  1  0
M  END
>  <smiles>  (31) 
O=C(NCC(=O)N1C[C@@H](F)C[C@H]1CO)c1ccc2cc(Cl)ccc2n1

>  <score_type>  (31) 
oracle

>  <origin>  (31) 
autodockgpu

>  <m_score__min__energy>  (31) 
-7.0099999999999998

>  <m_primary>  (31) 
energy

>  <rmsd>  (31) 
2.9428210565400916

>  <m_score__min__rmsd>  (31) 
2.9428210565400916

>  <meeko>  (31) 
{"free_energy": -6.44, "intermolecular_energy": -8.23, "internal_energy": -1.82, "cluster_size": 15, "cluster_id": 1, "rank_in_cluster": 4}

>  <energy>  (31) 
-6.21

>  <cluster_rmsd>  (31) 
0.93

>  <cluster>  (31) 
2

$$$$

     RDKit          3D

 42 44  0  0  0  0  0  0  0  0999 V2000
  141.0340   72.7250  220.9680 O   0  0  0  0  0  0  0  0  0  0  0  0
  140.2780   72.8920  221.9630 C   0  0  0  0  0  0  0  0  0  0  0  0
  139.4680   74.0710  222.0680 N   0  0  0  0  0  0  0  0  0  0  0  0
  139.5510   75.0260  221.0230 C   0  0  0  0  0  0  0  0  0  0  0  0
  140.6970   75.9040  221.0930 C   0  0  0  0  0  0  0  0  0  0  0  0
  140.9200   76.3410  222.3180 O   0  0  0  0  0  0  0  0  0  0  0  0
  141.5970   76.3820  220.1490 N   0  0  0  0  0  0  0  0  0  0  0  0
  142.1840   77.6490  219.8050 C   0  0  0  0  0  0  0  0  0  0  0  0
  142.0010   77.7360  218.2890 C   0  0  1  0  0  0  0  0  0  0  0  0
  142.8720   78.6440  217.7470 F   0  0  0  0  0  0  0  0  0  0  0  0
  142.4140   76.3190  217.9060 C   0  0  0  0  0  0  0  0  0  0  0  0
  142.1850   75.4750  219.1120 C   0  0  1  0  0  0  0  0  0  0  0  0
  143.4630   74.9560  219.6730 C   0  0  0  0  0  0  0  0  0  0  0  0
  143.3320   74.6080  221.0210 O   0  0  0  0  0  0  0  0  0  0  0  0
  140.1970   71.8960  223.0470 C   0  0  0  0  0  0  0  0  0  0  0  0
  139.6360   70.6780  222.8150 C   0  0  0  0  0  0  0  0  0  0  0  0
  139.5430   69.7190  223.8100 C   0  0  0  0  0  0  0  0  0  0  0  0
  140.0410   70.0200  225.0750 C   0  0  0  0  0  0  0  0  0  0  0  0
  139.9710   69.0970  226.0980 C   0  0  0  0  0  0  0  0  0  0  0  0
  140.4790   69.4520  227.3280 C   0  0  0  0  0  0  0  0  0  0  0  0
  140.4550   68.3750  228.7100 Cl  0  0  0  0  0  0  0  0  0  0  0  0
  141.0350   70.7010  227.4970 C   0  0  0  0  0  0  0  0  0  0  0  0
  141.1040   71.6150  226.4840 C   0  0  0  0  0  0  0  0  0  0  0  0
  140.5970   71.2660  225.2530 C   0  0  0  0  0  0  0  0  0  0  0  0
  140.6720   72.1700  224.2730 N   0  0  0  0  0  0  0  0  0  0  0  0
  138.8570   74.1620  222.9160 H   0  0  0  0  0  0  0  0  0  0  0  0
  139.5933   74.4839  220.0668 H   0  0  0  0  0  0  0  0  0  0  0  0
  138.6630   75.6681  221.1194 H   0  0  0  0  0  0  0  0  0  0  0  0
  141.6606   78.4737  220.3109 H   0  0  0  0  0  0  0  0  0  0  0  0
  143.2375   77.7271  220.1116 H   0  0  0  0  0  0  0  0  0  0  0  0
  141.0018   78.0509  217.9537 H   0  0  0  0  0  0  0  0  0  0  0  0
  141.8016   75.9577  217.0667 H   0  0  0  0  0  0  0  0  0  0  0  0
  143.4660   76.2822  217.5868 H   0  0  0  0  0  0  0  0  0  0  0  0
  141.5438   74.6225  218.8434 H   0  0  0  0  0  0  0  0  0  0  0  0
  143.7672   74.0658  219.1029 H   0  0  0  0  0  0  0  0  0  0  0  0
  144.2195   75.7508  219.5958 H   0  0  0  0  0  0  0  0  0  0  0  0
  142.7780   75.2350  221.5210 H   0  0  0  0  0  0  0  0  0  0  0  0
  139.2466   70.4494  221.8120 H   0  0  0  0  0  0  0  0  0  0  0  0
  139.0853   68.7400  223.6051 H   0  0  0  0  0  0  0  0  0  0  0  0
  139.5223   68.1059  225.9360 H   0  0  0  0  0  0  0  0  0  0  0  0
  141.4382   70.9723  228.4838 H   0  0  0  0  0  0  0  0  0  0  0  0
  141.5537   72.6054  226.6481 H   0  0  0  0  0  0  0  0  0  0  0  0
  1  2  2  0
  2  3  1  0
  3  4  1  0
  4  5  1  0
  5  6  2  0
  5  7  1  0
  7  8  1  0
  8  9  1  0
  9 10  1  0
  9 11  1  0
 11 12  1  0
 12 13  1  0
 13 14  1  0
  2 15  1  0
 15 16  2  0
 16 17  1  0
 17 18  2  0
 18 19  1  0
 19 20  2  0
 20 21  1  0
 20 22  1  0
 22 23  2  0
 23 24  1  0
 24 25  2  0
 12  7  1  0
 25 15  1  0
 24 18  1  0
  3 26  1  0
  4 27  1  0
  4 28  1  0
  8 29  1  0
  8 30  1  0
  9 31  1  1
 11 32  1  0
 11 33  1  0
 12 34  1  6
 13 35  1  0
 13 36  1  0
 14 37  1  0
 16 38  1  0
 17 39  1  0
 19 40  1  0
 22 41  1  0
 23 42  1  0
M  END
>  <smiles>  (32) 
O=C(NCC(=O)N1C[C@@H](F)C[C@H]1CO)c1ccc2cc(Cl)ccc2n1

>  <score_type>  (32) 
oracle

>  <origin>  (32) 
autodockgpu

>  <m_score__min__energy>  (32) 
-7.0099999999999998

>  <m_primary>  (32) 
energy

>  <rmsd>  (32) 
2.281049988872301

>  <m_score__min__rmsd>  (32) 
2.281049988872301

>  <meeko>  (32) 
{"free_energy": -6.48, "intermolecular_energy": -8.27, "internal_energy": -1.78, "cluster_size": 15, "cluster_id": 1, "rank_in_cluster": 3}

>  <energy>  (32) 
-5.99

>  <cluster_rmsd>  (32) 
1.44

>  <cluster>  (32) 
2

$$$$

     RDKit          3D

 42 44  0  0  0  0  0  0  0  0999 V2000
  140.0700   70.1730  222.1710 O   0  0  0  0  0  0  0  0  0  0  0  0
  139.6780   71.2770  222.6390 C   0  0  0  0  0  0  0  0  0  0  0  0
  138.6970   71.3140  223.6840 N   0  0  0  0  0  0  0  0  0  0  0  0
  138.1930   70.0770  224.1620 C   0  0  0  0  0  0  0  0  0  0  0  0
  138.8810   69.5480  225.3180 C   0  0  0  0  0  0  0  0  0  0  0  0
  138.5460   68.2970  225.5720 O   0  0  0  0  0  0  0  0  0  0  0  0
  139.8060   70.0780  226.2090 N   0  0  0  0  0  0  0  0  0  0  0  0
  139.9080   70.2610  227.6320 C   0  0  0  0  0  0  0  0  0  0  0  0
  140.3410   71.7200  227.7810 C   0  0  1  0  0  0  0  0  0  0  0  0
  140.9020   71.9350  229.0120 F   0  0  0  0  0  0  0  0  0  0  0  0
  141.4140   71.7750  226.6980 C   0  0  0  0  0  0  0  0  0  0  0  0
  141.0790   70.6990  225.7240 C   0  0  1  0  0  0  0  0  0  0  0  0
  142.1060   69.6200  225.7180 C   0  0  0  0  0  0  0  0  0  0  0  0
  141.5710   68.3950  226.1280 O   0  0  0  0  0  0  0  0  0  0  0  0
  140.2040   72.5590  222.1360 C   0  0  0  0  0  0  0  0  0  0  0  0
  141.3160   72.5800  221.3500 C   0  0  0  0  0  0  0  0  0  0  0  0
  141.8370   73.7660  220.8610 C   0  0  0  0  0  0  0  0  0  0  0  0
  141.2010   74.9600  221.1880 C   0  0  0  0  0  0  0  0  0  0  0  0
  141.6830   76.1670  220.7250 C   0  0  0  0  0  0  0  0  0  0  0  0
  141.0120   77.3160  221.0820 C   0  0  0  0  0  0  0  0  0  0  0  0
  141.5170   78.9100  220.5620 Cl  0  0  0  0  0  0  0  0  0  0  0  0
  139.8920   77.2250  221.8800 C   0  0  0  0  0  0  0  0  0  0  0  0
  139.4140   76.0300  222.3390 C   0  0  0  0  0  0  0  0  0  0  0  0
  140.0810   74.8800  221.9860 C   0  0  0  0  0  0  0  0  0  0  0  0
  139.6020   73.7210  222.4420 N   0  0  0  0  0  0  0  0  0  0  0  0
  138.4040   72.2570  224.0380 H   0  0  0  0  0  0  0  0  0  0  0  0
  137.1352   70.2186  224.4285 H   0  0  0  0  0  0  0  0  0  0  0  0
  138.3428   69.3479  223.3521 H   0  0  0  0  0  0  0  0  0  0  0  0
  138.9374   70.0883  228.1201 H   0  0  0  0  0  0  0  0  0  0  0  0
  140.6112   69.5580  228.1024 H   0  0  0  0  0  0  0  0  0  0  0  0
  139.5330   72.4611  227.6921 H   0  0  0  0  0  0  0  0  0  0  0  0
  141.4034   72.7561  226.2006 H   0  0  0  0  0  0  0  0  0  0  0  0
  142.4187   71.6321  227.1224 H   0  0  0  0  0  0  0  0  0  0  0  0
  141.0126   71.1310  224.7146 H   0  0  0  0  0  0  0  0  0  0  0  0
  142.5037   69.5119  224.6981 H   0  0  0  0  0  0  0  0  0  0  0  0
  142.9020   69.9001  226.4237 H   0  0  0  0  0  0  0  0  0  0  0  0
  140.7130   68.1990  225.7120 H   0  0  0  0  0  0  0  0  0  0  0  0
  141.8124   71.6314  221.0974 H   0  0  0  0  0  0  0  0  0  0  0  0
  142.7357   73.7646  220.2267 H   0  0  0  0  0  0  0  0  0  0  0  0
  142.5788   76.2107  220.0881 H   0  0  0  0  0  0  0  0  0  0  0  0
  139.3632   78.1487  222.1578 H   0  0  0  0  0  0  0  0  0  0  0  0
  138.5177   75.9887  222.9753 H   0  0  0  0  0  0  0  0  0  0  0  0
  1  2  2  0
  2  3  1  0
  3  4  1  0
  4  5  1  0
  5  6  2  0
  5  7  1  0
  7  8  1  0
  8  9  1  0
  9 10  1  0
  9 11  1  0
 11 12  1  0
 12 13  1  0
 13 14  1  0
  2 15  1  0
 15 16  2  0
 16 17  1  0
 17 18  2  0
 18 19  1  0
 19 20  2  0
 20 21  1  0
 20 22  1  0
 22 23  2  0
 23 24  1  0
 24 25  2  0
 12  7  1  0
 25 15  1  0
 24 18  1  0
  3 26  1  0
  4 27  1  0
  4 28  1  0
  8 29  1  0
  8 30  1  0
  9 31  1  6
 11 32  1  0
 11 33  1  0
 12 34  1  6
 13 35  1  0
 13 36  1  0
 14 37  1  0
 16 38  1  0
 17 39  1  0
 19 40  1  0
 22 41  1  0
 23 42  1  0
M  END
>  <smiles>  (33) 
O=C(NCC(=O)N1C[C@@H](F)C[C@H]1CO)c1ccc2cc(Cl)ccc2n1

>  <score_type>  (33) 
oracle

>  <origin>  (33) 
autodockgpu

>  <m_score__min__energy>  (33) 
-7.0099999999999998

>  <m_primary>  (33) 
energy

>  <rmsd>  (33) 
7.846842030774188

>  <m_score__min__rmsd>  (33) 
7.846842030774188

>  <meeko>  (33) 
{"free_energy": -5.88, "intermolecular_energy": -7.67, "internal_energy": -2.27, "cluster_size": 20, "cluster_id": 2, "rank_in_cluster": 18}

>  <energy>  (33) 
-5.88

>  <cluster_rmsd>  (33) 
1.49

>  <cluster>  (33) 
2

$$$$

     RDKit          3D

 42 44  0  0  0  0  0  0  0  0999 V2000
  139.1660   71.6950  220.7840 O   0  0  0  0  0  0  0  0  0  0  0  0
  139.3420   72.1240  221.9570 C   0  0  0  0  0  0  0  0  0  0  0  0
  139.3760   73.5350  222.2140 N   0  0  0  0  0  0  0  0  0  0  0  0
  139.2070   74.4120  221.1120 C   0  0  0  0  0  0  0  0  0  0  0  0
  140.0910   75.5560  221.1060 C   0  0  0  0  0  0  0  0  0  0  0  0
  140.4400   75.9260  222.3230 O   0  0  0  0  0  0  0  0  0  0  0  0
  140.6380   76.3390  220.0980 N   0  0  0  0  0  0  0  0  0  0  0  0
  140.2830   76.7240  218.7580 C   0  0  0  0  0  0  0  0  0  0  0  0
  141.5600   76.4670  217.9560 C   0  0  1  0  0  0  0  0  0  0  0  0
  141.5460   77.1760  216.7830 F   0  0  0  0  0  0  0  0  0  0  0  0
  142.5840   77.0620  218.9160 C   0  0  0  0  0  0  0  0  0  0  0  0
  141.9680   77.0060  220.2710 C   0  0  1  0  0  0  0  0  0  0  0  0
  141.6960   78.3680  220.8100 C   0  0  0  0  0  0  0  0  0  0  0  0
  141.7810   78.3970  222.2060 O   0  0  0  0  0  0  0  0  0  0  0  0
  139.5180   71.2060  223.0970 C   0  0  0  0  0  0  0  0  0  0  0  0
  139.0840   69.9190  223.0110 C   0  0  0  0  0  0  0  0  0  0  0  0
  139.2330   69.0310  224.0630 C   0  0  0  0  0  0  0  0  0  0  0  0
  139.8430   69.4770  225.2320 C   0  0  0  0  0  0  0  0  0  0  0  0
  140.0140   68.6290  226.3070 C   0  0  0  0  0  0  0  0  0  0  0  0
  140.6230   69.1270  227.4370 C   0  0  0  0  0  0  0  0  0  0  0  0
  140.9010   68.1580  228.8700 Cl  0  0  0  0  0  0  0  0  0  0  0  0
  141.0390   70.4400  227.4600 C   0  0  0  0  0  0  0  0  0  0  0  0
  140.8700   71.2800  226.3960 C   0  0  0  0  0  0  0  0  0  0  0  0
  140.2610   70.7880  225.2640 C   0  0  0  0  0  0  0  0  0  0  0  0
  140.1040   71.6210  224.2330 N   0  0  0  0  0  0  0  0  0  0  0  0
  139.5250   73.8410  223.2060 H   0  0  0  0  0  0  0  0  0  0  0  0
  139.3821   73.8395  220.1892 H   0  0  0  0  0  0  0  0  0  0  0  0
  138.1848   74.8112  221.1880 H   0  0  0  0  0  0  0  0  0  0  0  0
  139.4524   76.1095  218.3804 H   0  0  0  0  0  0  0  0  0  0  0  0
  139.9405   77.7672  218.6910 H   0  0  0  0  0  0  0  0  0  0  0  0
  141.7288   75.4196  217.6656 H   0  0  0  0  0  0  0  0  0  0  0  0
  143.5129   76.4731  218.8952 H   0  0  0  0  0  0  0  0  0  0  0  0
  142.8420   78.0941  218.6363 H   0  0  0  0  0  0  0  0  0  0  0  0
  142.6483   76.4814  220.9580 H   0  0  0  0  0  0  0  0  0  0  0  0
  142.4328   79.0704  220.3931 H   0  0  0  0  0  0  0  0  0  0  0  0
  140.6735   78.6535  220.5221 H   0  0  0  0  0  0  0  0  0  0  0  0
  141.8360   77.5080  222.6010 H   0  0  0  0  0  0  0  0  0  0  0  0
  138.6031   69.5758  222.0831 H   0  0  0  0  0  0  0  0  0  0  0  0
  138.8765   67.9940  223.9766 H   0  0  0  0  0  0  0  0  0  0  0  0
  139.6732   67.5841  226.2625 H   0  0  0  0  0  0  0  0  0  0  0  0
  141.5250   70.8262  228.3682 H   0  0  0  0  0  0  0  0  0  0  0  0
  141.2123   72.3243  226.4428 H   0  0  0  0  0  0  0  0  0  0  0  0
  1  2  2  0
  2  3  1  0
  3  4  1  0
  4  5  1  0
  5  6  2  0
  5  7  1  0
  7  8  1  0
  8  9  1  0
  9 10  1  0
  9 11  1  0
 11 12  1  0
 12 13  1  0
 13 14  1  0
  2 15  1  0
 15 16  2  0
 16 17  1  0
 17 18  2  0
 18 19  1  0
 19 20  2  0
 20 21  1  0
 20 22  1  0
 22 23  2  0
 23 24  1  0
 24 25  2  0
 12  7  1  0
 25 15  1  0
 24 18  1  0
  3 26  1  0
  4 27  1  0
  4 28  1  0
  8 29  1  0
  8 30  1  0
  9 31  1  6
 11 32  1  0
 11 33  1  0
 12 34  1  1
 13 35  1  0
 13 36  1  0
 14 37  1  0
 16 38  1  0
 17 39  1  0
 19 40  1  0
 22 41  1  0
 23 42  1  0
M  END
>  <smiles>  (34) 
O=C(NCC(=O)N1C[C@@H](F)C[C@H]1CO)c1ccc2cc(Cl)ccc2n1

>  <score_type>  (34) 
oracle

>  <origin>  (34) 
autodockgpu

>  <m_score__min__energy>  (34) 
-7.0099999999999998

>  <m_primary>  (34) 
energy

>  <rmsd>  (34) 
1.3579912480381884

>  <m_score__min__rmsd>  (34) 
1.3579912480381884

>  <meeko>  (34) 
{"free_energy": -6.26, "intermolecular_energy": -8.05, "internal_energy": -2.12, "cluster_size": 15, "cluster_id": 1, "rank_in_cluster": 10}

>  <energy>  (34) 
-5.78

>  <cluster_rmsd>  (34) 
1.75

>  <cluster>  (34) 
2

$$$$

     RDKit          3D

 42 44  0  0  0  0  0  0  0  0999 V2000
  139.9490   69.8020  222.6490 O   0  0  0  0  0  0  0  0  0  0  0  0
  139.5660   70.9620  222.9610 C   0  0  0  0  0  0  0  0  0  0  0  0
  138.5260   71.1450  223.9310 N   0  0  0  0  0  0  0  0  0  0  0  0
  137.9550   69.9850  224.5160 C   0  0  0  0  0  0  0  0  0  0  0  0
  138.9070   69.0690  225.1010 C   0  0  0  0  0  0  0  0  0  0  0  0
  138.9000   67.8910  224.5070 O   0  0  0  0  0  0  0  0  0  0  0  0
  139.8140   69.1680  226.1490 N   0  0  0  0  0  0  0  0  0  0  0  0
  140.7070   68.2870  226.8520 C   0  0  0  0  0  0  0  0  0  0  0  0
  140.4140   68.5720  228.3260 C   0  0  1  0  0  0  0  0  0  0  0  0
  141.4540   68.1590  229.1150 F   0  0  0  0  0  0  0  0  0  0  0  0
  140.3620   70.0960  228.2810 C   0  0  0  0  0  0  0  0  0  0  0  0
  140.0140   70.4610  226.8790 C   0  0  1  0  0  0  0  0  0  0  0  0
  141.1350   71.1680  226.1980 C   0  0  0  0  0  0  0  0  0  0  0  0
  141.6120   70.4430  225.1020 O   0  0  0  0  0  0  0  0  0  0  0  0
  140.1630   72.1630  222.3480 C   0  0  0  0  0  0  0  0  0  0  0  0
  141.2920   72.0570  221.5970 C   0  0  0  0  0  0  0  0  0  0  0  0
  141.8800   73.1650  221.0080 C   0  0  0  0  0  0  0  0  0  0  0  0
  141.2900   74.4120  221.1970 C   0  0  0  0  0  0  0  0  0  0  0  0
  141.8380   75.5440  220.6300 C   0  0  0  0  0  0  0  0  0  0  0  0
  141.2120   76.7510  220.8520 C   0  0  0  0  0  0  0  0  0  0  0  0
  141.8020   78.2610  220.1900 Cl  0  0  0  0  0  0  0  0  0  0  0  0
  140.0700   76.7890  221.6220 C   0  0  0  0  0  0  0  0  0  0  0  0
  139.5270   75.6680  222.1840 C   0  0  0  0  0  0  0  0  0  0  0  0
  140.1490   74.4610  221.9660 C   0  0  0  0  0  0  0  0  0  0  0  0
  139.6070   73.3740  222.5200 N   0  0  0  0  0  0  0  0  0  0  0  0
  138.2430   72.1300  224.1560 H   0  0  0  0  0  0  0  0  0  0  0  0
  137.2603   70.3069  225.3058 H   0  0  0  0  0  0  0  0  0  0  0  0
  137.4612   69.4380  223.6994 H   0  0  0  0  0  0  0  0  0  0  0  0
  140.4949   67.2360  226.6062 H   0  0  0  0  0  0  0  0  0  0  0  0
  141.7622   68.4512  226.5882 H   0  0  0  0  0  0  0  0  0  0  0  0
  139.5210   68.0743  228.7320 H   0  0  0  0  0  0  0  0  0  0  0  0
  139.5948   70.4716  228.9740 H   0  0  0  0  0  0  0  0  0  0  0  0
  141.3231   70.5380  228.5826 H   0  0  0  0  0  0  0  0  0  0  0  0
  139.1311   71.1172  226.8824 H   0  0  0  0  0  0  0  0  0  0  0  0
  140.7789   72.1486  225.8494 H   0  0  0  0  0  0  0  0  0  0  0  0
  141.9579   71.2818  226.9190 H   0  0  0  0  0  0  0  0  0  0  0  0
  140.9000   70.0240  224.5860 H   0  0  0  0  0  0  0  0  0  0  0  0
  141.7498   71.0671  221.4536 H   0  0  0  0  0  0  0  0  0  0  0  0
  142.7935   73.0616  220.4039 H   0  0  0  0  0  0  0  0  0  0  0  0
  142.7497   75.4845  220.0175 H   0  0  0  0  0  0  0  0  0  0  0  0
  139.5770   77.7578  221.7906 H   0  0  0  0  0  0  0  0  0  0  0  0
  138.6148   75.7295  222.7957 H   0  0  0  0  0  0  0  0  0  0  0  0
  1  2  2  0
  2  3  1  0
  3  4  1  0
  4  5  1  0
  5  6  2  0
  5  7  1  0
  7  8  1  0
  8  9  1  0
  9 10  1  0
  9 11  1  0
 11 12  1  0
 12 13  1  0
 13 14  1  0
  2 15  1  0
 15 16  2  0
 16 17  1  0
 17 18  2  0
 18 19  1  0
 19 20  2  0
 20 21  1  0
 20 22  1  0
 22 23  2  0
 23 24  1  0
 24 25  2  0
 12  7  1  0
 25 15  1  0
 24 18  1  0
  3 26  1  0
  4 27  1  0
  4 28  1  0
  8 29  1  0
  8 30  1  0
  9 31  1  1
 11 32  1  0
 11 33  1  0
 12 34  1  1
 13 35  1  0
 13 36  1  0
 14 37  1  0
 16 38  1  0
 17 39  1  0
 19 40  1  0
 22 41  1  0
 23 42  1  0
M  END
>  <smiles>  (35) 
O=C(NCC(=O)N1C[C@@H](F)C[C@H]1CO)c1ccc2cc(Cl)ccc2n1

>  <score_type>  (35) 
oracle

>  <origin>  (35) 
autodockgpu

>  <m_score__min__energy>  (35) 
-7.0099999999999998

>  <m_primary>  (35) 
energy

>  <rmsd>  (35) 
8.338695133252063

>  <m_score__min__rmsd>  (35) 
8.338695133252063

>  <meeko>  (35) 
{"free_energy": -6.39, "intermolecular_energy": -8.18, "internal_energy": -2.23, "cluster_size": 20, "cluster_id": 2, "rank_in_cluster": 7}

>  <energy>  (35) 
-5.6

>  <cluster_rmsd>  (35) 
1.0

>  <cluster>  (35) 
2

$$$$

     RDKit          3D

 42 44  0  0  0  0  0  0  0  0999 V2000
  139.8870   69.8630  221.8070 O   0  0  0  0  0  0  0  0  0  0  0  0
  139.6430   70.9310  222.4340 C   0  0  0  0  0  0  0  0  0  0  0  0
  138.8110   70.9110  223.6010 N   0  0  0  0  0  0  0  0  0  0  0  0
  138.2810   69.6620  224.0160 C   0  0  0  0  0  0  0  0  0  0  0  0
  139.1500   68.8900  224.8750 C   0  0  0  0  0  0  0  0  0  0  0  0
  139.1320   67.6040  224.5810 O   0  0  0  0  0  0  0  0  0  0  0  0
  139.9860   69.2160  225.9360 N   0  0  0  0  0  0  0  0  0  0  0  0
  140.8940   68.5220  226.8090 C   0  0  0  0  0  0  0  0  0  0  0  0
  140.4980   69.0050  228.2050 C   0  0  1  0  0  0  0  0  0  0  0  0
  141.5170   68.7970  229.0960 F   0  0  0  0  0  0  0  0  0  0  0  0
  140.3460   70.4950  227.9200 C   0  0  0  0  0  0  0  0  0  0  0  0
  140.0550   70.6160  226.4640 C   0  0  1  0  0  0  0  0  0  0  0  0
  141.1630   71.2930  225.7340 C   0  0  0  0  0  0  0  0  0  0  0  0
  140.6800   72.2400  224.8250 O   0  0  0  0  0  0  0  0  0  0  0  0
  140.1950   72.2260  221.9960 C   0  0  0  0  0  0  0  0  0  0  0  0
  141.3160   72.2650  221.2260 C   0  0  0  0  0  0  0  0  0  0  0  0
  141.8620   73.4640  220.7990 C   0  0  0  0  0  0  0  0  0  0  0  0
  141.2390   74.6520  221.1720 C   0  0  0  0  0  0  0  0  0  0  0  0
  141.7460   75.8700  220.7710 C   0  0  0  0  0  0  0  0  0  0  0  0
  141.0870   77.0120  221.1720 C   0  0  0  0  0  0  0  0  0  0  0  0
  141.6230   78.6200  220.7320 Cl  0  0  0  0  0  0  0  0  0  0  0  0
  139.9570   76.9030  221.9520 C   0  0  0  0  0  0  0  0  0  0  0  0
  139.4550   75.6960  222.3500 C   0  0  0  0  0  0  0  0  0  0  0  0
  140.1090   74.5530  221.9520 C   0  0  0  0  0  0  0  0  0  0  0  0
  139.6070   73.3810  222.3480 N   0  0  0  0  0  0  0  0  0  0  0  0
  138.6380   71.8260  224.0860 H   0  0  0  0  0  0  0  0  0  0  0  0
  137.3434   69.8516  224.5592 H   0  0  0  0  0  0  0  0  0  0  0  0
  138.1403   69.0663  223.1020 H   0  0  0  0  0  0  0  0  0  0  0  0
  140.7674   67.4329  226.7205 H   0  0  0  0  0  0  0  0  0  0  0  0
  141.9493   68.7232  226.5725 H   0  0  0  0  0  0  0  0  0  0  0  0
  139.6188   68.5090  228.6421 H   0  0  0  0  0  0  0  0  0  0  0  0
  139.5168   70.9127  228.5099 H   0  0  0  0  0  0  0  0  0  0  0  0
  141.2567   71.0486  228.1925 H   0  0  0  0  0  0  0  0  0  0  0  0
  139.1312   71.1967  226.3246 H   0  0  0  0  0  0  0  0  0  0  0  0
  141.8141   71.7979  226.4628 H   0  0  0  0  0  0  0  0  0  0  0  0
  141.7199   70.5296  225.1709 H   0  0  0  0  0  0  0  0  0  0  0  0
  139.7110   72.3350  224.8570 H   0  0  0  0  0  0  0  0  0  0  0  0
  141.8005   71.3211  220.9355 H   0  0  0  0  0  0  0  0  0  0  0  0
  142.7696   73.4775  220.1777 H   0  0  0  0  0  0  0  0  0  0  0  0
  142.6510   75.9285  220.1485 H   0  0  0  0  0  0  0  0  0  0  0  0
  139.4396   77.8215  222.2661 H   0  0  0  0  0  0  0  0  0  0  0  0
  138.5503   75.6397  222.9732 H   0  0  0  0  0  0  0  0  0  0  0  0
  1  2  2  0
  2  3  1  0
  3  4  1  0
  4  5  1  0
  5  6  2  0
  5  7  1  0
  7  8  1  0
  8  9  1  0
  9 10  1  0
  9 11  1  0
 11 12  1  0
 12 13  1  0
 13 14  1  0
  2 15  1  0
 15 16  2  0
 16 17  1  0
 17 18  2  0
 18 19  1  0
 19 20  2  0
 20 21  1  0
 20 22  1  0
 22 23  2  0
 23 24  1  0
 24 25  2  0
 12  7  1  0
 25 15  1  0
 24 18  1  0
  3 26  1  0
  4 27  1  0
  4 28  1  0
  8 29  1  0
  8 30  1  0
  9 31  1  1
 11 32  1  0
 11 33  1  0
 12 34  1  1
 13 35  1  0
 13 36  1  0
 14 37  1  0
 16 38  1  0
 17 39  1  0
 19 40  1  0
 22 41  1  0
 23 42  1  0
M  END
>  <smiles>  (36) 
O=C(NCC(=O)N1C[C@@H](F)C[C@H]1CO)c1ccc2cc(Cl)ccc2n1

>  <score_type>  (36) 
oracle

>  <origin>  (36) 
autodockgpu

>  <m_score__min__energy>  (36) 
-7.0099999999999998

>  <m_primary>  (36) 
energy

>  <rmsd>  (36) 
8.21083469855198

>  <m_score__min__rmsd>  (36) 
8.21083469855198

>  <meeko>  (36) 
{"free_energy": -6.39, "intermolecular_energy": -8.18, "internal_energy": -2.08, "cluster_size": 20, "cluster_id": 2, "rank_in_cluster": 6}

>  <energy>  (36) 
-6.42

>  <cluster_rmsd>  (36) 
0.0

>  <cluster>  (36) 
3

$$$$

     RDKit          3D

 42 44  0  0  0  0  0  0  0  0999 V2000
  139.9640   70.1710  222.3610 O   0  0  0  0  0  0  0  0  0  0  0  0
  139.5540   71.3180  222.6900 C   0  0  0  0  0  0  0  0  0  0  0  0
  138.4880   71.4620  223.6380 N   0  0  0  0  0  0  0  0  0  0  0  0
  137.9210   70.2810  224.1810 C   0  0  0  0  0  0  0  0  0  0  0  0
  138.8740   69.3620  224.7610 C   0  0  0  0  0  0  0  0  0  0  0  0
  138.9880   68.2490  224.0610 O   0  0  0  0  0  0  0  0  0  0  0  0
  139.6810   69.4040  225.8910 N   0  0  0  0  0  0  0  0  0  0  0  0
  140.3390   68.4540  226.7470 C   0  0  0  0  0  0  0  0  0  0  0  0
  139.9610   68.9120  228.1570 C   0  0  1  0  0  0  0  0  0  0  0  0
  140.8370   68.4060  229.0810 F   0  0  0  0  0  0  0  0  0  0  0  0
  140.1750   70.4140  227.9980 C   0  0  0  0  0  0  0  0  0  0  0  0
  140.0280   70.7060  226.5450 C   0  0  1  0  0  0  0  0  0  0  0  0
  141.3130   71.1590  225.9410 C   0  0  0  0  0  0  0  0  0  0  0  0
  141.4170   70.7740  224.6010 O   0  0  0  0  0  0  0  0  0  0  0  0
  140.1470   72.5420  222.1200 C   0  0  0  0  0  0  0  0  0  0  0  0
  141.2540   72.4620  221.3330 C   0  0  0  0  0  0  0  0  0  0  0  0
  141.8370   73.5920  220.7830 C   0  0  0  0  0  0  0  0  0  0  0  0
  141.2670   74.8340  221.0480 C   0  0  0  0  0  0  0  0  0  0  0  0
  141.8110   75.9870  220.5230 C   0  0  0  0  0  0  0  0  0  0  0  0
  141.2040   77.1870  220.8210 C   0  0  0  0  0  0  0  0  0  0  0  0
  141.7920   78.7230  220.2180 Cl  0  0  0  0  0  0  0  0  0  0  0  0
  140.0850   77.1990  221.6240 C   0  0  0  0  0  0  0  0  0  0  0  0
  139.5450   76.0570  222.1450 C   0  0  0  0  0  0  0  0  0  0  0  0
  140.1480   74.8550  221.8510 C   0  0  0  0  0  0  0  0  0  0  0  0
  139.6090   73.7480  222.3670 N   0  0  0  0  0  0  0  0  0  0  0  0
  138.1830   72.4380  223.8770 H   0  0  0  0  0  0  0  0  0  0  0  0
  137.2069   70.5734  224.9650 H   0  0  0  0  0  0  0  0  0  0  0  0
  137.4500   69.7493  223.3411 H   0  0  0  0  0  0  0  0  0  0  0  0
  139.9738   67.4344  226.5548 H   0  0  0  0  0  0  0  0  0  0  0  0
  141.4269   68.4194  226.5878 H   0  0  0  0  0  0  0  0  0  0  0  0
  138.9618   68.6045  228.4990 H   0  0  0  0  0  0  0  0  0  0  0  0
  139.4217   70.9693  228.5761 H   0  0  0  0  0  0  0  0  0  0  0  0
  141.1650   70.7181  228.3686 H   0  0  0  0  0  0  0  0  0  0  0  0
  139.2732   71.4941  226.4066 H   0  0  0  0  0  0  0  0  0  0  0  0
  141.3690   72.2559  226.0024 H   0  0  0  0  0  0  0  0  0  0  0  0
  142.1382   70.6911  226.4979 H   0  0  0  0  0  0  0  0  0  0  0  0
  140.8120   70.0470  224.3680 H   0  0  0  0  0  0  0  0  0  0  0  0
  141.6968   71.4761  221.1284 H   0  0  0  0  0  0  0  0  0  0  0  0
  142.7325   73.5094  220.1495 H   0  0  0  0  0  0  0  0  0  0  0  0
  142.7053   75.9496  219.8836 H   0  0  0  0  0  0  0  0  0  0  0  0
  139.6085   78.1633  221.8543 H   0  0  0  0  0  0  0  0  0  0  0  0
  138.6503   76.0972  222.7837 H   0  0  0  0  0  0  0  0  0  0  0  0
  1  2  2  0
  2  3  1  0
  3  4  1  0
  4  5  1  0
  5  6  2  0
  5  7  1  0
  7  8  1  0
  8  9  1  0
  9 10  1  0
  9 11  1  0
 11 12  1  0
 12 13  1  0
 13 14  1  0
  2 15  1  0
 15 16  2  0
 16 17  1  0
 17 18  2  0
 18 19  1  0
 19 20  2  0
 20 21  1  0
 20 22  1  0
 22 23  2  0
 23 24  1  0
 24 25  2  0
 12  7  1  0
 25 15  1  0
 24 18  1  0
  3 26  1  0
  4 27  1  0
  4 28  1  0
  8 29  1  0
  8 30  1  0
  9 31  1  1
 11 32  1  0
 11 33  1  0
 12 34  1  1
 13 35  1  0
 13 36  1  0
 14 37  1  0
 16 38  1  0
 17 39  1  0
 19 40  1  0
 22 41  1  0
 23 42  1  0
M  END
>  <smiles>  (37) 
O=C(NCC(=O)N1C[C@@H](F)C[C@H]1CO)c1ccc2cc(Cl)ccc2n1

>  <score_type>  (37) 
oracle

>  <origin>  (37) 
autodockgpu

>  <m_score__min__energy>  (37) 
-7.0099999999999998

>  <m_primary>  (37) 
energy

>  <rmsd>  (37) 
8.256451841490774

>  <m_score__min__rmsd>  (37) 
8.256451841490774

>  <meeko>  (37) 
{"free_energy": -6.21, "intermolecular_energy": -8.0, "internal_energy": -2.17, "cluster_size": 20, "cluster_id": 2, "rank_in_cluster": 16}

>  <energy>  (37) 
-6.4

>  <cluster_rmsd>  (37) 
0.0

>  <cluster>  (37) 
4

$$$$

     RDKit          3D

 42 44  0  0  0  0  0  0  0  0999 V2000
  140.3570   72.6260  220.7820 O   0  0  0  0  0  0  0  0  0  0  0  0
  140.0000   72.9500  221.9470 C   0  0  0  0  0  0  0  0  0  0  0  0
  139.6240   74.3030  222.2390 N   0  0  0  0  0  0  0  0  0  0  0  0
  139.6690   75.2450  221.1800 C   0  0  0  0  0  0  0  0  0  0  0  0
  140.9680   75.8340  220.9470 C   0  0  0  0  0  0  0  0  0  0  0  0
  141.9530   75.0010  221.2220 O   0  0  0  0  0  0  0  0  0  0  0  0
  141.3890   77.0810  220.5030 N   0  0  0  0  0  0  0  0  0  0  0  0
  141.7570   78.3380  221.0970 C   0  0  0  0  0  0  0  0  0  0  0  0
  140.9620   79.3680  220.2910 C   0  0  1  0  0  0  0  0  0  0  0  0
  141.5140   80.6150  220.4220 F   0  0  0  0  0  0  0  0  0  0  0  0
  141.2070   78.8300  218.8860 C   0  0  0  0  0  0  0  0  0  0  0  0
  141.5130   77.3800  219.0400 C   0  0  1  0  0  0  0  0  0  0  0  0
  142.9190   77.0690  218.6580 C   0  0  0  0  0  0  0  0  0  0  0  0
  143.6930   76.7240  219.7700 O   0  0  0  0  0  0  0  0  0  0  0  0
  139.9560   71.9650  223.0430 C   0  0  0  0  0  0  0  0  0  0  0  0
  139.3520   70.7610  222.8560 C   0  0  0  0  0  0  0  0  0  0  0  0
  139.2920   69.8130  223.8640 C   0  0  0  0  0  0  0  0  0  0  0  0
  139.8690   70.1110  225.0950 C   0  0  0  0  0  0  0  0  0  0  0  0
  139.8350   69.2000  226.1300 C   0  0  0  0  0  0  0  0  0  0  0  0
  140.4220   69.5510  227.3260 C   0  0  0  0  0  0  0  0  0  0  0  0
  140.4490   68.4870  228.7170 Cl  0  0  0  0  0  0  0  0  0  0  0  0
  141.0180   70.7870  227.4500 C   0  0  0  0  0  0  0  0  0  0  0  0
  141.0510   71.6900  226.4260 C   0  0  0  0  0  0  0  0  0  0  0  0
  140.4660   71.3440  225.2290 C   0  0  0  0  0  0  0  0  0  0  0  0
  140.5080   72.2370  224.2380 N   0  0  0  0  0  0  0  0  0  0  0  0
  139.3350   74.5210  223.2240 H   0  0  0  0  0  0  0  0  0  0  0  0
  139.3531   74.7372  220.2568 H   0  0  0  0  0  0  0  0  0  0  0  0
  139.0028   76.0703  221.4715 H   0  0  0  0  0  0  0  0  0  0  0  0
  141.4732   78.3676  222.1593 H   0  0  0  0  0  0  0  0  0  0  0  0
  142.8414   78.5207  221.0696 H   0  0  0  0  0  0  0  0  0  0  0  0
  139.9074   79.4806  220.5826 H   0  0  0  0  0  0  0  0  0  0  0  0
  140.3096   78.9658  218.2645 H   0  0  0  0  0  0  0  0  0  0  0  0
  142.0336   79.3625  218.3929 H   0  0  0  0  0  0  0  0  0  0  0  0
  140.8343   76.7952  218.4017 H   0  0  0  0  0  0  0  0  0  0  0  0
  142.9181   76.2276  217.9495 H   0  0  0  0  0  0  0  0  0  0  0  0
  143.3571   77.9687  218.2012 H   0  0  0  0  0  0  0  0  0  0  0  0
  143.1700   76.3070  220.4800 H   0  0  0  0  0  0  0  0  0  0  0  0
  138.8996   70.5342  221.8793 H   0  0  0  0  0  0  0  0  0  0  0  0
  138.7985   68.8445  223.6951 H   0  0  0  0  0  0  0  0  0  0  0  0
  139.3523   68.2197  226.0040 H   0  0  0  0  0  0  0  0  0  0  0  0
  141.4844   71.0564  228.4091 H   0  0  0  0  0  0  0  0  0  0  0  0
  141.5334   72.6702  226.5547 H   0  0  0  0  0  0  0  0  0  0  0  0
  1  2  2  0
  2  3  1  0
  3  4  1  0
  4  5  1  0
  5  6  2  0
  5  7  1  0
  7  8  1  0
  8  9  1  0
  9 10  1  0
  9 11  1  0
 11 12  1  0
 12 13  1  0
 13 14  1  0
  2 15  1  0
 15 16  2  0
 16 17  1  0
 17 18  2  0
 18 19  1  0
 19 20  2  0
 20 21  1  0
 20 22  1  0
 22 23  2  0
 23 24  1  0
 24 25  2  0
 12  7  1  0
 25 15  1  0
 24 18  1  0
  3 26  1  0
  4 27  1  0
  4 28  1  0
  8 29  1  0
  8 30  1  0
  9 31  1  1
 11 32  1  0
 11 33  1  0
 12 34  1  6
 13 35  1  0
 13 36  1  0
 14 37  1  0
 16 38  1  0
 17 39  1  0
 19 40  1  0
 22 41  1  0
 23 42  1  0
M  END
>  <smiles>  (38) 
O=C(NCC(=O)N1C[C@@H](F)C[C@H]1CO)c1ccc2cc(Cl)ccc2n1

>  <score_type>  (38) 
oracle

>  <origin>  (38) 
autodockgpu

>  <m_score__min__energy>  (38) 
-7.0099999999999998

>  <m_primary>  (38) 
energy

>  <rmsd>  (38) 
2.5351101170431685

>  <m_score__min__rmsd>  (38) 
2.5351101170431685

>  <meeko>  (38) 
{"free_energy": -6.36, "intermolecular_energy": -8.15, "internal_energy": -1.64, "cluster_size": 15, "cluster_id": 1, "rank_in_cluster": 6}

>  <energy>  (38) 
-6.37

>  <cluster_rmsd>  (38) 
0.0

>  <cluster>  (38) 
5

$$$$

     RDKit          3D

 42 44  0  0  0  0  0  0  0  0999 V2000
  139.9420   69.7980  222.7150 O   0  0  0  0  0  0  0  0  0  0  0  0
  139.5610   70.9660  223.0030 C   0  0  0  0  0  0  0  0  0  0  0  0
  138.5270   71.1710  223.9750 N   0  0  0  0  0  0  0  0  0  0  0  0
  137.9590   70.0250  224.5890 C   0  0  0  0  0  0  0  0  0  0  0  0
  138.9150   69.1090  225.1670 C   0  0  0  0  0  0  0  0  0  0  0  0
  138.8640   67.9140  224.6100 O   0  0  0  0  0  0  0  0  0  0  0  0
  139.8620   69.2220  226.1770 N   0  0  0  0  0  0  0  0  0  0  0  0
  140.8310   68.3670  226.8080 C   0  0  0  0  0  0  0  0  0  0  0  0
  140.5910   68.5870  228.3030 C   0  0  1  0  0  0  0  0  0  0  0  0
  141.6870   68.2040  229.0310 F   0  0  0  0  0  0  0  0  0  0  0  0
  140.4560   70.1050  228.3150 C   0  0  0  0  0  0  0  0  0  0  0  0
  140.0260   70.4980  226.9440 C   0  0  1  0  0  0  0  0  0  0  0  0
  141.0750   71.2880  226.2410 C   0  0  0  0  0  0  0  0  0  0  0  0
  141.6090   70.5870  225.1550 O   0  0  0  0  0  0  0  0  0  0  0  0
  140.1550   72.1520  222.3610 C   0  0  0  0  0  0  0  0  0  0  0  0
  141.2490   72.0200  221.5620 C   0  0  0  0  0  0  0  0  0  0  0  0
  141.8330   73.1140  220.9440 C   0  0  0  0  0  0  0  0  0  0  0  0
  141.2780   74.3730  221.1520 C   0  0  0  0  0  0  0  0  0  0  0  0
  141.8240   75.4920  220.5570 C   0  0  0  0  0  0  0  0  0  0  0  0
  141.2320   76.7120  220.8010 C   0  0  0  0  0  0  0  0  0  0  0  0
  141.8240   78.2080  220.1080 Cl  0  0  0  0  0  0  0  0  0  0  0  0
  140.1260   76.7760  221.6190 C   0  0  0  0  0  0  0  0  0  0  0  0
  139.5850   75.6690  222.2090 C   0  0  0  0  0  0  0  0  0  0  0  0
  140.1720   74.4480  221.9690 C   0  0  0  0  0  0  0  0  0  0  0  0
  139.6320   73.3750  222.5510 N   0  0  0  0  0  0  0  0  0  0  0  0
  138.2460   72.1610  224.1790 H   0  0  0  0  0  0  0  0  0  0  0  0
  137.2842   70.3646  225.3886 H   0  0  0  0  0  0  0  0  0  0  0  0
  137.4433   69.4706  223.7911 H   0  0  0  0  0  0  0  0  0  0  0  0
  140.6627   67.3149  226.5345 H   0  0  0  0  0  0  0  0  0  0  0  0
  141.8631   68.5959  226.5040 H   0  0  0  0  0  0  0  0  0  0  0  0
  139.7448   68.0287  228.7299 H   0  0  0  0  0  0  0  0  0  0  0  0
  139.7021   70.4144  229.0538 H   0  0  0  0  0  0  0  0  0  0  0  0
  141.4051   70.5884  228.5900 H   0  0  0  0  0  0  0  0  0  0  0  0
  139.1107   71.1045  227.0100 H   0  0  0  0  0  0  0  0  0  0  0  0
  140.6306   72.2258  225.8763 H   0  0  0  0  0  0  0  0  0  0  0  0
  141.8887   71.4885  226.9535 H   0  0  0  0  0  0  0  0  0  0  0  0
  140.9250   70.1660  224.6030 H   0  0  0  0  0  0  0  0  0  0  0  0
  141.6800   71.0205  221.4030 H   0  0  0  0  0  0  0  0  0  0  0  0
  142.7175   72.9898  220.3019 H   0  0  0  0  0  0  0  0  0  0  0  0
  142.7072   75.4122  219.9061 H   0  0  0  0  0  0  0  0  0  0  0  0
  139.6607   77.7554  221.8043 H   0  0  0  0  0  0  0  0  0  0  0  0
  138.7020   75.7518  222.8598 H   0  0  0  0  0  0  0  0  0  0  0  0
  1  2  2  0
  2  3  1  0
  3  4  1  0
  4  5  1  0
  5  6  2  0
  5  7  1  0
  7  8  1  0
  8  9  1  0
  9 10  1  0
  9 11  1  0
 11 12  1  0
 12 13  1  0
 13 14  1  0
  2 15  1  0
 15 16  2  0
 16 17  1  0
 17 18  2  0
 18 19  1  0
 19 20  2  0
 20 21  1  0
 20 22  1  0
 22 23  2  0
 23 24  1  0
 24 25  2  0
 12  7  1  0
 25 15  1  0
 24 18  1  0
  3 26  1  0
  4 27  1  0
  4 28  1  0
  8 29  1  0
  8 30  1  0
  9 31  1  1
 11 32  1  0
 11 33  1  0
 12 34  1  1
 13 35  1  0
 13 36  1  0
 14 37  1  0
 16 38  1  0
 17 39  1  0
 19 40  1  0
 22 41  1  0
 23 42  1  0
M  END
>  <smiles>  (39) 
O=C(NCC(=O)N1C[C@@H](F)C[C@H]1CO)c1ccc2cc(Cl)ccc2n1

>  <score_type>  (39) 
oracle

>  <origin>  (39) 
autodockgpu

>  <m_score__min__energy>  (39) 
-7.0099999999999998

>  <m_primary>  (39) 
energy

>  <rmsd>  (39) 
8.331355057693424

>  <m_score__min__rmsd>  (39) 
8.331355057693424

>  <meeko>  (39) 
{"free_energy": -6.42, "intermolecular_energy": -8.21, "internal_energy": -2.22, "cluster_size": 20, "cluster_id": 2, "rank_in_cluster": 3}

>  <energy>  (39) 
-6.35

>  <cluster_rmsd>  (39) 
0.09

>  <cluster>  (39) 
5

$$$$

     RDKit          3D

 42 44  0  0  0  0  0  0  0  0999 V2000
  140.4240   71.6790  220.6460 O   0  0  0  0  0  0  0  0  0  0  0  0
  140.0160   72.5780  221.4300 C   0  0  0  0  0  0  0  0  0  0  0  0
  139.0640   72.2670  222.4570 N   0  0  0  0  0  0  0  0  0  0  0  0
  138.6070   70.9270  222.5520 C   0  0  0  0  0  0  0  0  0  0  0  0
  139.3150   70.1120  223.5120 C   0  0  0  0  0  0  0  0  0  0  0  0
  139.5580   68.8980  223.0570 O   0  0  0  0  0  0  0  0  0  0  0  0
  139.7820   70.3370  224.8010 N   0  0  0  0  0  0  0  0  0  0  0  0
  139.7750   71.4210  225.7460 C   0  0  0  0  0  0  0  0  0  0  0  0
  141.2270   71.5000  226.2200 C   0  0  1  0  0  0  0  0  0  0  0  0
  141.3110   72.1630  227.4160 F   0  0  0  0  0  0  0  0  0  0  0  0
  141.5060   70.0140  226.4220 C   0  0  0  0  0  0  0  0  0  0  0  0
  140.5530   69.2860  225.5390 C   0  0  1  0  0  0  0  0  0  0  0  0
  139.5620   68.5000  226.3250 C   0  0  0  0  0  0  0  0  0  0  0  0
  139.0780   67.4060  225.6010 O   0  0  0  0  0  0  0  0  0  0  0  0
  140.4930   73.9690  221.3250 C   0  0  0  0  0  0  0  0  0  0  0  0
  141.5170   74.2780  220.4830 C   0  0  0  0  0  0  0  0  0  0  0  0
  141.9910   75.5740  220.3600 C   0  0  0  0  0  0  0  0  0  0  0  0
  141.3970   76.5760  221.1230 C   0  0  0  0  0  0  0  0  0  0  0  0
  141.8340   77.8820  221.0350 C   0  0  0  0  0  0  0  0  0  0  0  0
  141.2100   78.8310  221.8140 C   0  0  0  0  0  0  0  0  0  0  0  0
  141.6660   80.5220  221.7970 Cl  0  0  0  0  0  0  0  0  0  0  0  0
  140.1790   78.4520  222.6460 C   0  0  0  0  0  0  0  0  0  0  0  0
  139.7460   77.1590  222.7330 C   0  0  0  0  0  0  0  0  0  0  0  0
  140.3670   76.2070  221.9580 C   0  0  0  0  0  0  0  0  0  0  0  0
  139.9320   74.9490  222.0540 N   0  0  0  0  0  0  0  0  0  0  0  0
  138.7560   73.0510  223.0830 H   0  0  0  0  0  0  0  0  0  0  0  0
  137.5449   70.9471  222.8375 H   0  0  0  0  0  0  0  0  0  0  0  0
  138.7832   70.4692  221.5674 H   0  0  0  0  0  0  0  0  0  0  0  0
  139.4687   72.3605  225.2627 H   0  0  0  0  0  0  0  0  0  0  0  0
  139.0657   71.2615  226.5715 H   0  0  0  0  0  0  0  0  0  0  0  0
  141.9141   72.0280  225.5424 H   0  0  0  0  0  0  0  0  0  0  0  0
  142.5427   69.7792  226.1390 H   0  0  0  0  0  0  0  0  0  0  0  0
  141.3778   69.7226  227.4749 H   0  0  0  0  0  0  0  0  0  0  0  0
  141.1132   68.5989  224.8878 H   0  0  0  0  0  0  0  0  0  0  0  0
  140.0447   68.1343  227.2433 H   0  0  0  0  0  0  0  0  0  0  0  0
  138.7125   69.1577  226.5612 H   0  0  0  0  0  0  0  0  0  0  0  0
  139.2910   67.4580  224.6520 H   0  0  0  0  0  0  0  0  0  0  0  0
  141.9797   73.4788  219.8854 H   0  0  0  0  0  0  0  0  0  0  0  0
  142.8190   75.8065  219.6742 H   0  0  0  0  0  0  0  0  0  0  0  0
  142.6584   78.1576  220.3609 H   0  0  0  0  0  0  0  0  0  0  0  0
  139.6866   79.2184  223.2626 H   0  0  0  0  0  0  0  0  0  0  0  0
  138.9205   76.8857  223.4067 H   0  0  0  0  0  0  0  0  0  0  0  0
  1  2  2  0
  2  3  1  0
  3  4  1  0
  4  5  1  0
  5  6  2  0
  5  7  1  0
  7  8  1  0
  8  9  1  0
  9 10  1  0
  9 11  1  0
 11 12  1  0
 12 13  1  0
 13 14  1  0
  2 15  1  0
 15 16  2  0
 16 17  1  0
 17 18  2  0
 18 19  1  0
 19 20  2  0
 20 21  1  0
 20 22  1  0
 22 23  2  0
 23 24  1  0
 24 25  2  0
 12  7  1  0
 25 15  1  0
 24 18  1  0
  3 26  1  0
  4 27  1  0
  4 28  1  0
  8 29  1  0
  8 30  1  0
  9 31  1  6
 11 32  1  0
 11 33  1  0
 12 34  1  6
 13 35  1  0
 13 36  1  0
 14 37  1  0
 16 38  1  0
 17 39  1  0
 19 40  1  0
 22 41  1  0
 23 42  1  0
M  END
>  <smiles>  (40) 
O=C(NCC(=O)N1C[C@@H](F)C[C@H]1CO)c1ccc2cc(Cl)ccc2n1

>  <score_type>  (40) 
oracle

>  <origin>  (40) 
autodockgpu

>  <m_score__min__energy>  (40) 
-7.0099999999999998

>  <m_primary>  (40) 
energy

>  <rmsd>  (40) 
8.041227997458133

>  <m_score__min__rmsd>  (40) 
8.041227997458133

>  <meeko>  (40) 
{"free_energy": -6.3, "intermolecular_energy": -8.08, "internal_energy": -2.03, "cluster_size": 20, "cluster_id": 2, "rank_in_cluster": 14}

>  <energy>  (40) 
-5.88

>  <cluster_rmsd>  (40) 
0.88

>  <cluster>  (40) 
5

$$$$

     RDKit          3D

 42 44  0  0  0  0  0  0  0  0999 V2000
  139.2010   72.1540  220.6270 O   0  0  0  0  0  0  0  0  0  0  0  0
  139.7960   72.4650  221.6950 C   0  0  0  0  0  0  0  0  0  0  0  0
  140.4590   73.7310  221.8120 N   0  0  0  0  0  0  0  0  0  0  0  0
  140.4190   74.6050  220.6960 C   0  0  0  0  0  0  0  0  0  0  0  0
  140.6690   75.9950  221.0030 C   0  0  0  0  0  0  0  0  0  0  0  0
  140.8930   76.1920  222.2880 O   0  0  0  0  0  0  0  0  0  0  0  0
  140.7180   77.1520  220.2370 N   0  0  0  0  0  0  0  0  0  0  0  0
  139.8900   77.7950  219.2520 C   0  0  0  0  0  0  0  0  0  0  0  0
  140.8650   78.1360  218.1240 C   0  0  1  0  0  0  0  0  0  0  0  0
  140.3510   79.1200  217.3210 F   0  0  0  0  0  0  0  0  0  0  0  0
  142.0230   78.6840  218.9500 C   0  0  0  0  0  0  0  0  0  0  0  0
  141.8950   78.0760  220.3040 C   0  0  1  0  0  0  0  0  0  0  0  0
  141.5780   79.0980  221.3400 C   0  0  0  0  0  0  0  0  0  0  0  0
  142.0080   78.6980  222.6090 O   0  0  0  0  0  0  0  0  0  0  0  0
  139.8350   71.5510  222.8510 C   0  0  0  0  0  0  0  0  0  0  0  0
  139.2850   70.3100  222.7590 C   0  0  0  0  0  0  0  0  0  0  0  0
  139.3040   69.4270  223.8260 C   0  0  0  0  0  0  0  0  0  0  0  0
  139.9020   69.8300  225.0160 C   0  0  0  0  0  0  0  0  0  0  0  0
  139.9450   68.9860  226.1060 C   0  0  0  0  0  0  0  0  0  0  0  0
  140.5490   69.4410  227.2580 C   0  0  0  0  0  0  0  0  0  0  0  0
  140.6730   68.4700  228.7110 Cl  0  0  0  0  0  0  0  0  0  0  0  0
  141.0870   70.7090  227.2850 C   0  0  0  0  0  0  0  0  0  0  0  0
  141.0440   71.5450  226.2060 C   0  0  0  0  0  0  0  0  0  0  0  0
  140.4410   71.0960  225.0530 C   0  0  0  0  0  0  0  0  0  0  0  0
  140.4080   71.9250  224.0070 N   0  0  0  0  0  0  0  0  0  0  0  0
  140.9400   73.9420  222.7210 H   0  0  0  0  0  0  0  0  0  0  0  0
  141.1792   74.2724  219.9739 H   0  0  0  0  0  0  0  0  0  0  0  0
  139.3933   74.5556  220.3017 H   0  0  0  0  0  0  0  0  0  0  0  0
  139.1024   77.1141  218.8970 H   0  0  0  0  0  0  0  0  0  0  0  0
  139.3684   78.6797  219.6460 H   0  0  0  0  0  0  0  0  0  0  0  0
  141.1114   77.3034  217.4486 H   0  0  0  0  0  0  0  0  0  0  0  0
  142.9834   78.4008  218.4945 H   0  0  0  0  0  0  0  0  0  0  0  0
  141.9936   79.7824  219.0005 H   0  0  0  0  0  0  0  0  0  0  0  0
  142.8405   77.5814  220.5713 H   0  0  0  0  0  0  0  0  0  0  0  0
  142.0779   80.0413  221.0750 H   0  0  0  0  0  0  0  0  0  0  0  0
  140.4860   79.2265  221.3724 H   0  0  0  0  0  0  0  0  0  0  0  0
  142.2350   77.7510  222.6500 H   0  0  0  0  0  0  0  0  0  0  0  0
  138.8139   70.0004  221.8145 H   0  0  0  0  0  0  0  0  0  0  0  0
  138.8552   68.4269  223.7344 H   0  0  0  0  0  0  0  0  0  0  0  0
  139.5091   67.9772  226.0571 H   0  0  0  0  0  0  0  0  0  0  0  0
  141.5687   71.0608  228.2092 H   0  0  0  0  0  0  0  0  0  0  0  0
  141.4809   72.5532  226.2571 H   0  0  0  0  0  0  0  0  0  0  0  0
  1  2  2  0
  2  3  1  0
  3  4  1  0
  4  5  1  0
  5  6  2  0
  5  7  1  0
  7  8  1  0
  8  9  1  0
  9 10  1  0
  9 11  1  0
 11 12  1  0
 12 13  1  0
 13 14  1  0
  2 15  1  0
 15 16  2  0
 16 17  1  0
 17 18  2  0
 18 19  1  0
 19 20  2  0
 20 21  1  0
 20 22  1  0
 22 23  2  0
 23 24  1  0
 24 25  2  0
 12  7  1  0
 25 15  1  0
 24 18  1  0
  3 26  1  0
  4 27  1  0
  4 28  1  0
  8 29  1  0
  8 30  1  0
  9 31  1  6
 11 32  1  0
 11 33  1  0
 12 34  1  1
 13 35  1  0
 13 36  1  0
 14 37  1  0
 16 38  1  0
 17 39  1  0
 19 40  1  0
 22 41  1  0
 23 42  1  0
M  END
>  <smiles>  (41) 
O=C(NCC(=O)N1C[C@@H](F)C[C@H]1CO)c1ccc2cc(Cl)ccc2n1

>  <score_type>  (41) 
oracle

>  <origin>  (41) 
autodockgpu

>  <m_score__min__energy>  (41) 
-7.0099999999999998

>  <m_primary>  (41) 
energy

>  <rmsd>  (41) 
1.8994224166016465

>  <m_score__min__rmsd>  (41) 
1.8994224166016465

>  <meeko>  (41) 
{"free_energy": -5.73, "intermolecular_energy": -7.52, "internal_energy": -2.33, "cluster_size": 15, "cluster_id": 1, "rank_in_cluster": 15}

>  <energy>  (41) 
-5.67

>  <cluster_rmsd>  (41) 
1.94

>  <cluster>  (41) 
5

$$$$

     RDKit          3D

 42 44  0  0  0  0  0  0  0  0999 V2000
  139.9520   69.8250  222.6220 O   0  0  0  0  0  0  0  0  0  0  0  0
  139.5710   70.9850  222.9380 C   0  0  0  0  0  0  0  0  0  0  0  0
  138.5420   71.1670  223.9200 N   0  0  0  0  0  0  0  0  0  0  0  0
  137.9790   70.0080  224.5110 C   0  0  0  0  0  0  0  0  0  0  0  0
  138.9350   69.1110  225.1200 C   0  0  0  0  0  0  0  0  0  0  0  0
  138.8970   67.9030  224.5900 O   0  0  0  0  0  0  0  0  0  0  0  0
  139.8700   69.2540  226.1370 N   0  0  0  0  0  0  0  0  0  0  0  0
  140.7990   68.4070  226.8360 C   0  0  0  0  0  0  0  0  0  0  0  0
  140.5440   68.7250  228.3100 C   0  0  1  0  0  0  0  0  0  0  0  0
  141.6150   68.3510  229.0780 F   0  0  0  0  0  0  0  0  0  0  0  0
  140.4620   70.2450  228.2280 C   0  0  0  0  0  0  0  0  0  0  0  0
  140.0670   70.5680  226.8280 C   0  0  1  0  0  0  0  0  0  0  0  0
  141.1540   71.2770  226.0970 C   0  0  0  0  0  0  0  0  0  0  0  0
  141.6650   70.5000  225.0520 O   0  0  0  0  0  0  0  0  0  0  0  0
  140.1610   72.1870  222.3190 C   0  0  0  0  0  0  0  0  0  0  0  0
  141.2780   72.0800  221.5490 C   0  0  0  0  0  0  0  0  0  0  0  0
  141.8580   73.1880  220.9530 C   0  0  0  0  0  0  0  0  0  0  0  0
  141.2740   74.4360  221.1550 C   0  0  0  0  0  0  0  0  0  0  0  0
  141.8150   75.5680  220.5820 C   0  0  0  0  0  0  0  0  0  0  0  0
  141.1950   76.7760  220.8170 C   0  0  0  0  0  0  0  0  0  0  0  0
  141.7780   78.2870  220.1500 Cl  0  0  0  0  0  0  0  0  0  0  0  0
  140.0670   76.8150  221.6070 C   0  0  0  0  0  0  0  0  0  0  0  0
  139.5310   75.6930  222.1740 C   0  0  0  0  0  0  0  0  0  0  0  0
  140.1470   74.4850  221.9430 C   0  0  0  0  0  0  0  0  0  0  0  0
  139.6110   73.3990  222.5030 N   0  0  0  0  0  0  0  0  0  0  0  0
  138.2610   72.1530  224.1480 H   0  0  0  0  0  0  0  0  0  0  0  0
  137.2698   70.3303  225.2876 H   0  0  0  0  0  0  0  0  0  0  0  0
  137.5034   69.4448  223.6945 H   0  0  0  0  0  0  0  0  0  0  0  0
  140.5988   67.3464  226.6235 H   0  0  0  0  0  0  0  0  0  0  0  0
  141.8429   68.5827  226.5372 H   0  0  0  0  0  0  0  0  0  0  0  0
  139.6727   68.2223  228.7551 H   0  0  0  0  0  0  0  0  0  0  0  0
  139.7081   70.6243  228.9335 H   0  0  0  0  0  0  0  0  0  0  0  0
  141.4230   70.7118  228.4899 H   0  0  0  0  0  0  0  0  0  0  0  0
  139.1727   71.2083  226.8411 H   0  0  0  0  0  0  0  0  0  0  0  0
  140.7531   72.2136  225.6822 H   0  0  0  0  0  0  0  0  0  0  0  0
  141.9703   71.4786  226.8062 H   0  0  0  0  0  0  0  0  0  0  0  0
  140.9680   70.0850  224.5130 H   0  0  0  0  0  0  0  0  0  0  0  0
  141.7314   71.0895  221.3961 H   0  0  0  0  0  0  0  0  0  0  0  0
  142.7608   73.0842  220.3333 H   0  0  0  0  0  0  0  0  0  0  0  0
  142.7166   75.5081  219.9547 H   0  0  0  0  0  0  0  0  0  0  0  0
  139.5800   77.7846  221.7880 H   0  0  0  0  0  0  0  0  0  0  0  0
  138.6286   75.7545  222.8001 H   0  0  0  0  0  0  0  0  0  0  0  0
  1  2  2  0
  2  3  1  0
  3  4  1  0
  4  5  1  0
  5  6  2  0
  5  7  1  0
  7  8  1  0
  8  9  1  0
  9 10  1  0
  9 11  1  0
 11 12  1  0
 12 13  1  0
 13 14  1  0
  2 15  1  0
 15 16  2  0
 16 17  1  0
 17 18  2  0
 18 19  1  0
 19 20  2  0
 20 21  1  0
 20 22  1  0
 22 23  2  0
 23 24  1  0
 24 25  2  0
 12  7  1  0
 25 15  1  0
 24 18  1  0
  3 26  1  0
  4 27  1  0
  4 28  1  0
  8 29  1  0
  8 30  1  0
  9 31  1  1
 11 32  1  0
 11 33  1  0
 12 34  1  1
 13 35  1  0
 13 36  1  0
 14 37  1  0
 16 38  1  0
 17 39  1  0
 19 40  1  0
 22 41  1  0
 23 42  1  0
M  END
>  <smiles>  (42) 
O=C(NCC(=O)N1C[C@@H](F)C[C@H]1CO)c1ccc2cc(Cl)ccc2n1

>  <score_type>  (42) 
oracle

>  <origin>  (42) 
autodockgpu

>  <m_score__min__energy>  (42) 
-7.0099999999999998

>  <m_primary>  (42) 
energy

>  <rmsd>  (42) 
8.302555651338125

>  <m_score__min__rmsd>  (42) 
8.302555651338125

>  <meeko>  (42) 
{"free_energy": -6.37, "intermolecular_energy": -8.16, "internal_energy": -2.27, "cluster_size": 20, "cluster_id": 2, "rank_in_cluster": 9}

>  <energy>  (42) 
-5.52

>  <cluster_rmsd>  (42) 
1.81

>  <cluster>  (42) 
5

$$$$

     RDKit          3D

 42 44  0  0  0  0  0  0  0  0999 V2000
  139.6370   74.3850  222.1550 O   0  0  0  0  0  0  0  0  0  0  0  0
  140.7960   74.5890  221.7030 C   0  0  0  0  0  0  0  0  0  0  0  0
  141.3560   75.9090  221.7130 N   0  0  0  0  0  0  0  0  0  0  0  0
  140.5630   76.9590  222.2440 C   0  0  0  0  0  0  0  0  0  0  0  0
  141.1010   78.2860  222.0440 C   0  0  0  0  0  0  0  0  0  0  0  0
  142.1980   78.2770  221.3110 O   0  0  0  0  0  0  0  0  0  0  0  0
  140.7090   79.5510  222.4610 N   0  0  0  0  0  0  0  0  0  0  0  0
  139.6200   80.1210  223.2090 C   0  0  0  0  0  0  0  0  0  0  0  0
  139.1600   81.2960  222.3440 C   0  0  1  0  0  0  0  0  0  0  0  0
  138.4450   82.1940  223.0910 F   0  0  0  0  0  0  0  0  0  0  0  0
  140.5190   81.8830  221.9760 C   0  0  0  0  0  0  0  0  0  0  0  0
  141.5000   80.7680  222.0900 C   0  0  1  0  0  0  0  0  0  0  0  0
  142.4720   81.0000  223.1950 C   0  0  0  0  0  0  0  0  0  0  0  0
  143.5960   80.1760  223.0760 O   0  0  0  0  0  0  0  0  0  0  0  0
  141.6140   73.4930  221.1520 C   0  0  0  0  0  0  0  0  0  0  0  0
  141.0650   72.2620  220.9580 C   0  0  0  0  0  0  0  0  0  0  0  0
  141.8050   71.2110  220.4430 C   0  0  0  0  0  0  0  0  0  0  0  0
  143.1410   71.4300  220.1190 C   0  0  0  0  0  0  0  0  0  0  0  0
  143.9180   70.4130  219.6030 C   0  0  0  0  0  0  0  0  0  0  0  0
  145.2330   70.6890  219.3020 C   0  0  0  0  0  0  0  0  0  0  0  0
  146.3260   69.4900  218.6410 Cl  0  0  0  0  0  0  0  0  0  0  0  0
  145.7270   71.9560  219.5220 C   0  0  0  0  0  0  0  0  0  0  0  0
  144.9580   72.9630  220.0330 C   0  0  0  0  0  0  0  0  0  0  0  0
  143.6430   72.6930  220.3360 C   0  0  0  0  0  0  0  0  0  0  0  0
  142.9050   73.6870  220.8340 N   0  0  0  0  0  0  0  0  0  0  0  0
  142.3230   76.0260  221.3250 H   0  0  0  0  0  0  0  0  0  0  0  0
  139.5732   76.9155  221.7662 H   0  0  0  0  0  0  0  0  0  0  0  0
  140.5272   76.8002  223.3319 H   0  0  0  0  0  0  0  0  0  0  0  0
  138.8090   79.3894  223.3399 H   0  0  0  0  0  0  0  0  0  0  0  0
  139.9150   80.4287  224.2231 H   0  0  0  0  0  0  0  0  0  0  0  0
  138.5087   81.0310  221.4981 H   0  0  0  0  0  0  0  0  0  0  0  0
  140.5005   82.2705  220.9467 H   0  0  0  0  0  0  0  0  0  0  0  0
  140.7858   82.7199  222.6381 H   0  0  0  0  0  0  0  0  0  0  0  0
  142.0535   80.6727  221.1442 H   0  0  0  0  0  0  0  0  0  0  0  0
  142.7960   82.0509  223.1702 H   0  0  0  0  0  0  0  0  0  0  0  0
  141.9728   80.7642  224.1464 H   0  0  0  0  0  0  0  0  0  0  0  0
  143.5860   79.6380  222.2630 H   0  0  0  0  0  0  0  0  0  0  0  0
  140.0084   72.0986  221.2166 H   0  0  0  0  0  0  0  0  0  0  0  0
  141.3462   70.2226  220.2929 H   0  0  0  0  0  0  0  0  0  0  0  0
  143.4985   69.4098  219.4368 H   0  0  0  0  0  0  0  0  0  0  0  0
  146.7790   72.1645  219.2773 H   0  0  0  0  0  0  0  0  0  0  0  0
  145.3797   73.9654  220.1983 H   0  0  0  0  0  0  0  0  0  0  0  0
  1  2  2  0
  2  3  1  0
  3  4  1  0
  4  5  1  0
  5  6  2  0
  5  7  1  0
  7  8  1  0
  8  9  1  0
  9 10  1  0
  9 11  1  0
 11 12  1  0
 12 13  1  0
 13 14  1  0
  2 15  1  0
 15 16  2  0
 16 17  1  0
 17 18  2  0
 18 19  1  0
 19 20  2  0
 20 21  1  0
 20 22  1  0
 22 23  2  0
 23 24  1  0
 24 25  2  0
 12  7  1  0
 25 15  1  0
 24 18  1  0
  3 26  1  0
  4 27  1  0
  4 28  1  0
  8 29  1  0
  8 30  1  0
  9 31  1  6
 11 32  1  0
 11 33  1  0
 12 34  1  6
 13 35  1  0
 13 36  1  0
 14 37  1  0
 16 38  1  0
 17 39  1  0
 19 40  1  0
 22 41  1  0
 23 42  1  0
M  END
>  <smiles>  (43) 
O=C(NCC(=O)N1C[C@@H](F)C[C@H]1CO)c1ccc2cc(Cl)ccc2n1

>  <score_type>  (43) 
oracle

>  <origin>  (43) 
autodockgpu

>  <m_score__min__energy>  (43) 
-7.0099999999999998

>  <m_primary>  (43) 
energy

>  <rmsd>  (43) 
6.310309506593387

>  <m_score__min__rmsd>  (43) 
6.310309506593387

>  <meeko>  (43) 
{"free_energy": -5.93, "intermolecular_energy": -7.72, "internal_energy": -2.41, "cluster_size": 3, "cluster_id": 6, "rank_in_cluster": 2}

>  <energy>  (43) 
-5.45

>  <cluster_rmsd>  (43) 
1.87

>  <cluster>  (43) 
5

$$$$

     RDKit          3D

 42 44  0  0  0  0  0  0  0  0999 V2000
  137.6330   70.8400  220.7750 O   0  0  0  0  0  0  0  0  0  0  0  0
  137.8680   71.4040  221.8790 C   0  0  0  0  0  0  0  0  0  0  0  0
  137.6610   72.8150  222.0290 N   0  0  0  0  0  0  0  0  0  0  0  0
  137.1890   73.5390  220.9040 C   0  0  0  0  0  0  0  0  0  0  0  0
  137.9210   74.7500  220.6110 C   0  0  0  0  0  0  0  0  0  0  0  0
  137.1940   75.6270  219.9460 O   0  0  0  0  0  0  0  0  0  0  0  0
  139.2160   75.1750  220.8760 N   0  0  0  0  0  0  0  0  0  0  0  0
  139.8420   76.3190  221.4840 C   0  0  0  0  0  0  0  0  0  0  0  0
  140.9270   76.7160  220.4810 C   0  0  1  0  0  0  0  0  0  0  0  0
  141.8840   77.4880  221.0840 F   0  0  0  0  0  0  0  0  0  0  0  0
  141.4890   75.3360  220.1600 C   0  0  0  0  0  0  0  0  0  0  0  0
  140.4000   74.3620  220.4520 C   0  0  1  0  0  0  0  0  0  0  0  0
  140.7450   73.4760  221.5980 C   0  0  0  0  0  0  0  0  0  0  0  0
  139.9540   73.7500  222.7180 O   0  0  0  0  0  0  0  0  0  0  0  0
  138.3590   70.6460  223.0440 C   0  0  0  0  0  0  0  0  0  0  0  0
  138.0410   69.3310  223.1870 C   0  0  0  0  0  0  0  0  0  0  0  0
  138.4850   68.5890  224.2690 C   0  0  0  0  0  0  0  0  0  0  0  0
  139.2760   69.2160  225.2280 C   0  0  0  0  0  0  0  0  0  0  0  0
  139.7420   68.5200  226.3230 C   0  0  0  0  0  0  0  0  0  0  0  0
  140.5200   69.1930  227.2400 C   0  0  0  0  0  0  0  0  0  0  0  0
  141.1750   68.4270  228.6720 Cl  0  0  0  0  0  0  0  0  0  0  0  0
  140.8060   70.5250  227.0360 C   0  0  0  0  0  0  0  0  0  0  0  0
  140.3440   71.2160  225.9510 C   0  0  0  0  0  0  0  0  0  0  0  0
  139.5660   70.5480  225.0330 C   0  0  0  0  0  0  0  0  0  0  0  0
  139.1240   71.2360  223.9790 N   0  0  0  0  0  0  0  0  0  0  0  0
  137.8720   73.2360  222.9670 H   0  0  0  0  0  0  0  0  0  0  0  0
  137.2494   72.8815  220.0242 H   0  0  0  0  0  0  0  0  0  0  0  0
  136.1615   73.8493  221.1448 H   0  0  0  0  0  0  0  0  0  0  0  0
  139.1177   77.1353  221.6216 H   0  0  0  0  0  0  0  0  0  0  0  0
  140.2454   76.1023  222.4841 H   0  0  0  0  0  0  0  0  0  0  0  0
  140.5777   77.3020  219.6181 H   0  0  0  0  0  0  0  0  0  0  0  0
  141.7765   75.2791  219.0998 H   0  0  0  0  0  0  0  0  0  0  0  0
  142.3875   75.1217  220.7573 H   0  0  0  0  0  0  0  0  0  0  0  0
  140.2217   73.7382  219.5637 H   0  0  0  0  0  0  0  0  0  0  0  0
  140.5895   72.4289  221.2989 H   0  0  0  0  0  0  0  0  0  0  0  0
  141.7962   73.6562  221.8673 H   0  0  0  0  0  0  0  0  0  0  0  0
  139.5820   72.9450  223.1250 H   0  0  0  0  0  0  0  0  0  0  0  0
  137.4154   68.8447  222.4240 H   0  0  0  0  0  0  0  0  0  0  0  0
  138.2182   67.5265  224.3686 H   0  0  0  0  0  0  0  0  0  0  0  0
  139.4993   67.4560  226.4610 H   0  0  0  0  0  0  0  0  0  0  0  0
  141.4292   71.0520  227.7735 H   0  0  0  0  0  0  0  0  0  0  0  0
  140.5880   72.2799  225.8148 H   0  0  0  0  0  0  0  0  0  0  0  0
  1  2  2  0
  2  3  1  0
  3  4  1  0
  4  5  1  0
  5  6  2  0
  5  7  1  0
  7  8  1  0
  8  9  1  0
  9 10  1  0
  9 11  1  0
 11 12  1  0
 12 13  1  0
 13 14  1  0
  2 15  1  0
 15 16  2  0
 16 17  1  0
 17 18  2  0
 18 19  1  0
 19 20  2  0
 20 21  1  0
 20 22  1  0
 22 23  2  0
 23 24  1  0
 24 25  2  0
 12  7  1  0
 25 15  1  0
 24 18  1  0
  3 26  1  0
  4 27  1  0
  4 28  1  0
  8 29  1  0
  8 30  1  0
  9 31  1  6
 11 32  1  0
 11 33  1  0
 12 34  1  6
 13 35  1  0
 13 36  1  0
 14 37  1  0
 16 38  1  0
 17 39  1  0
 19 40  1  0
 22 41  1  0
 23 42  1  0
M  END
>  <smiles>  (44) 
O=C(NCC(=O)N1C[C@@H](F)C[C@H]1CO)c1ccc2cc(Cl)ccc2n1

>  <score_type>  (44) 
oracle

>  <origin>  (44) 
autodockgpu

>  <m_score__min__energy>  (44) 
-7.0099999999999998

>  <m_primary>  (44) 
energy

>  <rmsd>  (44) 
2.1662041114482316

>  <m_score__min__rmsd>  (44) 
2.1662041114482316

>  <meeko>  (44) 
{"free_energy": -5.76, "intermolecular_energy": -7.55, "internal_energy": -2.68, "cluster_size": 15, "cluster_id": 1, "rank_in_cluster": 14}

>  <energy>  (44) 
-5.94

>  <cluster_rmsd>  (44) 
0.0

>  <cluster>  (44) 
6

$$$$

     RDKit          3D

 42 44  0  0  0  0  0  0  0  0999 V2000
  137.6960   70.8970  220.8200 O   0  0  0  0  0  0  0  0  0  0  0  0
  137.9060   71.4270  221.9450 C   0  0  0  0  0  0  0  0  0  0  0  0
  137.6930   72.8320  222.1350 N   0  0  0  0  0  0  0  0  0  0  0  0
  137.2450   73.5900  221.0230 C   0  0  0  0  0  0  0  0  0  0  0  0
  138.0910   74.7060  220.6680 C   0  0  0  0  0  0  0  0  0  0  0  0
  137.3960   75.7890  220.3750 O   0  0  0  0  0  0  0  0  0  0  0  0
  139.4660   74.8730  220.5680 N   0  0  0  0  0  0  0  0  0  0  0  0
  140.3940   75.9720  220.5700 C   0  0  0  0  0  0  0  0  0  0  0  0
  141.2900   75.6940  219.3620 C   0  0  1  0  0  0  0  0  0  0  0  0
  142.4720   76.3780  219.4690 F   0  0  0  0  0  0  0  0  0  0  0  0
  141.5270   74.2020  219.5630 C   0  0  0  0  0  0  0  0  0  0  0  0
  140.3750   73.7000  220.3630 C   0  0  1  0  0  0  0  0  0  0  0  0
  140.8000   73.2470  221.7170 C   0  0  0  0  0  0  0  0  0  0  0  0
  139.9580   73.7440  222.7160 O   0  0  0  0  0  0  0  0  0  0  0  0
  138.3730   70.6330  223.0970 C   0  0  0  0  0  0  0  0  0  0  0  0
  138.0470   69.3160  223.1960 C   0  0  0  0  0  0  0  0  0  0  0  0
  138.4680   68.5420  224.2650 C   0  0  0  0  0  0  0  0  0  0  0  0
  139.2440   69.1380  225.2550 C   0  0  0  0  0  0  0  0  0  0  0  0
  139.6870   68.4080  226.3390 C   0  0  0  0  0  0  0  0  0  0  0  0
  140.4510   69.0510  227.2870 C   0  0  0  0  0  0  0  0  0  0  0  0
  141.0780   68.2410  228.7090 Cl  0  0  0  0  0  0  0  0  0  0  0  0
  140.7460   70.3870  227.1270 C   0  0  0  0  0  0  0  0  0  0  0  0
  140.3070   71.1100  226.0540 C   0  0  0  0  0  0  0  0  0  0  0  0
  139.5440   70.4730  225.1040 C   0  0  0  0  0  0  0  0  0  0  0  0
  139.1230   71.1930  224.0610 N   0  0  0  0  0  0  0  0  0  0  0  0
  137.8830   73.2240  223.0900 H   0  0  0  0  0  0  0  0  0  0  0  0
  137.1827   72.9183  220.1541 H   0  0  0  0  0  0  0  0  0  0  0  0
  136.2739   74.0183  221.3122 H   0  0  0  0  0  0  0  0  0  0  0  0
  139.8668   76.9305  220.4547 H   0  0  0  0  0  0  0  0  0  0  0  0
  140.9593   76.0501  221.5104 H   0  0  0  0  0  0  0  0  0  0  0  0
  140.8687   75.9842  218.3882 H   0  0  0  0  0  0  0  0  0  0  0  0
  141.5684   73.6885  218.5911 H   0  0  0  0  0  0  0  0  0  0  0  0
  142.4820   74.0143  220.0756 H   0  0  0  0  0  0  0  0  0  0  0  0
  139.9072   72.8552  219.8363 H   0  0  0  0  0  0  0  0  0  0  0  0
  140.7796   72.1476  221.7479 H   0  0  0  0  0  0  0  0  0  0  0  0
  141.8151   73.6277  221.9032 H   0  0  0  0  0  0  0  0  0  0  0  0
  139.6040   73.0450  223.2960 H   0  0  0  0  0  0  0  0  0  0  0  0
  137.4340   68.8543  222.4079 H   0  0  0  0  0  0  0  0  0  0  0  0
  138.1947   67.4785  224.3301 H   0  0  0  0  0  0  0  0  0  0  0  0
  139.4367   67.3419  226.4429 H   0  0  0  0  0  0  0  0  0  0  0  0
  141.3572   70.8900  227.8908 H   0  0  0  0  0  0  0  0  0  0  0  0
  140.5580   72.1762  225.9526 H   0  0  0  0  0  0  0  0  0  0  0  0
  1  2  2  0
  2  3  1  0
  3  4  1  0
  4  5  1  0
  5  6  2  0
  5  7  1  0
  7  8  1  0
  8  9  1  0
  9 10  1  0
  9 11  1  0
 11 12  1  0
 12 13  1  0
 13 14  1  0
  2 15  1  0
 15 16  2  0
 16 17  1  0
 17 18  2  0
 18 19  1  0
 19 20  2  0
 20 21  1  0
 20 22  1  0
 22 23  2  0
 23 24  1  0
 24 25  2  0
 12  7  1  0
 25 15  1  0
 24 18  1  0
  3 26  1  0
  4 27  1  0
  4 28  1  0
  8 29  1  0
  8 30  1  0
  9 31  1  6
 11 32  1  0
 11 33  1  0
 12 34  1  6
 13 35  1  0
 13 36  1  0
 14 37  1  0
 16 38  1  0
 17 39  1  0
 19 40  1  0
 22 41  1  0
 23 42  1  0
M  END
>  <smiles>  (45) 
O=C(NCC(=O)N1C[C@@H](F)C[C@H]1CO)c1ccc2cc(Cl)ccc2n1

>  <score_type>  (45) 
oracle

>  <origin>  (45) 
autodockgpu

>  <m_score__min__energy>  (45) 
-7.0099999999999998

>  <m_primary>  (45) 
energy

>  <rmsd>  (45) 
2.1329148959185513

>  <m_score__min__rmsd>  (45) 
2.1329148959185513

>  <meeko>  (45) 
{"free_energy": -5.67, "intermolecular_energy": -7.46, "internal_energy": -2.68, "cluster_size": 6, "cluster_id": 5, "rank_in_cluster": 4}

>  <energy>  (45) 
-5.93

>  <cluster_rmsd>  (45) 
0.18

>  <cluster>  (45) 
6

$$$$

     RDKit          3D

 42 44  0  0  0  0  0  0  0  0999 V2000
  139.9380   69.9250  222.5170 O   0  0  0  0  0  0  0  0  0  0  0  0
  139.5390   71.0790  222.8350 C   0  0  0  0  0  0  0  0  0  0  0  0
  138.4860   71.2430  223.7940 N   0  0  0  0  0  0  0  0  0  0  0  0
  137.9200   70.0730  224.3610 C   0  0  0  0  0  0  0  0  0  0  0  0
  138.8600   69.2120  225.0420 C   0  0  0  0  0  0  0  0  0  0  0  0
  138.8230   67.9730  224.5910 O   0  0  0  0  0  0  0  0  0  0  0  0
  139.7800   69.4150  226.0620 N   0  0  0  0  0  0  0  0  0  0  0  0
  140.7080   68.6130  226.8150 C   0  0  0  0  0  0  0  0  0  0  0  0
  140.4310   69.0040  228.2680 C   0  0  1  0  0  0  0  0  0  0  0  0
  141.4950   68.6790  229.0670 F   0  0  0  0  0  0  0  0  0  0  0  0
  140.3370   70.5170  228.1070 C   0  0  0  0  0  0  0  0  0  0  0  0
  139.9570   70.7640  226.6880 C   0  0  1  0  0  0  0  0  0  0  0  0
  141.0480   71.4450  225.9350 C   0  0  0  0  0  0  0  0  0  0  0  0
  141.6180   70.6020  224.9770 O   0  0  0  0  0  0  0  0  0  0  0  0
  140.1310   72.2910  222.2400 C   0  0  0  0  0  0  0  0  0  0  0  0
  141.2440   72.1960  221.4610 C   0  0  0  0  0  0  0  0  0  0  0  0
  141.8260   73.3150  220.8880 C   0  0  0  0  0  0  0  0  0  0  0  0
  141.2500   74.5610  221.1200 C   0  0  0  0  0  0  0  0  0  0  0  0
  141.7940   75.7030  220.5710 C   0  0  0  0  0  0  0  0  0  0  0  0
  141.1810   76.9080  220.8370 C   0  0  0  0  0  0  0  0  0  0  0  0
  141.7680   78.4310  220.2010 Cl  0  0  0  0  0  0  0  0  0  0  0  0
  140.0570   76.9350  221.6330 C   0  0  0  0  0  0  0  0  0  0  0  0
  139.5190   75.8030  222.1770 C   0  0  0  0  0  0  0  0  0  0  0  0
  140.1270   74.5970  221.9150 C   0  0  0  0  0  0  0  0  0  0  0  0
  139.5880   73.5010  222.4540 N   0  0  0  0  0  0  0  0  0  0  0  0
  138.1910   72.2240  224.0230 H   0  0  0  0  0  0  0  0  0  0  0  0
  137.1519   70.3813  225.0855 H   0  0  0  0  0  0  0  0  0  0  0  0
  137.5163   69.4873  223.5220 H   0  0  0  0  0  0  0  0  0  0  0  0
  140.5198   67.5411  226.6547 H   0  0  0  0  0  0  0  0  0  0  0  0
  141.7541   68.7826  226.5204 H   0  0  0  0  0  0  0  0  0  0  0  0
  139.5582   68.5174  228.7277 H   0  0  0  0  0  0  0  0  0  0  0  0
  139.5711   70.9250  228.7829 H   0  0  0  0  0  0  0  0  0  0  0  0
  141.2906   71.0054  228.3562 H   0  0  0  0  0  0  0  0  0  0  0  0
  139.0568   71.3955  226.6576 H   0  0  0  0  0  0  0  0  0  0  0  0
  140.6341   72.3303  225.4300 H   0  0  0  0  0  0  0  0  0  0  0  0
  141.8326   71.7310  226.6510 H   0  0  0  0  0  0  0  0  0  0  0  0
  140.9530   70.1470  224.4290 H   0  0  0  0  0  0  0  0  0  0  0  0
  141.6916   71.2072  221.2825 H   0  0  0  0  0  0  0  0  0  0  0  0
  142.7256   73.2208  220.2620 H   0  0  0  0  0  0  0  0  0  0  0  0
  142.6924   75.6534  219.9382 H   0  0  0  0  0  0  0  0  0  0  0  0
  139.5754   77.9025  221.8380 H   0  0  0  0  0  0  0  0  0  0  0  0
  138.6207   75.8547  222.8097 H   0  0  0  0  0  0  0  0  0  0  0  0
  1  2  2  0
  2  3  1  0
  3  4  1  0
  4  5  1  0
  5  6  2  0
  5  7  1  0
  7  8  1  0
  8  9  1  0
  9 10  1  0
  9 11  1  0
 11 12  1  0
 12 13  1  0
 13 14  1  0
  2 15  1  0
 15 16  2  0
 16 17  1  0
 17 18  2  0
 18 19  1  0
 19 20  2  0
 20 21  1  0
 20 22  1  0
 22 23  2  0
 23 24  1  0
 24 25  2  0
 12  7  1  0
 25 15  1  0
 24 18  1  0
  3 26  1  0
  4 27  1  0
  4 28  1  0
  8 29  1  0
  8 30  1  0
  9 31  1  1
 11 32  1  0
 11 33  1  0
 12 34  1  1
 13 35  1  0
 13 36  1  0
 14 37  1  0
 16 38  1  0
 17 39  1  0
 19 40  1  0
 22 41  1  0
 23 42  1  0
M  END
>  <smiles>  (46) 
O=C(NCC(=O)N1C[C@@H](F)C[C@H]1CO)c1ccc2cc(Cl)ccc2n1

>  <score_type>  (46) 
oracle

>  <origin>  (46) 
autodockgpu

>  <m_score__min__energy>  (46) 
-7.0099999999999998

>  <m_primary>  (46) 
energy

>  <rmsd>  (46) 
8.229198711095094

>  <m_score__min__rmsd>  (46) 
8.229198711095094

>  <meeko>  (46) 
{"free_energy": -6.36, "intermolecular_energy": -8.15, "internal_energy": -2.3, "cluster_size": 20, "cluster_id": 2, "rank_in_cluster": 11}

>  <energy>  (46) 
-5.92

>  <cluster_rmsd>  (46) 
0.16

>  <cluster>  (46) 
6

$$$$

     RDKit          3D

 42 44  0  0  0  0  0  0  0  0999 V2000
  139.9560   70.0720  222.4270 O   0  0  0  0  0  0  0  0  0  0  0  0
  139.5300   71.2210  222.7240 C   0  0  0  0  0  0  0  0  0  0  0  0
  138.4400   71.3740  223.6440 N   0  0  0  0  0  0  0  0  0  0  0  0
  137.8720   70.1990  224.1980 C   0  0  0  0  0  0  0  0  0  0  0  0
  138.6620   69.5710  225.2320 C   0  0  0  0  0  0  0  0  0  0  0  0
  138.4010   68.2840  225.3520 O   0  0  0  0  0  0  0  0  0  0  0  0
  139.6240   70.0380  226.1190 N   0  0  0  0  0  0  0  0  0  0  0  0
  139.7160   70.2890  227.5320 C   0  0  0  0  0  0  0  0  0  0  0  0
  140.3200   71.6930  227.6130 C   0  0  1  0  0  0  0  0  0  0  0  0
  140.8750   71.9100  228.8460 F   0  0  0  0  0  0  0  0  0  0  0  0
  141.4150   71.5560  226.5610 C   0  0  0  0  0  0  0  0  0  0  0  0
  140.9740   70.4730  225.6370 C   0  0  1  0  0  0  0  0  0  0  0  0
  141.8630   69.2810  225.7200 C   0  0  0  0  0  0  0  0  0  0  0  0
  141.1560   68.1340  226.0950 O   0  0  0  0  0  0  0  0  0  0  0  0
  140.1250   72.4390  222.1430 C   0  0  0  0  0  0  0  0  0  0  0  0
  141.2400   72.3510  221.3680 C   0  0  0  0  0  0  0  0  0  0  0  0
  141.8250   73.4750  220.8080 C   0  0  0  0  0  0  0  0  0  0  0  0
  141.2490   74.7190  221.0510 C   0  0  0  0  0  0  0  0  0  0  0  0
  141.7950   75.8660  220.5150 C   0  0  0  0  0  0  0  0  0  0  0  0
  141.1820   77.0690  220.7910 C   0  0  0  0  0  0  0  0  0  0  0  0
  141.7720   78.5980  220.1730 Cl  0  0  0  0  0  0  0  0  0  0  0  0
  140.0560   77.0880  221.5830 C   0  0  0  0  0  0  0  0  0  0  0  0
  139.5140   75.9520  222.1150 C   0  0  0  0  0  0  0  0  0  0  0  0
  140.1230   74.7480  221.8430 C   0  0  0  0  0  0  0  0  0  0  0  0
  139.5820   73.6470  222.3680 N   0  0  0  0  0  0  0  0  0  0  0  0
  138.1220   72.3510  223.8570 H   0  0  0  0  0  0  0  0  0  0  0  0
  136.8939   70.4618  224.6273 H   0  0  0  0  0  0  0  0  0  0  0  0
  137.8050   69.4713  223.3758 H   0  0  0  0  0  0  0  0  0  0  0  0
  138.7212   70.2624  228.0006 H   0  0  0  0  0  0  0  0  0  0  0  0
  140.3180   69.5350  228.0604 H   0  0  0  0  0  0  0  0  0  0  0  0
  139.6104   72.5194  227.4597 H   0  0  0  0  0  0  0  0  0  0  0  0
  141.5349   72.5009  226.0107 H   0  0  0  0  0  0  0  0  0  0  0  0
  142.3849   71.3179  227.0221 H   0  0  0  0  0  0  0  0  0  0  0  0
  140.9827   70.8501  224.6037 H   0  0  0  0  0  0  0  0  0  0  0  0
  142.3233   69.1102  224.7356 H   0  0  0  0  0  0  0  0  0  0  0  0
  142.6292   69.4770  226.4845 H   0  0  0  0  0  0  0  0  0  0  0  0
  140.5050   67.8560  225.4260 H   0  0  0  0  0  0  0  0  0  0  0  0
  141.6876   71.3636  221.1817 H   0  0  0  0  0  0  0  0  0  0  0  0
  142.7265   73.3864  220.1839 H   0  0  0  0  0  0  0  0  0  0  0  0
  142.6952   75.8220  219.8844 H   0  0  0  0  0  0  0  0  0  0  0  0
  139.5746   78.0539  221.7955 H   0  0  0  0  0  0  0  0  0  0  0  0
  138.6135   75.9986  222.7450 H   0  0  0  0  0  0  0  0  0  0  0  0
  1  2  2  0
  2  3  1  0
  3  4  1  0
  4  5  1  0
  5  6  2  0
  5  7  1  0
  7  8  1  0
  8  9  1  0
  9 10  1  0
  9 11  1  0
 11 12  1  0
 12 13  1  0
 13 14  1  0
  2 15  1  0
 15 16  2  0
 16 17  1  0
 17 18  2  0
 18 19  1  0
 19 20  2  0
 20 21  1  0
 20 22  1  0
 22 23  2  0
 23 24  1  0
 24 25  2  0
 12  7  1  0
 25 15  1  0
 24 18  1  0
  3 26  1  0
  4 27  1  0
  4 28  1  0
  8 29  1  0
  8 30  1  0
  9 31  1  6
 11 32  1  0
 11 33  1  0
 12 34  1  6
 13 35  1  0
 13 36  1  0
 14 37  1  0
 16 38  1  0
 17 39  1  0
 19 40  1  0
 22 41  1  0
 23 42  1  0
M  END
>  <smiles>  (47) 
O=C(NCC(=O)N1C[C@@H](F)C[C@H]1CO)c1ccc2cc(Cl)ccc2n1

>  <score_type>  (47) 
oracle

>  <origin>  (47) 
autodockgpu

>  <m_score__min__energy>  (47) 
-7.0099999999999998

>  <m_primary>  (47) 
energy

>  <rmsd>  (47) 
7.810781286305475

>  <m_score__min__rmsd>  (47) 
7.810781286305475

>  <meeko>  (47) 
{"free_energy": -5.99, "intermolecular_energy": -7.78, "internal_energy": -2.36, "cluster_size": 20, "cluster_id": 2, "rank_in_cluster": 17}

>  <energy>  (47) 
-5.65

>  <cluster_rmsd>  (47) 
0.0

>  <cluster>  (47) 
7

$$$$

     RDKit          3D

 42 44  0  0  0  0  0  0  0  0999 V2000
  140.1480   72.2680  220.6320 O   0  0  0  0  0  0  0  0  0  0  0  0
  139.9500   72.6510  221.8180 C   0  0  0  0  0  0  0  0  0  0  0  0
  139.7230   74.0370  222.1030 N   0  0  0  0  0  0  0  0  0  0  0  0
  139.7290   74.9460  221.0140 C   0  0  0  0  0  0  0  0  0  0  0  0
  141.0370   75.4280  220.6320 C   0  0  0  0  0  0  0  0  0  0  0  0
  141.2000   76.7080  220.9100 O   0  0  0  0  0  0  0  0  0  0  0  0
  142.1420   74.8330  220.0380 N   0  0  0  0  0  0  0  0  0  0  0  0
  142.4270   73.6060  219.3440 C   0  0  0  0  0  0  0  0  0  0  0  0
  143.6960   73.0890  220.0230 C   0  0  1  0  0  0  0  0  0  0  0  0
  144.3430   72.1880  219.2190 F   0  0  0  0  0  0  0  0  0  0  0  0
  144.4880   74.3900  220.0960 C   0  0  0  0  0  0  0  0  0  0  0  0
  143.4860   75.4920  220.0680 C   0  0  1  0  0  0  0  0  0  0  0  0
  143.5930   76.3040  218.8240 C   0  0  0  0  0  0  0  0  0  0  0  0
  142.9870   77.5560  218.9700 O   0  0  0  0  0  0  0  0  0  0  0  0
  139.9470   71.7000  222.9450 C   0  0  0  0  0  0  0  0  0  0  0  0
  139.3980   70.4640  222.7940 C   0  0  0  0  0  0  0  0  0  0  0  0
  139.3770   69.5470  223.8320 C   0  0  0  0  0  0  0  0  0  0  0  0
  139.9340   69.9110  225.0550 C   0  0  0  0  0  0  0  0  0  0  0  0
  139.9370   69.0320  226.1190 C   0  0  0  0  0  0  0  0  0  0  0  0
  140.5010   69.4480  227.3050 C   0  0  0  0  0  0  0  0  0  0  0  0
  140.5710   68.4320  228.7290 Cl  0  0  0  0  0  0  0  0  0  0  0  0
  141.0400   70.7130  227.3910 C   0  0  0  0  0  0  0  0  0  0  0  0
  141.0370   71.5840  226.3380 C   0  0  0  0  0  0  0  0  0  0  0  0
  140.4740   71.1740  225.1520 C   0  0  0  0  0  0  0  0  0  0  0  0
  140.4790   72.0350  224.1320 N   0  0  0  0  0  0  0  0  0  0  0  0
  139.5650   74.3040  223.1050 H   0  0  0  0  0  0  0  0  0  0  0  0
  139.2835   74.4407  220.1444 H   0  0  0  0  0  0  0  0  0  0  0  0
  139.1593   75.8272  221.3440 H   0  0  0  0  0  0  0  0  0  0  0  0
  141.6007   72.8892  219.4599 H   0  0  0  0  0  0  0  0  0  0  0  0
  142.5525   73.7494  218.2606 H   0  0  0  0  0  0  0  0  0  0  0  0
  143.5384   72.5696  220.9798 H   0  0  0  0  0  0  0  0  0  0  0  0
  145.0711   74.4291  221.0279 H   0  0  0  0  0  0  0  0  0  0  0  0
  145.1974   74.4735  219.2595 H   0  0  0  0  0  0  0  0  0  0  0  0
  143.6448   76.1500  220.9351 H   0  0  0  0  0  0  0  0  0  0  0  0
  144.6565   76.4486  218.5830 H   0  0  0  0  0  0  0  0  0  0  0  0
  143.0758   75.7646  218.0168 H   0  0  0  0  0  0  0  0  0  0  0  0
  142.8400   77.7980  219.9030 H   0  0  0  0  0  0  0  0  0  0  0  0
  138.9601   70.1863  221.8239 H   0  0  0  0  0  0  0  0  0  0  0  0
  138.9295   68.5518  223.6929 H   0  0  0  0  0  0  0  0  0  0  0  0
  139.5009   68.0267  226.0227 H   0  0  0  0  0  0  0  0  0  0  0  0
  141.4893   71.0337  228.3424 H   0  0  0  0  0  0  0  0  0  0  0  0
  141.4742   72.5886  226.4365 H   0  0  0  0  0  0  0  0  0  0  0  0
  1  2  2  0
  2  3  1  0
  3  4  1  0
  4  5  1  0
  5  6  2  0
  5  7  1  0
  7  8  1  0
  8  9  1  0
  9 10  1  0
  9 11  1  0
 11 12  1  0
 12 13  1  0
 13 14  1  0
  2 15  1  0
 15 16  2  0
 16 17  1  0
 17 18  2  0
 18 19  1  0
 19 20  2  0
 20 21  1  0
 20 22  1  0
 22 23  2  0
 23 24  1  0
 24 25  2  0
 12  7  1  0
 25 15  1  0
 24 18  1  0
  3 26  1  0
  4 27  1  0
  4 28  1  0
  8 29  1  0
  8 30  1  0
  9 31  1  1
 11 32  1  0
 11 33  1  0
 12 34  1  1
 13 35  1  0
 13 36  1  0
 14 37  1  0
 16 38  1  0
 17 39  1  0
 19 40  1  0
 22 41  1  0
 23 42  1  0
M  END
>  <smiles>  (48) 
O=C(NCC(=O)N1C[C@@H](F)C[C@H]1CO)c1ccc2cc(Cl)ccc2n1

>  <score_type>  (48) 
oracle

>  <origin>  (48) 
autodockgpu

>  <m_score__min__energy>  (48) 
-7.0099999999999998

>  <m_primary>  (48) 
energy

>  <rmsd>  (48) 
2.77383189563287

>  <m_score__min__rmsd>  (48) 
2.77383189563287

>  <meeko>  (48) 
{"free_energy": -6.35, "intermolecular_energy": -8.14, "internal_energy": -1.92, "cluster_size": 6, "cluster_id": 5, "rank_in_cluster": 2}

>  <energy>  (48) 
-5.63

>  <cluster_rmsd>  (48) 
0.13

>  <cluster>  (48) 
7

$$$$

     RDKit          3D

 42 44  0  0  0  0  0  0  0  0999 V2000
  139.6330   69.8600  222.0230 O   0  0  0  0  0  0  0  0  0  0  0  0
  139.5500   70.9410  222.6690 C   0  0  0  0  0  0  0  0  0  0  0  0
  138.8640   70.9810  223.9280 N   0  0  0  0  0  0  0  0  0  0  0  0
  138.2910   69.7750  224.4080 C   0  0  0  0  0  0  0  0  0  0  0  0
  139.2130   68.8950  225.0890 C   0  0  0  0  0  0  0  0  0  0  0  0
  139.1840   67.6680  224.6060 O   0  0  0  0  0  0  0  0  0  0  0  0
  140.1080   69.0690  226.1370 N   0  0  0  0  0  0  0  0  0  0  0  0
  141.0590   68.2590  226.8510 C   0  0  0  0  0  0  0  0  0  0  0  0
  140.7440   68.5400  228.3210 C   0  0  1  0  0  0  0  0  0  0  0  0
  141.8100   68.2090  229.1160 F   0  0  0  0  0  0  0  0  0  0  0  0
  140.5860   70.0550  228.2590 C   0  0  0  0  0  0  0  0  0  0  0  0
  140.2160   70.3800  226.8530 C   0  0  1  0  0  0  0  0  0  0  0  0
  141.2860   71.1560  226.1660 C   0  0  0  0  0  0  0  0  0  0  0  0
  140.7550   72.1810  225.3770 O   0  0  0  0  0  0  0  0  0  0  0  0
  140.1470   72.1900  222.1630 C   0  0  0  0  0  0  0  0  0  0  0  0
  141.2900   72.1520  221.4270 C   0  0  0  0  0  0  0  0  0  0  0  0
  141.8780   73.3070  220.9370 C   0  0  0  0  0  0  0  0  0  0  0  0
  141.2740   74.5310  221.2110 C   0  0  0  0  0  0  0  0  0  0  0  0
  141.8210   75.7080  220.7440 C   0  0  0  0  0  0  0  0  0  0  0  0
  141.1800   76.8890  221.0480 C   0  0  0  0  0  0  0  0  0  0  0  0
  141.7680   78.4510  220.5170 Cl  0  0  0  0  0  0  0  0  0  0  0  0
  140.0250   76.8580  221.7980 C   0  0  0  0  0  0  0  0  0  0  0  0
  139.4820   75.6920  222.2610 C   0  0  0  0  0  0  0  0  0  0  0  0
  140.1190   74.5100  221.9610 C   0  0  0  0  0  0  0  0  0  0  0  0
  139.5770   73.3800  222.4190 N   0  0  0  0  0  0  0  0  0  0  0  0
  138.8220   71.9040  224.4250 H   0  0  0  0  0  0  0  0  0  0  0  0
  137.4845   70.0348  225.1095 H   0  0  0  0  0  0  0  0  0  0  0  0
  137.9364   69.2268  223.5227 H   0  0  0  0  0  0  0  0  0  0  0  0
  140.9202   67.1932  226.6170 H   0  0  0  0  0  0  0  0  0  0  0  0
  142.1009   68.4922  226.5864 H   0  0  0  0  0  0  0  0  0  0  0  0
  139.8868   67.9863  228.7317 H   0  0  0  0  0  0  0  0  0  0  0  0
  139.7932   70.3837  228.9471 H   0  0  0  0  0  0  0  0  0  0  0  0
  141.5135   70.5661  228.5565 H   0  0  0  0  0  0  0  0  0  0  0  0
  139.2895   70.9730  226.8483 H   0  0  0  0  0  0  0  0  0  0  0  0
  141.9496   71.5970  226.9244 H   0  0  0  0  0  0  0  0  0  0  0  0
  141.8402   70.4693  225.5092 H   0  0  0  0  0  0  0  0  0  0  0  0
  140.8160   71.9940  224.4220 H   0  0  0  0  0  0  0  0  0  0  0  0
  141.7594   71.1800  221.2154 H   0  0  0  0  0  0  0  0  0  0  0  0
  142.8030   73.2578  220.3437 H   0  0  0  0  0  0  0  0  0  0  0  0
  142.7438   75.7038  220.1453 H   0  0  0  0  0  0  0  0  0  0  0  0
  139.5208   77.8069  222.0331 H   0  0  0  0  0  0  0  0  0  0  0  0
  138.5585   75.6986  222.8587 H   0  0  0  0  0  0  0  0  0  0  0  0
  1  2  2  0
  2  3  1  0
  3  4  1  0
  4  5  1  0
  5  6  2  0
  5  7  1  0
  7  8  1  0
  8  9  1  0
  9 10  1  0
  9 11  1  0
 11 12  1  0
 12 13  1  0
 13 14  1  0
  2 15  1  0
 15 16  2  0
 16 17  1  0
 17 18  2  0
 18 19  1  0
 19 20  2  0
 20 21  1  0
 20 22  1  0
 22 23  2  0
 23 24  1  0
 24 25  2  0
 12  7  1  0
 25 15  1  0
 24 18  1  0
  3 26  1  0
  4 27  1  0
  4 28  1  0
  8 29  1  0
  8 30  1  0
  9 31  1  1
 11 32  1  0
 11 33  1  0
 12 34  1  1
 13 35  1  0
 13 36  1  0
 14 37  1  0
 16 38  1  0
 17 39  1  0
 19 40  1  0
 22 41  1  0
 23 42  1  0
M  END
>  <smiles>  (49) 
O=C(NCC(=O)N1C[C@@H](F)C[C@H]1CO)c1ccc2cc(Cl)ccc2n1

>  <score_type>  (49) 
oracle

>  <origin>  (49) 
autodockgpu

>  <m_score__min__energy>  (49) 
-7.0099999999999998

>  <m_primary>  (49) 
energy

>  <rmsd>  (49) 
8.371311015264316

>  <m_score__min__rmsd>  (49) 
8.371311015264316

>  <meeko>  (49) 
{"free_energy": -6.41, "intermolecular_energy": -8.2, "internal_energy": -2.16, "cluster_size": 20, "cluster_id": 2, "rank_in_cluster": 4}

>  <energy>  (49) 
-5.51

>  <cluster_rmsd>  (49) 
0.55

>  <cluster>  (49) 
7

$$$$

     RDKit          3D

 42 44  0  0  0  0  0  0  0  0999 V2000
  140.1740   72.3490  220.7850 O   0  0  0  0  0  0  0  0  0  0  0  0
  139.9400   72.6660  221.9830 C   0  0  0  0  0  0  0  0  0  0  0  0
  139.6310   74.0230  222.3260 N   0  0  0  0  0  0  0  0  0  0  0  0
  139.6000   74.9800  221.2790 C   0  0  0  0  0  0  0  0  0  0  0  0
  140.8920   75.3170  220.7260 C   0  0  0  0  0  0  0  0  0  0  0  0
  141.3820   76.4290  221.2380 O   0  0  0  0  0  0  0  0  0  0  0  0
  141.7130   74.7220  219.7760 N   0  0  0  0  0  0  0  0  0  0  0  0
  141.7030   74.5340  218.3500 C   0  0  0  0  0  0  0  0  0  0  0  0
  142.0180   73.0470  218.1770 C   0  0  1  0  0  0  0  0  0  0  0  0
  142.4760   72.7930  216.9110 F   0  0  0  0  0  0  0  0  0  0  0  0
  143.1560   72.9130  219.1830 C   0  0  0  0  0  0  0  0  0  0  0  0
  142.9680   74.0090  220.1740 C   0  0  1  0  0  0  0  0  0  0  0  0
  144.0690   75.0100  220.1050 C   0  0  0  0  0  0  0  0  0  0  0  0
  143.5760   76.3190  220.0660 O   0  0  0  0  0  0  0  0  0  0  0  0
  139.9750   71.6670  223.0670 C   0  0  0  0  0  0  0  0  0  0  0  0
  139.5080   70.4070  222.8500 C   0  0  0  0  0  0  0  0  0  0  0  0
  139.5250   69.4450  223.8460 C   0  0  0  0  0  0  0  0  0  0  0  0
  140.0360   69.7860  225.0950 C   0  0  0  0  0  0  0  0  0  0  0  0
  140.0740   68.8620  226.1180 C   0  0  0  0  0  0  0  0  0  0  0  0
  140.5900   69.2570  227.3330 C   0  0  0  0  0  0  0  0  0  0  0  0
  140.6980   68.1830  228.7120 Cl  0  0  0  0  0  0  0  0  0  0  0  0
  141.0480   70.5470  227.4860 C   0  0  0  0  0  0  0  0  0  0  0  0
  141.0100   71.4630  226.4730 C   0  0  0  0  0  0  0  0  0  0  0  0
  140.4950   71.0740  225.2580 C   0  0  0  0  0  0  0  0  0  0  0  0
  140.4650   71.9790  224.2780 N   0  0  0  0  0  0  0  0  0  0  0  0
  139.4450   74.2350  223.3370 H   0  0  0  0  0  0  0  0  0  0  0  0
  138.9748   74.5791  220.4676 H   0  0  0  0  0  0  0  0  0  0  0  0
  139.2007   75.9060  221.7184 H   0  0  0  0  0  0  0  0  0  0  0  0
  140.7161   74.7772  217.9294 H   0  0  0  0  0  0  0  0  0  0  0  0
  142.4211   75.1848  217.8296 H   0  0  0  0  0  0  0  0  0  0  0  0
  141.1663   72.3666  218.3242 H   0  0  0  0  0  0  0  0  0  0  0  0
  143.1089   71.9346  219.6835 H   0  0  0  0  0  0  0  0  0  0  0  0
  144.1366   72.9835  218.6896 H   0  0  0  0  0  0  0  0  0  0  0  0
  142.9399   73.5816  221.1872 H   0  0  0  0  0  0  0  0  0  0  0  0
  144.7100   74.8967  220.9917 H   0  0  0  0  0  0  0  0  0  0  0  0
  144.6388   74.8303  219.1814 H   0  0  0  0  0  0  0  0  0  0  0  0
  142.9880   76.5240  220.8160 H   0  0  0  0  0  0  0  0  0  0  0  0
  139.1073   70.1465  221.8593 H   0  0  0  0  0  0  0  0  0  0  0  0
  139.1424   68.4317  223.6539 H   0  0  0  0  0  0  0  0  0  0  0  0
  139.7025   67.8375  225.9681 H   0  0  0  0  0  0  0  0  0  0  0  0
  141.4596   70.8509  228.4598 H   0  0  0  0  0  0  0  0  0  0  0  0
  141.3822   72.4869  226.6252 H   0  0  0  0  0  0  0  0  0  0  0  0
  1  2  2  0
  2  3  1  0
  3  4  1  0
  4  5  1  0
  5  6  2  0
  5  7  1  0
  7  8  1  0
  8  9  1  0
  9 10  1  0
  9 11  1  0
 11 12  1  0
 12 13  1  0
 13 14  1  0
  2 15  1  0
 15 16  2  0
 16 17  1  0
 17 18  2  0
 18 19  1  0
 19 20  2  0
 20 21  1  0
 20 22  1  0
 22 23  2  0
 23 24  1  0
 24 25  2  0
 12  7  1  0
 25 15  1  0
 24 18  1  0
  3 26  1  0
  4 27  1  0
  4 28  1  0
  8 29  1  0
  8 30  1  0
  9 31  1  1
 11 32  1  0
 11 33  1  0
 12 34  1  1
 13 35  1  0
 13 36  1  0
 14 37  1  0
 16 38  1  0
 17 39  1  0
 19 40  1  0
 22 41  1  0
 23 42  1  0
M  END
>  <smiles>  (50) 
O=C(NCC(=O)N1C[C@@H](F)C[C@H]1CO)c1ccc2cc(Cl)ccc2n1

>  <score_type>  (50) 
oracle

>  <origin>  (50) 
autodockgpu

>  <m_score__min__energy>  (50) 
-7.0099999999999998

>  <m_primary>  (50) 
energy

>  <rmsd>  (50) 
2.562906889825932

>  <m_score__min__rmsd>  (50) 
2.562906889825932

>  <meeko>  (50) 
{"free_energy": -5.88, "intermolecular_energy": -7.67, "internal_energy": -2.07, "cluster_size": 6, "cluster_id": 5, "rank_in_cluster": 3}

>  <energy>  (50) 
-5.11

>  <cluster_rmsd>  (50) 
0.0

>  <cluster>  (50) 
8

$$$$
