
     RDKit          3D

 50 53  0  0  0  0  0  0  0  0999 V2000
  138.6480   71.5880  221.0090 O   0  0  0  0  0  0  0  0  0  0  0  0
  139.0510   72.0020  222.1090 C   0  0  0  0  0  0  0  0  0  0  0  0
  139.2680   73.4070  222.2560 N   0  0  0  0  0  0  0  0  0  0  0  0
  139.0220   74.3370  221.1470 C   0  0  0  0  0  0  0  0  0  0  0  0
  140.0370   75.4020  221.1470 C   0  0  0  0  0  0  0  0  0  0  0  0
  140.7820   75.4510  222.1980 O   0  0  0  0  0  0  0  0  0  0  0  0
  140.2930   76.3580  220.1700 N   0  0  0  0  0  0  0  0  0  0  0  0
  139.7380   76.0740  218.8170 C   0  0  0  0  0  0  0  0  0  0  0  0
  140.8650   76.5030  217.8830 C   0  0  0  0  0  0  0  0  0  0  0  0
  142.2280   76.3690  218.5220 C   0  0  0  0  0  0  0  0  0  0  0  0
  142.4280   77.2370  219.7460 C   0  0  0  0  0  0  0  0  0  0  0  0
  141.0430   77.5770  220.2510 C   0  0  2  0  0  0  0  0  0  0  0  0
  140.9850   78.3280  221.4920 C   0  0  0  0  0  0  0  0  0  0  0  0
  142.1330   79.0000  221.9050 C   0  0  0  0  0  0  0  0  0  0  0  0
  142.1060   79.7250  223.0860 C   0  0  0  0  0  0  0  0  0  0  0  0
  140.9300   79.7680  223.8360 C   0  0  0  0  0  0  0  0  0  0  0  0
  139.8020   79.0840  223.3910 C   0  0  0  0  0  0  0  0  0  0  0  0
  139.8510   78.3780  222.2310 N   0  0  0  0  0  0  0  0  0  0  0  0
  139.3190   71.1430  223.2600 C   0  0  0  0  0  0  0  0  0  0  0  0
  138.9260   69.8180  223.1800 C   0  0  0  0  0  0  0  0  0  0  0  0
  139.1640   68.9790  224.2520 C   0  0  0  0  0  0  0  0  0  0  0  0
  139.7850   69.4440  225.3900 C   0  0  0  0  0  0  0  0  0  0  0  0
  140.0400   68.6370  226.4790 C   0  0  0  0  0  0  0  0  0  0  0  0
  140.6710   69.1640  227.6040 C   0  0  0  0  0  0  0  0  0  0  0  0
  141.0010   68.1580  228.9890 Cl  0  0  0  0  0  0  0  0  0  0  0  0
  141.0420   70.4940  227.6280 C   0  0  0  0  0  0  0  0  0  0  0  0
  140.7910   71.3230  226.5330 C   0  0  0  0  0  0  0  0  0  0  0  0
  140.1590   70.7680  225.4230 C   0  0  0  0  0  0  0  0  0  0  0  0
  139.9210   71.5710  224.3770 N   0  0  0  0  0  0  0  0  0  0  0  0
  139.6120   73.7870  223.1800 H   0  0  0  0  0  0  0  0  0  0  0  0
  139.0698   73.7886  220.1946 H   0  0  0  0  0  0  0  0  0  0  0  0
  138.0262   74.7881  221.2690 H   0  0  0  0  0  0  0  0  0  0  0  0
  139.5135   75.0036  218.6991 H   0  0  0  0  0  0  0  0  0  0  0  0
  138.7907   76.5973  218.6200 H   0  0  0  0  0  0  0  0  0  0  0  0
  140.8347   75.8739  216.9812 H   0  0  0  0  0  0  0  0  0  0  0  0
  140.7123   77.5650  217.6402 H   0  0  0  0  0  0  0  0  0  0  0  0
  142.3687   75.3188  218.8172 H   0  0  0  0  0  0  0  0  0  0  0  0
  142.9618   76.7037  217.7740 H   0  0  0  0  0  0  0  0  0  0  0  0
  142.9906   76.6880  220.5154 H   0  0  0  0  0  0  0  0  0  0  0  0
  143.0017   78.1442  219.5055 H   0  0  0  0  0  0  0  0  0  0  0  0
  140.5627   78.3374  219.6177 H   0  0  0  0  0  0  0  0  0  0  0  0
  143.0510   78.9558  221.3005 H   0  0  0  0  0  0  0  0  0  0  0  0
  143.0031   80.2614  223.4288 H   0  0  0  0  0  0  0  0  0  0  0  0
  140.8944   80.3400  224.7749 H   0  0  0  0  0  0  0  0  0  0  0  0
  138.8721   79.1150  223.9778 H   0  0  0  0  0  0  0  0  0  0  0  0
  138.4305   69.4378  222.2745 H   0  0  0  0  0  0  0  0  0  0  0  0
  138.8532   67.9253  224.1956 H   0  0  0  0  0  0  0  0  0  0  0  0
  139.7452   67.5774  226.4594 H   0  0  0  0  0  0  0  0  0  0  0  0
  141.5403   70.9043  228.5187 H   0  0  0  0  0  0  0  0  0  0  0  0
  141.0838   72.3832  226.5466 H   0  0  0  0  0  0  0  0  0  0  0  0
  1  2  2  0
  2  3  1  0
  3  4  1  0
  4  5  1  0
  5  6  2  0
  5  7  1  0
  7  8  1  0
  8  9  1  0
  9 10  1  0
 10 11  1  0
 11 12  1  0
 12 13  1  0
 13 14  2  0
 14 15  1  0
 15 16  2  0
 16 17  1  0
 17 18  2  0
  2 19  1  0
 19 20  2  0
 20 21  1  0
 21 22  2  0
 22 23  1  0
 23 24  2  0
 24 25  1  0
 24 26  1  0
 26 27  2  0
 27 28  1  0
 28 29  2  0
 12  7  1  0
 18 13  1  0
 29 19  1  0
 28 22  1  0
  3 30  1  0
  4 31  1  0
  4 32  1  0
  8 33  1  0
  8 34  1  0
  9 35  1  0
  9 36  1  0
 10 37  1  0
 10 38  1  0
 11 39  1  0
 11 40  1  0
 12 41  1  6
 14 42  1  0
 15 43  1  0
 16 44  1  0
 17 45  1  0
 20 46  1  0
 21 47  1  0
 23 48  1  0
 26 49  1  0
 27 50  1  0
M  END
>  <smiles>  (1) 
O=C(NCC(=O)N1CCCCC1c1ccccn1)c1ccc2cc(Cl)ccc2n1

>  <score_type>  (1) 
oracle

>  <origin>  (1) 
autodockgpu

>  <m_score__min__energy>  (1) 
-8.5099999999999998

>  <m_primary>  (1) 
energy

>  <rmsd>  (1) 
1.7516888309438883

>  <m_score__min__rmsd>  (1) 
1.7516888309438883

>  <meeko>  (1) 
{"free_energy": -8.26, "intermolecular_energy": -9.75, "internal_energy": -2.12, "cluster_size": 11, "cluster_id": 1, "rank_in_cluster": 6}

>  <energy>  (1) 
-8.51

>  <cluster_rmsd>  (1) 
0.0

>  <cluster>  (1) 
1

$$$$

     RDKit          3D

 50 53  0  0  0  0  0  0  0  0999 V2000
  140.3800   72.4230  220.6770 O   0  0  0  0  0  0  0  0  0  0  0  0
  140.1130   72.7640  221.8420 C   0  0  0  0  0  0  0  0  0  0  0  0
  139.8360   74.1440  222.0870 N   0  0  0  0  0  0  0  0  0  0  0  0
  139.8610   75.1320  221.0020 C   0  0  0  0  0  0  0  0  0  0  0  0
  140.9340   76.1110  221.2360 C   0  0  0  0  0  0  0  0  0  0  0  0
  141.0390   76.5310  222.4490 O   0  0  0  0  0  0  0  0  0  0  0  0
  141.8400   76.6410  220.3240 N   0  0  0  0  0  0  0  0  0  0  0  0
  141.8180   78.1230  220.1670 C   0  0  0  0  0  0  0  0  0  0  0  0
  141.9680   78.3140  218.6600 C   0  0  0  0  0  0  0  0  0  0  0  0
  141.4070   77.1530  217.8720 C   0  0  0  0  0  0  0  0  0  0  0  0
  142.0970   75.8320  218.1350 C   0  0  0  0  0  0  0  0  0  0  0  0
  142.7850   75.9770  219.4740 C   0  0  2  0  0  0  0  0  0  0  0  0
  143.4370   74.7850  219.9870 C   0  0  0  0  0  0  0  0  0  0  0  0
  144.7390   74.9060  220.4650 C   0  0  0  0  0  0  0  0  0  0  0  0
  145.3860   73.7850  220.9610 C   0  0  0  0  0  0  0  0  0  0  0  0
  144.7200   72.5580  220.9710 C   0  0  0  0  0  0  0  0  0  0  0  0
  143.4190   72.4760  220.4830 C   0  0  0  0  0  0  0  0  0  0  0  0
  142.8030   73.5880  220.0010 N   0  0  0  0  0  0  0  0  0  0  0  0
  140.0680   71.8430  222.9750 C   0  0  0  0  0  0  0  0  0  0  0  0
  139.4890   70.6030  222.7750 C   0  0  0  0  0  0  0  0  0  0  0  0
  139.4290   69.7080  223.8270 C   0  0  0  0  0  0  0  0  0  0  0  0
  139.9380   70.0380  225.0640 C   0  0  0  0  0  0  0  0  0  0  0  0
  139.8970   69.1710  226.1360 C   0  0  0  0  0  0  0  0  0  0  0  0
  140.4270   69.5600  227.3650 C   0  0  0  0  0  0  0  0  0  0  0  0
  140.3840   68.4790  228.7320 Cl  0  0  0  0  0  0  0  0  0  0  0  0
  140.9940   70.8110  227.5090 C   0  0  0  0  0  0  0  0  0  0  0  0
  141.0430   71.6980  226.4310 C   0  0  0  0  0  0  0  0  0  0  0  0
  140.5050   71.2820  225.2160 C   0  0  0  0  0  0  0  0  0  0  0  0
  140.5550   72.1390  224.1870 N   0  0  0  0  0  0  0  0  0  0  0  0
  139.6060   74.4630  223.0690 H   0  0  0  0  0  0  0  0  0  0  0  0
  140.0391   74.6182  220.0458 H   0  0  0  0  0  0  0  0  0  0  0  0
  138.8948   75.6568  220.9699 H   0  0  0  0  0  0  0  0  0  0  0  0
  140.8671   78.5440  220.5256 H   0  0  0  0  0  0  0  0  0  0  0  0
  142.6024   78.6309  220.7473 H   0  0  0  0  0  0  0  0  0  0  0  0
  141.4356   79.2305  218.3656 H   0  0  0  0  0  0  0  0  0  0  0  0
  143.0429   78.3819  218.4366 H   0  0  0  0  0  0  0  0  0  0  0  0
  140.3432   77.0435  218.1295 H   0  0  0  0  0  0  0  0  0  0  0  0
  141.5670   77.3864  216.8090 H   0  0  0  0  0  0  0  0  0  0  0  0
  141.3595   75.0167  218.1711 H   0  0  0  0  0  0  0  0  0  0  0  0
  142.8155   75.5885  217.3385 H   0  0  0  0  0  0  0  0  0  0  0  0
  143.6911   76.5951  219.3914 H   0  0  0  0  0  0  0  0  0  0  0  0
  145.2487   75.8806  220.4492 H   0  0  0  0  0  0  0  0  0  0  0  0
  146.4146   73.8614  221.3432 H   0  0  0  0  0  0  0  0  0  0  0  0
  145.2210   71.6604  221.3626 H   0  0  0  0  0  0  0  0  0  0  0  0
  142.8895   71.5118  220.4873 H   0  0  0  0  0  0  0  0  0  0  0  0
  139.0809   70.3320  221.7901 H   0  0  0  0  0  0  0  0  0  0  0  0
  138.9693   68.7204  223.6745 H   0  0  0  0  0  0  0  0  0  0  0  0
  139.4467   68.1740  226.0211 H   0  0  0  0  0  0  0  0  0  0  0  0
  141.4109   71.1117  228.4815 H   0  0  0  0  0  0  0  0  0  0  0  0
  141.4934   72.6958  226.5388 H   0  0  0  0  0  0  0  0  0  0  0  0
  1  2  2  0
  2  3  1  0
  3  4  1  0
  4  5  1  0
  5  6  2  0
  5  7  1  0
  7  8  1  0
  8  9  1  0
  9 10  1  0
 10 11  1  0
 11 12  1  0
 12 13  1  0
 13 14  2  0
 14 15  1  0
 15 16  2  0
 16 17  1  0
 17 18  2  0
  2 19  1  0
 19 20  2  0
 20 21  1  0
 21 22  2  0
 22 23  1  0
 23 24  2  0
 24 25  1  0
 24 26  1  0
 26 27  2  0
 27 28  1  0
 28 29  2  0
 12  7  1  0
 18 13  1  0
 29 19  1  0
 28 22  1  0
  3 30  1  0
  4 31  1  0
  4 32  1  0
  8 33  1  0
  8 34  1  0
  9 35  1  0
  9 36  1  0
 10 37  1  0
 10 38  1  0
 11 39  1  0
 11 40  1  0
 12 41  1  6
 14 42  1  0
 15 43  1  0
 16 44  1  0
 17 45  1  0
 20 46  1  0
 21 47  1  0
 23 48  1  0
 26 49  1  0
 27 50  1  0
M  END
>  <smiles>  (2) 
O=C(NCC(=O)N1CCCCC1c1ccccn1)c1ccc2cc(Cl)ccc2n1

>  <score_type>  (2) 
oracle

>  <origin>  (2) 
autodockgpu

>  <m_score__min__energy>  (2) 
-8.5099999999999998

>  <m_primary>  (2) 
energy

>  <rmsd>  (2) 
4.0727137322613265

>  <m_score__min__rmsd>  (2) 
4.0727137322613265

>  <meeko>  (2) 
{"free_energy": -8.28, "intermolecular_energy": -9.78, "internal_energy": -2.11, "cluster_size": 18, "cluster_id": 2, "rank_in_cluster": 4}

>  <energy>  (2) 
-8.34

>  <cluster_rmsd>  (2) 
1.72

>  <cluster>  (2) 
1

$$$$

     RDKit          3D

 50 53  0  0  0  0  0  0  0  0999 V2000
  141.1010   71.3160  221.2760 O   0  0  0  0  0  0  0  0  0  0  0  0
  140.9700   72.3360  221.9740 C   0  0  0  0  0  0  0  0  0  0  0  0
  140.5300   72.1700  223.3230 N   0  0  0  0  0  0  0  0  0  0  0  0
  140.2430   70.8400  223.8740 C   0  0  0  0  0  0  0  0  0  0  0  0
  140.3580   70.8650  225.3410 C   0  0  0  0  0  0  0  0  0  0  0  0
  141.0290   71.8540  225.8220 O   0  0  0  0  0  0  0  0  0  0  0  0
  139.8440   69.9650  226.2680 N   0  0  0  0  0  0  0  0  0  0  0  0
  139.9700   70.3580  227.6990 C   0  0  0  0  0  0  0  0  0  0  0  0
  140.3590   69.0520  228.3850 C   0  0  0  0  0  0  0  0  0  0  0  0
  141.1180   68.1220  227.4670 C   0  0  0  0  0  0  0  0  0  0  0  0
  140.3350   67.6690  226.2540 C   0  0  0  0  0  0  0  0  0  0  0  0
  139.2300   68.6850  226.0650 C   0  0  2  0  0  0  0  0  0  0  0  0
  138.4000   68.5110  224.8870 C   0  0  0  0  0  0  0  0  0  0  0  0
  137.1570   69.1380  224.8620 C   0  0  0  0  0  0  0  0  0  0  0  0
  136.3440   68.9900  223.7500 C   0  0  0  0  0  0  0  0  0  0  0  0
  136.7860   68.2140  222.6770 C   0  0  0  0  0  0  0  0  0  0  0  0
  138.0340   67.6000  222.7380 C   0  0  0  0  0  0  0  0  0  0  0  0
  138.8160   67.7600  223.8390 N   0  0  0  0  0  0  0  0  0  0  0  0
  141.2340   73.6920  221.5010 C   0  0  0  0  0  0  0  0  0  0  0  0
  142.0290   73.8390  220.3780 C   0  0  0  0  0  0  0  0  0  0  0  0
  142.3000   75.1100  219.9050 C   0  0  0  0  0  0  0  0  0  0  0  0
  141.7880   76.2220  220.5350 C   0  0  0  0  0  0  0  0  0  0  0  0
  142.0360   77.5050  220.0920 C   0  0  0  0  0  0  0  0  0  0  0  0
  141.4920   78.5930  220.7730 C   0  0  0  0  0  0  0  0  0  0  0  0
  141.7940   80.2210  220.2270 Cl  0  0  0  0  0  0  0  0  0  0  0  0
  140.7050   78.3870  221.8890 C   0  0  0  0  0  0  0  0  0  0  0  0
  140.4460   77.0940  222.3480 C   0  0  0  0  0  0  0  0  0  0  0  0
  141.0030   76.0270  221.6480 C   0  0  0  0  0  0  0  0  0  0  0  0
  140.7490   74.7890  222.0960 N   0  0  0  0  0  0  0  0  0  0  0  0
  140.4090   73.0190  223.9400 H   0  0  0  0  0  0  0  0  0  0  0  0
  139.2215   70.5429  223.5941 H   0  0  0  0  0  0  0  0  0  0  0  0
  140.9671   70.1182  223.4682 H   0  0  0  0  0  0  0  0  0  0  0  0
  140.7511   71.1212  227.8314 H   0  0  0  0  0  0  0  0  0  0  0  0
  139.0506   70.8030  228.1072 H   0  0  0  0  0  0  0  0  0  0  0  0
  140.9920   69.2845  229.2541 H   0  0  0  0  0  0  0  0  0  0  0  0
  139.4317   68.5425  228.6860 H   0  0  0  0  0  0  0  0  0  0  0  0
  142.0217   68.6435  227.1187 H   0  0  0  0  0  0  0  0  0  0  0  0
  141.3447   67.2181  228.0514 H   0  0  0  0  0  0  0  0  0  0  0  0
  140.9856   67.6431  225.3674 H   0  0  0  0  0  0  0  0  0  0  0  0
  139.9301   66.6556  226.3923 H   0  0  0  0  0  0  0  0  0  0  0  0
  138.4305   68.5472  226.8078 H   0  0  0  0  0  0  0  0  0  0  0  0
  136.8238   69.7449  225.7168 H   0  0  0  0  0  0  0  0  0  0  0  0
  135.3595   69.4793  223.7129 H   0  0  0  0  0  0  0  0  0  0  0  0
  136.1512   68.0883  221.7875 H   0  0  0  0  0  0  0  0  0  0  0  0
  138.3872   66.9860  221.8964 H   0  0  0  0  0  0  0  0  0  0  0  0
  142.4404   72.9556  219.8677 H   0  0  0  0  0  0  0  0  0  0  0  0
  142.9328   75.2341  219.0139 H   0  0  0  0  0  0  0  0  0  0  0  0
  142.6621   77.6691  219.2026 H   0  0  0  0  0  0  0  0  0  0  0  0
  140.2781   79.2498  222.4214 H   0  0  0  0  0  0  0  0  0  0  0  0
  139.8203   76.9233  223.2365 H   0  0  0  0  0  0  0  0  0  0  0  0
  1  2  2  0
  2  3  1  0
  3  4  1  0
  4  5  1  0
  5  6  2  0
  5  7  1  0
  7  8  1  0
  8  9  1  0
  9 10  1  0
 10 11  1  0
 11 12  1  0
 12 13  1  0
 13 14  2  0
 14 15  1  0
 15 16  2  0
 16 17  1  0
 17 18  2  0
  2 19  1  0
 19 20  2  0
 20 21  1  0
 21 22  2  0
 22 23  1  0
 23 24  2  0
 24 25  1  0
 24 26  1  0
 26 27  2  0
 27 28  1  0
 28 29  2  0
 12  7  1  0
 18 13  1  0
 29 19  1  0
 28 22  1  0
  3 30  1  0
  4 31  1  0
  4 32  1  0
  8 33  1  0
  8 34  1  0
  9 35  1  0
  9 36  1  0
 10 37  1  0
 10 38  1  0
 11 39  1  0
 11 40  1  0
 12 41  1  1
 14 42  1  0
 15 43  1  0
 16 44  1  0
 17 45  1  0
 20 46  1  0
 21 47  1  0
 23 48  1  0
 26 49  1  0
 27 50  1  0
M  END
>  <smiles>  (3) 
O=C(NCC(=O)N1CCCCC1c1ccccn1)c1ccc2cc(Cl)ccc2n1

>  <score_type>  (3) 
oracle

>  <origin>  (3) 
autodockgpu

>  <m_score__min__energy>  (3) 
-8.5099999999999998

>  <m_primary>  (3) 
energy

>  <rmsd>  (3) 
9.896342054607857

>  <m_score__min__rmsd>  (3) 
9.896342054607857

>  <meeko>  (3) 
{"free_energy": -8.28, "intermolecular_energy": -9.77, "internal_energy": -2.05, "cluster_size": 4, "cluster_id": 3, "rank_in_cluster": 3}

>  <energy>  (3) 
-8.31

>  <cluster_rmsd>  (3) 
1.7

>  <cluster>  (3) 
1

$$$$

     RDKit          3D

 50 53  0  0  0  0  0  0  0  0999 V2000
  138.6740   71.5710  221.0750 O   0  0  0  0  0  0  0  0  0  0  0  0
  139.0910   71.9780  222.1720 C   0  0  0  0  0  0  0  0  0  0  0  0
  139.3130   73.3820  222.3240 N   0  0  0  0  0  0  0  0  0  0  0  0
  139.0560   74.3180  221.2230 C   0  0  0  0  0  0  0  0  0  0  0  0
  140.0500   75.4030  221.2400 C   0  0  0  0  0  0  0  0  0  0  0  0
  140.7470   75.4910  222.3200 O   0  0  0  0  0  0  0  0  0  0  0  0
  140.3280   76.3420  220.2530 N   0  0  0  0  0  0  0  0  0  0  0  0
  139.7630   76.0580  218.9040 C   0  0  0  0  0  0  0  0  0  0  0  0
  140.8990   76.4480  217.9630 C   0  0  0  0  0  0  0  0  0  0  0  0
  142.2590   76.2850  218.6010 C   0  0  0  0  0  0  0  0  0  0  0  0
  142.4850   77.1600  219.8160 C   0  0  0  0  0  0  0  0  0  0  0  0
  141.1100   77.5420  220.3190 C   0  0  2  0  0  0  0  0  0  0  0  0
  141.0740   78.3080  221.5520 C   0  0  0  0  0  0  0  0  0  0  0  0
  142.2300   78.9800  221.9390 C   0  0  0  0  0  0  0  0  0  0  0  0
  142.2250   79.7190  223.1120 C   0  0  0  0  0  0  0  0  0  0  0  0
  141.0610   79.7740  223.8800 C   0  0  0  0  0  0  0  0  0  0  0  0
  139.9240   79.0880  223.4610 C   0  0  0  0  0  0  0  0  0  0  0  0
  139.9520   78.3700  222.3080 N   0  0  0  0  0  0  0  0  0  0  0  0
  139.3710   71.1130  223.3150 C   0  0  0  0  0  0  0  0  0  0  0  0
  139.0050   69.7820  223.2200 C   0  0  0  0  0  0  0  0  0  0  0  0
  139.2540   68.9360  224.2850 C   0  0  0  0  0  0  0  0  0  0  0  0
  139.8610   69.4020  225.4300 C   0  0  0  0  0  0  0  0  0  0  0  0
  140.1270   68.5880  226.5120 C   0  0  0  0  0  0  0  0  0  0  0  0
  140.7430   69.1160  227.6450 C   0  0  0  0  0  0  0  0  0  0  0  0
  141.0860   68.1030  229.0220 Cl  0  0  0  0  0  0  0  0  0  0  0  0
  141.0870   70.4530  227.6850 C   0  0  0  0  0  0  0  0  0  0  0  0
  140.8240   71.2880  226.5970 C   0  0  0  0  0  0  0  0  0  0  0  0
  140.2080   70.7330  225.4790 C   0  0  0  0  0  0  0  0  0  0  0  0
  139.9590   71.5410  224.4390 N   0  0  0  0  0  0  0  0  0  0  0  0
  139.6690   73.7560  223.2460 H   0  0  0  0  0  0  0  0  0  0  0  0
  139.1206   73.7802  220.2656 H   0  0  0  0  0  0  0  0  0  0  0  0
  138.0508   74.7483  221.3432 H   0  0  0  0  0  0  0  0  0  0  0  0
  139.5108   74.9926  218.7980 H   0  0  0  0  0  0  0  0  0  0  0  0
  138.8291   76.6034  218.7032 H   0  0  0  0  0  0  0  0  0  0  0  0
  140.8504   75.8106  217.0678 H   0  0  0  0  0  0  0  0  0  0  0  0
  140.7735   77.5109  217.7092 H   0  0  0  0  0  0  0  0  0  0  0  0
  142.3726   75.2345  218.9068 H   0  0  0  0  0  0  0  0  0  0  0  0
  142.9996   76.5930  217.8482 H   0  0  0  0  0  0  0  0  0  0  0  0
  143.0340   76.6039  220.5902 H   0  0  0  0  0  0  0  0  0  0  0  0
  143.0829   78.0488  219.5658 H   0  0  0  0  0  0  0  0  0  0  0  0
  140.6488   78.3075  219.6777 H   0  0  0  0  0  0  0  0  0  0  0  0
  143.1380   78.9253  221.3205 H   0  0  0  0  0  0  0  0  0  0  0  0
  143.1291   80.2564  223.4340 H   0  0  0  0  0  0  0  0  0  0  0  0
  141.0418   80.3570  224.8126 H   0  0  0  0  0  0  0  0  0  0  0  0
  139.0041   79.1274  224.0629 H   0  0  0  0  0  0  0  0  0  0  0  0
  138.5217   69.4014  222.3081 H   0  0  0  0  0  0  0  0  0  0  0  0
  138.9635   67.8772  224.2168 H   0  0  0  0  0  0  0  0  0  0  0  0
  139.8530   67.5231  226.4802 H   0  0  0  0  0  0  0  0  0  0  0  0
  141.5727   70.8640  228.5823 H   0  0  0  0  0  0  0  0  0  0  0  0
  141.0958   72.3536  226.6228 H   0  0  0  0  0  0  0  0  0  0  0  0
  1  2  2  0
  2  3  1  0
  3  4  1  0
  4  5  1  0
  5  6  2  0
  5  7  1  0
  7  8  1  0
  8  9  1  0
  9 10  1  0
 10 11  1  0
 11 12  1  0
 12 13  1  0
 13 14  2  0
 14 15  1  0
 15 16  2  0
 16 17  1  0
 17 18  2  0
  2 19  1  0
 19 20  2  0
 20 21  1  0
 21 22  2  0
 22 23  1  0
 23 24  2  0
 24 25  1  0
 24 26  1  0
 26 27  2  0
 27 28  1  0
 28 29  2  0
 12  7  1  0
 18 13  1  0
 29 19  1  0
 28 22  1  0
  3 30  1  0
  4 31  1  0
  4 32  1  0
  8 33  1  0
  8 34  1  0
  9 35  1  0
  9 36  1  0
 10 37  1  0
 10 38  1  0
 11 39  1  0
 11 40  1  0
 12 41  1  6
 14 42  1  0
 15 43  1  0
 16 44  1  0
 17 45  1  0
 20 46  1  0
 21 47  1  0
 23 48  1  0
 26 49  1  0
 27 50  1  0
M  END
>  <smiles>  (4) 
O=C(NCC(=O)N1CCCCC1c1ccccn1)c1ccc2cc(Cl)ccc2n1

>  <score_type>  (4) 
oracle

>  <origin>  (4) 
autodockgpu

>  <m_score__min__energy>  (4) 
-8.5099999999999998

>  <m_primary>  (4) 
energy

>  <rmsd>  (4) 
1.775657057657181

>  <m_score__min__rmsd>  (4) 
1.775657057657181

>  <meeko>  (4) 
{"free_energy": -8.27, "intermolecular_energy": -9.76, "internal_energy": -2.14, "cluster_size": 11, "cluster_id": 1, "rank_in_cluster": 5}

>  <energy>  (4) 
-8.28

>  <cluster_rmsd>  (4) 
1.71

>  <cluster>  (4) 
1

$$$$

     RDKit          3D

 50 53  0  0  0  0  0  0  0  0999 V2000
  140.3320   72.2450  220.6710 O   0  0  0  0  0  0  0  0  0  0  0  0
  140.1060   72.5870  221.8440 C   0  0  0  0  0  0  0  0  0  0  0  0
  139.8740   73.9730  222.1030 N   0  0  0  0  0  0  0  0  0  0  0  0
  139.8980   74.9660  221.0220 C   0  0  0  0  0  0  0  0  0  0  0  0
  140.8540   76.0380  221.3430 C   0  0  0  0  0  0  0  0  0  0  0  0
  140.8110   76.4670  222.5570 O   0  0  0  0  0  0  0  0  0  0  0  0
  141.7880   76.6460  220.5110 N   0  0  0  0  0  0  0  0  0  0  0  0
  141.7650   78.1360  220.4840 C   0  0  0  0  0  0  0  0  0  0  0  0
  141.9640   78.4590  219.0060 C   0  0  0  0  0  0  0  0  0  0  0  0
  141.4340   77.3720  218.1010 C   0  0  0  0  0  0  0  0  0  0  0  0
  142.1190   76.0330  218.2700 C   0  0  0  0  0  0  0  0  0  0  0  0
  142.7630   76.0600  219.6380 C   0  0  2  0  0  0  0  0  0  0  0  0
  143.4010   74.8280  220.0660 C   0  0  0  0  0  0  0  0  0  0  0  0
  144.7330   74.8870  220.4700 C   0  0  0  0  0  0  0  0  0  0  0  0
  145.3680   73.7270  220.8830 C   0  0  0  0  0  0  0  0  0  0  0  0
  144.6610   72.5240  220.8870 C   0  0  0  0  0  0  0  0  0  0  0  0
  143.3310   72.5030  220.4750 C   0  0  0  0  0  0  0  0  0  0  0  0
  142.7280   73.6530  220.0740 N   0  0  0  0  0  0  0  0  0  0  0  0
  140.0650   71.6620  222.9730 C   0  0  0  0  0  0  0  0  0  0  0  0
  139.4650   70.4300  222.7760 C   0  0  0  0  0  0  0  0  0  0  0  0
  139.4090   69.5320  223.8250 C   0  0  0  0  0  0  0  0  0  0  0  0
  139.9410   69.8480  225.0550 C   0  0  0  0  0  0  0  0  0  0  0  0
  139.9050   68.9770  226.1250 C   0  0  0  0  0  0  0  0  0  0  0  0
  140.4580   69.3530  227.3470 C   0  0  0  0  0  0  0  0  0  0  0  0
  140.4210   68.2660  228.7100 Cl  0  0  0  0  0  0  0  0  0  0  0  0
  141.0450   70.5950  227.4870 C   0  0  0  0  0  0  0  0  0  0  0  0
  141.0900   71.4870  226.4130 C   0  0  0  0  0  0  0  0  0  0  0  0
  140.5280   71.0840  225.2040 C   0  0  0  0  0  0  0  0  0  0  0  0
  140.5740   71.9450  224.1790 N   0  0  0  0  0  0  0  0  0  0  0  0
  139.6800   74.2920  223.0920 H   0  0  0  0  0  0  0  0  0  0  0  0
  140.2010   74.4765  220.0847 H   0  0  0  0  0  0  0  0  0  0  0  0
  138.8937   75.4003  220.9089 H   0  0  0  0  0  0  0  0  0  0  0  0
  140.8010   78.5226  220.8463 H   0  0  0  0  0  0  0  0  0  0  0  0
  142.5277   78.5918  221.1325 H   0  0  0  0  0  0  0  0  0  0  0  0
  141.4382   79.3974  218.7759 H   0  0  0  0  0  0  0  0  0  0  0  0
  143.0455   78.5472  218.8253 H   0  0  0  0  0  0  0  0  0  0  0  0
  140.3625   77.2400  218.3118 H   0  0  0  0  0  0  0  0  0  0  0  0
  141.6292   77.6980  217.0687 H   0  0  0  0  0  0  0  0  0  0  0  0
  141.3830   75.2177  218.2108 H   0  0  0  0  0  0  0  0  0  0  0  0
  142.8637   75.8603  217.4790 H   0  0  0  0  0  0  0  0  0  0  0  0
  143.6697   76.6828  219.6394 H   0  0  0  0  0  0  0  0  0  0  0  0
  145.2747   75.8443  220.4612 H   0  0  0  0  0  0  0  0  0  0  0  0
  146.4196   73.7541  221.2047 H   0  0  0  0  0  0  0  0  0  0  0  0
  145.1524   71.5959  221.2143 H   0  0  0  0  0  0  0  0  0  0  0  0
  142.7694   71.5572  220.4741 H   0  0  0  0  0  0  0  0  0  0  0  0
  139.0380   70.1690  221.7964 H   0  0  0  0  0  0  0  0  0  0  0  0
  138.9330   68.5517  223.6753 H   0  0  0  0  0  0  0  0  0  0  0  0
  139.4399   67.9865  226.0129 H   0  0  0  0  0  0  0  0  0  0  0  0
  141.4816   70.8849  228.4541 H   0  0  0  0  0  0  0  0  0  0  0  0
  141.5554   72.4781  226.5189 H   0  0  0  0  0  0  0  0  0  0  0  0
  1  2  2  0
  2  3  1  0
  3  4  1  0
  4  5  1  0
  5  6  2  0
  5  7  1  0
  7  8  1  0
  8  9  1  0
  9 10  1  0
 10 11  1  0
 11 12  1  0
 12 13  1  0
 13 14  2  0
 14 15  1  0
 15 16  2  0
 16 17  1  0
 17 18  2  0
  2 19  1  0
 19 20  2  0
 20 21  1  0
 21 22  2  0
 22 23  1  0
 23 24  2  0
 24 25  1  0
 24 26  1  0
 26 27  2  0
 27 28  1  0
 28 29  2  0
 12  7  1  0
 18 13  1  0
 29 19  1  0
 28 22  1  0
  3 30  1  0
  4 31  1  0
  4 32  1  0
  8 33  1  0
  8 34  1  0
  9 35  1  0
  9 36  1  0
 10 37  1  0
 10 38  1  0
 11 39  1  0
 11 40  1  0
 12 41  1  6
 14 42  1  0
 15 43  1  0
 16 44  1  0
 17 45  1  0
 20 46  1  0
 21 47  1  0
 23 48  1  0
 26 49  1  0
 27 50  1  0
M  END
>  <smiles>  (5) 
O=C(NCC(=O)N1CCCCC1c1ccccn1)c1ccc2cc(Cl)ccc2n1

>  <score_type>  (5) 
oracle

>  <origin>  (5) 
autodockgpu

>  <m_score__min__energy>  (5) 
-8.5099999999999998

>  <m_primary>  (5) 
energy

>  <rmsd>  (5) 
4.06706954354817

>  <m_score__min__rmsd>  (5) 
4.06706954354817

>  <meeko>  (5) 
{"free_energy": -8.31, "intermolecular_energy": -9.81, "internal_energy": -2.15, "cluster_size": 18, "cluster_id": 2, "rank_in_cluster": 1}

>  <energy>  (5) 
-8.27

>  <cluster_rmsd>  (5) 
1.72

>  <cluster>  (5) 
1

$$$$

     RDKit          3D

 50 53  0  0  0  0  0  0  0  0999 V2000
  137.4810   71.2700  220.8080 O   0  0  0  0  0  0  0  0  0  0  0  0
  137.9880   71.8140  221.8030 C   0  0  0  0  0  0  0  0  0  0  0  0
  138.1690   73.2310  221.7710 N   0  0  0  0  0  0  0  0  0  0  0  0
  137.7700   74.0240  220.6020 C   0  0  0  0  0  0  0  0  0  0  0  0
  138.0920   75.4440  220.8220 C   0  0  0  0  0  0  0  0  0  0  0  0
  137.5810   76.2610  219.9660 O   0  0  0  0  0  0  0  0  0  0  0  0
  138.8720   76.0130  221.8220 N   0  0  0  0  0  0  0  0  0  0  0  0
  138.1380   76.7790  222.8680 C   0  0  0  0  0  0  0  0  0  0  0  0
  139.0250   77.9990  223.0920 C   0  0  0  0  0  0  0  0  0  0  0  0
  139.8150   78.3730  221.8580 C   0  0  0  0  0  0  0  0  0  0  0  0
  140.7840   77.3060  221.3940 C   0  0  0  0  0  0  0  0  0  0  0  0
  140.2960   76.0060  221.9930 C   0  0  2  0  0  0  0  0  0  0  0  0
  141.0210   74.8120  221.5980 C   0  0  0  0  0  0  0  0  0  0  0  0
  142.0390   74.9450  220.6580 C   0  0  0  0  0  0  0  0  0  0  0  0
  142.7480   73.8220  220.2620 C   0  0  0  0  0  0  0  0  0  0  0  0
  142.4270   72.5810  220.8140 C   0  0  0  0  0  0  0  0  0  0  0  0
  141.4020   72.4860  221.7510 C   0  0  0  0  0  0  0  0  0  0  0  0
  140.7200   73.6010  222.1250 N   0  0  0  0  0  0  0  0  0  0  0  0
  138.4110   71.0960  223.0020 C   0  0  0  0  0  0  0  0  0  0  0  0
  137.8140   69.8760  223.2680 C   0  0  0  0  0  0  0  0  0  0  0  0
  138.1910   69.1710  224.3960 C   0  0  0  0  0  0  0  0  0  0  0  0
  139.1500   69.6670  225.2510 C   0  0  0  0  0  0  0  0  0  0  0  0
  139.5530   68.9920  226.3840 C   0  0  0  0  0  0  0  0  0  0  0  0
  140.5270   69.5450  227.2140 C   0  0  0  0  0  0  0  0  0  0  0  0
  141.0480   68.7060  228.6510 Cl  0  0  0  0  0  0  0  0  0  0  0  0
  141.0900   70.7660  226.9000 C   0  0  0  0  0  0  0  0  0  0  0  0
  140.6930   71.4600  225.7550 C   0  0  0  0  0  0  0  0  0  0  0  0
  139.7170   70.8830  224.9460 C   0  0  0  0  0  0  0  0  0  0  0  0
  139.3400   71.5560  223.8490 N   0  0  0  0  0  0  0  0  0  0  0  0
  138.5990   73.7200  222.6030 H   0  0  0  0  0  0  0  0  0  0  0  0
  138.3097   73.6615  219.7147 H   0  0  0  0  0  0  0  0  0  0  0  0
  136.6858   73.9196  220.4483 H   0  0  0  0  0  0  0  0  0  0  0  0
  137.1405   77.0763  222.5123 H   0  0  0  0  0  0  0  0  0  0  0  0
  137.9631   76.1981  223.7856 H   0  0  0  0  0  0  0  0  0  0  0  0
  138.3891   78.8506  223.3756 H   0  0  0  0  0  0  0  0  0  0  0  0
  139.7434   77.7494  223.8867 H   0  0  0  0  0  0  0  0  0  0  0  0
  139.1054   78.5730  221.0417 H   0  0  0  0  0  0  0  0  0  0  0  0
  140.4182   79.2536  222.1239 H   0  0  0  0  0  0  0  0  0  0  0  0
  140.7855   77.2434  220.2958 H   0  0  0  0  0  0  0  0  0  0  0  0
  141.8128   77.5328  221.7106 H   0  0  0  0  0  0  0  0  0  0  0  0
  140.5288   75.9487  223.0666 H   0  0  0  0  0  0  0  0  0  0  0  0
  142.2783   75.9313  220.2339 H   0  0  0  0  0  0  0  0  0  0  0  0
  143.5556   73.9079  219.5201 H   0  0  0  0  0  0  0  0  0  0  0  0
  142.9819   71.6813  220.5097 H   0  0  0  0  0  0  0  0  0  0  0  0
  141.1442   71.5101  222.1882 H   0  0  0  0  0  0  0  0  0  0  0  0
  137.0482   69.4718  222.5896 H   0  0  0  0  0  0  0  0  0  0  0  0
  137.7189   68.2015  224.6133 H   0  0  0  0  0  0  0  0  0  0  0  0
  139.1063   68.0180  226.6326 H   0  0  0  0  0  0  0  0  0  0  0  0
  141.8590   71.1964  227.5583 H   0  0  0  0  0  0  0  0  0  0  0  0
  141.1377   72.4331  225.4997 H   0  0  0  0  0  0  0  0  0  0  0  0
  1  2  2  0
  2  3  1  0
  3  4  1  0
  4  5  1  0
  5  6  2  0
  5  7  1  0
  7  8  1  0
  8  9  1  0
  9 10  1  0
 10 11  1  0
 11 12  1  0
 12 13  1  0
 13 14  2  0
 14 15  1  0
 15 16  2  0
 16 17  1  0
 17 18  2  0
  2 19  1  0
 19 20  2  0
 20 21  1  0
 21 22  2  0
 22 23  1  0
 23 24  2  0
 24 25  1  0
 24 26  1  0
 26 27  2  0
 27 28  1  0
 28 29  2  0
 12  7  1  0
 18 13  1  0
 29 19  1  0
 28 22  1  0
  3 30  1  0
  4 31  1  0
  4 32  1  0
  8 33  1  0
  8 34  1  0
  9 35  1  0
  9 36  1  0
 10 37  1  0
 10 38  1  0
 11 39  1  0
 11 40  1  0
 12 41  1  1
 14 42  1  0
 15 43  1  0
 16 44  1  0
 17 45  1  0
 20 46  1  0
 21 47  1  0
 23 48  1  0
 26 49  1  0
 27 50  1  0
M  END
>  <smiles>  (6) 
O=C(NCC(=O)N1CCCCC1c1ccccn1)c1ccc2cc(Cl)ccc2n1

>  <score_type>  (6) 
oracle

>  <origin>  (6) 
autodockgpu

>  <m_score__min__energy>  (6) 
-8.5099999999999998

>  <m_primary>  (6) 
energy

>  <rmsd>  (6) 
4.022893521674797

>  <m_score__min__rmsd>  (6) 
4.022893521674797

>  <meeko>  (6) 
{"free_energy": -7.35, "intermolecular_energy": -8.84, "internal_energy": -2.76, "cluster_size": 18, "cluster_id": 2, "rank_in_cluster": 17}

>  <energy>  (6) 
-8.26

>  <cluster_rmsd>  (6) 
1.74

>  <cluster>  (6) 
1

$$$$

     RDKit          3D

 50 53  0  0  0  0  0  0  0  0999 V2000
  138.7670   71.5720  220.9000 O   0  0  0  0  0  0  0  0  0  0  0  0
  139.1430   71.9880  222.0080 C   0  0  0  0  0  0  0  0  0  0  0  0
  139.3320   73.3950  222.1650 N   0  0  0  0  0  0  0  0  0  0  0  0
  139.0890   74.3260  221.0560 C   0  0  0  0  0  0  0  0  0  0  0  0
  139.9300   75.5240  221.2080 C   0  0  0  0  0  0  0  0  0  0  0  0
  140.3230   75.7680  222.4110 O   0  0  0  0  0  0  0  0  0  0  0  0
  140.3490   76.4210  220.2320 N   0  0  0  0  0  0  0  0  0  0  0  0
  139.8880   76.1380  218.8440 C   0  0  0  0  0  0  0  0  0  0  0  0
  141.1220   76.4400  218.0000 C   0  0  0  0  0  0  0  0  0  0  0  0
  142.4090   76.2130  218.7590 C   0  0  0  0  0  0  0  0  0  0  0  0
  142.5800   77.1030  219.9720 C   0  0  0  0  0  0  0  0  0  0  0  0
  141.1930   77.5750  220.3450 C   0  0  2  0  0  0  0  0  0  0  0  0
  141.0950   78.3700  221.5550 C   0  0  0  0  0  0  0  0  0  0  0  0
  142.2490   78.9930  222.0240 C   0  0  0  0  0  0  0  0  0  0  0  0
  142.1860   79.7590  223.1780 C   0  0  0  0  0  0  0  0  0  0  0  0
  140.9670   79.8910  223.8460 C   0  0  0  0  0  0  0  0  0  0  0  0
  139.8350   79.2520  223.3470 C   0  0  0  0  0  0  0  0  0  0  0  0
  139.9200   78.5060  222.2150 N   0  0  0  0  0  0  0  0  0  0  0  0
  139.4060   71.1280  223.1600 C   0  0  0  0  0  0  0  0  0  0  0  0
  139.0240   69.8010  223.0740 C   0  0  0  0  0  0  0  0  0  0  0  0
  139.2570   68.9610  224.1470 C   0  0  0  0  0  0  0  0  0  0  0  0
  139.8630   69.4290  225.2920 C   0  0  0  0  0  0  0  0  0  0  0  0
  140.1130   68.6210  226.3820 C   0  0  0  0  0  0  0  0  0  0  0  0
  140.7270   69.1520  227.5150 C   0  0  0  0  0  0  0  0  0  0  0  0
  141.0510   68.1460  228.9010 Cl  0  0  0  0  0  0  0  0  0  0  0  0
  141.0870   70.4840  227.5460 C   0  0  0  0  0  0  0  0  0  0  0  0
  140.8410   71.3140  226.4490 C   0  0  0  0  0  0  0  0  0  0  0  0
  140.2250   70.7560  225.3320 C   0  0  0  0  0  0  0  0  0  0  0  0
  139.9920   71.5590  224.2840 N   0  0  0  0  0  0  0  0  0  0  0  0
  139.6520   73.7770  223.0970 H   0  0  0  0  0  0  0  0  0  0  0  0
  139.3312   73.8297  220.1046 H   0  0  0  0  0  0  0  0  0  0  0  0
  138.0307   74.6258  221.0629 H   0  0  0  0  0  0  0  0  0  0  0  0
  139.5836   75.0865  218.7359 H   0  0  0  0  0  0  0  0  0  0  0  0
  139.0090   76.7311  218.5515 H   0  0  0  0  0  0  0  0  0  0  0  0
  141.1136   75.7862  217.1154 H   0  0  0  0  0  0  0  0  0  0  0  0
  141.0827   77.5022  217.7167 H   0  0  0  0  0  0  0  0  0  0  0  0
  142.4317   75.1655  219.0939 H   0  0  0  0  0  0  0  0  0  0  0  0
  143.2300   76.4581  218.0691 H   0  0  0  0  0  0  0  0  0  0  0  0
  143.0261   76.5355  220.8020 H   0  0  0  0  0  0  0  0  0  0  0  0
  143.2485   77.9499  219.7578 H   0  0  0  0  0  0  0  0  0  0  0  0
  140.8365   78.3510  219.6517 H   0  0  0  0  0  0  0  0  0  0  0  0
  143.2007   78.8785  221.4844 H   0  0  0  0  0  0  0  0  0  0  0  0
  143.0875   80.2578  223.5635 H   0  0  0  0  0  0  0  0  0  0  0  0
  140.9013   80.4967  224.7618 H   0  0  0  0  0  0  0  0  0  0  0  0
  138.8721   79.3513  223.8694 H   0  0  0  0  0  0  0  0  0  0  0  0
  138.5407   69.4189  222.1627 H   0  0  0  0  0  0  0  0  0  0  0  0
  138.9545   67.9052  224.0856 H   0  0  0  0  0  0  0  0  0  0  0  0
  139.8281   67.5588  226.3569 H   0  0  0  0  0  0  0  0  0  0  0  0
  141.5723   70.8963  228.4429 H   0  0  0  0  0  0  0  0  0  0  0  0
  141.1255   72.3764  226.4674 H   0  0  0  0  0  0  0  0  0  0  0  0
  1  2  2  0
  2  3  1  0
  3  4  1  0
  4  5  1  0
  5  6  2  0
  5  7  1  0
  7  8  1  0
  8  9  1  0
  9 10  1  0
 10 11  1  0
 11 12  1  0
 12 13  1  0
 13 14  2  0
 14 15  1  0
 15 16  2  0
 16 17  1  0
 17 18  2  0
  2 19  1  0
 19 20  2  0
 20 21  1  0
 21 22  2  0
 22 23  1  0
 23 24  2  0
 24 25  1  0
 24 26  1  0
 26 27  2  0
 27 28  1  0
 28 29  2  0
 12  7  1  0
 18 13  1  0
 29 19  1  0
 28 22  1  0
  3 30  1  0
  4 31  1  0
  4 32  1  0
  8 33  1  0
  8 34  1  0
  9 35  1  0
  9 36  1  0
 10 37  1  0
 10 38  1  0
 11 39  1  0
 11 40  1  0
 12 41  1  6
 14 42  1  0
 15 43  1  0
 16 44  1  0
 17 45  1  0
 20 46  1  0
 21 47  1  0
 23 48  1  0
 26 49  1  0
 27 50  1  0
M  END
>  <smiles>  (7) 
O=C(NCC(=O)N1CCCCC1c1ccccn1)c1ccc2cc(Cl)ccc2n1

>  <score_type>  (7) 
oracle

>  <origin>  (7) 
autodockgpu

>  <m_score__min__energy>  (7) 
-8.5099999999999998

>  <m_primary>  (7) 
energy

>  <rmsd>  (7) 
1.8309166187722692

>  <m_score__min__rmsd>  (7) 
1.8309166187722692

>  <meeko>  (7) 
{"free_energy": -8.28, "intermolecular_energy": -9.78, "internal_energy": -2.09, "cluster_size": 11, "cluster_id": 1, "rank_in_cluster": 4}

>  <energy>  (7) 
-8.25

>  <cluster_rmsd>  (7) 
1.64

>  <cluster>  (7) 
1

$$$$

     RDKit          3D

 50 53  0  0  0  0  0  0  0  0999 V2000
  142.1260   78.7300  217.2260 O   0  0  0  0  0  0  0  0  0  0  0  0
  142.4620   78.1100  218.2490 C   0  0  0  0  0  0  0  0  0  0  0  0
  142.3060   78.7660  219.5090 N   0  0  0  0  0  0  0  0  0  0  0  0
  141.7650   80.1270  219.5980 C   0  0  0  0  0  0  0  0  0  0  0  0
  140.6610   80.1690  220.5700 C   0  0  0  0  0  0  0  0  0  0  0  0
  139.4890   80.3360  220.0610 O   0  0  0  0  0  0  0  0  0  0  0  0
  140.7170   80.0570  221.9540 N   0  0  0  0  0  0  0  0  0  0  0  0
  140.4290   81.3000  222.7230 C   0  0  0  0  0  0  0  0  0  0  0  0
  141.4660   81.2650  223.8420 C   0  0  0  0  0  0  0  0  0  0  0  0
  142.7250   80.5320  223.4390 C   0  0  0  0  0  0  0  0  0  0  0  0
  142.5130   79.0710  223.1020 C   0  0  0  0  0  0  0  0  0  0  0  0
  141.0430   78.9250  222.7730 C   0  0  2  0  0  0  0  0  0  0  0  0
  140.6210   77.6140  222.3170 C   0  0  0  0  0  0  0  0  0  0  0  0
  139.3610   77.1610  222.7010 C   0  0  0  0  0  0  0  0  0  0  0  0
  138.9310   75.9130  222.2800 C   0  0  0  0  0  0  0  0  0  0  0  0
  139.7680   75.1350  221.4790 C   0  0  0  0  0  0  0  0  0  0  0  0
  141.0210   75.6210  221.1150 C   0  0  0  0  0  0  0  0  0  0  0  0
  141.4230   76.8470  221.5400 N   0  0  0  0  0  0  0  0  0  0  0  0
  143.0080   76.7550  218.2440 C   0  0  0  0  0  0  0  0  0  0  0  0
  142.9980   76.0610  217.0470 C   0  0  0  0  0  0  0  0  0  0  0  0
  143.5060   74.7760  217.0080 C   0  0  0  0  0  0  0  0  0  0  0  0
  144.0190   74.1850  218.1420 C   0  0  0  0  0  0  0  0  0  0  0  0
  144.5350   72.9050  218.1410 C   0  0  0  0  0  0  0  0  0  0  0  0
  145.0390   72.3580  219.3200 C   0  0  0  0  0  0  0  0  0  0  0  0
  145.6950   70.7430  219.3390 Cl  0  0  0  0  0  0  0  0  0  0  0  0
  145.0230   73.0970  220.4870 C   0  0  0  0  0  0  0  0  0  0  0  0
  144.5050   74.3930  220.5010 C   0  0  0  0  0  0  0  0  0  0  0  0
  144.0080   74.9130  219.3090 C   0  0  0  0  0  0  0  0  0  0  0  0
  143.5110   76.1580  219.3320 N   0  0  0  0  0  0  0  0  0  0  0  0
  142.5840   78.2630  220.3960 H   0  0  0  0  0  0  0  0  0  0  0  0
  142.5606   80.8145  219.9210 H   0  0  0  0  0  0  0  0  0  0  0  0
  141.3872   80.4299  218.6103 H   0  0  0  0  0  0  0  0  0  0  0  0
  140.5582   82.1925  222.0931 H   0  0  0  0  0  0  0  0  0  0  0  0
  139.3947   81.3480  223.0944 H   0  0  0  0  0  0  0  0  0  0  0  0
  141.7299   82.2983  224.1114 H   0  0  0  0  0  0  0  0  0  0  0  0
  141.0228   80.7269  224.6929 H   0  0  0  0  0  0  0  0  0  0  0  0
  143.1470   81.0320  222.5548 H   0  0  0  0  0  0  0  0  0  0  0  0
  143.3989   80.5609  224.3079 H   0  0  0  0  0  0  0  0  0  0  0  0
  143.1282   78.7859  222.2358 H   0  0  0  0  0  0  0  0  0  0  0  0
  142.8041   78.4193  223.9390 H   0  0  0  0  0  0  0  0  0  0  0  0
  140.4254   78.9498  223.6829 H   0  0  0  0  0  0  0  0  0  0  0  0
  138.7139   77.7878  223.3322 H   0  0  0  0  0  0  0  0  0  0  0  0
  137.9393   75.5390  222.5743 H   0  0  0  0  0  0  0  0  0  0  0  0
  139.4394   74.1425  221.1368 H   0  0  0  0  0  0  0  0  0  0  0  0
  141.6851   75.0125  220.4836 H   0  0  0  0  0  0  0  0  0  0  0  0
  142.5907   76.5263  216.1373 H   0  0  0  0  0  0  0  0  0  0  0  0
  143.5006   74.2183  216.0598 H   0  0  0  0  0  0  0  0  0  0  0  0
  144.5486   72.3173  217.2113 H   0  0  0  0  0  0  0  0  0  0  0  0
  145.4223   72.6599  221.4141 H   0  0  0  0  0  0  0  0  0  0  0  0
  144.4899   74.9864  221.4271 H   0  0  0  0  0  0  0  0  0  0  0  0
  1  2  2  0
  2  3  1  0
  3  4  1  0
  4  5  1  0
  5  6  2  0
  5  7  1  0
  7  8  1  0
  8  9  1  0
  9 10  1  0
 10 11  1  0
 11 12  1  0
 12 13  1  0
 13 14  2  0
 14 15  1  0
 15 16  2  0
 16 17  1  0
 17 18  2  0
  2 19  1  0
 19 20  2  0
 20 21  1  0
 21 22  2  0
 22 23  1  0
 23 24  2  0
 24 25  1  0
 24 26  1  0
 26 27  2  0
 27 28  1  0
 28 29  2  0
 12  7  1  0
 18 13  1  0
 29 19  1  0
 28 22  1  0
  3 30  1  0
  4 31  1  0
  4 32  1  0
  8 33  1  0
  8 34  1  0
  9 35  1  0
  9 36  1  0
 10 37  1  0
 10 38  1  0
 11 39  1  0
 11 40  1  0
 12 41  1  1
 14 42  1  0
 15 43  1  0
 16 44  1  0
 17 45  1  0
 20 46  1  0
 21 47  1  0
 23 48  1  0
 26 49  1  0
 27 50  1  0
M  END
>  <smiles>  (8) 
O=C(NCC(=O)N1CCCCC1c1ccccn1)c1ccc2cc(Cl)ccc2n1

>  <score_type>  (8) 
oracle

>  <origin>  (8) 
autodockgpu

>  <m_score__min__energy>  (8) 
-8.5099999999999998

>  <m_primary>  (8) 
energy

>  <rmsd>  (8) 
7.804585302397927

>  <m_score__min__rmsd>  (8) 
7.804585302397927

>  <meeko>  (8) 
{"free_energy": -6.7, "intermolecular_energy": -8.19, "internal_energy": -3.06, "cluster_size": 3, "cluster_id": 9, "rank_in_cluster": 2}

>  <energy>  (8) 
-8.21

>  <cluster_rmsd>  (8) 
1.69

>  <cluster>  (8) 
1

$$$$

     RDKit          3D

 50 53  0  0  0  0  0  0  0  0999 V2000
  136.2130   75.3300  221.4030 O   0  0  0  0  0  0  0  0  0  0  0  0
  137.3240   75.3580  221.9580 C   0  0  0  0  0  0  0  0  0  0  0  0
  137.9510   74.1100  222.2620 N   0  0  0  0  0  0  0  0  0  0  0  0
  137.3090   72.8330  221.9290 C   0  0  0  0  0  0  0  0  0  0  0  0
  137.4870   71.8760  223.0330 C   0  0  0  0  0  0  0  0  0  0  0  0
  136.5400   71.8630  223.9060 O   0  0  0  0  0  0  0  0  0  0  0  0
  138.5380   70.9940  223.2570 N   0  0  0  0  0  0  0  0  0  0  0  0
  138.1570   69.6170  223.6800 C   0  0  0  0  0  0  0  0  0  0  0  0
  139.1850   69.2890  224.7590 C   0  0  0  0  0  0  0  0  0  0  0  0
  139.6820   70.5220  225.4770 C   0  0  0  0  0  0  0  0  0  0  0  0
  140.4030   71.5120  224.5870 C   0  0  0  0  0  0  0  0  0  0  0  0
  139.9540   71.2100  223.1740 C   0  0  2  0  0  0  0  0  0  0  0  0
  140.4430   72.1090  222.1450 C   0  0  0  0  0  0  0  0  0  0  0  0
  140.7360   71.5730  220.8930 C   0  0  0  0  0  0  0  0  0  0  0  0
  141.2050   72.4080  219.8910 C   0  0  0  0  0  0  0  0  0  0  0  0
  141.3740   73.7680  220.1570 C   0  0  0  0  0  0  0  0  0  0  0  0
  141.0720   74.2670  221.4210 C   0  0  0  0  0  0  0  0  0  0  0  0
  140.6140   73.4300  222.3890 N   0  0  0  0  0  0  0  0  0  0  0  0
  138.0280   76.5850  222.3200 C   0  0  0  0  0  0  0  0  0  0  0  0
  137.2660   77.7050  222.6040 C   0  0  0  0  0  0  0  0  0  0  0  0
  137.9010   78.8830  222.9500 C   0  0  0  0  0  0  0  0  0  0  0  0
  139.2750   78.9520  223.0150 C   0  0  0  0  0  0  0  0  0  0  0  0
  139.9440   80.1090  223.3570 C   0  0  0  0  0  0  0  0  0  0  0  0
  141.3370   80.1200  223.4050 C   0  0  0  0  0  0  0  0  0  0  0  0
  142.1990   81.5730  223.8360 Cl  0  0  0  0  0  0  0  0  0  0  0  0
  142.0470   78.9720  223.1120 C   0  0  0  0  0  0  0  0  0  0  0  0
  141.3830   77.7940  222.7650 C   0  0  0  0  0  0  0  0  0  0  0  0
  139.9910   77.8140  222.7250 C   0  0  0  0  0  0  0  0  0  0  0  0
  139.3620   76.6780  222.3900 N   0  0  0  0  0  0  0  0  0  0  0  0
  138.8960   74.1040  222.7350 H   0  0  0  0  0  0  0  0  0  0  0  0
  136.2347   72.9986  221.7604 H   0  0  0  0  0  0  0  0  0  0  0  0
  137.7712   72.4235  221.0187 H   0  0  0  0  0  0  0  0  0  0  0  0
  137.1359   69.5978  224.0886 H   0  0  0  0  0  0  0  0  0  0  0  0
  138.1559   68.8948  222.8503 H   0  0  0  0  0  0  0  0  0  0  0  0
  138.7218   68.6149  225.4945 H   0  0  0  0  0  0  0  0  0  0  0  0
  140.0483   68.8176  224.2666 H   0  0  0  0  0  0  0  0  0  0  0  0
  138.8171   71.0303  225.9281 H   0  0  0  0  0  0  0  0  0  0  0  0
  140.4130   70.1789  226.2240 H   0  0  0  0  0  0  0  0  0  0  0  0
  140.1308   72.5416  224.8623 H   0  0  0  0  0  0  0  0  0  0  0  0
  141.4947   71.4237  224.6894 H   0  0  0  0  0  0  0  0  0  0  0  0
  140.4353   70.2990  222.7888 H   0  0  0  0  0  0  0  0  0  0  0  0
  140.5967   70.4988  220.7017 H   0  0  0  0  0  0  0  0  0  0  0  0
  141.4417   72.0030  218.8960 H   0  0  0  0  0  0  0  0  0  0  0  0
  141.7443   74.4426  219.3710 H   0  0  0  0  0  0  0  0  0  0  0  0
  141.2039   75.3377  221.6362 H   0  0  0  0  0  0  0  0  0  0  0  0
  136.1681   77.6582  222.5549 H   0  0  0  0  0  0  0  0  0  0  0  0
  137.3012   79.7769  223.1763 H   0  0  0  0  0  0  0  0  0  0  0  0
  139.3782   81.0227  223.5918 H   0  0  0  0  0  0  0  0  0  0  0  0
  143.1462   78.9861  223.1525 H   0  0  0  0  0  0  0  0  0  0  0  0
  141.9429   76.8768  222.5300 H   0  0  0  0  0  0  0  0  0  0  0  0
  1  2  2  0
  2  3  1  0
  3  4  1  0
  4  5  1  0
  5  6  2  0
  5  7  1  0
  7  8  1  0
  8  9  1  0
  9 10  1  0
 10 11  1  0
 11 12  1  0
 12 13  1  0
 13 14  2  0
 14 15  1  0
 15 16  2  0
 16 17  1  0
 17 18  2  0
  2 19  1  0
 19 20  2  0
 20 21  1  0
 21 22  2  0
 22 23  1  0
 23 24  2  0
 24 25  1  0
 24 26  1  0
 26 27  2  0
 27 28  1  0
 28 29  2  0
 12  7  1  0
 18 13  1  0
 29 19  1  0
 28 22  1  0
  3 30  1  0
  4 31  1  0
  4 32  1  0
  8 33  1  0
  8 34  1  0
  9 35  1  0
  9 36  1  0
 10 37  1  0
 10 38  1  0
 11 39  1  0
 11 40  1  0
 12 41  1  6
 14 42  1  0
 15 43  1  0
 16 44  1  0
 17 45  1  0
 20 46  1  0
 21 47  1  0
 23 48  1  0
 26 49  1  0
 27 50  1  0
M  END
>  <smiles>  (9) 
O=C(NCC(=O)N1CCCCC1c1ccccn1)c1ccc2cc(Cl)ccc2n1

>  <score_type>  (9) 
oracle

>  <origin>  (9) 
autodockgpu

>  <m_score__min__energy>  (9) 
-8.5099999999999998

>  <m_primary>  (9) 
energy

>  <rmsd>  (9) 
8.09017619586938

>  <m_score__min__rmsd>  (9) 
8.09017619586938

>  <meeko>  (9) 
{"free_energy": -7.21, "intermolecular_energy": -8.7, "internal_energy": -2.74, "cluster_size": 3, "cluster_id": 8, "rank_in_cluster": 1}

>  <energy>  (9) 
-8.19

>  <cluster_rmsd>  (9) 
1.77

>  <cluster>  (9) 
1

$$$$

     RDKit          3D

 50 53  0  0  0  0  0  0  0  0999 V2000
  136.6330   71.4300  221.2380 O   0  0  0  0  0  0  0  0  0  0  0  0
  137.4100   71.8690  222.1020 C   0  0  0  0  0  0  0  0  0  0  0  0
  137.7930   73.2430  222.0210 N   0  0  0  0  0  0  0  0  0  0  0  0
  137.2870   74.1140  220.9530 C   0  0  0  0  0  0  0  0  0  0  0  0
  138.1880   75.2630  220.7690 C   0  0  0  0  0  0  0  0  0  0  0  0
  138.1960   75.7700  219.5840 O   0  0  0  0  0  0  0  0  0  0  0  0
  139.0300   75.8650  221.6980 N   0  0  0  0  0  0  0  0  0  0  0  0
  138.3860   76.8320  222.6320 C   0  0  0  0  0  0  0  0  0  0  0  0
  139.4020   77.9670  222.7110 C   0  0  0  0  0  0  0  0  0  0  0  0
  140.2240   78.0950  221.4480 C   0  0  0  0  0  0  0  0  0  0  0  0
  141.0690   76.8800  221.1310 C   0  0  0  0  0  0  0  0  0  0  0  0
  140.4450   75.7260  221.8840 C   0  0  2  0  0  0  0  0  0  0  0  0
  141.0340   74.4200  221.6490 C   0  0  0  0  0  0  0  0  0  0  0  0
  142.1200   74.3380  220.7820 C   0  0  0  0  0  0  0  0  0  0  0  0
  142.7030   73.1040  220.5400 C   0  0  0  0  0  0  0  0  0  0  0  0
  142.1900   71.9690  221.1680 C   0  0  0  0  0  0  0  0  0  0  0  0
  141.1010   72.0900  222.0280 C   0  0  0  0  0  0  0  0  0  0  0  0
  140.5450   73.3100  222.2520 N   0  0  0  0  0  0  0  0  0  0  0  0
  137.9580   71.0680  223.1940 C   0  0  0  0  0  0  0  0  0  0  0  0
  137.4850   69.7770  223.3460 C   0  0  0  0  0  0  0  0  0  0  0  0
  137.9810   68.9930  224.3710 C   0  0  0  0  0  0  0  0  0  0  0  0
  138.9360   69.4810  225.2340 C   0  0  0  0  0  0  0  0  0  0  0  0
  139.4560   68.7280  226.2670 C   0  0  0  0  0  0  0  0  0  0  0  0
  140.4200   69.2760  227.1110 C   0  0  0  0  0  0  0  0  0  0  0  0
  141.0870   68.3400  228.4220 Cl  0  0  0  0  0  0  0  0  0  0  0  0
  140.8560   70.5710  226.9130 C   0  0  0  0  0  0  0  0  0  0  0  0
  140.3390   71.3450  225.8710 C   0  0  0  0  0  0  0  0  0  0  0  0
  139.3770   70.7700  225.0450 C   0  0  0  0  0  0  0  0  0  0  0  0
  138.8860   71.5200  224.0480 N   0  0  0  0  0  0  0  0  0  0  0  0
  138.4540   73.6430  222.7420 H   0  0  0  0  0  0  0  0  0  0  0  0
  137.2290   73.5431  220.0146 H   0  0  0  0  0  0  0  0  0  0  0  0
  136.2876   74.4805  221.2301 H   0  0  0  0  0  0  0  0  0  0  0  0
  137.4260   77.1888  222.2307 H   0  0  0  0  0  0  0  0  0  0  0  0
  138.1507   76.3937  223.6131 H   0  0  0  0  0  0  0  0  0  0  0  0
  138.8639   78.9115  222.8793 H   0  0  0  0  0  0  0  0  0  0  0  0
  140.0915   77.7425  223.5382 H   0  0  0  0  0  0  0  0  0  0  0  0
  139.5376   78.2669  220.6058 H   0  0  0  0  0  0  0  0  0  0  0  0
  140.9207   78.9311  221.6081 H   0  0  0  0  0  0  0  0  0  0  0  0
  141.0590   76.6799  220.0494 H   0  0  0  0  0  0  0  0  0  0  0  0
  142.1176   77.0320  221.4264 H   0  0  0  0  0  0  0  0  0  0  0  0
  140.6745   75.7801  222.9584 H   0  0  0  0  0  0  0  0  0  0  0  0
  142.5113   75.2429  220.2941 H   0  0  0  0  0  0  0  0  0  0  0  0
  143.5626   73.0205  219.8587 H   0  0  0  0  0  0  0  0  0  0  0  0
  142.6431   70.9835  220.9850 H   0  0  0  0  0  0  0  0  0  0  0  0
  140.6911   71.1987  222.5256 H   0  0  0  0  0  0  0  0  0  0  0  0
  136.7233   69.3789  222.6595 H   0  0  0  0  0  0  0  0  0  0  0  0
  137.6078   67.9661  224.4986 H   0  0  0  0  0  0  0  0  0  0  0  0
  139.1097   67.6958  226.4241 H   0  0  0  0  0  0  0  0  0  0  0  0
  141.6178   70.9975  227.5821 H   0  0  0  0  0  0  0  0  0  0  0  0
  140.6817   72.3775  225.7082 H   0  0  0  0  0  0  0  0  0  0  0  0
  1  2  2  0
  2  3  1  0
  3  4  1  0
  4  5  1  0
  5  6  2  0
  5  7  1  0
  7  8  1  0
  8  9  1  0
  9 10  1  0
 10 11  1  0
 11 12  1  0
 12 13  1  0
 13 14  2  0
 14 15  1  0
 15 16  2  0
 16 17  1  0
 17 18  2  0
  2 19  1  0
 19 20  2  0
 20 21  1  0
 21 22  2  0
 22 23  1  0
 23 24  2  0
 24 25  1  0
 24 26  1  0
 26 27  2  0
 27 28  1  0
 28 29  2  0
 12  7  1  0
 18 13  1  0
 29 19  1  0
 28 22  1  0
  3 30  1  0
  4 31  1  0
  4 32  1  0
  8 33  1  0
  8 34  1  0
  9 35  1  0
  9 36  1  0
 10 37  1  0
 10 38  1  0
 11 39  1  0
 11 40  1  0
 12 41  1  1
 14 42  1  0
 15 43  1  0
 16 44  1  0
 17 45  1  0
 20 46  1  0
 21 47  1  0
 23 48  1  0
 26 49  1  0
 27 50  1  0
M  END
>  <smiles>  (10) 
O=C(NCC(=O)N1CCCCC1c1ccccn1)c1ccc2cc(Cl)ccc2n1

>  <score_type>  (10) 
oracle

>  <origin>  (10) 
autodockgpu

>  <m_score__min__energy>  (10) 
-8.5099999999999998

>  <m_primary>  (10) 
energy

>  <rmsd>  (10) 
4.146371310463161

>  <m_score__min__rmsd>  (10) 
4.146371310463161

>  <meeko>  (10) 
{"free_energy": -7.42, "intermolecular_energy": -8.91, "internal_energy": -2.94, "cluster_size": 18, "cluster_id": 2, "rank_in_cluster": 14}

>  <energy>  (10) 
-8.03

>  <cluster_rmsd>  (10) 
1.73

>  <cluster>  (10) 
1

$$$$

     RDKit          3D

 50 53  0  0  0  0  0  0  0  0999 V2000
  140.2870   72.4380  220.6740 O   0  0  0  0  0  0  0  0  0  0  0  0
  140.0400   72.7760  221.8440 C   0  0  0  0  0  0  0  0  0  0  0  0
  139.7880   74.1590  222.1010 N   0  0  0  0  0  0  0  0  0  0  0  0
  139.8150   75.1530  221.0210 C   0  0  0  0  0  0  0  0  0  0  0  0
  140.8840   76.1350  221.2660 C   0  0  0  0  0  0  0  0  0  0  0  0
  140.9760   76.5540  222.4800 O   0  0  0  0  0  0  0  0  0  0  0  0
  141.7980   76.6670  220.3630 N   0  0  0  0  0  0  0  0  0  0  0  0
  141.7950   78.1510  220.2290 C   0  0  0  0  0  0  0  0  0  0  0  0
  141.9490   78.3630  218.7250 C   0  0  0  0  0  0  0  0  0  0  0  0
  141.3740   77.2220  217.9190 C   0  0  0  0  0  0  0  0  0  0  0  0
  142.0470   75.8880  218.1620 C   0  0  0  0  0  0  0  0  0  0  0  0
  142.7360   76.0030  219.5040 C   0  0  2  0  0  0  0  0  0  0  0  0
  143.3710   74.7960  219.9990 C   0  0  0  0  0  0  0  0  0  0  0  0
  144.6850   74.8860  220.4500 C   0  0  0  0  0  0  0  0  0  0  0  0
  145.3180   73.7490  220.9290 C   0  0  0  0  0  0  0  0  0  0  0  0
  144.6250   72.5380  220.9480 C   0  0  0  0  0  0  0  0  0  0  0  0
  143.3120   72.4860  220.4870 C   0  0  0  0  0  0  0  0  0  0  0  0
  142.7120   73.6130  220.0230 N   0  0  0  0  0  0  0  0  0  0  0  0
  139.9950   71.8490  222.9720 C   0  0  0  0  0  0  0  0  0  0  0  0
  139.3870   70.6220  222.7730 C   0  0  0  0  0  0  0  0  0  0  0  0
  139.3260   69.7220  223.8210 C   0  0  0  0  0  0  0  0  0  0  0  0
  139.8610   70.0330  225.0510 C   0  0  0  0  0  0  0  0  0  0  0  0
  139.8200   69.1610  226.1190 C   0  0  0  0  0  0  0  0  0  0  0  0
  140.3770   69.5310  227.3420 C   0  0  0  0  0  0  0  0  0  0  0  0
  140.3350   68.4420  228.7020 Cl  0  0  0  0  0  0  0  0  0  0  0  0
  140.9720   70.7700  227.4830 C   0  0  0  0  0  0  0  0  0  0  0  0
  141.0210   71.6620  226.4110 C   0  0  0  0  0  0  0  0  0  0  0  0
  140.4560   71.2650  225.2010 C   0  0  0  0  0  0  0  0  0  0  0  0
  140.5070   72.1280  224.1770 N   0  0  0  0  0  0  0  0  0  0  0  0
  139.5760   74.4750  223.0870 H   0  0  0  0  0  0  0  0  0  0  0  0
  139.9999   74.6449  220.0630 H   0  0  0  0  0  0  0  0  0  0  0  0
  138.8471   75.6745  220.9865 H   0  0  0  0  0  0  0  0  0  0  0  0
  140.8492   78.5785  220.5933 H   0  0  0  0  0  0  0  0  0  0  0  0
  142.5851   78.6400  220.8178 H   0  0  0  0  0  0  0  0  0  0  0  0
  141.4289   79.2907  218.4443 H   0  0  0  0  0  0  0  0  0  0  0  0
  143.0250   78.4202  218.5036 H   0  0  0  0  0  0  0  0  0  0  0  0
  140.3087   77.1222  218.1742 H   0  0  0  0  0  0  0  0  0  0  0  0
  141.5379   77.4698  216.8599 H   0  0  0  0  0  0  0  0  0  0  0  0
  141.2990   75.0818  218.1849 H   0  0  0  0  0  0  0  0  0  0  0  0
  142.7631   75.6480  217.3623 H   0  0  0  0  0  0  0  0  0  0  0  0
  143.6509   76.6095  219.4320 H   0  0  0  0  0  0  0  0  0  0  0  0
  145.2157   75.8492  220.4266 H   0  0  0  0  0  0  0  0  0  0  0  0
  146.3557   73.8012  221.2903 H   0  0  0  0  0  0  0  0  0  0  0  0
  145.1140   71.6279  221.3257 H   0  0  0  0  0  0  0  0  0  0  0  0
  142.7615   71.5337  220.4986 H   0  0  0  0  0  0  0  0  0  0  0  0
  138.9575   70.3658  221.7933 H   0  0  0  0  0  0  0  0  0  0  0  0
  138.8438   68.7449  223.6701 H   0  0  0  0  0  0  0  0  0  0  0  0
  139.3479   68.1740  226.0056 H   0  0  0  0  0  0  0  0  0  0  0  0
  141.4115   71.0561  228.4500 H   0  0  0  0  0  0  0  0  0  0  0  0
  141.4922   72.6502  226.5182 H   0  0  0  0  0  0  0  0  0  0  0  0
  1  2  2  0
  2  3  1  0
  3  4  1  0
  4  5  1  0
  5  6  2  0
  5  7  1  0
  7  8  1  0
  8  9  1  0
  9 10  1  0
 10 11  1  0
 11 12  1  0
 12 13  1  0
 13 14  2  0
 14 15  1  0
 15 16  2  0
 16 17  1  0
 17 18  2  0
  2 19  1  0
 19 20  2  0
 20 21  1  0
 21 22  2  0
 22 23  1  0
 23 24  2  0
 24 25  1  0
 24 26  1  0
 26 27  2  0
 27 28  1  0
 28 29  2  0
 12  7  1  0
 18 13  1  0
 29 19  1  0
 28 22  1  0
  3 30  1  0
  4 31  1  0
  4 32  1  0
  8 33  1  0
  8 34  1  0
  9 35  1  0
  9 36  1  0
 10 37  1  0
 10 38  1  0
 11 39  1  0
 11 40  1  0
 12 41  1  6
 14 42  1  0
 15 43  1  0
 16 44  1  0
 17 45  1  0
 20 46  1  0
 21 47  1  0
 23 48  1  0
 26 49  1  0
 27 50  1  0
M  END
>  <smiles>  (11) 
O=C(NCC(=O)N1CCCCC1c1ccccn1)c1ccc2cc(Cl)ccc2n1

>  <score_type>  (11) 
oracle

>  <origin>  (11) 
autodockgpu

>  <m_score__min__energy>  (11) 
-8.5099999999999998

>  <m_primary>  (11) 
energy

>  <rmsd>  (11) 
4.063541916387832

>  <m_score__min__rmsd>  (11) 
4.063541916387832

>  <meeko>  (11) 
{"free_energy": -8.29, "intermolecular_energy": -9.78, "internal_energy": -2.12, "cluster_size": 18, "cluster_id": 2, "rank_in_cluster": 3}

>  <energy>  (11) 
-8.02

>  <cluster_rmsd>  (11) 
1.43

>  <cluster>  (11) 
1

$$$$

     RDKit          3D

 50 53  0  0  0  0  0  0  0  0999 V2000
  133.9660   70.1160  226.3850 O   0  0  0  0  0  0  0  0  0  0  0  0
  134.2120   71.2840  226.0400 C   0  0  0  0  0  0  0  0  0  0  0  0
  135.2780   71.4960  225.1120 N   0  0  0  0  0  0  0  0  0  0  0  0
  136.0600   70.3740  224.5790 C   0  0  0  0  0  0  0  0  0  0  0  0
  137.2270   70.8790  223.8380 C   0  0  0  0  0  0  0  0  0  0  0  0
  137.1660   72.1200  223.4980 O   0  0  0  0  0  0  0  0  0  0  0  0
  138.3760   70.1940  223.4560 N   0  0  0  0  0  0  0  0  0  0  0  0
  138.6110   70.0800  221.9890 C   0  0  0  0  0  0  0  0  0  0  0  0
  139.1060   68.6460  221.8280 C   0  0  0  0  0  0  0  0  0  0  0  0
  138.5580   67.7230  222.8920 C   0  0  0  0  0  0  0  0  0  0  0  0
  138.9690   68.0860  224.3030 C   0  0  0  0  0  0  0  0  0  0  0  0
  139.3690   69.5440  224.2610 C   0  0  2  0  0  0  0  0  0  0  0  0
  139.7100   70.1480  225.5360 C   0  0  0  0  0  0  0  0  0  0  0  0
  139.3100   69.4920  226.6980 C   0  0  0  0  0  0  0  0  0  0  0  0
  139.6210   70.0450  227.9300 C   0  0  0  0  0  0  0  0  0  0  0  0
  140.3290   71.2470  227.9820 C   0  0  0  0  0  0  0  0  0  0  0  0
  140.7100   71.8740  226.7990 C   0  0  0  0  0  0  0  0  0  0  0  0
  140.3950   71.3140  225.6020 N   0  0  0  0  0  0  0  0  0  0  0  0
  133.4820   72.4530  226.5230 C   0  0  0  0  0  0  0  0  0  0  0  0
  132.2650   72.2400  227.1470 C   0  0  0  0  0  0  0  0  0  0  0  0
  131.5480   73.3240  227.6150 C   0  0  0  0  0  0  0  0  0  0  0  0
  132.0300   74.6060  227.4690 C   0  0  0  0  0  0  0  0  0  0  0  0
  131.3430   75.7130  227.9240 C   0  0  0  0  0  0  0  0  0  0  0  0
  131.8800   76.9870  227.7470 C   0  0  0  0  0  0  0  0  0  0  0  0
  131.0260   78.3960  228.3150 Cl  0  0  0  0  0  0  0  0  0  0  0  0
  133.0990   77.1410  227.1170 C   0  0  0  0  0  0  0  0  0  0  0  0
  133.8060   76.0300  226.6520 C   0  0  0  0  0  0  0  0  0  0  0  0
  133.2440   74.7700  226.8430 C   0  0  0  0  0  0  0  0  0  0  0  0
  133.9280   73.7090  226.3930 N   0  0  0  0  0  0  0  0  0  0  0  0
  135.5100   72.4790  224.8010 H   0  0  0  0  0  0  0  0  0  0  0  0
  136.4030   69.7416  225.4111 H   0  0  0  0  0  0  0  0  0  0  0  0
  135.4278   69.7853  223.8980 H   0  0  0  0  0  0  0  0  0  0  0  0
  137.6798   70.2418  221.4262 H   0  0  0  0  0  0  0  0  0  0  0  0
  139.3206   70.8279  221.6055 H   0  0  0  0  0  0  0  0  0  0  0  0
  138.7927   68.2731  220.8417 H   0  0  0  0  0  0  0  0  0  0  0  0
  140.2016   68.6570  221.9262 H   0  0  0  0  0  0  0  0  0  0  0  0
  137.4597   67.7466  222.8362 H   0  0  0  0  0  0  0  0  0  0  0  0
  138.9749   66.7255  222.6891 H   0  0  0  0  0  0  0  0  0  0  0  0
  138.1266   67.9410  224.9953 H   0  0  0  0  0  0  0  0  0  0  0  0
  139.7957   67.4523  224.6565 H   0  0  0  0  0  0  0  0  0  0  0  0
  140.3547   69.6732  223.7902 H   0  0  0  0  0  0  0  0  0  0  0  0
  138.7532   68.5452  226.6383 H   0  0  0  0  0  0  0  0  0  0  0  0
  139.3129   69.5416  228.8582 H   0  0  0  0  0  0  0  0  0  0  0  0
  140.5845   71.6964  228.9529 H   0  0  0  0  0  0  0  0  0  0  0  0
  141.2659   72.8226  226.8334 H   0  0  0  0  0  0  0  0  0  0  0  0
  131.8733   71.2193  227.2688 H   0  0  0  0  0  0  0  0  0  0  0  0
  130.5796   73.1613  228.1107 H   0  0  0  0  0  0  0  0  0  0  0  0
  130.3721   75.5900  228.4261 H   0  0  0  0  0  0  0  0  0  0  0  0
  133.5175   78.1490  226.9800 H   0  0  0  0  0  0  0  0  0  0  0  0
  134.7777   76.1466  226.1499 H   0  0  0  0  0  0  0  0  0  0  0  0
  1  2  2  0
  2  3  1  0
  3  4  1  0
  4  5  1  0
  5  6  2  0
  5  7  1  0
  7  8  1  0
  8  9  1  0
  9 10  1  0
 10 11  1  0
 11 12  1  0
 12 13  1  0
 13 14  2  0
 14 15  1  0
 15 16  2  0
 16 17  1  0
 17 18  2  0
  2 19  1  0
 19 20  2  0
 20 21  1  0
 21 22  2  0
 22 23  1  0
 23 24  2  0
 24 25  1  0
 24 26  1  0
 26 27  2  0
 27 28  1  0
 28 29  2  0
 12  7  1  0
 18 13  1  0
 29 19  1  0
 28 22  1  0
  3 30  1  0
  4 31  1  0
  4 32  1  0
  8 33  1  0
  8 34  1  0
  9 35  1  0
  9 36  1  0
 10 37  1  0
 10 38  1  0
 11 39  1  0
 11 40  1  0
 12 41  1  6
 14 42  1  0
 15 43  1  0
 16 44  1  0
 17 45  1  0
 20 46  1  0
 21 47  1  0
 23 48  1  0
 26 49  1  0
 27 50  1  0
M  END
>  <smiles>  (12) 
O=C(NCC(=O)N1CCCCC1c1ccccn1)c1ccc2cc(Cl)ccc2n1

>  <score_type>  (12) 
oracle

>  <origin>  (12) 
autodockgpu

>  <m_score__min__energy>  (12) 
-8.5099999999999998

>  <m_primary>  (12) 
energy

>  <rmsd>  (12) 
9.228575252267513

>  <m_score__min__rmsd>  (12) 
9.228575252267513

>  <meeko>  (12) 
{"free_energy": -7.79, "intermolecular_energy": -9.28, "internal_energy": -2.23, "cluster_size": 6, "cluster_id": 5, "rank_in_cluster": 5}

>  <energy>  (12) 
-8.31

>  <cluster_rmsd>  (12) 
0.0

>  <cluster>  (12) 
2

$$$$

     RDKit          3D

 50 53  0  0  0  0  0  0  0  0999 V2000
  142.0850   78.7460  217.2020 O   0  0  0  0  0  0  0  0  0  0  0  0
  142.4320   78.1300  218.2240 C   0  0  0  0  0  0  0  0  0  0  0  0
  142.2890   78.7910  219.4830 N   0  0  0  0  0  0  0  0  0  0  0  0
  141.7470   80.1530  219.5730 C   0  0  0  0  0  0  0  0  0  0  0  0
  140.6590   80.1990  220.5620 C   0  0  0  0  0  0  0  0  0  0  0  0
  139.4810   80.3840  220.0730 O   0  0  0  0  0  0  0  0  0  0  0  0
  140.7350   80.0750  221.9450 N   0  0  0  0  0  0  0  0  0  0  0  0
  140.4680   81.3140  222.7280 C   0  0  0  0  0  0  0  0  0  0  0  0
  141.5210   81.2620  223.8300 C   0  0  0  0  0  0  0  0  0  0  0  0
  142.7690   80.5240  223.4020 C   0  0  0  0  0  0  0  0  0  0  0  0
  142.5410   79.0670  223.0560 C   0  0  0  0  0  0  0  0  0  0  0  0
  141.0660   78.9340  222.7490 C   0  0  2  0  0  0  0  0  0  0  0  0
  140.6280   77.6300  222.2880 C   0  0  0  0  0  0  0  0  0  0  0  0
  139.3620   77.1920  222.6690 C   0  0  0  0  0  0  0  0  0  0  0  0
  138.9170   75.9500  222.2430 C   0  0  0  0  0  0  0  0  0  0  0  0
  139.7450   75.1640  221.4410 C   0  0  0  0  0  0  0  0  0  0  0  0
  141.0050   75.6350  221.0810 C   0  0  0  0  0  0  0  0  0  0  0  0
  141.4210   76.8550  221.5090 N   0  0  0  0  0  0  0  0  0  0  0  0
  142.9790   76.7760  218.2190 C   0  0  0  0  0  0  0  0  0  0  0  0
  142.9510   76.0750  217.0270 C   0  0  0  0  0  0  0  0  0  0  0  0
  143.4600   74.7900  216.9880 C   0  0  0  0  0  0  0  0  0  0  0  0
  143.9910   74.2060  218.1160 C   0  0  0  0  0  0  0  0  0  0  0  0
  144.5080   72.9270  218.1160 C   0  0  0  0  0  0  0  0  0  0  0  0
  145.0310   72.3880  219.2900 C   0  0  0  0  0  0  0  0  0  0  0  0
  145.6890   70.7730  219.3080 Cl  0  0  0  0  0  0  0  0  0  0  0  0
  145.0330   73.1330  220.4520 C   0  0  0  0  0  0  0  0  0  0  0  0
  144.5130   74.4290  220.4670 C   0  0  0  0  0  0  0  0  0  0  0  0
  143.9970   74.9420  219.2790 C   0  0  0  0  0  0  0  0  0  0  0  0
  143.5000   76.1860  219.3020 N   0  0  0  0  0  0  0  0  0  0  0  0
  142.5770   78.2920  220.3690 H   0  0  0  0  0  0  0  0  0  0  0  0
  142.5467   80.8435  219.8793 H   0  0  0  0  0  0  0  0  0  0  0  0
  141.3530   80.4497  218.5898 H   0  0  0  0  0  0  0  0  0  0  0  0
  140.5944   82.2106  222.1033 H   0  0  0  0  0  0  0  0  0  0  0  0
  139.4398   81.3670  223.1153 H   0  0  0  0  0  0  0  0  0  0  0  0
  141.7960   82.2911  224.1043 H   0  0  0  0  0  0  0  0  0  0  0  0
  141.0869   80.7192  224.6826 H   0  0  0  0  0  0  0  0  0  0  0  0
  143.1813   81.0286  222.5157 H   0  0  0  0  0  0  0  0  0  0  0  0
  143.4564   80.5411  224.2606 H   0  0  0  0  0  0  0  0  0  0  0  0
  143.1405   78.7849  222.1779 H   0  0  0  0  0  0  0  0  0  0  0  0
  142.8403   78.4063  223.8830 H   0  0  0  0  0  0  0  0  0  0  0  0
  140.4631   78.9551  223.6688 H   0  0  0  0  0  0  0  0  0  0  0  0
  138.7219   77.8249  223.3013 H   0  0  0  0  0  0  0  0  0  0  0  0
  137.9202   75.5876  222.5346 H   0  0  0  0  0  0  0  0  0  0  0  0
  139.4041   74.1771  221.0948 H   0  0  0  0  0  0  0  0  0  0  0  0
  141.6631   75.0193  220.4503 H   0  0  0  0  0  0  0  0  0  0  0  0
  142.5289   76.5342  216.1209 H   0  0  0  0  0  0  0  0  0  0  0  0
  143.4404   74.2269  216.0433 H   0  0  0  0  0  0  0  0  0  0  0  0
  144.5074   72.3331  217.1901 H   0  0  0  0  0  0  0  0  0  0  0  0
  145.4481   72.7018  221.3749 H   0  0  0  0  0  0  0  0  0  0  0  0
  144.5109   75.0274  221.3900 H   0  0  0  0  0  0  0  0  0  0  0  0
  1  2  2  0
  2  3  1  0
  3  4  1  0
  4  5  1  0
  5  6  2  0
  5  7  1  0
  7  8  1  0
  8  9  1  0
  9 10  1  0
 10 11  1  0
 11 12  1  0
 12 13  1  0
 13 14  2  0
 14 15  1  0
 15 16  2  0
 16 17  1  0
 17 18  2  0
  2 19  1  0
 19 20  2  0
 20 21  1  0
 21 22  2  0
 22 23  1  0
 23 24  2  0
 24 25  1  0
 24 26  1  0
 26 27  2  0
 27 28  1  0
 28 29  2  0
 12  7  1  0
 18 13  1  0
 29 19  1  0
 28 22  1  0
  3 30  1  0
  4 31  1  0
  4 32  1  0
  8 33  1  0
  8 34  1  0
  9 35  1  0
  9 36  1  0
 10 37  1  0
 10 38  1  0
 11 39  1  0
 11 40  1  0
 12 41  1  1
 14 42  1  0
 15 43  1  0
 16 44  1  0
 17 45  1  0
 20 46  1  0
 21 47  1  0
 23 48  1  0
 26 49  1  0
 27 50  1  0
M  END
>  <smiles>  (13) 
O=C(NCC(=O)N1CCCCC1c1ccccn1)c1ccc2cc(Cl)ccc2n1

>  <score_type>  (13) 
oracle

>  <origin>  (13) 
autodockgpu

>  <m_score__min__energy>  (13) 
-8.5099999999999998

>  <m_primary>  (13) 
energy

>  <rmsd>  (13) 
7.812243513659042

>  <m_score__min__rmsd>  (13) 
7.812243513659042

>  <meeko>  (13) 
{"free_energy": -6.71, "intermolecular_energy": -8.2, "internal_energy": -3.07, "cluster_size": 3, "cluster_id": 9, "rank_in_cluster": 1}

>  <energy>  (13) 
-8.31

>  <cluster_rmsd>  (13) 
0.08

>  <cluster>  (13) 
2

$$$$

     RDKit          3D

 50 53  0  0  0  0  0  0  0  0999 V2000
  140.7130   72.5650  220.7310 O   0  0  0  0  0  0  0  0  0  0  0  0
  140.3140   72.8740  221.8660 C   0  0  0  0  0  0  0  0  0  0  0  0
  139.9110   74.2260  222.0880 N   0  0  0  0  0  0  0  0  0  0  0  0
  139.9620   75.2240  221.0130 C   0  0  0  0  0  0  0  0  0  0  0  0
  139.4640   76.5200  221.5020 C   0  0  0  0  0  0  0  0  0  0  0  0
  139.1210   76.5420  222.7430 O   0  0  0  0  0  0  0  0  0  0  0  0
  139.3130   77.7120  220.8030 N   0  0  0  0  0  0  0  0  0  0  0  0
  138.0520   77.8570  220.0220 C   0  0  0  0  0  0  0  0  0  0  0  0
  138.5200   78.5060  218.7230 C   0  0  0  0  0  0  0  0  0  0  0  0
  139.9470   78.1450  218.3800 C   0  0  0  0  0  0  0  0  0  0  0  0
  140.9680   78.6080  219.3980 C   0  0  0  0  0  0  0  0  0  0  0  0
  140.2050   78.8290  220.6850 C   0  0  2  0  0  0  0  0  0  0  0  0
  141.0040   79.1830  221.8450 C   0  0  0  0  0  0  0  0  0  0  0  0
  142.1160   79.9970  221.6490 C   0  0  0  0  0  0  0  0  0  0  0  0
  142.8970   80.3520  222.7390 C   0  0  0  0  0  0  0  0  0  0  0  0
  142.5520   79.8860  224.0080 C   0  0  0  0  0  0  0  0  0  0  0  0
  141.4330   79.0730  224.1640 C   0  0  0  0  0  0  0  0  0  0  0  0
  140.6820   78.7380  223.0830 N   0  0  0  0  0  0  0  0  0  0  0  0
  140.2340   71.9410  222.9870 C   0  0  0  0  0  0  0  0  0  0  0  0
  139.6650   70.7010  222.7550 C   0  0  0  0  0  0  0  0  0  0  0  0
  139.5730   69.7960  223.7960 C   0  0  0  0  0  0  0  0  0  0  0  0
  140.0400   70.1140  225.0520 C   0  0  0  0  0  0  0  0  0  0  0  0
  139.9660   69.2360  226.1140 C   0  0  0  0  0  0  0  0  0  0  0  0
  140.4530   69.6140  227.3640 C   0  0  0  0  0  0  0  0  0  0  0  0
  140.3680   68.5180  228.7170 Cl  0  0  0  0  0  0  0  0  0  0  0  0
  141.0110   70.8650  227.5390 C   0  0  0  0  0  0  0  0  0  0  0  0
  141.0930   71.7630  226.4730 C   0  0  0  0  0  0  0  0  0  0  0  0
  140.5980   71.3580  225.2360 C   0  0  0  0  0  0  0  0  0  0  0  0
  140.6800   72.2260  224.2180 N   0  0  0  0  0  0  0  0  0  0  0  0
  139.5690   74.5170  223.0450 H   0  0  0  0  0  0  0  0  0  0  0  0
  141.0015   75.3388  220.6722 H   0  0  0  0  0  0  0  0  0  0  0  0
  139.3296   74.8869  220.1785 H   0  0  0  0  0  0  0  0  0  0  0  0
  137.5920   76.8765  219.8298 H   0  0  0  0  0  0  0  0  0  0  0  0
  137.2847   78.4453  220.5465 H   0  0  0  0  0  0  0  0  0  0  0  0
  137.8647   78.1718  217.9051 H   0  0  0  0  0  0  0  0  0  0  0  0
  138.4730   79.5968  218.8572 H   0  0  0  0  0  0  0  0  0  0  0  0
  140.0151   77.0503  218.2969 H   0  0  0  0  0  0  0  0  0  0  0  0
  140.1849   78.6604  217.4378 H   0  0  0  0  0  0  0  0  0  0  0  0
  141.7417   77.8391  219.5399 H   0  0  0  0  0  0  0  0  0  0  0  0
  141.4764   79.5263  219.0689 H   0  0  0  0  0  0  0  0  0  0  0  0
  139.6155   79.7568  220.6441 H   0  0  0  0  0  0  0  0  0  0  0  0
  142.3726   80.3548  220.6409 H   0  0  0  0  0  0  0  0  0  0  0  0
  143.7796   80.9945  222.6042 H   0  0  0  0  0  0  0  0  0  0  0  0
  143.1618   80.1599  224.8816 H   0  0  0  0  0  0  0  0  0  0  0  0
  141.1571   78.7021  225.1621 H   0  0  0  0  0  0  0  0  0  0  0  0
  139.2905   70.4387  221.7545 H   0  0  0  0  0  0  0  0  0  0  0  0
  139.1209   68.8090  223.6188 H   0  0  0  0  0  0  0  0  0  0  0  0
  139.5231   68.2388  225.9742 H   0  0  0  0  0  0  0  0  0  0  0  0
  141.3946   71.1568  228.5278 H   0  0  0  0  0  0  0  0  0  0  0  0
  141.5356   72.7611  226.6064 H   0  0  0  0  0  0  0  0  0  0  0  0
  1  2  2  0
  2  3  1  0
  3  4  1  0
  4  5  1  0
  5  6  2  0
  5  7  1  0
  7  8  1  0
  8  9  1  0
  9 10  1  0
 10 11  1  0
 11 12  1  0
 12 13  1  0
 13 14  2  0
 14 15  1  0
 15 16  2  0
 16 17  1  0
 17 18  2  0
  2 19  1  0
 19 20  2  0
 20 21  1  0
 21 22  2  0
 22 23  1  0
 23 24  2  0
 24 25  1  0
 24 26  1  0
 26 27  2  0
 27 28  1  0
 28 29  2  0
 12  7  1  0
 18 13  1  0
 29 19  1  0
 28 22  1  0
  3 30  1  0
  4 31  1  0
  4 32  1  0
  8 33  1  0
  8 34  1  0
  9 35  1  0
  9 36  1  0
 10 37  1  0
 10 38  1  0
 11 39  1  0
 11 40  1  0
 12 41  1  6
 14 42  1  0
 15 43  1  0
 16 44  1  0
 17 45  1  0
 20 46  1  0
 21 47  1  0
 23 48  1  0
 26 49  1  0
 27 50  1  0
M  END
>  <smiles>  (14) 
O=C(NCC(=O)N1CCCCC1c1ccccn1)c1ccc2cc(Cl)ccc2n1

>  <score_type>  (14) 
oracle

>  <origin>  (14) 
autodockgpu

>  <m_score__min__energy>  (14) 
-8.5099999999999998

>  <m_primary>  (14) 
energy

>  <rmsd>  (14) 
2.403186589441137

>  <m_score__min__rmsd>  (14) 
2.403186589441137

>  <meeko>  (14) 
{"free_energy": -8.02, "intermolecular_energy": -9.51, "internal_energy": -1.95, "cluster_size": 11, "cluster_id": 1, "rank_in_cluster": 11}

>  <energy>  (14) 
-8.29

>  <cluster_rmsd>  (14) 
0.18

>  <cluster>  (14) 
2

$$$$

     RDKit          3D

 50 53  0  0  0  0  0  0  0  0999 V2000
  140.4830   72.0790  220.5460 O   0  0  0  0  0  0  0  0  0  0  0  0
  140.2640   72.4730  221.7030 C   0  0  0  0  0  0  0  0  0  0  0  0
  140.0730   73.8740  221.9080 N   0  0  0  0  0  0  0  0  0  0  0  0
  140.1290   74.8230  220.7890 C   0  0  0  0  0  0  0  0  0  0  0  0
  141.0010   75.9570  221.1330 C   0  0  0  0  0  0  0  0  0  0  0  0
  140.8940   76.3850  222.3430 O   0  0  0  0  0  0  0  0  0  0  0  0
  141.9170   76.6240  220.3260 N   0  0  0  0  0  0  0  0  0  0  0  0
  141.8240   78.1120  220.3260 C   0  0  0  0  0  0  0  0  0  0  0  0
  142.0280   78.4720  218.8570 C   0  0  0  0  0  0  0  0  0  0  0  0
  141.5620   77.3780  217.9250 C   0  0  0  0  0  0  0  0  0  0  0  0
  142.3080   76.0690  218.0790 C   0  0  0  0  0  0  0  0  0  0  0  0
  142.9300   76.1010  219.4570 C   0  0  2  0  0  0  0  0  0  0  0  0
  143.6200   74.8930  219.8720 C   0  0  0  0  0  0  0  0  0  0  0  0
  142.9950   73.6700  219.6420 C   0  0  0  0  0  0  0  0  0  0  0  0
  143.6310   72.5000  220.0270 C   0  0  0  0  0  0  0  0  0  0  0  0
  144.8840   72.5710  220.6370 C   0  0  0  0  0  0  0  0  0  0  0  0
  145.4780   73.8120  220.8510 C   0  0  0  0  0  0  0  0  0  0  0  0
  144.8370   74.9470  220.4660 N   0  0  0  0  0  0  0  0  0  0  0  0
  140.1930   71.5940  222.8680 C   0  0  0  0  0  0  0  0  0  0  0  0
  139.5860   70.3610  222.7080 C   0  0  0  0  0  0  0  0  0  0  0  0
  139.5010   69.5060  223.7910 C   0  0  0  0  0  0  0  0  0  0  0  0
  140.0130   69.8660  225.0180 C   0  0  0  0  0  0  0  0  0  0  0  0
  139.9470   69.0400  226.1200 C   0  0  0  0  0  0  0  0  0  0  0  0
  140.4810   69.4590  227.3370 C   0  0  0  0  0  0  0  0  0  0  0  0
  140.4070   68.4280  228.7410 Cl  0  0  0  0  0  0  0  0  0  0  0  0
  141.0760   70.7010  227.4390 C   0  0  0  0  0  0  0  0  0  0  0  0
  141.1500   71.5480  226.3320 C   0  0  0  0  0  0  0  0  0  0  0  0
  140.6080   71.1020  225.1290 C   0  0  0  0  0  0  0  0  0  0  0  0
  140.6820   71.9210  224.0710 N   0  0  0  0  0  0  0  0  0  0  0  0
  139.8850   74.2370  222.8820 H   0  0  0  0  0  0  0  0  0  0  0  0
  140.5279   74.3137  219.8993 H   0  0  0  0  0  0  0  0  0  0  0  0
  139.1154   75.1971  220.5822 H   0  0  0  0  0  0  0  0  0  0  0  0
  140.8379   78.4459  220.6811 H   0  0  0  0  0  0  0  0  0  0  0  0
  142.5552   78.5908  220.9939 H   0  0  0  0  0  0  0  0  0  0  0  0
  141.4618   79.3889  218.6362 H   0  0  0  0  0  0  0  0  0  0  0  0
  143.1064   78.6145  218.6936 H   0  0  0  0  0  0  0  0  0  0  0  0
  140.4953   77.1916  218.1186 H   0  0  0  0  0  0  0  0  0  0  0  0
  141.7550   77.7323  216.9017 H   0  0  0  0  0  0  0  0  0  0  0  0
  141.6127   75.2209  217.9935 H   0  0  0  0  0  0  0  0  0  0  0  0
  143.0710   75.9466  217.2962 H   0  0  0  0  0  0  0  0  0  0  0  0
  143.8055   76.7664  219.4831 H   0  0  0  0  0  0  0  0  0  0  0  0
  142.0070   73.6328  219.1599 H   0  0  0  0  0  0  0  0  0  0  0  0
  143.1525   71.5249  219.8533 H   0  0  0  0  0  0  0  0  0  0  0  0
  145.4002   71.6506  220.9474 H   0  0  0  0  0  0  0  0  0  0  0  0
  146.4656   73.8738  221.3314 H   0  0  0  0  0  0  0  0  0  0  0  0
  139.1761   70.0647  221.7312 H   0  0  0  0  0  0  0  0  0  0  0  0
  139.0180   68.5250  223.6712 H   0  0  0  0  0  0  0  0  0  0  0  0
  139.4730   68.0507  226.0385 H   0  0  0  0  0  0  0  0  0  0  0  0
  141.4959   71.0261  228.4023 H   0  0  0  0  0  0  0  0  0  0  0  0
  141.6224   72.5385  226.4075 H   0  0  0  0  0  0  0  0  0  0  0  0
  1  2  2  0
  2  3  1  0
  3  4  1  0
  4  5  1  0
  5  6  2  0
  5  7  1  0
  7  8  1  0
  8  9  1  0
  9 10  1  0
 10 11  1  0
 11 12  1  0
 12 13  1  0
 13 14  2  0
 14 15  1  0
 15 16  2  0
 16 17  1  0
 17 18  2  0
  2 19  1  0
 19 20  2  0
 20 21  1  0
 21 22  2  0
 22 23  1  0
 23 24  2  0
 24 25  1  0
 24 26  1  0
 26 27  2  0
 27 28  1  0
 28 29  2  0
 12  7  1  0
 18 13  1  0
 29 19  1  0
 28 22  1  0
  3 30  1  0
  4 31  1  0
  4 32  1  0
  8 33  1  0
  8 34  1  0
  9 35  1  0
  9 36  1  0
 10 37  1  0
 10 38  1  0
 11 39  1  0
 11 40  1  0
 12 41  1  6
 14 42  1  0
 15 43  1  0
 16 44  1  0
 17 45  1  0
 20 46  1  0
 21 47  1  0
 23 48  1  0
 26 49  1  0
 27 50  1  0
M  END
>  <smiles>  (15) 
O=C(NCC(=O)N1CCCCC1c1ccccn1)c1ccc2cc(Cl)ccc2n1

>  <score_type>  (15) 
oracle

>  <origin>  (15) 
autodockgpu

>  <m_score__min__energy>  (15) 
-8.5099999999999998

>  <m_primary>  (15) 
energy

>  <rmsd>  (15) 
4.181443297808139

>  <m_score__min__rmsd>  (15) 
4.181443297808139

>  <meeko>  (15) 
{"free_energy": -8.08, "intermolecular_energy": -9.57, "internal_energy": -2.17, "cluster_size": 18, "cluster_id": 2, "rank_in_cluster": 7}

>  <energy>  (15) 
-8.28

>  <cluster_rmsd>  (15) 
0.2

>  <cluster>  (15) 
2

$$$$

     RDKit          3D

 50 53  0  0  0  0  0  0  0  0999 V2000
  138.8940   71.5800  220.9920 O   0  0  0  0  0  0  0  0  0  0  0  0
  139.2030   71.9970  222.1200 C   0  0  0  0  0  0  0  0  0  0  0  0
  139.3290   73.4090  222.2990 N   0  0  0  0  0  0  0  0  0  0  0  0
  139.1000   74.3420  221.1900 C   0  0  0  0  0  0  0  0  0  0  0  0
  140.0930   75.4280  221.2290 C   0  0  0  0  0  0  0  0  0  0  0  0
  140.7480   75.5310  222.3340 O   0  0  0  0  0  0  0  0  0  0  0  0
  140.4100   76.3510  220.2390 N   0  0  0  0  0  0  0  0  0  0  0  0
  139.8900   76.0520  218.8760 C   0  0  0  0  0  0  0  0  0  0  0  0
  141.0590   76.4220  217.9690 C   0  0  0  0  0  0  0  0  0  0  0  0
  142.3960   76.2600  218.6550 C   0  0  0  0  0  0  0  0  0  0  0  0
  142.5850   77.1510  219.8650 C   0  0  0  0  0  0  0  0  0  0  0  0
  141.1970   77.5480  220.3160 C   0  0  2  0  0  0  0  0  0  0  0  0
  141.1230   78.3300  221.5360 C   0  0  0  0  0  0  0  0  0  0  0  0
  142.2720   78.9950  221.9580 C   0  0  0  0  0  0  0  0  0  0  0  0
  142.2310   79.7500  223.1190 C   0  0  0  0  0  0  0  0  0  0  0  0
  141.0400   79.8290  223.8430 C   0  0  0  0  0  0  0  0  0  0  0  0
  139.9120   79.1490  223.3910 C   0  0  0  0  0  0  0  0  0  0  0  0
  139.9750   78.4150  222.2490 N   0  0  0  0  0  0  0  0  0  0  0  0
  139.4470   71.1350  223.2740 C   0  0  0  0  0  0  0  0  0  0  0  0
  139.0510   69.8120  223.1860 C   0  0  0  0  0  0  0  0  0  0  0  0
  139.2660   68.9700  224.2600 C   0  0  0  0  0  0  0  0  0  0  0  0
  139.8690   69.4320  225.4100 C   0  0  0  0  0  0  0  0  0  0  0  0
  140.1020   68.6210  226.5010 C   0  0  0  0  0  0  0  0  0  0  0  0
  140.7140   69.1450  227.6390 C   0  0  0  0  0  0  0  0  0  0  0  0
  141.0160   68.1360  229.0280 Cl  0  0  0  0  0  0  0  0  0  0  0  0
  141.0900   70.4730  227.6720 C   0  0  0  0  0  0  0  0  0  0  0  0
  140.8610   71.3050  226.5740 C   0  0  0  0  0  0  0  0  0  0  0  0
  140.2470   70.7540  225.4520 C   0  0  0  0  0  0  0  0  0  0  0  0
  140.0300   71.5590  224.4020 N   0  0  0  0  0  0  0  0  0  0  0  0
  139.5910   73.7920  223.2490 H   0  0  0  0  0  0  0  0  0  0  0  0
  139.1890   73.8018  220.2359 H   0  0  0  0  0  0  0  0  0  0  0  0
  138.0921   74.7724  221.2840 H   0  0  0  0  0  0  0  0  0  0  0  0
  139.6348   74.9867  218.7760 H   0  0  0  0  0  0  0  0  0  0  0  0
  138.9671   76.6004  218.6362 H   0  0  0  0  0  0  0  0  0  0  0  0
  141.0366   75.7724  217.0815 H   0  0  0  0  0  0  0  0  0  0  0  0
  140.9488   77.4820  217.6964 H   0  0  0  0  0  0  0  0  0  0  0  0
  142.4929   75.2132  218.9789 H   0  0  0  0  0  0  0  0  0  0  0  0
  143.1639   76.5528  217.9239 H   0  0  0  0  0  0  0  0  0  0  0  0
  143.1040   76.6029  220.6651 H   0  0  0  0  0  0  0  0  0  0  0  0
  143.1958   78.0331  219.6224 H   0  0  0  0  0  0  0  0  0  0  0  0
  140.7635   78.3083  219.6497 H   0  0  0  0  0  0  0  0  0  0  0  0
  143.2022   78.9215  221.3755 H   0  0  0  0  0  0  0  0  0  0  0  0
  143.1286   80.2822  223.4671 H   0  0  0  0  0  0  0  0  0  0  0  0
  140.9928   80.4255  224.7660 H   0  0  0  0  0  0  0  0  0  0  0  0
  138.9709   79.2059  223.9577 H   0  0  0  0  0  0  0  0  0  0  0  0
  138.5704   69.4350  222.2712 H   0  0  0  0  0  0  0  0  0  0  0  0
  138.9520   67.9177  224.1965 H   0  0  0  0  0  0  0  0  0  0  0  0
  139.8054   67.5621  226.4734 H   0  0  0  0  0  0  0  0  0  0  0  0
  141.5746   70.8797  228.5718 H   0  0  0  0  0  0  0  0  0  0  0  0
  141.1568   72.3643  226.5948 H   0  0  0  0  0  0  0  0  0  0  0  0
  1  2  2  0
  2  3  1  0
  3  4  1  0
  4  5  1  0
  5  6  2  0
  5  7  1  0
  7  8  1  0
  8  9  1  0
  9 10  1  0
 10 11  1  0
 11 12  1  0
 12 13  1  0
 13 14  2  0
 14 15  1  0
 15 16  2  0
 16 17  1  0
 17 18  2  0
  2 19  1  0
 19 20  2  0
 20 21  1  0
 21 22  2  0
 22 23  1  0
 23 24  2  0
 24 25  1  0
 24 26  1  0
 26 27  2  0
 27 28  1  0
 28 29  2  0
 12  7  1  0
 18 13  1  0
 29 19  1  0
 28 22  1  0
  3 30  1  0
  4 31  1  0
  4 32  1  0
  8 33  1  0
  8 34  1  0
  9 35  1  0
  9 36  1  0
 10 37  1  0
 10 38  1  0
 11 39  1  0
 11 40  1  0
 12 41  1  6
 14 42  1  0
 15 43  1  0
 16 44  1  0
 17 45  1  0
 20 46  1  0
 21 47  1  0
 23 48  1  0
 26 49  1  0
 27 50  1  0
M  END
>  <smiles>  (16) 
O=C(NCC(=O)N1CCCCC1c1ccccn1)c1ccc2cc(Cl)ccc2n1

>  <score_type>  (16) 
oracle

>  <origin>  (16) 
autodockgpu

>  <m_score__min__energy>  (16) 
-8.5099999999999998

>  <m_primary>  (16) 
energy

>  <rmsd>  (16) 
1.7987001331254022

>  <m_score__min__rmsd>  (16) 
1.7987001331254022

>  <meeko>  (16) 
{"free_energy": -8.34, "intermolecular_energy": -9.83, "internal_energy": -2.08, "cluster_size": 11, "cluster_id": 1, "rank_in_cluster": 2}

>  <energy>  (16) 
-8.27

>  <cluster_rmsd>  (16) 
0.56

>  <cluster>  (16) 
2

$$$$

     RDKit          3D

 50 53  0  0  0  0  0  0  0  0999 V2000
  139.3340   72.2180  220.4870 O   0  0  0  0  0  0  0  0  0  0  0  0
  139.7580   72.5600  221.6030 C   0  0  0  0  0  0  0  0  0  0  0  0
  140.1980   73.9090  221.7670 N   0  0  0  0  0  0  0  0  0  0  0  0
  140.1510   74.8670  220.6550 C   0  0  0  0  0  0  0  0  0  0  0  0
  141.0450   76.0040  220.9300 C   0  0  0  0  0  0  0  0  0  0  0  0
  140.8340   76.6090  222.0470 O   0  0  0  0  0  0  0  0  0  0  0  0
  142.0760   76.5080  220.1450 N   0  0  0  0  0  0  0  0  0  0  0  0
  142.1390   77.9910  220.0240 C   0  0  0  0  0  0  0  0  0  0  0  0
  142.4760   78.2050  218.5510 C   0  0  0  0  0  0  0  0  0  0  0  0
  141.9600   77.0890  217.6730 C   0  0  0  0  0  0  0  0  0  0  0  0
  142.5540   75.7300  217.9820 C   0  0  0  0  0  0  0  0  0  0  0  0
  143.0840   75.8160  219.3960 C   0  0  2  0  0  0  0  0  0  0  0  0
  143.6160   74.5850  219.9510 C   0  0  0  0  0  0  0  0  0  0  0  0
  144.9100   74.6040  220.4660 C   0  0  0  0  0  0  0  0  0  0  0  0
  145.4430   73.4430  221.0030 C   0  0  0  0  0  0  0  0  0  0  0  0
  144.6740   72.2790  221.0180 C   0  0  0  0  0  0  0  0  0  0  0  0
  143.3840   72.2980  220.4930 C   0  0  0  0  0  0  0  0  0  0  0  0
  142.8810   73.4470  219.9710 N   0  0  0  0  0  0  0  0  0  0  0  0
  139.8360   71.6680  222.7580 C   0  0  0  0  0  0  0  0  0  0  0  0
  139.3400   70.3850  222.6160 C   0  0  0  0  0  0  0  0  0  0  0  0
  139.3980   69.5160  223.6900 C   0  0  0  0  0  0  0  0  0  0  0  0
  139.9430   69.9130  224.8900 C   0  0  0  0  0  0  0  0  0  0  0  0
  140.0190   69.0750  225.9830 C   0  0  0  0  0  0  0  0  0  0  0  0
  140.5800   69.5330  227.1740 C   0  0  0  0  0  0  0  0  0  0  0  0
  140.6840   68.4880  228.5660 Cl  0  0  0  0  0  0  0  0  0  0  0  0
  141.0600   70.8250  227.2600 C   0  0  0  0  0  0  0  0  0  0  0  0
  140.9900   71.6840  226.1610 C   0  0  0  0  0  0  0  0  0  0  0  0
  140.4240   71.1990  224.9850 C   0  0  0  0  0  0  0  0  0  0  0  0
  140.3600   72.0300  223.9360 N   0  0  0  0  0  0  0  0  0  0  0  0
  140.5650   74.2270  222.7050 H   0  0  0  0  0  0  0  0  0  0  0  0
  140.4725   74.3667  219.7296 H   0  0  0  0  0  0  0  0  0  0  0  0
  139.1214   75.2372  220.5414 H   0  0  0  0  0  0  0  0  0  0  0  0
  141.1719   78.4492  220.2783 H   0  0  0  0  0  0  0  0  0  0  0  0
  142.8707   78.4494  220.7056 H   0  0  0  0  0  0  0  0  0  0  0  0
  142.0252   79.1521  218.2197 H   0  0  0  0  0  0  0  0  0  0  0  0
  143.5718   78.2252  218.4576 H   0  0  0  0  0  0  0  0  0  0  0  0
  140.8693   77.0258  217.8009 H   0  0  0  0  0  0  0  0  0  0  0  0
  142.2549   77.3358  216.6424 H   0  0  0  0  0  0  0  0  0  0  0  0
  141.7813   74.9504  217.9106 H   0  0  0  0  0  0  0  0  0  0  0  0
  143.3500   75.4678  217.2695 H   0  0  0  0  0  0  0  0  0  0  0  0
  144.0203   76.3918  219.4370 H   0  0  0  0  0  0  0  0  0  0  0  0
  145.5025   75.5306  220.4467 H   0  0  0  0  0  0  0  0  0  0  0  0
  146.4634   73.4392  221.4138 H   0  0  0  0  0  0  0  0  0  0  0  0
  145.0844   71.3508  221.4424 H   0  0  0  0  0  0  0  0  0  0  0  0
  142.7730   71.3834  220.5010 H   0  0  0  0  0  0  0  0  0  0  0  0
  138.9044   70.0595  221.6598 H   0  0  0  0  0  0  0  0  0  0  0  0
  139.0036   68.4946  223.5841 H   0  0  0  0  0  0  0  0  0  0  0  0
  139.6370   68.0457  225.9148 H   0  0  0  0  0  0  0  0  0  0  0  0
  141.5015   71.1808  228.2026 H   0  0  0  0  0  0  0  0  0  0  0  0
  141.3711   72.7140  226.2227 H   0  0  0  0  0  0  0  0  0  0  0  0
  1  2  2  0
  2  3  1  0
  3  4  1  0
  4  5  1  0
  5  6  2  0
  5  7  1  0
  7  8  1  0
  8  9  1  0
  9 10  1  0
 10 11  1  0
 11 12  1  0
 12 13  1  0
 13 14  2  0
 14 15  1  0
 15 16  2  0
 16 17  1  0
 17 18  2  0
  2 19  1  0
 19 20  2  0
 20 21  1  0
 21 22  2  0
 22 23  1  0
 23 24  2  0
 24 25  1  0
 24 26  1  0
 26 27  2  0
 27 28  1  0
 28 29  2  0
 12  7  1  0
 18 13  1  0
 29 19  1  0
 28 22  1  0
  3 30  1  0
  4 31  1  0
  4 32  1  0
  8 33  1  0
  8 34  1  0
  9 35  1  0
  9 36  1  0
 10 37  1  0
 10 38  1  0
 11 39  1  0
 11 40  1  0
 12 41  1  6
 14 42  1  0
 15 43  1  0
 16 44  1  0
 17 45  1  0
 20 46  1  0
 21 47  1  0
 23 48  1  0
 26 49  1  0
 27 50  1  0
M  END
>  <smiles>  (17) 
O=C(NCC(=O)N1CCCCC1c1ccccn1)c1ccc2cc(Cl)ccc2n1

>  <score_type>  (17) 
oracle

>  <origin>  (17) 
autodockgpu

>  <m_score__min__energy>  (17) 
-8.5099999999999998

>  <m_primary>  (17) 
energy

>  <rmsd>  (17) 
4.201737027556577

>  <m_score__min__rmsd>  (17) 
4.201737027556577

>  <meeko>  (17) 
{"free_energy": -7.66, "intermolecular_energy": -9.15, "internal_energy": -2.27, "cluster_size": 18, "cluster_id": 2, "rank_in_cluster": 11}

>  <energy>  (17) 
-8.18

>  <cluster_rmsd>  (17) 
0.22

>  <cluster>  (17) 
2

$$$$

     RDKit          3D

 50 53  0  0  0  0  0  0  0  0999 V2000
  138.4110   71.6300  221.2150 O   0  0  0  0  0  0  0  0  0  0  0  0
  138.9790   72.0120  222.2520 C   0  0  0  0  0  0  0  0  0  0  0  0
  139.3660   73.3850  222.3350 N   0  0  0  0  0  0  0  0  0  0  0  0
  139.1020   74.3200  221.2350 C   0  0  0  0  0  0  0  0  0  0  0  0
  140.1430   75.3600  221.1950 C   0  0  0  0  0  0  0  0  0  0  0  0
  140.9170   75.4010  222.2230 O   0  0  0  0  0  0  0  0  0  0  0  0
  140.3940   76.2990  220.2010 N   0  0  0  0  0  0  0  0  0  0  0  0
  139.8470   75.9850  218.8510 C   0  0  0  0  0  0  0  0  0  0  0  0
  140.9740   76.4060  217.9130 C   0  0  0  0  0  0  0  0  0  0  0  0
  142.3350   76.2960  218.5600 C   0  0  0  0  0  0  0  0  0  0  0  0
  142.5230   77.1880  219.7680 C   0  0  0  0  0  0  0  0  0  0  0  0
  141.1340   77.5260  220.2610 C   0  0  2  0  0  0  0  0  0  0  0  0
  141.0640   78.3000  221.4870 C   0  0  0  0  0  0  0  0  0  0  0  0
  142.2040   78.9920  221.8900 C   0  0  0  0  0  0  0  0  0  0  0  0
  142.1660   79.7400  223.0570 C   0  0  0  0  0  0  0  0  0  0  0  0
  140.9880   79.7840  223.8040 C   0  0  0  0  0  0  0  0  0  0  0  0
  139.8690   79.0780  223.3690 C   0  0  0  0  0  0  0  0  0  0  0  0
  139.9280   78.3520  222.2230 N   0  0  0  0  0  0  0  0  0  0  0  0
  139.2780   71.1450  223.3890 C   0  0  0  0  0  0  0  0  0  0  0  0
  138.9290   69.8100  223.2900 C   0  0  0  0  0  0  0  0  0  0  0  0
  139.1970   68.9630  224.3490 C   0  0  0  0  0  0  0  0  0  0  0  0
  139.8050   69.4320  225.4930 C   0  0  0  0  0  0  0  0  0  0  0  0
  140.0890   68.6170  226.5690 C   0  0  0  0  0  0  0  0  0  0  0  0
  140.7030   69.1480  227.7010 C   0  0  0  0  0  0  0  0  0  0  0  0
  141.0690   68.1340  229.0710 Cl  0  0  0  0  0  0  0  0  0  0  0  0
  141.0290   70.4900  227.7450 C   0  0  0  0  0  0  0  0  0  0  0  0
  140.7490   71.3260  226.6630 C   0  0  0  0  0  0  0  0  0  0  0  0
  140.1330   70.7670  225.5450 C   0  0  0  0  0  0  0  0  0  0  0  0
  139.8670   71.5770  224.5110 N   0  0  0  0  0  0  0  0  0  0  0  0
  139.8530   73.7370  223.2040 H   0  0  0  0  0  0  0  0  0  0  0  0
  139.1003   73.7700  220.2824 H   0  0  0  0  0  0  0  0  0  0  0  0
  138.1231   74.7960  221.3938 H   0  0  0  0  0  0  0  0  0  0  0  0
  139.6320   74.9107  218.7524 H   0  0  0  0  0  0  0  0  0  0  0  0
  138.8962   76.4966  218.6406 H   0  0  0  0  0  0  0  0  0  0  0  0
  140.9528   75.7595  217.0233 H   0  0  0  0  0  0  0  0  0  0  0  0
  140.8131   77.4617  217.6490 H   0  0  0  0  0  0  0  0  0  0  0  0
  142.4834   75.2527  218.8754 H   0  0  0  0  0  0  0  0  0  0  0  0
  143.0688   76.6234  217.8088 H   0  0  0  0  0  0  0  0  0  0  0  0
  143.0869   76.6580  220.5497 H   0  0  0  0  0  0  0  0  0  0  0  0
  143.0903   78.0952  219.5128 H   0  0  0  0  0  0  0  0  0  0  0  0
  140.6509   78.2703  219.6109 H   0  0  0  0  0  0  0  0  0  0  0  0
  143.1242   78.9455  221.2890 H   0  0  0  0  0  0  0  0  0  0  0  0
  143.0560   80.2935  223.3908 H   0  0  0  0  0  0  0  0  0  0  0  0
  140.9435   80.3733  224.7317 H   0  0  0  0  0  0  0  0  0  0  0  0
  138.9377   79.1085  223.9536 H   0  0  0  0  0  0  0  0  0  0  0  0
  138.4442   69.4272  222.3798 H   0  0  0  0  0  0  0  0  0  0  0  0
  138.9212   67.9005  224.2775 H   0  0  0  0  0  0  0  0  0  0  0  0
  139.8308   67.5483  226.5332 H   0  0  0  0  0  0  0  0  0  0  0  0
  141.5140   70.9035  228.6415 H   0  0  0  0  0  0  0  0  0  0  0  0
  141.0070   72.3949  226.6919 H   0  0  0  0  0  0  0  0  0  0  0  0
  1  2  2  0
  2  3  1  0
  3  4  1  0
  4  5  1  0
  5  6  2  0
  5  7  1  0
  7  8  1  0
  8  9  1  0
  9 10  1  0
 10 11  1  0
 11 12  1  0
 12 13  1  0
 13 14  2  0
 14 15  1  0
 15 16  2  0
 16 17  1  0
 17 18  2  0
  2 19  1  0
 19 20  2  0
 20 21  1  0
 21 22  2  0
 22 23  1  0
 23 24  2  0
 24 25  1  0
 24 26  1  0
 26 27  2  0
 27 28  1  0
 28 29  2  0
 12  7  1  0
 18 13  1  0
 29 19  1  0
 28 22  1  0
  3 30  1  0
  4 31  1  0
  4 32  1  0
  8 33  1  0
  8 34  1  0
  9 35  1  0
  9 36  1  0
 10 37  1  0
 10 38  1  0
 11 39  1  0
 11 40  1  0
 12 41  1  6
 14 42  1  0
 15 43  1  0
 16 44  1  0
 17 45  1  0
 20 46  1  0
 21 47  1  0
 23 48  1  0
 26 49  1  0
 27 50  1  0
M  END
>  <smiles>  (18) 
O=C(NCC(=O)N1CCCCC1c1ccccn1)c1ccc2cc(Cl)ccc2n1

>  <score_type>  (18) 
oracle

>  <origin>  (18) 
autodockgpu

>  <m_score__min__energy>  (18) 
-8.5099999999999998

>  <m_primary>  (18) 
energy

>  <rmsd>  (18) 
1.765045053679726

>  <m_score__min__rmsd>  (18) 
1.765045053679726

>  <meeko>  (18) 
{"free_energy": -8.19, "intermolecular_energy": -9.68, "internal_energy": -2.19, "cluster_size": 11, "cluster_id": 1, "rank_in_cluster": 9}

>  <energy>  (18) 
-8.08

>  <cluster_rmsd>  (18) 
0.56

>  <cluster>  (18) 
2

$$$$

     RDKit          3D

 50 53  0  0  0  0  0  0  0  0999 V2000
  141.0670   71.3710  221.2510 O   0  0  0  0  0  0  0  0  0  0  0  0
  140.9150   72.3880  221.9480 C   0  0  0  0  0  0  0  0  0  0  0  0
  140.4460   72.2160  223.2870 N   0  0  0  0  0  0  0  0  0  0  0  0
  140.1540   70.8840  223.8280 C   0  0  0  0  0  0  0  0  0  0  0  0
  140.3550   70.8750  225.2860 C   0  0  0  0  0  0  0  0  0  0  0  0
  141.1080   71.8170  225.7420 O   0  0  0  0  0  0  0  0  0  0  0  0
  139.8470   69.9870  226.2280 N   0  0  0  0  0  0  0  0  0  0  0  0
  139.9950   70.3930  227.6540 C   0  0  0  0  0  0  0  0  0  0  0  0
  140.3830   69.0900  228.3470 C   0  0  0  0  0  0  0  0  0  0  0  0
  141.1240   68.1460  227.4280 C   0  0  0  0  0  0  0  0  0  0  0  0
  140.3220   67.6880  226.2290 C   0  0  0  0  0  0  0  0  0  0  0  0
  139.2220   68.7100  226.0450 C   0  0  2  0  0  0  0  0  0  0  0  0
  138.3760   68.5310  224.8790 C   0  0  0  0  0  0  0  0  0  0  0  0
  137.1320   69.1570  224.8700 C   0  0  0  0  0  0  0  0  0  0  0  0
  136.3030   69.0040  223.7700 C   0  0  0  0  0  0  0  0  0  0  0  0
  136.7300   68.2250  222.6940 C   0  0  0  0  0  0  0  0  0  0  0  0
  137.9800   67.6140  222.7390 C   0  0  0  0  0  0  0  0  0  0  0  0
  138.7770   67.7770  223.8280 N   0  0  0  0  0  0  0  0  0  0  0  0
  141.1830   73.7470  221.4850 C   0  0  0  0  0  0  0  0  0  0  0  0
  141.9640   73.8990  220.3520 C   0  0  0  0  0  0  0  0  0  0  0  0
  142.2370   75.1720  219.8870 C   0  0  0  0  0  0  0  0  0  0  0  0
  141.7430   76.2820  220.5360 C   0  0  0  0  0  0  0  0  0  0  0  0
  141.9940   77.5670  220.1010 C   0  0  0  0  0  0  0  0  0  0  0  0
  141.4680   78.6520  220.7990 C   0  0  0  0  0  0  0  0  0  0  0  0
  141.7750   80.2830  220.2650 Cl  0  0  0  0  0  0  0  0  0  0  0  0
  140.6960   78.4420  221.9240 C   0  0  0  0  0  0  0  0  0  0  0  0
  140.4330   77.1470  222.3750 C   0  0  0  0  0  0  0  0  0  0  0  0
  140.9720   76.0820  221.6570 C   0  0  0  0  0  0  0  0  0  0  0  0
  140.7160   74.8420  222.0970 N   0  0  0  0  0  0  0  0  0  0  0  0
  140.3070   73.0640  223.9030 H   0  0  0  0  0  0  0  0  0  0  0  0
  139.1099   70.6208  223.6031 H   0  0  0  0  0  0  0  0  0  0  0  0
  140.8325   70.1514  223.3665 H   0  0  0  0  0  0  0  0  0  0  0  0
  140.7836   71.1512  227.7688 H   0  0  0  0  0  0  0  0  0  0  0  0
  139.0847   70.8493  228.0701 H   0  0  0  0  0  0  0  0  0  0  0  0
  141.0283   69.3256  229.2061 H   0  0  0  0  0  0  0  0  0  0  0  0
  139.4558   68.5901  228.6639 H   0  0  0  0  0  0  0  0  0  0  0  0
  142.0270   68.6577  227.0636 H   0  0  0  0  0  0  0  0  0  0  0  0
  141.3519   67.2458  228.0176 H   0  0  0  0  0  0  0  0  0  0  0  0
  140.9609   67.6495  225.3344 H   0  0  0  0  0  0  0  0  0  0  0  0
  139.9116   66.6789  226.3816 H   0  0  0  0  0  0  0  0  0  0  0  0
  138.4314   68.5848  226.7995 H   0  0  0  0  0  0  0  0  0  0  0  0
  136.8107   69.7667  225.7273 H   0  0  0  0  0  0  0  0  0  0  0  0
  135.3175   69.4921  223.7454 H   0  0  0  0  0  0  0  0  0  0  0  0
  136.0822   68.0944  221.8147 H   0  0  0  0  0  0  0  0  0  0  0  0
  138.3227   66.9994  221.8935 H   0  0  0  0  0  0  0  0  0  0  0  0
  142.3625   73.0176  219.8282 H   0  0  0  0  0  0  0  0  0  0  0  0
  142.8566   75.3001  218.9872 H   0  0  0  0  0  0  0  0  0  0  0  0
  142.6086   77.7347  219.2043 H   0  0  0  0  0  0  0  0  0  0  0  0
  140.2840   79.3032  222.4704 H   0  0  0  0  0  0  0  0  0  0  0  0
  139.8185   76.9730  223.2706 H   0  0  0  0  0  0  0  0  0  0  0  0
  1  2  2  0
  2  3  1  0
  3  4  1  0
  4  5  1  0
  5  6  2  0
  5  7  1  0
  7  8  1  0
  8  9  1  0
  9 10  1  0
 10 11  1  0
 11 12  1  0
 12 13  1  0
 13 14  2  0
 14 15  1  0
 15 16  2  0
 16 17  1  0
 17 18  2  0
  2 19  1  0
 19 20  2  0
 20 21  1  0
 21 22  2  0
 22 23  1  0
 23 24  2  0
 24 25  1  0
 24 26  1  0
 26 27  2  0
 27 28  1  0
 28 29  2  0
 12  7  1  0
 18 13  1  0
 29 19  1  0
 28 22  1  0
  3 30  1  0
  4 31  1  0
  4 32  1  0
  8 33  1  0
  8 34  1  0
  9 35  1  0
  9 36  1  0
 10 37  1  0
 10 38  1  0
 11 39  1  0
 11 40  1  0
 12 41  1  1
 14 42  1  0
 15 43  1  0
 16 44  1  0
 17 45  1  0
 20 46  1  0
 21 47  1  0
 23 48  1  0
 26 49  1  0
 27 50  1  0
M  END
>  <smiles>  (19) 
O=C(NCC(=O)N1CCCCC1c1ccccn1)c1ccc2cc(Cl)ccc2n1

>  <score_type>  (19) 
oracle

>  <origin>  (19) 
autodockgpu

>  <m_score__min__energy>  (19) 
-8.5099999999999998

>  <m_primary>  (19) 
energy

>  <rmsd>  (19) 
9.885655346721713

>  <m_score__min__rmsd>  (19) 
9.885655346721713

>  <meeko>  (19) 
{"free_energy": -8.29, "intermolecular_energy": -9.78, "internal_energy": -1.98, "cluster_size": 4, "cluster_id": 3, "rank_in_cluster": 1}

>  <energy>  (19) 
-7.99

>  <cluster_rmsd>  (19) 
0.64

>  <cluster>  (19) 
2

$$$$

     RDKit          3D

 50 53  0  0  0  0  0  0  0  0999 V2000
  134.0580   69.8400  226.3940 O   0  0  0  0  0  0  0  0  0  0  0  0
  134.2910   71.0090  226.0440 C   0  0  0  0  0  0  0  0  0  0  0  0
  135.3640   71.2310  225.1270 N   0  0  0  0  0  0  0  0  0  0  0  0
  136.1680   70.1170  224.6090 C   0  0  0  0  0  0  0  0  0  0  0  0
  137.3520   70.6330  223.9040 C   0  0  0  0  0  0  0  0  0  0  0  0
  137.3050   71.8830  223.5950 O   0  0  0  0  0  0  0  0  0  0  0  0
  138.5040   69.9520  223.5270 N   0  0  0  0  0  0  0  0  0  0  0  0
  138.6930   69.7490  222.0630 C   0  0  0  0  0  0  0  0  0  0  0  0
  139.2180   68.3190  221.9760 C   0  0  0  0  0  0  0  0  0  0  0  0
  138.7280   67.4540  223.1150 C   0  0  0  0  0  0  0  0  0  0  0  0
  139.1760   67.9170  224.4850 C   0  0  0  0  0  0  0  0  0  0  0  0
  139.5390   69.3780  224.3370 C   0  0  2  0  0  0  0  0  0  0  0  0
  139.9070   70.0690  225.5590 C   0  0  0  0  0  0  0  0  0  0  0  0
  139.5460   69.4900  226.7720 C   0  0  0  0  0  0  0  0  0  0  0  0
  139.8840   70.1280  227.9560 C   0  0  0  0  0  0  0  0  0  0  0  0
  140.5780   71.3380  227.9070 C   0  0  0  0  0  0  0  0  0  0  0  0
  140.9210   71.8870  226.6740 C   0  0  0  0  0  0  0  0  0  0  0  0
  140.5790   71.2440  225.5260 N   0  0  0  0  0  0  0  0  0  0  0  0
  133.5390   72.1700  226.5130 C   0  0  0  0  0  0  0  0  0  0  0  0
  132.3360   71.9410  227.1570 C   0  0  0  0  0  0  0  0  0  0  0  0
  131.5990   73.0180  227.6120 C   0  0  0  0  0  0  0  0  0  0  0  0
  132.0480   74.3080  227.4330 C   0  0  0  0  0  0  0  0  0  0  0  0
  131.3410   75.4070  227.8750 C   0  0  0  0  0  0  0  0  0  0  0  0
  131.8460   76.6890  227.6640 C   0  0  0  0  0  0  0  0  0  0  0  0
  130.9660   78.0900  228.2150 Cl  0  0  0  0  0  0  0  0  0  0  0  0
  133.0530   76.8590  227.0160 C   0  0  0  0  0  0  0  0  0  0  0  0
  133.7800   75.7550  226.5650 C   0  0  0  0  0  0  0  0  0  0  0  0
  133.2510   74.4870  226.7890 C   0  0  0  0  0  0  0  0  0  0  0  0
  133.9540   73.4330  226.3520 N   0  0  0  0  0  0  0  0  0  0  0  0
  135.5860   72.2150  224.8130 H   0  0  0  0  0  0  0  0  0  0  0  0
  136.4915   69.4815  225.4465 H   0  0  0  0  0  0  0  0  0  0  0  0
  135.5586   69.5291  223.9068 H   0  0  0  0  0  0  0  0  0  0  0  0
  137.7399   69.8531  221.5238 H   0  0  0  0  0  0  0  0  0  0  0  0
  139.3709   70.4865  221.6085 H   0  0  0  0  0  0  0  0  0  0  0  0
  138.8818   67.8766  221.0267 H   0  0  0  0  0  0  0  0  0  0  0  0
  140.3156   68.3609  222.0353 H   0  0  0  0  0  0  0  0  0  0  0  0
  137.6282   67.4489  223.0955 H   0  0  0  0  0  0  0  0  0  0  0  0
  139.1624   66.4551  222.9620 H   0  0  0  0  0  0  0  0  0  0  0  0
  138.3604   67.7983  225.2135 H   0  0  0  0  0  0  0  0  0  0  0  0
  140.0293   67.3262  224.8494 H   0  0  0  0  0  0  0  0  0  0  0  0
  140.5051   69.5001  223.8253 H   0  0  0  0  0  0  0  0  0  0  0  0
  138.9983   68.5362  226.7914 H   0  0  0  0  0  0  0  0  0  0  0  0
  139.6079   69.6849  228.9242 H   0  0  0  0  0  0  0  0  0  0  0  0
  140.8527   71.8555  228.8380 H   0  0  0  0  0  0  0  0  0  0  0  0
  141.4682   72.8402  226.6289 H   0  0  0  0  0  0  0  0  0  0  0  0
  131.9706   70.9141  227.3051 H   0  0  0  0  0  0  0  0  0  0  0  0
  130.6412   72.8428  228.1238 H   0  0  0  0  0  0  0  0  0  0  0  0
  130.3802   75.2719  228.3932 H   0  0  0  0  0  0  0  0  0  0  0  0
  133.4459   77.8735  226.8533 H   0  0  0  0  0  0  0  0  0  0  0  0
  134.7423   75.8837  226.0480 H   0  0  0  0  0  0  0  0  0  0  0  0
  1  2  2  0
  2  3  1  0
  3  4  1  0
  4  5  1  0
  5  6  2  0
  5  7  1  0
  7  8  1  0
  8  9  1  0
  9 10  1  0
 10 11  1  0
 11 12  1  0
 12 13  1  0
 13 14  2  0
 14 15  1  0
 15 16  2  0
 16 17  1  0
 17 18  2  0
  2 19  1  0
 19 20  2  0
 20 21  1  0
 21 22  2  0
 22 23  1  0
 23 24  2  0
 24 25  1  0
 24 26  1  0
 26 27  2  0
 27 28  1  0
 28 29  2  0
 12  7  1  0
 18 13  1  0
 29 19  1  0
 28 22  1  0
  3 30  1  0
  4 31  1  0
  4 32  1  0
  8 33  1  0
  8 34  1  0
  9 35  1  0
  9 36  1  0
 10 37  1  0
 10 38  1  0
 11 39  1  0
 11 40  1  0
 12 41  1  6
 14 42  1  0
 15 43  1  0
 16 44  1  0
 17 45  1  0
 20 46  1  0
 21 47  1  0
 23 48  1  0
 26 49  1  0
 27 50  1  0
M  END
>  <smiles>  (20) 
O=C(NCC(=O)N1CCCCC1c1ccccn1)c1ccc2cc(Cl)ccc2n1

>  <score_type>  (20) 
oracle

>  <origin>  (20) 
autodockgpu

>  <m_score__min__energy>  (20) 
-8.5099999999999998

>  <m_primary>  (20) 
energy

>  <rmsd>  (20) 
9.23508260090501

>  <m_score__min__rmsd>  (20) 
9.23508260090501

>  <meeko>  (20) 
{"free_energy": -7.87, "intermolecular_energy": -9.37, "internal_energy": -2.23, "cluster_size": 6, "cluster_id": 5, "rank_in_cluster": 2}

>  <energy>  (20) 
-7.73

>  <cluster_rmsd>  (20) 
1.26

>  <cluster>  (20) 
2

$$$$

     RDKit          3D

 50 53  0  0  0  0  0  0  0  0999 V2000
  140.7630   73.7490  220.5530 O   0  0  0  0  0  0  0  0  0  0  0  0
  140.1810   73.7680  221.6510 C   0  0  0  0  0  0  0  0  0  0  0  0
  139.7380   75.0310  222.1510 N   0  0  0  0  0  0  0  0  0  0  0  0
  139.9590   76.2700  221.3960 C   0  0  0  0  0  0  0  0  0  0  0  0
  140.0700   77.4110  222.3190 C   0  0  0  0  0  0  0  0  0  0  0  0
  139.0630   77.5820  223.1040 O   0  0  0  0  0  0  0  0  0  0  0  0
  141.1110   78.3240  222.4510 N   0  0  0  0  0  0  0  0  0  0  0  0
  141.5280   78.6430  223.8450 C   0  0  0  0  0  0  0  0  0  0  0  0
  141.7600   80.1500  223.8020 C   0  0  0  0  0  0  0  0  0  0  0  0
  140.8990   80.8370  222.7660 C   0  0  0  0  0  0  0  0  0  0  0  0
  141.1650   80.3930  221.3430 C   0  0  0  0  0  0  0  0  0  0  0  0
  141.8370   79.0420  221.4440 C   0  0  2  0  0  0  0  0  0  0  0  0
  142.1000   78.3670  220.1860 C   0  0  0  0  0  0  0  0  0  0  0  0
  141.8620   79.0660  219.0060 C   0  0  0  0  0  0  0  0  0  0  0  0
  142.1040   78.4460  217.7900 C   0  0  0  0  0  0  0  0  0  0  0  0
  142.5800   77.1350  217.7730 C   0  0  0  0  0  0  0  0  0  0  0  0
  142.8050   76.4670  218.9740 C   0  0  0  0  0  0  0  0  0  0  0  0
  142.5610   77.0940  220.1540 N   0  0  0  0  0  0  0  0  0  0  0  0
  139.9240   72.5810  222.4620 C   0  0  0  0  0  0  0  0  0  0  0  0
  138.9470   71.7030  222.0270 C   0  0  0  0  0  0  0  0  0  0  0  0
  138.6770   70.5700  222.7720 C   0  0  0  0  0  0  0  0  0  0  0  0
  139.3680   70.3090  223.9340 C   0  0  0  0  0  0  0  0  0  0  0  0
  139.1280   69.1890  224.7030 C   0  0  0  0  0  0  0  0  0  0  0  0
  139.8580   68.9770  225.8720 C   0  0  0  0  0  0  0  0  0  0  0  0
  139.5680   67.5680  226.8560 Cl  0  0  0  0  0  0  0  0  0  0  0  0
  140.8220   69.8870  226.2580 C   0  0  0  0  0  0  0  0  0  0  0  0
  141.0760   71.0250  225.4890 C   0  0  0  0  0  0  0  0  0  0  0  0
  140.3310   71.2100  224.3270 C   0  0  0  0  0  0  0  0  0  0  0  0
  140.5810   72.3040  223.5950 N   0  0  0  0  0  0  0  0  0  0  0  0
  139.2410   75.0770  223.0820 H   0  0  0  0  0  0  0  0  0  0  0  0
  140.8883   76.1808  220.8142 H   0  0  0  0  0  0  0  0  0  0  0  0
  139.1082   76.4359  220.7188 H   0  0  0  0  0  0  0  0  0  0  0  0
  140.7350   78.3861  224.5627 H   0  0  0  0  0  0  0  0  0  0  0  0
  142.4144   78.0788  224.1704 H   0  0  0  0  0  0  0  0  0  0  0  0
  141.5267   80.5716  224.7909 H   0  0  0  0  0  0  0  0  0  0  0  0
  142.8121   80.3195  223.5292 H   0  0  0  0  0  0  0  0  0  0  0  0
  139.8447   80.6287  223.0008 H   0  0  0  0  0  0  0  0  0  0  0  0
  141.1430   81.9086  222.8131 H   0  0  0  0  0  0  0  0  0  0  0  0
  140.2200   80.3087  220.7864 H   0  0  0  0  0  0  0  0  0  0  0  0
  141.7966   81.1170  220.8075 H   0  0  0  0  0  0  0  0  0  0  0  0
  142.8862   79.1406  221.7593 H   0  0  0  0  0  0  0  0  0  0  0  0
  141.4859   80.0992  219.0381 H   0  0  0  0  0  0  0  0  0  0  0  0
  141.9223   78.9829  216.8473 H   0  0  0  0  0  0  0  0  0  0  0  0
  142.7768   76.6311  216.8152 H   0  0  0  0  0  0  0  0  0  0  0  0
  143.1798   75.4329  218.9671 H   0  0  0  0  0  0  0  0  0  0  0  0
  138.3915   71.9041  221.0991 H   0  0  0  0  0  0  0  0  0  0  0  0
  137.9007   69.8686  222.4323 H   0  0  0  0  0  0  0  0  0  0  0  0
  138.3611   68.4635  224.3941 H   0  0  0  0  0  0  0  0  0  0  0  0
  141.3958   69.7140  227.1804 H   0  0  0  0  0  0  0  0  0  0  0  0
  141.8421   71.7538  225.7923 H   0  0  0  0  0  0  0  0  0  0  0  0
  1  2  2  0
  2  3  1  0
  3  4  1  0
  4  5  1  0
  5  6  2  0
  5  7  1  0
  7  8  1  0
  8  9  1  0
  9 10  1  0
 10 11  1  0
 11 12  1  0
 12 13  1  0
 13 14  2  0
 14 15  1  0
 15 16  2  0
 16 17  1  0
 17 18  2  0
  2 19  1  0
 19 20  2  0
 20 21  1  0
 21 22  2  0
 22 23  1  0
 23 24  2  0
 24 25  1  0
 24 26  1  0
 26 27  2  0
 27 28  1  0
 28 29  2  0
 12  7  1  0
 18 13  1  0
 29 19  1  0
 28 22  1  0
  3 30  1  0
  4 31  1  0
  4 32  1  0
  8 33  1  0
  8 34  1  0
  9 35  1  0
  9 36  1  0
 10 37  1  0
 10 38  1  0
 11 39  1  0
 11 40  1  0
 12 41  1  1
 14 42  1  0
 15 43  1  0
 16 44  1  0
 17 45  1  0
 20 46  1  0
 21 47  1  0
 23 48  1  0
 26 49  1  0
 27 50  1  0
M  END
>  <smiles>  (21) 
O=C(NCC(=O)N1CCCCC1c1ccccn1)c1ccc2cc(Cl)ccc2n1

>  <score_type>  (21) 
oracle

>  <origin>  (21) 
autodockgpu

>  <m_score__min__energy>  (21) 
-8.5099999999999998

>  <m_primary>  (21) 
energy

>  <rmsd>  (21) 
4.165162122808986

>  <m_score__min__rmsd>  (21) 
4.165162122808986

>  <meeko>  (21) 
{"free_energy": -8.08, "intermolecular_energy": -9.57, "internal_energy": -1.72, "cluster_size": 1, "cluster_id": 4, "rank_in_cluster": 1}

>  <energy>  (21) 
-7.66

>  <cluster_rmsd>  (21) 
0.83

>  <cluster>  (21) 
2

$$$$

     RDKit          3D

 50 53  0  0  0  0  0  0  0  0999 V2000
  140.1240   72.4160  220.6260 O   0  0  0  0  0  0  0  0  0  0  0  0
  139.9780   72.7660  221.8090 C   0  0  0  0  0  0  0  0  0  0  0  0
  139.8020   74.1580  222.0780 N   0  0  0  0  0  0  0  0  0  0  0  0
  139.7930   75.1490  220.9950 C   0  0  0  0  0  0  0  0  0  0  0  0
  140.7960   76.1930  221.2570 C   0  0  0  0  0  0  0  0  0  0  0  0
  140.7930   76.6680  222.4540 O   0  0  0  0  0  0  0  0  0  0  0  0
  141.7350   76.7330  220.3860 N   0  0  0  0  0  0  0  0  0  0  0  0
  141.7690   78.2200  220.3000 C   0  0  0  0  0  0  0  0  0  0  0  0
  141.9520   78.4780  218.8070 C   0  0  0  0  0  0  0  0  0  0  0  0
  141.3630   77.3770  217.9550 C   0  0  0  0  0  0  0  0  0  0  0  0
  142.0020   76.0200  218.1650 C   0  0  0  0  0  0  0  0  0  0  0  0
  142.6710   76.0760  219.5200 C   0  0  2  0  0  0  0  0  0  0  0  0
  143.2710   74.8390  219.9850 C   0  0  0  0  0  0  0  0  0  0  0  0
  144.5880   74.8790  220.4360 C   0  0  0  0  0  0  0  0  0  0  0  0
  145.1870   73.7120  220.8860 C   0  0  0  0  0  0  0  0  0  0  0  0
  144.4580   72.5220  220.8780 C   0  0  0  0  0  0  0  0  0  0  0  0
  143.1440   72.5200  220.4180 C   0  0  0  0  0  0  0  0  0  0  0  0
  142.5770   73.6760  219.9810 N   0  0  0  0  0  0  0  0  0  0  0  0
  139.9750   71.8430  222.9420 C   0  0  0  0  0  0  0  0  0  0  0  0
  139.5140   70.5570  222.7250 C   0  0  0  0  0  0  0  0  0  0  0  0
  139.4970   69.6600  223.7760 C   0  0  0  0  0  0  0  0  0  0  0  0
  139.9340   70.0310  225.0280 C   0  0  0  0  0  0  0  0  0  0  0  0
  139.9340   69.1630  226.1010 C   0  0  0  0  0  0  0  0  0  0  0  0
  140.3870   69.5950  227.3460 C   0  0  0  0  0  0  0  0  0  0  0  0
  140.3930   68.5130  228.7120 Cl  0  0  0  0  0  0  0  0  0  0  0  0
  140.8370   70.8910  227.5050 C   0  0  0  0  0  0  0  0  0  0  0  0
  140.8440   71.7800  226.4290 C   0  0  0  0  0  0  0  0  0  0  0  0
  140.3850   71.3200  225.1970 C   0  0  0  0  0  0  0  0  0  0  0  0
  140.3940   72.1790  224.1680 N   0  0  0  0  0  0  0  0  0  0  0  0
  139.6760   74.4840  223.0750 H   0  0  0  0  0  0  0  0  0  0  0  0
  140.0274   74.6499  220.0431 H   0  0  0  0  0  0  0  0  0  0  0  0
  138.7969   75.6124  220.9392 H   0  0  0  0  0  0  0  0  0  0  0  0
  140.8277   78.6579  220.6636 H   0  0  0  0  0  0  0  0  0  0  0  0
  142.5613   78.6701  220.9162 H   0  0  0  0  0  0  0  0  0  0  0  0
  141.4580   79.4265  218.5494 H   0  0  0  0  0  0  0  0  0  0  0  0
  143.0323   78.5176  218.6037 H   0  0  0  0  0  0  0  0  0  0  0  0
  140.2918   77.2940  218.1908 H   0  0  0  0  0  0  0  0  0  0  0  0
  141.5486   77.6549  216.9070 H   0  0  0  0  0  0  0  0  0  0  0  0
  141.2358   75.2309  218.1500 H   0  0  0  0  0  0  0  0  0  0  0  0
  142.7254   75.7892  217.3691 H   0  0  0  0  0  0  0  0  0  0  0  0
  143.5999   76.6639  219.4818 H   0  0  0  0  0  0  0  0  0  0  0  0
  145.1472   75.8262  220.4353 H   0  0  0  0  0  0  0  0  0  0  0  0
  146.2265   73.7242  221.2457 H   0  0  0  0  0  0  0  0  0  0  0  0
  144.9198   71.5892  221.2338 H   0  0  0  0  0  0  0  0  0  0  0  0
  142.5653   71.5846  220.4081 H   0  0  0  0  0  0  0  0  0  0  0  0
  139.1650   70.2519  221.7274 H   0  0  0  0  0  0  0  0  0  0  0  0
  139.1296   68.6365  223.6104 H   0  0  0  0  0  0  0  0  0  0  0  0
  139.5766   68.1305  225.9735 H   0  0  0  0  0  0  0  0  0  0  0  0
  141.1937   71.2262  228.4901 H   0  0  0  0  0  0  0  0  0  0  0  0
  141.2014   72.8132  226.5503 H   0  0  0  0  0  0  0  0  0  0  0  0
  1  2  2  0
  2  3  1  0
  3  4  1  0
  4  5  1  0
  5  6  2  0
  5  7  1  0
  7  8  1  0
  8  9  1  0
  9 10  1  0
 10 11  1  0
 11 12  1  0
 12 13  1  0
 13 14  2  0
 14 15  1  0
 15 16  2  0
 16 17  1  0
 17 18  2  0
  2 19  1  0
 19 20  2  0
 20 21  1  0
 21 22  2  0
 22 23  1  0
 23 24  2  0
 24 25  1  0
 24 26  1  0
 26 27  2  0
 27 28  1  0
 28 29  2  0
 12  7  1  0
 18 13  1  0
 29 19  1  0
 28 22  1  0
  3 30  1  0
  4 31  1  0
  4 32  1  0
  8 33  1  0
  8 34  1  0
  9 35  1  0
  9 36  1  0
 10 37  1  0
 10 38  1  0
 11 39  1  0
 11 40  1  0
 12 41  1  6
 14 42  1  0
 15 43  1  0
 16 44  1  0
 17 45  1  0
 20 46  1  0
 21 47  1  0
 23 48  1  0
 26 49  1  0
 27 50  1  0
M  END
>  <smiles>  (22) 
O=C(NCC(=O)N1CCCCC1c1ccccn1)c1ccc2cc(Cl)ccc2n1

>  <score_type>  (22) 
oracle

>  <origin>  (22) 
autodockgpu

>  <m_score__min__energy>  (22) 
-8.5099999999999998

>  <m_primary>  (22) 
energy

>  <rmsd>  (22) 
4.050680235586189

>  <m_score__min__rmsd>  (22) 
4.050680235586189

>  <meeko>  (22) 
{"free_energy": -8.18, "intermolecular_energy": -9.67, "internal_energy": -2.21, "cluster_size": 18, "cluster_id": 2, "rank_in_cluster": 6}

>  <energy>  (22) 
-7.66

>  <cluster_rmsd>  (22) 
0.47

>  <cluster>  (22) 
2

$$$$

     RDKit          3D

 50 53  0  0  0  0  0  0  0  0999 V2000
  140.4050   72.3660  220.7170 O   0  0  0  0  0  0  0  0  0  0  0  0
  140.1210   72.6830  221.8840 C   0  0  0  0  0  0  0  0  0  0  0  0
  139.7860   74.0480  222.1440 N   0  0  0  0  0  0  0  0  0  0  0  0
  139.7750   75.0480  221.0700 C   0  0  0  0  0  0  0  0  0  0  0  0
  140.9720   75.8990  221.1600 C   0  0  0  0  0  0  0  0  0  0  0  0
  141.3270   76.2210  222.3550 O   0  0  0  0  0  0  0  0  0  0  0  0
  141.7600   76.4010  220.1300 N   0  0  0  0  0  0  0  0  0  0  0  0
  141.5220   77.8250  219.7590 C   0  0  0  0  0  0  0  0  0  0  0  0
  141.5890   77.8020  218.2350 C   0  0  0  0  0  0  0  0  0  0  0  0
  141.1710   76.4700  217.6580 C   0  0  0  0  0  0  0  0  0  0  0  0
  142.0510   75.3090  218.0720 C   0  0  0  0  0  0  0  0  0  0  0  0
  142.7590   75.7480  219.3340 C   0  0  2  0  0  0  0  0  0  0  0  0
  143.5910   74.7480  219.9780 C   0  0  0  0  0  0  0  0  0  0  0  0
  143.0940   73.4520  220.0840 C   0  0  0  0  0  0  0  0  0  0  0  0
  143.8670   72.4760  220.6930 C   0  0  0  0  0  0  0  0  0  0  0  0
  145.1270   72.8130  221.1890 C   0  0  0  0  0  0  0  0  0  0  0  0
  145.5910   74.1200  221.0660 C   0  0  0  0  0  0  0  0  0  0  0  0
  144.8160   75.0600  220.4650 N   0  0  0  0  0  0  0  0  0  0  0  0
  140.1100   71.7490  223.0070 C   0  0  0  0  0  0  0  0  0  0  0  0
  139.5880   70.4860  222.7890 C   0  0  0  0  0  0  0  0  0  0  0  0
  139.5620   69.5780  223.8310 C   0  0  0  0  0  0  0  0  0  0  0  0
  140.0470   69.9160  225.0750 C   0  0  0  0  0  0  0  0  0  0  0  0
  140.0390   69.0370  226.1380 C   0  0  0  0  0  0  0  0  0  0  0  0
  140.5420   69.4350  227.3750 C   0  0  0  0  0  0  0  0  0  0  0  0
  140.5390   68.3380  228.7300 Cl  0  0  0  0  0  0  0  0  0  0  0  0
  141.0510   70.7090  227.5360 C   0  0  0  0  0  0  0  0  0  0  0  0
  141.0670   71.6090  226.4680 C   0  0  0  0  0  0  0  0  0  0  0  0
  140.5570   71.1830  225.2440 C   0  0  0  0  0  0  0  0  0  0  0  0
  140.5750   72.0530  224.2250 N   0  0  0  0  0  0  0  0  0  0  0  0
  139.5410   74.3460  223.1280 H   0  0  0  0  0  0  0  0  0  0  0  0
  139.7646   74.5363  220.0963 H   0  0  0  0  0  0  0  0  0  0  0  0
  138.8778   75.6762  221.1719 H   0  0  0  0  0  0  0  0  0  0  0  0
  140.5345   78.1635  220.1057 H   0  0  0  0  0  0  0  0  0  0  0  0
  142.2468   78.5168  220.2130 H   0  0  0  0  0  0  0  0  0  0  0  0
  140.9216   78.5824  217.8407 H   0  0  0  0  0  0  0  0  0  0  0  0
  142.6348   77.9793  217.9435 H   0  0  0  0  0  0  0  0  0  0  0  0
  140.1433   76.2585  217.9883 H   0  0  0  0  0  0  0  0  0  0  0  0
  141.2585   76.5582  216.5650 H   0  0  0  0  0  0  0  0  0  0  0  0
  141.4383   74.4169  218.2687 H   0  0  0  0  0  0  0  0  0  0  0  0
  142.7677   75.0459  217.2801 H   0  0  0  0  0  0  0  0  0  0  0  0
  143.5651   76.4623  219.1105 H   0  0  0  0  0  0  0  0  0  0  0  0
  142.0978   73.2050  219.6884 H   0  0  0  0  0  0  0  0  0  0  0  0
  143.4911   71.4463  220.7844 H   0  0  0  0  0  0  0  0  0  0  0  0
  145.7513   72.0490  221.6753 H   0  0  0  0  0  0  0  0  0  0  0  0
  146.5836   74.3910  221.4549 H   0  0  0  0  0  0  0  0  0  0  0  0
  139.1985   70.2080  221.7985 H   0  0  0  0  0  0  0  0  0  0  0  0
  139.1485   68.5724  223.6645 H   0  0  0  0  0  0  0  0  0  0  0  0
  139.6355   68.0218  226.0092 H   0  0  0  0  0  0  0  0  0  0  0  0
  141.4475   71.0176  228.5145 H   0  0  0  0  0  0  0  0  0  0  0  0
  141.4707   72.6249  226.5901 H   0  0  0  0  0  0  0  0  0  0  0  0
  1  2  2  0
  2  3  1  0
  3  4  1  0
  4  5  1  0
  5  6  2  0
  5  7  1  0
  7  8  1  0
  8  9  1  0
  9 10  1  0
 10 11  1  0
 11 12  1  0
 12 13  1  0
 13 14  2  0
 14 15  1  0
 15 16  2  0
 16 17  1  0
 17 18  2  0
  2 19  1  0
 19 20  2  0
 20 21  1  0
 21 22  2  0
 22 23  1  0
 23 24  2  0
 24 25  1  0
 24 26  1  0
 26 27  2  0
 27 28  1  0
 28 29  2  0
 12  7  1  0
 18 13  1  0
 29 19  1  0
 28 22  1  0
  3 30  1  0
  4 31  1  0
  4 32  1  0
  8 33  1  0
  8 34  1  0
  9 35  1  0
  9 36  1  0
 10 37  1  0
 10 38  1  0
 11 39  1  0
 11 40  1  0
 12 41  1  6
 14 42  1  0
 15 43  1  0
 16 44  1  0
 17 45  1  0
 20 46  1  0
 21 47  1  0
 23 48  1  0
 26 49  1  0
 27 50  1  0
M  END
>  <smiles>  (23) 
O=C(NCC(=O)N1CCCCC1c1ccccn1)c1ccc2cc(Cl)ccc2n1

>  <score_type>  (23) 
oracle

>  <origin>  (23) 
autodockgpu

>  <m_score__min__energy>  (23) 
-8.5099999999999998

>  <m_primary>  (23) 
energy

>  <rmsd>  (23) 
4.119697805563947

>  <m_score__min__rmsd>  (23) 
4.119697805563947

>  <meeko>  (23) 
{"free_energy": -7.99, "intermolecular_energy": -9.48, "internal_energy": -2.06, "cluster_size": 18, "cluster_id": 2, "rank_in_cluster": 8}

>  <energy>  (23) 
-7.48

>  <cluster_rmsd>  (23) 
1.99

>  <cluster>  (23) 
2

$$$$

     RDKit          3D

 50 53  0  0  0  0  0  0  0  0999 V2000
  140.9730   71.4130  221.2820 O   0  0  0  0  0  0  0  0  0  0  0  0
  140.8620   72.4110  222.0130 C   0  0  0  0  0  0  0  0  0  0  0  0
  140.4740   72.2040  223.3720 N   0  0  0  0  0  0  0  0  0  0  0  0
  140.2140   70.8580  223.8950 C   0  0  0  0  0  0  0  0  0  0  0  0
  140.3830   70.8410  225.3570 C   0  0  0  0  0  0  0  0  0  0  0  0
  141.1190   71.7850  225.8340 O   0  0  0  0  0  0  0  0  0  0  0  0
  139.8600   69.9450  226.2820 N   0  0  0  0  0  0  0  0  0  0  0  0
  139.9960   70.3320  227.7140 C   0  0  0  0  0  0  0  0  0  0  0  0
  140.3690   69.0180  228.3940 C   0  0  0  0  0  0  0  0  0  0  0  0
  141.1140   68.0810  227.4710 C   0  0  0  0  0  0  0  0  0  0  0  0
  140.3210   67.6430  226.2580 C   0  0  0  0  0  0  0  0  0  0  0  0
  139.2290   68.6740  226.0760 C   0  0  2  0  0  0  0  0  0  0  0  0
  138.3940   68.5150  224.8990 C   0  0  0  0  0  0  0  0  0  0  0  0
  137.1520   69.1450  224.8880 C   0  0  0  0  0  0  0  0  0  0  0  0
  136.3330   69.0110  223.7780 C   0  0  0  0  0  0  0  0  0  0  0  0
  136.7690   68.2470  222.6940 C   0  0  0  0  0  0  0  0  0  0  0  0
  138.0170   67.6310  222.7420 C   0  0  0  0  0  0  0  0  0  0  0  0
  138.8030   67.7760  223.8410 N   0  0  0  0  0  0  0  0  0  0  0  0
  141.1020   73.7820  221.5700 C   0  0  0  0  0  0  0  0  0  0  0  0
  141.9260   73.9710  220.4740 C   0  0  0  0  0  0  0  0  0  0  0  0
  142.1750   75.2560  220.0300 C   0  0  0  0  0  0  0  0  0  0  0  0
  141.6130   76.3430  220.6620 C   0  0  0  0  0  0  0  0  0  0  0  0
  141.8370   77.6390  220.2460 C   0  0  0  0  0  0  0  0  0  0  0  0
  141.2410   78.7000  220.9260 C   0  0  0  0  0  0  0  0  0  0  0  0
  141.5130   80.3450  220.4160 Cl  0  0  0  0  0  0  0  0  0  0  0  0
  140.4270   78.4540  222.0140 C   0  0  0  0  0  0  0  0  0  0  0  0
  140.1910   77.1470  222.4450 C   0  0  0  0  0  0  0  0  0  0  0  0
  140.7990   76.1070  221.7460 C   0  0  0  0  0  0  0  0  0  0  0  0
  140.5680   74.8560  222.1670 N   0  0  0  0  0  0  0  0  0  0  0  0
  140.3710   73.0350  224.0170 H   0  0  0  0  0  0  0  0  0  0  0  0
  139.1843   70.5632  223.6445 H   0  0  0  0  0  0  0  0  0  0  0  0
  140.9264   70.1526  223.4424 H   0  0  0  0  0  0  0  0  0  0  0  0
  140.7880   71.0838  227.8463 H   0  0  0  0  0  0  0  0  0  0  0  0
  139.0844   70.7888  228.1268 H   0  0  0  0  0  0  0  0  0  0  0  0
  141.0067   69.2387  229.2627 H   0  0  0  0  0  0  0  0  0  0  0  0
  139.4355   68.5198  228.6945 H   0  0  0  0  0  0  0  0  0  0  0  0
  142.0238   68.5916  227.1222 H   0  0  0  0  0  0  0  0  0  0  0  0
  141.3308   67.1722  228.0515 H   0  0  0  0  0  0  0  0  0  0  0  0
  140.9686   67.6119  225.3694 H   0  0  0  0  0  0  0  0  0  0  0  0
  139.9030   66.6346  226.3938 H   0  0  0  0  0  0  0  0  0  0  0  0
  138.4298   68.5441  226.8206 H   0  0  0  0  0  0  0  0  0  0  0  0
  136.8244   69.7428  225.7514 H   0  0  0  0  0  0  0  0  0  0  0  0
  135.3490   69.5019  223.7514 H   0  0  0  0  0  0  0  0  0  0  0  0
  136.1298   68.1321  221.8062 H   0  0  0  0  0  0  0  0  0  0  0  0
  138.3662   67.0276  221.8911 H   0  0  0  0  0  0  0  0  0  0  0  0
  142.3775   73.1083  219.9622 H   0  0  0  0  0  0  0  0  0  0  0  0
  142.8305   75.4125  219.1606 H   0  0  0  0  0  0  0  0  0  0  0  0
  142.4850   77.8350  219.3790 H   0  0  0  0  0  0  0  0  0  0  0  0
  139.9600   79.2958  222.5463 H   0  0  0  0  0  0  0  0  0  0  0  0
  139.5439   76.9447  223.3112 H   0  0  0  0  0  0  0  0  0  0  0  0
  1  2  2  0
  2  3  1  0
  3  4  1  0
  4  5  1  0
  5  6  2  0
  5  7  1  0
  7  8  1  0
  8  9  1  0
  9 10  1  0
 10 11  1  0
 11 12  1  0
 12 13  1  0
 13 14  2  0
 14 15  1  0
 15 16  2  0
 16 17  1  0
 17 18  2  0
  2 19  1  0
 19 20  2  0
 20 21  1  0
 21 22  2  0
 22 23  1  0
 23 24  2  0
 24 25  1  0
 24 26  1  0
 26 27  2  0
 27 28  1  0
 28 29  2  0
 12  7  1  0
 18 13  1  0
 29 19  1  0
 28 22  1  0
  3 30  1  0
  4 31  1  0
  4 32  1  0
  8 33  1  0
  8 34  1  0
  9 35  1  0
  9 36  1  0
 10 37  1  0
 10 38  1  0
 11 39  1  0
 11 40  1  0
 12 41  1  1
 14 42  1  0
 15 43  1  0
 16 44  1  0
 17 45  1  0
 20 46  1  0
 21 47  1  0
 23 48  1  0
 26 49  1  0
 27 50  1  0
M  END
>  <smiles>  (24) 
O=C(NCC(=O)N1CCCCC1c1ccccn1)c1ccc2cc(Cl)ccc2n1

>  <score_type>  (24) 
oracle

>  <origin>  (24) 
autodockgpu

>  <m_score__min__energy>  (24) 
-8.5099999999999998

>  <m_primary>  (24) 
energy

>  <rmsd>  (24) 
9.900094306802051

>  <m_score__min__rmsd>  (24) 
9.900094306802051

>  <meeko>  (24) 
{"free_energy": -8.28, "intermolecular_energy": -9.78, "internal_energy": -2.0, "cluster_size": 4, "cluster_id": 3, "rank_in_cluster": 2}

>  <energy>  (24) 
-7.42

>  <cluster_rmsd>  (24) 
1.95

>  <cluster>  (24) 
2

$$$$

     RDKit          3D

 50 53  0  0  0  0  0  0  0  0999 V2000
  134.0060   69.7540  226.4630 O   0  0  0  0  0  0  0  0  0  0  0  0
  134.2730   70.9200  226.1260 C   0  0  0  0  0  0  0  0  0  0  0  0
  135.3880   71.1250  225.2570 N   0  0  0  0  0  0  0  0  0  0  0  0
  136.1960   69.9990  224.7730 C   0  0  0  0  0  0  0  0  0  0  0  0
  137.2620   70.4880  223.8830 C   0  0  0  0  0  0  0  0  0  0  0  0
  137.0640   71.6580  223.3810 O   0  0  0  0  0  0  0  0  0  0  0  0
  138.4430   69.8540  223.5140 N   0  0  0  0  0  0  0  0  0  0  0  0
  138.6590   69.6770  222.0510 C   0  0  0  0  0  0  0  0  0  0  0  0
  139.2380   68.2680  221.9530 C   0  0  0  0  0  0  0  0  0  0  0  0
  138.7640   67.3720  223.0740 C   0  0  0  0  0  0  0  0  0  0  0  0
  139.1770   67.8330  224.4560 C   0  0  0  0  0  0  0  0  0  0  0  0
  139.4880   69.3080  224.3310 C   0  0  2  0  0  0  0  0  0  0  0  0
  139.8130   69.9970  225.5660 C   0  0  0  0  0  0  0  0  0  0  0  0
  139.4500   69.3930  226.7670 C   0  0  0  0  0  0  0  0  0  0  0  0
  139.7480   70.0280  227.9630 C   0  0  0  0  0  0  0  0  0  0  0  0
  140.4050   71.2590  227.9390 C   0  0  0  0  0  0  0  0  0  0  0  0
  140.7510   71.8320  226.7180 C   0  0  0  0  0  0  0  0  0  0  0  0
  140.4490   71.1920  225.5580 N   0  0  0  0  0  0  0  0  0  0  0  0
  133.5200   72.0920  226.5650 C   0  0  0  0  0  0  0  0  0  0  0  0
  132.2990   71.8810  227.1790 C   0  0  0  0  0  0  0  0  0  0  0  0
  131.5600   72.9690  227.6050 C   0  0  0  0  0  0  0  0  0  0  0  0
  132.0270   74.2530  227.4260 C   0  0  0  0  0  0  0  0  0  0  0  0
  131.3190   75.3630  227.8380 C   0  0  0  0  0  0  0  0  0  0  0  0
  131.8410   76.6380  227.6280 C   0  0  0  0  0  0  0  0  0  0  0  0
  130.9600   78.0520  228.1420 Cl  0  0  0  0  0  0  0  0  0  0  0  0
  133.0660   76.7900  227.0100 C   0  0  0  0  0  0  0  0  0  0  0  0
  133.7940   75.6760  226.5880 C   0  0  0  0  0  0  0  0  0  0  0  0
  133.2470   74.4140  226.8110 C   0  0  0  0  0  0  0  0  0  0  0  0
  133.9510   73.3500  226.4020 N   0  0  0  0  0  0  0  0  0  0  0  0
  135.6390   72.1070  224.9550 H   0  0  0  0  0  0  0  0  0  0  0  0
  136.6479   69.4799  225.6311 H   0  0  0  0  0  0  0  0  0  0  0  0
  135.5500   69.3057  224.2145 H   0  0  0  0  0  0  0  0  0  0  0  0
  137.7100   69.7529  221.4999 H   0  0  0  0  0  0  0  0  0  0  0  0
  139.3153   70.4448  221.6154 H   0  0  0  0  0  0  0  0  0  0  0  0
  138.9315   67.8259  220.9935 H   0  0  0  0  0  0  0  0  0  0  0  0
  140.3325   68.3488  222.0277 H   0  0  0  0  0  0  0  0  0  0  0  0
  137.6654   67.3283  223.0392 H   0  0  0  0  0  0  0  0  0  0  0  0
  139.2357   66.3911  222.9147 H   0  0  0  0  0  0  0  0  0  0  0  0
  138.3570   67.6751  225.1720 H   0  0  0  0  0  0  0  0  0  0  0  0
  140.0465   67.2689  224.8245 H   0  0  0  0  0  0  0  0  0  0  0  0
  140.4560   69.4711  223.8346 H   0  0  0  0  0  0  0  0  0  0  0  0
  138.9323   68.4224  226.7669 H   0  0  0  0  0  0  0  0  0  0  0  0
  139.4693   69.5659  228.9215 H   0  0  0  0  0  0  0  0  0  0  0  0
  140.6483   71.7741  228.8800 H   0  0  0  0  0  0  0  0  0  0  0  0
  141.2686   72.8023  226.6925 H   0  0  0  0  0  0  0  0  0  0  0  0
  131.9200   70.8590  227.3268 H   0  0  0  0  0  0  0  0  0  0  0  0
  130.5873   72.8077  228.0928 H   0  0  0  0  0  0  0  0  0  0  0  0
  130.3435   75.2419  228.3317 H   0  0  0  0  0  0  0  0  0  0  0  0
  133.4727   77.7992  226.8484 H   0  0  0  0  0  0  0  0  0  0  0  0
  134.7702   75.7911  226.0942 H   0  0  0  0  0  0  0  0  0  0  0  0
  1  2  2  0
  2  3  1  0
  3  4  1  0
  4  5  1  0
  5  6  2  0
  5  7  1  0
  7  8  1  0
  8  9  1  0
  9 10  1  0
 10 11  1  0
 11 12  1  0
 12 13  1  0
 13 14  2  0
 14 15  1  0
 15 16  2  0
 16 17  1  0
 17 18  2  0
  2 19  1  0
 19 20  2  0
 20 21  1  0
 21 22  2  0
 22 23  1  0
 23 24  2  0
 24 25  1  0
 24 26  1  0
 26 27  2  0
 27 28  1  0
 28 29  2  0
 12  7  1  0
 18 13  1  0
 29 19  1  0
 28 22  1  0
  3 30  1  0
  4 31  1  0
  4 32  1  0
  8 33  1  0
  8 34  1  0
  9 35  1  0
  9 36  1  0
 10 37  1  0
 10 38  1  0
 11 39  1  0
 11 40  1  0
 12 41  1  6
 14 42  1  0
 15 43  1  0
 16 44  1  0
 17 45  1  0
 20 46  1  0
 21 47  1  0
 23 48  1  0
 26 49  1  0
 27 50  1  0
M  END
>  <smiles>  (25) 
O=C(NCC(=O)N1CCCCC1c1ccccn1)c1ccc2cc(Cl)ccc2n1

>  <score_type>  (25) 
oracle

>  <origin>  (25) 
autodockgpu

>  <m_score__min__energy>  (25) 
-8.5099999999999998

>  <m_primary>  (25) 
energy

>  <rmsd>  (25) 
9.280941804567359

>  <m_score__min__rmsd>  (25) 
9.280941804567359

>  <meeko>  (25) 
{"free_energy": -7.79, "intermolecular_energy": -9.28, "internal_energy": -2.24, "cluster_size": 6, "cluster_id": 5, "rank_in_cluster": 4}

>  <energy>  (25) 
-7.42

>  <cluster_rmsd>  (25) 
1.99

>  <cluster>  (25) 
2

$$$$

     RDKit          3D

 50 53  0  0  0  0  0  0  0  0999 V2000
  142.0350   78.9230  217.1850 O   0  0  0  0  0  0  0  0  0  0  0  0
  142.3730   78.3000  218.2060 C   0  0  0  0  0  0  0  0  0  0  0  0
  142.2070   78.9480  219.4690 N   0  0  0  0  0  0  0  0  0  0  0  0
  141.6540   80.3040  219.5640 C   0  0  0  0  0  0  0  0  0  0  0  0
  140.6530   80.3670  220.6410 C   0  0  0  0  0  0  0  0  0  0  0  0
  139.4490   80.6220  220.2580 O   0  0  0  0  0  0  0  0  0  0  0  0
  140.8360   80.1940  222.0090 N   0  0  0  0  0  0  0  0  0  0  0  0
  140.6780   81.4140  222.8490 C   0  0  0  0  0  0  0  0  0  0  0  0
  141.8150   81.2900  223.8590 C   0  0  0  0  0  0  0  0  0  0  0  0
  142.9960   80.5250  223.3080 C   0  0  0  0  0  0  0  0  0  0  0  0
  142.6890   79.0900  222.9360 C   0  0  0  0  0  0  0  0  0  0  0  0
  141.1900   79.0160  222.7470 C   0  0  2  0  0  0  0  0  0  0  0  0
  140.6690   77.7440  222.2840 C   0  0  0  0  0  0  0  0  0  0  0  0
  139.3890   77.3730  222.6890 C   0  0  0  0  0  0  0  0  0  0  0  0
  138.8650   76.1630  222.2620 C   0  0  0  0  0  0  0  0  0  0  0  0
  139.6310   75.3410  221.4340 C   0  0  0  0  0  0  0  0  0  0  0  0
  140.9070   75.7440  221.0500 C   0  0  0  0  0  0  0  0  0  0  0  0
  141.4000   76.9340  221.4810 N   0  0  0  0  0  0  0  0  0  0  0  0
  142.9300   76.9500  218.1960 C   0  0  0  0  0  0  0  0  0  0  0  0
  143.0000   76.2910  216.9820 C   0  0  0  0  0  0  0  0  0  0  0  0
  143.5220   75.0120  216.9370 C   0  0  0  0  0  0  0  0  0  0  0  0
  143.9700   74.3920  218.0820 C   0  0  0  0  0  0  0  0  0  0  0  0
  144.4970   73.1170  218.0770 C   0  0  0  0  0  0  0  0  0  0  0  0
  144.9340   72.5400  219.2680 C   0  0  0  0  0  0  0  0  0  0  0  0
  145.6030   70.9300  219.2810 Cl  0  0  0  0  0  0  0  0  0  0  0  0
  144.8410   73.2440  220.4520 C   0  0  0  0  0  0  0  0  0  0  0  0
  144.3100   74.5360  220.4730 C   0  0  0  0  0  0  0  0  0  0  0  0
  143.8810   75.0860  219.2670 C   0  0  0  0  0  0  0  0  0  0  0  0
  143.3720   76.3260  219.2950 N   0  0  0  0  0  0  0  0  0  0  0  0
  142.4860   78.4430  220.3540 H   0  0  0  0  0  0  0  0  0  0  0  0
  142.4661   81.0139  219.7799 H   0  0  0  0  0  0  0  0  0  0  0  0
  141.1733   80.5647  218.6096 H   0  0  0  0  0  0  0  0  0  0  0  0
  140.7853   82.3264  222.2440 H   0  0  0  0  0  0  0  0  0  0  0  0
  139.6872   81.4880  223.3210 H   0  0  0  0  0  0  0  0  0  0  0  0
  142.1487   82.2996  224.1406 H   0  0  0  0  0  0  0  0  0  0  0  0
  141.4320   80.7344  224.7277 H   0  0  0  0  0  0  0  0  0  0  0  0
  143.3540   81.0455  222.4075 H   0  0  0  0  0  0  0  0  0  0  0  0
  143.7497   80.4890  224.1084 H   0  0  0  0  0  0  0  0  0  0  0  0
  143.2051   78.8189  222.0032 H   0  0  0  0  0  0  0  0  0  0  0  0
  143.0304   78.3917  223.7143 H   0  0  0  0  0  0  0  0  0  0  0  0
  140.6650   79.0253  223.7136 H   0  0  0  0  0  0  0  0  0  0  0  0
  138.7997   78.0340  223.3415 H   0  0  0  0  0  0  0  0  0  0  0  0
  137.8560   75.8538  222.5724 H   0  0  0  0  0  0  0  0  0  0  0  0
  139.2280   74.3784  221.0862 H   0  0  0  0  0  0  0  0  0  0  0  0
  141.5152   75.0995  220.3983 H   0  0  0  0  0  0  0  0  0  0  0  0
  142.6443   76.7793  216.0627 H   0  0  0  0  0  0  0  0  0  0  0  0
  143.5803   74.4827  215.9745 H   0  0  0  0  0  0  0  0  0  0  0  0
  144.5722   72.5562  217.1337 H   0  0  0  0  0  0  0  0  0  0  0  0
  145.1885   72.7829  221.3883 H   0  0  0  0  0  0  0  0  0  0  0  0
  144.2330   75.1018  221.4132 H   0  0  0  0  0  0  0  0  0  0  0  0
  1  2  2  0
  2  3  1  0
  3  4  1  0
  4  5  1  0
  5  6  2  0
  5  7  1  0
  7  8  1  0
  8  9  1  0
  9 10  1  0
 10 11  1  0
 11 12  1  0
 12 13  1  0
 13 14  2  0
 14 15  1  0
 15 16  2  0
 16 17  1  0
 17 18  2  0
  2 19  1  0
 19 20  2  0
 20 21  1  0
 21 22  2  0
 22 23  1  0
 23 24  2  0
 24 25  1  0
 24 26  1  0
 26 27  2  0
 27 28  1  0
 28 29  2  0
 12  7  1  0
 18 13  1  0
 29 19  1  0
 28 22  1  0
  3 30  1  0
  4 31  1  0
  4 32  1  0
  8 33  1  0
  8 34  1  0
  9 35  1  0
  9 36  1  0
 10 37  1  0
 10 38  1  0
 11 39  1  0
 11 40  1  0
 12 41  1  1
 14 42  1  0
 15 43  1  0
 16 44  1  0
 17 45  1  0
 20 46  1  0
 21 47  1  0
 23 48  1  0
 26 49  1  0
 27 50  1  0
M  END
>  <smiles>  (26) 
O=C(NCC(=O)N1CCCCC1c1ccccn1)c1ccc2cc(Cl)ccc2n1

>  <score_type>  (26) 
oracle

>  <origin>  (26) 
autodockgpu

>  <m_score__min__energy>  (26) 
-8.5099999999999998

>  <m_primary>  (26) 
energy

>  <rmsd>  (26) 
7.872072268078537

>  <m_score__min__rmsd>  (26) 
7.872072268078537

>  <meeko>  (26) 
{"free_energy": -6.69, "intermolecular_energy": -8.18, "internal_energy": -3.09, "cluster_size": 3, "cluster_id": 9, "rank_in_cluster": 3}

>  <energy>  (26) 
-7.41

>  <cluster_rmsd>  (26) 
1.96

>  <cluster>  (26) 
2

$$$$

     RDKit          3D

 50 53  0  0  0  0  0  0  0  0999 V2000
  134.0900   69.8120  226.4220 O   0  0  0  0  0  0  0  0  0  0  0  0
  134.2970   70.9780  226.0470 C   0  0  0  0  0  0  0  0  0  0  0  0
  135.3420   71.2000  225.0980 N   0  0  0  0  0  0  0  0  0  0  0  0
  136.1480   70.0890  224.5780 C   0  0  0  0  0  0  0  0  0  0  0  0
  137.3590   70.6080  223.9220 C   0  0  0  0  0  0  0  0  0  0  0  0
  137.3430   71.8700  223.6600 O   0  0  0  0  0  0  0  0  0  0  0  0
  138.5070   69.9190  223.5470 N   0  0  0  0  0  0  0  0  0  0  0  0
  138.6910   69.7050  222.0840 C   0  0  0  0  0  0  0  0  0  0  0  0
  139.2090   68.2710  222.0060 C   0  0  0  0  0  0  0  0  0  0  0  0
  138.7180   67.4170  223.1510 C   0  0  0  0  0  0  0  0  0  0  0  0
  139.1720   67.8870  224.5170 C   0  0  0  0  0  0  0  0  0  0  0  0
  139.5420   69.3450  224.3570 C   0  0  2  0  0  0  0  0  0  0  0  0
  139.9150   70.0440  225.5740 C   0  0  0  0  0  0  0  0  0  0  0  0
  140.6870   71.1970  225.4560 C   0  0  0  0  0  0  0  0  0  0  0  0
  141.0580   71.8850  226.6000 C   0  0  0  0  0  0  0  0  0  0  0  0
  140.6520   71.4080  227.8470 C   0  0  0  0  0  0  0  0  0  0  0  0
  139.8820   70.2510  227.9260 C   0  0  0  0  0  0  0  0  0  0  0  0
  139.5290   69.5920  226.7910 N   0  0  0  0  0  0  0  0  0  0  0  0
  133.5400   72.1360  226.5160 C   0  0  0  0  0  0  0  0  0  0  0  0
  132.3300   71.9020  227.1470 C   0  0  0  0  0  0  0  0  0  0  0  0
  131.5890   72.9760  227.6020 C   0  0  0  0  0  0  0  0  0  0  0  0
  132.0400   74.2670  227.4370 C   0  0  0  0  0  0  0  0  0  0  0  0
  131.3280   75.3630  227.8780 C   0  0  0  0  0  0  0  0  0  0  0  0
  131.8340   76.6470  227.6810 C   0  0  0  0  0  0  0  0  0  0  0  0
  130.9480   78.0440  228.2320 Cl  0  0  0  0  0  0  0  0  0  0  0  0
  133.0470   76.8210  227.0450 C   0  0  0  0  0  0  0  0  0  0  0  0
  133.7790   75.7210  226.5930 C   0  0  0  0  0  0  0  0  0  0  0  0
  133.2480   74.4510  226.8040 C   0  0  0  0  0  0  0  0  0  0  0  0
  133.9560   73.4000  226.3670 N   0  0  0  0  0  0  0  0  0  0  0  0
  135.5400   72.1820  224.7620 H   0  0  0  0  0  0  0  0  0  0  0  0
  136.4384   69.4297  225.4092 H   0  0  0  0  0  0  0  0  0  0  0  0
  135.5537   69.5251  223.8439 H   0  0  0  0  0  0  0  0  0  0  0  0
  137.7370   69.8100  221.5466 H   0  0  0  0  0  0  0  0  0  0  0  0
  139.3711   70.4360  221.6224 H   0  0  0  0  0  0  0  0  0  0  0  0
  138.8685   67.8236  221.0606 H   0  0  0  0  0  0  0  0  0  0  0  0
  140.3069   68.3080  222.0627 H   0  0  0  0  0  0  0  0  0  0  0  0
  137.6181   67.4174  223.1343 H   0  0  0  0  0  0  0  0  0  0  0  0
  139.1469   66.4149  223.0036 H   0  0  0  0  0  0  0  0  0  0  0  0
  138.3577   67.7778  225.2485 H   0  0  0  0  0  0  0  0  0  0  0  0
  140.0229   67.2942  224.8838 H   0  0  0  0  0  0  0  0  0  0  0  0
  140.5072   69.4569  223.8413 H   0  0  0  0  0  0  0  0  0  0  0  0
  140.9990   71.5578  224.4648 H   0  0  0  0  0  0  0  0  0  0  0  0
  141.6666   72.7983  226.5260 H   0  0  0  0  0  0  0  0  0  0  0  0
  140.9392   71.9440  228.7636 H   0  0  0  0  0  0  0  0  0  0  0  0
  139.5595   69.8704  228.9064 H   0  0  0  0  0  0  0  0  0  0  0  0
  131.9632   70.8741  227.2844 H   0  0  0  0  0  0  0  0  0  0  0  0
  130.6260   72.7975  228.1027 H   0  0  0  0  0  0  0  0  0  0  0  0
  130.3616   75.2240  228.3848 H   0  0  0  0  0  0  0  0  0  0  0  0
  133.4409   77.8367  226.8927 H   0  0  0  0  0  0  0  0  0  0  0  0
  134.7459   75.8537  226.0856 H   0  0  0  0  0  0  0  0  0  0  0  0
  1  2  2  0
  2  3  1  0
  3  4  1  0
  4  5  1  0
  5  6  2  0
  5  7  1  0
  7  8  1  0
  8  9  1  0
  9 10  1  0
 10 11  1  0
 11 12  1  0
 12 13  1  0
 13 14  2  0
 14 15  1  0
 15 16  2  0
 16 17  1  0
 17 18  2  0
  2 19  1  0
 19 20  2  0
 20 21  1  0
 21 22  2  0
 22 23  1  0
 23 24  2  0
 24 25  1  0
 24 26  1  0
 26 27  2  0
 27 28  1  0
 28 29  2  0
 12  7  1  0
 18 13  1  0
 29 19  1  0
 28 22  1  0
  3 30  1  0
  4 31  1  0
  4 32  1  0
  8 33  1  0
  8 34  1  0
  9 35  1  0
  9 36  1  0
 10 37  1  0
 10 38  1  0
 11 39  1  0
 11 40  1  0
 12 41  1  6
 14 42  1  0
 15 43  1  0
 16 44  1  0
 17 45  1  0
 20 46  1  0
 21 47  1  0
 23 48  1  0
 26 49  1  0
 27 50  1  0
M  END
>  <smiles>  (27) 
O=C(NCC(=O)N1CCCCC1c1ccccn1)c1ccc2cc(Cl)ccc2n1

>  <score_type>  (27) 
oracle

>  <origin>  (27) 
autodockgpu

>  <m_score__min__energy>  (27) 
-8.5099999999999998

>  <m_primary>  (27) 
energy

>  <rmsd>  (27) 
9.028652899092796

>  <m_score__min__rmsd>  (27) 
9.028652899092796

>  <meeko>  (27) 
{"free_energy": -7.89, "intermolecular_energy": -9.38, "internal_energy": -2.22, "cluster_size": 6, "cluster_id": 5, "rank_in_cluster": 1}

>  <energy>  (27) 
-7.39

>  <cluster_rmsd>  (27) 
1.95

>  <cluster>  (27) 
2

$$$$

     RDKit          3D

 50 53  0  0  0  0  0  0  0  0999 V2000
  142.4890   73.1890  220.4820 O   0  0  0  0  0  0  0  0  0  0  0  0
  141.7080   73.8800  221.1570 C   0  0  0  0  0  0  0  0  0  0  0  0
  140.7920   73.2030  222.0200 N   0  0  0  0  0  0  0  0  0  0  0  0
  140.7710   71.7390  222.1130 C   0  0  0  0  0  0  0  0  0  0  0  0
  139.5660   71.2950  222.8320 C   0  0  0  0  0  0  0  0  0  0  0  0
  138.6840   72.2110  223.0410 O   0  0  0  0  0  0  0  0  0  0  0  0
  139.2600   70.0280  223.3140 N   0  0  0  0  0  0  0  0  0  0  0  0
  139.1650   68.9460  222.2940 C   0  0  0  0  0  0  0  0  0  0  0  0
  137.9520   68.1420  222.7520 C   0  0  0  0  0  0  0  0  0  0  0  0
  136.9470   68.9890  223.4990 C   0  0  0  0  0  0  0  0  0  0  0  0
  137.4770   69.5970  224.7800 C   0  0  0  0  0  0  0  0  0  0  0  0
  138.9850   69.5950  224.6530 C   0  0  2  0  0  0  0  0  0  0  0  0
  139.7150   70.2310  225.7350 C   0  0  0  0  0  0  0  0  0  0  0  0
  139.5880   69.6960  227.0140 C   0  0  0  0  0  0  0  0  0  0  0  0
  140.2740   70.2830  228.0660 C   0  0  0  0  0  0  0  0  0  0  0  0
  141.0780   71.3970  227.8220 C   0  0  0  0  0  0  0  0  0  0  0  0
  141.1800   71.9050  226.5290 C   0  0  0  0  0  0  0  0  0  0  0  0
  140.4980   71.3140  225.5130 N   0  0  0  0  0  0  0  0  0  0  0  0
  141.6660   75.3400  221.1210 C   0  0  0  0  0  0  0  0  0  0  0  0
  142.2410   75.9750  220.0350 C   0  0  0  0  0  0  0  0  0  0  0  0
  142.2190   77.3550  219.9710 C   0  0  0  0  0  0  0  0  0  0  0  0
  141.6340   78.0990  220.9710 C   0  0  0  0  0  0  0  0  0  0  0  0
  141.5920   79.4780  220.9420 C   0  0  0  0  0  0  0  0  0  0  0  0
  140.9870   80.1780  221.9840 C   0  0  0  0  0  0  0  0  0  0  0  0
  140.9250   81.9200  221.9640 Cl  0  0  0  0  0  0  0  0  0  0  0  0
  140.4290   79.4930  223.0440 C   0  0  0  0  0  0  0  0  0  0  0  0
  140.4630   78.0970  223.0870 C   0  0  0  0  0  0  0  0  0  0  0  0
  141.0750   77.4250  222.0320 C   0  0  0  0  0  0  0  0  0  0  0  0
  141.1040   76.0860  222.0810 N   0  0  0  0  0  0  0  0  0  0  0  0
  140.1160   73.7660  222.6060 H   0  0  0  0  0  0  0  0  0  0  0  0
  140.7690   71.3101  221.1001 H   0  0  0  0  0  0  0  0  0  0  0  0
  141.6625   71.4003  222.6612 H   0  0  0  0  0  0  0  0  0  0  0  0
  139.0049   69.3639  221.2892 H   0  0  0  0  0  0  0  0  0  0  0  0
  140.0808   68.3412  222.2196 H   0  0  0  0  0  0  0  0  0  0  0  0
  137.4611   67.7089  221.8680 H   0  0  0  0  0  0  0  0  0  0  0  0
  138.3081   67.3603  223.4392 H   0  0  0  0  0  0  0  0  0  0  0  0
  136.6249   69.8062  222.8369 H   0  0  0  0  0  0  0  0  0  0  0  0
  136.1212   68.3208  223.7847 H   0  0  0  0  0  0  0  0  0  0  0  0
  137.1051   70.6256  224.8968 H   0  0  0  0  0  0  0  0  0  0  0  0
  137.1472   69.0277  225.6615 H   0  0  0  0  0  0  0  0  0  0  0  0
  139.3964   68.5849  224.7957 H   0  0  0  0  0  0  0  0  0  0  0  0
  138.9501   68.8169  227.1880 H   0  0  0  0  0  0  0  0  0  0  0  0
  140.1853   69.8744  229.0834 H   0  0  0  0  0  0  0  0  0  0  0  0
  141.6289   71.8720  228.6472 H   0  0  0  0  0  0  0  0  0  0  0  0
  141.8117   72.7834  226.3306 H   0  0  0  0  0  0  0  0  0  0  0  0
  142.7103   75.3881  219.2317 H   0  0  0  0  0  0  0  0  0  0  0  0
  142.6747   77.8659  219.1100 H   0  0  0  0  0  0  0  0  0  0  0  0
  142.0359   80.0244  220.0968 H   0  0  0  0  0  0  0  0  0  0  0  0
  139.9527   80.0516  223.8632 H   0  0  0  0  0  0  0  0  0  0  0  0
  140.0196   77.5452  223.9290 H   0  0  0  0  0  0  0  0  0  0  0  0
  1  2  2  0
  2  3  1  0
  3  4  1  0
  4  5  1  0
  5  6  2  0
  5  7  1  0
  7  8  1  0
  8  9  1  0
  9 10  1  0
 10 11  1  0
 11 12  1  0
 12 13  1  0
 13 14  2  0
 14 15  1  0
 15 16  2  0
 16 17  1  0
 17 18  2  0
  2 19  1  0
 19 20  2  0
 20 21  1  0
 21 22  2  0
 22 23  1  0
 23 24  2  0
 24 25  1  0
 24 26  1  0
 26 27  2  0
 27 28  1  0
 28 29  2  0
 12  7  1  0
 18 13  1  0
 29 19  1  0
 28 22  1  0
  3 30  1  0
  4 31  1  0
  4 32  1  0
  8 33  1  0
  8 34  1  0
  9 35  1  0
  9 36  1  0
 10 37  1  0
 10 38  1  0
 11 39  1  0
 11 40  1  0
 12 41  1  6
 14 42  1  0
 15 43  1  0
 16 44  1  0
 17 45  1  0
 20 46  1  0
 21 47  1  0
 23 48  1  0
 26 49  1  0
 27 50  1  0
M  END
>  <smiles>  (28) 
O=C(NCC(=O)N1CCCCC1c1ccccn1)c1ccc2cc(Cl)ccc2n1

>  <score_type>  (28) 
oracle

>  <origin>  (28) 
autodockgpu

>  <m_score__min__energy>  (28) 
-8.5099999999999998

>  <m_primary>  (28) 
energy

>  <rmsd>  (28) 
9.190110094150544

>  <m_score__min__rmsd>  (28) 
9.190110094150544

>  <meeko>  (28) 
{"free_energy": -7.71, "intermolecular_energy": -9.2, "internal_energy": -2.11, "cluster_size": 3, "cluster_id": 6, "rank_in_cluster": 3}

>  <energy>  (28) 
-7.35

>  <cluster_rmsd>  (28) 
1.95

>  <cluster>  (28) 
2

$$$$

     RDKit          3D

 50 53  0  0  0  0  0  0  0  0999 V2000
  137.6420   71.2550  220.8320 O   0  0  0  0  0  0  0  0  0  0  0  0
  138.0900   71.7850  221.8620 C   0  0  0  0  0  0  0  0  0  0  0  0
  138.2150   73.2080  221.8820 N   0  0  0  0  0  0  0  0  0  0  0  0
  137.8240   74.0240  220.7260 C   0  0  0  0  0  0  0  0  0  0  0  0
  137.8810   75.4530  221.0730 C   0  0  0  0  0  0  0  0  0  0  0  0
  137.0170   76.1980  220.4740 O   0  0  0  0  0  0  0  0  0  0  0  0
  138.7420   76.0990  221.9540 N   0  0  0  0  0  0  0  0  0  0  0  0
  138.0940   76.9090  223.0240 C   0  0  0  0  0  0  0  0  0  0  0  0
  138.9640   78.1620  223.0850 C   0  0  0  0  0  0  0  0  0  0  0  0
  139.6130   78.4790  221.7570 C   0  0  0  0  0  0  0  0  0  0  0  0
  140.5620   77.4090  221.2580 C   0  0  0  0  0  0  0  0  0  0  0  0
  140.1750   76.1360  221.9780 C   0  0  2  0  0  0  0  0  0  0  0  0
  140.8910   74.9380  221.5810 C   0  0  0  0  0  0  0  0  0  0  0  0
  141.7900   75.0330  220.5220 C   0  0  0  0  0  0  0  0  0  0  0  0
  142.4880   73.9050  220.1200 C   0  0  0  0  0  0  0  0  0  0  0  0
  142.2750   72.6960  220.7850 C   0  0  0  0  0  0  0  0  0  0  0  0
  141.3680   72.6390  221.8390 C   0  0  0  0  0  0  0  0  0  0  0  0
  140.6940   73.7580  222.2160 N   0  0  0  0  0  0  0  0  0  0  0  0
  138.5010   71.0450  223.0530 C   0  0  0  0  0  0  0  0  0  0  0  0
  137.9330   69.8010  223.2660 C   0  0  0  0  0  0  0  0  0  0  0  0
  138.2980   69.0750  224.3840 C   0  0  0  0  0  0  0  0  0  0  0  0
  139.2170   69.5730  225.2800 C   0  0  0  0  0  0  0  0  0  0  0  0
  139.6070   68.8780  226.4060 C   0  0  0  0  0  0  0  0  0  0  0  0
  140.5410   69.4340  227.2790 C   0  0  0  0  0  0  0  0  0  0  0  0
  141.0450   68.5690  228.7060 Cl  0  0  0  0  0  0  0  0  0  0  0  0
  141.0760   70.6800  227.0170 C   0  0  0  0  0  0  0  0  0  0  0  0
  140.6910   71.3950  225.8810 C   0  0  0  0  0  0  0  0  0  0  0  0
  139.7560   70.8140  225.0270 C   0  0  0  0  0  0  0  0  0  0  0  0
  139.3910   71.5070  223.9400 N   0  0  0  0  0  0  0  0  0  0  0  0
  138.5940   73.6860  222.7450 H   0  0  0  0  0  0  0  0  0  0  0  0
  138.5116   73.8247  219.8908 H   0  0  0  0  0  0  0  0  0  0  0  0
  136.7955   73.7652  220.4341 H   0  0  0  0  0  0  0  0  0  0  0  0
  137.0574   77.1608  222.7555 H   0  0  0  0  0  0  0  0  0  0  0  0
  138.0289   76.3806  223.9866 H   0  0  0  0  0  0  0  0  0  0  0  0
  138.3355   79.0141  223.3832 H   0  0  0  0  0  0  0  0  0  0  0  0
  139.7664   77.9776  223.8146 H   0  0  0  0  0  0  0  0  0  0  0  0
  138.8185   78.6120  221.0079 H   0  0  0  0  0  0  0  0  0  0  0  0
  140.2134   79.3883  221.9079 H   0  0  0  0  0  0  0  0  0  0  0  0
  140.4547   77.2804  220.1708 H   0  0  0  0  0  0  0  0  0  0  0  0
  141.6103   77.6786  221.4538 H   0  0  0  0  0  0  0  0  0  0  0  0
  140.5165   76.1496  223.0236 H   0  0  0  0  0  0  0  0  0  0  0  0
  141.9448   75.9939  220.0094 H   0  0  0  0  0  0  0  0  0  0  0  0
  143.2025   73.9618  219.2855 H   0  0  0  0  0  0  0  0  0  0  0  0
  142.8217   71.7925  220.4772 H   0  0  0  0  0  0  0  0  0  0  0  0
  141.1965   71.6892  222.3667 H   0  0  0  0  0  0  0  0  0  0  0  0
  137.1996   69.3949  222.5538 H   0  0  0  0  0  0  0  0  0  0  0  0
  137.8485   68.0866  224.5602 H   0  0  0  0  0  0  0  0  0  0  0  0
  139.1812   67.8855  226.6150 H   0  0  0  0  0  0  0  0  0  0  0  0
  141.8124   71.1133  227.7098 H   0  0  0  0  0  0  0  0  0  0  0  0
  141.1135   72.3878  225.6667 H   0  0  0  0  0  0  0  0  0  0  0  0
  1  2  2  0
  2  3  1  0
  3  4  1  0
  4  5  1  0
  5  6  2  0
  5  7  1  0
  7  8  1  0
  8  9  1  0
  9 10  1  0
 10 11  1  0
 11 12  1  0
 12 13  1  0
 13 14  2  0
 14 15  1  0
 15 16  2  0
 16 17  1  0
 17 18  2  0
  2 19  1  0
 19 20  2  0
 20 21  1  0
 21 22  2  0
 22 23  1  0
 23 24  2  0
 24 25  1  0
 24 26  1  0
 26 27  2  0
 27 28  1  0
 28 29  2  0
 12  7  1  0
 18 13  1  0
 29 19  1  0
 28 22  1  0
  3 30  1  0
  4 31  1  0
  4 32  1  0
  8 33  1  0
  8 34  1  0
  9 35  1  0
  9 36  1  0
 10 37  1  0
 10 38  1  0
 11 39  1  0
 11 40  1  0
 12 41  1  1
 14 42  1  0
 15 43  1  0
 16 44  1  0
 17 45  1  0
 20 46  1  0
 21 47  1  0
 23 48  1  0
 26 49  1  0
 27 50  1  0
M  END
>  <smiles>  (29) 
O=C(NCC(=O)N1CCCCC1c1ccccn1)c1ccc2cc(Cl)ccc2n1

>  <score_type>  (29) 
oracle

>  <origin>  (29) 
autodockgpu

>  <m_score__min__energy>  (29) 
-8.5099999999999998

>  <m_primary>  (29) 
energy

>  <rmsd>  (29) 
3.9844197352699418

>  <m_score__min__rmsd>  (29) 
3.9844197352699418

>  <meeko>  (29) 
{"free_energy": -7.48, "intermolecular_energy": -8.97, "internal_energy": -2.65, "cluster_size": 18, "cluster_id": 2, "rank_in_cluster": 12}

>  <energy>  (29) 
-7.3

>  <cluster_rmsd>  (29) 
1.98

>  <cluster>  (29) 
2

$$$$

     RDKit          3D

 50 53  0  0  0  0  0  0  0  0999 V2000
  136.8190   71.2720  221.2190 O   0  0  0  0  0  0  0  0  0  0  0  0
  137.5530   71.7630  222.0920 C   0  0  0  0  0  0  0  0  0  0  0  0
  137.8890   73.1480  221.9800 N   0  0  0  0  0  0  0  0  0  0  0  0
  137.3850   73.9680  220.8730 C   0  0  0  0  0  0  0  0  0  0  0  0
  138.1940   75.1900  220.7410 C   0  0  0  0  0  0  0  0  0  0  0  0
  138.1120   75.7820  219.5990 O   0  0  0  0  0  0  0  0  0  0  0  0
  139.0320   75.7830  221.6780 N   0  0  0  0  0  0  0  0  0  0  0  0
  138.3840   76.7340  222.6250 C   0  0  0  0  0  0  0  0  0  0  0  0
  139.3960   77.8720  222.7200 C   0  0  0  0  0  0  0  0  0  0  0  0
  140.2170   78.0210  221.4600 C   0  0  0  0  0  0  0  0  0  0  0  0
  141.0680   76.8140  221.1270 C   0  0  0  0  0  0  0  0  0  0  0  0
  140.4480   75.6470  221.8630 C   0  0  2  0  0  0  0  0  0  0  0  0
  141.0420   74.3470  221.6100 C   0  0  0  0  0  0  0  0  0  0  0  0
  142.0880   74.2720  220.6940 C   0  0  0  0  0  0  0  0  0  0  0  0
  142.6750   73.0440  220.4330 C   0  0  0  0  0  0  0  0  0  0  0  0
  142.2060   71.9080  221.0940 C   0  0  0  0  0  0  0  0  0  0  0  0
  141.1580   72.0210  222.0030 C   0  0  0  0  0  0  0  0  0  0  0  0
  140.5970   73.2360  222.2430 N   0  0  0  0  0  0  0  0  0  0  0  0
  138.0950   71.0150  223.2230 C   0  0  0  0  0  0  0  0  0  0  0  0
  137.6280   69.7290  223.4290 C   0  0  0  0  0  0  0  0  0  0  0  0
  138.1200   68.9940  224.4910 C   0  0  0  0  0  0  0  0  0  0  0  0
  139.0650   69.5260  225.3410 C   0  0  0  0  0  0  0  0  0  0  0  0
  139.5790   68.8230  226.4100 C   0  0  0  0  0  0  0  0  0  0  0  0
  140.5330   69.4140  227.2370 C   0  0  0  0  0  0  0  0  0  0  0  0
  141.1950   68.5410  228.5930 Cl  0  0  0  0  0  0  0  0  0  0  0  0
  140.9640   70.7010  226.9840 C   0  0  0  0  0  0  0  0  0  0  0  0
  140.4530   71.4240  225.9050 C   0  0  0  0  0  0  0  0  0  0  0  0
  139.5000   70.8080  225.0970 C   0  0  0  0  0  0  0  0  0  0  0  0
  139.0140   71.5090  224.0630 N   0  0  0  0  0  0  0  0  0  0  0  0
  138.5130   73.5930  222.7090 H   0  0  0  0  0  0  0  0  0  0  0  0
  137.4413   73.3914  219.9379 H   0  0  0  0  0  0  0  0  0  0  0  0
  136.3409   74.2473  221.0777 H   0  0  0  0  0  0  0  0  0  0  0  0
  137.4227   77.0926  222.2284 H   0  0  0  0  0  0  0  0  0  0  0  0
  138.1500   76.2812  223.5998 H   0  0  0  0  0  0  0  0  0  0  0  0
  138.8543   78.8120  222.9016 H   0  0  0  0  0  0  0  0  0  0  0  0
  140.0864   77.6383  223.5439 H   0  0  0  0  0  0  0  0  0  0  0  0
  139.5300   78.2010  220.6200 H   0  0  0  0  0  0  0  0  0  0  0  0
  140.9096   78.8583  221.6314 H   0  0  0  0  0  0  0  0  0  0  0  0
  141.0602   76.6290  220.0427 H   0  0  0  0  0  0  0  0  0  0  0  0
  142.1156   76.9664  221.4257 H   0  0  0  0  0  0  0  0  0  0  0  0
  140.6767   75.6869  222.9382 H   0  0  0  0  0  0  0  0  0  0  0  0
  142.4448   75.1782  220.1827 H   0  0  0  0  0  0  0  0  0  0  0  0
  143.5022   72.9656  219.7122 H   0  0  0  0  0  0  0  0  0  0  0  0
  142.6628   70.9269  220.8974 H   0  0  0  0  0  0  0  0  0  0  0  0
  140.7842   71.1286  222.5264 H   0  0  0  0  0  0  0  0  0  0  0  0
  136.8737   69.2965  222.7552 H   0  0  0  0  0  0  0  0  0  0  0  0
  137.7524   67.9711  224.6599 H   0  0  0  0  0  0  0  0  0  0  0  0
  139.2366   67.7969  226.6100 H   0  0  0  0  0  0  0  0  0  0  0  0
  141.7179   71.1613  227.6395 H   0  0  0  0  0  0  0  0  0  0  0  0
  140.7927   72.4497  225.6988 H   0  0  0  0  0  0  0  0  0  0  0  0
  1  2  2  0
  2  3  1  0
  3  4  1  0
  4  5  1  0
  5  6  2  0
  5  7  1  0
  7  8  1  0
  8  9  1  0
  9 10  1  0
 10 11  1  0
 11 12  1  0
 12 13  1  0
 13 14  2  0
 14 15  1  0
 15 16  2  0
 16 17  1  0
 17 18  2  0
  2 19  1  0
 19 20  2  0
 20 21  1  0
 21 22  2  0
 22 23  1  0
 23 24  2  0
 24 25  1  0
 24 26  1  0
 26 27  2  0
 27 28  1  0
 28 29  2  0
 12  7  1  0
 18 13  1  0
 29 19  1  0
 28 22  1  0
  3 30  1  0
  4 31  1  0
  4 32  1  0
  8 33  1  0
  8 34  1  0
  9 35  1  0
  9 36  1  0
 10 37  1  0
 10 38  1  0
 11 39  1  0
 11 40  1  0
 12 41  1  1
 14 42  1  0
 15 43  1  0
 16 44  1  0
 17 45  1  0
 20 46  1  0
 21 47  1  0
 23 48  1  0
 26 49  1  0
 27 50  1  0
M  END
>  <smiles>  (30) 
O=C(NCC(=O)N1CCCCC1c1ccccn1)c1ccc2cc(Cl)ccc2n1

>  <score_type>  (30) 
oracle

>  <origin>  (30) 
autodockgpu

>  <m_score__min__energy>  (30) 
-8.5099999999999998

>  <m_primary>  (30) 
energy

>  <rmsd>  (30) 
4.144640818471835

>  <m_score__min__rmsd>  (30) 
4.144640818471835

>  <meeko>  (30) 
{"free_energy": -7.42, "intermolecular_energy": -8.91, "internal_energy": -2.94, "cluster_size": 18, "cluster_id": 2, "rank_in_cluster": 13}

>  <energy>  (30) 
-8.29

>  <cluster_rmsd>  (30) 
0.0

>  <cluster>  (30) 
3

$$$$

     RDKit          3D

 50 53  0  0  0  0  0  0  0  0999 V2000
  138.7530   71.5930  220.9220 O   0  0  0  0  0  0  0  0  0  0  0  0
  139.1040   72.0110  222.0380 C   0  0  0  0  0  0  0  0  0  0  0  0
  139.2590   73.4220  222.2050 N   0  0  0  0  0  0  0  0  0  0  0  0
  139.0110   74.3530  221.0970 C   0  0  0  0  0  0  0  0  0  0  0  0
  139.9150   75.5100  221.1980 C   0  0  0  0  0  0  0  0  0  0  0  0
  140.4600   75.6810  222.3530 O   0  0  0  0  0  0  0  0  0  0  0  0
  140.2520   76.4370  220.2180 N   0  0  0  0  0  0  0  0  0  0  0  0
  139.7270   76.1620  218.8510 C   0  0  0  0  0  0  0  0  0  0  0  0
  140.9050   76.5190  217.9490 C   0  0  0  0  0  0  0  0  0  0  0  0
  142.2370   76.3240  218.6350 C   0  0  0  0  0  0  0  0  0  0  0  0
  142.4430   77.1980  219.8540 C   0  0  0  0  0  0  0  0  0  0  0  0
  141.0620   77.6170  220.3080 C   0  0  2  0  0  0  0  0  0  0  0  0
  141.0020   78.3880  221.5360 C   0  0  0  0  0  0  0  0  0  0  0  0
  142.1640   79.0220  221.9690 C   0  0  0  0  0  0  0  0  0  0  0  0
  142.1360   79.7650  223.1380 C   0  0  0  0  0  0  0  0  0  0  0  0
  140.9450   79.8640  223.8580 C   0  0  0  0  0  0  0  0  0  0  0  0
  139.8030   79.2160  223.3950 C   0  0  0  0  0  0  0  0  0  0  0  0
  139.8530   78.4920  222.2460 N   0  0  0  0  0  0  0  0  0  0  0  0
  139.3690   71.1520  223.1890 C   0  0  0  0  0  0  0  0  0  0  0  0
  138.9930   69.8230  223.1010 C   0  0  0  0  0  0  0  0  0  0  0  0
  139.2290   68.9830  224.1730 C   0  0  0  0  0  0  0  0  0  0  0  0
  139.8320   69.4520  225.3190 C   0  0  0  0  0  0  0  0  0  0  0  0
  140.0840   68.6440  226.4080 C   0  0  0  0  0  0  0  0  0  0  0  0
  140.6960   69.1750  227.5420 C   0  0  0  0  0  0  0  0  0  0  0  0
  141.0220   68.1690  228.9280 Cl  0  0  0  0  0  0  0  0  0  0  0  0
  141.0500   70.5100  227.5750 C   0  0  0  0  0  0  0  0  0  0  0  0
  140.8010   71.3390  226.4800 C   0  0  0  0  0  0  0  0  0  0  0  0
  140.1890   70.7800  225.3610 C   0  0  0  0  0  0  0  0  0  0  0  0
  139.9530   71.5840  224.3140 N   0  0  0  0  0  0  0  0  0  0  0  0
  139.5570   73.8060  223.1430 H   0  0  0  0  0  0  0  0  0  0  0  0
  139.1859   73.8367  220.1416 H   0  0  0  0  0  0  0  0  0  0  0  0
  137.9696   74.7037  221.1471 H   0  0  0  0  0  0  0  0  0  0  0  0
  139.4513   75.1030  218.7396 H   0  0  0  0  0  0  0  0  0  0  0  0
  138.8149   76.7302  218.6159 H   0  0  0  0  0  0  0  0  0  0  0  0
  140.8715   75.8793  217.0547 H   0  0  0  0  0  0  0  0  0  0  0  0
  140.8158   77.5837  217.6873 H   0  0  0  0  0  0  0  0  0  0  0  0
  142.3127   75.2723  218.9482 H   0  0  0  0  0  0  0  0  0  0  0  0
  143.0111   76.6097  217.9076 H   0  0  0  0  0  0  0  0  0  0  0  0
  142.9505   76.6314  220.6486 H   0  0  0  0  0  0  0  0  0  0  0  0
  143.0715   78.0703  219.6215 H   0  0  0  0  0  0  0  0  0  0  0  0
  140.6439   78.3921  219.6490 H   0  0  0  0  0  0  0  0  0  0  0  0
  143.0944   78.9337  221.3888 H   0  0  0  0  0  0  0  0  0  0  0  0
  143.0444   80.2722  223.4952 H   0  0  0  0  0  0  0  0  0  0  0  0
  140.9085   80.4514  224.7873 H   0  0  0  0  0  0  0  0  0  0  0  0
  138.8613   79.2900  223.9586 H   0  0  0  0  0  0  0  0  0  0  0  0
  138.5121   69.4398  222.1889 H   0  0  0  0  0  0  0  0  0  0  0  0
  138.9313   67.9259  224.1100 H   0  0  0  0  0  0  0  0  0  0  0  0
  139.8021   67.5811  226.3815 H   0  0  0  0  0  0  0  0  0  0  0  0
  141.5327   70.9236  228.4728 H   0  0  0  0  0  0  0  0  0  0  0  0
  141.0800   72.4028  226.5004 H   0  0  0  0  0  0  0  0  0  0  0  0
  1  2  2  0
  2  3  1  0
  3  4  1  0
  4  5  1  0
  5  6  2  0
  5  7  1  0
  7  8  1  0
  8  9  1  0
  9 10  1  0
 10 11  1  0
 11 12  1  0
 12 13  1  0
 13 14  2  0
 14 15  1  0
 15 16  2  0
 16 17  1  0
 17 18  2  0
  2 19  1  0
 19 20  2  0
 20 21  1  0
 21 22  2  0
 22 23  1  0
 23 24  2  0
 24 25  1  0
 24 26  1  0
 26 27  2  0
 27 28  1  0
 28 29  2  0
 12  7  1  0
 18 13  1  0
 29 19  1  0
 28 22  1  0
  3 30  1  0
  4 31  1  0
  4 32  1  0
  8 33  1  0
  8 34  1  0
  9 35  1  0
  9 36  1  0
 10 37  1  0
 10 38  1  0
 11 39  1  0
 11 40  1  0
 12 41  1  6
 14 42  1  0
 15 43  1  0
 16 44  1  0
 17 45  1  0
 20 46  1  0
 21 47  1  0
 23 48  1  0
 26 49  1  0
 27 50  1  0
M  END
>  <smiles>  (31) 
O=C(NCC(=O)N1CCCCC1c1ccccn1)c1ccc2cc(Cl)ccc2n1

>  <score_type>  (31) 
oracle

>  <origin>  (31) 
autodockgpu

>  <m_score__min__energy>  (31) 
-8.5099999999999998

>  <m_primary>  (31) 
energy

>  <rmsd>  (31) 
1.7852249395771032

>  <m_score__min__rmsd>  (31) 
1.7852249395771032

>  <meeko>  (31) 
{"free_energy": -8.31, "intermolecular_energy": -9.8, "internal_energy": -2.11, "cluster_size": 11, "cluster_id": 1, "rank_in_cluster": 3}

>  <energy>  (31) 
-8.28

>  <cluster_rmsd>  (31) 
0.15

>  <cluster>  (31) 
3

$$$$

     RDKit          3D

 50 53  0  0  0  0  0  0  0  0999 V2000
  139.5570   71.9670  220.4600 O   0  0  0  0  0  0  0  0  0  0  0  0
  139.9380   72.3350  221.5840 C   0  0  0  0  0  0  0  0  0  0  0  0
  140.4300   73.6700  221.7190 N   0  0  0  0  0  0  0  0  0  0  0  0
  140.4850   74.5820  220.5710 C   0  0  0  0  0  0  0  0  0  0  0  0
  141.3390   75.7390  220.8850 C   0  0  0  0  0  0  0  0  0  0  0  0
  141.2580   76.1670  222.0980 O   0  0  0  0  0  0  0  0  0  0  0  0
  142.2110   76.4280  220.0490 N   0  0  0  0  0  0  0  0  0  0  0  0
  142.0220   77.9050  219.9830 C   0  0  0  0  0  0  0  0  0  0  0  0
  142.2060   78.2110  218.5000 C   0  0  0  0  0  0  0  0  0  0  0  0
  141.8140   77.0490  217.6170 C   0  0  0  0  0  0  0  0  0  0  0  0
  142.6430   75.8000  217.8290 C   0  0  0  0  0  0  0  0  0  0  0  0
  143.2580   75.9330  219.2040 C   0  0  2  0  0  0  0  0  0  0  0  0
  144.0240   74.7920  219.6720 C   0  0  0  0  0  0  0  0  0  0  0  0
  143.6190   73.5220  219.2690 C   0  0  0  0  0  0  0  0  0  0  0  0
  144.3320   72.4140  219.7010 C   0  0  0  0  0  0  0  0  0  0  0  0
  145.4410   72.5940  220.5290 C   0  0  0  0  0  0  0  0  0  0  0  0
  145.8150   73.8790  220.9120 C   0  0  0  0  0  0  0  0  0  0  0  0
  145.1020   74.9510  220.4770 N   0  0  0  0  0  0  0  0  0  0  0  0
  139.9160   71.4890  222.7740 C   0  0  0  0  0  0  0  0  0  0  0  0
  139.2890   70.2590  222.6790 C   0  0  0  0  0  0  0  0  0  0  0  0
  139.2490   69.4340  223.7880 C   0  0  0  0  0  0  0  0  0  0  0  0
  139.8250   69.8220  224.9780 C   0  0  0  0  0  0  0  0  0  0  0  0
  139.8070   69.0260  226.1040 C   0  0  0  0  0  0  0  0  0  0  0  0
  140.4050   69.4720  227.2810 C   0  0  0  0  0  0  0  0  0  0  0  0
  140.3910   68.4800  228.7150 Cl  0  0  0  0  0  0  0  0  0  0  0  0
  141.0180   70.7090  227.3190 C   0  0  0  0  0  0  0  0  0  0  0  0
  141.0450   71.5250  226.1860 C   0  0  0  0  0  0  0  0  0  0  0  0
  140.4380   71.0530  225.0250 C   0  0  0  0  0  0  0  0  0  0  0  0
  140.4680   71.8420  223.9420 N   0  0  0  0  0  0  0  0  0  0  0  0
  140.7620   74.0090  222.6630 H   0  0  0  0  0  0  0  0  0  0  0  0
  140.8992   74.0491  219.7024 H   0  0  0  0  0  0  0  0  0  0  0  0
  139.4687   74.9358  220.3431 H   0  0  0  0  0  0  0  0  0  0  0  0
  141.0155   78.1900  220.3232 H   0  0  0  0  0  0  0  0  0  0  0  0
  142.7188   78.4595  220.6288 H   0  0  0  0  0  0  0  0  0  0  0  0
  141.5825   79.0788  218.2387 H   0  0  0  0  0  0  0  0  0  0  0  0
  143.2736   78.4147  218.3304 H   0  0  0  0  0  0  0  0  0  0  0  0
  140.7612   76.8024  217.8188 H   0  0  0  0  0  0  0  0  0  0  0  0
  141.9857   77.3694  216.5788 H   0  0  0  0  0  0  0  0  0  0  0  0
  142.0046   74.9055  217.7813 H   0  0  0  0  0  0  0  0  0  0  0  0
  143.4146   75.6933  217.0523 H   0  0  0  0  0  0  0  0  0  0  0  0
  144.0889   76.6538  219.2006 H   0  0  0  0  0  0  0  0  0  0  0  0
  142.7430   73.3992  218.6151 H   0  0  0  0  0  0  0  0  0  0  0  0
  144.0265   71.4028  219.3941 H   0  0  0  0  0  0  0  0  0  0  0  0
  146.0171   71.7241  220.8775 H   0  0  0  0  0  0  0  0  0  0  0  0
  146.6869   74.0266  221.5662 H   0  0  0  0  0  0  0  0  0  0  0  0
  138.8278   69.9413  221.7323 H   0  0  0  0  0  0  0  0  0  0  0  0
  138.7510   68.4556  223.7193 H   0  0  0  0  0  0  0  0  0  0  0  0
  139.3209   68.0397  226.0731 H   0  0  0  0  0  0  0  0  0  0  0  0
  141.4895   71.0548  228.2507 H   0  0  0  0  0  0  0  0  0  0  0  0
  141.5313   72.5114  226.2100 H   0  0  0  0  0  0  0  0  0  0  0  0
  1  2  2  0
  2  3  1  0
  3  4  1  0
  4  5  1  0
  5  6  2  0
  5  7  1  0
  7  8  1  0
  8  9  1  0
  9 10  1  0
 10 11  1  0
 11 12  1  0
 12 13  1  0
 13 14  2  0
 14 15  1  0
 15 16  2  0
 16 17  1  0
 17 18  2  0
  2 19  1  0
 19 20  2  0
 20 21  1  0
 21 22  2  0
 22 23  1  0
 23 24  2  0
 24 25  1  0
 24 26  1  0
 26 27  2  0
 27 28  1  0
 28 29  2  0
 12  7  1  0
 18 13  1  0
 29 19  1  0
 28 22  1  0
  3 30  1  0
  4 31  1  0
  4 32  1  0
  8 33  1  0
  8 34  1  0
  9 35  1  0
  9 36  1  0
 10 37  1  0
 10 38  1  0
 11 39  1  0
 11 40  1  0
 12 41  1  6
 14 42  1  0
 15 43  1  0
 16 44  1  0
 17 45  1  0
 20 46  1  0
 21 47  1  0
 23 48  1  0
 26 49  1  0
 27 50  1  0
M  END
>  <smiles>  (32) 
O=C(NCC(=O)N1CCCCC1c1ccccn1)c1ccc2cc(Cl)ccc2n1

>  <score_type>  (32) 
oracle

>  <origin>  (32) 
autodockgpu

>  <m_score__min__energy>  (32) 
-8.5099999999999998

>  <m_primary>  (32) 
energy

>  <rmsd>  (32) 
4.289946369237153

>  <m_score__min__rmsd>  (32) 
4.289946369237153

>  <meeko>  (32) 
{"free_energy": -7.66, "intermolecular_energy": -9.16, "internal_energy": -2.3, "cluster_size": 18, "cluster_id": 2, "rank_in_cluster": 10}

>  <energy>  (32) 
-8.28

>  <cluster_rmsd>  (32) 
0.07

>  <cluster>  (32) 
3

$$$$

     RDKit          3D

 50 53  0  0  0  0  0  0  0  0999 V2000
  140.2940   72.2930  220.6760 O   0  0  0  0  0  0  0  0  0  0  0  0
  140.0760   72.6400  221.8480 C   0  0  0  0  0  0  0  0  0  0  0  0
  139.8490   74.0280  222.1040 N   0  0  0  0  0  0  0  0  0  0  0  0
  139.8700   75.0160  221.0190 C   0  0  0  0  0  0  0  0  0  0  0  0
  140.8130   76.0990  221.3410 C   0  0  0  0  0  0  0  0  0  0  0  0
  140.7560   76.5350  222.5520 O   0  0  0  0  0  0  0  0  0  0  0  0
  141.7480   76.7110  220.5130 N   0  0  0  0  0  0  0  0  0  0  0  0
  141.7310   78.2000  220.4970 C   0  0  0  0  0  0  0  0  0  0  0  0
  141.9290   78.5340  219.0210 C   0  0  0  0  0  0  0  0  0  0  0  0
  141.3940   77.4550  218.1080 C   0  0  0  0  0  0  0  0  0  0  0  0
  142.0750   76.1120  218.2660 C   0  0  0  0  0  0  0  0  0  0  0  0
  142.7200   76.1270  219.6340 C   0  0  2  0  0  0  0  0  0  0  0  0
  143.3550   74.8910  220.0520 C   0  0  0  0  0  0  0  0  0  0  0  0
  144.6840   74.9440  220.4650 C   0  0  0  0  0  0  0  0  0  0  0  0
  145.3150   73.7780  220.8690 C   0  0  0  0  0  0  0  0  0  0  0  0
  144.6080   72.5750  220.8540 C   0  0  0  0  0  0  0  0  0  0  0  0
  143.2800   72.5610  220.4340 C   0  0  0  0  0  0  0  0  0  0  0  0
  142.6810   73.7160  220.0420 N   0  0  0  0  0  0  0  0  0  0  0  0
  140.0390   71.7190  222.9820 C   0  0  0  0  0  0  0  0  0  0  0  0
  139.4450   70.4840  222.7900 C   0  0  0  0  0  0  0  0  0  0  0  0
  139.3920   69.5900  223.8420 C   0  0  0  0  0  0  0  0  0  0  0  0
  139.9230   69.9140  225.0710 C   0  0  0  0  0  0  0  0  0  0  0  0
  139.8910   69.0470  226.1440 C   0  0  0  0  0  0  0  0  0  0  0  0
  140.4430   69.4310  227.3650 C   0  0  0  0  0  0  0  0  0  0  0  0
  140.4100   68.3490  228.7320 Cl  0  0  0  0  0  0  0  0  0  0  0  0
  141.0230   70.6760  227.5000 C   0  0  0  0  0  0  0  0  0  0  0  0
  141.0640   71.5630  226.4230 C   0  0  0  0  0  0  0  0  0  0  0  0
  140.5040   71.1530  225.2150 C   0  0  0  0  0  0  0  0  0  0  0  0
  140.5470   72.0100  224.1860 N   0  0  0  0  0  0  0  0  0  0  0  0
  139.6620   74.3510  223.0920 H   0  0  0  0  0  0  0  0  0  0  0  0
  140.1840   74.5254  220.0859 H   0  0  0  0  0  0  0  0  0  0  0  0
  138.8622   75.4397  220.8976 H   0  0  0  0  0  0  0  0  0  0  0  0
  140.7691   78.5876  220.8638 H   0  0  0  0  0  0  0  0  0  0  0  0
  142.4968   78.6476  221.1475 H   0  0  0  0  0  0  0  0  0  0  0  0
  141.4058   79.4758  218.7989 H   0  0  0  0  0  0  0  0  0  0  0  0
  143.0105   78.6204  218.8394 H   0  0  0  0  0  0  0  0  0  0  0  0
  140.3223   77.3250  218.3192 H   0  0  0  0  0  0  0  0  0  0  0  0
  141.5890   77.7882  217.0780 H   0  0  0  0  0  0  0  0  0  0  0  0
  141.3364   75.2995  218.2011 H   0  0  0  0  0  0  0  0  0  0  0  0
  142.8184   75.9427  217.4731 H   0  0  0  0  0  0  0  0  0  0  0  0
  143.6286   76.7470  219.6391 H   0  0  0  0  0  0  0  0  0  0  0  0
  145.2269   75.9007  220.4705 H   0  0  0  0  0  0  0  0  0  0  0  0
  146.3642   73.8007  221.1987 H   0  0  0  0  0  0  0  0  0  0  0  0
  145.0970   71.6425  221.1723 H   0  0  0  0  0  0  0  0  0  0  0  0
  142.7169   71.6162  220.4197 H   0  0  0  0  0  0  0  0  0  0  0  0
  139.0200   70.2172  221.8111 H   0  0  0  0  0  0  0  0  0  0  0  0
  138.9199   68.6072  223.6963 H   0  0  0  0  0  0  0  0  0  0  0  0
  139.4304   68.0539  226.0359 H   0  0  0  0  0  0  0  0  0  0  0  0
  141.4574   70.9723  228.4662 H   0  0  0  0  0  0  0  0  0  0  0  0
  141.5249   72.5566  226.5251 H   0  0  0  0  0  0  0  0  0  0  0  0
  1  2  2  0
  2  3  1  0
  3  4  1  0
  4  5  1  0
  5  6  2  0
  5  7  1  0
  7  8  1  0
  8  9  1  0
  9 10  1  0
 10 11  1  0
 11 12  1  0
 12 13  1  0
 13 14  2  0
 14 15  1  0
 15 16  2  0
 16 17  1  0
 17 18  2  0
  2 19  1  0
 19 20  2  0
 20 21  1  0
 21 22  2  0
 22 23  1  0
 23 24  2  0
 24 25  1  0
 24 26  1  0
 26 27  2  0
 27 28  1  0
 28 29  2  0
 12  7  1  0
 18 13  1  0
 29 19  1  0
 28 22  1  0
  3 30  1  0
  4 31  1  0
  4 32  1  0
  8 33  1  0
  8 34  1  0
  9 35  1  0
  9 36  1  0
 10 37  1  0
 10 38  1  0
 11 39  1  0
 11 40  1  0
 12 41  1  6
 14 42  1  0
 15 43  1  0
 16 44  1  0
 17 45  1  0
 20 46  1  0
 21 47  1  0
 23 48  1  0
 26 49  1  0
 27 50  1  0
M  END
>  <smiles>  (33) 
O=C(NCC(=O)N1CCCCC1c1ccccn1)c1ccc2cc(Cl)ccc2n1

>  <score_type>  (33) 
oracle

>  <origin>  (33) 
autodockgpu

>  <m_score__min__energy>  (33) 
-8.5099999999999998

>  <m_primary>  (33) 
energy

>  <rmsd>  (33) 
4.048768602024952

>  <m_score__min__rmsd>  (33) 
4.048768602024952

>  <meeko>  (33) 
{"free_energy": -8.31, "intermolecular_energy": -9.8, "internal_energy": -2.16, "cluster_size": 18, "cluster_id": 2, "rank_in_cluster": 2}

>  <energy>  (33) 
-8.12

>  <cluster_rmsd>  (33) 
0.58

>  <cluster>  (33) 
3

$$$$

     RDKit          3D

 50 53  0  0  0  0  0  0  0  0999 V2000
  137.3240   71.1800  220.8830 O   0  0  0  0  0  0  0  0  0  0  0  0
  137.8750   71.7280  221.8520 C   0  0  0  0  0  0  0  0  0  0  0  0
  138.0720   73.1420  221.7970 N   0  0  0  0  0  0  0  0  0  0  0  0
  137.6390   73.9280  220.6350 C   0  0  0  0  0  0  0  0  0  0  0  0
  138.0530   75.3320  220.7920 C   0  0  0  0  0  0  0  0  0  0  0  0
  137.6450   76.1310  219.8670 O   0  0  0  0  0  0  0  0  0  0  0  0
  138.8260   75.9020  221.7970 N   0  0  0  0  0  0  0  0  0  0  0  0
  138.0840   76.6740  222.8330 C   0  0  0  0  0  0  0  0  0  0  0  0
  138.9730   77.8930  223.0610 C   0  0  0  0  0  0  0  0  0  0  0  0
  139.7750   78.2600  221.8340 C   0  0  0  0  0  0  0  0  0  0  0  0
  140.7450   77.1890  221.3820 C   0  0  0  0  0  0  0  0  0  0  0  0
  140.2480   75.8920  221.9810 C   0  0  2  0  0  0  0  0  0  0  0  0
  140.9730   74.6950  221.5980 C   0  0  0  0  0  0  0  0  0  0  0  0
  141.9870   74.8190  220.6500 C   0  0  0  0  0  0  0  0  0  0  0  0
  142.6960   73.6920  220.2650 C   0  0  0  0  0  0  0  0  0  0  0  0
  142.3810   72.4570  220.8330 C   0  0  0  0  0  0  0  0  0  0  0  0
  141.3600   72.3720  221.7770 C   0  0  0  0  0  0  0  0  0  0  0  0
  140.6780   73.4900  222.1400 N   0  0  0  0  0  0  0  0  0  0  0  0
  138.3350   71.0180  223.0420 C   0  0  0  0  0  0  0  0  0  0  0  0
  137.8100   69.7610  223.2860 C   0  0  0  0  0  0  0  0  0  0  0  0
  138.2240   69.0620  224.4050 C   0  0  0  0  0  0  0  0  0  0  0  0
  139.1480   69.6010  225.2720 C   0  0  0  0  0  0  0  0  0  0  0  0
  139.5850   68.9340  226.3980 C   0  0  0  0  0  0  0  0  0  0  0  0
  140.5210   69.5300  227.2410 C   0  0  0  0  0  0  0  0  0  0  0  0
  141.0850   68.7020  228.6680 Cl  0  0  0  0  0  0  0  0  0  0  0  0
  141.0120   70.7870  226.9490 C   0  0  0  0  0  0  0  0  0  0  0  0
  140.5790   71.4740  225.8130 C   0  0  0  0  0  0  0  0  0  0  0  0
  139.6420   70.8530  224.9890 C   0  0  0  0  0  0  0  0  0  0  0  0
  139.2320   71.5200  223.9010 N   0  0  0  0  0  0  0  0  0  0  0  0
  138.5390   73.6350  222.6070 H   0  0  0  0  0  0  0  0  0  0  0  0
  138.0961   73.5134  219.7244 H   0  0  0  0  0  0  0  0  0  0  0  0
  136.5427   73.8822  220.5573 H   0  0  0  0  0  0  0  0  0  0  0  0
  137.0908   76.9729  222.4665 H   0  0  0  0  0  0  0  0  0  0  0  0
  137.8984   76.0971  223.7510 H   0  0  0  0  0  0  0  0  0  0  0  0
  138.3370   78.7474  223.3356 H   0  0  0  0  0  0  0  0  0  0  0  0
  139.6833   77.6442  223.8633 H   0  0  0  0  0  0  0  0  0  0  0  0
  139.0735   78.4595  221.0106 H   0  0  0  0  0  0  0  0  0  0  0  0
  140.3786   79.1394  222.1029 H   0  0  0  0  0  0  0  0  0  0  0  0
  140.7559   77.1228  220.2841 H   0  0  0  0  0  0  0  0  0  0  0  0
  141.7716   77.4140  221.7069 H   0  0  0  0  0  0  0  0  0  0  0  0
  140.4711   75.8382  223.0568 H   0  0  0  0  0  0  0  0  0  0  0  0
  142.2220   75.8004  220.2122 H   0  0  0  0  0  0  0  0  0  0  0  0
  143.4999   73.7704  219.5183 H   0  0  0  0  0  0  0  0  0  0  0  0
  142.9362   71.5548  220.5368 H   0  0  0  0  0  0  0  0  0  0  0  0
  141.1062   71.4013  222.2279 H   0  0  0  0  0  0  0  0  0  0  0  0
  137.0720   69.3230  222.5978 H   0  0  0  0  0  0  0  0  0  0  0  0
  137.8099   68.0627  224.6051 H   0  0  0  0  0  0  0  0  0  0  0  0
  139.1947   67.9321  226.6302 H   0  0  0  0  0  0  0  0  0  0  0  0
  141.7514   71.2518  227.6177 H   0  0  0  0  0  0  0  0  0  0  0  0
  140.9660   72.4759  225.5754 H   0  0  0  0  0  0  0  0  0  0  0  0
  1  2  2  0
  2  3  1  0
  3  4  1  0
  4  5  1  0
  5  6  2  0
  5  7  1  0
  7  8  1  0
  8  9  1  0
  9 10  1  0
 10 11  1  0
 11 12  1  0
 12 13  1  0
 13 14  2  0
 14 15  1  0
 15 16  2  0
 16 17  1  0
 17 18  2  0
  2 19  1  0
 19 20  2  0
 20 21  1  0
 21 22  2  0
 22 23  1  0
 23 24  2  0
 24 25  1  0
 24 26  1  0
 26 27  2  0
 27 28  1  0
 28 29  2  0
 12  7  1  0
 18 13  1  0
 29 19  1  0
 28 22  1  0
  3 30  1  0
  4 31  1  0
  4 32  1  0
  8 33  1  0
  8 34  1  0
  9 35  1  0
  9 36  1  0
 10 37  1  0
 10 38  1  0
 11 39  1  0
 11 40  1  0
 12 41  1  1
 14 42  1  0
 15 43  1  0
 16 44  1  0
 17 45  1  0
 20 46  1  0
 21 47  1  0
 23 48  1  0
 26 49  1  0
 27 50  1  0
M  END
>  <smiles>  (34) 
O=C(NCC(=O)N1CCCCC1c1ccccn1)c1ccc2cc(Cl)ccc2n1

>  <score_type>  (34) 
oracle

>  <origin>  (34) 
autodockgpu

>  <m_score__min__energy>  (34) 
-8.5099999999999998

>  <m_primary>  (34) 
energy

>  <rmsd>  (34) 
4.044353774097797

>  <m_score__min__rmsd>  (34) 
4.044353774097797

>  <meeko>  (34) 
{"free_energy": -7.3, "intermolecular_energy": -8.79, "internal_energy": -2.83, "cluster_size": 18, "cluster_id": 2, "rank_in_cluster": 18}

>  <energy>  (34) 
-8.08

>  <cluster_rmsd>  (34) 
0.0

>  <cluster>  (34) 
4

$$$$

     RDKit          3D

 50 53  0  0  0  0  0  0  0  0999 V2000
  139.5680   72.0790  220.6620 O   0  0  0  0  0  0  0  0  0  0  0  0
  139.1070   72.2880  221.7960 C   0  0  0  0  0  0  0  0  0  0  0  0
  138.2820   73.4400  221.9810 N   0  0  0  0  0  0  0  0  0  0  0  0
  137.9820   74.3500  220.8680 C   0  0  0  0  0  0  0  0  0  0  0  0
  139.1900   75.1010  220.4900 C   0  0  0  0  0  0  0  0  0  0  0  0
  139.5010   75.0480  219.2410 O   0  0  0  0  0  0  0  0  0  0  0  0
  140.0350   75.8510  221.3000 N   0  0  0  0  0  0  0  0  0  0  0  0
  139.3770   76.6360  222.3820 C   0  0  0  0  0  0  0  0  0  0  0  0
  140.1300   77.9620  222.3570 C   0  0  0  0  0  0  0  0  0  0  0  0
  140.6730   78.2910  220.9860 C   0  0  0  0  0  0  0  0  0  0  0  0
  141.6860   77.2950  220.4620 C   0  0  0  0  0  0  0  0  0  0  0  0
  141.4580   76.0180  221.2400 C   0  0  2  0  0  0  0  0  0  0  0  0
  142.2580   74.8760  220.8360 C   0  0  0  0  0  0  0  0  0  0  0  0
  143.4050   75.1130  220.0830 C   0  0  0  0  0  0  0  0  0  0  0  0
  144.1880   74.0410  219.6830 C   0  0  0  0  0  0  0  0  0  0  0  0
  143.8110   72.7470  220.0430 C   0  0  0  0  0  0  0  0  0  0  0  0
  142.6560   72.5480  220.7960 C   0  0  0  0  0  0  0  0  0  0  0  0
  141.9040   73.6130  221.1770 N   0  0  0  0  0  0  0  0  0  0  0  0
  139.3590   71.4330  222.9530 C   0  0  0  0  0  0  0  0  0  0  0  0
  138.9460   70.1140  222.8810 C   0  0  0  0  0  0  0  0  0  0  0  0
  139.1680   69.2780  223.9590 C   0  0  0  0  0  0  0  0  0  0  0  0
  139.7920   69.7410  225.0960 C   0  0  0  0  0  0  0  0  0  0  0  0
  140.0320   68.9370  226.1910 C   0  0  0  0  0  0  0  0  0  0  0  0
  140.6660   69.4620  227.3150 C   0  0  0  0  0  0  0  0  0  0  0  0
  140.9770   68.4610  228.7080 Cl  0  0  0  0  0  0  0  0  0  0  0  0
  141.0570   70.7870  227.3320 C   0  0  0  0  0  0  0  0  0  0  0  0
  140.8220   71.6120  226.2310 C   0  0  0  0  0  0  0  0  0  0  0  0
  140.1850   71.0600  225.1220 C   0  0  0  0  0  0  0  0  0  0  0  0
  139.9630   71.8590  224.0700 N   0  0  0  0  0  0  0  0  0  0  0  0
  137.8780   73.6440  222.9360 H   0  0  0  0  0  0  0  0  0  0  0  0
  137.6316   73.7656  220.0044 H   0  0  0  0  0  0  0  0  0  0  0  0
  137.2010   75.0581  221.1820 H   0  0  0  0  0  0  0  0  0  0  0  0
  138.3085   76.7850  222.1674 H   0  0  0  0  0  0  0  0  0  0  0  0
  139.4146   76.1367  223.3614 H   0  0  0  0  0  0  0  0  0  0  0  0
  139.4436   78.7638  222.6667 H   0  0  0  0  0  0  0  0  0  0  0  0
  140.9847   77.8750  223.0439 H   0  0  0  0  0  0  0  0  0  0  0  0
  139.8294   78.3278  220.2810 H   0  0  0  0  0  0  0  0  0  0  0  0
  141.1961   79.2544  221.0770 H   0  0  0  0  0  0  0  0  0  0  0  0
  141.5296   77.1206  219.3872 H   0  0  0  0  0  0  0  0  0  0  0  0
  142.7147   77.6639  220.5868 H   0  0  0  0  0  0  0  0  0  0  0  0
  141.8539   76.0983  222.2632 H   0  0  0  0  0  0  0  0  0  0  0  0
  143.6870   76.1401  219.8083 H   0  0  0  0  0  0  0  0  0  0  0  0
  145.0975   74.2092  219.0876 H   0  0  0  0  0  0  0  0  0  0  0  0
  144.4233   71.8872  219.7335 H   0  0  0  0  0  0  0  0  0  0  0  0
  142.3534   71.5297  221.0817 H   0  0  0  0  0  0  0  0  0  0  0  0
  138.4471   69.7356  221.9767 H   0  0  0  0  0  0  0  0  0  0  0  0
  138.8419   68.2287  223.9081 H   0  0  0  0  0  0  0  0  0  0  0  0
  139.7228   67.8814  226.1767 H   0  0  0  0  0  0  0  0  0  0  0  0
  141.5583   71.1957  228.2218 H   0  0  0  0  0  0  0  0  0  0  0  0
  141.1309   72.6677  226.2388 H   0  0  0  0  0  0  0  0  0  0  0  0
  1  2  2  0
  2  3  1  0
  3  4  1  0
  4  5  1  0
  5  6  2  0
  5  7  1  0
  7  8  1  0
  8  9  1  0
  9 10  1  0
 10 11  1  0
 11 12  1  0
 12 13  1  0
 13 14  2  0
 14 15  1  0
 15 16  2  0
 16 17  1  0
 17 18  2  0
  2 19  1  0
 19 20  2  0
 20 21  1  0
 21 22  2  0
 22 23  1  0
 23 24  2  0
 24 25  1  0
 24 26  1  0
 26 27  2  0
 27 28  1  0
 28 29  2  0
 12  7  1  0
 18 13  1  0
 29 19  1  0
 28 22  1  0
  3 30  1  0
  4 31  1  0
  4 32  1  0
  8 33  1  0
  8 34  1  0
  9 35  1  0
  9 36  1  0
 10 37  1  0
 10 38  1  0
 11 39  1  0
 11 40  1  0
 12 41  1  1
 14 42  1  0
 15 43  1  0
 16 44  1  0
 17 45  1  0
 20 46  1  0
 21 47  1  0
 23 48  1  0
 26 49  1  0
 27 50  1  0
M  END
>  <smiles>  (35) 
O=C(NCC(=O)N1CCCCC1c1ccccn1)c1ccc2cc(Cl)ccc2n1

>  <score_type>  (35) 
oracle

>  <origin>  (35) 
autodockgpu

>  <m_score__min__energy>  (35) 
-8.5099999999999998

>  <m_primary>  (35) 
energy

>  <rmsd>  (35) 
3.8748930617579522

>  <m_score__min__rmsd>  (35) 
3.8748930617579522

>  <meeko>  (35) 
{"free_energy": -7.73, "intermolecular_energy": -9.23, "internal_energy": -2.03, "cluster_size": 18, "cluster_id": 2, "rank_in_cluster": 9}

>  <energy>  (35) 
-7.89

>  <cluster_rmsd>  (35) 
0.0

>  <cluster>  (35) 
5

$$$$

     RDKit          3D

 50 53  0  0  0  0  0  0  0  0999 V2000
  140.2450   72.2690  220.8320 O   0  0  0  0  0  0  0  0  0  0  0  0
  139.7380   72.4580  221.9510 C   0  0  0  0  0  0  0  0  0  0  0  0
  138.9980   73.6640  222.1540 N   0  0  0  0  0  0  0  0  0  0  0  0
  138.8370   74.6500  221.0790 C   0  0  0  0  0  0  0  0  0  0  0  0
  139.8740   75.6880  221.1870 C   0  0  0  0  0  0  0  0  0  0  0  0
  140.4620   75.7600  222.3310 O   0  0  0  0  0  0  0  0  0  0  0  0
  140.2960   76.5980  220.2230 N   0  0  0  0  0  0  0  0  0  0  0  0
  139.9320   76.2740  218.8150 C   0  0  0  0  0  0  0  0  0  0  0  0
  141.1940   76.6370  218.0380 C   0  0  0  0  0  0  0  0  0  0  0  0
  142.4460   76.4950  218.8720 C   0  0  0  0  0  0  0  0  0  0  0  0
  142.4950   77.4060  220.0810 C   0  0  0  0  0  0  0  0  0  0  0  0
  141.0640   77.8010  220.3670 C   0  0  2  0  0  0  0  0  0  0  0  0
  140.8510   78.6020  221.5590 C   0  0  0  0  0  0  0  0  0  0  0  0
  141.8740   78.6570  222.5020 C   0  0  0  0  0  0  0  0  0  0  0  0
  141.6980   79.4150  223.6490 C   0  0  0  0  0  0  0  0  0  0  0  0
  140.5010   80.1070  223.8360 C   0  0  0  0  0  0  0  0  0  0  0  0
  139.5000   80.0270  222.8710 C   0  0  0  0  0  0  0  0  0  0  0  0
  139.6940   79.2780  221.7540 N   0  0  0  0  0  0  0  0  0  0  0  0
  139.8530   71.5270  223.0700 C   0  0  0  0  0  0  0  0  0  0  0  0
  139.4240   70.2260  222.8730 C   0  0  0  0  0  0  0  0  0  0  0  0
  139.5180   69.3200  223.9130 C   0  0  0  0  0  0  0  0  0  0  0  0
  140.0320   69.6970  225.1340 C   0  0  0  0  0  0  0  0  0  0  0  0
  140.1420   68.8210  226.1940 C   0  0  0  0  0  0  0  0  0  0  0  0
  140.6680   69.2600  227.4070 C   0  0  0  0  0  0  0  0  0  0  0  0
  140.8150   68.1670  228.7580 Cl  0  0  0  0  0  0  0  0  0  0  0  0
  141.0800   70.5700  227.5480 C   0  0  0  0  0  0  0  0  0  0  0  0
  140.9760   71.4680  226.4840 C   0  0  0  0  0  0  0  0  0  0  0  0
  140.4450   71.0010  225.2830 C   0  0  0  0  0  0  0  0  0  0  0  0
  140.3470   71.8690  224.2670 N   0  0  0  0  0  0  0  0  0  0  0  0
  138.5570   73.8510  223.0960 H   0  0  0  0  0  0  0  0  0  0  0  0
  138.9270   74.1454  220.1057 H   0  0  0  0  0  0  0  0  0  0  0  0
  137.8462   75.1198  221.1662 H   0  0  0  0  0  0  0  0  0  0  0  0
  139.6941   75.2057  218.7046 H   0  0  0  0  0  0  0  0  0  0  0  0
  139.0391   76.8126  218.4648 H   0  0  0  0  0  0  0  0  0  0  0  0
  141.2743   75.9729  217.1648 H   0  0  0  0  0  0  0  0  0  0  0  0
  141.1101   77.6916  217.7367 H   0  0  0  0  0  0  0  0  0  0  0  0
  142.5109   75.4541  219.2218 H   0  0  0  0  0  0  0  0  0  0  0  0
  143.2892   76.7819  218.2265 H   0  0  0  0  0  0  0  0  0  0  0  0
  142.9236   76.8737  220.9429 H   0  0  0  0  0  0  0  0  0  0  0  0
  143.1255   78.2878  219.8943 H   0  0  0  0  0  0  0  0  0  0  0  0
  140.7040   78.5473  219.6435 H   0  0  0  0  0  0  0  0  0  0  0  0
  142.8113   78.1051  222.3385 H   0  0  0  0  0  0  0  0  0  0  0  0
  142.4950   79.4705  224.4051 H   0  0  0  0  0  0  0  0  0  0  0  0
  140.3486   80.7129  224.7413 H   0  0  0  0  0  0  0  0  0  0  0  0
  138.5536   80.5694  223.0129 H   0  0  0  0  0  0  0  0  0  0  0  0
  139.0132   69.9166  221.9006 H   0  0  0  0  0  0  0  0  0  0  0  0
  139.1779   68.2846  223.7634 H   0  0  0  0  0  0  0  0  0  0  0  0
  139.8147   67.7769  226.0815 H   0  0  0  0  0  0  0  0  0  0  0  0
  141.4945   70.9098  228.5086 H   0  0  0  0  0  0  0  0  0  0  0  0
  141.3033   72.5128  226.5904 H   0  0  0  0  0  0  0  0  0  0  0  0
  1  2  2  0
  2  3  1  0
  3  4  1  0
  4  5  1  0
  5  6  2  0
  5  7  1  0
  7  8  1  0
  8  9  1  0
  9 10  1  0
 10 11  1  0
 11 12  1  0
 12 13  1  0
 13 14  2  0
 14 15  1  0
 15 16  2  0
 16 17  1  0
 17 18  2  0
  2 19  1  0
 19 20  2  0
 20 21  1  0
 21 22  2  0
 22 23  1  0
 23 24  2  0
 24 25  1  0
 24 26  1  0
 26 27  2  0
 27 28  1  0
 28 29  2  0
 12  7  1  0
 18 13  1  0
 29 19  1  0
 28 22  1  0
  3 30  1  0
  4 31  1  0
  4 32  1  0
  8 33  1  0
  8 34  1  0
  9 35  1  0
  9 36  1  0
 10 37  1  0
 10 38  1  0
 11 39  1  0
 11 40  1  0
 12 41  1  6
 14 42  1  0
 15 43  1  0
 16 44  1  0
 17 45  1  0
 20 46  1  0
 21 47  1  0
 23 48  1  0
 26 49  1  0
 27 50  1  0
M  END
>  <smiles>  (36) 
O=C(NCC(=O)N1CCCCC1c1ccccn1)c1ccc2cc(Cl)ccc2n1

>  <score_type>  (36) 
oracle

>  <origin>  (36) 
autodockgpu

>  <m_score__min__energy>  (36) 
-8.5099999999999998

>  <m_primary>  (36) 
energy

>  <rmsd>  (36) 
2.0729352555319953

>  <m_score__min__rmsd>  (36) 
2.0729352555319953

>  <meeko>  (36) 
{"free_energy": -8.25, "intermolecular_energy": -9.74, "internal_energy": -1.6, "cluster_size": 11, "cluster_id": 1, "rank_in_cluster": 7}

>  <energy>  (36) 
-7.87

>  <cluster_rmsd>  (36) 
0.5

>  <cluster>  (36) 
5

$$$$

     RDKit          3D

 50 53  0  0  0  0  0  0  0  0999 V2000
  140.4340   72.4130  220.6530 O   0  0  0  0  0  0  0  0  0  0  0  0
  140.1510   72.7710  221.8080 C   0  0  0  0  0  0  0  0  0  0  0  0
  139.8980   74.1590  222.0340 N   0  0  0  0  0  0  0  0  0  0  0  0
  139.9670   75.1350  220.9400 C   0  0  0  0  0  0  0  0  0  0  0  0
  140.9500   76.1830  221.2600 C   0  0  0  0  0  0  0  0  0  0  0  0
  140.9680   76.5620  222.4910 O   0  0  0  0  0  0  0  0  0  0  0  0
  141.8510   76.8160  220.4110 N   0  0  0  0  0  0  0  0  0  0  0  0
  141.7570   78.3020  220.3480 C   0  0  0  0  0  0  0  0  0  0  0  0
  141.9380   78.5980  218.8620 C   0  0  0  0  0  0  0  0  0  0  0  0
  141.4590   77.4640  217.9850 C   0  0  0  0  0  0  0  0  0  0  0  0
  142.2090   76.1640  218.1840 C   0  0  0  0  0  0  0  0  0  0  0  0
  142.8530   76.2560  219.5500 C   0  0  2  0  0  0  0  0  0  0  0  0
  143.5510   75.0680  220.0060 C   0  0  0  0  0  0  0  0  0  0  0  0
  142.8710   73.8530  219.9650 C   0  0  0  0  0  0  0  0  0  0  0  0
  143.5130   72.7020  220.3940 C   0  0  0  0  0  0  0  0  0  0  0  0
  144.8270   72.7830  220.8570 C   0  0  0  0  0  0  0  0  0  0  0  0
  145.4740   74.0160  220.8840 C   0  0  0  0  0  0  0  0  0  0  0  0
  144.8260   75.1320  220.4590 N   0  0  0  0  0  0  0  0  0  0  0  0
  140.0630   71.8630  222.9490 C   0  0  0  0  0  0  0  0  0  0  0  0
  139.3640   70.6810  222.7790 C   0  0  0  0  0  0  0  0  0  0  0  0
  139.2610   69.8000  223.8390 C   0  0  0  0  0  0  0  0  0  0  0  0
  139.8440   70.0860  225.0540 C   0  0  0  0  0  0  0  0  0  0  0  0
  139.7630   69.2310  226.1340 C   0  0  0  0  0  0  0  0  0  0  0  0
  140.3720   69.5740  227.3400 C   0  0  0  0  0  0  0  0  0  0  0  0
  140.2800   68.5070  228.7160 Cl  0  0  0  0  0  0  0  0  0  0  0  0
  141.0570   70.7680  227.4530 C   0  0  0  0  0  0  0  0  0  0  0  0
  141.1470   71.6420  226.3680 C   0  0  0  0  0  0  0  0  0  0  0  0
  140.5290   71.2730  225.1760 C   0  0  0  0  0  0  0  0  0  0  0  0
  140.6200   72.1180  224.1400 N   0  0  0  0  0  0  0  0  0  0  0  0
  139.6560   74.4920  223.0070 H   0  0  0  0  0  0  0  0  0  0  0  0
  140.2687   74.6234  220.0141 H   0  0  0  0  0  0  0  0  0  0  0  0
  138.9778   75.5972  220.8062 H   0  0  0  0  0  0  0  0  0  0  0  0
  140.7763   78.6510  220.7035 H   0  0  0  0  0  0  0  0  0  0  0  0
  142.4981   78.8093  220.9832 H   0  0  0  0  0  0  0  0  0  0  0  0
  141.3674   79.5042  218.6104 H   0  0  0  0  0  0  0  0  0  0  0  0
  143.0137   78.7338  218.6761 H   0  0  0  0  0  0  0  0  0  0  0  0
  140.3957   77.2853  218.2028 H   0  0  0  0  0  0  0  0  0  0  0  0
  141.6355   77.7738  216.9444 H   0  0  0  0  0  0  0  0  0  0  0  0
  141.5137   75.3125  218.1463 H   0  0  0  0  0  0  0  0  0  0  0  0
  142.9599   76.0085  217.3954 H   0  0  0  0  0  0  0  0  0  0  0  0
  143.7285   76.9218  219.5345 H   0  0  0  0  0  0  0  0  0  0  0  0
  141.8357   73.8075  219.5961 H   0  0  0  0  0  0  0  0  0  0  0  0
  142.9917   71.7337  220.3698 H   0  0  0  0  0  0  0  0  0  0  0  0
  145.3492   71.8773  221.1990 H   0  0  0  0  0  0  0  0  0  0  0  0
  146.5092   74.0863  221.2493 H   0  0  0  0  0  0  0  0  0  0  0  0
  138.8959   70.4453  221.8119 H   0  0  0  0  0  0  0  0  0  0  0  0
  138.7065   68.8586  223.7109 H   0  0  0  0  0  0  0  0  0  0  0  0
  139.2183   68.2796  226.0433 H   0  0  0  0  0  0  0  0  0  0  0  0
  141.5363   71.0329  228.4070 H   0  0  0  0  0  0  0  0  0  0  0  0
  141.6904   72.5947  226.4523 H   0  0  0  0  0  0  0  0  0  0  0  0
  1  2  2  0
  2  3  1  0
  3  4  1  0
  4  5  1  0
  5  6  2  0
  5  7  1  0
  7  8  1  0
  8  9  1  0
  9 10  1  0
 10 11  1  0
 11 12  1  0
 12 13  1  0
 13 14  2  0
 14 15  1  0
 15 16  2  0
 16 17  1  0
 17 18  2  0
  2 19  1  0
 19 20  2  0
 20 21  1  0
 21 22  2  0
 22 23  1  0
 23 24  2  0
 24 25  1  0
 24 26  1  0
 26 27  2  0
 27 28  1  0
 28 29  2  0
 12  7  1  0
 18 13  1  0
 29 19  1  0
 28 22  1  0
  3 30  1  0
  4 31  1  0
  4 32  1  0
  8 33  1  0
  8 34  1  0
  9 35  1  0
  9 36  1  0
 10 37  1  0
 10 38  1  0
 11 39  1  0
 11 40  1  0
 12 41  1  6
 14 42  1  0
 15 43  1  0
 16 44  1  0
 17 45  1  0
 20 46  1  0
 21 47  1  0
 23 48  1  0
 26 49  1  0
 27 50  1  0
M  END
>  <smiles>  (37) 
O=C(NCC(=O)N1CCCCC1c1ccccn1)c1ccc2cc(Cl)ccc2n1

>  <score_type>  (37) 
oracle

>  <origin>  (37) 
autodockgpu

>  <m_score__min__energy>  (37) 
-8.5099999999999998

>  <m_primary>  (37) 
energy

>  <rmsd>  (37) 
4.137307795097431

>  <m_score__min__rmsd>  (37) 
4.137307795097431

>  <meeko>  (37) 
{"free_energy": -8.27, "intermolecular_energy": -9.77, "internal_energy": -2.06, "cluster_size": 18, "cluster_id": 2, "rank_in_cluster": 5}

>  <energy>  (37) 
-7.84

>  <cluster_rmsd>  (37) 
0.5

>  <cluster>  (37) 
5

$$$$

     RDKit          3D

 50 53  0  0  0  0  0  0  0  0999 V2000
  136.5440   71.5170  221.3280 O   0  0  0  0  0  0  0  0  0  0  0  0
  137.3420   71.9540  222.1740 C   0  0  0  0  0  0  0  0  0  0  0  0
  137.7690   73.3120  222.0510 N   0  0  0  0  0  0  0  0  0  0  0  0
  137.2830   74.1690  220.9630 C   0  0  0  0  0  0  0  0  0  0  0  0
  138.1920   75.3110  220.7750 C   0  0  0  0  0  0  0  0  0  0  0  0
  138.1950   75.8210  219.5920 O   0  0  0  0  0  0  0  0  0  0  0  0
  139.0430   75.9050  221.7000 N   0  0  0  0  0  0  0  0  0  0  0  0
  138.4130   76.8740  222.6400 C   0  0  0  0  0  0  0  0  0  0  0  0
  139.4380   78.0020  222.7150 C   0  0  0  0  0  0  0  0  0  0  0  0
  140.2520   78.1260  221.4480 C   0  0  0  0  0  0  0  0  0  0  0  0
  141.0870   76.9060  221.1230 C   0  0  0  0  0  0  0  0  0  0  0  0
  140.4590   75.7550  221.8760 C   0  0  2  0  0  0  0  0  0  0  0  0
  141.0360   74.4450  221.6350 C   0  0  0  0  0  0  0  0  0  0  0  0
  142.1240   74.3590  220.7700 C   0  0  0  0  0  0  0  0  0  0  0  0
  142.6960   73.1210  220.5210 C   0  0  0  0  0  0  0  0  0  0  0  0
  142.1710   71.9870  221.1420 C   0  0  0  0  0  0  0  0  0  0  0  0
  141.0820   72.1120  222.0000 C   0  0  0  0  0  0  0  0  0  0  0  0
  140.5360   73.3360  222.2300 N   0  0  0  0  0  0  0  0  0  0  0  0
  137.8720   71.1670  223.2840 C   0  0  0  0  0  0  0  0  0  0  0  0
  137.2240   69.9870  223.6040 C   0  0  0  0  0  0  0  0  0  0  0  0
  137.6990   69.2190  224.6510 C   0  0  0  0  0  0  0  0  0  0  0  0
  138.8040   69.6130  225.3720 C   0  0  0  0  0  0  0  0  0  0  0  0
  139.3070   68.8730  226.4220 C   0  0  0  0  0  0  0  0  0  0  0  0
  140.4280   69.3240  227.1160 C   0  0  0  0  0  0  0  0  0  0  0  0
  141.0780   68.4010  228.4450 Cl  0  0  0  0  0  0  0  0  0  0  0  0
  141.0360   70.5090  226.7530 C   0  0  0  0  0  0  0  0  0  0  0  0
  140.5370   71.2690  225.6930 C   0  0  0  0  0  0  0  0  0  0  0  0
  139.4160   70.7940  225.0170 C   0  0  0  0  0  0  0  0  0  0  0  0
  138.9430   71.5290  224.0010 N   0  0  0  0  0  0  0  0  0  0  0  0
  138.4480   73.7100  222.7560 H   0  0  0  0  0  0  0  0  0  0  0  0
  137.2360   73.5843  220.0325 H   0  0  0  0  0  0  0  0  0  0  0  0
  136.2814   74.5443  221.2199 H   0  0  0  0  0  0  0  0  0  0  0  0
  137.4529   77.2387  222.2460 H   0  0  0  0  0  0  0  0  0  0  0  0
  138.1814   76.4350  223.6217 H   0  0  0  0  0  0  0  0  0  0  0  0
  138.9079   78.9501  222.8885 H   0  0  0  0  0  0  0  0  0  0  0  0
  140.1310   77.7713  223.5375 H   0  0  0  0  0  0  0  0  0  0  0  0
  139.5612   78.3039  220.6106 H   0  0  0  0  0  0  0  0  0  0  0  0
  140.9555   78.9568  221.6053 H   0  0  0  0  0  0  0  0  0  0  0  0
  141.0698   76.7089  220.0409 H   0  0  0  0  0  0  0  0  0  0  0  0
  142.1383   77.0498  221.4129 H   0  0  0  0  0  0  0  0  0  0  0  0
  140.6964   75.8050  222.9489 H   0  0  0  0  0  0  0  0  0  0  0  0
  142.5252   75.2636  220.2896 H   0  0  0  0  0  0  0  0  0  0  0  0
  143.5556   73.0334  219.8403 H   0  0  0  0  0  0  0  0  0  0  0  0
  142.6158   70.9986  220.9543 H   0  0  0  0  0  0  0  0  0  0  0  0
  140.6635   71.2214  222.4916 H   0  0  0  0  0  0  0  0  0  0  0  0
  136.3416   69.6638  223.0323 H   0  0  0  0  0  0  0  0  0  0  0  0
  137.1874   68.2807  224.9115 H   0  0  0  0  0  0  0  0  0  0  0  0
  138.8237   67.9281  226.7110 H   0  0  0  0  0  0  0  0  0  0  0  0
  141.9219   70.8579  227.3039 H   0  0  0  0  0  0  0  0  0  0  0  0
  141.0155   72.2153  225.4005 H   0  0  0  0  0  0  0  0  0  0  0  0
  1  2  2  0
  2  3  1  0
  3  4  1  0
  4  5  1  0
  5  6  2  0
  5  7  1  0
  7  8  1  0
  8  9  1  0
  9 10  1  0
 10 11  1  0
 11 12  1  0
 12 13  1  0
 13 14  2  0
 14 15  1  0
 15 16  2  0
 16 17  1  0
 17 18  2  0
  2 19  1  0
 19 20  2  0
 20 21  1  0
 21 22  2  0
 22 23  1  0
 23 24  2  0
 24 25  1  0
 24 26  1  0
 26 27  2  0
 27 28  1  0
 28 29  2  0
 12  7  1  0
 18 13  1  0
 29 19  1  0
 28 22  1  0
  3 30  1  0
  4 31  1  0
  4 32  1  0
  8 33  1  0
  8 34  1  0
  9 35  1  0
  9 36  1  0
 10 37  1  0
 10 38  1  0
 11 39  1  0
 11 40  1  0
 12 41  1  1
 14 42  1  0
 15 43  1  0
 16 44  1  0
 17 45  1  0
 20 46  1  0
 21 47  1  0
 23 48  1  0
 26 49  1  0
 27 50  1  0
M  END
>  <smiles>  (38) 
O=C(NCC(=O)N1CCCCC1c1ccccn1)c1ccc2cc(Cl)ccc2n1

>  <score_type>  (38) 
oracle

>  <origin>  (38) 
autodockgpu

>  <m_score__min__energy>  (38) 
-8.5099999999999998

>  <m_primary>  (38) 
energy

>  <rmsd>  (38) 
4.170711161498459

>  <m_score__min__rmsd>  (38) 
4.170711161498459

>  <meeko>  (38) 
{"free_energy": -7.46, "intermolecular_energy": -8.96, "internal_energy": -2.88, "cluster_size": 1, "cluster_id": 7, "rank_in_cluster": 1}

>  <energy>  (38) 
-7.79

>  <cluster_rmsd>  (38) 
0.51

>  <cluster>  (38) 
5

$$$$

     RDKit          3D

 50 53  0  0  0  0  0  0  0  0999 V2000
  140.2170   72.5440  220.7180 O   0  0  0  0  0  0  0  0  0  0  0  0
  139.9600   72.8480  221.8950 C   0  0  0  0  0  0  0  0  0  0  0  0
  139.5920   74.2010  222.1710 N   0  0  0  0  0  0  0  0  0  0  0  0
  139.5170   75.2040  221.1020 C   0  0  0  0  0  0  0  0  0  0  0  0
  139.6930   76.5540  221.6630 C   0  0  0  0  0  0  0  0  0  0  0  0
  140.8340   77.1020  221.4250 O   0  0  0  0  0  0  0  0  0  0  0  0
  138.7960   77.3060  222.4130 N   0  0  0  0  0  0  0  0  0  0  0  0
  137.6250   76.5680  222.9650 C   0  0  0  0  0  0  0  0  0  0  0  0
  136.4700   77.5430  222.7550 C   0  0  0  0  0  0  0  0  0  0  0  0
  136.6900   78.4510  221.5680 C   0  0  0  0  0  0  0  0  0  0  0  0
  137.9010   79.3520  221.6900 C   0  0  0  0  0  0  0  0  0  0  0  0
  138.8020   78.7070  222.7190 C   0  0  2  0  0  0  0  0  0  0  0  0
  140.0860   79.3490  222.9320 C   0  0  0  0  0  0  0  0  0  0  0  0
  140.2850   80.6130  222.3830 C   0  0  0  0  0  0  0  0  0  0  0  0
  141.5020   81.2500  222.5710 C   0  0  0  0  0  0  0  0  0  0  0  0
  142.5030   80.6120  223.3050 C   0  0  0  0  0  0  0  0  0  0  0  0
  142.2680   79.3480  223.8380 C   0  0  0  0  0  0  0  0  0  0  0  0
  141.0670   78.7420  223.6420 N   0  0  0  0  0  0  0  0  0  0  0  0
  140.0110   71.9100  223.0140 C   0  0  0  0  0  0  0  0  0  0  0  0
  139.5500   70.6230  222.7970 C   0  0  0  0  0  0  0  0  0  0  0  0
  139.5850   69.7110  223.8350 C   0  0  0  0  0  0  0  0  0  0  0  0
  140.0710   70.0680  225.0730 C   0  0  0  0  0  0  0  0  0  0  0  0
  140.1210   69.1850  226.1320 C   0  0  0  0  0  0  0  0  0  0  0  0
  140.6220   69.6040  227.3640 C   0  0  0  0  0  0  0  0  0  0  0  0
  140.6940   68.5020  228.7130 Cl  0  0  0  0  0  0  0  0  0  0  0  0
  141.0690   70.9000  227.5230 C   0  0  0  0  0  0  0  0  0  0  0  0
  141.0250   71.8040  226.4600 C   0  0  0  0  0  0  0  0  0  0  0  0
  140.5190   71.3580  225.2420 C   0  0  0  0  0  0  0  0  0  0  0  0
  140.4790   72.2320  224.2260 N   0  0  0  0  0  0  0  0  0  0  0  0
  139.3680   74.4880  223.1630 H   0  0  0  0  0  0  0  0  0  0  0  0
  140.3098   75.0100  220.3646 H   0  0  0  0  0  0  0  0  0  0  0  0
  138.5318   75.1408  220.6169 H   0  0  0  0  0  0  0  0  0  0  0  0
  137.4548   75.6302  222.4158 H   0  0  0  0  0  0  0  0  0  0  0  0
  137.7563   76.2739  224.0168 H   0  0  0  0  0  0  0  0  0  0  0  0
  135.5469   76.9671  222.5927 H   0  0  0  0  0  0  0  0  0  0  0  0
  136.3986   78.1757  223.6520 H   0  0  0  0  0  0  0  0  0  0  0  0
  136.8156   77.8240  220.6730 H   0  0  0  0  0  0  0  0  0  0  0  0
  135.8113   79.1100  221.5077 H   0  0  0  0  0  0  0  0  0  0  0  0
  138.4193   79.4279  220.7227 H   0  0  0  0  0  0  0  0  0  0  0  0
  137.6149   80.3712  221.9890 H   0  0  0  0  0  0  0  0  0  0  0  0
  138.4138   78.8543  223.7376 H   0  0  0  0  0  0  0  0  0  0  0  0
  139.4853   81.1009  221.8064 H   0  0  0  0  0  0  0  0  0  0  0  0
  141.6770   82.2492  222.1455 H   0  0  0  0  0  0  0  0  0  0  0  0
  143.4733   81.1059  223.4615 H   0  0  0  0  0  0  0  0  0  0  0  0
  143.0531   78.8399  224.4172 H   0  0  0  0  0  0  0  0  0  0  0  0
  139.1607   70.3297  221.8109 H   0  0  0  0  0  0  0  0  0  0  0  0
  139.2199   68.6866  223.6700 H   0  0  0  0  0  0  0  0  0  0  0  0
  139.7661   68.1517  226.0046 H   0  0  0  0  0  0  0  0  0  0  0  0
  141.4640   71.2240  228.4972 H   0  0  0  0  0  0  0  0  0  0  0  0
  141.3796   72.8382  226.5812 H   0  0  0  0  0  0  0  0  0  0  0  0
  1  2  2  0
  2  3  1  0
  3  4  1  0
  4  5  1  0
  5  6  2  0
  5  7  1  0
  7  8  1  0
  8  9  1  0
  9 10  1  0
 10 11  1  0
 11 12  1  0
 12 13  1  0
 13 14  2  0
 14 15  1  0
 15 16  2  0
 16 17  1  0
 17 18  2  0
  2 19  1  0
 19 20  2  0
 20 21  1  0
 21 22  2  0
 22 23  1  0
 23 24  2  0
 24 25  1  0
 24 26  1  0
 26 27  2  0
 27 28  1  0
 28 29  2  0
 12  7  1  0
 18 13  1  0
 29 19  1  0
 28 22  1  0
  3 30  1  0
  4 31  1  0
  4 32  1  0
  8 33  1  0
  8 34  1  0
  9 35  1  0
  9 36  1  0
 10 37  1  0
 10 38  1  0
 11 39  1  0
 11 40  1  0
 12 41  1  1
 14 42  1  0
 15 43  1  0
 16 44  1  0
 17 45  1  0
 20 46  1  0
 21 47  1  0
 23 48  1  0
 26 49  1  0
 27 50  1  0
M  END
>  <smiles>  (39) 
O=C(NCC(=O)N1CCCCC1c1ccccn1)c1ccc2cc(Cl)ccc2n1

>  <score_type>  (39) 
oracle

>  <origin>  (39) 
autodockgpu

>  <m_score__min__energy>  (39) 
-8.5099999999999998

>  <m_primary>  (39) 
energy

>  <rmsd>  (39) 
3.286610296672457

>  <m_score__min__rmsd>  (39) 
3.286610296672457

>  <meeko>  (39) 
{"free_energy": -8.51, "intermolecular_energy": -10.0, "internal_energy": -1.4, "cluster_size": 11, "cluster_id": 1, "rank_in_cluster": 1}

>  <energy>  (39) 
-7.79

>  <cluster_rmsd>  (39) 
0.59

>  <cluster>  (39) 
5

$$$$

     RDKit          3D

 50 53  0  0  0  0  0  0  0  0999 V2000
  141.0940   71.4190  221.2840 O   0  0  0  0  0  0  0  0  0  0  0  0
  140.8870   72.4470  221.9510 C   0  0  0  0  0  0  0  0  0  0  0  0
  140.3370   72.2950  223.2610 N   0  0  0  0  0  0  0  0  0  0  0  0
  140.0260   70.9690  223.8080 C   0  0  0  0  0  0  0  0  0  0  0  0
  140.2780   70.9500  225.2580 C   0  0  0  0  0  0  0  0  0  0  0  0
  141.0630   71.8750  225.6910 O   0  0  0  0  0  0  0  0  0  0  0  0
  139.7850   70.0670  226.2130 N   0  0  0  0  0  0  0  0  0  0  0  0
  140.0770   70.4120  227.6330 C   0  0  0  0  0  0  0  0  0  0  0  0
  140.4260   69.0630  228.2540 C   0  0  0  0  0  0  0  0  0  0  0  0
  141.0200   68.1020  227.2490 C   0  0  0  0  0  0  0  0  0  0  0  0
  140.0920   67.7420  226.1080 C   0  0  0  0  0  0  0  0  0  0  0  0
  139.0570   68.8430  226.0460 C   0  0  2  0  0  0  0  0  0  0  0  0
  138.1080   68.7630  224.9510 C   0  0  0  0  0  0  0  0  0  0  0  0
  138.5200   68.1470  223.7720 C   0  0  0  0  0  0  0  0  0  0  0  0
  137.6340   68.0570  222.7090 C   0  0  0  0  0  0  0  0  0  0  0  0
  136.3490   68.5840  222.8420 C   0  0  0  0  0  0  0  0  0  0  0  0
  135.9740   69.1940  224.0360 C   0  0  0  0  0  0  0  0  0  0  0  0
  136.8580   69.2720  225.0650 N   0  0  0  0  0  0  0  0  0  0  0  0
  141.1680   73.8000  221.4780 C   0  0  0  0  0  0  0  0  0  0  0  0
  141.9540   73.9380  220.3480 C   0  0  0  0  0  0  0  0  0  0  0  0
  142.2400   75.2050  219.8750 C   0  0  0  0  0  0  0  0  0  0  0  0
  141.7520   76.3240  220.5130 C   0  0  0  0  0  0  0  0  0  0  0  0
  142.0160   77.6040  220.0710 C   0  0  0  0  0  0  0  0  0  0  0  0
  141.4960   78.6980  220.7590 C   0  0  0  0  0  0  0  0  0  0  0  0
  141.8180   80.3230  220.2140 Cl  0  0  0  0  0  0  0  0  0  0  0  0
  140.7170   78.5020  221.8820 C   0  0  0  0  0  0  0  0  0  0  0  0
  140.4420   77.2130  222.3410 C   0  0  0  0  0  0  0  0  0  0  0  0
  140.9750   76.1380  221.6330 C   0  0  0  0  0  0  0  0  0  0  0  0
  140.7060   74.9040  222.0810 N   0  0  0  0  0  0  0  0  0  0  0  0
  140.1490   73.1520  223.8500 H   0  0  0  0  0  0  0  0  0  0  0  0
  138.9676   70.7364  223.6193 H   0  0  0  0  0  0  0  0  0  0  0  0
  140.6659   70.2186  223.3208 H   0  0  0  0  0  0  0  0  0  0  0  0
  140.9244   71.1098  227.7033 H   0  0  0  0  0  0  0  0  0  0  0  0
  139.2381   70.9148  228.1363 H   0  0  0  0  0  0  0  0  0  0  0  0
  141.1547   69.2241  229.0621 H   0  0  0  0  0  0  0  0  0  0  0  0
  139.4946   68.6177  228.6338 H   0  0  0  0  0  0  0  0  0  0  0  0
  141.9248   68.5622  226.8252 H   0  0  0  0  0  0  0  0  0  0  0  0
  141.2296   67.1683  227.7914 H   0  0  0  0  0  0  0  0  0  0  0  0
  140.6517   67.6904  225.1624 H   0  0  0  0  0  0  0  0  0  0  0  0
  139.6241   66.7590  226.2653 H   0  0  0  0  0  0  0  0  0  0  0  0
  138.3234   68.7469  226.8600 H   0  0  0  0  0  0  0  0  0  0  0  0
  139.5368   67.7364  223.6849 H   0  0  0  0  0  0  0  0  0  0  0  0
  137.9415   67.5745  221.7695 H   0  0  0  0  0  0  0  0  0  0  0  0
  135.6355   68.5178  222.0074 H   0  0  0  0  0  0  0  0  0  0  0  0
  134.9627   69.6125  224.1463 H   0  0  0  0  0  0  0  0  0  0  0  0
  142.3469   73.0497  219.8318 H   0  0  0  0  0  0  0  0  0  0  0  0
  142.8654   75.3211  218.9775 H   0  0  0  0  0  0  0  0  0  0  0  0
  142.6365   77.7605  219.1763 H   0  0  0  0  0  0  0  0  0  0  0  0
  140.3091   79.3703  222.4202 H   0  0  0  0  0  0  0  0  0  0  0  0
  139.8227   77.0506  223.2355 H   0  0  0  0  0  0  0  0  0  0  0  0
  1  2  2  0
  2  3  1  0
  3  4  1  0
  4  5  1  0
  5  6  2  0
  5  7  1  0
  7  8  1  0
  8  9  1  0
  9 10  1  0
 10 11  1  0
 11 12  1  0
 12 13  1  0
 13 14  2  0
 14 15  1  0
 15 16  2  0
 16 17  1  0
 17 18  2  0
  2 19  1  0
 19 20  2  0
 20 21  1  0
 21 22  2  0
 22 23  1  0
 23 24  2  0
 24 25  1  0
 24 26  1  0
 26 27  2  0
 27 28  1  0
 28 29  2  0
 12  7  1  0
 18 13  1  0
 29 19  1  0
 28 22  1  0
  3 30  1  0
  4 31  1  0
  4 32  1  0
  8 33  1  0
  8 34  1  0
  9 35  1  0
  9 36  1  0
 10 37  1  0
 10 38  1  0
 11 39  1  0
 11 40  1  0
 12 41  1  1
 14 42  1  0
 15 43  1  0
 16 44  1  0
 17 45  1  0
 20 46  1  0
 21 47  1  0
 23 48  1  0
 26 49  1  0
 27 50  1  0
M  END
>  <smiles>  (40) 
O=C(NCC(=O)N1CCCCC1c1ccccn1)c1ccc2cc(Cl)ccc2n1

>  <score_type>  (40) 
oracle

>  <origin>  (40) 
autodockgpu

>  <m_score__min__energy>  (40) 
-8.5099999999999998

>  <m_primary>  (40) 
energy

>  <rmsd>  (40) 
9.858661555179468

>  <m_score__min__rmsd>  (40) 
9.858661555179468

>  <meeko>  (40) 
{"free_energy": -8.12, "intermolecular_energy": -9.62, "internal_energy": -1.89, "cluster_size": 4, "cluster_id": 3, "rank_in_cluster": 4}

>  <energy>  (40) 
-7.68

>  <cluster_rmsd>  (40) 
0.36

>  <cluster>  (40) 
5

$$$$

     RDKit          3D

 50 53  0  0  0  0  0  0  0  0999 V2000
  138.4130   71.5950  221.1320 O   0  0  0  0  0  0  0  0  0  0  0  0
  138.9960   71.9760  222.1600 C   0  0  0  0  0  0  0  0  0  0  0  0
  139.3990   73.3450  222.2330 N   0  0  0  0  0  0  0  0  0  0  0  0
  139.1320   74.2780  221.1320 C   0  0  0  0  0  0  0  0  0  0  0  0
  140.0560   75.4210  221.2030 C   0  0  0  0  0  0  0  0  0  0  0  0
  140.6470   75.5790  222.3380 O   0  0  0  0  0  0  0  0  0  0  0  0
  140.3690   76.3480  220.2160 N   0  0  0  0  0  0  0  0  0  0  0  0
  139.8180   76.0690  218.8600 C   0  0  0  0  0  0  0  0  0  0  0  0
  140.9760   76.4300  217.9340 C   0  0  0  0  0  0  0  0  0  0  0  0
  142.3230   76.2410  218.5930 C   0  0  0  0  0  0  0  0  0  0  0  0
  142.5490   77.1180  219.8070 C   0  0  0  0  0  0  0  0  0  0  0  0
  141.1760   77.5320  220.2880 C   0  0  2  0  0  0  0  0  0  0  0  0
  141.1380   78.3040  221.5160 C   0  0  0  0  0  0  0  0  0  0  0  0
  139.8990   78.5270  222.1110 C   0  0  0  0  0  0  0  0  0  0  0  0
  139.8330   79.2610  223.2850 C   0  0  0  0  0  0  0  0  0  0  0  0
  141.0080   79.7630  223.8460 C   0  0  0  0  0  0  0  0  0  0  0  0
  142.2290   79.5210  223.2210 C   0  0  0  0  0  0  0  0  0  0  0  0
  142.2710   78.7980  222.0710 N   0  0  0  0  0  0  0  0  0  0  0  0
  139.2980   71.1110  223.2980 C   0  0  0  0  0  0  0  0  0  0  0  0
  138.9550   69.7740  223.2000 C   0  0  0  0  0  0  0  0  0  0  0  0
  139.2260   68.9290  224.2600 C   0  0  0  0  0  0  0  0  0  0  0  0
  139.8310   69.4010  225.4040 C   0  0  0  0  0  0  0  0  0  0  0  0
  140.1180   68.5880  226.4810 C   0  0  0  0  0  0  0  0  0  0  0  0
  140.7300   69.1230  227.6130 C   0  0  0  0  0  0  0  0  0  0  0  0
  141.1000   68.1110  228.9830 Cl  0  0  0  0  0  0  0  0  0  0  0  0
  141.0510   70.4660  227.6560 C   0  0  0  0  0  0  0  0  0  0  0  0
  140.7670   71.3000  226.5730 C   0  0  0  0  0  0  0  0  0  0  0  0
  140.1540   70.7380  225.4560 C   0  0  0  0  0  0  0  0  0  0  0  0
  139.8850   71.5460  224.4210 N   0  0  0  0  0  0  0  0  0  0  0  0
  139.8980   73.6960  223.0960 H   0  0  0  0  0  0  0  0  0  0  0  0
  139.2698   73.7577  220.1726 H   0  0  0  0  0  0  0  0  0  0  0  0
  138.0982   74.6449  221.2135 H   0  0  0  0  0  0  0  0  0  0  0  0
  139.5447   75.0086  218.7554 H   0  0  0  0  0  0  0  0  0  0  0  0
  138.8989   76.6330  218.6426 H   0  0  0  0  0  0  0  0  0  0  0  0
  140.9269   75.7894  217.0411 H   0  0  0  0  0  0  0  0  0  0  0  0
  140.8771   77.4941  217.6735 H   0  0  0  0  0  0  0  0  0  0  0  0
  142.4095   75.1900  218.9058 H   0  0  0  0  0  0  0  0  0  0  0  0
  143.0814   76.5284  217.8499 H   0  0  0  0  0  0  0  0  0  0  0  0
  143.0746   76.5547  220.5922 H   0  0  0  0  0  0  0  0  0  0  0  0
  143.1688   77.9927  219.5606 H   0  0  0  0  0  0  0  0  0  0  0  0
  140.7413   78.3044  219.6365 H   0  0  0  0  0  0  0  0  0  0  0  0
  138.9825   78.1251  221.6543 H   0  0  0  0  0  0  0  0  0  0  0  0
  138.8632   79.4461  223.7700 H   0  0  0  0  0  0  0  0  0  0  0  0
  140.9701   80.3470  224.7774 H   0  0  0  0  0  0  0  0  0  0  0  0
  143.1586   79.9148  223.6579 H   0  0  0  0  0  0  0  0  0  0  0  0
  138.4726   69.3883  222.2898 H   0  0  0  0  0  0  0  0  0  0  0  0
  138.9549   67.8653  224.1890 H   0  0  0  0  0  0  0  0  0  0  0  0
  139.8640   67.5183  226.4463 H   0  0  0  0  0  0  0  0  0  0  0  0
  141.5349   70.8821  228.5519 H   0  0  0  0  0  0  0  0  0  0  0  0
  141.0201   72.3701  226.6012 H   0  0  0  0  0  0  0  0  0  0  0  0
  1  2  2  0
  2  3  1  0
  3  4  1  0
  4  5  1  0
  5  6  2  0
  5  7  1  0
  7  8  1  0
  8  9  1  0
  9 10  1  0
 10 11  1  0
 11 12  1  0
 12 13  1  0
 13 14  2  0
 14 15  1  0
 15 16  2  0
 16 17  1  0
 17 18  2  0
  2 19  1  0
 19 20  2  0
 20 21  1  0
 21 22  2  0
 22 23  1  0
 23 24  2  0
 24 25  1  0
 24 26  1  0
 26 27  2  0
 27 28  1  0
 28 29  2  0
 12  7  1  0
 18 13  1  0
 29 19  1  0
 28 22  1  0
  3 30  1  0
  4 31  1  0
  4 32  1  0
  8 33  1  0
  8 34  1  0
  9 35  1  0
  9 36  1  0
 10 37  1  0
 10 38  1  0
 11 39  1  0
 11 40  1  0
 12 41  1  6
 14 42  1  0
 15 43  1  0
 16 44  1  0
 17 45  1  0
 20 46  1  0
 21 47  1  0
 23 48  1  0
 26 49  1  0
 27 50  1  0
M  END
>  <smiles>  (41) 
O=C(NCC(=O)N1CCCCC1c1ccccn1)c1ccc2cc(Cl)ccc2n1

>  <score_type>  (41) 
oracle

>  <origin>  (41) 
autodockgpu

>  <m_score__min__energy>  (41) 
-8.5099999999999998

>  <m_primary>  (41) 
energy

>  <rmsd>  (41) 
1.899390995194195

>  <m_score__min__rmsd>  (41) 
1.899390995194195

>  <meeko>  (41) 
{"free_energy": -8.03, "intermolecular_energy": -9.53, "internal_energy": -2.13, "cluster_size": 11, "cluster_id": 1, "rank_in_cluster": 10}

>  <energy>  (41) 
-7.85

>  <cluster_rmsd>  (41) 
0.0

>  <cluster>  (41) 
6

$$$$

     RDKit          3D

 50 53  0  0  0  0  0  0  0  0999 V2000
  141.6330   72.1110  220.9140 O   0  0  0  0  0  0  0  0  0  0  0  0
  141.0210   72.9940  221.5380 C   0  0  0  0  0  0  0  0  0  0  0  0
  140.0700   72.5810  222.5210 N   0  0  0  0  0  0  0  0  0  0  0  0
  139.8210   71.1600  222.7920 C   0  0  0  0  0  0  0  0  0  0  0  0
  138.3970   70.9470  223.0990 C   0  0  0  0  0  0  0  0  0  0  0  0
  137.7070   72.0210  223.2770 O   0  0  0  0  0  0  0  0  0  0  0  0
  137.7060   69.7470  223.2260 N   0  0  0  0  0  0  0  0  0  0  0  0
  136.9790   69.2800  222.0120 C   0  0  0  0  0  0  0  0  0  0  0  0
  135.6620   68.7550  222.5770 C   0  0  0  0  0  0  0  0  0  0  0  0
  135.2600   69.4590  223.8530 C   0  0  0  0  0  0  0  0  0  0  0  0
  136.2360   69.2800  224.9960 C   0  0  0  0  0  0  0  0  0  0  0  0
  137.5540   68.8890  224.3650 C   0  0  2  0  0  0  0  0  0  0  0  0
  138.6800   68.7610  225.2720 C   0  0  0  0  0  0  0  0  0  0  0  0
  139.1950   69.9210  225.8450 C   0  0  0  0  0  0  0  0  0  0  0  0
  140.2700   69.8280  226.7150 C   0  0  0  0  0  0  0  0  0  0  0  0
  140.8150   68.5750  226.9990 C   0  0  0  0  0  0  0  0  0  0  0  0
  140.2740   67.4370  226.4060 C   0  0  0  0  0  0  0  0  0  0  0  0
  139.2200   67.5510  225.5560 N   0  0  0  0  0  0  0  0  0  0  0  0
  141.2120   74.4270  221.3280 C   0  0  0  0  0  0  0  0  0  0  0  0
  142.0500   74.8220  220.3000 C   0  0  0  0  0  0  0  0  0  0  0  0
  142.2530   76.1700  220.0750 C   0  0  0  0  0  0  0  0  0  0  0  0
  141.6320   77.1180  220.8580 C   0  0  0  0  0  0  0  0  0  0  0  0
  141.8090   78.4730  220.6630 C   0  0  0  0  0  0  0  0  0  0  0  0
  141.1550   79.3860  221.4880 C   0  0  0  0  0  0  0  0  0  0  0  0
  141.3680   81.1010  221.2570 Cl  0  0  0  0  0  0  0  0  0  0  0  0
  140.3290   78.9350  222.4990 C   0  0  0  0  0  0  0  0  0  0  0  0
  140.1400   77.5680  222.7080 C   0  0  0  0  0  0  0  0  0  0  0  0
  140.8070   76.6790  221.8680 C   0  0  0  0  0  0  0  0  0  0  0  0
  140.6200   75.3680  222.0750 N   0  0  0  0  0  0  0  0  0  0  0  0
  139.5340   73.3110  223.0670 H   0  0  0  0  0  0  0  0  0  0  0  0
  140.0953   70.5670  221.9071 H   0  0  0  0  0  0  0  0  0  0  0  0
  140.4269   70.8458  223.6547 H   0  0  0  0  0  0  0  0  0  0  0  0
  136.8051   70.1106  221.3121 H   0  0  0  0  0  0  0  0  0  0  0  0
  137.5356   68.5236  221.4392 H   0  0  0  0  0  0  0  0  0  0  0  0
  134.8714   68.9047  221.8270 H   0  0  0  0  0  0  0  0  0  0  0  0
  135.7992   67.6891  222.8114 H   0  0  0  0  0  0  0  0  0  0  0  0
  135.1719   70.5346  223.6402 H   0  0  0  0  0  0  0  0  0  0  0  0
  134.3099   69.0085  224.1760 H   0  0  0  0  0  0  0  0  0  0  0  0
  136.3449   70.2206  225.5558 H   0  0  0  0  0  0  0  0  0  0  0  0
  135.8877   68.5152  225.7057 H   0  0  0  0  0  0  0  0  0  0  0  0
  137.5398   67.8421  224.0275 H   0  0  0  0  0  0  0  0  0  0  0  0
  138.7534   70.9006  225.6097 H   0  0  0  0  0  0  0  0  0  0  0  0
  140.6897   70.7336  227.1774 H   0  0  0  0  0  0  0  0  0  0  0  0
  141.6679   68.4867  227.6880 H   0  0  0  0  0  0  0  0  0  0  0  0
  140.6995   66.4467  226.6255 H   0  0  0  0  0  0  0  0  0  0  0  0
  142.5488   74.0714  219.6693 H   0  0  0  0  0  0  0  0  0  0  0  0
  142.9190   76.4903  219.2602 H   0  0  0  0  0  0  0  0  0  0  0  0
  142.4659   78.8319  219.8569 H   0  0  0  0  0  0  0  0  0  0  0  0
  139.8148   79.6607  223.1462 H   0  0  0  0  0  0  0  0  0  0  0  0
  139.4839   77.2034  223.5121 H   0  0  0  0  0  0  0  0  0  0  0  0
  1  2  2  0
  2  3  1  0
  3  4  1  0
  4  5  1  0
  5  6  2  0
  5  7  1  0
  7  8  1  0
  8  9  1  0
  9 10  1  0
 10 11  1  0
 11 12  1  0
 12 13  1  0
 13 14  2  0
 14 15  1  0
 15 16  2  0
 16 17  1  0
 17 18  2  0
  2 19  1  0
 19 20  2  0
 20 21  1  0
 21 22  2  0
 22 23  1  0
 23 24  2  0
 24 25  1  0
 24 26  1  0
 26 27  2  0
 27 28  1  0
 28 29  2  0
 12  7  1  0
 18 13  1  0
 29 19  1  0
 28 22  1  0
  3 30  1  0
  4 31  1  0
  4 32  1  0
  8 33  1  0
  8 34  1  0
  9 35  1  0
  9 36  1  0
 10 37  1  0
 10 38  1  0
 11 39  1  0
 11 40  1  0
 12 41  1  6
 14 42  1  0
 15 43  1  0
 16 44  1  0
 17 45  1  0
 20 46  1  0
 21 47  1  0
 23 48  1  0
 26 49  1  0
 27 50  1  0
M  END
>  <smiles>  (42) 
O=C(NCC(=O)N1CCCCC1c1ccccn1)c1ccc2cc(Cl)ccc2n1

>  <score_type>  (42) 
oracle

>  <origin>  (42) 
autodockgpu

>  <m_score__min__energy>  (42) 
-8.5099999999999998

>  <m_primary>  (42) 
energy

>  <rmsd>  (42) 
9.329248414192941

>  <m_score__min__rmsd>  (42) 
9.329248414192941

>  <meeko>  (42) 
{"free_energy": -7.85, "intermolecular_energy": -9.34, "internal_energy": -2.03, "cluster_size": 3, "cluster_id": 6, "rank_in_cluster": 1}

>  <energy>  (42) 
-7.73

>  <cluster_rmsd>  (42) 
1.39

>  <cluster>  (42) 
6

$$$$

     RDKit          3D

 50 53  0  0  0  0  0  0  0  0999 V2000
  136.7550   71.2880  221.2940 O   0  0  0  0  0  0  0  0  0  0  0  0
  137.5120   71.7690  222.1540 C   0  0  0  0  0  0  0  0  0  0  0  0
  137.8620   73.1500  222.0410 N   0  0  0  0  0  0  0  0  0  0  0  0
  137.3450   73.9800  220.9460 C   0  0  0  0  0  0  0  0  0  0  0  0
  138.1930   75.1700  220.7710 C   0  0  0  0  0  0  0  0  0  0  0  0
  138.1500   75.7070  219.6010 O   0  0  0  0  0  0  0  0  0  0  0  0
  139.0300   75.7830  221.6970 N   0  0  0  0  0  0  0  0  0  0  0  0
  138.3800   76.7470  222.6290 C   0  0  0  0  0  0  0  0  0  0  0  0
  139.3850   77.8920  222.7010 C   0  0  0  0  0  0  0  0  0  0  0  0
  140.2020   78.0240  221.4370 C   0  0  0  0  0  0  0  0  0  0  0  0
  141.0590   76.8160  221.1220 C   0  0  0  0  0  0  0  0  0  0  0  0
  140.4470   75.6580  221.8790 C   0  0  2  0  0  0  0  0  0  0  0  0
  141.0480   74.3580  221.6480 C   0  0  0  0  0  0  0  0  0  0  0  0
  142.1100   74.2770  220.7510 C   0  0  0  0  0  0  0  0  0  0  0  0
  142.7040   73.0480  220.5110 C   0  0  0  0  0  0  0  0  0  0  0  0
  142.2250   71.9160  221.1720 C   0  0  0  0  0  0  0  0  0  0  0  0
  141.1600   72.0350  222.0610 C   0  0  0  0  0  0  0  0  0  0  0  0
  140.5930   73.2500  222.2810 N   0  0  0  0  0  0  0  0  0  0  0  0
  138.0680   71.0100  223.2720 C   0  0  0  0  0  0  0  0  0  0  0  0
  137.6500   69.7010  223.4340 C   0  0  0  0  0  0  0  0  0  0  0  0
  138.1560   68.9560  224.4820 C   0  0  0  0  0  0  0  0  0  0  0  0
  139.0660   69.5000  225.3600 C   0  0  0  0  0  0  0  0  0  0  0  0
  139.5940   68.7880  226.4180 C   0  0  0  0  0  0  0  0  0  0  0  0
  140.5110   69.3920  227.2750 C   0  0  0  0  0  0  0  0  0  0  0  0
  141.1880   68.5070  228.6160 Cl  0  0  0  0  0  0  0  0  0  0  0  0
  140.8940   70.7020  227.0660 C   0  0  0  0  0  0  0  0  0  0  0  0
  140.3690   71.4350  226.0000 C   0  0  0  0  0  0  0  0  0  0  0  0
  139.4530   70.8050  225.1600 C   0  0  0  0  0  0  0  0  0  0  0  0
  138.9540   71.5160  224.1390 N   0  0  0  0  0  0  0  0  0  0  0  0
  138.5040   73.5850  222.7580 H   0  0  0  0  0  0  0  0  0  0  0  0
  137.3431   73.3943  220.0149 H   0  0  0  0  0  0  0  0  0  0  0  0
  136.3208   74.2997  221.1886 H   0  0  0  0  0  0  0  0  0  0  0  0
  137.4154   77.0931  222.2292 H   0  0  0  0  0  0  0  0  0  0  0  0
  138.1521   76.3100  223.6124 H   0  0  0  0  0  0  0  0  0  0  0  0
  138.8380   78.8317  222.8674 H   0  0  0  0  0  0  0  0  0  0  0  0
  140.0789   77.6767  223.5269 H   0  0  0  0  0  0  0  0  0  0  0  0
  139.5120   78.1861  220.5958 H   0  0  0  0  0  0  0  0  0  0  0  0
  140.8905   78.8677  221.5927 H   0  0  0  0  0  0  0  0  0  0  0  0
  141.0497   76.6129  220.0410 H   0  0  0  0  0  0  0  0  0  0  0  0
  142.1065   76.9791  221.4155 H   0  0  0  0  0  0  0  0  0  0  0  0
  140.6781   75.7174  222.9528 H   0  0  0  0  0  0  0  0  0  0  0  0
  142.4739   75.1795  220.2380 H   0  0  0  0  0  0  0  0  0  0  0  0
  143.5447   72.9656  219.8064 H   0  0  0  0  0  0  0  0  0  0  0  0
  142.6868   70.9341  220.9914 H   0  0  0  0  0  0  0  0  0  0  0  0
  140.7781   71.1463  222.5847 H   0  0  0  0  0  0  0  0  0  0  0  0
  136.9234   69.2586  222.7367 H   0  0  0  0  0  0  0  0  0  0  0  0
  137.8274   67.9149  224.6164 H   0  0  0  0  0  0  0  0  0  0  0  0
  139.2907   67.7438  226.5844 H   0  0  0  0  0  0  0  0  0  0  0  0
  141.6196   71.1726  227.7458 H   0  0  0  0  0  0  0  0  0  0  0  0
  140.6696   72.4791  225.8283 H   0  0  0  0  0  0  0  0  0  0  0  0
  1  2  2  0
  2  3  1  0
  3  4  1  0
  4  5  1  0
  5  6  2  0
  5  7  1  0
  7  8  1  0
  8  9  1  0
  9 10  1  0
 10 11  1  0
 11 12  1  0
 12 13  1  0
 13 14  2  0
 14 15  1  0
 15 16  2  0
 16 17  1  0
 17 18  2  0
  2 19  1  0
 19 20  2  0
 20 21  1  0
 21 22  2  0
 22 23  1  0
 23 24  2  0
 24 25  1  0
 24 26  1  0
 26 27  2  0
 27 28  1  0
 28 29  2  0
 12  7  1  0
 18 13  1  0
 29 19  1  0
 28 22  1  0
  3 30  1  0
  4 31  1  0
  4 32  1  0
  8 33  1  0
  8 34  1  0
  9 35  1  0
  9 36  1  0
 10 37  1  0
 10 38  1  0
 11 39  1  0
 11 40  1  0
 12 41  1  1
 14 42  1  0
 15 43  1  0
 16 44  1  0
 17 45  1  0
 20 46  1  0
 21 47  1  0
 23 48  1  0
 26 49  1  0
 27 50  1  0
M  END
>  <smiles>  (43) 
O=C(NCC(=O)N1CCCCC1c1ccccn1)c1ccc2cc(Cl)ccc2n1

>  <score_type>  (43) 
oracle

>  <origin>  (43) 
autodockgpu

>  <m_score__min__energy>  (43) 
-8.5099999999999998

>  <m_primary>  (43) 
energy

>  <rmsd>  (43) 
4.141040549826014

>  <m_score__min__rmsd>  (43) 
4.141040549826014

>  <meeko>  (43) 
{"free_energy": -7.41, "intermolecular_energy": -8.9, "internal_energy": -2.95, "cluster_size": 18, "cluster_id": 2, "rank_in_cluster": 15}

>  <energy>  (43) 
-7.71

>  <cluster_rmsd>  (43) 
1.4

>  <cluster>  (43) 
6

$$$$

     RDKit          3D

 50 53  0  0  0  0  0  0  0  0999 V2000
  142.4100   73.1950  220.4240 O   0  0  0  0  0  0  0  0  0  0  0  0
  141.6440   73.8840  221.1180 C   0  0  0  0  0  0  0  0  0  0  0  0
  140.7340   73.2050  221.9850 N   0  0  0  0  0  0  0  0  0  0  0  0
  140.7020   71.7390  222.0610 C   0  0  0  0  0  0  0  0  0  0  0  0
  139.5180   71.2980  222.8140 C   0  0  0  0  0  0  0  0  0  0  0  0
  138.6520   72.2190  223.0630 O   0  0  0  0  0  0  0  0  0  0  0  0
  139.2160   70.0280  223.2930 N   0  0  0  0  0  0  0  0  0  0  0  0
  139.1220   68.9500  222.2690 C   0  0  0  0  0  0  0  0  0  0  0  0
  137.9120   68.1410  222.7270 C   0  0  0  0  0  0  0  0  0  0  0  0
  136.9080   68.9820  223.4810 C   0  0  0  0  0  0  0  0  0  0  0  0
  137.4400   69.5860  224.7630 C   0  0  0  0  0  0  0  0  0  0  0  0
  138.9470   69.5890  224.6320 C   0  0  2  0  0  0  0  0  0  0  0  0
  139.6790   70.2230  225.7130 C   0  0  0  0  0  0  0  0  0  0  0  0
  139.5510   69.6880  226.9920 C   0  0  0  0  0  0  0  0  0  0  0  0
  140.2390   70.2730  228.0440 C   0  0  0  0  0  0  0  0  0  0  0  0
  141.0450   71.3850  227.8000 C   0  0  0  0  0  0  0  0  0  0  0  0
  141.1480   71.8930  226.5070 C   0  0  0  0  0  0  0  0  0  0  0  0
  140.4650   71.3040  225.4910 N   0  0  0  0  0  0  0  0  0  0  0  0
  141.6140   75.3440  221.1000 C   0  0  0  0  0  0  0  0  0  0  0  0
  142.2000   75.9880  220.0250 C   0  0  0  0  0  0  0  0  0  0  0  0
  142.1900   77.3700  219.9780 C   0  0  0  0  0  0  0  0  0  0  0  0
  141.6040   78.1060  220.9840 C   0  0  0  0  0  0  0  0  0  0  0  0
  141.5740   79.4850  220.9720 C   0  0  0  0  0  0  0  0  0  0  0  0
  140.9680   80.1770  222.0190 C   0  0  0  0  0  0  0  0  0  0  0  0
  140.9200   81.9200  222.0200 Cl  0  0  0  0  0  0  0  0  0  0  0  0
  140.3980   79.4830  223.0680 C   0  0  0  0  0  0  0  0  0  0  0  0
  140.4210   78.0870  223.0930 C   0  0  0  0  0  0  0  0  0  0  0  0
  141.0340   77.4230  222.0330 C   0  0  0  0  0  0  0  0  0  0  0  0
  141.0520   76.0830  222.0660 N   0  0  0  0  0  0  0  0  0  0  0  0
  140.0700   73.7660  222.5860 H   0  0  0  0  0  0  0  0  0  0  0  0
  140.6621   71.3227  221.0436 H   0  0  0  0  0  0  0  0  0  0  0  0
  141.6080   71.3851  222.5748 H   0  0  0  0  0  0  0  0  0  0  0  0
  138.9585   69.3714  221.2661 H   0  0  0  0  0  0  0  0  0  0  0  0
  140.0393   68.3481  222.1898 H   0  0  0  0  0  0  0  0  0  0  0  0
  137.4192   67.7111  221.8425 H   0  0  0  0  0  0  0  0  0  0  0  0
  138.2719   67.3567  223.4092 H   0  0  0  0  0  0  0  0  0  0  0  0
  136.5818   69.8013  222.8235 H   0  0  0  0  0  0  0  0  0  0  0  0
  136.0852   68.3101  223.7667 H   0  0  0  0  0  0  0  0  0  0  0  0
  137.0655   70.6130  224.8852 H   0  0  0  0  0  0  0  0  0  0  0  0
  137.1144   69.0118  225.6429 H   0  0  0  0  0  0  0  0  0  0  0  0
  139.3617   68.5797  224.7709 H   0  0  0  0  0  0  0  0  0  0  0  0
  138.9108   68.8106  227.1660 H   0  0  0  0  0  0  0  0  0  0  0  0
  140.1501   69.8641  229.0613 H   0  0  0  0  0  0  0  0  0  0  0  0
  141.5970   71.8588  228.6251 H   0  0  0  0  0  0  0  0  0  0  0  0
  141.7816   72.7701  226.3089 H   0  0  0  0  0  0  0  0  0  0  0  0
  142.6686   75.4073  219.2168 H   0  0  0  0  0  0  0  0  0  0  0  0
  142.6558   77.8879  219.1267 H   0  0  0  0  0  0  0  0  0  0  0  0
  142.0281   80.0381  220.1366 H   0  0  0  0  0  0  0  0  0  0  0  0
  139.9214   80.0350  223.8915 H   0  0  0  0  0  0  0  0  0  0  0  0
  139.9684   77.5281  223.9253 H   0  0  0  0  0  0  0  0  0  0  0  0
  1  2  2  0
  2  3  1  0
  3  4  1  0
  4  5  1  0
  5  6  2  0
  5  7  1  0
  7  8  1  0
  8  9  1  0
  9 10  1  0
 10 11  1  0
 11 12  1  0
 12 13  1  0
 13 14  2  0
 14 15  1  0
 15 16  2  0
 16 17  1  0
 17 18  2  0
  2 19  1  0
 19 20  2  0
 20 21  1  0
 21 22  2  0
 22 23  1  0
 23 24  2  0
 24 25  1  0
 24 26  1  0
 26 27  2  0
 27 28  1  0
 28 29  2  0
 12  7  1  0
 18 13  1  0
 29 19  1  0
 28 22  1  0
  3 30  1  0
  4 31  1  0
  4 32  1  0
  8 33  1  0
  8 34  1  0
  9 35  1  0
  9 36  1  0
 10 37  1  0
 10 38  1  0
 11 39  1  0
 11 40  1  0
 12 41  1  6
 14 42  1  0
 15 43  1  0
 16 44  1  0
 17 45  1  0
 20 46  1  0
 21 47  1  0
 23 48  1  0
 26 49  1  0
 27 50  1  0
M  END
>  <smiles>  (44) 
O=C(NCC(=O)N1CCCCC1c1ccccn1)c1ccc2cc(Cl)ccc2n1

>  <score_type>  (44) 
oracle

>  <origin>  (44) 
autodockgpu

>  <m_score__min__energy>  (44) 
-8.5099999999999998

>  <m_primary>  (44) 
energy

>  <rmsd>  (44) 
9.183408002806976

>  <m_score__min__rmsd>  (44) 
9.183408002806976

>  <meeko>  (44) 
{"free_energy": -7.73, "intermolecular_energy": -9.22, "internal_energy": -2.12, "cluster_size": 3, "cluster_id": 6, "rank_in_cluster": 2}

>  <energy>  (44) 
-7.46

>  <cluster_rmsd>  (44) 
0.0

>  <cluster>  (44) 
7

$$$$

     RDKit          3D

 50 53  0  0  0  0  0  0  0  0999 V2000
  138.7990   71.5530  220.9210 O   0  0  0  0  0  0  0  0  0  0  0  0
  139.1640   71.9770  222.0300 C   0  0  0  0  0  0  0  0  0  0  0  0
  139.3350   73.3880  222.1830 N   0  0  0  0  0  0  0  0  0  0  0  0
  139.0870   74.3110  221.0690 C   0  0  0  0  0  0  0  0  0  0  0  0
  139.9070   75.5230  221.2260 C   0  0  0  0  0  0  0  0  0  0  0  0
  140.3030   75.7660  222.4280 O   0  0  0  0  0  0  0  0  0  0  0  0
  140.3030   76.4350  220.2540 N   0  0  0  0  0  0  0  0  0  0  0  0
  139.8270   76.1620  218.8690 C   0  0  0  0  0  0  0  0  0  0  0  0
  141.0470   76.4860  218.0120 C   0  0  0  0  0  0  0  0  0  0  0  0
  142.3470   76.2670  218.7520 C   0  0  0  0  0  0  0  0  0  0  0  0
  142.5230   77.1450  219.9730 C   0  0  0  0  0  0  0  0  0  0  0  0
  141.1350   77.5980  220.3680 C   0  0  2  0  0  0  0  0  0  0  0  0
  141.0440   78.3790  221.5880 C   0  0  0  0  0  0  0  0  0  0  0  0
  142.2060   78.9710  222.0750 C   0  0  0  0  0  0  0  0  0  0  0  0
  142.1490   79.7230  223.2380 C   0  0  0  0  0  0  0  0  0  0  0  0
  140.9280   79.8720  223.8970 C   0  0  0  0  0  0  0  0  0  0  0  0
  139.7870   79.2640  223.3810 C   0  0  0  0  0  0  0  0  0  0  0  0
  139.8660   78.5310  222.2400 N   0  0  0  0  0  0  0  0  0  0  0  0
  139.4320   71.1250  223.1860 C   0  0  0  0  0  0  0  0  0  0  0  0
  139.0570   69.7950  223.1070 C   0  0  0  0  0  0  0  0  0  0  0  0
  139.2950   68.9620  224.1840 C   0  0  0  0  0  0  0  0  0  0  0  0
  139.8980   69.4390  225.3270 C   0  0  0  0  0  0  0  0  0  0  0  0
  140.1520   68.6380  226.4210 C   0  0  0  0  0  0  0  0  0  0  0  0
  140.7640   69.1780  227.5510 C   0  0  0  0  0  0  0  0  0  0  0  0
  141.0930   68.1800  228.9420 Cl  0  0  0  0  0  0  0  0  0  0  0  0
  141.1170   70.5120  227.5750 C   0  0  0  0  0  0  0  0  0  0  0  0
  140.8670   71.3350  226.4740 C   0  0  0  0  0  0  0  0  0  0  0  0
  140.2540   70.7680  225.3600 C   0  0  0  0  0  0  0  0  0  0  0  0
  140.0160   71.5650  224.3080 N   0  0  0  0  0  0  0  0  0  0  0  0
  139.6460   73.7770  223.1150 H   0  0  0  0  0  0  0  0  0  0  0  0
  139.3465   73.8161  220.1215 H   0  0  0  0  0  0  0  0  0  0  0  0
  138.0238   74.5931  221.0643 H   0  0  0  0  0  0  0  0  0  0  0  0
  139.5321   75.1086  218.7535 H   0  0  0  0  0  0  0  0  0  0  0  0
  138.9382   76.7490  218.5943 H   0  0  0  0  0  0  0  0  0  0  0  0
  141.0345   75.8403  217.1215 H   0  0  0  0  0  0  0  0  0  0  0  0
  140.9919   77.5503  217.7396 H   0  0  0  0  0  0  0  0  0  0  0  0
  142.3874   75.2161  219.0744 H   0  0  0  0  0  0  0  0  0  0  0  0
  143.1555   76.5308  218.0544 H   0  0  0  0  0  0  0  0  0  0  0  0
  142.9850   76.5729  220.7911 H   0  0  0  0  0  0  0  0  0  0  0  0
  143.1798   78.0014  219.7606 H   0  0  0  0  0  0  0  0  0  0  0  0
  140.7607   78.3769  219.6874 H   0  0  0  0  0  0  0  0  0  0  0  0
  143.1599   78.8433  221.5422 H   0  0  0  0  0  0  0  0  0  0  0  0
  143.0573   80.1977  223.6376 H   0  0  0  0  0  0  0  0  0  0  0  0
  140.8674   80.4672  224.8201 H   0  0  0  0  0  0  0  0  0  0  0  0
  138.8220   79.3770  223.8968 H   0  0  0  0  0  0  0  0  0  0  0  0
  138.5753   69.4056  222.1980 H   0  0  0  0  0  0  0  0  0  0  0  0
  138.9989   67.9041  224.1277 H   0  0  0  0  0  0  0  0  0  0  0  0
  139.8719   67.5744  226.4017 H   0  0  0  0  0  0  0  0  0  0  0  0
  141.6000   70.9315  228.4699 H   0  0  0  0  0  0  0  0  0  0  0  0
  141.1461   72.3989  226.4870 H   0  0  0  0  0  0  0  0  0  0  0  0
  1  2  2  0
  2  3  1  0
  3  4  1  0
  4  5  1  0
  5  6  2  0
  5  7  1  0
  7  8  1  0
  8  9  1  0
  9 10  1  0
 10 11  1  0
 11 12  1  0
 12 13  1  0
 13 14  2  0
 14 15  1  0
 15 16  2  0
 16 17  1  0
 17 18  2  0
  2 19  1  0
 19 20  2  0
 20 21  1  0
 21 22  2  0
 22 23  1  0
 23 24  2  0
 24 25  1  0
 24 26  1  0
 26 27  2  0
 27 28  1  0
 28 29  2  0
 12  7  1  0
 18 13  1  0
 29 19  1  0
 28 22  1  0
  3 30  1  0
  4 31  1  0
  4 32  1  0
  8 33  1  0
  8 34  1  0
  9 35  1  0
  9 36  1  0
 10 37  1  0
 10 38  1  0
 11 39  1  0
 11 40  1  0
 12 41  1  6
 14 42  1  0
 15 43  1  0
 16 44  1  0
 17 45  1  0
 20 46  1  0
 21 47  1  0
 23 48  1  0
 26 49  1  0
 27 50  1  0
M  END
>  <smiles>  (45) 
O=C(NCC(=O)N1CCCCC1c1ccccn1)c1ccc2cc(Cl)ccc2n1

>  <score_type>  (45) 
oracle

>  <origin>  (45) 
autodockgpu

>  <m_score__min__energy>  (45) 
-8.5099999999999998

>  <m_primary>  (45) 
energy

>  <rmsd>  (45) 
1.8393881787810993

>  <m_score__min__rmsd>  (45) 
1.8393881787810993

>  <meeko>  (45) 
{"free_energy": -8.21, "intermolecular_energy": -9.7, "internal_energy": -2.11, "cluster_size": 11, "cluster_id": 1, "rank_in_cluster": 8}

>  <energy>  (45) 
-7.21

>  <cluster_rmsd>  (45) 
0.0

>  <cluster>  (45) 
8

$$$$

     RDKit          3D

 50 53  0  0  0  0  0  0  0  0999 V2000
  133.9780   69.7500  226.3270 O   0  0  0  0  0  0  0  0  0  0  0  0
  134.2590   70.9250  226.0410 C   0  0  0  0  0  0  0  0  0  0  0  0
  135.3840   71.1550  225.1900 N   0  0  0  0  0  0  0  0  0  0  0  0
  136.1840   70.0420  224.6660 C   0  0  0  0  0  0  0  0  0  0  0  0
  137.3440   70.5590  223.9220 C   0  0  0  0  0  0  0  0  0  0  0  0
  137.2710   71.8010  223.5870 O   0  0  0  0  0  0  0  0  0  0  0  0
  138.4970   69.8870  223.5330 N   0  0  0  0  0  0  0  0  0  0  0  0
  138.6710   69.6830  222.0670 C   0  0  0  0  0  0  0  0  0  0  0  0
  139.2060   68.2570  221.9760 C   0  0  0  0  0  0  0  0  0  0  0  0
  138.7350   67.3900  223.1210 C   0  0  0  0  0  0  0  0  0  0  0  0
  139.1960   67.8580  224.4850 C   0  0  0  0  0  0  0  0  0  0  0  0
  139.5450   69.3210  224.3310 C   0  0  2  0  0  0  0  0  0  0  0  0
  139.9210   70.0170  225.5480 C   0  0  0  0  0  0  0  0  0  0  0  0
  139.5660   69.4440  226.7670 C   0  0  0  0  0  0  0  0  0  0  0  0
  139.9120   70.0860  227.9450 C   0  0  0  0  0  0  0  0  0  0  0  0
  140.6080   71.2940  227.8870 C   0  0  0  0  0  0  0  0  0  0  0  0
  140.9450   71.8380  226.6500 C   0  0  0  0  0  0  0  0  0  0  0  0
  140.5960   71.1910  225.5080 N   0  0  0  0  0  0  0  0  0  0  0  0
  133.5150   72.0860  226.5220 C   0  0  0  0  0  0  0  0  0  0  0  0
  132.3200   71.8580  227.1820 C   0  0  0  0  0  0  0  0  0  0  0  0
  131.5900   72.9350  227.6480 C   0  0  0  0  0  0  0  0  0  0  0  0
  132.0380   74.2240  227.4640 C   0  0  0  0  0  0  0  0  0  0  0  0
  131.3380   75.3240  227.9160 C   0  0  0  0  0  0  0  0  0  0  0  0
  131.8400   76.6060  227.7000 C   0  0  0  0  0  0  0  0  0  0  0  0
  130.9690   78.0060  228.2640 Cl  0  0  0  0  0  0  0  0  0  0  0  0
  133.0380   76.7750  227.0350 C   0  0  0  0  0  0  0  0  0  0  0  0
  133.7580   75.6720  226.5720 C   0  0  0  0  0  0  0  0  0  0  0  0
  133.2310   74.4030  226.8030 C   0  0  0  0  0  0  0  0  0  0  0  0
  133.9280   73.3490  226.3550 N   0  0  0  0  0  0  0  0  0  0  0  0
  135.6470   72.1450  224.9310 H   0  0  0  0  0  0  0  0  0  0  0  0
  136.5360   69.4212  225.5031 H   0  0  0  0  0  0  0  0  0  0  0  0
  135.5616   69.4389  223.9886 H   0  0  0  0  0  0  0  0  0  0  0  0
  137.7111   69.7789  221.5385 H   0  0  0  0  0  0  0  0  0  0  0  0
  139.3380   70.4250  221.6038 H   0  0  0  0  0  0  0  0  0  0  0  0
  138.8630   67.8108  221.0309 H   0  0  0  0  0  0  0  0  0  0  0  0
  140.3038   68.3073  222.0233 H   0  0  0  0  0  0  0  0  0  0  0  0
  137.6351   67.3775  223.1143 H   0  0  0  0  0  0  0  0  0  0  0  0
  139.1739   66.3936  222.9640 H   0  0  0  0  0  0  0  0  0  0  0  0
  138.3904   67.7335  225.2236 H   0  0  0  0  0  0  0  0  0  0  0  0
  140.0584   67.2745  224.8395 H   0  0  0  0  0  0  0  0  0  0  0  0
  140.5040   69.4484  223.8074 H   0  0  0  0  0  0  0  0  0  0  0  0
  139.0165   68.4915  226.7941 H   0  0  0  0  0  0  0  0  0  0  0  0
  139.6406   69.6476  228.9167 H   0  0  0  0  0  0  0  0  0  0  0  0
  140.8893   71.8144  228.8144 H   0  0  0  0  0  0  0  0  0  0  0  0
  141.4931   72.7903  226.5980 H   0  0  0  0  0  0  0  0  0  0  0  0
  131.9555   70.8313  227.3339 H   0  0  0  0  0  0  0  0  0  0  0  0
  130.6390   72.7603  228.1725 H   0  0  0  0  0  0  0  0  0  0  0  0
  130.3840   75.1890  228.4467 H   0  0  0  0  0  0  0  0  0  0  0  0
  133.4294   77.7894  226.8682 H   0  0  0  0  0  0  0  0  0  0  0  0
  134.7126   75.8009  226.0408 H   0  0  0  0  0  0  0  0  0  0  0  0
  1  2  2  0
  2  3  1  0
  3  4  1  0
  4  5  1  0
  5  6  2  0
  5  7  1  0
  7  8  1  0
  8  9  1  0
  9 10  1  0
 10 11  1  0
 11 12  1  0
 12 13  1  0
 13 14  2  0
 14 15  1  0
 15 16  2  0
 16 17  1  0
 17 18  2  0
  2 19  1  0
 19 20  2  0
 20 21  1  0
 21 22  2  0
 22 23  1  0
 23 24  2  0
 24 25  1  0
 24 26  1  0
 26 27  2  0
 27 28  1  0
 28 29  2  0
 12  7  1  0
 18 13  1  0
 29 19  1  0
 28 22  1  0
  3 30  1  0
  4 31  1  0
  4 32  1  0
  8 33  1  0
  8 34  1  0
  9 35  1  0
  9 36  1  0
 10 37  1  0
 10 38  1  0
 11 39  1  0
 11 40  1  0
 12 41  1  6
 14 42  1  0
 15 43  1  0
 16 44  1  0
 17 45  1  0
 20 46  1  0
 21 47  1  0
 23 48  1  0
 26 49  1  0
 27 50  1  0
M  END
>  <smiles>  (46) 
O=C(NCC(=O)N1CCCCC1c1ccccn1)c1ccc2cc(Cl)ccc2n1

>  <score_type>  (46) 
oracle

>  <origin>  (46) 
autodockgpu

>  <m_score__min__energy>  (46) 
-8.5099999999999998

>  <m_primary>  (46) 
energy

>  <rmsd>  (46) 
9.253367943137901

>  <m_score__min__rmsd>  (46) 
9.253367943137901

>  <meeko>  (46) 
{"free_energy": -7.84, "intermolecular_energy": -9.33, "internal_energy": -2.24, "cluster_size": 6, "cluster_id": 5, "rank_in_cluster": 3}

>  <energy>  (46) 
-7.15

>  <cluster_rmsd>  (46) 
0.47

>  <cluster>  (46) 
8

$$$$

     RDKit          3D

 50 53  0  0  0  0  0  0  0  0999 V2000
  136.7990   71.2520  221.2970 O   0  0  0  0  0  0  0  0  0  0  0  0
  137.5480   71.7380  222.1610 C   0  0  0  0  0  0  0  0  0  0  0  0
  137.8760   73.1240  222.0570 N   0  0  0  0  0  0  0  0  0  0  0  0
  137.3480   73.9540  220.9680 C   0  0  0  0  0  0  0  0  0  0  0  0
  138.1790   75.1570  220.8000 C   0  0  0  0  0  0  0  0  0  0  0  0
  138.1100   75.7140  219.6410 O   0  0  0  0  0  0  0  0  0  0  0  0
  139.0250   75.7630  221.7220 N   0  0  0  0  0  0  0  0  0  0  0  0
  138.3860   76.7290  222.6590 C   0  0  0  0  0  0  0  0  0  0  0  0
  139.3990   77.8680  222.7280 C   0  0  0  0  0  0  0  0  0  0  0  0
  140.2100   77.9960  221.4590 C   0  0  0  0  0  0  0  0  0  0  0  0
  141.0570   76.7830  221.1370 C   0  0  0  0  0  0  0  0  0  0  0  0
  140.4420   75.6290  221.8970 C   0  0  2  0  0  0  0  0  0  0  0  0
  141.0340   74.3240  221.6600 C   0  0  0  0  0  0  0  0  0  0  0  0
  142.0630   74.2320  220.7270 C   0  0  0  0  0  0  0  0  0  0  0  0
  142.6470   72.9990  220.4800 C   0  0  0  0  0  0  0  0  0  0  0  0
  142.1910   71.8760  221.1710 C   0  0  0  0  0  0  0  0  0  0  0  0
  141.1580   72.0070  222.0960 C   0  0  0  0  0  0  0  0  0  0  0  0
  140.6010   73.2250  222.3220 N   0  0  0  0  0  0  0  0  0  0  0  0
  138.1140   70.9800  223.2740 C   0  0  0  0  0  0  0  0  0  0  0  0
  137.7520   69.6510  223.3990 C   0  0  0  0  0  0  0  0  0  0  0  0
  138.2700   68.9060  224.4430 C   0  0  0  0  0  0  0  0  0  0  0  0
  139.1370   69.4710  225.3520 C   0  0  0  0  0  0  0  0  0  0  0  0
  139.6740   68.7590  226.4050 C   0  0  0  0  0  0  0  0  0  0  0  0
  140.5450   69.3850  227.2950 C   0  0  0  0  0  0  0  0  0  0  0  0
  141.2330   68.5020  228.6310 Cl  0  0  0  0  0  0  0  0  0  0  0  0
  140.8710   70.7150  227.1220 C   0  0  0  0  0  0  0  0  0  0  0  0
  140.3360   71.4480  226.0600 C   0  0  0  0  0  0  0  0  0  0  0  0
  139.4680   70.7960  225.1870 C   0  0  0  0  0  0  0  0  0  0  0  0
  138.9580   71.5060  224.1720 N   0  0  0  0  0  0  0  0  0  0  0  0
  138.5120   73.5640  222.7780 H   0  0  0  0  0  0  0  0  0  0  0  0
  137.3539   73.3743  220.0331 H   0  0  0  0  0  0  0  0  0  0  0  0
  136.3198   74.2583  221.2134 H   0  0  0  0  0  0  0  0  0  0  0  0
  137.4216   77.0819  222.2649 H   0  0  0  0  0  0  0  0  0  0  0  0
  138.1604   76.2915  223.6427 H   0  0  0  0  0  0  0  0  0  0  0  0
  138.8590   78.8110  222.8987 H   0  0  0  0  0  0  0  0  0  0  0  0
  140.0957   77.6476  223.5503 H   0  0  0  0  0  0  0  0  0  0  0  0
  139.5163   78.1640  220.6220 H   0  0  0  0  0  0  0  0  0  0  0  0
  140.9053   78.8345  221.6122 H   0  0  0  0  0  0  0  0  0  0  0  0
  141.0392   76.5809  220.0559 H   0  0  0  0  0  0  0  0  0  0  0  0
  142.1076   76.9387  221.4233 H   0  0  0  0  0  0  0  0  0  0  0  0
  140.6788   75.6862  222.9697 H   0  0  0  0  0  0  0  0  0  0  0  0
  142.4092   75.1282  220.1913 H   0  0  0  0  0  0  0  0  0  0  0  0
  143.4617   72.9071  219.7466 H   0  0  0  0  0  0  0  0  0  0  0  0
  142.6453   70.8914  220.9861 H   0  0  0  0  0  0  0  0  0  0  0  0
  140.7936   71.1249  222.6430 H   0  0  0  0  0  0  0  0  0  0  0  0
  137.0606   69.1921  222.6770 H   0  0  0  0  0  0  0  0  0  0  0  0
  137.9859   67.8486  224.5487 H   0  0  0  0  0  0  0  0  0  0  0  0
  139.4150   67.6987  226.5418 H   0  0  0  0  0  0  0  0  0  0  0  0
  141.5593   71.2029  227.8278 H   0  0  0  0  0  0  0  0  0  0  0  0
  140.5924   72.5081  225.9174 H   0  0  0  0  0  0  0  0  0  0  0  0
  1  2  2  0
  2  3  1  0
  3  4  1  0
  4  5  1  0
  5  6  2  0
  5  7  1  0
  7  8  1  0
  8  9  1  0
  9 10  1  0
 10 11  1  0
 11 12  1  0
 12 13  1  0
 13 14  2  0
 14 15  1  0
 15 16  2  0
 16 17  1  0
 17 18  2  0
  2 19  1  0
 19 20  2  0
 20 21  1  0
 21 22  2  0
 22 23  1  0
 23 24  2  0
 24 25  1  0
 24 26  1  0
 26 27  2  0
 27 28  1  0
 28 29  2  0
 12  7  1  0
 18 13  1  0
 29 19  1  0
 28 22  1  0
  3 30  1  0
  4 31  1  0
  4 32  1  0
  8 33  1  0
  8 34  1  0
  9 35  1  0
  9 36  1  0
 10 37  1  0
 10 38  1  0
 11 39  1  0
 11 40  1  0
 12 41  1  1
 14 42  1  0
 15 43  1  0
 16 44  1  0
 17 45  1  0
 20 46  1  0
 21 47  1  0
 23 48  1  0
 26 49  1  0
 27 50  1  0
M  END
>  <smiles>  (47) 
O=C(NCC(=O)N1CCCCC1c1ccccn1)c1ccc2cc(Cl)ccc2n1

>  <score_type>  (47) 
oracle

>  <origin>  (47) 
autodockgpu

>  <m_score__min__energy>  (47) 
-8.5099999999999998

>  <m_primary>  (47) 
energy

>  <rmsd>  (47) 
4.1488914882318255

>  <m_score__min__rmsd>  (47) 
4.1488914882318255

>  <meeko>  (47) 
{"free_energy": -7.39, "intermolecular_energy": -8.88, "internal_energy": -2.97, "cluster_size": 18, "cluster_id": 2, "rank_in_cluster": 16}

>  <energy>  (47) 
-6.92

>  <cluster_rmsd>  (47) 
1.09

>  <cluster>  (47) 
8

$$$$

     RDKit          3D

 50 53  0  0  0  0  0  0  0  0999 V2000
  135.9670   75.5460  221.6660 O   0  0  0  0  0  0  0  0  0  0  0  0
  137.1220   75.5530  222.1230 C   0  0  0  0  0  0  0  0  0  0  0  0
  137.7620   74.2940  222.3410 N   0  0  0  0  0  0  0  0  0  0  0  0
  137.0820   73.0290  222.0360 C   0  0  0  0  0  0  0  0  0  0  0  0
  138.0130   72.1040  221.3700 C   0  0  0  0  0  0  0  0  0  0  0  0
  137.9040   72.0440  220.0880 O   0  0  0  0  0  0  0  0  0  0  0  0
  138.9830   71.2880  221.9410 N   0  0  0  0  0  0  0  0  0  0  0  0
  138.6450   69.8400  222.0380 C   0  0  0  0  0  0  0  0  0  0  0  0
  139.1680   69.4530  223.4180 C   0  0  0  0  0  0  0  0  0  0  0  0
  139.1570   70.6140  224.3860 C   0  0  0  0  0  0  0  0  0  0  0  0
  140.0450   71.7710  223.9790 C   0  0  0  0  0  0  0  0  0  0  0  0
  140.2640   71.6280  222.4890 C   0  0  2  0  0  0  0  0  0  0  0  0
  141.0130   72.6950  221.8510 C   0  0  0  0  0  0  0  0  0  0  0  0
  142.1330   72.3500  221.0990 C   0  0  0  0  0  0  0  0  0  0  0  0
  142.8670   73.3480  220.4770 C   0  0  0  0  0  0  0  0  0  0  0  0
  142.4690   74.6780  220.6180 C   0  0  0  0  0  0  0  0  0  0  0  0
  141.3440   74.9850  221.3790 C   0  0  0  0  0  0  0  0  0  0  0  0
  140.6390   73.9900  221.9790 N   0  0  0  0  0  0  0  0  0  0  0  0
  137.8660   76.7660  222.4520 C   0  0  0  0  0  0  0  0  0  0  0  0
  137.1470   77.9370  222.6200 C   0  0  0  0  0  0  0  0  0  0  0  0
  137.8210   79.1030  222.9310 C   0  0  0  0  0  0  0  0  0  0  0  0
  139.1900   79.1100  223.0760 C   0  0  0  0  0  0  0  0  0  0  0  0
  139.8970   80.2540  223.3870 C   0  0  0  0  0  0  0  0  0  0  0  0
  141.2830   80.2010  223.5200 C   0  0  0  0  0  0  0  0  0  0  0  0
  142.1920   81.6360  223.9120 Cl  0  0  0  0  0  0  0  0  0  0  0  0
  141.9490   79.0050  223.3410 C   0  0  0  0  0  0  0  0  0  0  0  0
  141.2470   77.8390  223.0270 C   0  0  0  0  0  0  0  0  0  0  0  0
  139.8630   77.9230  222.9010 C   0  0  0  0  0  0  0  0  0  0  0  0
  139.1970   76.8000  222.5980 N   0  0  0  0  0  0  0  0  0  0  0  0
  138.7450   74.2700  222.7300 H   0  0  0  0  0  0  0  0  0  0  0  0
  136.7230   72.5739  222.9709 H   0  0  0  0  0  0  0  0  0  0  0  0
  136.2317   73.2286  221.3673 H   0  0  0  0  0  0  0  0  0  0  0  0
  137.5584   69.6829  221.9694 H   0  0  0  0  0  0  0  0  0  0  0  0
  139.0817   69.2393  221.2266 H   0  0  0  0  0  0  0  0  0  0  0  0
  138.5350   68.6497  223.8229 H   0  0  0  0  0  0  0  0  0  0  0  0
  140.2113   69.1245  223.3008 H   0  0  0  0  0  0  0  0  0  0  0  0
  138.1245   70.9843  224.4686 H   0  0  0  0  0  0  0  0  0  0  0  0
  139.5514   70.2336  225.3398 H   0  0  0  0  0  0  0  0  0  0  0  0
  139.5510   72.7282  224.2021 H   0  0  0  0  0  0  0  0  0  0  0  0
  140.9980   71.7586  224.5282 H   0  0  0  0  0  0  0  0  0  0  0  0
  140.9760   70.8196  222.2663 H   0  0  0  0  0  0  0  0  0  0  0  0
  142.4323   71.2962  220.9995 H   0  0  0  0  0  0  0  0  0  0  0  0
  143.7542   73.0941  219.8784 H   0  0  0  0  0  0  0  0  0  0  0  0
  143.0415   75.4805  220.1300 H   0  0  0  0  0  0  0  0  0  0  0  0
  141.0262   76.0318  221.4944 H   0  0  0  0  0  0  0  0  0  0  0  0
  136.0528   77.9395  222.5074 H   0  0  0  0  0  0  0  0  0  0  0  0
  137.2562   80.0374  223.0644 H   0  0  0  0  0  0  0  0  0  0  0  0
  139.3665   81.2070  223.5297 H   0  0  0  0  0  0  0  0  0  0  0  0
  143.0434   78.9700  223.4467 H   0  0  0  0  0  0  0  0  0  0  0  0
  141.7719   76.8830  222.8835 H   0  0  0  0  0  0  0  0  0  0  0  0
  1  2  2  0
  2  3  1  0
  3  4  1  0
  4  5  1  0
  5  6  2  0
  5  7  1  0
  7  8  1  0
  8  9  1  0
  9 10  1  0
 10 11  1  0
 11 12  1  0
 12 13  1  0
 13 14  2  0
 14 15  1  0
 15 16  2  0
 16 17  1  0
 17 18  2  0
  2 19  1  0
 19 20  2  0
 20 21  1  0
 21 22  2  0
 22 23  1  0
 23 24  2  0
 24 25  1  0
 24 26  1  0
 26 27  2  0
 27 28  1  0
 28 29  2  0
 12  7  1  0
 18 13  1  0
 29 19  1  0
 28 22  1  0
  3 30  1  0
  4 31  1  0
  4 32  1  0
  8 33  1  0
  8 34  1  0
  9 35  1  0
  9 36  1  0
 10 37  1  0
 10 38  1  0
 11 39  1  0
 11 40  1  0
 12 41  1  1
 14 42  1  0
 15 43  1  0
 16 44  1  0
 17 45  1  0
 20 46  1  0
 21 47  1  0
 23 48  1  0
 26 49  1  0
 27 50  1  0
M  END
>  <smiles>  (48) 
O=C(NCC(=O)N1CCCCC1c1ccccn1)c1ccc2cc(Cl)ccc2n1

>  <score_type>  (48) 
oracle

>  <origin>  (48) 
autodockgpu

>  <m_score__min__energy>  (48) 
-8.5099999999999998

>  <m_primary>  (48) 
energy

>  <rmsd>  (48) 
7.761232724538588

>  <m_score__min__rmsd>  (48) 
7.761232724538588

>  <meeko>  (48) 
{"free_energy": -6.92, "intermolecular_energy": -8.41, "internal_energy": -2.86, "cluster_size": 3, "cluster_id": 8, "rank_in_cluster": 3}

>  <energy>  (48) 
-6.71

>  <cluster_rmsd>  (48) 
0.0

>  <cluster>  (48) 
9

$$$$

     RDKit          3D

 50 53  0  0  0  0  0  0  0  0999 V2000
  135.9220   74.7880  221.6220 O   0  0  0  0  0  0  0  0  0  0  0  0
  137.0780   74.8780  222.0680 C   0  0  0  0  0  0  0  0  0  0  0  0
  137.7850   73.6670  222.3420 N   0  0  0  0  0  0  0  0  0  0  0  0
  137.1710   72.3550  222.1030 C   0  0  0  0  0  0  0  0  0  0  0  0
  137.4020   71.4720  223.2570 C   0  0  0  0  0  0  0  0  0  0  0  0
  136.4480   71.4410  224.1230 O   0  0  0  0  0  0  0  0  0  0  0  0
  138.5070   70.6750  223.5340 N   0  0  0  0  0  0  0  0  0  0  0  0
  138.2140   69.2980  224.0220 C   0  0  0  0  0  0  0  0  0  0  0  0
  139.2480   69.0940  225.1250 C   0  0  0  0  0  0  0  0  0  0  0  0
  139.6520   70.3920  225.7860 C   0  0  0  0  0  0  0  0  0  0  0  0
  140.3150   71.3840  224.8540 C   0  0  0  0  0  0  0  0  0  0  0  0
  139.9060   70.9830  223.4540 C   0  0  2  0  0  0  0  0  0  0  0  0
  140.3460   71.8610  222.3860 C   0  0  0  0  0  0  0  0  0  0  0  0
  140.5830   71.3010  221.1330 C   0  0  0  0  0  0  0  0  0  0  0  0
  141.0050   72.1170  220.0940 C   0  0  0  0  0  0  0  0  0  0  0  0
  141.1830   73.4810  220.3250 C   0  0  0  0  0  0  0  0  0  0  0  0
  140.9370   74.0050  221.5910 C   0  0  0  0  0  0  0  0  0  0  0  0
  140.5250   73.1880  222.5950 N   0  0  0  0  0  0  0  0  0  0  0  0
  137.7580   76.1430  222.3330 C   0  0  0  0  0  0  0  0  0  0  0  0
  136.9780   77.2800  222.4610 C   0  0  0  0  0  0  0  0  0  0  0  0
  137.5910   78.4930  222.7110 C   0  0  0  0  0  0  0  0  0  0  0  0
  138.9590   78.5820  222.8340 C   0  0  0  0  0  0  0  0  0  0  0  0
  139.6060   79.7750  223.0840 C   0  0  0  0  0  0  0  0  0  0  0  0
  140.9940   79.8030  223.1980 C   0  0  0  0  0  0  0  0  0  0  0  0
  141.8280   81.3010  223.5130 Cl  0  0  0  0  0  0  0  0  0  0  0  0
  141.7230   78.6380  223.0610 C   0  0  0  0  0  0  0  0  0  0  0  0
  141.0820   77.4230  222.8090 C   0  0  0  0  0  0  0  0  0  0  0  0
  139.6940   77.4260  222.7000 C   0  0  0  0  0  0  0  0  0  0  0  0
  139.0860   76.2560  222.4570 N   0  0  0  0  0  0  0  0  0  0  0  0
  138.7690   73.7130  222.7230 H   0  0  0  0  0  0  0  0  0  0  0  0
  136.0887   72.4816  221.9524 H   0  0  0  0  0  0  0  0  0  0  0  0
  137.6227   71.9034  221.2075 H   0  0  0  0  0  0  0  0  0  0  0  0
  137.1915   69.2301  224.4219 H   0  0  0  0  0  0  0  0  0  0  0  0
  138.2715   68.5372  223.2296 H   0  0  0  0  0  0  0  0  0  0  0  0
  138.8223   68.4266  225.8888 H   0  0  0  0  0  0  0  0  0  0  0  0
  140.1472   68.6591  224.6643 H   0  0  0  0  0  0  0  0  0  0  0  0
  138.7493   70.8617  226.2039 H   0  0  0  0  0  0  0  0  0  0  0  0
  140.3953   70.1364  226.5556 H   0  0  0  0  0  0  0  0  0  0  0  0
  139.9697   72.4048  225.0749 H   0  0  0  0  0  0  0  0  0  0  0  0
  141.4088   71.3758  224.9708 H   0  0  0  0  0  0  0  0  0  0  0  0
  140.4533   70.0893  223.1197 H   0  0  0  0  0  0  0  0  0  0  0  0
  140.4370   70.2231  220.9692 H   0  0  0  0  0  0  0  0  0  0  0  0
  141.1975   71.6927  219.0975 H   0  0  0  0  0  0  0  0  0  0  0  0
  141.5165   74.1401  219.5099 H   0  0  0  0  0  0  0  0  0  0  0  0
  141.0762   75.0800  221.7783 H   0  0  0  0  0  0  0  0  0  0  0  0
  135.8839   77.2184  222.3649 H   0  0  0  0  0  0  0  0  0  0  0  0
  136.9771   79.4000  222.8131 H   0  0  0  0  0  0  0  0  0  0  0  0
  139.0260   80.7033  223.1932 H   0  0  0  0  0  0  0  0  0  0  0  0
  142.8189   78.6673  223.1512 H   0  0  0  0  0  0  0  0  0  0  0  0
  141.6567   76.4914  222.6999 H   0  0  0  0  0  0  0  0  0  0  0  0
  1  2  2  0
  2  3  1  0
  3  4  1  0
  4  5  1  0
  5  6  2  0
  5  7  1  0
  7  8  1  0
  8  9  1  0
  9 10  1  0
 10 11  1  0
 11 12  1  0
 12 13  1  0
 13 14  2  0
 14 15  1  0
 15 16  2  0
 16 17  1  0
 17 18  2  0
  2 19  1  0
 19 20  2  0
 20 21  1  0
 21 22  2  0
 22 23  1  0
 23 24  2  0
 24 25  1  0
 24 26  1  0
 26 27  2  0
 27 28  1  0
 28 29  2  0
 12  7  1  0
 18 13  1  0
 29 19  1  0
 28 22  1  0
  3 30  1  0
  4 31  1  0
  4 32  1  0
  8 33  1  0
  8 34  1  0
  9 35  1  0
  9 36  1  0
 10 37  1  0
 10 38  1  0
 11 39  1  0
 11 40  1  0
 12 41  1  6
 14 42  1  0
 15 43  1  0
 16 44  1  0
 17 45  1  0
 20 46  1  0
 21 47  1  0
 23 48  1  0
 26 49  1  0
 27 50  1  0
M  END
>  <smiles>  (49) 
O=C(NCC(=O)N1CCCCC1c1ccccn1)c1ccc2cc(Cl)ccc2n1

>  <score_type>  (49) 
oracle

>  <origin>  (49) 
autodockgpu

>  <m_score__min__energy>  (49) 
-8.5099999999999998

>  <m_primary>  (49) 
energy

>  <rmsd>  (49) 
8.136904902567844

>  <m_score__min__rmsd>  (49) 
8.136904902567844

>  <meeko>  (49) 
{"free_energy": -7.15, "intermolecular_energy": -8.64, "internal_energy": -2.82, "cluster_size": 3, "cluster_id": 8, "rank_in_cluster": 2}

>  <energy>  (49) 
-6.7

>  <cluster_rmsd>  (49) 
0.05

>  <cluster>  (49) 
9

$$$$

     RDKit          3D

 50 53  0  0  0  0  0  0  0  0999 V2000
  133.8500   70.1300  226.0670 O   0  0  0  0  0  0  0  0  0  0  0  0
  134.1860   71.3030  225.8370 C   0  0  0  0  0  0  0  0  0  0  0  0
  135.3160   71.5210  224.9900 N   0  0  0  0  0  0  0  0  0  0  0  0
  136.0580   70.3980  224.4040 C   0  0  0  0  0  0  0  0  0  0  0  0
  137.2790   70.8880  223.7450 C   0  0  0  0  0  0  0  0  0  0  0  0
  137.2830   72.1440  223.4610 O   0  0  0  0  0  0  0  0  0  0  0  0
  138.4180   70.1760  223.3880 N   0  0  0  0  0  0  0  0  0  0  0  0
  138.6750   70.0450  221.9260 C   0  0  0  0  0  0  0  0  0  0  0  0
  139.1410   68.5990  221.7830 C   0  0  0  0  0  0  0  0  0  0  0  0
  138.5550   67.6960  222.8450 C   0  0  0  0  0  0  0  0  0  0  0  0
  138.9510   68.0620  224.2600 C   0  0  0  0  0  0  0  0  0  0  0  0
  139.3840   69.5100  224.2130 C   0  0  2  0  0  0  0  0  0  0  0  0
  139.7160   70.1160  225.4900 C   0  0  0  0  0  0  0  0  0  0  0  0
  140.4770   71.2820  225.4830 C   0  0  0  0  0  0  0  0  0  0  0  0
  140.8090   71.8830  226.6870 C   0  0  0  0  0  0  0  0  0  0  0  0
  140.3750   71.3070  227.8820 C   0  0  0  0  0  0  0  0  0  0  0  0
  139.6170   70.1400  227.8490 C   0  0  0  0  0  0  0  0  0  0  0  0
  139.3030   69.5680  226.6570 N   0  0  0  0  0  0  0  0  0  0  0  0
  133.5020   72.4730  226.3810 C   0  0  0  0  0  0  0  0  0  0  0  0
  132.3330   72.2640  227.0910 C   0  0  0  0  0  0  0  0  0  0  0  0
  131.6600   73.3500  227.6180 C   0  0  0  0  0  0  0  0  0  0  0  0
  132.1390   74.6300  227.4450 C   0  0  0  0  0  0  0  0  0  0  0  0
  131.4960   75.7380  227.9570 C   0  0  0  0  0  0  0  0  0  0  0  0
  132.0280   77.0090  227.7490 C   0  0  0  0  0  0  0  0  0  0  0  0
  131.2290   78.4210  228.3880 Cl  0  0  0  0  0  0  0  0  0  0  0  0
  133.1990   77.1590  227.0330 C   0  0  0  0  0  0  0  0  0  0  0  0
  133.8610   76.0470  226.5100 C   0  0  0  0  0  0  0  0  0  0  0  0
  133.3060   74.7890  226.7330 C   0  0  0  0  0  0  0  0  0  0  0  0
  133.9470   73.7270  226.2270 N   0  0  0  0  0  0  0  0  0  0  0  0
  135.6260   72.5090  224.7780 H   0  0  0  0  0  0  0  0  0  0  0  0
  136.3330   69.6892  225.1990 H   0  0  0  0  0  0  0  0  0  0  0  0
  135.4230   69.8965  223.6588 H   0  0  0  0  0  0  0  0  0  0  0  0
  137.7571   70.2229  221.3465 H   0  0  0  0  0  0  0  0  0  0  0  0
  139.4077   70.7740  221.5494 H   0  0  0  0  0  0  0  0  0  0  0  0
  138.8357   68.2257  220.7943 H   0  0  0  0  0  0  0  0  0  0  0  0
  140.2348   68.5865  221.8988 H   0  0  0  0  0  0  0  0  0  0  0  0
  137.4585   67.7429  222.7708 H   0  0  0  0  0  0  0  0  0  0  0  0
  138.9527   66.6879  222.6567 H   0  0  0  0  0  0  0  0  0  0  0  0
  138.0944   67.9416  224.9394 H   0  0  0  0  0  0  0  0  0  0  0  0
  139.7576   67.4132  224.6321 H   0  0  0  0  0  0  0  0  0  0  0  0
  140.3794   69.6134  223.7564 H   0  0  0  0  0  0  0  0  0  0  0  0
  140.8113   71.7217  224.5317 H   0  0  0  0  0  0  0  0  0  0  0  0
  141.4087   72.8050  226.7006 H   0  0  0  0  0  0  0  0  0  0  0  0
  140.6307   71.7730  228.8451 H   0  0  0  0  0  0  0  0  0  0  0  0
  139.2723   69.6810  228.7874 H   0  0  0  0  0  0  0  0  0  0  0  0
  131.9437   71.2452  227.2344 H   0  0  0  0  0  0  0  0  0  0  0  0
  130.7298   73.1902  228.1829 H   0  0  0  0  0  0  0  0  0  0  0  0
  130.5641   75.6182  228.5290 H   0  0  0  0  0  0  0  0  0  0  0  0
  133.6144   78.1649  226.8732 H   0  0  0  0  0  0  0  0  0  0  0  0
  134.7939   76.1608  225.9383 H   0  0  0  0  0  0  0  0  0  0  0  0
  1  2  2  0
  2  3  1  0
  3  4  1  0
  4  5  1  0
  5  6  2  0
  5  7  1  0
  7  8  1  0
  8  9  1  0
  9 10  1  0
 10 11  1  0
 11 12  1  0
 12 13  1  0
 13 14  2  0
 14 15  1  0
 15 16  2  0
 16 17  1  0
 17 18  2  0
  2 19  1  0
 19 20  2  0
 20 21  1  0
 21 22  2  0
 22 23  1  0
 23 24  2  0
 24 25  1  0
 24 26  1  0
 26 27  2  0
 27 28  1  0
 28 29  2  0
 12  7  1  0
 18 13  1  0
 29 19  1  0
 28 22  1  0
  3 30  1  0
  4 31  1  0
  4 32  1  0
  8 33  1  0
  8 34  1  0
  9 35  1  0
  9 36  1  0
 10 37  1  0
 10 38  1  0
 11 39  1  0
 11 40  1  0
 12 41  1  6
 14 42  1  0
 15 43  1  0
 16 44  1  0
 17 45  1  0
 20 46  1  0
 21 47  1  0
 23 48  1  0
 26 49  1  0
 27 50  1  0
M  END
>  <smiles>  (50) 
O=C(NCC(=O)N1CCCCC1c1ccccn1)c1ccc2cc(Cl)ccc2n1

>  <score_type>  (50) 
oracle

>  <origin>  (50) 
autodockgpu

>  <m_score__min__energy>  (50) 
-8.5099999999999998

>  <m_primary>  (50) 
energy

>  <rmsd>  (50) 
8.97130734796703

>  <m_score__min__rmsd>  (50) 
8.97130734796703

>  <meeko>  (50) 
{"free_energy": -7.68, "intermolecular_energy": -9.17, "internal_energy": -2.25, "cluster_size": 6, "cluster_id": 5, "rank_in_cluster": 6}

>  <energy>  (50) 
-6.69

>  <cluster_rmsd>  (50) 
0.2

>  <cluster>  (50) 
9

$$$$

     RDKit          3D

 50 53  0  0  0  0  0  0  0  0999 V2000
  138.8350   72.0770  220.8930 O   0  0  0  0  0  0  0  0  0  0  0  0
  139.1540   72.4790  222.0490 C   0  0  0  0  0  0  0  0  0  0  0  0
  139.2810   73.8650  222.3320 N   0  0  0  0  0  0  0  0  0  0  0  0
  139.0410   74.8400  221.2900 C   0  0  0  0  0  0  0  0  0  0  0  0
  138.8570   76.1990  221.8410 C   0  0  0  0  0  0  0  0  0  0  0  0
  137.9960   76.3980  222.7350 O   0  0  0  0  0  0  0  0  0  0  0  0
  139.6710   77.2490  221.3330 N   0  0  0  0  0  0  0  0  0  0  0  0
  139.1570   78.2330  220.4010 C   0  0  0  0  0  0  0  0  0  0  0  0
  140.2400   78.9710  219.6870 C   0  0  0  0  0  0  0  0  0  0  0  0
  141.4780   78.1890  219.4100 C   0  0  0  0  0  0  0  0  0  0  0  0
  141.8900   77.2400  220.5010 C   0  0  0  0  0  0  0  0  0  0  0  0
  141.0780   77.3640  221.7470 C   0  0  1  0  0  0  0  0  0  0  0  0
  141.3390   78.6270  222.4360 C   0  0  0  0  0  0  0  0  0  0  0  0
  140.4240   79.3320  223.1840 C   0  0  0  0  0  0  0  0  0  0  0  0
  140.7130   80.5220  223.8190 C   0  0  0  0  0  0  0  0  0  0  0  0
  141.9860   81.0430  223.7030 C   0  0  0  0  0  0  0  0  0  0  0  0
  142.8840   80.3190  222.9470 C   0  0  0  0  0  0  0  0  0  0  0  0
  142.5770   79.1590  222.3390 N   0  0  0  0  0  0  0  0  0  0  0  0
  139.4020   71.5010  223.1170 C   0  0  0  0  0  0  0  0  0  0  0  0
  139.0490   70.1790  222.9240 C   0  0  0  0  0  0  0  0  0  0  0  0
  139.2920   69.2640  223.9550 C   0  0  0  0  0  0  0  0  0  0  0  0
  139.8760   69.6720  225.1480 C   0  0  0  0  0  0  0  0  0  0  0  0
  140.1370   68.8180  226.1880 C   0  0  0  0  0  0  0  0  0  0  0  0
  140.7210   69.2900  227.3490 C   0  0  0  0  0  0  0  0  0  0  0  0
  141.0710   68.2230  228.7100 Cl  0  0  0  0  0  0  0  0  0  0  0  0
  141.0470   70.6210  227.4700 C   0  0  0  0  0  0  0  0  0  0  0  0
  140.7820   71.4770  226.4190 C   0  0  0  0  0  0  0  0  0  0  0  0
  140.2000   71.0080  225.2620 C   0  0  0  0  0  0  0  0  0  0  0  0
  139.9690   71.8930  224.2760 N   0  0  0  0  0  0  0  0  0  0  0  0
  139.5490   74.1390  223.3080 H   0  0  0  0  0  0  0  0  0  0  0  0
  139.9012   74.8473  220.6044 H   0  0  0  0  0  0  0  0  0  0  0  0
  138.1177   74.5569  220.7633 H   0  0  0  0  0  0  0  0  0  0  0  0
  138.5313   77.7192  219.6564 H   0  0  0  0  0  0  0  0  0  0  0  0
  138.5794   78.9688  220.9797 H   0  0  0  0  0  0  0  0  0  0  0  0
  139.8358   79.3170  218.7242 H   0  0  0  0  0  0  0  0  0  0  0  0
  140.5434   79.7859  220.3608 H   0  0  0  0  0  0  0  0  0  0  0  0
  141.3135   77.6037  218.4933 H   0  0  0  0  0  0  0  0  0  0  0  0
  142.2912   78.9242  219.3200 H   0  0  0  0  0  0  0  0  0  0  0  0
  141.7893   76.2121  220.1226 H   0  0  0  0  0  0  0  0  0  0  0  0
  142.9270   77.4910  220.7686 H   0  0  0  0  0  0  0  0  0  0  0  0
  141.3399   76.5771  222.4696 H   0  0  0  0  0  0  0  0  0  0  0  0
  139.4069   78.9244  223.2808 H   0  0  0  0  0  0  0  0  0  0  0  0
  139.9441   81.0455  224.4062 H   0  0  0  0  0  0  0  0  0  0  0  0
  142.2699   81.9881  224.1891 H   0  0  0  0  0  0  0  0  0  0  0  0
  143.9057   80.7110  222.8353 H   0  0  0  0  0  0  0  0  0  0  0  0
  138.5870   69.8528  221.9805 H   0  0  0  0  0  0  0  0  0  0  0  0
  139.0169   68.2077  223.8190 H   0  0  0  0  0  0  0  0  0  0  0  0
  139.8806   67.7521  226.0985 H   0  0  0  0  0  0  0  0  0  0  0  0
  141.5128   70.9987  228.3921 H   0  0  0  0  0  0  0  0  0  0  0  0
  141.0381   72.5432  226.5067 H   0  0  0  0  0  0  0  0  0  0  0  0
  1  2  2  0
  2  3  1  0
  3  4  1  0
  4  5  1  0
  5  6  2  0
  5  7  1  0
  7  8  1  0
  8  9  1  0
  9 10  1  0
 10 11  1  0
 11 12  1  0
 12 13  1  0
 13 14  2  0
 14 15  1  0
 15 16  2  0
 16 17  1  0
 17 18  2  0
  2 19  1  0
 19 20  2  0
 20 21  1  0
 21 22  2  0
 22 23  1  0
 23 24  2  0
 24 25  1  0
 24 26  1  0
 26 27  2  0
 27 28  1  0
 28 29  2  0
 12  7  1  0
 18 13  1  0
 29 19  1  0
 28 22  1  0
  3 30  1  0
  4 31  1  0
  4 32  1  0
  8 33  1  0
  8 34  1  0
  9 35  1  0
  9 36  1  0
 10 37  1  0
 10 38  1  0
 11 39  1  0
 11 40  1  0
 12 41  1  1
 14 42  1  0
 15 43  1  0
 16 44  1  0
 17 45  1  0
 20 46  1  0
 21 47  1  0
 23 48  1  0
 26 49  1  0
 27 50  1  0
M  END
>  <smiles>  (51) 
O=C(NCC(=O)N1CCCCC1c1ccccn1)c1ccc2cc(Cl)ccc2n1

>  <score_type>  (51) 
oracle

>  <origin>  (51) 
autodockgpu

>  <m_score__min__energy>  (51) 
-8.9399999999999995

>  <m_primary>  (51) 
energy

>  <rmsd>  (51) 
2.5256667203954892

>  <m_score__min__rmsd>  (51) 
2.5256667203954892

>  <meeko>  (51) 
{"free_energy": -8.61, "intermolecular_energy": -10.1, "internal_energy": -1.72, "cluster_size": 40, "cluster_id": 1, "rank_in_cluster": 17}

>  <energy>  (51) 
-8.94

>  <cluster_rmsd>  (51) 
0.0

>  <cluster>  (51) 
1

$$$$

     RDKit          3D

 50 53  0  0  0  0  0  0  0  0999 V2000
  140.0850   72.6470  220.7910 O   0  0  0  0  0  0  0  0  0  0  0  0
  139.8140   72.9580  221.9870 C   0  0  0  0  0  0  0  0  0  0  0  0
  139.4400   74.2840  222.3300 N   0  0  0  0  0  0  0  0  0  0  0  0
  139.3630   75.3030  221.3050 C   0  0  0  0  0  0  0  0  0  0  0  0
  139.1180   76.6430  221.8780 C   0  0  0  0  0  0  0  0  0  0  0  0
  138.2310   76.7920  222.7550 O   0  0  0  0  0  0  0  0  0  0  0  0
  139.9050   77.7310  221.4090 N   0  0  0  0  0  0  0  0  0  0  0  0
  139.3300   78.8110  220.6310 C   0  0  0  0  0  0  0  0  0  0  0  0
  140.3620   79.6080  219.9030 C   0  0  0  0  0  0  0  0  0  0  0  0
  141.5550   78.8460  219.4390 C   0  0  0  0  0  0  0  0  0  0  0  0
  142.0430   77.7860  220.3880 C   0  0  0  0  0  0  0  0  0  0  0  0
  141.3450   77.7880  221.7070 C   0  0  1  0  0  0  0  0  0  0  0  0
  141.6880   78.9710  222.4950 C   0  0  0  0  0  0  0  0  0  0  0  0
  142.9630   79.4400  222.7150 C   0  0  0  0  0  0  0  0  0  0  0  0
  143.2440   80.5620  223.4660 C   0  0  0  0  0  0  0  0  0  0  0  0
  142.1960   81.2590  224.0330 C   0  0  0  0  0  0  0  0  0  0  0  0
  140.9280   80.7680  223.7990 C   0  0  0  0  0  0  0  0  0  0  0  0
  140.6820   79.6710  223.0620 N   0  0  0  0  0  0  0  0  0  0  0  0
  139.8880   71.9360  223.0400 C   0  0  0  0  0  0  0  0  0  0  0  0
  139.4660   70.6480  222.7680 C   0  0  0  0  0  0  0  0  0  0  0  0
  139.5440   69.6900  223.7850 C   0  0  0  0  0  0  0  0  0  0  0  0
  140.0350   70.0230  225.0430 C   0  0  0  0  0  0  0  0  0  0  0  0
  140.1320   69.1240  226.0730 C   0  0  0  0  0  0  0  0  0  0  0  0
  140.6300   69.5200  227.3000 C   0  0  0  0  0  0  0  0  0  0  0  0
  140.7720   68.3940  228.6500 Cl  0  0  0  0  0  0  0  0  0  0  0  0
  141.0330   70.8210  227.4970 C   0  0  0  0  0  0  0  0  0  0  0  0
  140.9320   71.7220  226.4560 C   0  0  0  0  0  0  0  0  0  0  0  0
  140.4360   71.3280  225.2320 C   0  0  0  0  0  0  0  0  0  0  0  0
  140.3640   72.2540  224.2610 N   0  0  0  0  0  0  0  0  0  0  0  0
  139.2270   74.4840  223.3380 H   0  0  0  0  0  0  0  0  0  0  0  0
  140.3125   75.3217  220.7499 H   0  0  0  0  0  0  0  0  0  0  0  0
  138.5209   75.0565  220.6416 H   0  0  0  0  0  0  0  0  0  0  0  0
  138.6325   78.3829  219.8960 H   0  0  0  0  0  0  0  0  0  0  0  0
  138.8180   79.4887  221.3299 H   0  0  0  0  0  0  0  0  0  0  0  0
  139.8826   80.0565  219.0203 H   0  0  0  0  0  0  0  0  0  0  0  0
  140.7389   80.3451  220.6273 H   0  0  0  0  0  0  0  0  0  0  0  0
  141.2991   78.3591  218.4864 H   0  0  0  0  0  0  0  0  0  0  0  0
  142.3713   79.5781  219.3510 H   0  0  0  0  0  0  0  0  0  0  0  0
  141.8915   76.8034  219.9174 H   0  0  0  0  0  0  0  0  0  0  0  0
  143.1035   77.9995  220.5875 H   0  0  0  0  0  0  0  0  0  0  0  0
  141.6539   76.9280  222.3193 H   0  0  0  0  0  0  0  0  0  0  0  0
  143.8038   78.8899  222.2674 H   0  0  0  0  0  0  0  0  0  0  0  0
  144.2824   80.8949  223.6103 H   0  0  0  0  0  0  0  0  0  0  0  0
  142.3634   82.1605  224.6408 H   0  0  0  0  0  0  0  0  0  0  0  0
  140.0731   81.3025  224.2388 H   0  0  0  0  0  0  0  0  0  0  0  0
  139.0774   70.3820  221.7739 H   0  0  0  0  0  0  0  0  0  0  0  0
  139.2126   68.6600  223.5869 H   0  0  0  0  0  0  0  0  0  0  0  0
  139.8120   68.0824  225.9224 H   0  0  0  0  0  0  0  0  0  0  0  0
  141.4307   71.1391  228.4720 H   0  0  0  0  0  0  0  0  0  0  0  0
  141.2504   72.7643  226.6048 H   0  0  0  0  0  0  0  0  0  0  0  0
  1  2  2  0
  2  3  1  0
  3  4  1  0
  4  5  1  0
  5  6  2  0
  5  7  1  0
  7  8  1  0
  8  9  1  0
  9 10  1  0
 10 11  1  0
 11 12  1  0
 12 13  1  0
 13 14  2  0
 14 15  1  0
 15 16  2  0
 16 17  1  0
 17 18  2  0
  2 19  1  0
 19 20  2  0
 20 21  1  0
 21 22  2  0
 22 23  1  0
 23 24  2  0
 24 25  1  0
 24 26  1  0
 26 27  2  0
 27 28  1  0
 28 29  2  0
 12  7  1  0
 18 13  1  0
 29 19  1  0
 28 22  1  0
  3 30  1  0
  4 31  1  0
  4 32  1  0
  8 33  1  0
  8 34  1  0
  9 35  1  0
  9 36  1  0
 10 37  1  0
 10 38  1  0
 11 39  1  0
 11 40  1  0
 12 41  1  1
 14 42  1  0
 15 43  1  0
 16 44  1  0
 17 45  1  0
 20 46  1  0
 21 47  1  0
 23 48  1  0
 26 49  1  0
 27 50  1  0
M  END
>  <smiles>  (52) 
O=C(NCC(=O)N1CCCCC1c1ccccn1)c1ccc2cc(Cl)ccc2n1

>  <score_type>  (52) 
oracle

>  <origin>  (52) 
autodockgpu

>  <m_score__min__energy>  (52) 
-8.9399999999999995

>  <m_primary>  (52) 
energy

>  <rmsd>  (52) 
2.7962232032735264

>  <m_score__min__rmsd>  (52) 
2.7962232032735264

>  <meeko>  (52) 
{"free_energy": -8.93, "intermolecular_energy": -10.42, "internal_energy": -1.67, "cluster_size": 40, "cluster_id": 1, "rank_in_cluster": 3}

>  <energy>  (52) 
-8.93

>  <cluster_rmsd>  (52) 
0.49

>  <cluster>  (52) 
1

$$$$

     RDKit          3D

 50 53  0  0  0  0  0  0  0  0999 V2000
  138.2690   72.5590  221.5460 O   0  0  0  0  0  0  0  0  0  0  0  0
  139.3710   72.4980  222.1640 C   0  0  0  0  0  0  0  0  0  0  0  0
  140.4430   73.3700  221.8350 N   0  0  0  0  0  0  0  0  0  0  0  0
  140.2820   74.3480  220.7800 C   0  0  0  0  0  0  0  0  0  0  0  0
  141.2530   75.4550  220.9030 C   0  0  0  0  0  0  0  0  0  0  0  0
  142.4850   75.2080  220.8850 O   0  0  0  0  0  0  0  0  0  0  0  0
  140.7520   76.7790  221.0420 N   0  0  0  0  0  0  0  0  0  0  0  0
  139.4080   77.0420  221.5160 C   0  0  0  0  0  0  0  0  0  0  0  0
  138.9470   78.4270  221.2000 C   0  0  0  0  0  0  0  0  0  0  0  0
  139.4630   79.0020  219.9260 C   0  0  0  0  0  0  0  0  0  0  0  0
  140.8920   78.6590  219.6050 C   0  0  0  0  0  0  0  0  0  0  0  0
  141.5990   77.9320  220.7000 C   0  0  1  0  0  0  0  0  0  0  0  0
  141.8310   78.7960  221.8560 C   0  0  0  0  0  0  0  0  0  0  0  0
  142.2300   80.1120  221.8020 C   0  0  0  0  0  0  0  0  0  0  0  0
  142.4370   80.8930  222.9200 C   0  0  0  0  0  0  0  0  0  0  0  0
  142.2360   80.3330  224.1650 C   0  0  0  0  0  0  0  0  0  0  0  0
  141.8370   79.0130  224.1940 C   0  0  0  0  0  0  0  0  0  0  0  0
  141.6420   78.2740  223.0870 N   0  0  0  0  0  0  0  0  0  0  0  0
  139.5510   71.5110  223.2370 C   0  0  0  0  0  0  0  0  0  0  0  0
  139.1180   70.2130  223.0470 C   0  0  0  0  0  0  0  0  0  0  0  0
  139.2970   69.2880  224.0820 C   0  0  0  0  0  0  0  0  0  0  0  0
  139.8990   69.6640  225.2770 C   0  0  0  0  0  0  0  0  0  0  0  0
  140.0990   68.7990  226.3220 C   0  0  0  0  0  0  0  0  0  0  0  0
  140.7040   69.2380  227.4850 C   0  0  0  0  0  0  0  0  0  0  0  0
  140.9790   68.1560  228.8510 Cl  0  0  0  0  0  0  0  0  0  0  0  0
  141.1110   70.5470  227.6030 C   0  0  0  0  0  0  0  0  0  0  0  0
  140.9070   71.4140  226.5480 C   0  0  0  0  0  0  0  0  0  0  0  0
  140.3030   70.9770  225.3890 C   0  0  0  0  0  0  0  0  0  0  0  0
  140.1340   71.8710  224.3990 N   0  0  0  0  0  0  0  0  0  0  0  0
  141.3330   73.2740  222.3810 H   0  0  0  0  0  0  0  0  0  0  0  0
  140.4293   73.8518  219.8094 H   0  0  0  0  0  0  0  0  0  0  0  0
  139.2699   74.7715  220.8589 H   0  0  0  0  0  0  0  0  0  0  0  0
  138.7210   76.3255  221.0420 H   0  0  0  0  0  0  0  0  0  0  0  0
  139.4146   76.9353  222.6108 H   0  0  0  0  0  0  0  0  0  0  0  0
  137.8485   78.4138  221.1450 H   0  0  0  0  0  0  0  0  0  0  0  0
  139.3443   79.0668  222.0017 H   0  0  0  0  0  0  0  0  0  0  0  0
  138.8310   78.6330  219.1047 H   0  0  0  0  0  0  0  0  0  0  0  0
  139.4295   80.0948  220.0468 H   0  0  0  0  0  0  0  0  0  0  0  0
  140.9028   78.0260  218.7055 H   0  0  0  0  0  0  0  0  0  0  0  0
  141.4238   79.6105  219.4575 H   0  0  0  0  0  0  0  0  0  0  0  0
  142.5970   77.6022  220.3755 H   0  0  0  0  0  0  0  0  0  0  0  0
  142.3927   80.5658  220.8133 H   0  0  0  0  0  0  0  0  0  0  0  0
  142.7559   81.9411  222.8211 H   0  0  0  0  0  0  0  0  0  0  0  0
  142.3865   80.9108  225.0888 H   0  0  0  0  0  0  0  0  0  0  0  0
  141.6696   78.5401  225.1730 H   0  0  0  0  0  0  0  0  0  0  0  0
  138.6423   69.9126  222.1017 H   0  0  0  0  0  0  0  0  0  0  0  0
  138.9570   68.2505  223.9480 H   0  0  0  0  0  0  0  0  0  0  0  0
  139.7766   67.7510  226.2346 H   0  0  0  0  0  0  0  0  0  0  0  0
  141.5932   70.8987  228.5270 H   0  0  0  0  0  0  0  0  0  0  0  0
  141.2293   72.4623  226.6333 H   0  0  0  0  0  0  0  0  0  0  0  0
  1  2  2  0
  2  3  1  0
  3  4  1  0
  4  5  1  0
  5  6  2  0
  5  7  1  0
  7  8  1  0
  8  9  1  0
  9 10  1  0
 10 11  1  0
 11 12  1  0
 12 13  1  0
 13 14  2  0
 14 15  1  0
 15 16  2  0
 16 17  1  0
 17 18  2  0
  2 19  1  0
 19 20  2  0
 20 21  1  0
 21 22  2  0
 22 23  1  0
 23 24  2  0
 24 25  1  0
 24 26  1  0
 26 27  2  0
 27 28  1  0
 28 29  2  0
 12  7  1  0
 18 13  1  0
 29 19  1  0
 28 22  1  0
  3 30  1  0
  4 31  1  0
  4 32  1  0
  8 33  1  0
  8 34  1  0
  9 35  1  0
  9 36  1  0
 10 37  1  0
 10 38  1  0
 11 39  1  0
 11 40  1  0
 12 41  1  6
 14 42  1  0
 15 43  1  0
 16 44  1  0
 17 45  1  0
 20 46  1  0
 21 47  1  0
 23 48  1  0
 26 49  1  0
 27 50  1  0
M  END
>  <smiles>  (53) 
O=C(NCC(=O)N1CCCCC1c1ccccn1)c1ccc2cc(Cl)ccc2n1

>  <score_type>  (53) 
oracle

>  <origin>  (53) 
autodockgpu

>  <m_score__min__energy>  (53) 
-8.9399999999999995

>  <m_primary>  (53) 
energy

>  <rmsd>  (53) 
2.4119316128945267

>  <m_score__min__rmsd>  (53) 
2.4119316128945267

>  <meeko>  (53) 
{"free_energy": -8.03, "intermolecular_energy": -9.52, "internal_energy": -1.62, "cluster_size": 40, "cluster_id": 1, "rank_in_cluster": 38}

>  <energy>  (53) 
-8.93

>  <cluster_rmsd>  (53) 
0.04

>  <cluster>  (53) 
1

$$$$

     RDKit          3D

 50 53  0  0  0  0  0  0  0  0999 V2000
  139.8960   72.0980  220.7330 O   0  0  0  0  0  0  0  0  0  0  0  0
  139.7960   72.4910  221.9310 C   0  0  0  0  0  0  0  0  0  0  0  0
  139.6090   73.8660  222.2360 N   0  0  0  0  0  0  0  0  0  0  0  0
  139.5280   74.8390  221.1670 C   0  0  0  0  0  0  0  0  0  0  0  0
  140.6680   75.7800  221.1930 C   0  0  0  0  0  0  0  0  0  0  0  0
  141.8420   75.3340  221.2320 O   0  0  0  0  0  0  0  0  0  0  0  0
  140.3910   77.1750  221.1730 N   0  0  0  0  0  0  0  0  0  0  0  0
  139.0830   77.7000  221.5130 C   0  0  0  0  0  0  0  0  0  0  0  0
  138.8850   79.1020  221.0400 C   0  0  0  0  0  0  0  0  0  0  0  0
  139.5720   79.4550  219.7660 C   0  0  0  0  0  0  0  0  0  0  0  0
  140.9390   78.8520  219.5910 C   0  0  0  0  0  0  0  0  0  0  0  0
  141.4420   78.1340  220.7990 C   0  0  1  0  0  0  0  0  0  0  0  0
  141.7420   79.0610  221.8890 C   0  0  0  0  0  0  0  0  0  0  0  0
  141.8610   78.7200  223.2170 C   0  0  0  0  0  0  0  0  0  0  0  0
  142.1460   79.6270  224.2160 C   0  0  0  0  0  0  0  0  0  0  0  0
  142.3220   80.9530  223.8740 C   0  0  0  0  0  0  0  0  0  0  0  0
  142.1970   81.2710  222.5380 C   0  0  0  0  0  0  0  0  0  0  0  0
  141.9190   80.3650  221.5840 N   0  0  0  0  0  0  0  0  0  0  0  0
  139.8760   71.5170  223.0280 C   0  0  0  0  0  0  0  0  0  0  0  0
  139.4390   70.2220  222.8200 C   0  0  0  0  0  0  0  0  0  0  0  0
  139.5230   69.3100  223.8780 C   0  0  0  0  0  0  0  0  0  0  0  0
  140.0350   69.6930  225.1120 C   0  0  0  0  0  0  0  0  0  0  0  0
  140.1400   68.8400  226.1800 C   0  0  0  0  0  0  0  0  0  0  0  0
  140.6590   69.2860  227.3800 C   0  0  0  0  0  0  0  0  0  0  0  0
  140.8100   68.2200  228.7780 Cl  0  0  0  0  0  0  0  0  0  0  0  0
  141.0760   70.5900  227.5140 C   0  0  0  0  0  0  0  0  0  0  0  0
  140.9680   71.4450  226.4350 C   0  0  0  0  0  0  0  0  0  0  0  0
  140.4500   71.0010  225.2370 C   0  0  0  0  0  0  0  0  0  0  0  0
  140.3730   71.8840  224.2260 N   0  0  0  0  0  0  0  0  0  0  0  0
  139.5330   74.1340  223.2470 H   0  0  0  0  0  0  0  0  0  0  0  0
  139.5256   74.3093  220.2029 H   0  0  0  0  0  0  0  0  0  0  0  0
  138.6031   75.4189  221.3021 H   0  0  0  0  0  0  0  0  0  0  0  0
  138.3161   77.0609  221.0509 H   0  0  0  0  0  0  0  0  0  0  0  0
  139.0012   77.7044  222.6099 H   0  0  0  0  0  0  0  0  0  0  0  0
  137.8060   79.2620  220.8982 H   0  0  0  0  0  0  0  0  0  0  0  0
  139.3327   79.7457  221.8115 H   0  0  0  0  0  0  0  0  0  0  0  0
  138.9401   79.1150  218.9323 H   0  0  0  0  0  0  0  0  0  0  0  0
  139.7181   80.5450  219.7880 H   0  0  0  0  0  0  0  0  0  0  0  0
  140.8982   78.1377  218.7554 H   0  0  0  0  0  0  0  0  0  0  0  0
  141.6333   79.6839  219.4016 H   0  0  0  0  0  0  0  0  0  0  0  0
  142.3886   77.6158  220.5859 H   0  0  0  0  0  0  0  0  0  0  0  0
  141.7210   77.6655  223.4971 H   0  0  0  0  0  0  0  0  0  0  0  0
  142.2313   79.3009  225.2631 H   0  0  0  0  0  0  0  0  0  0  0  0
  142.5508   81.7184  224.6302 H   0  0  0  0  0  0  0  0  0  0  0  0
  142.3317   82.3204  222.2370 H   0  0  0  0  0  0  0  0  0  0  0  0
  139.0342   69.9153  221.8443 H   0  0  0  0  0  0  0  0  0  0  0  0
  139.1790   68.2756  223.7310 H   0  0  0  0  0  0  0  0  0  0  0  0
  139.8094   67.7955  226.0810 H   0  0  0  0  0  0  0  0  0  0  0  0
  141.4902   70.9471  228.4684 H   0  0  0  0  0  0  0  0  0  0  0  0
  141.2983   72.4897  226.5322 H   0  0  0  0  0  0  0  0  0  0  0  0
  1  2  2  0
  2  3  1  0
  3  4  1  0
  4  5  1  0
  5  6  2  0
  5  7  1  0
  7  8  1  0
  8  9  1  0
  9 10  1  0
 10 11  1  0
 11 12  1  0
 12 13  1  0
 13 14  2  0
 14 15  1  0
 15 16  2  0
 16 17  1  0
 17 18  2  0
  2 19  1  0
 19 20  2  0
 20 21  1  0
 21 22  2  0
 22 23  1  0
 23 24  2  0
 24 25  1  0
 24 26  1  0
 26 27  2  0
 27 28  1  0
 28 29  2  0
 12  7  1  0
 18 13  1  0
 29 19  1  0
 28 22  1  0
  3 30  1  0
  4 31  1  0
  4 32  1  0
  8 33  1  0
  8 34  1  0
  9 35  1  0
  9 36  1  0
 10 37  1  0
 10 38  1  0
 11 39  1  0
 11 40  1  0
 12 41  1  6
 14 42  1  0
 15 43  1  0
 16 44  1  0
 17 45  1  0
 20 46  1  0
 21 47  1  0
 23 48  1  0
 26 49  1  0
 27 50  1  0
M  END
>  <smiles>  (54) 
O=C(NCC(=O)N1CCCCC1c1ccccn1)c1ccc2cc(Cl)ccc2n1

>  <score_type>  (54) 
oracle

>  <origin>  (54) 
autodockgpu

>  <m_score__min__energy>  (54) 
-8.9399999999999995

>  <m_primary>  (54) 
energy

>  <rmsd>  (54) 
2.820992086927155

>  <m_score__min__rmsd>  (54) 
2.820992086927155

>  <meeko>  (54) 
{"free_energy": -8.57, "intermolecular_energy": -10.06, "internal_energy": -1.56, "cluster_size": 40, "cluster_id": 1, "rank_in_cluster": 21}

>  <energy>  (54) 
-8.91

>  <cluster_rmsd>  (54) 
0.1

>  <cluster>  (54) 
1

$$$$

     RDKit          3D

 50 53  0  0  0  0  0  0  0  0999 V2000
  140.3150   72.6130  220.6970 O   0  0  0  0  0  0  0  0  0  0  0  0
  140.0310   72.9680  221.8770 C   0  0  0  0  0  0  0  0  0  0  0  0
  139.7310   74.3230  222.1820 N   0  0  0  0  0  0  0  0  0  0  0  0
  139.7450   75.3190  221.1320 C   0  0  0  0  0  0  0  0  0  0  0  0
  140.9960   76.1070  221.1400 C   0  0  0  0  0  0  0  0  0  0  0  0
  142.0880   75.5460  220.8710 O   0  0  0  0  0  0  0  0  0  0  0  0
  140.9190   77.4920  221.4580 N   0  0  0  0  0  0  0  0  0  0  0  0
  140.9490   78.5140  220.4300 C   0  0  0  0  0  0  0  0  0  0  0  0
  141.2710   79.8670  220.9730 C   0  0  0  0  0  0  0  0  0  0  0  0
  142.2010   79.8880  222.1380 C   0  0  0  0  0  0  0  0  0  0  0  0
  142.0080   78.7730  223.1280 C   0  0  0  0  0  0  0  0  0  0  0  0
  140.8080   77.9270  222.8580 C   0  0  1  0  0  0  0  0  0  0  0  0
  139.5670   78.6610  223.1010 C   0  0  0  0  0  0  0  0  0  0  0  0
  139.4500   79.8010  223.8620 C   0  0  0  0  0  0  0  0  0  0  0  0
  138.2580   80.4640  224.0660 C   0  0  0  0  0  0  0  0  0  0  0  0
  137.1130   79.9630  223.4780 C   0  0  0  0  0  0  0  0  0  0  0  0
  137.2560   78.8190  222.7200 C   0  0  0  0  0  0  0  0  0  0  0  0
  138.4320   78.1930  222.5380 N   0  0  0  0  0  0  0  0  0  0  0  0
  140.0120   71.9680  222.9540 C   0  0  0  0  0  0  0  0  0  0  0  0
  139.4640   70.7220  222.7150 C   0  0  0  0  0  0  0  0  0  0  0  0
  139.4540   69.7850  223.7550 C   0  0  0  0  0  0  0  0  0  0  0  0
  139.9850   70.0970  225.0010 C   0  0  0  0  0  0  0  0  0  0  0  0
  140.0010   69.2160  226.0520 C   0  0  0  0  0  0  0  0  0  0  0  0
  140.5440   69.5900  227.2660 C   0  0  0  0  0  0  0  0  0  0  0  0
  140.5850   68.4870  228.6430 Cl  0  0  0  0  0  0  0  0  0  0  0  0
  141.0740   70.8490  227.4310 C   0  0  0  0  0  0  0  0  0  0  0  0
  141.0550   71.7320  226.3690 C   0  0  0  0  0  0  0  0  0  0  0  0
  140.5130   71.3600  225.1580 C   0  0  0  0  0  0  0  0  0  0  0  0
  140.5260   72.2660  224.1650 N   0  0  0  0  0  0  0  0  0  0  0  0
  139.5020   74.5580  223.1780 H   0  0  0  0  0  0  0  0  0  0  0  0
  139.6489   74.8131  220.1600 H   0  0  0  0  0  0  0  0  0  0  0  0
  138.9052   76.0085  221.3033 H   0  0  0  0  0  0  0  0  0  0  0  0
  141.7122   78.2425  219.6858 H   0  0  0  0  0  0  0  0  0  0  0  0
  139.9454   78.5653  219.9826 H   0  0  0  0  0  0  0  0  0  0  0  0
  141.7278   80.4564  220.1644 H   0  0  0  0  0  0  0  0  0  0  0  0
  140.3192   80.2788  221.3398 H   0  0  0  0  0  0  0  0  0  0  0  0
  143.2300   79.8283  221.7538 H   0  0  0  0  0  0  0  0  0  0  0  0
  141.9900   80.8206  222.6818 H   0  0  0  0  0  0  0  0  0  0  0  0
  142.8992   78.1287  223.1024 H   0  0  0  0  0  0  0  0  0  0  0  0
  141.8544   79.2414  224.1114 H   0  0  0  0  0  0  0  0  0  0  0  0
  140.7737   77.0614  223.5359 H   0  0  0  0  0  0  0  0  0  0  0  0
  140.3573   80.2062  224.3339 H   0  0  0  0  0  0  0  0  0  0  0  0
  138.2199   81.3730  224.6842 H   0  0  0  0  0  0  0  0  0  0  0  0
  136.1360   80.4516  223.6075 H   0  0  0  0  0  0  0  0  0  0  0  0
  136.3611   78.3970  222.2394 H   0  0  0  0  0  0  0  0  0  0  0  0
  139.0449   70.4720  221.7292 H   0  0  0  0  0  0  0  0  0  0  0  0
  139.0202   68.7887  223.5839 H   0  0  0  0  0  0  0  0  0  0  0  0
  139.5798   68.2075  225.9278 H   0  0  0  0  0  0  0  0  0  0  0  0
  141.5074   71.1486  228.3966 H   0  0  0  0  0  0  0  0  0  0  0  0
  141.4761   72.7408  226.4911 H   0  0  0  0  0  0  0  0  0  0  0  0
  1  2  2  0
  2  3  1  0
  3  4  1  0
  4  5  1  0
  5  6  2  0
  5  7  1  0
  7  8  1  0
  8  9  1  0
  9 10  1  0
 10 11  1  0
 11 12  1  0
 12 13  1  0
 13 14  2  0
 14 15  1  0
 15 16  2  0
 16 17  1  0
 17 18  2  0
  2 19  1  0
 19 20  2  0
 20 21  1  0
 21 22  2  0
 22 23  1  0
 23 24  2  0
 24 25  1  0
 24 26  1  0
 26 27  2  0
 27 28  1  0
 28 29  2  0
 12  7  1  0
 18 13  1  0
 29 19  1  0
 28 22  1  0
  3 30  1  0
  4 31  1  0
  4 32  1  0
  8 33  1  0
  8 34  1  0
  9 35  1  0
  9 36  1  0
 10 37  1  0
 10 38  1  0
 11 39  1  0
 11 40  1  0
 12 41  1  1
 14 42  1  0
 15 43  1  0
 16 44  1  0
 17 45  1  0
 20 46  1  0
 21 47  1  0
 23 48  1  0
 26 49  1  0
 27 50  1  0
M  END
>  <smiles>  (55) 
O=C(NCC(=O)N1CCCCC1c1ccccn1)c1ccc2cc(Cl)ccc2n1

>  <score_type>  (55) 
oracle

>  <origin>  (55) 
autodockgpu

>  <m_score__min__energy>  (55) 
-8.9399999999999995

>  <m_primary>  (55) 
energy

>  <rmsd>  (55) 
3.4590012186005548

>  <m_score__min__rmsd>  (55) 
3.4590012186005548

>  <meeko>  (55) 
{"free_energy": -8.53, "intermolecular_energy": -10.02, "internal_energy": -1.6, "cluster_size": 40, "cluster_id": 1, "rank_in_cluster": 26}

>  <energy>  (55) 
-8.9

>  <cluster_rmsd>  (55) 
0.11

>  <cluster>  (55) 
1

$$$$

     RDKit          3D

 50 53  0  0  0  0  0  0  0  0999 V2000
  139.3770   72.0730  220.8140 O   0  0  0  0  0  0  0  0  0  0  0  0
  139.4910   72.4700  222.0100 C   0  0  0  0  0  0  0  0  0  0  0  0
  139.4620   73.8540  222.3270 N   0  0  0  0  0  0  0  0  0  0  0  0
  139.2980   74.8330  221.2730 C   0  0  0  0  0  0  0  0  0  0  0  0
  140.3850   75.8350  221.2790 C   0  0  0  0  0  0  0  0  0  0  0  0
  141.5760   75.4620  221.1300 O   0  0  0  0  0  0  0  0  0  0  0  0
  140.0410   77.2030  221.4570 N   0  0  0  0  0  0  0  0  0  0  0  0
  138.8490   77.6040  222.1790 C   0  0  0  0  0  0  0  0  0  0  0  0
  138.4560   79.0170  221.9020 C   0  0  0  0  0  0  0  0  0  0  0  0
  138.7510   79.5100  220.5270 C   0  0  0  0  0  0  0  0  0  0  0  0
  140.0490   79.0250  219.9410 C   0  0  0  0  0  0  0  0  0  0  0  0
  140.8980   78.2630  220.9030 C   0  0  1  0  0  0  0  0  0  0  0  0
  141.4340   79.1290  221.9510 C   0  0  0  0  0  0  0  0  0  0  0  0
  141.7020   78.7460  223.2450 C   0  0  0  0  0  0  0  0  0  0  0  0
  142.2080   79.5970  224.2050 C   0  0  0  0  0  0  0  0  0  0  0  0
  142.4640   80.9090  223.8570 C   0  0  0  0  0  0  0  0  0  0  0  0
  142.1870   81.2700  222.5550 C   0  0  0  0  0  0  0  0  0  0  0  0
  141.6930   80.4180  221.6390 N   0  0  0  0  0  0  0  0  0  0  0  0
  139.6590   71.4890  223.0900 C   0  0  0  0  0  0  0  0  0  0  0  0
  139.2700   70.1780  222.8860 C   0  0  0  0  0  0  0  0  0  0  0  0
  139.4370   69.2600  223.9280 C   0  0  0  0  0  0  0  0  0  0  0  0
  139.9830   69.6530  225.1440 C   0  0  0  0  0  0  0  0  0  0  0  0
  140.1700   68.7940  226.1970 C   0  0  0  0  0  0  0  0  0  0  0  0
  140.7180   69.2500  227.3800 C   0  0  0  0  0  0  0  0  0  0  0  0
  140.9740   68.1780  228.7580 Cl  0  0  0  0  0  0  0  0  0  0  0  0
  141.0840   70.5700  227.5120 C   0  0  0  0  0  0  0  0  0  0  0  0
  140.8940   71.4310  226.4490 C   0  0  0  0  0  0  0  0  0  0  0  0
  140.3470   70.9770  225.2690 C   0  0  0  0  0  0  0  0  0  0  0  0
  140.1890   71.8650  224.2720 N   0  0  0  0  0  0  0  0  0  0  0  0
  139.5620   74.1240  223.3350 H   0  0  0  0  0  0  0  0  0  0  0  0
  139.2972   74.3146  220.3028 H   0  0  0  0  0  0  0  0  0  0  0  0
  138.3471   75.3598  221.4412 H   0  0  0  0  0  0  0  0  0  0  0  0
  138.0201   76.9438  221.8840 H   0  0  0  0  0  0  0  0  0  0  0  0
  139.0691   77.5249  223.2538 H   0  0  0  0  0  0  0  0  0  0  0  0
  137.3722   79.1055  222.0679 H   0  0  0  0  0  0  0  0  0  0  0  0
  139.0619   79.6361  222.5799 H   0  0  0  0  0  0  0  0  0  0  0  0
  137.9351   79.1835  219.8654 H   0  0  0  0  0  0  0  0  0  0  0  0
  138.8396   80.6036  220.6056 H   0  0  0  0  0  0  0  0  0  0  0  0
  139.8206   78.3707  219.0867 H   0  0  0  0  0  0  0  0  0  0  0  0
  140.6207   79.9177  219.6474 H   0  0  0  0  0  0  0  0  0  0  0  0
  141.7771   77.8341  220.3999 H   0  0  0  0  0  0  0  0  0  0  0  0
  141.5014   77.7026  223.5298 H   0  0  0  0  0  0  0  0  0  0  0  0
  142.4036   79.2385  225.2264 H   0  0  0  0  0  0  0  0  0  0  0  0
  142.8688   81.6302  224.5823 H   0  0  0  0  0  0  0  0  0  0  0  0
  142.3802   82.3090  222.2498 H   0  0  0  0  0  0  0  0  0  0  0  0
  138.8382   69.8635  221.9244 H   0  0  0  0  0  0  0  0  0  0  0  0
  139.1321   68.2131  223.7830 H   0  0  0  0  0  0  0  0  0  0  0  0
  139.8821   67.7369  226.0988 H   0  0  0  0  0  0  0  0  0  0  0  0
  141.5225   70.9348  228.4525 H   0  0  0  0  0  0  0  0  0  0  0  0
  141.1819   72.4883  226.5454 H   0  0  0  0  0  0  0  0  0  0  0  0
  1  2  2  0
  2  3  1  0
  3  4  1  0
  4  5  1  0
  5  6  2  0
  5  7  1  0
  7  8  1  0
  8  9  1  0
  9 10  1  0
 10 11  1  0
 11 12  1  0
 12 13  1  0
 13 14  2  0
 14 15  1  0
 15 16  2  0
 16 17  1  0
 17 18  2  0
  2 19  1  0
 19 20  2  0
 20 21  1  0
 21 22  2  0
 22 23  1  0
 23 24  2  0
 24 25  1  0
 24 26  1  0
 26 27  2  0
 27 28  1  0
 28 29  2  0
 12  7  1  0
 18 13  1  0
 29 19  1  0
 28 22  1  0
  3 30  1  0
  4 31  1  0
  4 32  1  0
  8 33  1  0
  8 34  1  0
  9 35  1  0
  9 36  1  0
 10 37  1  0
 10 38  1  0
 11 39  1  0
 11 40  1  0
 12 41  1  6
 14 42  1  0
 15 43  1  0
 16 44  1  0
 17 45  1  0
 20 46  1  0
 21 47  1  0
 23 48  1  0
 26 49  1  0
 27 50  1  0
M  END
>  <smiles>  (56) 
O=C(NCC(=O)N1CCCCC1c1ccccn1)c1ccc2cc(Cl)ccc2n1

>  <score_type>  (56) 
oracle

>  <origin>  (56) 
autodockgpu

>  <m_score__min__energy>  (56) 
-8.9399999999999995

>  <m_primary>  (56) 
energy

>  <rmsd>  (56) 
2.9848146144181906

>  <m_score__min__rmsd>  (56) 
2.9848146144181906

>  <meeko>  (56) 
{"free_energy": -8.53, "intermolecular_energy": -10.02, "internal_energy": -1.6, "cluster_size": 40, "cluster_id": 1, "rank_in_cluster": 27}

>  <energy>  (56) 
-8.88

>  <cluster_rmsd>  (56) 
0.62

>  <cluster>  (56) 
1

$$$$

     RDKit          3D

 50 53  0  0  0  0  0  0  0  0999 V2000
  139.9120   72.5570  221.1450 O   0  0  0  0  0  0  0  0  0  0  0  0
  139.1380   72.5120  222.1440 C   0  0  0  0  0  0  0  0  0  0  0  0
  138.0430   73.4090  222.2620 N   0  0  0  0  0  0  0  0  0  0  0  0
  137.7980   74.3910  221.2270 C   0  0  0  0  0  0  0  0  0  0  0  0
  137.9250   75.7720  221.7390 C   0  0  0  0  0  0  0  0  0  0  0  0
  137.0150   76.2550  222.4600 O   0  0  0  0  0  0  0  0  0  0  0  0
  139.0870   76.5160  221.3940 N   0  0  0  0  0  0  0  0  0  0  0  0
  139.1820   77.2490  220.1470 C   0  0  0  0  0  0  0  0  0  0  0  0
  140.5890   77.6030  219.7940 C   0  0  0  0  0  0  0  0  0  0  0  0
  141.6260   76.6190  220.2140 C   0  0  0  0  0  0  0  0  0  0  0  0
  141.3890   75.9770  221.5540 C   0  0  0  0  0  0  0  0  0  0  0  0
  140.2400   76.5580  222.3070 C   0  0  1  0  0  0  0  0  0  0  0  0
  140.5240   77.9200  222.7570 C   0  0  0  0  0  0  0  0  0  0  0  0
  139.5800   78.8690  223.0770 C   0  0  0  0  0  0  0  0  0  0  0  0
  139.8930   80.1440  223.4980 C   0  0  0  0  0  0  0  0  0  0  0  0
  141.2230   80.4980  223.6070 C   0  0  0  0  0  0  0  0  0  0  0  0
  142.1500   79.5310  223.2800 C   0  0  0  0  0  0  0  0  0  0  0  0
  141.8170   78.2930  222.8720 N   0  0  0  0  0  0  0  0  0  0  0  0
  139.3730   71.5210  223.2030 C   0  0  0  0  0  0  0  0  0  0  0  0
  138.9700   70.2130  223.0110 C   0  0  0  0  0  0  0  0  0  0  0  0
  139.2020   69.2850  224.0330 C   0  0  0  0  0  0  0  0  0  0  0  0
  139.8240   69.6670  225.2160 C   0  0  0  0  0  0  0  0  0  0  0  0
  140.0750   68.7990  226.2470 C   0  0  0  0  0  0  0  0  0  0  0  0
  140.6980   69.2440  227.3970 C   0  0  0  0  0  0  0  0  0  0  0  0
  141.0390   68.1590  228.7460 Cl  0  0  0  0  0  0  0  0  0  0  0  0
  141.0730   70.5630  227.5180 C   0  0  0  0  0  0  0  0  0  0  0  0
  140.8170   71.4330  226.4760 C   0  0  0  0  0  0  0  0  0  0  0  0
  140.1960   70.9890  225.3290 C   0  0  0  0  0  0  0  0  0  0  0  0
  139.9760   71.8870  224.3520 N   0  0  0  0  0  0  0  0  0  0  0  0
  137.4350   73.3250  223.1120 H   0  0  0  0  0  0  0  0  0  0  0  0
  138.5269   74.2434  220.4165 H   0  0  0  0  0  0  0  0  0  0  0  0
  136.7689   74.2546  220.8632 H   0  0  0  0  0  0  0  0  0  0  0  0
  138.7621   76.6290  219.3412 H   0  0  0  0  0  0  0  0  0  0  0  0
  138.6232   78.1885  220.2697 H   0  0  0  0  0  0  0  0  0  0  0  0
  140.6469   77.7095  218.7007 H   0  0  0  0  0  0  0  0  0  0  0  0
  140.8130   78.5289  220.3440 H   0  0  0  0  0  0  0  0  0  0  0  0
  141.6669   75.8224  219.4566 H   0  0  0  0  0  0  0  0  0  0  0  0
  142.5656   77.1836  220.3059 H   0  0  0  0  0  0  0  0  0  0  0  0
  141.1934   74.9062  221.3954 H   0  0  0  0  0  0  0  0  0  0  0  0
  142.2905   76.1563  222.1582 H   0  0  0  0  0  0  0  0  0  0  0  0
  140.0374   75.9831  223.2227 H   0  0  0  0  0  0  0  0  0  0  0  0
  138.5180   78.5954  222.9922 H   0  0  0  0  0  0  0  0  0  0  0  0
  139.0988   80.8649  223.7422 H   0  0  0  0  0  0  0  0  0  0  0  0
  141.5280   81.5016  223.9382 H   0  0  0  0  0  0  0  0  0  0  0  0
  143.2175   79.7851  223.3567 H   0  0  0  0  0  0  0  0  0  0  0  0
  138.4778   69.9079  222.0757 H   0  0  0  0  0  0  0  0  0  0  0  0
  138.8879   68.2395  223.8982 H   0  0  0  0  0  0  0  0  0  0  0  0
  139.7790   67.7433  226.1582 H   0  0  0  0  0  0  0  0  0  0  0  0
  141.5699   70.9195  228.4323 H   0  0  0  0  0  0  0  0  0  0  0  0
  141.1115   72.4893  226.5627 H   0  0  0  0  0  0  0  0  0  0  0  0
  1  2  2  0
  2  3  1  0
  3  4  1  0
  4  5  1  0
  5  6  2  0
  5  7  1  0
  7  8  1  0
  8  9  1  0
  9 10  1  0
 10 11  1  0
 11 12  1  0
 12 13  1  0
 13 14  2  0
 14 15  1  0
 15 16  2  0
 16 17  1  0
 17 18  2  0
  2 19  1  0
 19 20  2  0
 20 21  1  0
 21 22  2  0
 22 23  1  0
 23 24  2  0
 24 25  1  0
 24 26  1  0
 26 27  2  0
 27 28  1  0
 28 29  2  0
 12  7  1  0
 18 13  1  0
 29 19  1  0
 28 22  1  0
  3 30  1  0
  4 31  1  0
  4 32  1  0
  8 33  1  0
  8 34  1  0
  9 35  1  0
  9 36  1  0
 10 37  1  0
 10 38  1  0
 11 39  1  0
 11 40  1  0
 12 41  1  1
 14 42  1  0
 15 43  1  0
 16 44  1  0
 17 45  1  0
 20 46  1  0
 21 47  1  0
 23 48  1  0
 26 49  1  0
 27 50  1  0
M  END
>  <smiles>  (57) 
O=C(NCC(=O)N1CCCCC1c1ccccn1)c1ccc2cc(Cl)ccc2n1

>  <score_type>  (57) 
oracle

>  <origin>  (57) 
autodockgpu

>  <m_score__min__energy>  (57) 
-8.9399999999999995

>  <m_primary>  (57) 
energy

>  <rmsd>  (57) 
2.4668904098379874

>  <m_score__min__rmsd>  (57) 
2.4668904098379874

>  <meeko>  (57) 
{"free_energy": -8.22, "intermolecular_energy": -9.72, "internal_energy": -1.65, "cluster_size": 40, "cluster_id": 1, "rank_in_cluster": 32}

>  <energy>  (57) 
-8.75

>  <cluster_rmsd>  (57) 
0.47

>  <cluster>  (57) 
1

$$$$

     RDKit          3D

 50 53  0  0  0  0  0  0  0  0999 V2000
  140.0230   72.1540  220.6430 O   0  0  0  0  0  0  0  0  0  0  0  0
  139.8390   72.5530  221.8290 C   0  0  0  0  0  0  0  0  0  0  0  0
  139.5890   73.9230  222.1090 N   0  0  0  0  0  0  0  0  0  0  0  0
  139.5380   74.8840  221.0280 C   0  0  0  0  0  0  0  0  0  0  0  0
  140.7670   75.7030  220.9620 C   0  0  0  0  0  0  0  0  0  0  0  0
  141.8910   75.1440  221.0220 O   0  0  0  0  0  0  0  0  0  0  0  0
  140.6320   77.1130  220.8320 N   0  0  0  0  0  0  0  0  0  0  0  0
  139.3340   77.7570  220.8010 C   0  0  0  0  0  0  0  0  0  0  0  0
  139.3930   79.1450  220.2550 C   0  0  0  0  0  0  0  0  0  0  0  0
  140.4170   79.3780  219.1980 C   0  0  0  0  0  0  0  0  0  0  0  0
  141.7220   78.6600  219.4060 C   0  0  0  0  0  0  0  0  0  0  0  0
  141.8260   77.9650  220.7230 C   0  0  1  0  0  0  0  0  0  0  0  0
  141.9140   78.9180  221.8280 C   0  0  0  0  0  0  0  0  0  0  0  0
  141.7480   78.6140  223.1600 C   0  0  0  0  0  0  0  0  0  0  0  0
  141.8390   79.5450  224.1730 C   0  0  0  0  0  0  0  0  0  0  0  0
  142.1130   80.8570  223.8430 C   0  0  0  0  0  0  0  0  0  0  0  0
  142.2750   81.1380  222.5020 C   0  0  0  0  0  0  0  0  0  0  0  0
  142.1800   80.2090  221.5340 N   0  0  0  0  0  0  0  0  0  0  0  0
  139.8880   71.5900  222.9380 C   0  0  0  0  0  0  0  0  0  0  0  0
  139.4070   70.3090  222.7470 C   0  0  0  0  0  0  0  0  0  0  0  0
  139.4610   69.4080  223.8160 C   0  0  0  0  0  0  0  0  0  0  0  0
  139.9880   69.7890  225.0450 C   0  0  0  0  0  0  0  0  0  0  0  0
  140.0650   68.9460  226.1230 C   0  0  0  0  0  0  0  0  0  0  0  0
  140.6010   69.3900  227.3180 C   0  0  0  0  0  0  0  0  0  0  0  0
  140.7180   68.3370  228.7280 Cl  0  0  0  0  0  0  0  0  0  0  0  0
  141.0620   70.6810  227.4340 C   0  0  0  0  0  0  0  0  0  0  0  0
  140.9820   71.5250  226.3440 C   0  0  0  0  0  0  0  0  0  0  0  0
  140.4480   71.0840  225.1530 C   0  0  0  0  0  0  0  0  0  0  0  0
  140.3980   71.9560  224.1310 N   0  0  0  0  0  0  0  0  0  0  0  0
  139.4440   74.1960  223.1110 H   0  0  0  0  0  0  0  0  0  0  0  0
  139.4186   74.3441  220.0771 H   0  0  0  0  0  0  0  0  0  0  0  0
  138.6878   75.5579  221.2099 H   0  0  0  0  0  0  0  0  0  0  0  0
  138.6594   77.1591  220.1705 H   0  0  0  0  0  0  0  0  0  0  0  0
  138.9705   77.8225  221.8371 H   0  0  0  0  0  0  0  0  0  0  0  0
  138.4071   79.3835  219.8295 H   0  0  0  0  0  0  0  0  0  0  0  0
  139.6804   79.7886  221.0995 H   0  0  0  0  0  0  0  0  0  0  0  0
  139.9959   79.0483  218.2368 H   0  0  0  0  0  0  0  0  0  0  0  0
  140.6499   80.4526  219.2281 H   0  0  0  0  0  0  0  0  0  0  0  0
  141.8361   77.9107  218.6088 H   0  0  0  0  0  0  0  0  0  0  0  0
  142.5138   79.4233  219.3841 H   0  0  0  0  0  0  0  0  0  0  0  0
  142.7447   77.3629  220.7815 H   0  0  0  0  0  0  0  0  0  0  0  0
  141.5307   77.5704  223.4315 H   0  0  0  0  0  0  0  0  0  0  0  0
  141.6962   79.2483  225.2226 H   0  0  0  0  0  0  0  0  0  0  0  0
  142.1980   81.6398  224.6112 H   0  0  0  0  0  0  0  0  0  0  0  0
  142.4932   82.1757  222.2093 H   0  0  0  0  0  0  0  0  0  0  0  0
  138.9906   70.0041  221.7756 H   0  0  0  0  0  0  0  0  0  0  0  0
  139.0814   68.3843  223.6824 H   0  0  0  0  0  0  0  0  0  0  0  0
  139.6990   67.9122  226.0373 H   0  0  0  0  0  0  0  0  0  0  0  0
  141.4891   71.0365  228.3833 H   0  0  0  0  0  0  0  0  0  0  0  0
  141.3480   72.5590  226.4274 H   0  0  0  0  0  0  0  0  0  0  0  0
  1  2  2  0
  2  3  1  0
  3  4  1  0
  4  5  1  0
  5  6  2  0
  5  7  1  0
  7  8  1  0
  8  9  1  0
  9 10  1  0
 10 11  1  0
 11 12  1  0
 12 13  1  0
 13 14  2  0
 14 15  1  0
 15 16  2  0
 16 17  1  0
 17 18  2  0
  2 19  1  0
 19 20  2  0
 20 21  1  0
 21 22  2  0
 22 23  1  0
 23 24  2  0
 24 25  1  0
 24 26  1  0
 26 27  2  0
 27 28  1  0
 28 29  2  0
 12  7  1  0
 18 13  1  0
 29 19  1  0
 28 22  1  0
  3 30  1  0
  4 31  1  0
  4 32  1  0
  8 33  1  0
  8 34  1  0
  9 35  1  0
  9 36  1  0
 10 37  1  0
 10 38  1  0
 11 39  1  0
 11 40  1  0
 12 41  1  6
 14 42  1  0
 15 43  1  0
 16 44  1  0
 17 45  1  0
 20 46  1  0
 21 47  1  0
 23 48  1  0
 26 49  1  0
 27 50  1  0
M  END
>  <smiles>  (58) 
O=C(NCC(=O)N1CCCCC1c1ccccn1)c1ccc2cc(Cl)ccc2n1

>  <score_type>  (58) 
oracle

>  <origin>  (58) 
autodockgpu

>  <m_score__min__energy>  (58) 
-8.9399999999999995

>  <m_primary>  (58) 
energy

>  <rmsd>  (58) 
2.6937709017336338

>  <m_score__min__rmsd>  (58) 
2.6937709017336338

>  <meeko>  (58) 
{"free_energy": -8.61, "intermolecular_energy": -10.1, "internal_energy": -1.53, "cluster_size": 40, "cluster_id": 1, "rank_in_cluster": 15}

>  <energy>  (58) 
-8.72

>  <cluster_rmsd>  (58) 
0.78

>  <cluster>  (58) 
1

$$$$

     RDKit          3D

 50 53  0  0  0  0  0  0  0  0999 V2000
  135.5230   75.6180  221.6640 O   0  0  0  0  0  0  0  0  0  0  0  0
  136.7020   75.5080  222.1080 C   0  0  0  0  0  0  0  0  0  0  0  0
  137.2730   74.2310  222.3560 N   0  0  0  0  0  0  0  0  0  0  0  0
  136.5040   73.0320  222.0970 C   0  0  0  0  0  0  0  0  0  0  0  0
  135.7350   72.6050  223.2850 C   0  0  0  0  0  0  0  0  0  0  0  0
  135.9730   71.4890  223.8120 O   0  0  0  0  0  0  0  0  0  0  0  0
  134.7400   73.4830  223.7960 N   0  0  0  0  0  0  0  0  0  0  0  0
  133.6090   73.9060  222.9940 C   0  0  0  0  0  0  0  0  0  0  0  0
  132.9310   75.1150  223.5480 C   0  0  0  0  0  0  0  0  0  0  0  0
  133.8180   76.0910  224.2410 C   0  0  0  0  0  0  0  0  0  0  0  0
  134.9200   75.4790  225.0610 C   0  0  0  0  0  0  0  0  0  0  0  0
  134.8360   73.9930  225.1720 C   0  0  1  0  0  0  0  0  0  0  0  0
  133.6940   73.5790  225.9850 C   0  0  0  0  0  0  0  0  0  0  0  0
  133.0970   72.3390  225.9490 C   0  0  0  0  0  0  0  0  0  0  0  0
  132.0180   71.9880  226.7350 C   0  0  0  0  0  0  0  0  0  0  0  0
  131.5020   72.9260  227.6060 C   0  0  0  0  0  0  0  0  0  0  0  0
  132.1160   74.1610  227.6230 C   0  0  0  0  0  0  0  0  0  0  0  0
  133.1680   74.4760  226.8460 N   0  0  0  0  0  0  0  0  0  0  0  0
  137.4960   76.7140  222.3770 C   0  0  0  0  0  0  0  0  0  0  0  0
  136.8520   77.9220  222.5700 C   0  0  0  0  0  0  0  0  0  0  0  0
  137.6270   79.0600  222.8240 C   0  0  0  0  0  0  0  0  0  0  0  0
  139.0130   78.9810  222.8810 C   0  0  0  0  0  0  0  0  0  0  0  0
  139.8180   80.0630  223.1270 C   0  0  0  0  0  0  0  0  0  0  0  0
  141.1910   79.9160  223.1710 C   0  0  0  0  0  0  0  0  0  0  0  0
  142.2610   81.2830  223.4830 Cl  0  0  0  0  0  0  0  0  0  0  0  0
  141.7630   78.6800  222.9700 C   0  0  0  0  0  0  0  0  0  0  0  0
  140.9480   77.5930  222.7230 C   0  0  0  0  0  0  0  0  0  0  0  0
  139.5780   77.7400  222.6790 C   0  0  0  0  0  0  0  0  0  0  0  0
  138.8410   76.6420  222.4340 N   0  0  0  0  0  0  0  0  0  0  0  0
  138.2540   74.2000  222.7250 H   0  0  0  0  0  0  0  0  0  0  0  0
  135.8039   73.2295  221.2719 H   0  0  0  0  0  0  0  0  0  0  0  0
  137.2055   72.2259  221.8363 H   0  0  0  0  0  0  0  0  0  0  0  0
  133.9638   74.1356  221.9784 H   0  0  0  0  0  0  0  0  0  0  0  0
  132.8766   73.0852  222.9927 H   0  0  0  0  0  0  0  0  0  0  0  0
  132.4383   75.6379  222.7151 H   0  0  0  0  0  0  0  0  0  0  0  0
  132.2352   74.7442  224.3150 H   0  0  0  0  0  0  0  0  0  0  0  0
  134.2785   76.7352  223.4775 H   0  0  0  0  0  0  0  0  0  0  0  0
  133.1779   76.6395  224.9477 H   0  0  0  0  0  0  0  0  0  0  0  0
  135.8827   75.7379  224.5960 H   0  0  0  0  0  0  0  0  0  0  0  0
  134.8219   75.8818  226.0799 H   0  0  0  0  0  0  0  0  0  0  0  0
  135.7213   73.5834  225.6804 H   0  0  0  0  0  0  0  0  0  0  0  0
  133.5020   71.5869  225.2560 H   0  0  0  0  0  0  0  0  0  0  0  0
  131.5786   70.9818  226.6686 H   0  0  0  0  0  0  0  0  0  0  0  0
  130.6431   72.6998  228.2549 H   0  0  0  0  0  0  0  0  0  0  0  0
  131.7251   74.9282  228.3075 H   0  0  0  0  0  0  0  0  0  0  0  0
  135.7549   77.9876  222.5250 H   0  0  0  0  0  0  0  0  0  0  0  0
  137.1319   80.0297  222.9806 H   0  0  0  0  0  0  0  0  0  0  0  0
  139.3683   81.0535  223.2902 H   0  0  0  0  0  0  0  0  0  0  0  0
  142.8558   78.5598  223.0057 H   0  0  0  0  0  0  0  0  0  0  0  0
  141.3957   76.6015  222.5600 H   0  0  0  0  0  0  0  0  0  0  0  0
  1  2  2  0
  2  3  1  0
  3  4  1  0
  4  5  1  0
  5  6  2  0
  5  7  1  0
  7  8  1  0
  8  9  1  0
  9 10  1  0
 10 11  1  0
 11 12  1  0
 12 13  1  0
 13 14  2  0
 14 15  1  0
 15 16  2  0
 16 17  1  0
 17 18  2  0
  2 19  1  0
 19 20  2  0
 20 21  1  0
 21 22  2  0
 22 23  1  0
 23 24  2  0
 24 25  1  0
 24 26  1  0
 26 27  2  0
 27 28  1  0
 28 29  2  0
 12  7  1  0
 18 13  1  0
 29 19  1  0
 28 22  1  0
  3 30  1  0
  4 31  1  0
  4 32  1  0
  8 33  1  0
  8 34  1  0
  9 35  1  0
  9 36  1  0
 10 37  1  0
 10 38  1  0
 11 39  1  0
 11 40  1  0
 12 41  1  1
 14 42  1  0
 15 43  1  0
 16 44  1  0
 17 45  1  0
 20 46  1  0
 21 47  1  0
 23 48  1  0
 26 49  1  0
 27 50  1  0
M  END
>  <smiles>  (59) 
O=C(NCC(=O)N1CCCCC1c1ccccn1)c1ccc2cc(Cl)ccc2n1

>  <score_type>  (59) 
oracle

>  <origin>  (59) 
autodockgpu

>  <m_score__min__energy>  (59) 
-8.9399999999999995

>  <m_primary>  (59) 
energy

>  <rmsd>  (59) 
9.365716838944937

>  <m_score__min__rmsd>  (59) 
9.365716838944937

>  <meeko>  (59) 
{"free_energy": -6.98, "intermolecular_energy": -8.47, "internal_energy": -2.21, "cluster_size": 1, "cluster_id": 3, "rank_in_cluster": 1}

>  <energy>  (59) 
-8.71

>  <cluster_rmsd>  (59) 
0.66

>  <cluster>  (59) 
1

$$$$

     RDKit          3D

 50 53  0  0  0  0  0  0  0  0999 V2000
  140.3520   72.7720  220.7630 O   0  0  0  0  0  0  0  0  0  0  0  0
  139.9960   73.0520  221.9440 C   0  0  0  0  0  0  0  0  0  0  0  0
  139.5870   74.3670  222.2930 N   0  0  0  0  0  0  0  0  0  0  0  0
  139.5730   75.4090  221.2880 C   0  0  0  0  0  0  0  0  0  0  0  0
  140.8610   76.1330  221.2280 C   0  0  0  0  0  0  0  0  0  0  0  0
  141.9010   75.5240  220.8730 O   0  0  0  0  0  0  0  0  0  0  0  0
  140.8770   77.5110  221.5800 N   0  0  0  0  0  0  0  0  0  0  0  0
  141.1200   78.5480  220.5970 C   0  0  0  0  0  0  0  0  0  0  0  0
  141.5030   79.8510  221.2170 C   0  0  0  0  0  0  0  0  0  0  0  0
  142.2910   79.7570  222.4790 C   0  0  0  0  0  0  0  0  0  0  0  0
  141.8810   78.6440  223.4040 C   0  0  0  0  0  0  0  0  0  0  0  0
  140.6470   77.9240  222.9730 C   0  0  1  0  0  0  0  0  0  0  0  0
  139.4600   78.7690  223.0980 C   0  0  0  0  0  0  0  0  0  0  0  0
  138.2380   78.5200  222.5160 C   0  0  0  0  0  0  0  0  0  0  0  0
  137.1420   79.3450  222.6600 C   0  0  0  0  0  0  0  0  0  0  0  0
  137.2680   80.4850  223.4280 C   0  0  0  0  0  0  0  0  0  0  0  0
  138.5030   80.7130  224.0000 C   0  0  0  0  0  0  0  0  0  0  0  0
  139.5560   79.8910  223.8430 N   0  0  0  0  0  0  0  0  0  0  0  0
  140.0060   72.0050  222.9750 C   0  0  0  0  0  0  0  0  0  0  0  0
  139.5040   70.7530  222.6770 C   0  0  0  0  0  0  0  0  0  0  0  0
  139.5210   69.7700  223.6730 C   0  0  0  0  0  0  0  0  0  0  0  0
  140.0320   70.0440  224.9370 C   0  0  0  0  0  0  0  0  0  0  0  0
  140.0730   69.1190  225.9480 C   0  0  0  0  0  0  0  0  0  0  0  0
  140.5940   69.4580  227.1820 C   0  0  0  0  0  0  0  0  0  0  0  0
  140.6640   68.2970  228.5080 Cl  0  0  0  0  0  0  0  0  0  0  0  0
  141.0780   70.7260  227.4070 C   0  0  0  0  0  0  0  0  0  0  0  0
  141.0340   71.6540  226.3850 C   0  0  0  0  0  0  0  0  0  0  0  0
  140.5140   71.3180  225.1540 C   0  0  0  0  0  0  0  0  0  0  0  0
  140.5000   72.2670  224.2020 N   0  0  0  0  0  0  0  0  0  0  0  0
  139.3030   74.5400  223.2870 H   0  0  0  0  0  0  0  0  0  0  0  0
  139.3745   74.9540  220.3064 H   0  0  0  0  0  0  0  0  0  0  0  0
  138.7876   76.1311  221.5558 H   0  0  0  0  0  0  0  0  0  0  0  0
  141.9346   78.2207  219.9342 H   0  0  0  0  0  0  0  0  0  0  0  0
  140.1833   78.7064  220.0425 H   0  0  0  0  0  0  0  0  0  0  0  0
  142.1028   80.4110  220.4844 H   0  0  0  0  0  0  0  0  0  0  0  0
  140.5580   80.3444  221.4884 H   0  0  0  0  0  0  0  0  0  0  0  0
  143.3472   79.6063  222.2112 H   0  0  0  0  0  0  0  0  0  0  0  0
  142.1080   80.6938  223.0258 H   0  0  0  0  0  0  0  0  0  0  0  0
  142.7050   77.9173  223.4583 H   0  0  0  0  0  0  0  0  0  0  0  0
  141.6589   79.1037  224.3784 H   0  0  0  0  0  0  0  0  0  0  0  0
  140.4549   77.0511  223.6142 H   0  0  0  0  0  0  0  0  0  0  0  0
  138.1294   77.6135  221.9024 H   0  0  0  0  0  0  0  0  0  0  0  0
  136.1869   79.0994  222.1727 H   0  0  0  0  0  0  0  0  0  0  0  0
  136.4261   81.1772  223.5766 H   0  0  0  0  0  0  0  0  0  0  0  0
  138.6331   81.6144  224.6168 H   0  0  0  0  0  0  0  0  0  0  0  0
  139.0995   70.5333  221.6780 H   0  0  0  0  0  0  0  0  0  0  0  0
  139.1250   68.7676  223.4532 H   0  0  0  0  0  0  0  0  0  0  0  0
  139.6894   68.1025  225.7760 H   0  0  0  0  0  0  0  0  0  0  0  0
  141.4947   70.9973  228.3882 H   0  0  0  0  0  0  0  0  0  0  0  0
  141.4176   72.6708  226.5553 H   0  0  0  0  0  0  0  0  0  0  0  0
  1  2  2  0
  2  3  1  0
  3  4  1  0
  4  5  1  0
  5  6  2  0
  5  7  1  0
  7  8  1  0
  8  9  1  0
  9 10  1  0
 10 11  1  0
 11 12  1  0
 12 13  1  0
 13 14  2  0
 14 15  1  0
 15 16  2  0
 16 17  1  0
 17 18  2  0
  2 19  1  0
 19 20  2  0
 20 21  1  0
 21 22  2  0
 22 23  1  0
 23 24  2  0
 24 25  1  0
 24 26  1  0
 26 27  2  0
 27 28  1  0
 28 29  2  0
 12  7  1  0
 18 13  1  0
 29 19  1  0
 28 22  1  0
  3 30  1  0
  4 31  1  0
  4 32  1  0
  8 33  1  0
  8 34  1  0
  9 35  1  0
  9 36  1  0
 10 37  1  0
 10 38  1  0
 11 39  1  0
 11 40  1  0
 12 41  1  1
 14 42  1  0
 15 43  1  0
 16 44  1  0
 17 45  1  0
 20 46  1  0
 21 47  1  0
 23 48  1  0
 26 49  1  0
 27 50  1  0
M  END
>  <smiles>  (60) 
O=C(NCC(=O)N1CCCCC1c1ccccn1)c1ccc2cc(Cl)ccc2n1

>  <score_type>  (60) 
oracle

>  <origin>  (60) 
autodockgpu

>  <m_score__min__energy>  (60) 
-8.9399999999999995

>  <m_primary>  (60) 
energy

>  <rmsd>  (60) 
3.548824269395116

>  <m_score__min__rmsd>  (60) 
3.548824269395116

>  <meeko>  (60) 
{"free_energy": -8.57, "intermolecular_energy": -10.06, "internal_energy": -1.53, "cluster_size": 40, "cluster_id": 1, "rank_in_cluster": 22}

>  <energy>  (60) 
-8.68

>  <cluster_rmsd>  (60) 
1.07

>  <cluster>  (60) 
1

$$$$

     RDKit          3D

 50 53  0  0  0  0  0  0  0  0999 V2000
  140.7040   73.4200  220.7930 O   0  0  0  0  0  0  0  0  0  0  0  0
  139.8780   73.4360  221.7510 C   0  0  0  0  0  0  0  0  0  0  0  0
  139.0150   74.5470  221.9540 N   0  0  0  0  0  0  0  0  0  0  0  0
  139.0730   75.6800  221.0550 C   0  0  0  0  0  0  0  0  0  0  0  0
  138.9640   76.9630  221.7820 C   0  0  0  0  0  0  0  0  0  0  0  0
  138.1640   77.0670  222.7460 O   0  0  0  0  0  0  0  0  0  0  0  0
  139.7790   78.0500  221.3580 N   0  0  0  0  0  0  0  0  0  0  0  0
  139.2210   79.2060  220.6850 C   0  0  0  0  0  0  0  0  0  0  0  0
  140.2560   80.0110  219.9720 C   0  0  0  0  0  0  0  0  0  0  0  0
  141.3950   79.2370  219.4030 C   0  0  0  0  0  0  0  0  0  0  0  0
  141.8740   78.0910  220.2510 C   0  0  0  0  0  0  0  0  0  0  0  0
  141.2300   78.0260  221.5960 C   0  0  1  0  0  0  0  0  0  0  0  0
  141.6580   79.1320  222.4510 C   0  0  0  0  0  0  0  0  0  0  0  0
  142.9630   79.4660  222.7310 C   0  0  0  0  0  0  0  0  0  0  0  0
  143.3230   80.5200  223.5450 C   0  0  0  0  0  0  0  0  0  0  0  0
  142.3270   81.2870  224.1140 C   0  0  0  0  0  0  0  0  0  0  0  0
  141.0270   80.9330  223.8190 C   0  0  0  0  0  0  0  0  0  0  0  0
  140.7040   79.8990  223.0210 N   0  0  0  0  0  0  0  0  0  0  0  0
  139.8070   72.2940  222.6710 C   0  0  0  0  0  0  0  0  0  0  0  0
  138.8900   71.2860  222.4350 C   0  0  0  0  0  0  0  0  0  0  0  0
  138.8380   70.2070  223.3250 C   0  0  0  0  0  0  0  0  0  0  0  0
  139.6880   70.1460  224.4230 C   0  0  0  0  0  0  0  0  0  0  0  0
  139.6790   69.1130  225.3240 C   0  0  0  0  0  0  0  0  0  0  0  0
  140.5510   69.1140  226.3960 C   0  0  0  0  0  0  0  0  0  0  0  0
  140.5700   67.8040  227.5770 Cl  0  0  0  0  0  0  0  0  0  0  0  0
  141.4380   70.1520  226.5670 C   0  0  0  0  0  0  0  0  0  0  0  0
  141.4430   71.1900  225.6570 C   0  0  0  0  0  0  0  0  0  0  0  0
  140.5730   71.1900  224.5880 C   0  0  0  0  0  0  0  0  0  0  0  0
  140.6290   72.2300  223.7380 N   0  0  0  0  0  0  0  0  0  0  0  0
  138.3510   74.5050  222.7640 H   0  0  0  0  0  0  0  0  0  0  0  0
  140.0307   75.6571  220.5144 H   0  0  0  0  0  0  0  0  0  0  0  0
  138.2246   75.6081  220.3586 H   0  0  0  0  0  0  0  0  0  0  0  0
  138.4763   78.8615  219.9523 H   0  0  0  0  0  0  0  0  0  0  0  0
  138.7677   79.8511  221.4521 H   0  0  0  0  0  0  0  0  0  0  0  0
  139.7614   80.5421  219.1454 H   0  0  0  0  0  0  0  0  0  0  0  0
  140.6939   80.6770  220.7301 H   0  0  0  0  0  0  0  0  0  0  0  0
  141.0798   78.8325  218.4299 H   0  0  0  0  0  0  0  0  0  0  0  0
  142.2384   79.9397  219.3327 H   0  0  0  0  0  0  0  0  0  0  0  0
  141.6602   77.1525  219.7185 H   0  0  0  0  0  0  0  0  0  0  0  0
  142.9503   78.2445  220.4184 H   0  0  0  0  0  0  0  0  0  0  0  0
  141.5241   77.1114  222.1317 H   0  0  0  0  0  0  0  0  0  0  0  0
  143.7629   78.8595  222.2813 H   0  0  0  0  0  0  0  0  0  0  0  0
  144.3827   80.7445  223.7366 H   0  0  0  0  0  0  0  0  0  0  0  0
  142.5584   82.1388  224.7705 H   0  0  0  0  0  0  0  0  0  0  0  0
  140.2121   81.5267  224.2589 H   0  0  0  0  0  0  0  0  0  0  0  0
  138.2162   71.3313  221.5667 H   0  0  0  0  0  0  0  0  0  0  0  0
  138.1146   69.3963  223.1531 H   0  0  0  0  0  0  0  0  0  0  0  0
  138.9740   68.2789  225.1930 H   0  0  0  0  0  0  0  0  0  0  0  0
  142.1345   70.1546  227.4184 H   0  0  0  0  0  0  0  0  0  0  0  0
  142.1477   72.0247  225.7862 H   0  0  0  0  0  0  0  0  0  0  0  0
  1  2  2  0
  2  3  1  0
  3  4  1  0
  4  5  1  0
  5  6  2  0
  5  7  1  0
  7  8  1  0
  8  9  1  0
  9 10  1  0
 10 11  1  0
 11 12  1  0
 12 13  1  0
 13 14  2  0
 14 15  1  0
 15 16  2  0
 16 17  1  0
 17 18  2  0
  2 19  1  0
 19 20  2  0
 20 21  1  0
 21 22  2  0
 22 23  1  0
 23 24  2  0
 24 25  1  0
 24 26  1  0
 26 27  2  0
 27 28  1  0
 28 29  2  0
 12  7  1  0
 18 13  1  0
 29 19  1  0
 28 22  1  0
  3 30  1  0
  4 31  1  0
  4 32  1  0
  8 33  1  0
  8 34  1  0
  9 35  1  0
  9 36  1  0
 10 37  1  0
 10 38  1  0
 11 39  1  0
 11 40  1  0
 12 41  1  1
 14 42  1  0
 15 43  1  0
 16 44  1  0
 17 45  1  0
 20 46  1  0
 21 47  1  0
 23 48  1  0
 26 49  1  0
 27 50  1  0
M  END
>  <smiles>  (61) 
O=C(NCC(=O)N1CCCCC1c1ccccn1)c1ccc2cc(Cl)ccc2n1

>  <score_type>  (61) 
oracle

>  <origin>  (61) 
autodockgpu

>  <m_score__min__energy>  (61) 
-8.9399999999999995

>  <m_primary>  (61) 
energy

>  <rmsd>  (61) 
3.0507163844645815

>  <m_score__min__rmsd>  (61) 
3.0507163844645815

>  <meeko>  (61) 
{"free_energy": -8.38, "intermolecular_energy": -9.87, "internal_energy": -1.51, "cluster_size": 40, "cluster_id": 1, "rank_in_cluster": 30}

>  <energy>  (61) 
-8.66

>  <cluster_rmsd>  (61) 
1.09

>  <cluster>  (61) 
1

$$$$

     RDKit          3D

 50 53  0  0  0  0  0  0  0  0999 V2000
  139.4900   72.0990  220.7900 O   0  0  0  0  0  0  0  0  0  0  0  0
  139.5660   72.4930  221.9900 C   0  0  0  0  0  0  0  0  0  0  0  0
  139.4980   73.8750  222.3110 N   0  0  0  0  0  0  0  0  0  0  0  0
  139.3360   74.8550  221.2580 C   0  0  0  0  0  0  0  0  0  0  0  0
  140.5970   75.5750  220.9790 C   0  0  0  0  0  0  0  0  0  0  0  0
  141.6750   74.9340  220.8970 O   0  0  0  0  0  0  0  0  0  0  0  0
  140.5450   76.9860  220.8110 N   0  0  0  0  0  0  0  0  0  0  0  0
  139.2870   77.6920  220.6620 C   0  0  0  0  0  0  0  0  0  0  0  0
  139.4600   79.0620  220.0950 C   0  0  0  0  0  0  0  0  0  0  0  0
  140.5760   79.2200  219.1200 C   0  0  0  0  0  0  0  0  0  0  0  0
  141.8220   78.4440  219.4470 C   0  0  0  0  0  0  0  0  0  0  0  0
  141.7850   77.7770  220.7820 C   0  0  1  0  0  0  0  0  0  0  0  0
  141.8330   78.7500  221.8710 C   0  0  0  0  0  0  0  0  0  0  0  0
  141.5430   78.4860  223.1900 C   0  0  0  0  0  0  0  0  0  0  0  0
  141.6000   79.4360  224.1890 C   0  0  0  0  0  0  0  0  0  0  0  0
  141.9680   80.7250  223.8570 C   0  0  0  0  0  0  0  0  0  0  0  0
  142.2530   80.9640  222.5290 C   0  0  0  0  0  0  0  0  0  0  0  0
  142.1890   80.0190  221.5740 N   0  0  0  0  0  0  0  0  0  0  0  0
  139.7310   71.5110  223.0700 C   0  0  0  0  0  0  0  0  0  0  0  0
  139.3620   70.1970  222.8560 C   0  0  0  0  0  0  0  0  0  0  0  0
  139.5260   69.2770  223.8990 C   0  0  0  0  0  0  0  0  0  0  0  0
  140.0480   69.6740  225.1240 C   0  0  0  0  0  0  0  0  0  0  0  0
  140.2300   68.8150  226.1770 C   0  0  0  0  0  0  0  0  0  0  0  0
  140.7550   69.2750  227.3700 C   0  0  0  0  0  0  0  0  0  0  0  0
  141.0040   68.2020  228.7480 Cl  0  0  0  0  0  0  0  0  0  0  0  0
  141.1010   70.6000  227.5100 C   0  0  0  0  0  0  0  0  0  0  0  0
  140.9160   71.4600  226.4460 C   0  0  0  0  0  0  0  0  0  0  0  0
  140.3920   71.0020  225.2570 C   0  0  0  0  0  0  0  0  0  0  0  0
  140.2380   71.8920  224.2600 N   0  0  0  0  0  0  0  0  0  0  0  0
  139.5670   74.1430  223.3220 H   0  0  0  0  0  0  0  0  0  0  0  0
  139.0086   74.3421  220.3416 H   0  0  0  0  0  0  0  0  0  0  0  0
  138.5880   75.5909  221.5880 H   0  0  0  0  0  0  0  0  0  0  0  0
  138.6356   77.1129  219.9910 H   0  0  0  0  0  0  0  0  0  0  0  0
  138.8454   77.7998  221.6637 H   0  0  0  0  0  0  0  0  0  0  0  0
  138.5247   79.3381  219.5862 H   0  0  0  0  0  0  0  0  0  0  0  0
  139.7114   79.7105  220.9472 H   0  0  0  0  0  0  0  0  0  0  0  0
  140.2170   78.8891  218.1343 H   0  0  0  0  0  0  0  0  0  0  0  0
  140.8599   80.2824  219.1481 H   0  0  0  0  0  0  0  0  0  0  0  0
  141.9608   77.6708  218.6770 H   0  0  0  0  0  0  0  0  0  0  0  0
  142.6510   79.1665  219.4734 H   0  0  0  0  0  0  0  0  0  0  0  0
  142.6648   77.1328  220.9268 H   0  0  0  0  0  0  0  0  0  0  0  0
  141.2497   77.4615  223.4629 H   0  0  0  0  0  0  0  0  0  0  0  0
  141.3572   79.1720  225.2289 H   0  0  0  0  0  0  0  0  0  0  0  0
  142.0306   81.5210  224.6136 H   0  0  0  0  0  0  0  0  0  0  0  0
  142.5485   81.9820  222.2350 H   0  0  0  0  0  0  0  0  0  0  0  0
  138.9483   69.8802  221.8872 H   0  0  0  0  0  0  0  0  0  0  0  0
  139.2378   68.2264  223.7465 H   0  0  0  0  0  0  0  0  0  0  0  0
  139.9569   67.7546  226.0719 H   0  0  0  0  0  0  0  0  0  0  0  0
  141.5197   70.9690  228.4579 H   0  0  0  0  0  0  0  0  0  0  0  0
  141.1895   72.5205  226.5485 H   0  0  0  0  0  0  0  0  0  0  0  0
  1  2  2  0
  2  3  1  0
  3  4  1  0
  4  5  1  0
  5  6  2  0
  5  7  1  0
  7  8  1  0
  8  9  1  0
  9 10  1  0
 10 11  1  0
 11 12  1  0
 12 13  1  0
 13 14  2  0
 14 15  1  0
 15 16  2  0
 16 17  1  0
 17 18  2  0
  2 19  1  0
 19 20  2  0
 20 21  1  0
 21 22  2  0
 22 23  1  0
 23 24  2  0
 24 25  1  0
 24 26  1  0
 26 27  2  0
 27 28  1  0
 28 29  2  0
 12  7  1  0
 18 13  1  0
 29 19  1  0
 28 22  1  0
  3 30  1  0
  4 31  1  0
  4 32  1  0
  8 33  1  0
  8 34  1  0
  9 35  1  0
  9 36  1  0
 10 37  1  0
 10 38  1  0
 11 39  1  0
 11 40  1  0
 12 41  1  1
 14 42  1  0
 15 43  1  0
 16 44  1  0
 17 45  1  0
 20 46  1  0
 21 47  1  0
 23 48  1  0
 26 49  1  0
 27 50  1  0
M  END
>  <smiles>  (62) 
O=C(NCC(=O)N1CCCCC1c1ccccn1)c1ccc2cc(Cl)ccc2n1

>  <score_type>  (62) 
oracle

>  <origin>  (62) 
autodockgpu

>  <m_score__min__energy>  (62) 
-8.9399999999999995

>  <m_primary>  (62) 
energy

>  <rmsd>  (62) 
2.6177683203166913

>  <m_score__min__rmsd>  (62) 
2.6177683203166913

>  <meeko>  (62) 
{"free_energy": -8.51, "intermolecular_energy": -10.01, "internal_energy": -1.61, "cluster_size": 40, "cluster_id": 1, "rank_in_cluster": 28}

>  <energy>  (62) 
-8.64

>  <cluster_rmsd>  (62) 
0.68

>  <cluster>  (62) 
1

$$$$

     RDKit          3D

 50 53  0  0  0  0  0  0  0  0999 V2000
  141.0300   73.3140  221.8360 O   0  0  0  0  0  0  0  0  0  0  0  0
  139.9700   73.0040  222.4520 C   0  0  0  0  0  0  0  0  0  0  0  0
  138.7470   73.6760  222.1870 N   0  0  0  0  0  0  0  0  0  0  0  0
  138.7030   74.7320  221.1970 C   0  0  0  0  0  0  0  0  0  0  0  0
  138.6560   76.0700  221.8230 C   0  0  0  0  0  0  0  0  0  0  0  0
  137.8560   76.2890  222.7670 O   0  0  0  0  0  0  0  0  0  0  0  0
  139.5310   77.0770  221.3280 N   0  0  0  0  0  0  0  0  0  0  0  0
  139.0920   78.0610  220.3590 C   0  0  0  0  0  0  0  0  0  0  0  0
  140.2310   78.7420  219.6740 C   0  0  0  0  0  0  0  0  0  0  0  0
  141.4460   77.9070  219.4590 C   0  0  0  0  0  0  0  0  0  0  0  0
  141.7780   76.9640  220.5830 C   0  0  0  0  0  0  0  0  0  0  0  0
  140.9250   77.1440  221.7940 C   0  0  1  0  0  0  0  0  0  0  0  0
  141.2100   78.4090  222.4690 C   0  0  0  0  0  0  0  0  0  0  0  0
  142.4160   79.0710  222.4480 C   0  0  0  0  0  0  0  0  0  0  0  0
  142.6430   80.2640  223.1010 C   0  0  0  0  0  0  0  0  0  0  0  0
  141.6100   80.8340  223.8180 C   0  0  0  0  0  0  0  0  0  0  0  0
  140.4110   80.1520  223.8240 C   0  0  0  0  0  0  0  0  0  0  0  0
  140.2170   78.9880  223.1780 N   0  0  0  0  0  0  0  0  0  0  0  0
  139.9990   71.9350  223.4600 C   0  0  0  0  0  0  0  0  0  0  0  0
  139.5360   70.6760  223.1290 C   0  0  0  0  0  0  0  0  0  0  0  0
  139.5710   69.6720  224.1040 C   0  0  0  0  0  0  0  0  0  0  0  0
  140.0600   69.9320  225.3780 C   0  0  0  0  0  0  0  0  0  0  0  0
  140.1170   68.9870  226.3690 C   0  0  0  0  0  0  0  0  0  0  0  0
  140.6160   69.3120  227.6160 C   0  0  0  0  0  0  0  0  0  0  0  0
  140.7060   68.1240  228.9170 Cl  0  0  0  0  0  0  0  0  0  0  0  0
  141.0620   70.5880  227.8740 C   0  0  0  0  0  0  0  0  0  0  0  0
  141.0020   71.5370  226.8720 C   0  0  0  0  0  0  0  0  0  0  0  0
  140.5040   71.2130  225.6290 C   0  0  0  0  0  0  0  0  0  0  0  0
  140.4730   72.1830  224.6980 N   0  0  0  0  0  0  0  0  0  0  0  0
  137.9010   73.3770  222.7290 H   0  0  0  0  0  0  0  0  0  0  0  0
  139.6013   74.6657  220.5656 H   0  0  0  0  0  0  0  0  0  0  0  0
  137.7889   74.6021  220.5991 H   0  0  0  0  0  0  0  0  0  0  0  0
  138.4753   77.5571  219.6002 H   0  0  0  0  0  0  0  0  0  0  0  0
  138.5218   78.8300  220.9007 H   0  0  0  0  0  0  0  0  0  0  0  0
  139.8779   79.0850  218.6903 H   0  0  0  0  0  0  0  0  0  0  0  0
  140.5412   79.5569  220.3446 H   0  0  0  0  0  0  0  0  0  0  0  0
  141.2929   77.3106  218.5475 H   0  0  0  0  0  0  0  0  0  0  0  0
  142.2909   78.6076  219.3866 H   0  0  0  0  0  0  0  0  0  0  0  0
  141.6510   75.9335  220.2197 H   0  0  0  0  0  0  0  0  0  0  0  0
  142.8131   77.1798  220.8861 H   0  0  0  0  0  0  0  0  0  0  0  0
  141.1274   76.3614  222.5401 H   0  0  0  0  0  0  0  0  0  0  0  0
  143.2445   78.6240  221.8790 H   0  0  0  0  0  0  0  0  0  0  0  0
  143.6276   80.7519  223.0517 H   0  0  0  0  0  0  0  0  0  0  0  0
  141.7367   81.7843  224.3574 H   0  0  0  0  0  0  0  0  0  0  0  0
  139.5694   80.5825  224.3865 H   0  0  0  0  0  0  0  0  0  0  0  0
  139.1482   70.4670  222.1210 H   0  0  0  0  0  0  0  0  0  0  0  0
  139.2064   68.6637  223.8580 H   0  0  0  0  0  0  0  0  0  0  0  0
  139.7637   67.9643  226.1707 H   0  0  0  0  0  0  0  0  0  0  0  0
  141.4611   70.8489  228.8653 H   0  0  0  0  0  0  0  0  0  0  0  0
  141.3549   72.5602  227.0682 H   0  0  0  0  0  0  0  0  0  0  0  0
  1  2  2  0
  2  3  1  0
  3  4  1  0
  4  5  1  0
  5  6  2  0
  5  7  1  0
  7  8  1  0
  8  9  1  0
  9 10  1  0
 10 11  1  0
 11 12  1  0
 12 13  1  0
 13 14  2  0
 14 15  1  0
 15 16  2  0
 16 17  1  0
 17 18  2  0
  2 19  1  0
 19 20  2  0
 20 21  1  0
 21 22  2  0
 22 23  1  0
 23 24  2  0
 24 25  1  0
 24 26  1  0
 26 27  2  0
 27 28  1  0
 28 29  2  0
 12  7  1  0
 18 13  1  0
 29 19  1  0
 28 22  1  0
  3 30  1  0
  4 31  1  0
  4 32  1  0
  8 33  1  0
  8 34  1  0
  9 35  1  0
  9 36  1  0
 10 37  1  0
 10 38  1  0
 11 39  1  0
 11 40  1  0
 12 41  1  1
 14 42  1  0
 15 43  1  0
 16 44  1  0
 17 45  1  0
 20 46  1  0
 21 47  1  0
 23 48  1  0
 26 49  1  0
 27 50  1  0
M  END
>  <smiles>  (63) 
O=C(NCC(=O)N1CCCCC1c1ccccn1)c1ccc2cc(Cl)ccc2n1

>  <score_type>  (63) 
oracle

>  <origin>  (63) 
autodockgpu

>  <m_score__min__energy>  (63) 
-8.9399999999999995

>  <m_primary>  (63) 
energy

>  <rmsd>  (63) 
2.4831541254287015

>  <m_score__min__rmsd>  (63) 
2.4831541254287015

>  <meeko>  (63) 
{"free_energy": -8.72, "intermolecular_energy": -10.21, "internal_energy": -1.59, "cluster_size": 40, "cluster_id": 1, "rank_in_cluster": 8}

>  <energy>  (63) 
-8.64

>  <cluster_rmsd>  (63) 
0.69

>  <cluster>  (63) 
1

$$$$

     RDKit          3D

 50 53  0  0  0  0  0  0  0  0999 V2000
  140.8030   72.7270  220.8750 O   0  0  0  0  0  0  0  0  0  0  0  0
  140.1990   72.9780  221.9580 C   0  0  0  0  0  0  0  0  0  0  0  0
  139.5780   74.2370  222.1740 N   0  0  0  0  0  0  0  0  0  0  0  0
  139.6290   75.2540  221.1450 C   0  0  0  0  0  0  0  0  0  0  0  0
  138.9950   76.5140  221.5860 C   0  0  0  0  0  0  0  0  0  0  0  0
  137.7460   76.5740  221.7070 O   0  0  0  0  0  0  0  0  0  0  0  0
  139.8330   77.6310  221.8610 N   0  0  0  0  0  0  0  0  0  0  0  0
  141.0540   77.4980  222.6310 C   0  0  0  0  0  0  0  0  0  0  0  0
  141.5520   78.8070  223.1500 C   0  0  0  0  0  0  0  0  0  0  0  0
  140.5010   79.8040  223.4990 C   0  0  0  0  0  0  0  0  0  0  0  0
  139.3170   79.8320  222.5710 C   0  0  0  0  0  0  0  0  0  0  0  0
  139.4740   78.9680  221.3650 C   0  0  1  0  0  0  0  0  0  0  0  0
  140.4870   79.4970  220.4530 C   0  0  0  0  0  0  0  0  0  0  0  0
  140.8020   80.8270  220.2960 C   0  0  0  0  0  0  0  0  0  0  0  0
  141.7670   81.2850  219.4220 C   0  0  0  0  0  0  0  0  0  0  0  0
  142.4590   80.3660  218.6600 C   0  0  0  0  0  0  0  0  0  0  0  0
  142.1250   79.0390  218.8350 C   0  0  0  0  0  0  0  0  0  0  0  0
  141.1790   78.6200  219.6950 N   0  0  0  0  0  0  0  0  0  0  0  0
  140.1390   71.9570  223.0120 C   0  0  0  0  0  0  0  0  0  0  0  0
  139.5910   70.7200  222.7300 C   0  0  0  0  0  0  0  0  0  0  0  0
  139.5420   69.7610  223.7490 C   0  0  0  0  0  0  0  0  0  0  0  0
  140.0330   70.0430  225.0180 C   0  0  0  0  0  0  0  0  0  0  0  0
  140.0100   69.1420  226.0500 C   0  0  0  0  0  0  0  0  0  0  0  0
  140.5160   69.4870  227.2890 C   0  0  0  0  0  0  0  0  0  0  0  0
  140.5040   68.3550  228.6430 Cl  0  0  0  0  0  0  0  0  0  0  0  0
  141.0480   70.7390  227.4970 C   0  0  0  0  0  0  0  0  0  0  0  0
  141.0690   71.6430  226.4540 C   0  0  0  0  0  0  0  0  0  0  0  0
  140.5650   71.3000  225.2180 C   0  0  0  0  0  0  0  0  0  0  0  0
  140.6150   72.2260  224.2450 N   0  0  0  0  0  0  0  0  0  0  0  0
  139.0930   74.3890  223.0910 H   0  0  0  0  0  0  0  0  0  0  0  0
  140.6811   75.4538  220.8939 H   0  0  0  0  0  0  0  0  0  0  0  0
  139.0770   74.8820  220.2693 H   0  0  0  0  0  0  0  0  0  0  0  0
  140.8613   76.8311  223.4843 H   0  0  0  0  0  0  0  0  0  0  0  0
  141.8262   77.0894  221.9626 H   0  0  0  0  0  0  0  0  0  0  0  0
  142.1441   78.6087  224.0555 H   0  0  0  0  0  0  0  0  0  0  0  0
  142.1307   79.2553  222.3289 H   0  0  0  0  0  0  0  0  0  0  0  0
  140.1359   79.5747  224.5110 H   0  0  0  0  0  0  0  0  0  0  0  0
  140.9769   80.7925  223.4196 H   0  0  0  0  0  0  0  0  0  0  0  0
  138.4319   79.4914  223.1283 H   0  0  0  0  0  0  0  0  0  0  0  0
  139.2172   80.8669  222.2117 H   0  0  0  0  0  0  0  0  0  0  0  0
  138.5427   78.9324  220.7806 H   0  0  0  0  0  0  0  0  0  0  0  0
  140.2549   81.5657  220.9001 H   0  0  0  0  0  0  0  0  0  0  0  0
  141.9801   82.3606  219.3346 H   0  0  0  0  0  0  0  0  0  0  0  0
  143.2383   80.6761  217.9483 H   0  0  0  0  0  0  0  0  0  0  0  0
  142.6601   78.2840  218.2403 H   0  0  0  0  0  0  0  0  0  0  0  0
  139.2016   70.4937  221.7264 H   0  0  0  0  0  0  0  0  0  0  0  0
  139.1091   68.7711  223.5422 H   0  0  0  0  0  0  0  0  0  0  0  0
  139.5867   68.1391  225.8916 H   0  0  0  0  0  0  0  0  0  0  0  0
  141.4515   71.0159  228.4821 H   0  0  0  0  0  0  0  0  0  0  0  0
  141.4919   72.6463  226.6108 H   0  0  0  0  0  0  0  0  0  0  0  0
  1  2  2  0
  2  3  1  0
  3  4  1  0
  4  5  1  0
  5  6  2  0
  5  7  1  0
  7  8  1  0
  8  9  1  0
  9 10  1  0
 10 11  1  0
 11 12  1  0
 12 13  1  0
 13 14  2  0
 14 15  1  0
 15 16  2  0
 16 17  1  0
 17 18  2  0
  2 19  1  0
 19 20  2  0
 20 21  1  0
 21 22  2  0
 22 23  1  0
 23 24  2  0
 24 25  1  0
 24 26  1  0
 26 27  2  0
 27 28  1  0
 28 29  2  0
 12  7  1  0
 18 13  1  0
 29 19  1  0
 28 22  1  0
  3 30  1  0
  4 31  1  0
  4 32  1  0
  8 33  1  0
  8 34  1  0
  9 35  1  0
  9 36  1  0
 10 37  1  0
 10 38  1  0
 11 39  1  0
 11 40  1  0
 12 41  1  6
 14 42  1  0
 15 43  1  0
 16 44  1  0
 17 45  1  0
 20 46  1  0
 21 47  1  0
 23 48  1  0
 26 49  1  0
 27 50  1  0
M  END
>  <smiles>  (64) 
O=C(NCC(=O)N1CCCCC1c1ccccn1)c1ccc2cc(Cl)ccc2n1

>  <score_type>  (64) 
oracle

>  <origin>  (64) 
autodockgpu

>  <m_score__min__energy>  (64) 
-8.9399999999999995

>  <m_primary>  (64) 
energy

>  <rmsd>  (64) 
3.449315312105845

>  <m_score__min__rmsd>  (64) 
3.449315312105845

>  <meeko>  (64) 
{"free_energy": -8.15, "intermolecular_energy": -9.65, "internal_energy": -1.52, "cluster_size": 40, "cluster_id": 1, "rank_in_cluster": 34}

>  <energy>  (64) 
-8.63

>  <cluster_rmsd>  (64) 
0.72

>  <cluster>  (64) 
1

$$$$

     RDKit          3D

 50 53  0  0  0  0  0  0  0  0999 V2000
  140.7570   72.7350  221.1840 O   0  0  0  0  0  0  0  0  0  0  0  0
  139.9530   72.8020  222.1570 C   0  0  0  0  0  0  0  0  0  0  0  0
  139.0170   73.8660  222.2610 N   0  0  0  0  0  0  0  0  0  0  0  0
  138.9740   74.8930  221.2420 C   0  0  0  0  0  0  0  0  0  0  0  0
  140.0700   75.8720  221.4030 C   0  0  0  0  0  0  0  0  0  0  0  0
  141.2620   75.5030  221.2520 O   0  0  0  0  0  0  0  0  0  0  0  0
  139.7320   77.2150  221.7280 N   0  0  0  0  0  0  0  0  0  0  0  0
  138.7250   77.5310  222.7210 C   0  0  0  0  0  0  0  0  0  0  0  0
  138.2340   78.9370  222.6170 C   0  0  0  0  0  0  0  0  0  0  0  0
  138.1920   79.5030  221.2390 C   0  0  0  0  0  0  0  0  0  0  0  0
  139.3360   79.1020  220.3500 C   0  0  0  0  0  0  0  0  0  0  0  0
  140.4060   78.3340  221.0520 C   0  0  1  0  0  0  0  0  0  0  0  0
  141.1400   79.1750  221.9960 C   0  0  0  0  0  0  0  0  0  0  0  0
  141.5030   80.4850  221.7830 C   0  0  0  0  0  0  0  0  0  0  0  0
  142.1960   81.2440  222.7030 C   0  0  0  0  0  0  0  0  0  0  0  0
  142.5500   80.6660  223.9060 C   0  0  0  0  0  0  0  0  0  0  0  0
  142.1760   79.3520  224.0960 C   0  0  0  0  0  0  0  0  0  0  0  0
  141.4990   78.6350  223.1810 N   0  0  0  0  0  0  0  0  0  0  0  0
  139.9840   71.7670  223.2000 C   0  0  0  0  0  0  0  0  0  0  0  0
  139.5190   70.4980  222.9130 C   0  0  0  0  0  0  0  0  0  0  0  0
  139.5560   69.5280  223.9210 C   0  0  0  0  0  0  0  0  0  0  0  0
  140.0500   69.8300  225.1850 C   0  0  0  0  0  0  0  0  0  0  0  0
  140.1090   68.9180  226.2060 C   0  0  0  0  0  0  0  0  0  0  0  0
  140.6120   69.2850  227.4400 C   0  0  0  0  0  0  0  0  0  0  0  0
  140.7050   68.1410  228.7800 Cl  0  0  0  0  0  0  0  0  0  0  0  0
  141.0590   70.5680  227.6540 C   0  0  0  0  0  0  0  0  0  0  0  0
  140.9970   71.4830  226.6210 C   0  0  0  0  0  0  0  0  0  0  0  0
  140.4950   71.1180  225.3900 C   0  0  0  0  0  0  0  0  0  0  0  0
  140.4620   72.0560  224.4280 N   0  0  0  0  0  0  0  0  0  0  0  0
  138.3750   73.8690  223.0910 H   0  0  0  0  0  0  0  0  0  0  0  0
  139.0630   74.4181  220.2538 H   0  0  0  0  0  0  0  0  0  0  0  0
  138.0188   75.4301  221.3378 H   0  0  0  0  0  0  0  0  0  0  0  0
  137.8720   76.8496  222.5863 H   0  0  0  0  0  0  0  0  0  0  0  0
  139.1875   77.4132  223.7121 H   0  0  0  0  0  0  0  0  0  0  0  0
  137.2143   78.9709  223.0282 H   0  0  0  0  0  0  0  0  0  0  0  0
  138.9578   79.5509  223.1731 H   0  0  0  0  0  0  0  0  0  0  0  0
  137.2577   79.1712  220.7626 H   0  0  0  0  0  0  0  0  0  0  0  0
  138.2613   80.5948  221.3539 H   0  0  0  0  0  0  0  0  0  0  0  0
  138.9395   78.4783  219.5353 H   0  0  0  0  0  0  0  0  0  0  0  0
  139.7972   80.0311  219.9839 H   0  0  0  0  0  0  0  0  0  0  0  0
  141.1599   77.9654  220.3408 H   0  0  0  0  0  0  0  0  0  0  0  0
  141.2254   80.9526  220.8268 H   0  0  0  0  0  0  0  0  0  0  0  0
  142.4612   82.2886  222.4828 H   0  0  0  0  0  0  0  0  0  0  0  0
  143.1029   81.2257  224.6748 H   0  0  0  0  0  0  0  0  0  0  0  0
  142.4453   78.8651  225.0449 H   0  0  0  0  0  0  0  0  0  0  0  0
  139.1282   70.2554  221.9138 H   0  0  0  0  0  0  0  0  0  0  0  0
  139.1892   68.5126  223.7104 H   0  0  0  0  0  0  0  0  0  0  0  0
  139.7546   67.8895  226.0429 H   0  0  0  0  0  0  0  0  0  0  0  0
  141.4607   70.8617  228.6350 H   0  0  0  0  0  0  0  0  0  0  0  0
  141.3513   72.5119  226.7820 H   0  0  0  0  0  0  0  0  0  0  0  0
  1  2  2  0
  2  3  1  0
  3  4  1  0
  4  5  1  0
  5  6  2  0
  5  7  1  0
  7  8  1  0
  8  9  1  0
  9 10  1  0
 10 11  1  0
 11 12  1  0
 12 13  1  0
 13 14  2  0
 14 15  1  0
 15 16  2  0
 16 17  1  0
 17 18  2  0
  2 19  1  0
 19 20  2  0
 20 21  1  0
 21 22  2  0
 22 23  1  0
 23 24  2  0
 24 25  1  0
 24 26  1  0
 26 27  2  0
 27 28  1  0
 28 29  2  0
 12  7  1  0
 18 13  1  0
 29 19  1  0
 28 22  1  0
  3 30  1  0
  4 31  1  0
  4 32  1  0
  8 33  1  0
  8 34  1  0
  9 35  1  0
  9 36  1  0
 10 37  1  0
 10 38  1  0
 11 39  1  0
 11 40  1  0
 12 41  1  6
 14 42  1  0
 15 43  1  0
 16 44  1  0
 17 45  1  0
 20 46  1  0
 21 47  1  0
 23 48  1  0
 26 49  1  0
 27 50  1  0
M  END
>  <smiles>  (65) 
O=C(NCC(=O)N1CCCCC1c1ccccn1)c1ccc2cc(Cl)ccc2n1

>  <score_type>  (65) 
oracle

>  <origin>  (65) 
autodockgpu

>  <m_score__min__energy>  (65) 
-8.9399999999999995

>  <m_primary>  (65) 
energy

>  <rmsd>  (65) 
2.842171459834834

>  <m_score__min__rmsd>  (65) 
2.842171459834834

>  <meeko>  (65) 
{"free_energy": -8.68, "intermolecular_energy": -10.17, "internal_energy": -1.41, "cluster_size": 40, "cluster_id": 1, "rank_in_cluster": 10}

>  <energy>  (65) 
-8.61

>  <cluster_rmsd>  (65) 
0.96

>  <cluster>  (65) 
1

$$$$

     RDKit          3D

 50 53  0  0  0  0  0  0  0  0999 V2000
  138.9330   72.0750  220.8700 O   0  0  0  0  0  0  0  0  0  0  0  0
  139.2190   72.4760  222.0360 C   0  0  0  0  0  0  0  0  0  0  0  0
  139.3150   73.8630  222.3280 N   0  0  0  0  0  0  0  0  0  0  0  0
  139.0820   74.8390  221.2860 C   0  0  0  0  0  0  0  0  0  0  0  0
  138.8710   76.1940  221.8390 C   0  0  0  0  0  0  0  0  0  0  0  0
  138.0030   76.3740  222.7290 O   0  0  0  0  0  0  0  0  0  0  0  0
  139.6680   77.2600  221.3360 N   0  0  0  0  0  0  0  0  0  0  0  0
  139.1340   78.2450  220.4170 C   0  0  0  0  0  0  0  0  0  0  0  0
  140.2030   79.0060  219.7040 C   0  0  0  0  0  0  0  0  0  0  0  0
  141.4490   78.2430  219.4100 C   0  0  0  0  0  0  0  0  0  0  0  0
  141.8810   77.2890  220.4900 C   0  0  0  0  0  0  0  0  0  0  0  0
  141.0760   77.3890  221.7420 C   0  0  1  0  0  0  0  0  0  0  0  0
  141.3240   78.6480  222.4420 C   0  0  0  0  0  0  0  0  0  0  0  0
  140.3980   79.3460  223.1830 C   0  0  0  0  0  0  0  0  0  0  0  0
  140.6750   80.5330  223.8290 C   0  0  0  0  0  0  0  0  0  0  0  0
  141.9480   81.0580  223.7320 C   0  0  0  0  0  0  0  0  0  0  0  0
  142.8580   80.3410  222.9830 C   0  0  0  0  0  0  0  0  0  0  0  0
  142.5620   79.1840  222.3640 N   0  0  0  0  0  0  0  0  0  0  0  0
  139.4580   71.4970  223.1050 C   0  0  0  0  0  0  0  0  0  0  0  0
  139.1020   70.1760  222.9090 C   0  0  0  0  0  0  0  0  0  0  0  0
  139.3370   69.2600  223.9410 C   0  0  0  0  0  0  0  0  0  0  0  0
  139.9160   69.6660  225.1370 C   0  0  0  0  0  0  0  0  0  0  0  0
  140.1680   68.8110  226.1790 C   0  0  0  0  0  0  0  0  0  0  0  0
  140.7460   69.2800  227.3430 C   0  0  0  0  0  0  0  0  0  0  0  0
  141.0860   68.2120  228.7050 Cl  0  0  0  0  0  0  0  0  0  0  0  0
  141.0750   70.6110  227.4670 C   0  0  0  0  0  0  0  0  0  0  0  0
  140.8180   71.4680  226.4150 C   0  0  0  0  0  0  0  0  0  0  0  0
  140.2420   71.0010  225.2540 C   0  0  0  0  0  0  0  0  0  0  0  0
  140.0190   71.8870  224.2680 N   0  0  0  0  0  0  0  0  0  0  0  0
  139.5540   74.1360  223.3120 H   0  0  0  0  0  0  0  0  0  0  0  0
  139.9544   74.8598  220.6163 H   0  0  0  0  0  0  0  0  0  0  0  0
  138.1720   74.5467  220.7415 H   0  0  0  0  0  0  0  0  0  0  0  0
  138.5116   77.7294  219.6709 H   0  0  0  0  0  0  0  0  0  0  0  0
  138.5486   78.9664  221.0059 H   0  0  0  0  0  0  0  0  0  0  0  0
  139.7879   79.3577  218.7480 H   0  0  0  0  0  0  0  0  0  0  0  0
  140.5002   79.8173  220.3848 H   0  0  0  0  0  0  0  0  0  0  0  0
  141.2852   77.6641  218.4891 H   0  0  0  0  0  0  0  0  0  0  0  0
  142.2521   78.9893  219.3203 H   0  0  0  0  0  0  0  0  0  0  0  0
  141.7923   76.2635  220.1021 H   0  0  0  0  0  0  0  0  0  0  0  0
  142.9159   77.5526  220.7538 H   0  0  0  0  0  0  0  0  0  0  0  0
  141.3535   76.5980  222.4543 H   0  0  0  0  0  0  0  0  0  0  0  0
  139.3810   78.9348  223.2647 H   0  0  0  0  0  0  0  0  0  0  0  0
  139.8973   81.0507  224.4096 H   0  0  0  0  0  0  0  0  0  0  0  0
  142.2231   82.0009  224.2272 H   0  0  0  0  0  0  0  0  0  0  0  0
  143.8800   80.7365  222.8869 H   0  0  0  0  0  0  0  0  0  0  0  0
  138.6441   69.8516  221.9629 H   0  0  0  0  0  0  0  0  0  0  0  0
  139.0596   68.2045  223.8033 H   0  0  0  0  0  0  0  0  0  0  0  0
  139.9086   67.7459  226.0877 H   0  0  0  0  0  0  0  0  0  0  0  0
  141.5366   70.9870  228.3920 H   0  0  0  0  0  0  0  0  0  0  0  0
  141.0757   72.5336  226.5050 H   0  0  0  0  0  0  0  0  0  0  0  0
  1  2  2  0
  2  3  1  0
  3  4  1  0
  4  5  1  0
  5  6  2  0
  5  7  1  0
  7  8  1  0
  8  9  1  0
  9 10  1  0
 10 11  1  0
 11 12  1  0
 12 13  1  0
 13 14  2  0
 14 15  1  0
 15 16  2  0
 16 17  1  0
 17 18  2  0
  2 19  1  0
 19 20  2  0
 20 21  1  0
 21 22  2  0
 22 23  1  0
 23 24  2  0
 24 25  1  0
 24 26  1  0
 26 27  2  0
 27 28  1  0
 28 29  2  0
 12  7  1  0
 18 13  1  0
 29 19  1  0
 28 22  1  0
  3 30  1  0
  4 31  1  0
  4 32  1  0
  8 33  1  0
  8 34  1  0
  9 35  1  0
  9 36  1  0
 10 37  1  0
 10 38  1  0
 11 39  1  0
 11 40  1  0
 12 41  1  1
 14 42  1  0
 15 43  1  0
 16 44  1  0
 17 45  1  0
 20 46  1  0
 21 47  1  0
 23 48  1  0
 26 49  1  0
 27 50  1  0
M  END
>  <smiles>  (66) 
O=C(NCC(=O)N1CCCCC1c1ccccn1)c1ccc2cc(Cl)ccc2n1

>  <score_type>  (66) 
oracle

>  <origin>  (66) 
autodockgpu

>  <m_score__min__energy>  (66) 
-8.9399999999999995

>  <m_primary>  (66) 
energy

>  <rmsd>  (66) 
2.5321364499354333

>  <m_score__min__rmsd>  (66) 
2.5321364499354333

>  <meeko>  (66) 
{"free_energy": -8.63, "intermolecular_energy": -10.13, "internal_energy": -1.7, "cluster_size": 40, "cluster_id": 1, "rank_in_cluster": 14}

>  <energy>  (66) 
-8.61

>  <cluster_rmsd>  (66) 
1.07

>  <cluster>  (66) 
1

$$$$

     RDKit          3D

 50 53  0  0  0  0  0  0  0  0999 V2000
  139.7560   72.2010  220.6640 O   0  0  0  0  0  0  0  0  0  0  0  0
  139.7210   72.6080  221.8610 C   0  0  0  0  0  0  0  0  0  0  0  0
  139.5960   73.9910  222.1590 N   0  0  0  0  0  0  0  0  0  0  0  0
  139.5040   74.9570  221.0840 C   0  0  0  0  0  0  0  0  0  0  0  0
  140.4760   76.0590  221.2520 C   0  0  0  0  0  0  0  0  0  0  0  0
  141.6960   75.8520  221.0300 O   0  0  0  0  0  0  0  0  0  0  0  0
  139.9890   77.3300  221.6640 N   0  0  0  0  0  0  0  0  0  0  0  0
  138.9960   77.4660  222.7110 C   0  0  0  0  0  0  0  0  0  0  0  0
  138.3310   78.8020  222.7040 C   0  0  0  0  0  0  0  0  0  0  0  0
  138.1580   79.4280  221.3630 C   0  0  0  0  0  0  0  0  0  0  0  0
  139.3020   79.2200  220.4100 C   0  0  0  0  0  0  0  0  0  0  0  0
  140.4890   78.5580  221.0270 C   0  0  1  0  0  0  0  0  0  0  0  0
  141.1540   79.4360  221.9880 C   0  0  0  0  0  0  0  0  0  0  0  0
  141.9720   79.0210  223.0140 C   0  0  0  0  0  0  0  0  0  0  0  0
  142.5820   79.8840  223.9010 C   0  0  0  0  0  0  0  0  0  0  0  0
  142.3650   81.2400  223.7600 C   0  0  0  0  0  0  0  0  0  0  0  0
  141.5410   81.6310  222.7250 C   0  0  0  0  0  0  0  0  0  0  0  0
  140.9590   80.7670  221.8740 N   0  0  0  0  0  0  0  0  0  0  0  0
  139.8130   71.6410  222.9630 C   0  0  0  0  0  0  0  0  0  0  0  0
  139.3630   70.3480  222.7720 C   0  0  0  0  0  0  0  0  0  0  0  0
  139.4580   69.4430  223.8350 C   0  0  0  0  0  0  0  0  0  0  0  0
  139.9930   69.8310  225.0570 C   0  0  0  0  0  0  0  0  0  0  0  0
  140.1100   68.9850  226.1290 C   0  0  0  0  0  0  0  0  0  0  0  0
  140.6520   69.4360  227.3180 C   0  0  0  0  0  0  0  0  0  0  0  0
  140.8190   68.3780  228.7200 Cl  0  0  0  0  0  0  0  0  0  0  0  0
  141.0810   70.7380  227.4350 C   0  0  0  0  0  0  0  0  0  0  0  0
  140.9610   71.5860  226.3520 C   0  0  0  0  0  0  0  0  0  0  0  0
  140.4200   71.1370  225.1670 C   0  0  0  0  0  0  0  0  0  0  0  0
  140.3310   72.0130  224.1510 N   0  0  0  0  0  0  0  0  0  0  0  0
  139.5720   74.2710  223.1690 H   0  0  0  0  0  0  0  0  0  0  0  0
  139.7041   74.4480  220.1296 H   0  0  0  0  0  0  0  0  0  0  0  0
  138.4921   75.3882  221.0971 H   0  0  0  0  0  0  0  0  0  0  0  0
  138.2287   76.6903  222.5712 H   0  0  0  0  0  0  0  0  0  0  0  0
  139.5133   77.3574  223.6757 H   0  0  0  0  0  0  0  0  0  0  0  0
  137.3342   78.6862  223.1546 H   0  0  0  0  0  0  0  0  0  0  0  0
  138.9977   79.4729  223.2655 H   0  0  0  0  0  0  0  0  0  0  0  0
  137.2514   79.0063  220.9044 H   0  0  0  0  0  0  0  0  0  0  0  0
  138.0971   80.5125  221.5366 H   0  0  0  0  0  0  0  0  0  0  0  0
  138.9498   78.5936  219.5772 H   0  0  0  0  0  0  0  0  0  0  0  0
  139.6280   80.2172  220.0792 H   0  0  0  0  0  0  0  0  0  0  0  0
  141.2507   78.3236  220.2688 H   0  0  0  0  0  0  0  0  0  0  0  0
  142.1492   77.9420  223.1335 H   0  0  0  0  0  0  0  0  0  0  0  0
  143.2280   79.4994  224.7040 H   0  0  0  0  0  0  0  0  0  0  0  0
  142.8262   81.9722  224.4391 H   0  0  0  0  0  0  0  0  0  0  0  0
  141.3499   82.7056  222.5885 H   0  0  0  0  0  0  0  0  0  0  0  0
  138.9395   70.0373  221.8055 H   0  0  0  0  0  0  0  0  0  0  0  0
  139.1042   68.4101  223.7012 H   0  0  0  0  0  0  0  0  0  0  0  0
  139.7710   67.9421  226.0428 H   0  0  0  0  0  0  0  0  0  0  0  0
  141.5142   71.0989  228.3795 H   0  0  0  0  0  0  0  0  0  0  0  0
  141.3002   72.6290  226.4359 H   0  0  0  0  0  0  0  0  0  0  0  0
  1  2  2  0
  2  3  1  0
  3  4  1  0
  4  5  1  0
  5  6  2  0
  5  7  1  0
  7  8  1  0
  8  9  1  0
  9 10  1  0
 10 11  1  0
 11 12  1  0
 12 13  1  0
 13 14  2  0
 14 15  1  0
 15 16  2  0
 16 17  1  0
 17 18  2  0
  2 19  1  0
 19 20  2  0
 20 21  1  0
 21 22  2  0
 22 23  1  0
 23 24  2  0
 24 25  1  0
 24 26  1  0
 26 27  2  0
 27 28  1  0
 28 29  2  0
 12  7  1  0
 18 13  1  0
 29 19  1  0
 28 22  1  0
  3 30  1  0
  4 31  1  0
  4 32  1  0
  8 33  1  0
  8 34  1  0
  9 35  1  0
  9 36  1  0
 10 37  1  0
 10 38  1  0
 11 39  1  0
 11 40  1  0
 12 41  1  6
 14 42  1  0
 15 43  1  0
 16 44  1  0
 17 45  1  0
 20 46  1  0
 21 47  1  0
 23 48  1  0
 26 49  1  0
 27 50  1  0
M  END
>  <smiles>  (67) 
O=C(NCC(=O)N1CCCCC1c1ccccn1)c1ccc2cc(Cl)ccc2n1

>  <score_type>  (67) 
oracle

>  <origin>  (67) 
autodockgpu

>  <m_score__min__energy>  (67) 
-8.9399999999999995

>  <m_primary>  (67) 
energy

>  <rmsd>  (67) 
3.1830311690844417

>  <m_score__min__rmsd>  (67) 
3.1830311690844417

>  <meeko>  (67) 
{"free_energy": -8.58, "intermolecular_energy": -10.07, "internal_energy": -1.57, "cluster_size": 40, "cluster_id": 1, "rank_in_cluster": 20}

>  <energy>  (67) 
-8.61

>  <cluster_rmsd>  (67) 
0.74

>  <cluster>  (67) 
1

$$$$

     RDKit          3D

 50 53  0  0  0  0  0  0  0  0999 V2000
  140.6120   72.2970  220.7900 O   0  0  0  0  0  0  0  0  0  0  0  0
  140.1390   72.6290  221.9150 C   0  0  0  0  0  0  0  0  0  0  0  0
  139.6380   73.9390  222.1400 N   0  0  0  0  0  0  0  0  0  0  0  0
  139.6610   74.9150  221.0720 C   0  0  0  0  0  0  0  0  0  0  0  0
  140.8180   75.8280  221.1870 C   0  0  0  0  0  0  0  0  0  0  0  0
  140.8890   76.6250  222.1550 O   0  0  0  0  0  0  0  0  0  0  0  0
  141.8250   75.7710  220.1830 N   0  0  0  0  0  0  0  0  0  0  0  0
  142.6190   76.9310  219.8310 C   0  0  0  0  0  0  0  0  0  0  0  0
  143.3030   76.7810  218.5120 C   0  0  0  0  0  0  0  0  0  0  0  0
  142.5640   75.9880  217.4900 C   0  0  0  0  0  0  0  0  0  0  0  0
  141.8220   74.7940  218.0240 C   0  0  0  0  0  0  0  0  0  0  0  0
  142.0870   74.5140  219.4660 C   0  0  1  0  0  0  0  0  0  0  0  0
  143.4540   74.0430  219.6800 C   0  0  0  0  0  0  0  0  0  0  0  0
  144.1620   74.1530  220.8550 C   0  0  0  0  0  0  0  0  0  0  0  0
  145.4530   73.6950  221.0140 C   0  0  0  0  0  0  0  0  0  0  0  0
  146.0780   73.0910  219.9420 C   0  0  0  0  0  0  0  0  0  0  0  0
  145.3500   72.9930  218.7750 C   0  0  0  0  0  0  0  0  0  0  0  0
  144.0900   73.4490  218.6470 N   0  0  0  0  0  0  0  0  0  0  0  0
  140.1090   71.6500  223.0100 C   0  0  0  0  0  0  0  0  0  0  0  0
  139.5860   70.3910  222.7820 C   0  0  0  0  0  0  0  0  0  0  0  0
  139.5650   69.4740  223.8390 C   0  0  0  0  0  0  0  0  0  0  0  0
  140.0590   69.8170  225.0920 C   0  0  0  0  0  0  0  0  0  0  0  0
  140.0630   68.9570  226.1600 C   0  0  0  0  0  0  0  0  0  0  0  0
  140.5700   69.3620  227.3800 C   0  0  0  0  0  0  0  0  0  0  0  0
  140.5930   68.2860  228.7780 Cl  0  0  0  0  0  0  0  0  0  0  0  0
  141.0770   70.6330  227.5330 C   0  0  0  0  0  0  0  0  0  0  0  0
  141.0700   71.4950  226.4540 C   0  0  0  0  0  0  0  0  0  0  0  0
  140.5650   71.0910  225.2370 C   0  0  0  0  0  0  0  0  0  0  0  0
  140.5880   71.9790  224.2270 N   0  0  0  0  0  0  0  0  0  0  0  0
  139.2580   74.1570  223.0930 H   0  0  0  0  0  0  0  0  0  0  0  0
  139.7184   74.3872  220.1086 H   0  0  0  0  0  0  0  0  0  0  0  0
  138.7427   75.5169  221.1392 H   0  0  0  0  0  0  0  0  0  0  0  0
  141.9587   77.8097  219.7873 H   0  0  0  0  0  0  0  0  0  0  0  0
  143.3983   77.0463  220.5988 H   0  0  0  0  0  0  0  0  0  0  0  0
  143.4720   77.7877  218.1020 H   0  0  0  0  0  0  0  0  0  0  0  0
  144.2285   76.2222  218.7149 H   0  0  0  0  0  0  0  0  0  0  0  0
  141.8349   76.6531  217.0042 H   0  0  0  0  0  0  0  0  0  0  0  0
  143.3241   75.5931  216.7998 H   0  0  0  0  0  0  0  0  0  0  0  0
  140.7437   74.9712  217.8978 H   0  0  0  0  0  0  0  0  0  0  0  0
  142.1746   73.9190  217.4582 H   0  0  0  0  0  0  0  0  0  0  0  0
  141.4379   73.7076  219.8380 H   0  0  0  0  0  0  0  0  0  0  0  0
  143.6711   74.6326  221.7146 H   0  0  0  0  0  0  0  0  0  0  0  0
  145.9742   73.8088  221.9760 H   0  0  0  0  0  0  0  0  0  0  0  0
  147.1061   72.7067  220.0149 H   0  0  0  0  0  0  0  0  0  0  0  0
  145.8235   72.5175  217.9034 H   0  0  0  0  0  0  0  0  0  0  0  0
  139.1948   70.1158  221.7914 H   0  0  0  0  0  0  0  0  0  0  0  0
  139.1517   68.4677  223.6758 H   0  0  0  0  0  0  0  0  0  0  0  0
  139.6606   67.9397  226.0450 H   0  0  0  0  0  0  0  0  0  0  0  0
  141.4825   70.9578  228.5026 H   0  0  0  0  0  0  0  0  0  0  0  0
  141.4711   72.5130  226.5669 H   0  0  0  0  0  0  0  0  0  0  0  0
  1  2  2  0
  2  3  1  0
  3  4  1  0
  4  5  1  0
  5  6  2  0
  5  7  1  0
  7  8  1  0
  8  9  1  0
  9 10  1  0
 10 11  1  0
 11 12  1  0
 12 13  1  0
 13 14  2  0
 14 15  1  0
 15 16  2  0
 16 17  1  0
 17 18  2  0
  2 19  1  0
 19 20  2  0
 20 21  1  0
 21 22  2  0
 22 23  1  0
 23 24  2  0
 24 25  1  0
 24 26  1  0
 26 27  2  0
 27 28  1  0
 28 29  2  0
 12  7  1  0
 18 13  1  0
 29 19  1  0
 28 22  1  0
  3 30  1  0
  4 31  1  0
  4 32  1  0
  8 33  1  0
  8 34  1  0
  9 35  1  0
  9 36  1  0
 10 37  1  0
 10 38  1  0
 11 39  1  0
 11 40  1  0
 12 41  1  1
 14 42  1  0
 15 43  1  0
 16 44  1  0
 17 45  1  0
 20 46  1  0
 21 47  1  0
 23 48  1  0
 26 49  1  0
 27 50  1  0
M  END
>  <smiles>  (68) 
O=C(NCC(=O)N1CCCCC1c1ccccn1)c1ccc2cc(Cl)ccc2n1

>  <score_type>  (68) 
oracle

>  <origin>  (68) 
autodockgpu

>  <m_score__min__energy>  (68) 
-8.9399999999999995

>  <m_primary>  (68) 
energy

>  <rmsd>  (68) 
4.291324655747072

>  <m_score__min__rmsd>  (68) 
4.291324655747072

>  <meeko>  (68) 
{"free_energy": -8.17, "intermolecular_energy": -9.66, "internal_energy": -1.86, "cluster_size": 2, "cluster_id": 2, "rank_in_cluster": 1}

>  <energy>  (68) 
-8.59

>  <cluster_rmsd>  (68) 
1.07

>  <cluster>  (68) 
1

$$$$

     RDKit          3D

 50 53  0  0  0  0  0  0  0  0999 V2000
  140.0520   72.2570  220.6440 O   0  0  0  0  0  0  0  0  0  0  0  0
  139.8490   72.6530  221.8280 C   0  0  0  0  0  0  0  0  0  0  0  0
  139.5860   74.0210  222.1050 N   0  0  0  0  0  0  0  0  0  0  0  0
  139.5450   74.9830  221.0240 C   0  0  0  0  0  0  0  0  0  0  0  0
  140.5080   76.0860  221.2330 C   0  0  0  0  0  0  0  0  0  0  0  0
  141.7320   75.8920  221.0240 O   0  0  0  0  0  0  0  0  0  0  0  0
  140.0080   77.3440  221.6710 N   0  0  0  0  0  0  0  0  0  0  0  0
  139.0160   77.4480  222.7230 C   0  0  0  0  0  0  0  0  0  0  0  0
  138.3360   78.7770  222.7430 C   0  0  0  0  0  0  0  0  0  0  0  0
  138.1510   79.4260  221.4140 C   0  0  0  0  0  0  0  0  0  0  0  0
  139.2950   79.2480  220.4540 C   0  0  0  0  0  0  0  0  0  0  0  0
  140.4910   78.5890  221.0550 C   0  0  1  0  0  0  0  0  0  0  0  0
  141.1490   79.4560  222.0310 C   0  0  0  0  0  0  0  0  0  0  0  0
  141.9420   79.0290  223.0720 C   0  0  0  0  0  0  0  0  0  0  0  0
  142.5450   79.8820  223.9720 C   0  0  0  0  0  0  0  0  0  0  0  0
  142.3480   81.2410  223.8300 C   0  0  0  0  0  0  0  0  0  0  0  0
  141.5500   81.6450  222.7800 C   0  0  0  0  0  0  0  0  0  0  0  0
  140.9730   80.7900  221.9160 N   0  0  0  0  0  0  0  0  0  0  0  0
  139.8870   71.6900  222.9360 C   0  0  0  0  0  0  0  0  0  0  0  0
  139.3870   70.4150  222.7460 C   0  0  0  0  0  0  0  0  0  0  0  0
  139.4320   69.5130  223.8150 C   0  0  0  0  0  0  0  0  0  0  0  0
  139.9670   69.8860  225.0420 C   0  0  0  0  0  0  0  0  0  0  0  0
  140.0360   69.0420  226.1200 C   0  0  0  0  0  0  0  0  0  0  0  0
  140.5810   69.4780  227.3130 C   0  0  0  0  0  0  0  0  0  0  0  0
  140.6870   68.4230  228.7240 Cl  0  0  0  0  0  0  0  0  0  0  0  0
  141.0610   70.7620  227.4290 C   0  0  0  0  0  0  0  0  0  0  0  0
  140.9890   71.6080  226.3400 C   0  0  0  0  0  0  0  0  0  0  0  0
  140.4460   71.1750  225.1500 C   0  0  0  0  0  0  0  0  0  0  0  0
  140.4060   72.0480  224.1280 N   0  0  0  0  0  0  0  0  0  0  0  0
  139.4250   74.2920  223.1050 H   0  0  0  0  0  0  0  0  0  0  0  0
  139.7897   74.4705  220.0819 H   0  0  0  0  0  0  0  0  0  0  0  0
  138.5337   75.4144  220.9886 H   0  0  0  0  0  0  0  0  0  0  0  0
  138.2572   76.6665  222.5699 H   0  0  0  0  0  0  0  0  0  0  0  0
  139.5365   77.3261  223.6844 H   0  0  0  0  0  0  0  0  0  0  0  0
  137.3422   78.6419  223.1949 H   0  0  0  0  0  0  0  0  0  0  0  0
  138.9974   79.4448  223.3144 H   0  0  0  0  0  0  0  0  0  0  0  0
  137.2477   79.0026  220.9505 H   0  0  0  0  0  0  0  0  0  0  0  0
  138.0778   80.5064  221.6074 H   0  0  0  0  0  0  0  0  0  0  0  0
  138.9474   78.6327  219.6111 H   0  0  0  0  0  0  0  0  0  0  0  0
  139.6086   80.2547  220.1406 H   0  0  0  0  0  0  0  0  0  0  0  0
  141.2523   78.3783  220.2895 H   0  0  0  0  0  0  0  0  0  0  0  0
  142.1036   77.9476  223.1925 H   0  0  0  0  0  0  0  0  0  0  0  0
  143.1703   79.4877  224.7866 H   0  0  0  0  0  0  0  0  0  0  0  0
  142.8048   81.9657  224.5200 H   0  0  0  0  0  0  0  0  0  0  0  0
  141.3762   82.7224  222.6418 H   0  0  0  0  0  0  0  0  0  0  0  0
  138.9631   70.1162  221.7759 H   0  0  0  0  0  0  0  0  0  0  0  0
  139.0384   68.4945  223.6821 H   0  0  0  0  0  0  0  0  0  0  0  0
  139.6560   68.0132  226.0352 H   0  0  0  0  0  0  0  0  0  0  0  0
  141.4966   71.1103  228.3771 H   0  0  0  0  0  0  0  0  0  0  0  0
  141.3686   72.6371  226.4233 H   0  0  0  0  0  0  0  0  0  0  0  0
  1  2  2  0
  2  3  1  0
  3  4  1  0
  4  5  1  0
  5  6  2  0
  5  7  1  0
  7  8  1  0
  8  9  1  0
  9 10  1  0
 10 11  1  0
 11 12  1  0
 12 13  1  0
 13 14  2  0
 14 15  1  0
 15 16  2  0
 16 17  1  0
 17 18  2  0
  2 19  1  0
 19 20  2  0
 20 21  1  0
 21 22  2  0
 22 23  1  0
 23 24  2  0
 24 25  1  0
 24 26  1  0
 26 27  2  0
 27 28  1  0
 28 29  2  0
 12  7  1  0
 18 13  1  0
 29 19  1  0
 28 22  1  0
  3 30  1  0
  4 31  1  0
  4 32  1  0
  8 33  1  0
  8 34  1  0
  9 35  1  0
  9 36  1  0
 10 37  1  0
 10 38  1  0
 11 39  1  0
 11 40  1  0
 12 41  1  6
 14 42  1  0
 15 43  1  0
 16 44  1  0
 17 45  1  0
 20 46  1  0
 21 47  1  0
 23 48  1  0
 26 49  1  0
 27 50  1  0
M  END
>  <smiles>  (69) 
O=C(NCC(=O)N1CCCCC1c1ccccn1)c1ccc2cc(Cl)ccc2n1

>  <score_type>  (69) 
oracle

>  <origin>  (69) 
autodockgpu

>  <m_score__min__energy>  (69) 
-8.9399999999999995

>  <m_primary>  (69) 
energy

>  <rmsd>  (69) 
3.210192195411394

>  <m_score__min__rmsd>  (69) 
3.210192195411394

>  <meeko>  (69) 
{"free_energy": -8.61, "intermolecular_energy": -10.1, "internal_energy": -1.53, "cluster_size": 40, "cluster_id": 1, "rank_in_cluster": 16}

>  <energy>  (69) 
-8.58

>  <cluster_rmsd>  (69) 
1.7

>  <cluster>  (69) 
1

$$$$

     RDKit          3D

 50 53  0  0  0  0  0  0  0  0999 V2000
  140.1140   72.8010  220.7490 O   0  0  0  0  0  0  0  0  0  0  0  0
  139.8250   73.0630  221.9520 C   0  0  0  0  0  0  0  0  0  0  0  0
  139.4430   74.3730  222.3440 N   0  0  0  0  0  0  0  0  0  0  0  0
  139.3780   75.4320  221.3590 C   0  0  0  0  0  0  0  0  0  0  0  0
  139.0210   76.7300  221.9710 C   0  0  0  0  0  0  0  0  0  0  0  0
  137.8930   76.8770  222.5060 O   0  0  0  0  0  0  0  0  0  0  0  0
  139.9790   77.7810  221.9310 N   0  0  0  0  0  0  0  0  0  0  0  0
  141.1700   77.7610  222.7580 C   0  0  0  0  0  0  0  0  0  0  0  0
  141.8100   79.1040  222.8760 C   0  0  0  0  0  0  0  0  0  0  0  0
  140.8770   80.2660  222.8600 C   0  0  0  0  0  0  0  0  0  0  0  0
  139.7130   80.1360  221.9160 C   0  0  0  0  0  0  0  0  0  0  0  0
  139.7810   78.9320  221.0370 C   0  0  1  0  0  0  0  0  0  0  0  0
  140.8570   79.0450  220.0530 C   0  0  0  0  0  0  0  0  0  0  0  0
  141.3190   80.2200  219.5070 C   0  0  0  0  0  0  0  0  0  0  0  0
  142.3380   80.2830  218.5790 C   0  0  0  0  0  0  0  0  0  0  0  0
  142.9330   79.1060  218.1700 C   0  0  0  0  0  0  0  0  0  0  0  0
  142.4520   77.9410  218.7300 C   0  0  0  0  0  0  0  0  0  0  0  0
  141.4560   77.9090  219.6340 N   0  0  0  0  0  0  0  0  0  0  0  0
  139.8870   71.9990  222.9640 C   0  0  0  0  0  0  0  0  0  0  0  0
  139.4530   70.7270  222.6410 C   0  0  0  0  0  0  0  0  0  0  0  0
  139.5190   69.7290  223.6200 C   0  0  0  0  0  0  0  0  0  0  0  0
  140.0100   70.0060  224.8900 C   0  0  0  0  0  0  0  0  0  0  0  0
  140.0970   69.0660  225.8840 C   0  0  0  0  0  0  0  0  0  0  0  0
  140.5960   69.4090  227.1260 C   0  0  0  0  0  0  0  0  0  0  0  0
  140.7240   68.2290  228.4320 Cl  0  0  0  0  0  0  0  0  0  0  0  0
  141.0110   70.6970  227.3760 C   0  0  0  0  0  0  0  0  0  0  0  0
  140.9210   71.6400  226.3710 C   0  0  0  0  0  0  0  0  0  0  0  0
  140.4240   71.2990  225.1320 C   0  0  0  0  0  0  0  0  0  0  0  0
  140.3630   72.2640  224.1980 N   0  0  0  0  0  0  0  0  0  0  0  0
  139.2150   74.5310  223.3560 H   0  0  0  0  0  0  0  0  0  0  0  0
  140.3598   75.5260  220.8720 H   0  0  0  0  0  0  0  0  0  0  0  0
  138.5976   75.1722  220.6286 H   0  0  0  0  0  0  0  0  0  0  0  0
  140.8942   77.4126  223.7643 H   0  0  0  0  0  0  0  0  0  0  0  0
  141.8961   77.0871  222.2798 H   0  0  0  0  0  0  0  0  0  0  0  0
  142.3677   79.1309  223.8238 H   0  0  0  0  0  0  0  0  0  0  0  0
  142.4435   79.2147  221.9836 H   0  0  0  0  0  0  0  0  0  0  0  0
  140.4783   80.3971  223.8768 H   0  0  0  0  0  0  0  0  0  0  0  0
  141.4644   81.1260  222.5059 H   0  0  0  0  0  0  0  0  0  0  0  0
  138.7892   80.0795  222.5105 H   0  0  0  0  0  0  0  0  0  0  0  0
  139.7363   81.0158  221.2561 H   0  0  0  0  0  0  0  0  0  0  0  0
  138.8575   78.8183  220.4503 H   0  0  0  0  0  0  0  0  0  0  0  0
  140.8499   81.1617  219.8281 H   0  0  0  0  0  0  0  0  0  0  0  0
  142.6694   81.2503  218.1735 H   0  0  0  0  0  0  0  0  0  0  0  0
  143.7503   79.0979  217.4338 H   0  0  0  0  0  0  0  0  0  0  0  0
  142.9065   76.9880  218.4214 H   0  0  0  0  0  0  0  0  0  0  0  0
  139.0643   70.5040  221.6364 H   0  0  0  0  0  0  0  0  0  0  0  0
  139.1774   68.7111  223.3807 H   0  0  0  0  0  0  0  0  0  0  0  0
  139.7681   68.0340  225.6920 H   0  0  0  0  0  0  0  0  0  0  0  0
  141.4094   70.9720  228.3638 H   0  0  0  0  0  0  0  0  0  0  0  0
  141.2490   72.6725  226.5614 H   0  0  0  0  0  0  0  0  0  0  0  0
  1  2  2  0
  2  3  1  0
  3  4  1  0
  4  5  1  0
  5  6  2  0
  5  7  1  0
  7  8  1  0
  8  9  1  0
  9 10  1  0
 10 11  1  0
 11 12  1  0
 12 13  1  0
 13 14  2  0
 14 15  1  0
 15 16  2  0
 16 17  1  0
 17 18  2  0
  2 19  1  0
 19 20  2  0
 20 21  1  0
 21 22  2  0
 22 23  1  0
 23 24  2  0
 24 25  1  0
 24 26  1  0
 26 27  2  0
 27 28  1  0
 28 29  2  0
 12  7  1  0
 18 13  1  0
 29 19  1  0
 28 22  1  0
  3 30  1  0
  4 31  1  0
  4 32  1  0
  8 33  1  0
  8 34  1  0
  9 35  1  0
  9 36  1  0
 10 37  1  0
 10 38  1  0
 11 39  1  0
 11 40  1  0
 12 41  1  6
 14 42  1  0
 15 43  1  0
 16 44  1  0
 17 45  1  0
 20 46  1  0
 21 47  1  0
 23 48  1  0
 26 49  1  0
 27 50  1  0
M  END
>  <smiles>  (70) 
O=C(NCC(=O)N1CCCCC1c1ccccn1)c1ccc2cc(Cl)ccc2n1

>  <score_type>  (70) 
oracle

>  <origin>  (70) 
autodockgpu

>  <m_score__min__energy>  (70) 
-8.9399999999999995

>  <m_primary>  (70) 
energy

>  <rmsd>  (70) 
3.4764338054608976

>  <m_score__min__rmsd>  (70) 
3.4764338054608976

>  <meeko>  (70) 
{"free_energy": -8.14, "intermolecular_energy": -9.63, "internal_energy": -1.63, "cluster_size": 40, "cluster_id": 1, "rank_in_cluster": 35}

>  <energy>  (70) 
-8.58

>  <cluster_rmsd>  (70) 
1.07

>  <cluster>  (70) 
1

$$$$

     RDKit          3D

 50 53  0  0  0  0  0  0  0  0999 V2000
  140.1660   72.6240  220.8150 O   0  0  0  0  0  0  0  0  0  0  0  0
  139.9130   72.9550  222.0090 C   0  0  0  0  0  0  0  0  0  0  0  0
  139.5980   74.2990  222.3440 N   0  0  0  0  0  0  0  0  0  0  0  0
  139.5600   75.3120  221.3100 C   0  0  0  0  0  0  0  0  0  0  0  0
  140.8300   76.0640  221.2310 C   0  0  0  0  0  0  0  0  0  0  0  0
  141.8860   75.4700  220.8960 O   0  0  0  0  0  0  0  0  0  0  0  0
  140.8130   77.4520  221.5430 N   0  0  0  0  0  0  0  0  0  0  0  0
  140.9460   78.4670  220.5170 C   0  0  0  0  0  0  0  0  0  0  0  0
  141.3140   79.8020  221.0730 C   0  0  0  0  0  0  0  0  0  0  0  0
  142.1870   79.7790  222.2800 C   0  0  0  0  0  0  0  0  0  0  0  0
  141.8870   78.6790  223.2620 C   0  0  0  0  0  0  0  0  0  0  0  0
  140.6580   77.8980  222.9360 C   0  0  1  0  0  0  0  0  0  0  0  0
  139.4480   78.6980  223.1180 C   0  0  0  0  0  0  0  0  0  0  0  0
  139.3560   79.8450  223.8730 C   0  0  0  0  0  0  0  0  0  0  0  0
  138.1920   80.5710  224.0190 C   0  0  0  0  0  0  0  0  0  0  0  0
  137.0520   80.1310  223.3760 C   0  0  0  0  0  0  0  0  0  0  0  0
  137.1700   78.9790  222.6260 C   0  0  0  0  0  0  0  0  0  0  0  0
  138.3180   78.2900  222.5010 N   0  0  0  0  0  0  0  0  0  0  0  0
  139.9480   71.9390  223.0700 C   0  0  0  0  0  0  0  0  0  0  0  0
  139.4790   70.6660  222.8080 C   0  0  0  0  0  0  0  0  0  0  0  0
  139.5200   69.7130  223.8320 C   0  0  0  0  0  0  0  0  0  0  0  0
  140.0210   70.0370  225.0870 C   0  0  0  0  0  0  0  0  0  0  0  0
  140.0840   69.1430  226.1250 C   0  0  0  0  0  0  0  0  0  0  0  0
  140.5950   69.5300  227.3490 C   0  0  0  0  0  0  0  0  0  0  0  0
  140.6930   68.4090  228.7090 Cl  0  0  0  0  0  0  0  0  0  0  0  0
  141.0450   70.8160  227.5380 C   0  0  0  0  0  0  0  0  0  0  0  0
  140.9800   71.7130  226.4890 C   0  0  0  0  0  0  0  0  0  0  0  0
  140.4700   71.3280  225.2680 C   0  0  0  0  0  0  0  0  0  0  0  0
  140.4340   72.2490  224.2890 N   0  0  0  0  0  0  0  0  0  0  0  0
  139.3980   74.5150  223.3500 H   0  0  0  0  0  0  0  0  0  0  0  0
  139.3737   74.8252  220.3413 H   0  0  0  0  0  0  0  0  0  0  0  0
  138.7570   76.0222  221.5566 H   0  0  0  0  0  0  0  0  0  0  0  0
  141.7277   78.1525  219.8099 H   0  0  0  0  0  0  0  0  0  0  0  0
  139.9687   78.5704  220.0228 H   0  0  0  0  0  0  0  0  0  0  0  0
  141.8394   80.3630  220.2861 H   0  0  0  0  0  0  0  0  0  0  0  0
  140.3691   80.2646  221.3942 H   0  0  0  0  0  0  0  0  0  0  0  0
  143.2285   79.6629  221.9455 H   0  0  0  0  0  0  0  0  0  0  0  0
  142.0012   80.7241  222.8114 H   0  0  0  0  0  0  0  0  0  0  0  0
  142.7424   77.9877  223.2800 H   0  0  0  0  0  0  0  0  0  0  0  0
  141.7121   79.1588  224.2363 H   0  0  0  0  0  0  0  0  0  0  0  0
  140.5445   77.0383  223.6128 H   0  0  0  0  0  0  0  0  0  0  0  0
  140.2598   80.2024  224.3881 H   0  0  0  0  0  0  0  0  0  0  0  0
  138.1725   81.4820  224.6352 H   0  0  0  0  0  0  0  0  0  0  0  0
  136.0976   80.6718  223.4576 H   0  0  0  0  0  0  0  0  0  0  0  0
  136.2779   78.6044  222.1027 H   0  0  0  0  0  0  0  0  0  0  0  0
  139.0818   70.4071  221.8154 H   0  0  0  0  0  0  0  0  0  0  0  0
  139.1510   68.6945  223.6410 H   0  0  0  0  0  0  0  0  0  0  0  0
  139.7259   68.1127  225.9824 H   0  0  0  0  0  0  0  0  0  0  0  0
  141.4515   71.1264  228.5119 H   0  0  0  0  0  0  0  0  0  0  0  0
  141.3385   72.7434  226.6297 H   0  0  0  0  0  0  0  0  0  0  0  0
  1  2  2  0
  2  3  1  0
  3  4  1  0
  4  5  1  0
  5  6  2  0
  5  7  1  0
  7  8  1  0
  8  9  1  0
  9 10  1  0
 10 11  1  0
 11 12  1  0
 12 13  1  0
 13 14  2  0
 14 15  1  0
 15 16  2  0
 16 17  1  0
 17 18  2  0
  2 19  1  0
 19 20  2  0
 20 21  1  0
 21 22  2  0
 22 23  1  0
 23 24  2  0
 24 25  1  0
 24 26  1  0
 26 27  2  0
 27 28  1  0
 28 29  2  0
 12  7  1  0
 18 13  1  0
 29 19  1  0
 28 22  1  0
  3 30  1  0
  4 31  1  0
  4 32  1  0
  8 33  1  0
  8 34  1  0
  9 35  1  0
  9 36  1  0
 10 37  1  0
 10 38  1  0
 11 39  1  0
 11 40  1  0
 12 41  1  1
 14 42  1  0
 15 43  1  0
 16 44  1  0
 17 45  1  0
 20 46  1  0
 21 47  1  0
 23 48  1  0
 26 49  1  0
 27 50  1  0
M  END
>  <smiles>  (71) 
O=C(NCC(=O)N1CCCCC1c1ccccn1)c1ccc2cc(Cl)ccc2n1

>  <score_type>  (71) 
oracle

>  <origin>  (71) 
autodockgpu

>  <m_score__min__energy>  (71) 
-8.9399999999999995

>  <m_primary>  (71) 
energy

>  <rmsd>  (71) 
3.4631182908171763

>  <m_score__min__rmsd>  (71) 
3.4631182908171763

>  <meeko>  (71) 
{"free_energy": -8.54, "intermolecular_energy": -10.03, "internal_energy": -1.61, "cluster_size": 40, "cluster_id": 1, "rank_in_cluster": 23}

>  <energy>  (71) 
-8.57

>  <cluster_rmsd>  (71) 
0.98

>  <cluster>  (71) 
1

$$$$

     RDKit          3D

 50 53  0  0  0  0  0  0  0  0999 V2000
  137.8630   75.2430  222.5300 O   0  0  0  0  0  0  0  0  0  0  0  0
  138.9980   75.6970  222.2050 C   0  0  0  0  0  0  0  0  0  0  0  0
  139.2740   77.0890  222.2690 N   0  0  0  0  0  0  0  0  0  0  0  0
  138.2480   78.0090  222.7130 C   0  0  0  0  0  0  0  0  0  0  0  0
  138.8210   79.2980  223.1580 C   0  0  0  0  0  0  0  0  0  0  0  0
  138.1210   80.0890  223.8370 O   0  0  0  0  0  0  0  0  0  0  0  0
  140.1630   79.6000  222.7960 N   0  0  0  0  0  0  0  0  0  0  0  0
  141.2930   78.9970  223.4760 C   0  0  0  0  0  0  0  0  0  0  0  0
  142.5680   79.7370  223.2400 C   0  0  0  0  0  0  0  0  0  0  0  0
  142.4370   81.2120  223.0800 C   0  0  0  0  0  0  0  0  0  0  0  0
  141.2230   81.6640  222.3150 C   0  0  0  0  0  0  0  0  0  0  0  0
  140.4430   80.5480  221.7060 C   0  0  1  0  0  0  0  0  0  0  0  0
  141.1750   79.9140  220.6110 C   0  0  0  0  0  0  0  0  0  0  0  0
  141.9000   80.5770  219.6470 C   0  0  0  0  0  0  0  0  0  0  0  0
  142.5780   79.9390  218.6290 C   0  0  0  0  0  0  0  0  0  0  0  0
  142.5330   78.5610  218.5650 C   0  0  0  0  0  0  0  0  0  0  0  0
  141.8000   77.9190  219.5420 C   0  0  0  0  0  0  0  0  0  0  0  0
  141.1480   78.5670  220.5250 N   0  0  0  0  0  0  0  0  0  0  0  0
  140.0490   74.7760  221.7520 C   0  0  0  0  0  0  0  0  0  0  0  0
  139.8370   73.4130  221.8270 C   0  0  0  0  0  0  0  0  0  0  0  0
  140.8520   72.5530  221.3910 C   0  0  0  0  0  0  0  0  0  0  0  0
  142.0480   73.0550  220.8940 C   0  0  0  0  0  0  0  0  0  0  0  0
  143.0730   72.2580  220.4540 C   0  0  0  0  0  0  0  0  0  0  0  0
  144.2380   72.8230  219.9700 C   0  0  0  0  0  0  0  0  0  0  0  0
  145.5790   71.8320  219.3960 Cl  0  0  0  0  0  0  0  0  0  0  0  0
  144.3790   74.1910  219.9250 C   0  0  0  0  0  0  0  0  0  0  0  0
  143.3430   74.9890  220.3690 C   0  0  0  0  0  0  0  0  0  0  0  0
  142.1810   74.4270  220.8520 C   0  0  0  0  0  0  0  0  0  0  0  0
  141.2120   75.2590  221.2690 N   0  0  0  0  0  0  0  0  0  0  0  0
  140.2320   77.4080  221.9870 H   0  0  0  0  0  0  0  0  0  0  0  0
  137.5536   78.1965  221.8808 H   0  0  0  0  0  0  0  0  0  0  0  0
  137.7269   77.5533  223.5678 H   0  0  0  0  0  0  0  0  0  0  0  0
  141.0879   78.9846  224.5566 H   0  0  0  0  0  0  0  0  0  0  0  0
  141.4191   77.9806  223.0747 H   0  0  0  0  0  0  0  0  0  0  0  0
  143.2325   79.5473  224.0958 H   0  0  0  0  0  0  0  0  0  0  0  0
  142.9587   79.3643  222.2816 H   0  0  0  0  0  0  0  0  0  0  0  0
  142.3949   81.6615  224.0831 H   0  0  0  0  0  0  0  0  0  0  0  0
  143.3085   81.5357  222.4921 H   0  0  0  0  0  0  0  0  0  0  0  0
  140.5635   82.2120  223.0040 H   0  0  0  0  0  0  0  0  0  0  0  0
  141.5828   82.2917  221.4865 H   0  0  0  0  0  0  0  0  0  0  0  0
  139.5089   80.9176  221.2577 H   0  0  0  0  0  0  0  0  0  0  0  0
  141.9410   81.6754  219.6907 H   0  0  0  0  0  0  0  0  0  0  0  0
  143.1433   80.5170  217.8831 H   0  0  0  0  0  0  0  0  0  0  0  0
  143.0555   78.0024  217.7745 H   0  0  0  0  0  0  0  0  0  0  0  0
  141.7458   76.8206  219.5161 H   0  0  0  0  0  0  0  0  0  0  0  0
  138.8913   73.0122  222.2207 H   0  0  0  0  0  0  0  0  0  0  0  0
  140.7003   71.4647  221.4427 H   0  0  0  0  0  0  0  0  0  0  0  0
  142.9678   71.1635  220.4863 H   0  0  0  0  0  0  0  0  0  0  0  0
  145.3050   74.6432  219.5403 H   0  0  0  0  0  0  0  0  0  0  0  0
  143.4463   76.0837  220.3368 H   0  0  0  0  0  0  0  0  0  0  0  0
  1  2  2  0
  2  3  1  0
  3  4  1  0
  4  5  1  0
  5  6  2  0
  5  7  1  0
  7  8  1  0
  8  9  1  0
  9 10  1  0
 10 11  1  0
 11 12  1  0
 12 13  1  0
 13 14  2  0
 14 15  1  0
 15 16  2  0
 16 17  1  0
 17 18  2  0
  2 19  1  0
 19 20  2  0
 20 21  1  0
 21 22  2  0
 22 23  1  0
 23 24  2  0
 24 25  1  0
 24 26  1  0
 26 27  2  0
 27 28  1  0
 28 29  2  0
 12  7  1  0
 18 13  1  0
 29 19  1  0
 28 22  1  0
  3 30  1  0
  4 31  1  0
  4 32  1  0
  8 33  1  0
  8 34  1  0
  9 35  1  0
  9 36  1  0
 10 37  1  0
 10 38  1  0
 11 39  1  0
 11 40  1  0
 12 41  1  6
 14 42  1  0
 15 43  1  0
 16 44  1  0
 17 45  1  0
 20 46  1  0
 21 47  1  0
 23 48  1  0
 26 49  1  0
 27 50  1  0
M  END
>  <smiles>  (72) 
O=C(NCC(=O)N1CCCCC1c1ccccn1)c1ccc2cc(Cl)ccc2n1

>  <score_type>  (72) 
oracle

>  <origin>  (72) 
autodockgpu

>  <m_score__min__energy>  (72) 
-8.9399999999999995

>  <m_primary>  (72) 
energy

>  <rmsd>  (72) 
5.945953165509779

>  <m_score__min__rmsd>  (72) 
5.945953165509779

>  <meeko>  (72) 
{"free_energy": -6.84, "intermolecular_energy": -8.33, "internal_energy": -3.08, "cluster_size": 7, "cluster_id": 4, "rank_in_cluster": 7}

>  <energy>  (72) 
-8.57

>  <cluster_rmsd>  (72) 
1.71

>  <cluster>  (72) 
1

$$$$

     RDKit          3D

 50 53  0  0  0  0  0  0  0  0999 V2000
  140.4730   72.3180  220.7270 O   0  0  0  0  0  0  0  0  0  0  0  0
  140.0670   72.6640  221.8740 C   0  0  0  0  0  0  0  0  0  0  0  0
  139.6330   73.9930  222.1260 N   0  0  0  0  0  0  0  0  0  0  0  0
  139.6490   74.9730  221.0610 C   0  0  0  0  0  0  0  0  0  0  0  0
  140.8280   75.8610  221.1490 C   0  0  0  0  0  0  0  0  0  0  0  0
  140.9230   76.6780  222.0990 O   0  0  0  0  0  0  0  0  0  0  0  0
  141.8270   75.7580  220.1410 N   0  0  0  0  0  0  0  0  0  0  0  0
  142.6380   76.8940  219.7510 C   0  0  0  0  0  0  0  0  0  0  0  0
  143.3110   76.6950  218.4340 C   0  0  0  0  0  0  0  0  0  0  0  0
  142.5530   75.8850  217.4390 C   0  0  0  0  0  0  0  0  0  0  0  0
  141.7940   74.7200  218.0120 C   0  0  0  0  0  0  0  0  0  0  0  0
  142.0640   74.4770  219.4590 C   0  0  1  0  0  0  0  0  0  0  0  0
  143.4240   73.9890  219.6780 C   0  0  0  0  0  0  0  0  0  0  0  0
  144.1590   74.1630  220.8290 C   0  0  0  0  0  0  0  0  0  0  0  0
  145.4430   73.6860  220.9940 C   0  0  0  0  0  0  0  0  0  0  0  0
  146.0310   72.9960  219.9540 C   0  0  0  0  0  0  0  0  0  0  0  0
  145.2760   72.8350  218.8120 C   0  0  0  0  0  0  0  0  0  0  0  0
  144.0250   73.3100  218.6770 N   0  0  0  0  0  0  0  0  0  0  0  0
  140.0450   71.6810  222.9660 C   0  0  0  0  0  0  0  0  0  0  0  0
  139.5130   70.4260  222.7400 C   0  0  0  0  0  0  0  0  0  0  0  0
  139.5000   69.5050  223.7940 C   0  0  0  0  0  0  0  0  0  0  0  0
  140.0100   69.8420  225.0420 C   0  0  0  0  0  0  0  0  0  0  0  0
  140.0220   68.9790  226.1070 C   0  0  0  0  0  0  0  0  0  0  0  0
  140.5450   69.3780  227.3230 C   0  0  0  0  0  0  0  0  0  0  0  0
  140.5780   68.2970  228.7170 Cl  0  0  0  0  0  0  0  0  0  0  0  0
  141.0580   70.6450  227.4740 C   0  0  0  0  0  0  0  0  0  0  0  0
  141.0440   71.5110  226.3980 C   0  0  0  0  0  0  0  0  0  0  0  0
  140.5220   71.1140  225.1860 C   0  0  0  0  0  0  0  0  0  0  0  0
  140.5380   72.0040  224.1790 N   0  0  0  0  0  0  0  0  0  0  0  0
  139.3070   74.2220  223.0960 H   0  0  0  0  0  0  0  0  0  0  0  0
  139.6700   74.4481  220.0945 H   0  0  0  0  0  0  0  0  0  0  0  0
  138.7458   75.5939  221.1544 H   0  0  0  0  0  0  0  0  0  0  0  0
  141.9920   77.7819  219.6857 H   0  0  0  0  0  0  0  0  0  0  0  0
  143.4238   77.0182  220.5107 H   0  0  0  0  0  0  0  0  0  0  0  0
  143.4939   77.6865  217.9942 H   0  0  0  0  0  0  0  0  0  0  0  0
  144.2284   76.1270  218.6479 H   0  0  0  0  0  0  0  0  0  0  0  0
  141.8325   76.5479  216.9375 H   0  0  0  0  0  0  0  0  0  0  0  0
  143.3023   75.4574  216.7566 H   0  0  0  0  0  0  0  0  0  0  0  0
  140.7181   74.9124  217.8877 H   0  0  0  0  0  0  0  0  0  0  0  0
  142.1274   73.8231  217.4694 H   0  0  0  0  0  0  0  0  0  0  0  0
  141.4045   73.6924  219.8583 H   0  0  0  0  0  0  0  0  0  0  0  0
  143.6973   74.7124  221.6627 H   0  0  0  0  0  0  0  0  0  0  0  0
  145.9868   73.8524  221.9356 H   0  0  0  0  0  0  0  0  0  0  0  0
  147.0520   72.5942  220.0323 H   0  0  0  0  0  0  0  0  0  0  0  0
  145.7201   72.2892  217.9665 H   0  0  0  0  0  0  0  0  0  0  0  0
  139.1085   70.1565  221.7532 H   0  0  0  0  0  0  0  0  0  0  0  0
  139.0805   68.5011  223.6323 H   0  0  0  0  0  0  0  0  0  0  0  0
  139.6135   67.9640  225.9935 H   0  0  0  0  0  0  0  0  0  0  0  0
  141.4746   70.9651  228.4404 H   0  0  0  0  0  0  0  0  0  0  0  0
  141.4530   72.5260  226.5095 H   0  0  0  0  0  0  0  0  0  0  0  0
  1  2  2  0
  2  3  1  0
  3  4  1  0
  4  5  1  0
  5  6  2  0
  5  7  1  0
  7  8  1  0
  8  9  1  0
  9 10  1  0
 10 11  1  0
 11 12  1  0
 12 13  1  0
 13 14  2  0
 14 15  1  0
 15 16  2  0
 16 17  1  0
 17 18  2  0
  2 19  1  0
 19 20  2  0
 20 21  1  0
 21 22  2  0
 22 23  1  0
 23 24  2  0
 24 25  1  0
 24 26  1  0
 26 27  2  0
 27 28  1  0
 28 29  2  0
 12  7  1  0
 18 13  1  0
 29 19  1  0
 28 22  1  0
  3 30  1  0
  4 31  1  0
  4 32  1  0
  8 33  1  0
  8 34  1  0
  9 35  1  0
  9 36  1  0
 10 37  1  0
 10 38  1  0
 11 39  1  0
 11 40  1  0
 12 41  1  1
 14 42  1  0
 15 43  1  0
 16 44  1  0
 17 45  1  0
 20 46  1  0
 21 47  1  0
 23 48  1  0
 26 49  1  0
 27 50  1  0
M  END
>  <smiles>  (73) 
O=C(NCC(=O)N1CCCCC1c1ccccn1)c1ccc2cc(Cl)ccc2n1

>  <score_type>  (73) 
oracle

>  <origin>  (73) 
autodockgpu

>  <m_score__min__energy>  (73) 
-8.9399999999999995

>  <m_primary>  (73) 
energy

>  <rmsd>  (73) 
4.298983300731528

>  <m_score__min__rmsd>  (73) 
4.298983300731528

>  <meeko>  (73) 
{"free_energy": -8.17, "intermolecular_energy": -9.66, "internal_energy": -1.87, "cluster_size": 2, "cluster_id": 2, "rank_in_cluster": 2}

>  <energy>  (73) 
-8.54

>  <cluster_rmsd>  (73) 
1.7

>  <cluster>  (73) 
1

$$$$

     RDKit          3D

 50 53  0  0  0  0  0  0  0  0999 V2000
  140.3100   72.6180  220.6740 O   0  0  0  0  0  0  0  0  0  0  0  0
  140.0340   72.9750  221.8560 C   0  0  0  0  0  0  0  0  0  0  0  0
  139.7540   74.3340  222.1620 N   0  0  0  0  0  0  0  0  0  0  0  0
  139.7800   75.3320  221.1140 C   0  0  0  0  0  0  0  0  0  0  0  0
  141.0310   76.1200  221.1360 C   0  0  0  0  0  0  0  0  0  0  0  0
  142.1200   75.5690  220.8360 O   0  0  0  0  0  0  0  0  0  0  0  0
  140.9560   77.4920  221.5020 N   0  0  0  0  0  0  0  0  0  0  0  0
  141.1000   78.5530  220.5230 C   0  0  0  0  0  0  0  0  0  0  0  0
  141.4030   79.8740  221.1480 C   0  0  0  0  0  0  0  0  0  0  0  0
  142.2250   79.8270  222.3900 C   0  0  0  0  0  0  0  0  0  0  0  0
  141.9190   78.6790  223.3130 C   0  0  0  0  0  0  0  0  0  0  0  0
  140.7300   77.8760  222.9030 C   0  0  1  0  0  0  0  0  0  0  0  0
  139.4890   78.6310  223.0650 C   0  0  0  0  0  0  0  0  0  0  0  0
  139.3360   79.7590  223.8390 C   0  0  0  0  0  0  0  0  0  0  0  0
  138.1450   80.4430  223.9640 C   0  0  0  0  0  0  0  0  0  0  0  0
  137.0400   79.9790  223.2790 C   0  0  0  0  0  0  0  0  0  0  0  0
  137.2180   78.8470  222.5100 C   0  0  0  0  0  0  0  0  0  0  0  0
  138.3920   78.1990  222.4060 N   0  0  0  0  0  0  0  0  0  0  0  0
  140.0040   71.9750  222.9310 C   0  0  0  0  0  0  0  0  0  0  0  0
  139.4410   70.7360  222.6920 C   0  0  0  0  0  0  0  0  0  0  0  0
  139.4210   69.7980  223.7300 C   0  0  0  0  0  0  0  0  0  0  0  0
  139.9560   70.1020  224.9760 C   0  0  0  0  0  0  0  0  0  0  0  0
  139.9640   69.2200  226.0260 C   0  0  0  0  0  0  0  0  0  0  0  0
  140.5120   69.5860  227.2400 C   0  0  0  0  0  0  0  0  0  0  0  0
  140.5410   68.4810  228.6160 Cl  0  0  0  0  0  0  0  0  0  0  0  0
  141.0580   70.8390  227.4060 C   0  0  0  0  0  0  0  0  0  0  0  0
  141.0480   71.7230  226.3450 C   0  0  0  0  0  0  0  0  0  0  0  0
  140.5000   71.3590  225.1340 C   0  0  0  0  0  0  0  0  0  0  0  0
  140.5230   72.2650  224.1420 N   0  0  0  0  0  0  0  0  0  0  0  0
  139.5320   74.5710  223.1590 H   0  0  0  0  0  0  0  0  0  0  0  0
  139.6941   74.8278  220.1402 H   0  0  0  0  0  0  0  0  0  0  0  0
  138.9389   76.0217  221.2782 H   0  0  0  0  0  0  0  0  0  0  0  0
  141.9198   78.2912  219.8379 H   0  0  0  0  0  0  0  0  0  0  0  0
  140.1416   78.6481  219.9916 H   0  0  0  0  0  0  0  0  0  0  0  0
  141.9433   80.4823  220.4077 H   0  0  0  0  0  0  0  0  0  0  0  0
  140.4315   80.2946  221.4467 H   0  0  0  0  0  0  0  0  0  0  0  0
  143.2827   79.7560  222.0965 H   0  0  0  0  0  0  0  0  0  0  0  0
  141.9873   80.7432  222.9504 H   0  0  0  0  0  0  0  0  0  0  0  0
  142.7943   78.0133  223.3402 H   0  0  0  0  0  0  0  0  0  0  0  0
  141.6884   79.1125  224.2973 H   0  0  0  0  0  0  0  0  0  0  0  0
  140.6162   76.9860  223.5394 H   0  0  0  0  0  0  0  0  0  0  0  0
  140.2118   80.1355  224.3879 H   0  0  0  0  0  0  0  0  0  0  0  0
  138.0770   81.3402  224.5968 H   0  0  0  0  0  0  0  0  0  0  0  0
  136.0661   80.4863  223.3429 H   0  0  0  0  0  0  0  0  0  0  0  0
  136.3546   78.4542  221.9530 H   0  0  0  0  0  0  0  0  0  0  0  0
  139.0175   70.4922  221.7065 H   0  0  0  0  0  0  0  0  0  0  0  0
  138.9760   68.8069  223.5575 H   0  0  0  0  0  0  0  0  0  0  0  0
  139.5319   68.2162  225.9009 H   0  0  0  0  0  0  0  0  0  0  0  0
  141.4965   71.1322  228.3713 H   0  0  0  0  0  0  0  0  0  0  0  0
  141.4813   72.7266  226.4676 H   0  0  0  0  0  0  0  0  0  0  0  0
  1  2  2  0
  2  3  1  0
  3  4  1  0
  4  5  1  0
  5  6  2  0
  5  7  1  0
  7  8  1  0
  8  9  1  0
  9 10  1  0
 10 11  1  0
 11 12  1  0
 12 13  1  0
 13 14  2  0
 14 15  1  0
 15 16  2  0
 16 17  1  0
 17 18  2  0
  2 19  1  0
 19 20  2  0
 20 21  1  0
 21 22  2  0
 22 23  1  0
 23 24  2  0
 24 25  1  0
 24 26  1  0
 26 27  2  0
 27 28  1  0
 28 29  2  0
 12  7  1  0
 18 13  1  0
 29 19  1  0
 28 22  1  0
  3 30  1  0
  4 31  1  0
  4 32  1  0
  8 33  1  0
  8 34  1  0
  9 35  1  0
  9 36  1  0
 10 37  1  0
 10 38  1  0
 11 39  1  0
 11 40  1  0
 12 41  1  1
 14 42  1  0
 15 43  1  0
 16 44  1  0
 17 45  1  0
 20 46  1  0
 21 47  1  0
 23 48  1  0
 26 49  1  0
 27 50  1  0
M  END
>  <smiles>  (74) 
O=C(NCC(=O)N1CCCCC1c1ccccn1)c1ccc2cc(Cl)ccc2n1

>  <score_type>  (74) 
oracle

>  <origin>  (74) 
autodockgpu

>  <m_score__min__energy>  (74) 
-8.9399999999999995

>  <m_primary>  (74) 
energy

>  <rmsd>  (74) 
3.5201125852618143

>  <m_score__min__rmsd>  (74) 
3.5201125852618143

>  <meeko>  (74) 
{"free_energy": -8.54, "intermolecular_energy": -10.03, "internal_energy": -1.6, "cluster_size": 40, "cluster_id": 1, "rank_in_cluster": 25}

>  <energy>  (74) 
-8.54

>  <cluster_rmsd>  (74) 
0.96

>  <cluster>  (74) 
1

$$$$

     RDKit          3D

 50 53  0  0  0  0  0  0  0  0999 V2000
  139.0560   72.0920  220.8670 O   0  0  0  0  0  0  0  0  0  0  0  0
  139.3020   72.4880  222.0420 C   0  0  0  0  0  0  0  0  0  0  0  0
  139.3680   73.8740  222.3480 N   0  0  0  0  0  0  0  0  0  0  0  0
  139.1500   74.8550  221.3060 C   0  0  0  0  0  0  0  0  0  0  0  0
  138.9300   76.2070  221.8610 C   0  0  0  0  0  0  0  0  0  0  0  0
  138.0630   76.3800  222.7550 O   0  0  0  0  0  0  0  0  0  0  0  0
  139.7170   77.2800  221.3580 N   0  0  0  0  0  0  0  0  0  0  0  0
  139.1750   78.2600  220.4370 C   0  0  0  0  0  0  0  0  0  0  0  0
  140.2360   79.0290  219.7240 C   0  0  0  0  0  0  0  0  0  0  0  0
  141.4890   78.2770  219.4310 C   0  0  0  0  0  0  0  0  0  0  0  0
  141.9300   77.3280  220.5110 C   0  0  0  0  0  0  0  0  0  0  0  0
  141.1240   77.4220  221.7630 C   0  0  1  0  0  0  0  0  0  0  0  0
  141.3620   78.6840  222.4620 C   0  0  0  0  0  0  0  0  0  0  0  0
  140.4250   79.3820  223.1880 C   0  0  0  0  0  0  0  0  0  0  0  0
  140.6910   80.5720  223.8340 C   0  0  0  0  0  0  0  0  0  0  0  0
  141.9650   81.0990  223.7520 C   0  0  0  0  0  0  0  0  0  0  0  0
  142.8860   80.3810  223.0180 C   0  0  0  0  0  0  0  0  0  0  0  0
  142.5990   79.2220  222.3980 N   0  0  0  0  0  0  0  0  0  0  0  0
  139.5250   71.5050  223.1110 C   0  0  0  0  0  0  0  0  0  0  0  0
  139.1790   70.1840  222.9020 C   0  0  0  0  0  0  0  0  0  0  0  0
  139.3990   69.2630  223.9330 C   0  0  0  0  0  0  0  0  0  0  0  0
  139.9540   69.6660  225.1430 C   0  0  0  0  0  0  0  0  0  0  0  0
  140.1910   68.8060  226.1840 C   0  0  0  0  0  0  0  0  0  0  0  0
  140.7450   69.2730  227.3610 C   0  0  0  0  0  0  0  0  0  0  0  0
  141.0650   68.1990  228.7240 Cl  0  0  0  0  0  0  0  0  0  0  0  0
  141.0660   70.6040  227.4970 C   0  0  0  0  0  0  0  0  0  0  0  0
  140.8250   71.4660  226.4450 C   0  0  0  0  0  0  0  0  0  0  0  0
  140.2720   71.0010  225.2710 C   0  0  0  0  0  0  0  0  0  0  0  0
  140.0630   71.8920  224.2860 N   0  0  0  0  0  0  0  0  0  0  0  0
  139.5750   74.1440  223.3390 H   0  0  0  0  0  0  0  0  0  0  0  0
  140.0324   74.8790  220.6496 H   0  0  0  0  0  0  0  0  0  0  0  0
  138.2484   74.5646  220.7468 H   0  0  0  0  0  0  0  0  0  0  0  0
  138.5574   77.7381  219.6912 H   0  0  0  0  0  0  0  0  0  0  0  0
  138.5836   78.9771  221.0252 H   0  0  0  0  0  0  0  0  0  0  0  0
  139.8178   79.3758  218.7675 H   0  0  0  0  0  0  0  0  0  0  0  0
  140.5258   79.8437  220.4039 H   0  0  0  0  0  0  0  0  0  0  0  0
  141.3305   77.6960  218.5105 H   0  0  0  0  0  0  0  0  0  0  0  0
  142.2851   79.0307  219.3413 H   0  0  0  0  0  0  0  0  0  0  0  0
  141.8505   76.3014  220.1239 H   0  0  0  0  0  0  0  0  0  0  0  0
  142.9626   77.6007  220.7742 H   0  0  0  0  0  0  0  0  0  0  0  0
  141.4079   76.6339  222.4759 H   0  0  0  0  0  0  0  0  0  0  0  0
  139.4079   78.9689  223.2574 H   0  0  0  0  0  0  0  0  0  0  0  0
  139.9046   81.0901  224.4025 H   0  0  0  0  0  0  0  0  0  0  0  0
  142.2319   82.0442  224.2473 H   0  0  0  0  0  0  0  0  0  0  0  0
  143.9090   80.7768  222.9352 H   0  0  0  0  0  0  0  0  0  0  0  0
  138.7400   69.8627  221.9459 H   0  0  0  0  0  0  0  0  0  0  0  0
  139.1295   68.2070  223.7843 H   0  0  0  0  0  0  0  0  0  0  0  0
  139.9392   67.7401  226.0821 H   0  0  0  0  0  0  0  0  0  0  0  0
  141.5091   70.9771  228.4321 H   0  0  0  0  0  0  0  0  0  0  0  0
  141.0764   72.5322  226.5448 H   0  0  0  0  0  0  0  0  0  0  0  0
  1  2  2  0
  2  3  1  0
  3  4  1  0
  4  5  1  0
  5  6  2  0
  5  7  1  0
  7  8  1  0
  8  9  1  0
  9 10  1  0
 10 11  1  0
 11 12  1  0
 12 13  1  0
 13 14  2  0
 14 15  1  0
 15 16  2  0
 16 17  1  0
 17 18  2  0
  2 19  1  0
 19 20  2  0
 20 21  1  0
 21 22  2  0
 22 23  1  0
 23 24  2  0
 24 25  1  0
 24 26  1  0
 26 27  2  0
 27 28  1  0
 28 29  2  0
 12  7  1  0
 18 13  1  0
 29 19  1  0
 28 22  1  0
  3 30  1  0
  4 31  1  0
  4 32  1  0
  8 33  1  0
  8 34  1  0
  9 35  1  0
  9 36  1  0
 10 37  1  0
 10 38  1  0
 11 39  1  0
 11 40  1  0
 12 41  1  1
 14 42  1  0
 15 43  1  0
 16 44  1  0
 17 45  1  0
 20 46  1  0
 21 47  1  0
 23 48  1  0
 26 49  1  0
 27 50  1  0
M  END
>  <smiles>  (75) 
O=C(NCC(=O)N1CCCCC1c1ccccn1)c1ccc2cc(Cl)ccc2n1

>  <score_type>  (75) 
oracle

>  <origin>  (75) 
autodockgpu

>  <m_score__min__energy>  (75) 
-8.9399999999999995

>  <m_primary>  (75) 
energy

>  <rmsd>  (75) 
2.5475831553641273

>  <m_score__min__rmsd>  (75) 
2.5475831553641273

>  <meeko>  (75) 
{"free_energy": -8.64, "intermolecular_energy": -10.13, "internal_energy": -1.71, "cluster_size": 40, "cluster_id": 1, "rank_in_cluster": 13}

>  <energy>  (75) 
-8.54

>  <cluster_rmsd>  (75) 
1.75

>  <cluster>  (75) 
1

$$$$

     RDKit          3D

 50 53  0  0  0  0  0  0  0  0999 V2000
  137.5920   71.4680  221.2970 O   0  0  0  0  0  0  0  0  0  0  0  0
  138.2830   71.9250  222.2520 C   0  0  0  0  0  0  0  0  0  0  0  0
  138.6430   73.2990  222.3030 N   0  0  0  0  0  0  0  0  0  0  0  0
  138.2150   74.1970  221.2520 C   0  0  0  0  0  0  0  0  0  0  0  0
  138.1080   75.5910  221.7300 C   0  0  0  0  0  0  0  0  0  0  0  0
  137.1470   75.9250  222.4690 O   0  0  0  0  0  0  0  0  0  0  0  0
  139.1100   76.5200  221.3330 N   0  0  0  0  0  0  0  0  0  0  0  0
  138.9330   77.3920  220.1880 C   0  0  0  0  0  0  0  0  0  0  0  0
  140.2200   77.9710  219.7010 C   0  0  0  0  0  0  0  0  0  0  0  0
  141.4170   77.0970  219.8520 C   0  0  0  0  0  0  0  0  0  0  0  0
  141.4580   76.2860  221.1180 C   0  0  0  0  0  0  0  0  0  0  0  0
  140.3710   76.6190  222.0840 C   0  0  1  0  0  0  0  0  0  0  0  0
  140.5540   77.9490  222.6620 C   0  0  0  0  0  0  0  0  0  0  0  0
  141.7660   78.5630  222.8830 C   0  0  0  0  0  0  0  0  0  0  0  0
  141.8940   79.8220  223.4320 C   0  0  0  0  0  0  0  0  0  0  0  0
  140.7510   80.5100  223.7840 C   0  0  0  0  0  0  0  0  0  0  0  0
  139.5490   79.8740  223.5540 C   0  0  0  0  0  0  0  0  0  0  0  0
  139.4520   78.6450  223.0160 N   0  0  0  0  0  0  0  0  0  0  0  0
  138.7260   71.0260  223.3260 C   0  0  0  0  0  0  0  0  0  0  0  0
  138.4090   69.6820  223.2620 C   0  0  0  0  0  0  0  0  0  0  0  0
  138.8390   68.8430  224.2960 C   0  0  0  0  0  0  0  0  0  0  0  0
  139.5700   69.3460  225.3660 C   0  0  0  0  0  0  0  0  0  0  0  0
  140.0150   68.5690  226.4040 C   0  0  0  0  0  0  0  0  0  0  0  0
  140.7370   69.1330  227.4380 C   0  0  0  0  0  0  0  0  0  0  0  0
  141.3280   68.1670  228.7910 Cl  0  0  0  0  0  0  0  0  0  0  0  0
  141.0160   70.4810  227.4350 C   0  0  0  0  0  0  0  0  0  0  0  0
  140.5650   71.2590  226.3870 C   0  0  0  0  0  0  0  0  0  0  0  0
  139.8450   70.6970  225.3560 C   0  0  0  0  0  0  0  0  0  0  0  0
  139.4350   71.5100  224.3660 N   0  0  0  0  0  0  0  0  0  0  0  0
  139.2180   73.6210  223.1190 H   0  0  0  0  0  0  0  0  0  0  0  0
  138.9456   74.1575  220.4306 H   0  0  0  0  0  0  0  0  0  0  0  0
  137.2196   73.8751  220.9121 H   0  0  0  0  0  0  0  0  0  0  0  0
  138.4763   76.8130  219.3718 H   0  0  0  0  0  0  0  0  0  0  0  0
  138.2905   78.2276  220.5026 H   0  0  0  0  0  0  0  0  0  0  0  0
  140.1035   78.2037  218.6322 H   0  0  0  0  0  0  0  0  0  0  0  0
  140.4102   78.8531  220.3300 H   0  0  0  0  0  0  0  0  0  0  0  0
  141.4407   76.4011  219.0004 H   0  0  0  0  0  0  0  0  0  0  0  0
  142.2858   77.7706  219.8909 H   0  0  0  0  0  0  0  0  0  0  0  0
  141.3705   75.2225  220.8511 H   0  0  0  0  0  0  0  0  0  0  0  0
  142.4106   76.5191  221.6161 H   0  0  0  0  0  0  0  0  0  0  0  0
  140.3748   75.9255  222.9378 H   0  0  0  0  0  0  0  0  0  0  0  0
  142.6821   78.0203  222.6068 H   0  0  0  0  0  0  0  0  0  0  0  0
  142.8874   80.2685  223.5861 H   0  0  0  0  0  0  0  0  0  0  0  0
  140.7962   81.5162  224.2263 H   0  0  0  0  0  0  0  0  0  0  0  0
  138.6212   80.3993  223.8247 H   0  0  0  0  0  0  0  0  0  0  0  0
  137.8311   69.2807  222.4164 H   0  0  0  0  0  0  0  0  0  0  0  0
  138.5953   67.7709  224.2617 H   0  0  0  0  0  0  0  0  0  0  0  0
  139.7961   67.4910  226.4137 H   0  0  0  0  0  0  0  0  0  0  0  0
  141.5909   70.9327  228.2569 H   0  0  0  0  0  0  0  0  0  0  0  0
  140.7827   72.3372  226.3755 H   0  0  0  0  0  0  0  0  0  0  0  0
  1  2  2  0
  2  3  1  0
  3  4  1  0
  4  5  1  0
  5  6  2  0
  5  7  1  0
  7  8  1  0
  8  9  1  0
  9 10  1  0
 10 11  1  0
 11 12  1  0
 12 13  1  0
 13 14  2  0
 14 15  1  0
 15 16  2  0
 16 17  1  0
 17 18  2  0
  2 19  1  0
 19 20  2  0
 20 21  1  0
 21 22  2  0
 22 23  1  0
 23 24  2  0
 24 25  1  0
 24 26  1  0
 26 27  2  0
 27 28  1  0
 28 29  2  0
 12  7  1  0
 18 13  1  0
 29 19  1  0
 28 22  1  0
  3 30  1  0
  4 31  1  0
  4 32  1  0
  8 33  1  0
  8 34  1  0
  9 35  1  0
  9 36  1  0
 10 37  1  0
 10 38  1  0
 11 39  1  0
 11 40  1  0
 12 41  1  1
 14 42  1  0
 15 43  1  0
 16 44  1  0
 17 45  1  0
 20 46  1  0
 21 47  1  0
 23 48  1  0
 26 49  1  0
 27 50  1  0
M  END
>  <smiles>  (76) 
O=C(NCC(=O)N1CCCCC1c1ccccn1)c1ccc2cc(Cl)ccc2n1

>  <score_type>  (76) 
oracle

>  <origin>  (76) 
autodockgpu

>  <m_score__min__energy>  (76) 
-8.9399999999999995

>  <m_primary>  (76) 
energy

>  <rmsd>  (76) 
2.3883755426560858

>  <m_score__min__rmsd>  (76) 
2.3883755426560858

>  <meeko>  (76) 
{"free_energy": -8.04, "intermolecular_energy": -9.54, "internal_energy": -1.74, "cluster_size": 40, "cluster_id": 1, "rank_in_cluster": 37}

>  <energy>  (76) 
-8.53

>  <cluster_rmsd>  (76) 
1.7

>  <cluster>  (76) 
1

$$$$

     RDKit          3D

 50 53  0  0  0  0  0  0  0  0999 V2000
  140.9090   73.0750  221.3900 O   0  0  0  0  0  0  0  0  0  0  0  0
  139.9880   73.0100  222.2540 C   0  0  0  0  0  0  0  0  0  0  0  0
  138.9270   73.9550  222.2650 N   0  0  0  0  0  0  0  0  0  0  0  0
  138.8890   75.0100  221.2750 C   0  0  0  0  0  0  0  0  0  0  0  0
  138.7980   76.3470  221.8990 C   0  0  0  0  0  0  0  0  0  0  0  0
  138.0040   76.5350  222.8550 O   0  0  0  0  0  0  0  0  0  0  0  0
  139.6230   77.3870  221.3880 N   0  0  0  0  0  0  0  0  0  0  0  0
  139.1100   78.3910  220.4770 C   0  0  0  0  0  0  0  0  0  0  0  0
  140.1950   79.1180  219.7530 C   0  0  0  0  0  0  0  0  0  0  0  0
  141.4120   78.3160  219.4430 C   0  0  0  0  0  0  0  0  0  0  0  0
  141.8260   77.3450  220.5150 C   0  0  0  0  0  0  0  0  0  0  0  0
  141.0390   77.4690  221.7770 C   0  0  1  0  0  0  0  0  0  0  0  0
  141.3380   78.7180  222.4760 C   0  0  0  0  0  0  0  0  0  0  0  0
  142.5680   79.3330  222.5220 C   0  0  0  0  0  0  0  0  0  0  0  0
  142.8060   80.5140  223.1940 C   0  0  0  0  0  0  0  0  0  0  0  0
  141.7600   81.1180  223.8620 C   0  0  0  0  0  0  0  0  0  0  0  0
  140.5380   80.4830  223.8020 C   0  0  0  0  0  0  0  0  0  0  0  0
  140.3320   79.3310  223.1380 N   0  0  0  0  0  0  0  0  0  0  0  0
  140.0130   71.9460  223.2670 C   0  0  0  0  0  0  0  0  0  0  0  0
  139.5420   70.6880  222.9420 C   0  0  0  0  0  0  0  0  0  0  0  0
  139.5740   69.6880  223.9210 C   0  0  0  0  0  0  0  0  0  0  0  0
  140.0670   69.9510  225.1940 C   0  0  0  0  0  0  0  0  0  0  0  0
  140.1210   69.0090  226.1880 C   0  0  0  0  0  0  0  0  0  0  0  0
  140.6240   69.3370  227.4330 C   0  0  0  0  0  0  0  0  0  0  0  0
  140.7100   68.1550  228.7390 Cl  0  0  0  0  0  0  0  0  0  0  0  0
  141.0770   70.6120  227.6840 C   0  0  0  0  0  0  0  0  0  0  0  0
  141.0200   71.5570  226.6790 C   0  0  0  0  0  0  0  0  0  0  0  0
  140.5180   71.2310  225.4370 C   0  0  0  0  0  0  0  0  0  0  0  0
  140.4910   72.1970  224.5020 N   0  0  0  0  0  0  0  0  0  0  0  0
  138.1920   73.8520  223.0060 H   0  0  0  0  0  0  0  0  0  0  0  0
  139.8055   74.9620  220.6685 H   0  0  0  0  0  0  0  0  0  0  0  0
  137.9941   74.8621  220.6527 H   0  0  0  0  0  0  0  0  0  0  0  0
  138.4623   77.8975  219.7374 H   0  0  0  0  0  0  0  0  0  0  0  0
  138.5549   79.1297  221.0738 H   0  0  0  0  0  0  0  0  0  0  0  0
  139.7805   79.4851  218.8025 H   0  0  0  0  0  0  0  0  0  0  0  0
  140.5265   79.9174  220.4321 H   0  0  0  0  0  0  0  0  0  0  0  0
  141.2190   77.7456  218.5225 H   0  0  0  0  0  0  0  0  0  0  0  0
  142.2376   79.0365  219.3465 H   0  0  0  0  0  0  0  0  0  0  0  0
  141.6988   76.3240  220.1259 H   0  0  0  0  0  0  0  0  0  0  0  0
  142.8724   77.5726  220.7665 H   0  0  0  0  0  0  0  0  0  0  0  0
  141.2977   76.6678  222.4849 H   0  0  0  0  0  0  0  0  0  0  0  0
  143.4074   78.8569  221.9941 H   0  0  0  0  0  0  0  0  0  0  0  0
  143.8092   80.9653  223.1974 H   0  0  0  0  0  0  0  0  0  0  0  0
  141.8949   82.0594  224.4148 H   0  0  0  0  0  0  0  0  0  0  0  0
  139.6861   80.9424  224.3247 H   0  0  0  0  0  0  0  0  0  0  0  0
  139.1505   70.4771  221.9359 H   0  0  0  0  0  0  0  0  0  0  0  0
  139.2041   68.6805  223.6798 H   0  0  0  0  0  0  0  0  0  0  0  0
  139.7624   67.9873  225.9942 H   0  0  0  0  0  0  0  0  0  0  0  0
  141.4796   70.8751  228.6733 H   0  0  0  0  0  0  0  0  0  0  0  0
  141.3783   72.5791  226.8710 H   0  0  0  0  0  0  0  0  0  0  0  0
  1  2  2  0
  2  3  1  0
  3  4  1  0
  4  5  1  0
  5  6  2  0
  5  7  1  0
  7  8  1  0
  8  9  1  0
  9 10  1  0
 10 11  1  0
 11 12  1  0
 12 13  1  0
 13 14  2  0
 14 15  1  0
 15 16  2  0
 16 17  1  0
 17 18  2  0
  2 19  1  0
 19 20  2  0
 20 21  1  0
 21 22  2  0
 22 23  1  0
 23 24  2  0
 24 25  1  0
 24 26  1  0
 26 27  2  0
 27 28  1  0
 28 29  2  0
 12  7  1  0
 18 13  1  0
 29 19  1  0
 28 22  1  0
  3 30  1  0
  4 31  1  0
  4 32  1  0
  8 33  1  0
  8 34  1  0
  9 35  1  0
  9 36  1  0
 10 37  1  0
 10 38  1  0
 11 39  1  0
 11 40  1  0
 12 41  1  1
 14 42  1  0
 15 43  1  0
 16 44  1  0
 17 45  1  0
 20 46  1  0
 21 47  1  0
 23 48  1  0
 26 49  1  0
 27 50  1  0
M  END
>  <smiles>  (77) 
O=C(NCC(=O)N1CCCCC1c1ccccn1)c1ccc2cc(Cl)ccc2n1

>  <score_type>  (77) 
oracle

>  <origin>  (77) 
autodockgpu

>  <m_score__min__energy>  (77) 
-8.9399999999999995

>  <m_primary>  (77) 
energy

>  <rmsd>  (77) 
2.586771591836382

>  <m_score__min__rmsd>  (77) 
2.586771591836382

>  <meeko>  (77) 
{"free_energy": -8.93, "intermolecular_energy": -10.42, "internal_energy": -1.6, "cluster_size": 40, "cluster_id": 1, "rank_in_cluster": 2}

>  <energy>  (77) 
-8.53

>  <cluster_rmsd>  (77) 
1.01

>  <cluster>  (77) 
1

$$$$

     RDKit          3D

 50 53  0  0  0  0  0  0  0  0999 V2000
  139.6160   72.7670  220.4230 O   0  0  0  0  0  0  0  0  0  0  0  0
  139.3780   73.0070  221.6420 C   0  0  0  0  0  0  0  0  0  0  0  0
  138.9320   74.2890  222.0610 N   0  0  0  0  0  0  0  0  0  0  0  0
  138.7410   75.3410  221.0870 C   0  0  0  0  0  0  0  0  0  0  0  0
  138.7450   76.6790  221.7150 C   0  0  0  0  0  0  0  0  0  0  0  0
  137.9190   76.9420  222.6260 O   0  0  0  0  0  0  0  0  0  0  0  0
  139.6950   77.6350  221.2610 N   0  0  0  0  0  0  0  0  0  0  0  0
  139.3500   78.6530  220.2880 C   0  0  0  0  0  0  0  0  0  0  0  0
  140.5510   79.2700  219.6500 C   0  0  0  0  0  0  0  0  0  0  0  0
  141.7190   78.3630  219.4670 C   0  0  0  0  0  0  0  0  0  0  0  0
  141.9550   77.3920  220.5910 C   0  0  0  0  0  0  0  0  0  0  0  0
  141.0740   77.6130  221.7740 C   0  0  1  0  0  0  0  0  0  0  0  0
  141.4120   78.8510  222.4730 C   0  0  0  0  0  0  0  0  0  0  0  0
  142.6850   79.3420  222.6580 C   0  0  0  0  0  0  0  0  0  0  0  0
  142.9600   80.5170  223.3240 C   0  0  0  0  0  0  0  0  0  0  0  0
  141.9090   81.2490  223.8390 C   0  0  0  0  0  0  0  0  0  0  0  0
  140.6430   80.7370  223.6410 C   0  0  0  0  0  0  0  0  0  0  0  0
  140.4020   79.5870  222.9860 N   0  0  0  0  0  0  0  0  0  0  0  0
  139.5690   71.9490  222.6430 C   0  0  0  0  0  0  0  0  0  0  0  0
  139.2060   70.6510  222.3380 C   0  0  0  0  0  0  0  0  0  0  0  0
  139.3940   69.6580  223.3070 C   0  0  0  0  0  0  0  0  0  0  0  0
  139.9340   69.9670  224.5490 C   0  0  0  0  0  0  0  0  0  0  0  0
  140.1390   69.0330  225.5320 C   0  0  0  0  0  0  0  0  0  0  0  0
  140.6810   69.4080  226.7470 C   0  0  0  0  0  0  0  0  0  0  0  0
  140.9600   68.2380  228.0380 Cl  0  0  0  0  0  0  0  0  0  0  0  0
  141.0200   70.7210  226.9810 C   0  0  0  0  0  0  0  0  0  0  0  0
  140.8100   71.6570  225.9870 C   0  0  0  0  0  0  0  0  0  0  0  0
  140.2700   71.2840  224.7750 C   0  0  0  0  0  0  0  0  0  0  0  0
  140.0920   72.2440  223.8500 N   0  0  0  0  0  0  0  0  0  0  0  0
  138.7520   74.4290  223.0840 H   0  0  0  0  0  0  0  0  0  0  0  0
  139.5535   75.2927  220.3471 H   0  0  0  0  0  0  0  0  0  0  0  0
  137.7614   75.1907  220.6096 H   0  0  0  0  0  0  0  0  0  0  0  0
  138.7309   78.1942  219.5030 H   0  0  0  0  0  0  0  0  0  0  0  0
  138.8087   79.4502  220.8185 H   0  0  0  0  0  0  0  0  0  0  0  0
  140.2537   79.6435  218.6590 H   0  0  0  0  0  0  0  0  0  0  0  0
  140.8869   80.0586  220.3394 H   0  0  0  0  0  0  0  0  0  0  0  0
  141.5602   77.7847  218.5448 H   0  0  0  0  0  0  0  0  0  0  0  0
  142.6072   79.0109  219.4303 H   0  0  0  0  0  0  0  0  0  0  0  0
  141.7784   76.3743  220.2127 H   0  0  0  0  0  0  0  0  0  0  0  0
  142.9904   77.5418  220.9309 H   0  0  0  0  0  0  0  0  0  0  0  0
  141.2031   76.8128  222.5176 H   0  0  0  0  0  0  0  0  0  0  0  0
  143.5288   78.7649  222.2520 H   0  0  0  0  0  0  0  0  0  0  0  0
  143.9968   80.8647  223.4428 H   0  0  0  0  0  0  0  0  0  0  0  0
  142.0725   82.1928  224.3799 H   0  0  0  0  0  0  0  0  0  0  0  0
  139.7856   81.2989  224.0399 H   0  0  0  0  0  0  0  0  0  0  0  0
  138.7786   70.4033  221.3552 H   0  0  0  0  0  0  0  0  0  0  0  0
  139.1103   68.6193  223.0818 H   0  0  0  0  0  0  0  0  0  0  0  0
  139.8711   67.9813  225.3529 H   0  0  0  0  0  0  0  0  0  0  0  0
  141.4525   71.0213  227.9468 H   0  0  0  0  0  0  0  0  0  0  0  0
  141.0761   72.7095  226.1644 H   0  0  0  0  0  0  0  0  0  0  0  0
  1  2  2  0
  2  3  1  0
  3  4  1  0
  4  5  1  0
  5  6  2  0
  5  7  1  0
  7  8  1  0
  8  9  1  0
  9 10  1  0
 10 11  1  0
 11 12  1  0
 12 13  1  0
 13 14  2  0
 14 15  1  0
 15 16  2  0
 16 17  1  0
 17 18  2  0
  2 19  1  0
 19 20  2  0
 20 21  1  0
 21 22  2  0
 22 23  1  0
 23 24  2  0
 24 25  1  0
 24 26  1  0
 26 27  2  0
 27 28  1  0
 28 29  2  0
 12  7  1  0
 18 13  1  0
 29 19  1  0
 28 22  1  0
  3 30  1  0
  4 31  1  0
  4 32  1  0
  8 33  1  0
  8 34  1  0
  9 35  1  0
  9 36  1  0
 10 37  1  0
 10 38  1  0
 11 39  1  0
 11 40  1  0
 12 41  1  1
 14 42  1  0
 15 43  1  0
 16 44  1  0
 17 45  1  0
 20 46  1  0
 21 47  1  0
 23 48  1  0
 26 49  1  0
 27 50  1  0
M  END
>  <smiles>  (78) 
O=C(NCC(=O)N1CCCCC1c1ccccn1)c1ccc2cc(Cl)ccc2n1

>  <score_type>  (78) 
oracle

>  <origin>  (78) 
autodockgpu

>  <m_score__min__energy>  (78) 
-8.9399999999999995

>  <m_primary>  (78) 
energy

>  <rmsd>  (78) 
2.703483313121272

>  <m_score__min__rmsd>  (78) 
2.703483313121272

>  <meeko>  (78) 
{"free_energy": -8.51, "intermolecular_energy": -10.0, "internal_energy": -1.68, "cluster_size": 40, "cluster_id": 1, "rank_in_cluster": 29}

>  <energy>  (78) 
-8.51

>  <cluster_rmsd>  (78) 
0.95

>  <cluster>  (78) 
1

$$$$

     RDKit          3D

 50 53  0  0  0  0  0  0  0  0999 V2000
  140.4200   72.6220  220.8580 O   0  0  0  0  0  0  0  0  0  0  0  0
  140.0250   72.9210  222.0220 C   0  0  0  0  0  0  0  0  0  0  0  0
  139.5750   74.2330  222.3270 N   0  0  0  0  0  0  0  0  0  0  0  0
  139.5620   75.2500  221.2970 C   0  0  0  0  0  0  0  0  0  0  0  0
  139.2020   76.5770  221.8400 C   0  0  0  0  0  0  0  0  0  0  0  0
  138.2640   76.6770  222.6700 O   0  0  0  0  0  0  0  0  0  0  0  0
  139.9400   77.7100  221.3970 N   0  0  0  0  0  0  0  0  0  0  0  0
  139.3150   78.7880  220.6560 C   0  0  0  0  0  0  0  0  0  0  0  0
  140.3060   79.6470  219.9440 C   0  0  0  0  0  0  0  0  0  0  0  0
  141.5250   78.9480  219.4470 C   0  0  0  0  0  0  0  0  0  0  0  0
  142.0640   77.8810  220.3600 C   0  0  0  0  0  0  0  0  0  0  0  0
  141.3790   77.8170  221.6840 C   0  0  1  0  0  0  0  0  0  0  0  0
  141.6830   78.9880  222.5040 C   0  0  0  0  0  0  0  0  0  0  0  0
  142.9430   79.4760  222.7630 C   0  0  0  0  0  0  0  0  0  0  0  0
  143.1860   80.5870  223.5430 C   0  0  0  0  0  0  0  0  0  0  0  0
  142.1120   81.2530  224.1000 C   0  0  0  0  0  0  0  0  0  0  0  0
  140.8600   80.7440  223.8270 C   0  0  0  0  0  0  0  0  0  0  0  0
  140.6510   79.6580  223.0610 N   0  0  0  0  0  0  0  0  0  0  0  0
  140.0320   71.9000  223.0790 C   0  0  0  0  0  0  0  0  0  0  0  0
  139.5360   70.6390  222.8090 C   0  0  0  0  0  0  0  0  0  0  0  0
  139.5510   69.6810  223.8300 C   0  0  0  0  0  0  0  0  0  0  0  0
  140.0530   69.9880  225.0880 C   0  0  0  0  0  0  0  0  0  0  0  0
  140.0920   69.0880  226.1220 C   0  0  0  0  0  0  0  0  0  0  0  0
  140.6050   69.4590  227.3500 C   0  0  0  0  0  0  0  0  0  0  0  0
  140.6720   68.3310  228.7050 Cl  0  0  0  0  0  0  0  0  0  0  0  0
  141.0840   70.7340  227.5470 C   0  0  0  0  0  0  0  0  0  0  0  0
  141.0420   71.6370  226.5020 C   0  0  0  0  0  0  0  0  0  0  0  0
  140.5300   71.2680  225.2770 C   0  0  0  0  0  0  0  0  0  0  0  0
  140.5190   72.1930  224.3020 N   0  0  0  0  0  0  0  0  0  0  0  0
  139.2600   74.4230  223.3090 H   0  0  0  0  0  0  0  0  0  0  0  0
  140.5624   75.3103  220.8436 H   0  0  0  0  0  0  0  0  0  0  0  0
  138.8052   74.9698  220.5495 H   0  0  0  0  0  0  0  0  0  0  0  0
  138.6286   78.3536  219.9143 H   0  0  0  0  0  0  0  0  0  0  0  0
  138.7829   79.4236  221.3791 H   0  0  0  0  0  0  0  0  0  0  0  0
  139.8003   80.1015  219.0793 H   0  0  0  0  0  0  0  0  0  0  0  0
  140.6598   80.3771  220.6868 H   0  0  0  0  0  0  0  0  0  0  0  0
  141.2801   78.4796  218.4823 H   0  0  0  0  0  0  0  0  0  0  0  0
  142.3102   79.7149  219.3740 H   0  0  0  0  0  0  0  0  0  0  0  0
  141.9471   76.9072  219.8619 H   0  0  0  0  0  0  0  0  0  0  0  0
  143.1171   78.1304  220.5566 H   0  0  0  0  0  0  0  0  0  0  0  0
  141.7275   76.9526  222.2683 H   0  0  0  0  0  0  0  0  0  0  0  0
  143.8040   78.9510  222.3237 H   0  0  0  0  0  0  0  0  0  0  0  0
  144.2145   80.9357  223.7180 H   0  0  0  0  0  0  0  0  0  0  0  0
  142.2485   82.1445  224.7297 H   0  0  0  0  0  0  0  0  0  0  0  0
  139.9855   81.2530  224.2585 H   0  0  0  0  0  0  0  0  0  0  0  0
  139.1379   70.3930  221.8135 H   0  0  0  0  0  0  0  0  0  0  0  0
  139.1600   68.6719  223.6331 H   0  0  0  0  0  0  0  0  0  0  0  0
  139.7131   68.0661  225.9730 H   0  0  0  0  0  0  0  0  0  0  0  0
  141.4949   71.0303  228.5234 H   0  0  0  0  0  0  0  0  0  0  0  0
  141.4206   72.6593  226.6492 H   0  0  0  0  0  0  0  0  0  0  0  0
  1  2  2  0
  2  3  1  0
  3  4  1  0
  4  5  1  0
  5  6  2  0
  5  7  1  0
  7  8  1  0
  8  9  1  0
  9 10  1  0
 10 11  1  0
 11 12  1  0
 12 13  1  0
 13 14  2  0
 14 15  1  0
 15 16  2  0
 16 17  1  0
 17 18  2  0
  2 19  1  0
 19 20  2  0
 20 21  1  0
 21 22  2  0
 22 23  1  0
 23 24  2  0
 24 25  1  0
 24 26  1  0
 26 27  2  0
 27 28  1  0
 28 29  2  0
 12  7  1  0
 18 13  1  0
 29 19  1  0
 28 22  1  0
  3 30  1  0
  4 31  1  0
  4 32  1  0
  8 33  1  0
  8 34  1  0
  9 35  1  0
  9 36  1  0
 10 37  1  0
 10 38  1  0
 11 39  1  0
 11 40  1  0
 12 41  1  1
 14 42  1  0
 15 43  1  0
 16 44  1  0
 17 45  1  0
 20 46  1  0
 21 47  1  0
 23 48  1  0
 26 49  1  0
 27 50  1  0
M  END
>  <smiles>  (79) 
O=C(NCC(=O)N1CCCCC1c1ccccn1)c1ccc2cc(Cl)ccc2n1

>  <score_type>  (79) 
oracle

>  <origin>  (79) 
autodockgpu

>  <m_score__min__energy>  (79) 
-8.9399999999999995

>  <m_primary>  (79) 
energy

>  <rmsd>  (79) 
2.8082253970187505

>  <m_score__min__rmsd>  (79) 
2.8082253970187505

>  <meeko>  (79) 
{"free_energy": -8.91, "intermolecular_energy": -10.4, "internal_energy": -1.63, "cluster_size": 40, "cluster_id": 1, "rank_in_cluster": 4}

>  <energy>  (79) 
-8.51

>  <cluster_rmsd>  (79) 
0.5

>  <cluster>  (79) 
1

$$$$

     RDKit          3D

 50 53  0  0  0  0  0  0  0  0999 V2000
  139.4050   72.6170  220.5590 O   0  0  0  0  0  0  0  0  0  0  0  0
  139.5240   72.9580  221.7710 C   0  0  0  0  0  0  0  0  0  0  0  0
  139.4820   74.3260  222.1530 N   0  0  0  0  0  0  0  0  0  0  0  0
  139.2970   75.3510  221.1490 C   0  0  0  0  0  0  0  0  0  0  0  0
  140.5610   76.0540  220.8420 C   0  0  0  0  0  0  0  0  0  0  0  0
  141.4440   75.4780  220.1580 O   0  0  0  0  0  0  0  0  0  0  0  0
  140.7360   77.3750  221.3400 N   0  0  0  0  0  0  0  0  0  0  0  0
  141.2970   78.4320  220.5210 C   0  0  0  0  0  0  0  0  0  0  0  0
  141.7720   79.5940  221.3280 C   0  0  0  0  0  0  0  0  0  0  0  0
  142.3170   79.2630  222.6750 C   0  0  0  0  0  0  0  0  0  0  0  0
  141.5920   78.1650  223.4040 C   0  0  0  0  0  0  0  0  0  0  0  0
  140.3470   77.7070  222.7190 C   0  0  1  0  0  0  0  0  0  0  0  0
  139.3040   78.7300  222.7580 C   0  0  0  0  0  0  0  0  0  0  0  0
  138.2500   78.8280  221.8780 C   0  0  0  0  0  0  0  0  0  0  0  0
  137.2850   79.8120  221.9500 C   0  0  0  0  0  0  0  0  0  0  0  0
  137.3740   80.7540  222.9560 C   0  0  0  0  0  0  0  0  0  0  0  0
  138.4390   80.6340  223.8240 C   0  0  0  0  0  0  0  0  0  0  0  0
  139.3660   79.6640  223.7310 N   0  0  0  0  0  0  0  0  0  0  0  0
  139.7130   71.9290  222.8030 C   0  0  0  0  0  0  0  0  0  0  0  0
  139.3840   70.6170  222.5220 C   0  0  0  0  0  0  0  0  0  0  0  0
  139.5700   69.6520  223.5180 C   0  0  0  0  0  0  0  0  0  0  0  0
  140.0760   70.0020  224.7650 C   0  0  0  0  0  0  0  0  0  0  0  0
  140.2780   69.0980  225.7750 C   0  0  0  0  0  0  0  0  0  0  0  0
  140.7840   69.5130  226.9920 C   0  0  0  0  0  0  0  0  0  0  0  0
  141.0580   68.3810  228.3170 Cl  0  0  0  0  0  0  0  0  0  0  0  0
  141.0910   70.8380  227.2000 C   0  0  0  0  0  0  0  0  0  0  0  0
  140.8850   71.7450  226.1790 C   0  0  0  0  0  0  0  0  0  0  0  0
  140.3800   71.3320  224.9650 C   0  0  0  0  0  0  0  0  0  0  0  0
  140.2040   72.2640  224.0130 N   0  0  0  0  0  0  0  0  0  0  0  0
  139.5870   74.5490  223.1730 H   0  0  0  0  0  0  0  0  0  0  0  0
  138.9171   74.8834  220.2287 H   0  0  0  0  0  0  0  0  0  0  0  0
  138.5822   76.0891  221.5418 H   0  0  0  0  0  0  0  0  0  0  0  0
  142.1479   78.0249  219.9551 H   0  0  0  0  0  0  0  0  0  0  0  0
  140.5010   78.7937  219.8535 H   0  0  0  0  0  0  0  0  0  0  0  0
  142.5643   80.1008  220.7576 H   0  0  0  0  0  0  0  0  0  0  0  0
  140.8844   80.2183  221.5078 H   0  0  0  0  0  0  0  0  0  0  0  0
  143.3660   78.9557  222.5522 H   0  0  0  0  0  0  0  0  0  0  0  0
  142.1950   80.1694  223.2862 H   0  0  0  0  0  0  0  0  0  0  0  0
  142.2713   77.3052  223.5002 H   0  0  0  0  0  0  0  0  0  0  0  0
  141.2893   78.5735  224.3795 H   0  0  0  0  0  0  0  0  0  0  0  0
  139.9156   76.8313  223.2259 H   0  0  0  0  0  0  0  0  0  0  0  0
  138.1727   78.0815  221.0738 H   0  0  0  0  0  0  0  0  0  0  0  0
  136.4619   79.8453  221.2211 H   0  0  0  0  0  0  0  0  0  0  0  0
  136.6324   81.5598  223.0598 H   0  0  0  0  0  0  0  0  0  0  0  0
  138.5354   81.3706  224.6353 H   0  0  0  0  0  0  0  0  0  0  0  0
  138.9843   70.3369  221.5362 H   0  0  0  0  0  0  0  0  0  0  0  0
  139.3125   68.6026  223.3118 H   0  0  0  0  0  0  0  0  0  0  0  0
  140.0361   68.0368  225.6161 H   0  0  0  0  0  0  0  0  0  0  0  0
  141.4954   71.1707  228.1673 H   0  0  0  0  0  0  0  0  0  0  0  0
  141.1262   72.8067  226.3362 H   0  0  0  0  0  0  0  0  0  0  0  0
  1  2  2  0
  2  3  1  0
  3  4  1  0
  4  5  1  0
  5  6  2  0
  5  7  1  0
  7  8  1  0
  8  9  1  0
  9 10  1  0
 10 11  1  0
 11 12  1  0
 12 13  1  0
 13 14  2  0
 14 15  1  0
 15 16  2  0
 16 17  1  0
 17 18  2  0
  2 19  1  0
 19 20  2  0
 20 21  1  0
 21 22  2  0
 22 23  1  0
 23 24  2  0
 24 25  1  0
 24 26  1  0
 26 27  2  0
 27 28  1  0
 28 29  2  0
 12  7  1  0
 18 13  1  0
 29 19  1  0
 28 22  1  0
  3 30  1  0
  4 31  1  0
  4 32  1  0
  8 33  1  0
  8 34  1  0
  9 35  1  0
  9 36  1  0
 10 37  1  0
 10 38  1  0
 11 39  1  0
 11 40  1  0
 12 41  1  1
 14 42  1  0
 15 43  1  0
 16 44  1  0
 17 45  1  0
 20 46  1  0
 21 47  1  0
 23 48  1  0
 26 49  1  0
 27 50  1  0
M  END
>  <smiles>  (80) 
O=C(NCC(=O)N1CCCCC1c1ccccn1)c1ccc2cc(Cl)ccc2n1

>  <score_type>  (80) 
oracle

>  <origin>  (80) 
autodockgpu

>  <m_score__min__energy>  (80) 
-8.9399999999999995

>  <m_primary>  (80) 
energy

>  <rmsd>  (80) 
3.3995395876941075

>  <m_score__min__rmsd>  (80) 
3.3995395876941075

>  <meeko>  (80) 
{"free_energy": -7.89, "intermolecular_energy": -9.38, "internal_energy": -1.7, "cluster_size": 40, "cluster_id": 1, "rank_in_cluster": 39}

>  <energy>  (80) 
-8.38

>  <cluster_rmsd>  (80) 
0.66

>  <cluster>  (80) 
1

$$$$

     RDKit          3D

 50 53  0  0  0  0  0  0  0  0999 V2000
  140.6960   73.1540  221.4330 O   0  0  0  0  0  0  0  0  0  0  0  0
  139.7890   73.0030  222.3020 C   0  0  0  0  0  0  0  0  0  0  0  0
  138.6550   73.8590  222.3320 N   0  0  0  0  0  0  0  0  0  0  0  0
  138.5250   74.9200  221.3560 C   0  0  0  0  0  0  0  0  0  0  0  0
  138.6290   76.2560  221.9800 C   0  0  0  0  0  0  0  0  0  0  0  0
  137.8970   76.5450  222.9600 O   0  0  0  0  0  0  0  0  0  0  0  0
  139.5670   77.1810  221.4420 N   0  0  0  0  0  0  0  0  0  0  0  0
  139.1980   78.1290  220.4090 C   0  0  0  0  0  0  0  0  0  0  0  0
  140.3840   78.7030  219.7060 C   0  0  0  0  0  0  0  0  0  0  0  0
  141.5510   77.7890  219.5610 C   0  0  0  0  0  0  0  0  0  0  0  0
  141.8140   76.8970  220.7440 C   0  0  0  0  0  0  0  0  0  0  0  0
  140.9550   77.1970  221.9270 C   0  0  1  0  0  0  0  0  0  0  0  0
  141.3030   78.4820  222.5320 C   0  0  0  0  0  0  0  0  0  0  0  0
  142.5440   79.0730  222.4900 C   0  0  0  0  0  0  0  0  0  0  0  0
  142.8300   80.2890  223.0760 C   0  0  0  0  0  0  0  0  0  0  0  0
  141.8220   80.9560  223.7430 C   0  0  0  0  0  0  0  0  0  0  0  0
  140.5870   80.3430  223.7720 C   0  0  0  0  0  0  0  0  0  0  0  0
  140.3360   79.1550  223.1920 N   0  0  0  0  0  0  0  0  0  0  0  0
  139.9070   71.9310  223.2990 C   0  0  0  0  0  0  0  0  0  0  0  0
  139.5470   70.6420  222.9570 C   0  0  0  0  0  0  0  0  0  0  0  0
  139.6660   69.6350  223.9220 C   0  0  0  0  0  0  0  0  0  0  0  0
  140.1350   69.9220  225.1980 C   0  0  0  0  0  0  0  0  0  0  0  0
  140.2710   68.9750  226.1800 C   0  0  0  0  0  0  0  0  0  0  0  0
  140.7440   69.3280  227.4300 C   0  0  0  0  0  0  0  0  0  0  0  0
  140.9330   68.1390  228.7190 Cl  0  0  0  0  0  0  0  0  0  0  0  0
  141.0840   70.6340  227.6990 C   0  0  0  0  0  0  0  0  0  0  0  0
  140.9450   71.5840  226.7060 C   0  0  0  0  0  0  0  0  0  0  0  0
  140.4730   71.2330  225.4600 C   0  0  0  0  0  0  0  0  0  0  0  0
  140.3620   72.2050  224.5390 N   0  0  0  0  0  0  0  0  0  0  0  0
  137.9360   73.6860  223.0750 H   0  0  0  0  0  0  0  0  0  0  0  0
  139.3231   74.8140  220.6065 H   0  0  0  0  0  0  0  0  0  0  0  0
  137.5318   74.8365  220.8906 H   0  0  0  0  0  0  0  0  0  0  0  0
  138.5647   77.6162  219.6702 H   0  0  0  0  0  0  0  0  0  0  0  0
  138.6642   78.9594  220.8942 H   0  0  0  0  0  0  0  0  0  0  0  0
  140.0654   79.0074  218.6981 H   0  0  0  0  0  0  0  0  0  0  0  0
  140.7312   79.5370  220.3337 H   0  0  0  0  0  0  0  0  0  0  0  0
  141.3755   77.1488  218.6839 H   0  0  0  0  0  0  0  0  0  0  0  0
  142.4357   78.4351  219.4618 H   0  0  0  0  0  0  0  0  0  0  0  0
  141.6339   75.8553  220.4398 H   0  0  0  0  0  0  0  0  0  0  0  0
  142.8556   77.0715  221.0517 H   0  0  0  0  0  0  0  0  0  0  0  0
  141.1011   76.4499  222.7211 H   0  0  0  0  0  0  0  0  0  0  0  0
  143.3526   78.5478  221.9605 H   0  0  0  0  0  0  0  0  0  0  0  0
  143.8408   80.7183  223.0130 H   0  0  0  0  0  0  0  0  0  0  0  0
  141.9953   81.9283  224.2273 H   0  0  0  0  0  0  0  0  0  0  0  0
  139.7645   80.8515  224.2964 H   0  0  0  0  0  0  0  0  0  0  0  0
  139.1747   70.4118  221.9478 H   0  0  0  0  0  0  0  0  0  0  0  0
  139.3845   68.6027  223.6667 H   0  0  0  0  0  0  0  0  0  0  0  0
  140.0023   67.9288  225.9721 H   0  0  0  0  0  0  0  0  0  0  0  0
  141.4617   70.9179  228.6924 H   0  0  0  0  0  0  0  0  0  0  0  0
  141.2137   72.6306  226.9119 H   0  0  0  0  0  0  0  0  0  0  0  0
  1  2  2  0
  2  3  1  0
  3  4  1  0
  4  5  1  0
  5  6  2  0
  5  7  1  0
  7  8  1  0
  8  9  1  0
  9 10  1  0
 10 11  1  0
 11 12  1  0
 12 13  1  0
 13 14  2  0
 14 15  1  0
 15 16  2  0
 16 17  1  0
 17 18  2  0
  2 19  1  0
 19 20  2  0
 20 21  1  0
 21 22  2  0
 22 23  1  0
 23 24  2  0
 24 25  1  0
 24 26  1  0
 26 27  2  0
 27 28  1  0
 28 29  2  0
 12  7  1  0
 18 13  1  0
 29 19  1  0
 28 22  1  0
  3 30  1  0
  4 31  1  0
  4 32  1  0
  8 33  1  0
  8 34  1  0
  9 35  1  0
  9 36  1  0
 10 37  1  0
 10 38  1  0
 11 39  1  0
 11 40  1  0
 12 41  1  1
 14 42  1  0
 15 43  1  0
 16 44  1  0
 17 45  1  0
 20 46  1  0
 21 47  1  0
 23 48  1  0
 26 49  1  0
 27 50  1  0
M  END
>  <smiles>  (81) 
O=C(NCC(=O)N1CCCCC1c1ccccn1)c1ccc2cc(Cl)ccc2n1

>  <score_type>  (81) 
oracle

>  <origin>  (81) 
autodockgpu

>  <m_score__min__energy>  (81) 
-8.9399999999999995

>  <m_primary>  (81) 
energy

>  <rmsd>  (81) 
2.533085167746846

>  <m_score__min__rmsd>  (81) 
2.533085167746846

>  <meeko>  (81) 
{"free_energy": -8.71, "intermolecular_energy": -10.2, "internal_energy": -1.61, "cluster_size": 40, "cluster_id": 1, "rank_in_cluster": 9}

>  <energy>  (81) 
-8.37

>  <cluster_rmsd>  (81) 
0.67

>  <cluster>  (81) 
1

$$$$

     RDKit          3D

 50 53  0  0  0  0  0  0  0  0999 V2000
  139.9220   72.2150  220.6220 O   0  0  0  0  0  0  0  0  0  0  0  0
  139.8020   72.6290  221.8100 C   0  0  0  0  0  0  0  0  0  0  0  0
  139.6250   74.0110  222.0880 N   0  0  0  0  0  0  0  0  0  0  0  0
  139.5780   74.9670  221.0020 C   0  0  0  0  0  0  0  0  0  0  0  0
  140.5290   76.0800  221.2090 C   0  0  0  0  0  0  0  0  0  0  0  0
  141.7550   75.8990  221.0010 O   0  0  0  0  0  0  0  0  0  0  0  0
  140.0150   77.3340  221.6420 N   0  0  0  0  0  0  0  0  0  0  0  0
  139.0170   77.4300  222.6890 C   0  0  0  0  0  0  0  0  0  0  0  0
  138.3250   78.7530  222.7030 C   0  0  0  0  0  0  0  0  0  0  0  0
  138.1420   79.3990  221.3730 C   0  0  0  0  0  0  0  0  0  0  0  0
  139.2930   79.2310  220.4200 C   0  0  0  0  0  0  0  0  0  0  0  0
  140.4910   78.5830  221.0280 C   0  0  1  0  0  0  0  0  0  0  0  0
  141.1360   79.4560  222.0070 C   0  0  0  0  0  0  0  0  0  0  0  0
  141.9500   79.0390  223.0350 C   0  0  0  0  0  0  0  0  0  0  0  0
  142.5400   79.8980  223.9390 C   0  0  0  0  0  0  0  0  0  0  0  0
  142.3060   81.2530  223.8130 C   0  0  0  0  0  0  0  0  0  0  0  0
  141.4870   81.6470  222.7760 C   0  0  0  0  0  0  0  0  0  0  0  0
  140.9240   80.7860  221.9080 N   0  0  0  0  0  0  0  0  0  0  0  0
  139.8480   71.6720  222.9240 C   0  0  0  0  0  0  0  0  0  0  0  0
  139.3410   70.3980  222.7470 C   0  0  0  0  0  0  0  0  0  0  0  0
  139.3930   69.5020  223.8210 C   0  0  0  0  0  0  0  0  0  0  0  0
  139.9420   69.8810  225.0400 C   0  0  0  0  0  0  0  0  0  0  0  0
  140.0180   69.0430  226.1220 C   0  0  0  0  0  0  0  0  0  0  0  0
  140.5770   69.4840  227.3070 C   0  0  0  0  0  0  0  0  0  0  0  0
  140.6930   68.4370  228.7230 Cl  0  0  0  0  0  0  0  0  0  0  0  0
  141.0630   70.7670  227.4110 C   0  0  0  0  0  0  0  0  0  0  0  0
  140.9840   71.6070  226.3170 C   0  0  0  0  0  0  0  0  0  0  0  0
  140.4260   71.1680  225.1350 C   0  0  0  0  0  0  0  0  0  0  0  0
  140.3800   72.0350  224.1090 N   0  0  0  0  0  0  0  0  0  0  0  0
  139.5310   74.2960  223.0930 H   0  0  0  0  0  0  0  0  0  0  0  0
  139.8310   74.4523  220.0633 H   0  0  0  0  0  0  0  0  0  0  0  0
  138.5626   75.3880  220.9607 H   0  0  0  0  0  0  0  0  0  0  0  0
  138.2662   76.6413  222.5334 H   0  0  0  0  0  0  0  0  0  0  0  0
  139.5335   77.3139  223.6532 H   0  0  0  0  0  0  0  0  0  0  0  0
  137.3298   78.6095  223.1491 H   0  0  0  0  0  0  0  0  0  0  0  0
  138.9774   79.4272  223.2773 H   0  0  0  0  0  0  0  0  0  0  0  0
  137.2455   78.9669  220.9045 H   0  0  0  0  0  0  0  0  0  0  0  0
  138.0577   80.4788  221.5652 H   0  0  0  0  0  0  0  0  0  0  0  0
  138.9558   78.6124  219.5752 H   0  0  0  0  0  0  0  0  0  0  0  0
  139.5995   80.2404  220.1082 H   0  0  0  0  0  0  0  0  0  0  0  0
  141.2586   78.3786  220.2671 H   0  0  0  0  0  0  0  0  0  0  0  0
  142.1409   77.9610  223.1420 H   0  0  0  0  0  0  0  0  0  0  0  0
  143.1833   79.5116  224.7433 H   0  0  0  0  0  0  0  0  0  0  0  0
  142.7511   81.9823  224.5059 H   0  0  0  0  0  0  0  0  0  0  0  0
  141.2832   82.7208  222.6516 H   0  0  0  0  0  0  0  0  0  0  0  0
  138.9062   70.0951  221.7830 H   0  0  0  0  0  0  0  0  0  0  0  0
  138.9940   68.4843  223.6985 H   0  0  0  0  0  0  0  0  0  0  0  0
  139.6327   68.0154  226.0471 H   0  0  0  0  0  0  0  0  0  0  0  0
  141.5087   71.1193  228.3529 H   0  0  0  0  0  0  0  0  0  0  0  0
  141.3695   72.6347  226.3895 H   0  0  0  0  0  0  0  0  0  0  0  0
  1  2  2  0
  2  3  1  0
  3  4  1  0
  4  5  1  0
  5  6  2  0
  5  7  1  0
  7  8  1  0
  8  9  1  0
  9 10  1  0
 10 11  1  0
 11 12  1  0
 12 13  1  0
 13 14  2  0
 14 15  1  0
 15 16  2  0
 16 17  1  0
 17 18  2  0
  2 19  1  0
 19 20  2  0
 20 21  1  0
 21 22  2  0
 22 23  1  0
 23 24  2  0
 24 25  1  0
 24 26  1  0
 26 27  2  0
 27 28  1  0
 28 29  2  0
 12  7  1  0
 18 13  1  0
 29 19  1  0
 28 22  1  0
  3 30  1  0
  4 31  1  0
  4 32  1  0
  8 33  1  0
  8 34  1  0
  9 35  1  0
  9 36  1  0
 10 37  1  0
 10 38  1  0
 11 39  1  0
 11 40  1  0
 12 41  1  6
 14 42  1  0
 15 43  1  0
 16 44  1  0
 17 45  1  0
 20 46  1  0
 21 47  1  0
 23 48  1  0
 26 49  1  0
 27 50  1  0
M  END
>  <smiles>  (82) 
O=C(NCC(=O)N1CCCCC1c1ccccn1)c1ccc2cc(Cl)ccc2n1

>  <score_type>  (82) 
oracle

>  <origin>  (82) 
autodockgpu

>  <m_score__min__energy>  (82) 
-8.9399999999999995

>  <m_primary>  (82) 
energy

>  <rmsd>  (82) 
3.1893641560388875

>  <m_score__min__rmsd>  (82) 
3.1893641560388875

>  <meeko>  (82) 
{"free_energy": -8.59, "intermolecular_energy": -10.08, "internal_energy": -1.54, "cluster_size": 40, "cluster_id": 1, "rank_in_cluster": 18}

>  <energy>  (82) 
-8.22

>  <cluster_rmsd>  (82) 
1.23

>  <cluster>  (82) 
1

$$$$

     RDKit          3D

 50 53  0  0  0  0  0  0  0  0999 V2000
  139.0850   72.1100  220.8440 O   0  0  0  0  0  0  0  0  0  0  0  0
  139.3190   72.5050  222.0220 C   0  0  0  0  0  0  0  0  0  0  0  0
  139.3750   73.8900  222.3320 N   0  0  0  0  0  0  0  0  0  0  0  0
  139.1590   74.8730  221.2910 C   0  0  0  0  0  0  0  0  0  0  0  0
  138.9330   76.2230  221.8480 C   0  0  0  0  0  0  0  0  0  0  0  0
  138.0660   76.3900  222.7430 O   0  0  0  0  0  0  0  0  0  0  0  0
  139.7130   77.3000  221.3450 N   0  0  0  0  0  0  0  0  0  0  0  0
  139.1630   78.2800  220.4290 C   0  0  0  0  0  0  0  0  0  0  0  0
  140.2190   79.0560  219.7140 C   0  0  0  0  0  0  0  0  0  0  0  0
  141.4740   78.3110  219.4140 C   0  0  0  0  0  0  0  0  0  0  0  0
  141.9230   77.3610  220.4900 C   0  0  0  0  0  0  0  0  0  0  0  0
  141.1210   77.4480  221.7460 C   0  0  1  0  0  0  0  0  0  0  0  0
  141.3550   78.7090  222.4470 C   0  0  0  0  0  0  0  0  0  0  0  0
  140.4190   79.4000  223.1820 C   0  0  0  0  0  0  0  0  0  0  0  0
  140.6820   80.5890  223.8290 C   0  0  0  0  0  0  0  0  0  0  0  0
  141.9520   81.1240  223.7400 C   0  0  0  0  0  0  0  0  0  0  0  0
  142.8720   80.4140  222.9980 C   0  0  0  0  0  0  0  0  0  0  0  0
  142.5890   79.2550  222.3770 N   0  0  0  0  0  0  0  0  0  0  0  0
  139.5410   71.5210  223.0900 C   0  0  0  0  0  0  0  0  0  0  0  0
  139.1970   70.1990  222.8790 C   0  0  0  0  0  0  0  0  0  0  0  0
  139.4160   69.2770  223.9090 C   0  0  0  0  0  0  0  0  0  0  0  0
  139.9670   69.6790  225.1200 C   0  0  0  0  0  0  0  0  0  0  0  0
  140.2020   68.8180  226.1610 C   0  0  0  0  0  0  0  0  0  0  0  0
  140.7530   69.2830  227.3400 C   0  0  0  0  0  0  0  0  0  0  0  0
  141.0700   68.2070  228.7020 Cl  0  0  0  0  0  0  0  0  0  0  0  0
  141.0720   70.6140  227.4790 C   0  0  0  0  0  0  0  0  0  0  0  0
  140.8330   71.4770  226.4270 C   0  0  0  0  0  0  0  0  0  0  0  0
  140.2830   71.0140  225.2520 C   0  0  0  0  0  0  0  0  0  0  0  0
  140.0760   71.9060  224.2670 N   0  0  0  0  0  0  0  0  0  0  0  0
  139.5740   74.1590  223.3260 H   0  0  0  0  0  0  0  0  0  0  0  0
  140.0442   74.9008  220.6386 H   0  0  0  0  0  0  0  0  0  0  0  0
  138.2606   74.5815  220.7271 H   0  0  0  0  0  0  0  0  0  0  0  0
  138.5449   77.7575  219.6840 H   0  0  0  0  0  0  0  0  0  0  0  0
  138.5703   78.9927  221.0212 H   0  0  0  0  0  0  0  0  0  0  0  0
  139.7958   79.4039  218.7601 H   0  0  0  0  0  0  0  0  0  0  0  0
  140.5079   79.8695  220.3957 H   0  0  0  0  0  0  0  0  0  0  0  0
  141.3148   77.7319  218.4924 H   0  0  0  0  0  0  0  0  0  0  0  0
  142.2664   79.0685  219.3231 H   0  0  0  0  0  0  0  0  0  0  0  0
  141.8465   76.3351  220.1005 H   0  0  0  0  0  0  0  0  0  0  0  0
  142.9553   77.6377  220.7502 H   0  0  0  0  0  0  0  0  0  0  0  0
  141.4116   76.6599  222.4562 H   0  0  0  0  0  0  0  0  0  0  0  0
  139.4049   78.9806  223.2576 H   0  0  0  0  0  0  0  0  0  0  0  0
  139.8964   81.1008  224.4042 H   0  0  0  0  0  0  0  0  0  0  0  0
  142.2164   82.0694  224.2363 H   0  0  0  0  0  0  0  0  0  0  0  0
  143.8917   80.8169  222.9092 H   0  0  0  0  0  0  0  0  0  0  0  0
  138.7603   69.8783  221.9217 H   0  0  0  0  0  0  0  0  0  0  0  0
  139.1486   68.2207  223.7581 H   0  0  0  0  0  0  0  0  0  0  0  0
  139.9507   67.7521  226.0572 H   0  0  0  0  0  0  0  0  0  0  0  0
  141.5118   70.9864  228.4160 H   0  0  0  0  0  0  0  0  0  0  0  0
  141.0841   72.5431  226.5286 H   0  0  0  0  0  0  0  0  0  0  0  0
  1  2  2  0
  2  3  1  0
  3  4  1  0
  4  5  1  0
  5  6  2  0
  5  7  1  0
  7  8  1  0
  8  9  1  0
  9 10  1  0
 10 11  1  0
 11 12  1  0
 12 13  1  0
 13 14  2  0
 14 15  1  0
 15 16  2  0
 16 17  1  0
 17 18  2  0
  2 19  1  0
 19 20  2  0
 20 21  1  0
 21 22  2  0
 22 23  1  0
 23 24  2  0
 24 25  1  0
 24 26  1  0
 26 27  2  0
 27 28  1  0
 28 29  2  0
 12  7  1  0
 18 13  1  0
 29 19  1  0
 28 22  1  0
  3 30  1  0
  4 31  1  0
  4 32  1  0
  8 33  1  0
  8 34  1  0
  9 35  1  0
  9 36  1  0
 10 37  1  0
 10 38  1  0
 11 39  1  0
 11 40  1  0
 12 41  1  1
 14 42  1  0
 15 43  1  0
 16 44  1  0
 17 45  1  0
 20 46  1  0
 21 47  1  0
 23 48  1  0
 26 49  1  0
 27 50  1  0
M  END
>  <smiles>  (83) 
O=C(NCC(=O)N1CCCCC1c1ccccn1)c1ccc2cc(Cl)ccc2n1

>  <score_type>  (83) 
oracle

>  <origin>  (83) 
autodockgpu

>  <m_score__min__energy>  (83) 
-8.9399999999999995

>  <m_primary>  (83) 
energy

>  <rmsd>  (83) 
2.551578985635794

>  <m_score__min__rmsd>  (83) 
2.551578985635794

>  <meeko>  (83) 
{"free_energy": -8.64, "intermolecular_energy": -10.14, "internal_energy": -1.71, "cluster_size": 40, "cluster_id": 1, "rank_in_cluster": 12}

>  <energy>  (83) 
-8.16

>  <cluster_rmsd>  (83) 
1.13

>  <cluster>  (83) 
1

$$$$

     RDKit          3D

 50 53  0  0  0  0  0  0  0  0999 V2000
  139.2470   72.6920  220.4160 O   0  0  0  0  0  0  0  0  0  0  0  0
  139.2680   72.9990  221.6430 C   0  0  0  0  0  0  0  0  0  0  0  0
  139.0800   74.3430  222.0640 N   0  0  0  0  0  0  0  0  0  0  0  0
  138.8590   75.3840  221.0820 C   0  0  0  0  0  0  0  0  0  0  0  0
  138.8230   76.7250  221.7020 C   0  0  0  0  0  0  0  0  0  0  0  0
  137.9810   76.9740  222.6010 O   0  0  0  0  0  0  0  0  0  0  0  0
  139.7550   77.7010  221.2520 N   0  0  0  0  0  0  0  0  0  0  0  0
  139.3900   78.7190  220.2870 C   0  0  0  0  0  0  0  0  0  0  0  0
  140.5780   79.3610  219.6500 C   0  0  0  0  0  0  0  0  0  0  0  0
  141.7620   78.4770  219.4580 C   0  0  0  0  0  0  0  0  0  0  0  0
  142.0180   77.5030  220.5750 C   0  0  0  0  0  0  0  0  0  0  0  0
  141.1350   77.7000  221.7620 C   0  0  1  0  0  0  0  0  0  0  0  0
  141.4530   78.9400  222.4680 C   0  0  0  0  0  0  0  0  0  0  0  0
  140.5570   79.7060  223.1790 C   0  0  0  0  0  0  0  0  0  0  0  0
  140.8990   80.8720  223.8320 C   0  0  0  0  0  0  0  0  0  0  0  0
  142.2090   81.3030  223.7740 C   0  0  0  0  0  0  0  0  0  0  0  0
  143.0880   80.5190  223.0560 C   0  0  0  0  0  0  0  0  0  0  0  0
  142.7270   79.3850  222.4280 N   0  0  0  0  0  0  0  0  0  0  0  0
  139.4920   71.9550  222.6520 C   0  0  0  0  0  0  0  0  0  0  0  0
  139.1280   70.6510  222.3730 C   0  0  0  0  0  0  0  0  0  0  0  0
  139.3490   69.6720  223.3480 C   0  0  0  0  0  0  0  0  0  0  0  0
  139.9220   69.9990  224.5710 C   0  0  0  0  0  0  0  0  0  0  0  0
  140.1610   69.0800  225.5600 C   0  0  0  0  0  0  0  0  0  0  0  0
  140.7340   69.4720  226.7540 C   0  0  0  0  0  0  0  0  0  0  0  0
  141.0570   68.3200  228.0510 Cl  0  0  0  0  0  0  0  0  0  0  0  0
  141.0730   70.7900  226.9610 C   0  0  0  0  0  0  0  0  0  0  0  0
  140.8300   71.7120  225.9620 C   0  0  0  0  0  0  0  0  0  0  0  0
  140.2580   71.3210  224.7710 C   0  0  0  0  0  0  0  0  0  0  0  0
  140.0490   72.2680  223.8400 N   0  0  0  0  0  0  0  0  0  0  0  0
  139.1080   74.5380  223.0940 H   0  0  0  0  0  0  0  0  0  0  0  0
  139.6734   75.3551  220.3431 H   0  0  0  0  0  0  0  0  0  0  0  0
  137.8850   75.2020  220.6043 H   0  0  0  0  0  0  0  0  0  0  0  0
  138.7768   78.2548  219.5006 H   0  0  0  0  0  0  0  0  0  0  0  0
  138.8366   79.5032  220.8243 H   0  0  0  0  0  0  0  0  0  0  0  0
  140.2714   79.7353  218.6621 H   0  0  0  0  0  0  0  0  0  0  0  0
  140.9015   80.1507  220.3440 H   0  0  0  0  0  0  0  0  0  0  0  0
  141.6117   77.9022  218.5322 H   0  0  0  0  0  0  0  0  0  0  0  0
  142.6382   79.1412  219.4235 H   0  0  0  0  0  0  0  0  0  0  0  0
  141.8593   76.4848  220.1902 H   0  0  0  0  0  0  0  0  0  0  0  0
  143.0512   77.6695  220.9139 H   0  0  0  0  0  0  0  0  0  0  0  0
  141.2793   76.8972  222.5000 H   0  0  0  0  0  0  0  0  0  0  0  0
  139.5108   79.3698  223.2292 H   0  0  0  0  0  0  0  0  0  0  0  0
  140.1432   81.4466  224.3876 H   0  0  0  0  0  0  0  0  0  0  0  0
  142.5358   82.2259  224.2755 H   0  0  0  0  0  0  0  0  0  0  0  0
  144.1390   80.8375  222.9936 H   0  0  0  0  0  0  0  0  0  0  0  0
  138.6746   70.3887  221.4057 H   0  0  0  0  0  0  0  0  0  0  0  0
  139.0652   68.6291  223.1435 H   0  0  0  0  0  0  0  0  0  0  0  0
  139.8949   68.0245  225.4016 H   0  0  0  0  0  0  0  0  0  0  0  0
  141.5316   71.1048  227.9100 H   0  0  0  0  0  0  0  0  0  0  0  0
  141.0955   72.7680  226.1185 H   0  0  0  0  0  0  0  0  0  0  0  0
  1  2  2  0
  2  3  1  0
  3  4  1  0
  4  5  1  0
  5  6  2  0
  5  7  1  0
  7  8  1  0
  8  9  1  0
  9 10  1  0
 10 11  1  0
 11 12  1  0
 12 13  1  0
 13 14  2  0
 14 15  1  0
 15 16  2  0
 16 17  1  0
 17 18  2  0
  2 19  1  0
 19 20  2  0
 20 21  1  0
 21 22  2  0
 22 23  1  0
 23 24  2  0
 24 25  1  0
 24 26  1  0
 26 27  2  0
 27 28  1  0
 28 29  2  0
 12  7  1  0
 18 13  1  0
 29 19  1  0
 28 22  1  0
  3 30  1  0
  4 31  1  0
  4 32  1  0
  8 33  1  0
  8 34  1  0
  9 35  1  0
  9 36  1  0
 10 37  1  0
 10 38  1  0
 11 39  1  0
 11 40  1  0
 12 41  1  1
 14 42  1  0
 15 43  1  0
 16 44  1  0
 17 45  1  0
 20 46  1  0
 21 47  1  0
 23 48  1  0
 26 49  1  0
 27 50  1  0
M  END
>  <smiles>  (84) 
O=C(NCC(=O)N1CCCCC1c1ccccn1)c1ccc2cc(Cl)ccc2n1

>  <score_type>  (84) 
oracle

>  <origin>  (84) 
autodockgpu

>  <m_score__min__energy>  (84) 
-8.9399999999999995

>  <m_primary>  (84) 
energy

>  <rmsd>  (84) 
2.7447386094231

>  <m_score__min__rmsd>  (84) 
2.7447386094231

>  <meeko>  (84) 
{"free_energy": -8.37, "intermolecular_energy": -9.86, "internal_energy": -1.69, "cluster_size": 40, "cluster_id": 1, "rank_in_cluster": 31}

>  <energy>  (84) 
-8.15

>  <cluster_rmsd>  (84) 
1.76

>  <cluster>  (84) 
1

$$$$

     RDKit          3D

 50 53  0  0  0  0  0  0  0  0999 V2000
  140.9580   72.9330  221.3110 O   0  0  0  0  0  0  0  0  0  0  0  0
  140.0850   72.9470  222.2250 C   0  0  0  0  0  0  0  0  0  0  0  0
  139.1030   73.9720  222.2820 N   0  0  0  0  0  0  0  0  0  0  0  0
  139.0910   75.0180  221.2820 C   0  0  0  0  0  0  0  0  0  0  0  0
  138.9170   76.3550  221.8880 C   0  0  0  0  0  0  0  0  0  0  0  0
  138.0890   76.5130  222.8210 O   0  0  0  0  0  0  0  0  0  0  0  0
  139.7020   77.4310  221.3870 N   0  0  0  0  0  0  0  0  0  0  0  0
  139.1510   78.4260  220.4890 C   0  0  0  0  0  0  0  0  0  0  0  0
  140.2050   79.2000  219.7700 C   0  0  0  0  0  0  0  0  0  0  0  0
  141.4490   78.4460  219.4470 C   0  0  0  0  0  0  0  0  0  0  0  0
  141.9020   77.4790  220.5070 C   0  0  0  0  0  0  0  0  0  0  0  0
  141.1160   77.5600  221.7730 C   0  0  1  0  0  0  0  0  0  0  0  0
  141.3710   78.8100  222.4850 C   0  0  0  0  0  0  0  0  0  0  0  0
  140.4310   79.5440  223.1720 C   0  0  0  0  0  0  0  0  0  0  0  0
  140.7150   80.7210  223.8320 C   0  0  0  0  0  0  0  0  0  0  0  0
  142.0100   81.1990  223.8070 C   0  0  0  0  0  0  0  0  0  0  0  0
  142.9340   80.4470  223.1120 C   0  0  0  0  0  0  0  0  0  0  0  0
  142.6300   79.3010  222.4770 N   0  0  0  0  0  0  0  0  0  0  0  0
  140.0830   71.8920  223.2480 C   0  0  0  0  0  0  0  0  0  0  0  0
  139.5840   70.6420  222.9340 C   0  0  0  0  0  0  0  0  0  0  0  0
  139.5900   69.6520  223.9230 C   0  0  0  0  0  0  0  0  0  0  0  0
  140.0870   69.9160  225.1940 C   0  0  0  0  0  0  0  0  0  0  0  0
  140.1170   68.9830  226.1980 C   0  0  0  0  0  0  0  0  0  0  0  0
  140.6260   69.3110  227.4400 C   0  0  0  0  0  0  0  0  0  0  0  0
  140.6820   68.1390  228.7580 Cl  0  0  0  0  0  0  0  0  0  0  0  0
  141.1080   70.5770  227.6800 C   0  0  0  0  0  0  0  0  0  0  0  0
  141.0750   71.5130  226.6650 C   0  0  0  0  0  0  0  0  0  0  0  0
  140.5680   71.1870  225.4260 C   0  0  0  0  0  0  0  0  0  0  0  0
  140.5650   72.1440  224.4820 N   0  0  0  0  0  0  0  0  0  0  0  0
  138.4040   73.9320  223.0630 H   0  0  0  0  0  0  0  0  0  0  0  0
  140.0442   74.9971  220.7334 H   0  0  0  0  0  0  0  0  0  0  0  0
  138.2421   74.8356  220.6067 H   0  0  0  0  0  0  0  0  0  0  0  0
  138.5191   77.9178  219.7458 H   0  0  0  0  0  0  0  0  0  0  0  0
  138.5726   79.1376  221.0965 H   0  0  0  0  0  0  0  0  0  0  0  0
  139.7737   79.5623  218.8251 H   0  0  0  0  0  0  0  0  0  0  0  0
  140.5096   80.0037  220.4565 H   0  0  0  0  0  0  0  0  0  0  0  0
  141.2732   77.8789  218.5210 H   0  0  0  0  0  0  0  0  0  0  0  0
  142.2476   79.1969  219.3556 H   0  0  0  0  0  0  0  0  0  0  0  0
  141.8107   76.4584  220.1070 H   0  0  0  0  0  0  0  0  0  0  0  0
  142.9402   77.7422  220.7576 H   0  0  0  0  0  0  0  0  0  0  0  0
  141.4068   76.7610  222.4709 H   0  0  0  0  0  0  0  0  0  0  0  0
  139.3964   79.1713  223.1959 H   0  0  0  0  0  0  0  0  0  0  0  0
  139.9254   81.2682  224.3678 H   0  0  0  0  0  0  0  0  0  0  0  0
  142.2908   82.1329  224.3159 H   0  0  0  0  0  0  0  0  0  0  0  0
  143.9741   80.8032  223.0751 H   0  0  0  0  0  0  0  0  0  0  0  0
  139.1908   70.4300  221.9288 H   0  0  0  0  0  0  0  0  0  0  0  0
  139.1961   68.6514  223.6915 H   0  0  0  0  0  0  0  0  0  0  0  0
  139.7340   67.9684  226.0140 H   0  0  0  0  0  0  0  0  0  0  0  0
  141.5145   70.8404  228.6676 H   0  0  0  0  0  0  0  0  0  0  0  0
  141.4570   72.5283  226.8474 H   0  0  0  0  0  0  0  0  0  0  0  0
  1  2  2  0
  2  3  1  0
  3  4  1  0
  4  5  1  0
  5  6  2  0
  5  7  1  0
  7  8  1  0
  8  9  1  0
  9 10  1  0
 10 11  1  0
 11 12  1  0
 12 13  1  0
 13 14  2  0
 14 15  1  0
 15 16  2  0
 16 17  1  0
 17 18  2  0
  2 19  1  0
 19 20  2  0
 20 21  1  0
 21 22  2  0
 22 23  1  0
 23 24  2  0
 24 25  1  0
 24 26  1  0
 26 27  2  0
 27 28  1  0
 28 29  2  0
 12  7  1  0
 18 13  1  0
 29 19  1  0
 28 22  1  0
  3 30  1  0
  4 31  1  0
  4 32  1  0
  8 33  1  0
  8 34  1  0
  9 35  1  0
  9 36  1  0
 10 37  1  0
 10 38  1  0
 11 39  1  0
 11 40  1  0
 12 41  1  1
 14 42  1  0
 15 43  1  0
 16 44  1  0
 17 45  1  0
 20 46  1  0
 21 47  1  0
 23 48  1  0
 26 49  1  0
 27 50  1  0
M  END
>  <smiles>  (85) 
O=C(NCC(=O)N1CCCCC1c1ccccn1)c1ccc2cc(Cl)ccc2n1

>  <score_type>  (85) 
oracle

>  <origin>  (85) 
autodockgpu

>  <m_score__min__energy>  (85) 
-8.9399999999999995

>  <m_primary>  (85) 
energy

>  <rmsd>  (85) 
2.660466242987508

>  <m_score__min__rmsd>  (85) 
2.660466242987508

>  <meeko>  (85) 
{"free_energy": -8.88, "intermolecular_energy": -10.37, "internal_energy": -1.56, "cluster_size": 40, "cluster_id": 1, "rank_in_cluster": 6}

>  <energy>  (85) 
-8.14

>  <cluster_rmsd>  (85) 
1.86

>  <cluster>  (85) 
1

$$$$

     RDKit          3D

 50 53  0  0  0  0  0  0  0  0999 V2000
  140.5760   72.6680  220.7770 O   0  0  0  0  0  0  0  0  0  0  0  0
  140.1070   72.9880  221.9070 C   0  0  0  0  0  0  0  0  0  0  0  0
  139.6420   74.3070  222.1590 N   0  0  0  0  0  0  0  0  0  0  0  0
  139.6990   75.3050  221.1130 C   0  0  0  0  0  0  0  0  0  0  0  0
  140.9620   76.0710  221.1530 C   0  0  0  0  0  0  0  0  0  0  0  0
  142.0520   75.4880  220.9210 O   0  0  0  0  0  0  0  0  0  0  0  0
  140.9000   77.4600  221.4570 N   0  0  0  0  0  0  0  0  0  0  0  0
  140.9540   78.4720  220.4200 C   0  0  0  0  0  0  0  0  0  0  0  0
  141.2890   79.8250  220.9550 C   0  0  0  0  0  0  0  0  0  0  0  0
  142.2060   79.8450  222.1290 C   0  0  0  0  0  0  0  0  0  0  0  0
  141.9870   78.7420  223.1270 C   0  0  0  0  0  0  0  0  0  0  0  0
  140.7800   77.9090  222.8520 C   0  0  1  0  0  0  0  0  0  0  0  0
  139.5460   78.6610  223.0740 C   0  0  0  0  0  0  0  0  0  0  0  0
  139.4350   79.8090  223.8260 C   0  0  0  0  0  0  0  0  0  0  0  0
  138.2500   80.4890  224.0100 C   0  0  0  0  0  0  0  0  0  0  0  0
  137.1060   79.9990  223.4130 C   0  0  0  0  0  0  0  0  0  0  0  0
  137.2420   78.8480  222.6650 C   0  0  0  0  0  0  0  0  0  0  0  0
  138.4120   78.2040  222.5020 N   0  0  0  0  0  0  0  0  0  0  0  0
  140.0430   71.9860  222.9800 C   0  0  0  0  0  0  0  0  0  0  0  0
  139.4310   70.7710  222.7380 C   0  0  0  0  0  0  0  0  0  0  0  0
  139.3790   69.8300  223.7740 C   0  0  0  0  0  0  0  0  0  0  0  0
  139.9300   70.1090  225.0190 C   0  0  0  0  0  0  0  0  0  0  0  0
  139.9070   69.2250  226.0660 C   0  0  0  0  0  0  0  0  0  0  0  0
  140.4740   69.5650  227.2800 C   0  0  0  0  0  0  0  0  0  0  0  0
  140.4650   68.4560  228.6510 Cl  0  0  0  0  0  0  0  0  0  0  0  0
  141.0680   70.7960  227.4470 C   0  0  0  0  0  0  0  0  0  0  0  0
  141.0880   71.6830  226.3890 C   0  0  0  0  0  0  0  0  0  0  0  0
  140.5230   71.3440  225.1790 C   0  0  0  0  0  0  0  0  0  0  0  0
  140.5760   72.2520  224.1890 N   0  0  0  0  0  0  0  0  0  0  0  0
  139.2630   74.5140  223.1140 H   0  0  0  0  0  0  0  0  0  0  0  0
  139.6177   74.8033  220.1375 H   0  0  0  0  0  0  0  0  0  0  0  0
  138.8676   76.0087  221.2664 H   0  0  0  0  0  0  0  0  0  0  0  0
  141.7208   78.1836  219.6859 H   0  0  0  0  0  0  0  0  0  0  0  0
  139.9559   78.5328  219.9615 H   0  0  0  0  0  0  0  0  0  0  0  0
  141.7624   80.4009  220.1462 H   0  0  0  0  0  0  0  0  0  0  0  0
  140.3389   80.2521  221.3085 H   0  0  0  0  0  0  0  0  0  0  0  0
  143.2382   79.7680  221.7567 H   0  0  0  0  0  0  0  0  0  0  0  0
  142.0020   80.7856  222.6616 H   0  0  0  0  0  0  0  0  0  0  0  0
  142.8700   78.0861  223.1177 H   0  0  0  0  0  0  0  0  0  0  0  0
  141.8280   79.2221  224.1039 H   0  0  0  0  0  0  0  0  0  0  0  0
  140.7279   77.0503  223.5376 H   0  0  0  0  0  0  0  0  0  0  0  0
  140.3417   80.2054  224.3064 H   0  0  0  0  0  0  0  0  0  0  0  0
  138.2168   81.4036  224.6202 H   0  0  0  0  0  0  0  0  0  0  0  0
  136.1342   80.5014  223.5280 H   0  0  0  0  0  0  0  0  0  0  0  0
  136.3472   78.4351  222.1763 H   0  0  0  0  0  0  0  0  0  0  0  0
  138.9943   70.5478  221.7534 H   0  0  0  0  0  0  0  0  0  0  0  0
  138.8957   68.8573  223.6000 H   0  0  0  0  0  0  0  0  0  0  0  0
  139.4348   68.2396  225.9396 H   0  0  0  0  0  0  0  0  0  0  0  0
  141.5210   71.0694  228.4114 H   0  0  0  0  0  0  0  0  0  0  0  0
  141.5593   72.6691  226.5133 H   0  0  0  0  0  0  0  0  0  0  0  0
  1  2  2  0
  2  3  1  0
  3  4  1  0
  4  5  1  0
  5  6  2  0
  5  7  1  0
  7  8  1  0
  8  9  1  0
  9 10  1  0
 10 11  1  0
 11 12  1  0
 12 13  1  0
 13 14  2  0
 14 15  1  0
 15 16  2  0
 16 17  1  0
 17 18  2  0
  2 19  1  0
 19 20  2  0
 20 21  1  0
 21 22  2  0
 22 23  1  0
 23 24  2  0
 24 25  1  0
 24 26  1  0
 26 27  2  0
 27 28  1  0
 28 29  2  0
 12  7  1  0
 18 13  1  0
 29 19  1  0
 28 22  1  0
  3 30  1  0
  4 31  1  0
  4 32  1  0
  8 33  1  0
  8 34  1  0
  9 35  1  0
  9 36  1  0
 10 37  1  0
 10 38  1  0
 11 39  1  0
 11 40  1  0
 12 41  1  1
 14 42  1  0
 15 43  1  0
 16 44  1  0
 17 45  1  0
 20 46  1  0
 21 47  1  0
 23 48  1  0
 26 49  1  0
 27 50  1  0
M  END
>  <smiles>  (86) 
O=C(NCC(=O)N1CCCCC1c1ccccn1)c1ccc2cc(Cl)ccc2n1

>  <score_type>  (86) 
oracle

>  <origin>  (86) 
autodockgpu

>  <m_score__min__energy>  (86) 
-8.9399999999999995

>  <m_primary>  (86) 
energy

>  <rmsd>  (86) 
3.444388230532949

>  <m_score__min__rmsd>  (86) 
3.444388230532949

>  <meeko>  (86) 
{"free_energy": -8.58, "intermolecular_energy": -10.07, "internal_energy": -1.54, "cluster_size": 40, "cluster_id": 1, "rank_in_cluster": 19}

>  <energy>  (86) 
-8.07

>  <cluster_rmsd>  (86) 
1.02

>  <cluster>  (86) 
1

$$$$

     RDKit          3D

 50 53  0  0  0  0  0  0  0  0999 V2000
  140.2290   72.6540  220.7920 O   0  0  0  0  0  0  0  0  0  0  0  0
  139.9380   72.9730  221.9810 C   0  0  0  0  0  0  0  0  0  0  0  0
  139.5780   74.3060  222.3140 N   0  0  0  0  0  0  0  0  0  0  0  0
  139.5370   75.3220  221.2840 C   0  0  0  0  0  0  0  0  0  0  0  0
  138.3920   76.2400  221.4630 C   0  0  0  0  0  0  0  0  0  0  0  0
  137.2240   75.7790  221.4970 O   0  0  0  0  0  0  0  0  0  0  0  0
  138.6570   77.6320  221.5920 N   0  0  0  0  0  0  0  0  0  0  0  0
  137.8130   78.5000  222.3890 C   0  0  0  0  0  0  0  0  0  0  0  0
  138.0060   79.9440  222.0670 C   0  0  0  0  0  0  0  0  0  0  0  0
  138.3360   80.2490  220.6460 C   0  0  0  0  0  0  0  0  0  0  0  0
  139.2560   79.2620  219.9800 C   0  0  0  0  0  0  0  0  0  0  0  0
  139.8120   78.2340  220.9080 C   0  0  1  0  0  0  0  0  0  0  0  0
  140.7580   78.8200  221.8550 C   0  0  0  0  0  0  0  0  0  0  0  0
  141.0290   78.3360  223.1150 C   0  0  0  0  0  0  0  0  0  0  0  0
  141.9320   78.9210  223.9790 C   0  0  0  0  0  0  0  0  0  0  0  0
  142.6040   80.0540  223.5660 C   0  0  0  0  0  0  0  0  0  0  0  0
  142.3150   80.5200  222.3010 C   0  0  0  0  0  0  0  0  0  0  0  0
  141.4300   79.9290  221.4780 N   0  0  0  0  0  0  0  0  0  0  0  0
  139.9760   71.9530  223.0380 C   0  0  0  0  0  0  0  0  0  0  0  0
  139.5210   70.6760  222.7680 C   0  0  0  0  0  0  0  0  0  0  0  0
  139.5640   69.7200  223.7890 C   0  0  0  0  0  0  0  0  0  0  0  0
  140.0530   70.0430  225.0490 C   0  0  0  0  0  0  0  0  0  0  0  0
  140.1170   69.1450  226.0830 C   0  0  0  0  0  0  0  0  0  0  0  0
  140.6150   69.5330  227.3130 C   0  0  0  0  0  0  0  0  0  0  0  0
  140.7140   68.4080  228.6680 Cl  0  0  0  0  0  0  0  0  0  0  0  0
  141.0510   70.8230  227.5100 C   0  0  0  0  0  0  0  0  0  0  0  0
  140.9840   71.7230  226.4640 C   0  0  0  0  0  0  0  0  0  0  0  0
  140.4870   71.3380  225.2380 C   0  0  0  0  0  0  0  0  0  0  0  0
  140.4490   72.2620  224.2630 N   0  0  0  0  0  0  0  0  0  0  0  0
  139.3470   74.5110  223.3160 H   0  0  0  0  0  0  0  0  0  0  0  0
  140.4694   75.9044  221.3212 H   0  0  0  0  0  0  0  0  0  0  0  0
  139.4232   74.8191  220.3123 H   0  0  0  0  0  0  0  0  0  0  0  0
  136.7615   78.2355  222.2037 H   0  0  0  0  0  0  0  0  0  0  0  0
  138.0889   78.3548  223.4439 H   0  0  0  0  0  0  0  0  0  0  0  0
  137.0759   80.4742  222.3196 H   0  0  0  0  0  0  0  0  0  0  0  0
  138.8773   80.2692  222.6544 H   0  0  0  0  0  0  0  0  0  0  0  0
  137.3957   80.2771  220.0759 H   0  0  0  0  0  0  0  0  0  0  0  0
  138.8710   81.2101  220.6545 H   0  0  0  0  0  0  0  0  0  0  0  0
  138.6950   78.7458  219.1870 H   0  0  0  0  0  0  0  0  0  0  0  0
  140.1097   79.8345  219.5883 H   0  0  0  0  0  0  0  0  0  0  0  0
  140.3834   77.4718  220.3580 H   0  0  0  0  0  0  0  0  0  0  0  0
  140.4968   77.4340  223.4513 H   0  0  0  0  0  0  0  0  0  0  0  0
  142.1127   78.4934  224.9763 H   0  0  0  0  0  0  0  0  0  0  0  0
  143.3343   80.5602  224.2144 H   0  0  0  0  0  0  0  0  0  0  0  0
  142.8351   81.4220  221.9462 H   0  0  0  0  0  0  0  0  0  0  0  0
  139.1333   70.4168  221.7718 H   0  0  0  0  0  0  0  0  0  0  0  0
  139.2058   68.6989  223.5915 H   0  0  0  0  0  0  0  0  0  0  0  0
  139.7708   68.1117  225.9334 H   0  0  0  0  0  0  0  0  0  0  0  0
  141.4478   71.1337  228.4877 H   0  0  0  0  0  0  0  0  0  0  0  0
  141.3306   72.7565  226.6113 H   0  0  0  0  0  0  0  0  0  0  0  0
  1  2  2  0
  2  3  1  0
  3  4  1  0
  4  5  1  0
  5  6  2  0
  5  7  1  0
  7  8  1  0
  8  9  1  0
  9 10  1  0
 10 11  1  0
 11 12  1  0
 12 13  1  0
 13 14  2  0
 14 15  1  0
 15 16  2  0
 16 17  1  0
 17 18  2  0
  2 19  1  0
 19 20  2  0
 20 21  1  0
 21 22  2  0
 22 23  1  0
 23 24  2  0
 24 25  1  0
 24 26  1  0
 26 27  2  0
 27 28  1  0
 28 29  2  0
 12  7  1  0
 18 13  1  0
 29 19  1  0
 28 22  1  0
  3 30  1  0
  4 31  1  0
  4 32  1  0
  8 33  1  0
  8 34  1  0
  9 35  1  0
  9 36  1  0
 10 37  1  0
 10 38  1  0
 11 39  1  0
 11 40  1  0
 12 41  1  6
 14 42  1  0
 15 43  1  0
 16 44  1  0
 17 45  1  0
 20 46  1  0
 21 47  1  0
 23 48  1  0
 26 49  1  0
 27 50  1  0
M  END
>  <smiles>  (87) 
O=C(NCC(=O)N1CCCCC1c1ccccn1)c1ccc2cc(Cl)ccc2n1

>  <score_type>  (87) 
oracle

>  <origin>  (87) 
autodockgpu

>  <m_score__min__energy>  (87) 
-8.9399999999999995

>  <m_primary>  (87) 
energy

>  <rmsd>  (87) 
3.3910513086666185

>  <m_score__min__rmsd>  (87) 
3.3910513086666185

>  <meeko>  (87) 
{"free_energy": -8.07, "intermolecular_energy": -9.56, "internal_energy": -1.54, "cluster_size": 40, "cluster_id": 1, "rank_in_cluster": 36}

>  <energy>  (87) 
-8.04

>  <cluster_rmsd>  (87) 
1.31

>  <cluster>  (87) 
1

$$$$

     RDKit          3D

 50 53  0  0  0  0  0  0  0  0999 V2000
  137.8500   75.2070  222.4520 O   0  0  0  0  0  0  0  0  0  0  0  0
  138.9960   75.6510  222.1580 C   0  0  0  0  0  0  0  0  0  0  0  0
  139.2910   77.0370  222.2590 N   0  0  0  0  0  0  0  0  0  0  0  0
  138.2720   77.9620  222.7060 C   0  0  0  0  0  0  0  0  0  0  0  0
  138.8510   79.2530  223.1340 C   0  0  0  0  0  0  0  0  0  0  0  0
  138.1490   80.0650  223.7880 O   0  0  0  0  0  0  0  0  0  0  0  0
  140.2010   79.5360  222.7850 N   0  0  0  0  0  0  0  0  0  0  0  0
  141.3140   78.8880  223.4520 C   0  0  0  0  0  0  0  0  0  0  0  0
  142.6060   79.6060  223.2420 C   0  0  0  0  0  0  0  0  0  0  0  0
  142.5080   81.0880  223.1230 C   0  0  0  0  0  0  0  0  0  0  0  0
  141.3080   81.5890  222.3680 C   0  0  0  0  0  0  0  0  0  0  0  0
  140.5060   80.5080  221.7240 C   0  0  1  0  0  0  0  0  0  0  0  0
  141.2280   79.8890  220.6140 C   0  0  0  0  0  0  0  0  0  0  0  0
  141.8780   80.5680  219.6090 C   0  0  0  0  0  0  0  0  0  0  0  0
  142.5500   79.9440  218.5770 C   0  0  0  0  0  0  0  0  0  0  0  0
  142.5760   78.5640  218.5440 C   0  0  0  0  0  0  0  0  0  0  0  0
  141.9180   77.9070  219.5620 C   0  0  0  0  0  0  0  0  0  0  0  0
  141.2700   78.5410  220.5560 N   0  0  0  0  0  0  0  0  0  0  0  0
  140.0420   74.7250  221.7010 C   0  0  0  0  0  0  0  0  0  0  0  0
  139.8030   73.3640  221.7270 C   0  0  0  0  0  0  0  0  0  0  0  0
  140.8120   72.4990  221.2890 C   0  0  0  0  0  0  0  0  0  0  0  0
  142.0300   72.9940  220.8380 C   0  0  0  0  0  0  0  0  0  0  0  0
  143.0510   72.1920  220.3980 C   0  0  0  0  0  0  0  0  0  0  0  0
  144.2380   72.7500  219.9620 C   0  0  0  0  0  0  0  0  0  0  0  0
  145.5750   71.7520  219.3890 Cl  0  0  0  0  0  0  0  0  0  0  0  0
  144.4050   74.1160  219.9640 C   0  0  0  0  0  0  0  0  0  0  0  0
  143.3730   74.9190  220.4080 C   0  0  0  0  0  0  0  0  0  0  0  0
  142.1890   74.3640  220.8430 C   0  0  0  0  0  0  0  0  0  0  0  0
  141.2250   75.2010  221.2620 N   0  0  0  0  0  0  0  0  0  0  0  0
  140.2590   77.3480  222.0010 H   0  0  0  0  0  0  0  0  0  0  0  0
  137.5691   78.1437  221.8796 H   0  0  0  0  0  0  0  0  0  0  0  0
  137.7596   77.5142  223.5702 H   0  0  0  0  0  0  0  0  0  0  0  0
  141.1038   78.8492  224.5310 H   0  0  0  0  0  0  0  0  0  0  0  0
  141.4190   77.8807  223.0226 H   0  0  0  0  0  0  0  0  0  0  0  0
  143.2623   79.3778  224.0948 H   0  0  0  0  0  0  0  0  0  0  0  0
  142.9929   79.2518  222.2751 H   0  0  0  0  0  0  0  0  0  0  0  0
  142.4724   81.5098  224.1383 H   0  0  0  0  0  0  0  0  0  0  0  0
  143.3884   81.4081  222.5464 H   0  0  0  0  0  0  0  0  0  0  0  0
  140.6580   82.1311  223.0705 H   0  0  0  0  0  0  0  0  0  0  0  0
  141.6846   82.2328  221.5595 H   0  0  0  0  0  0  0  0  0  0  0  0
  139.5825   80.9113  221.2830 H   0  0  0  0  0  0  0  0  0  0  0  0
  141.8613   81.6677  219.6290 H   0  0  0  0  0  0  0  0  0  0  0  0
  143.0541   80.5339  217.7974 H   0  0  0  0  0  0  0  0  0  0  0  0
  143.0961   78.0156  217.7448 H   0  0  0  0  0  0  0  0  0  0  0  0
  141.9231   76.8070  219.5614 H   0  0  0  0  0  0  0  0  0  0  0  0
  138.8404   72.9693  222.0843 H   0  0  0  0  0  0  0  0  0  0  0  0
  140.6389   71.4128  221.3018 H   0  0  0  0  0  0  0  0  0  0  0  0
  142.9250   71.0993  220.3919 H   0  0  0  0  0  0  0  0  0  0  0  0
  145.3483   74.5624  219.6164 H   0  0  0  0  0  0  0  0  0  0  0  0
  143.4972   76.0119  220.4145 H   0  0  0  0  0  0  0  0  0  0  0  0
  1  2  2  0
  2  3  1  0
  3  4  1  0
  4  5  1  0
  5  6  2  0
  5  7  1  0
  7  8  1  0
  8  9  1  0
  9 10  1  0
 10 11  1  0
 11 12  1  0
 12 13  1  0
 13 14  2  0
 14 15  1  0
 15 16  2  0
 16 17  1  0
 17 18  2  0
  2 19  1  0
 19 20  2  0
 20 21  1  0
 21 22  2  0
 22 23  1  0
 23 24  2  0
 24 25  1  0
 24 26  1  0
 26 27  2  0
 27 28  1  0
 28 29  2  0
 12  7  1  0
 18 13  1  0
 29 19  1  0
 28 22  1  0
  3 30  1  0
  4 31  1  0
  4 32  1  0
  8 33  1  0
  8 34  1  0
  9 35  1  0
  9 36  1  0
 10 37  1  0
 10 38  1  0
 11 39  1  0
 11 40  1  0
 12 41  1  6
 14 42  1  0
 15 43  1  0
 16 44  1  0
 17 45  1  0
 20 46  1  0
 21 47  1  0
 23 48  1  0
 26 49  1  0
 27 50  1  0
M  END
>  <smiles>  (88) 
O=C(NCC(=O)N1CCCCC1c1ccccn1)c1ccc2cc(Cl)ccc2n1

>  <score_type>  (88) 
oracle

>  <origin>  (88) 
autodockgpu

>  <m_score__min__energy>  (88) 
-8.9399999999999995

>  <m_primary>  (88) 
energy

>  <rmsd>  (88) 
5.913562033305367

>  <m_score__min__rmsd>  (88) 
5.913562033305367

>  <meeko>  (88) 
{"free_energy": -6.91, "intermolecular_energy": -8.4, "internal_energy": -3.03, "cluster_size": 7, "cluster_id": 4, "rank_in_cluster": 3}

>  <energy>  (88) 
-8.03

>  <cluster_rmsd>  (88) 
1.25

>  <cluster>  (88) 
1

$$$$

     RDKit          3D

 50 53  0  0  0  0  0  0  0  0999 V2000
  140.7430   73.7640  222.1020 O   0  0  0  0  0  0  0  0  0  0  0  0
  139.7380   73.0440  222.3710 C   0  0  0  0  0  0  0  0  0  0  0  0
  138.4890   73.2640  221.7330 N   0  0  0  0  0  0  0  0  0  0  0  0
  138.3520   74.3230  220.7560 C   0  0  0  0  0  0  0  0  0  0  0  0
  138.3760   75.6590  221.3870 C   0  0  0  0  0  0  0  0  0  0  0  0
  137.5240   75.9490  222.2650 O   0  0  0  0  0  0  0  0  0  0  0  0
  139.3740   76.5840  220.9730 N   0  0  0  0  0  0  0  0  0  0  0  0
  139.1740   77.4690  219.8420 C   0  0  0  0  0  0  0  0  0  0  0  0
  140.4530   78.0430  219.3280 C   0  0  0  0  0  0  0  0  0  0  0  0
  141.6470   77.1570  219.4380 C   0  0  0  0  0  0  0  0  0  0  0  0
  141.7140   76.3330  220.6940 C   0  0  0  0  0  0  0  0  0  0  0  0
  140.6550   76.6640  221.6920 C   0  0  1  0  0  0  0  0  0  0  0  0
  140.8650   77.9870  222.2790 C   0  0  0  0  0  0  0  0  0  0  0  0
  142.0230   78.7250  222.1890 C   0  0  0  0  0  0  0  0  0  0  0  0
  142.1790   79.9720  222.7590 C   0  0  0  0  0  0  0  0  0  0  0  0
  141.1220   80.5160  223.4610 C   0  0  0  0  0  0  0  0  0  0  0  0
  139.9730   79.7560  223.5370 C   0  0  0  0  0  0  0  0  0  0  0  0
  139.8470   78.5430  222.9710 N   0  0  0  0  0  0  0  0  0  0  0  0
  139.8600   71.9660  223.3610 C   0  0  0  0  0  0  0  0  0  0  0  0
  139.4620   70.6860  223.0240 C   0  0  0  0  0  0  0  0  0  0  0  0
  139.5850   69.6730  223.9820 C   0  0  0  0  0  0  0  0  0  0  0  0
  140.0960   69.9440  225.2460 C   0  0  0  0  0  0  0  0  0  0  0  0
  140.2380   68.9900  226.2200 C   0  0  0  0  0  0  0  0  0  0  0  0
  140.7540   69.3270  227.4570 C   0  0  0  0  0  0  0  0  0  0  0  0
  140.9520   68.1280  228.7360 Cl  0  0  0  0  0  0  0  0  0  0  0  0
  141.1300   70.6240  227.7220 C   0  0  0  0  0  0  0  0  0  0  0  0
  140.9850   71.5810  226.7370 C   0  0  0  0  0  0  0  0  0  0  0  0
  140.4710   71.2460  225.5030 C   0  0  0  0  0  0  0  0  0  0  0  0
  140.3550   72.2240  224.5890 N   0  0  0  0  0  0  0  0  0  0  0  0
  137.6910   72.6360  221.9970 H   0  0  0  0  0  0  0  0  0  0  0  0
  139.1819   74.2538  220.0373 H   0  0  0  0  0  0  0  0  0  0  0  0
  137.3816   74.2002  220.2528 H   0  0  0  0  0  0  0  0  0  0  0  0
  138.6918   76.9020  219.0321 H   0  0  0  0  0  0  0  0  0  0  0  0
  138.5461   78.3060  220.1813 H   0  0  0  0  0  0  0  0  0  0  0  0
  140.3107   78.2887  218.2653 H   0  0  0  0  0  0  0  0  0  0  0  0
  140.6670   78.9163  219.9617 H   0  0  0  0  0  0  0  0  0  0  0  0
  141.6422   76.4698  218.5791 H   0  0  0  0  0  0  0  0  0  0  0  0
  142.5224   77.8227  219.4603 H   0  0  0  0  0  0  0  0  0  0  0  0
  141.6111   75.2730  220.4186 H   0  0  0  0  0  0  0  0  0  0  0  0
  142.6810   76.5541  221.1695 H   0  0  0  0  0  0  0  0  0  0  0  0
  140.6746   75.9610  222.5378 H   0  0  0  0  0  0  0  0  0  0  0  0
  142.8702   78.2977  221.6325 H   0  0  0  0  0  0  0  0  0  0  0  0
  143.1264   80.5215  222.6561 H   0  0  0  0  0  0  0  0  0  0  0  0
  141.1923   81.5057  223.9359 H   0  0  0  0  0  0  0  0  0  0  0  0
  139.1143   80.1642  224.0901 H   0  0  0  0  0  0  0  0  0  0  0  0
  139.0574   70.4681  222.0246 H   0  0  0  0  0  0  0  0  0  0  0  0
  139.2730   68.6484  223.7312 H   0  0  0  0  0  0  0  0  0  0  0  0
  139.9398   67.9510  226.0160 H   0  0  0  0  0  0  0  0  0  0  0  0
  141.5408   70.8950  228.7058 H   0  0  0  0  0  0  0  0  0  0  0  0
  141.2826   72.6205  226.9393 H   0  0  0  0  0  0  0  0  0  0  0  0
  1  2  2  0
  2  3  1  0
  3  4  1  0
  4  5  1  0
  5  6  2  0
  5  7  1  0
  7  8  1  0
  8  9  1  0
  9 10  1  0
 10 11  1  0
 11 12  1  0
 12 13  1  0
 13 14  2  0
 14 15  1  0
 15 16  2  0
 16 17  1  0
 17 18  2  0
  2 19  1  0
 19 20  2  0
 20 21  1  0
 21 22  2  0
 22 23  1  0
 23 24  2  0
 24 25  1  0
 24 26  1  0
 26 27  2  0
 27 28  1  0
 28 29  2  0
 12  7  1  0
 18 13  1  0
 29 19  1  0
 28 22  1  0
  3 30  1  0
  4 31  1  0
  4 32  1  0
  8 33  1  0
  8 34  1  0
  9 35  1  0
  9 36  1  0
 10 37  1  0
 10 38  1  0
 11 39  1  0
 11 40  1  0
 12 41  1  1
 14 42  1  0
 15 43  1  0
 16 44  1  0
 17 45  1  0
 20 46  1  0
 21 47  1  0
 23 48  1  0
 26 49  1  0
 27 50  1  0
M  END
>  <smiles>  (89) 
O=C(NCC(=O)N1CCCCC1c1ccccn1)c1ccc2cc(Cl)ccc2n1

>  <score_type>  (89) 
oracle

>  <origin>  (89) 
autodockgpu

>  <m_score__min__energy>  (89) 
-8.9399999999999995

>  <m_primary>  (89) 
energy

>  <rmsd>  (89) 
2.303557625000848

>  <m_score__min__rmsd>  (89) 
2.303557625000848

>  <meeko>  (89) 
{"free_energy": -8.16, "intermolecular_energy": -9.66, "internal_energy": -1.59, "cluster_size": 40, "cluster_id": 1, "rank_in_cluster": 33}

>  <energy>  (89) 
-7.89

>  <cluster_rmsd>  (89) 
1.69

>  <cluster>  (89) 
1

$$$$

     RDKit          3D

 50 53  0  0  0  0  0  0  0  0999 V2000
  139.9080   72.5750  220.7410 O   0  0  0  0  0  0  0  0  0  0  0  0
  139.7330   72.9070  221.9490 C   0  0  0  0  0  0  0  0  0  0  0  0
  139.4280   74.2480  222.3020 N   0  0  0  0  0  0  0  0  0  0  0  0
  139.3130   75.2590  221.2720 C   0  0  0  0  0  0  0  0  0  0  0  0
  139.0970   76.6050  221.8440 C   0  0  0  0  0  0  0  0  0  0  0  0
  138.2130   76.7750  222.7200 O   0  0  0  0  0  0  0  0  0  0  0  0
  139.9090   77.6740  221.3760 N   0  0  0  0  0  0  0  0  0  0  0  0
  139.3710   78.7380  220.5500 C   0  0  0  0  0  0  0  0  0  0  0  0
  140.4340   79.5080  219.8390 C   0  0  0  0  0  0  0  0  0  0  0  0
  141.6360   78.7250  219.4360 C   0  0  0  0  0  0  0  0  0  0  0  0
  142.0820   77.6860  220.4280 C   0  0  0  0  0  0  0  0  0  0  0  0
  141.3380   77.7280  221.7210 C   0  0  1  0  0  0  0  0  0  0  0  0
  141.6640   78.9280  222.4910 C   0  0  0  0  0  0  0  0  0  0  0  0
  142.9330   79.4090  222.7190 C   0  0  0  0  0  0  0  0  0  0  0  0
  143.1980   80.5470  223.4520 C   0  0  0  0  0  0  0  0  0  0  0  0
  142.1380   81.2490  223.9900 C   0  0  0  0  0  0  0  0  0  0  0  0
  140.8760   80.7470  223.7480 C   0  0  0  0  0  0  0  0  0  0  0  0
  140.6460   79.6340  223.0290 N   0  0  0  0  0  0  0  0  0  0  0  0
  139.8470   71.8930  223.0060 C   0  0  0  0  0  0  0  0  0  0  0  0
  139.4570   70.5930  222.7460 C   0  0  0  0  0  0  0  0  0  0  0  0
  139.5730   69.6430  223.7680 C   0  0  0  0  0  0  0  0  0  0  0  0
  140.0690   69.9950  225.0170 C   0  0  0  0  0  0  0  0  0  0  0  0
  140.2030   69.1050  226.0510 C   0  0  0  0  0  0  0  0  0  0  0  0
  140.7040   69.5220  227.2700 C   0  0  0  0  0  0  0  0  0  0  0  0
  140.8920   68.4080  228.6250 Cl  0  0  0  0  0  0  0  0  0  0  0  0
  141.0730   70.8340  227.4560 C   0  0  0  0  0  0  0  0  0  0  0  0
  140.9360   71.7270  226.4110 C   0  0  0  0  0  0  0  0  0  0  0  0
  140.4360   71.3120  225.1960 C   0  0  0  0  0  0  0  0  0  0  0  0
  140.3280   72.2310  224.2200 N   0  0  0  0  0  0  0  0  0  0  0  0
  139.2930   74.4640  223.3190 H   0  0  0  0  0  0  0  0  0  0  0  0
  140.2390   75.2691  220.6783 H   0  0  0  0  0  0  0  0  0  0  0  0
  138.4436   75.0107  220.6455 H   0  0  0  0  0  0  0  0  0  0  0  0
  138.6964   78.2960  219.8019 H   0  0  0  0  0  0  0  0  0  0  0  0
  138.8405   79.4376  221.2127 H   0  0  0  0  0  0  0  0  0  0  0  0
  139.9894   79.9377  218.9292 H   0  0  0  0  0  0  0  0  0  0  0  0
  140.7920   80.2603  220.5573 H   0  0  0  0  0  0  0  0  0  0  0  0
  141.4089   78.2157  218.4878 H   0  0  0  0  0  0  0  0  0  0  0  0
  142.4610   79.4483  219.3578 H   0  0  0  0  0  0  0  0  0  0  0  0
  141.9387   76.6927  219.9777 H   0  0  0  0  0  0  0  0  0  0  0  0
  143.1368   77.8959  220.6588 H   0  0  0  0  0  0  0  0  0  0  0  0
  141.6181   76.8812  222.3648 H   0  0  0  0  0  0  0  0  0  0  0  0
  143.7829   78.8554  222.2932 H   0  0  0  0  0  0  0  0  0  0  0  0
  144.2326   80.8881  223.6047 H   0  0  0  0  0  0  0  0  0  0  0  0
  142.2920   82.1631  224.5822 H   0  0  0  0  0  0  0  0  0  0  0  0
  140.0123   81.2855  224.1651 H   0  0  0  0  0  0  0  0  0  0  0  0
  139.0641   70.3108  221.7581 H   0  0  0  0  0  0  0  0  0  0  0  0
  139.2671   68.6034  223.5793 H   0  0  0  0  0  0  0  0  0  0  0  0
  139.9105   68.0540  225.9100 H   0  0  0  0  0  0  0  0  0  0  0  0
  141.4723   71.1680  228.4250 H   0  0  0  0  0  0  0  0  0  0  0  0
  141.2285   72.7782  226.5500 H   0  0  0  0  0  0  0  0  0  0  0  0
  1  2  2  0
  2  3  1  0
  3  4  1  0
  4  5  1  0
  5  6  2  0
  5  7  1  0
  7  8  1  0
  8  9  1  0
  9 10  1  0
 10 11  1  0
 11 12  1  0
 12 13  1  0
 13 14  2  0
 14 15  1  0
 15 16  2  0
 16 17  1  0
 17 18  2  0
  2 19  1  0
 19 20  2  0
 20 21  1  0
 21 22  2  0
 22 23  1  0
 23 24  2  0
 24 25  1  0
 24 26  1  0
 26 27  2  0
 27 28  1  0
 28 29  2  0
 12  7  1  0
 18 13  1  0
 29 19  1  0
 28 22  1  0
  3 30  1  0
  4 31  1  0
  4 32  1  0
  8 33  1  0
  8 34  1  0
  9 35  1  0
  9 36  1  0
 10 37  1  0
 10 38  1  0
 11 39  1  0
 11 40  1  0
 12 41  1  1
 14 42  1  0
 15 43  1  0
 16 44  1  0
 17 45  1  0
 20 46  1  0
 21 47  1  0
 23 48  1  0
 26 49  1  0
 27 50  1  0
M  END
>  <smiles>  (90) 
O=C(NCC(=O)N1CCCCC1c1ccccn1)c1ccc2cc(Cl)ccc2n1

>  <score_type>  (90) 
oracle

>  <origin>  (90) 
autodockgpu

>  <m_score__min__energy>  (90) 
-8.9399999999999995

>  <m_primary>  (90) 
energy

>  <rmsd>  (90) 
2.757343958489609

>  <m_score__min__rmsd>  (90) 
2.757343958489609

>  <meeko>  (90) 
{"free_energy": -8.9, "intermolecular_energy": -10.39, "internal_energy": -1.68, "cluster_size": 40, "cluster_id": 1, "rank_in_cluster": 5}

>  <energy>  (90) 
-7.82

>  <cluster_rmsd>  (90) 
0.96

>  <cluster>  (90) 
1

$$$$

     RDKit          3D

 50 53  0  0  0  0  0  0  0  0999 V2000
  140.6500   72.2500  220.8210 O   0  0  0  0  0  0  0  0  0  0  0  0
  140.1520   72.5640  221.9410 C   0  0  0  0  0  0  0  0  0  0  0  0
  139.6280   73.8650  222.1690 N   0  0  0  0  0  0  0  0  0  0  0  0
  139.6570   74.8510  221.1100 C   0  0  0  0  0  0  0  0  0  0  0  0
  139.5010   76.2250  221.6340 C   0  0  0  0  0  0  0  0  0  0  0  0
  138.9230   76.4090  222.7350 O   0  0  0  0  0  0  0  0  0  0  0  0
  140.0160   77.3040  220.8630 N   0  0  0  0  0  0  0  0  0  0  0  0
  139.2860   77.8560  219.7390 C   0  0  0  0  0  0  0  0  0  0  0  0
  140.1520   78.6700  218.8350 C   0  0  0  0  0  0  0  0  0  0  0  0
  141.5650   78.2120  218.7140 C   0  0  0  0  0  0  0  0  0  0  0  0
  142.1820   77.7020  219.9880 C   0  0  0  0  0  0  0  0  0  0  0  0
  141.3220   77.8930  221.1930 C   0  0  1  0  0  0  0  0  0  0  0  0
  141.2050   79.3060  221.5500 C   0  0  0  0  0  0  0  0  0  0  0  0
  141.9940   80.3210  221.0610 C   0  0  0  0  0  0  0  0  0  0  0  0
  141.8490   81.6440  221.4250 C   0  0  0  0  0  0  0  0  0  0  0  0
  140.8610   81.9770  222.3300 C   0  0  0  0  0  0  0  0  0  0  0  0
  140.0840   80.9420  222.8070 C   0  0  0  0  0  0  0  0  0  0  0  0
  140.2470   79.6600  222.4340 N   0  0  0  0  0  0  0  0  0  0  0  0
  140.1160   71.5740  223.0260 C   0  0  0  0  0  0  0  0  0  0  0  0
  139.5840   70.3210  222.7850 C   0  0  0  0  0  0  0  0  0  0  0  0
  139.5570   69.3940  223.8330 C   0  0  0  0  0  0  0  0  0  0  0  0
  140.0550   69.7210  225.0890 C   0  0  0  0  0  0  0  0  0  0  0  0
  140.0530   68.8500  226.1480 C   0  0  0  0  0  0  0  0  0  0  0  0
  140.5640   69.2400  227.3720 C   0  0  0  0  0  0  0  0  0  0  0  0
  140.5800   68.1500  228.7590 Cl  0  0  0  0  0  0  0  0  0  0  0  0
  141.0790   70.5050  227.5370 C   0  0  0  0  0  0  0  0  0  0  0  0
  141.0780   71.3780  226.4670 C   0  0  0  0  0  0  0  0  0  0  0  0
  140.5690   70.9900  225.2470 C   0  0  0  0  0  0  0  0  0  0  0  0
  140.5970   71.8880  224.2460 N   0  0  0  0  0  0  0  0  0  0  0  0
  139.2290   74.0680  223.1160 H   0  0  0  0  0  0  0  0  0  0  0  0
  140.6194   74.7784  220.5823 H   0  0  0  0  0  0  0  0  0  0  0  0
  138.8167   74.6471  220.4301 H   0  0  0  0  0  0  0  0  0  0  0  0
  138.8525   77.0276  219.1595 H   0  0  0  0  0  0  0  0  0  0  0  0
  138.5076   78.5207  220.1417 H   0  0  0  0  0  0  0  0  0  0  0  0
  139.7034   78.6531  217.8308 H   0  0  0  0  0  0  0  0  0  0  0  0
  140.1978   79.6730  219.2843 H   0  0  0  0  0  0  0  0  0  0  0  0
  141.5981   77.4015  217.9711 H   0  0  0  0  0  0  0  0  0  0  0  0
  142.1500   79.0970  218.4232 H   0  0  0  0  0  0  0  0  0  0  0  0
  142.3806   76.6265  219.8707 H   0  0  0  0  0  0  0  0  0  0  0  0
  143.1003   78.2843  220.1545 H   0  0  0  0  0  0  0  0  0  0  0  0
  141.7610   77.4029  222.0745 H   0  0  0  0  0  0  0  0  0  0  0  0
  142.7841   80.0639  220.3401 H   0  0  0  0  0  0  0  0  0  0  0  0
  142.5072   82.4176  221.0027 H   0  0  0  0  0  0  0  0  0  0  0  0
  140.7014   83.0159  222.6545 H   0  0  0  0  0  0  0  0  0  0  0  0
  139.2894   81.1773  223.5304 H   0  0  0  0  0  0  0  0  0  0  0  0
  139.1907   70.0586  221.7918 H   0  0  0  0  0  0  0  0  0  0  0  0
  139.1358   68.3926  223.6605 H   0  0  0  0  0  0  0  0  0  0  0  0
  139.6432   67.8369  226.0232 H   0  0  0  0  0  0  0  0  0  0  0  0
  141.4867   70.8174  228.5097 H   0  0  0  0  0  0  0  0  0  0  0  0
  141.4871   72.3917  226.5898 H   0  0  0  0  0  0  0  0  0  0  0  0
  1  2  2  0
  2  3  1  0
  3  4  1  0
  4  5  1  0
  5  6  2  0
  5  7  1  0
  7  8  1  0
  8  9  1  0
  9 10  1  0
 10 11  1  0
 11 12  1  0
 12 13  1  0
 13 14  2  0
 14 15  1  0
 15 16  2  0
 16 17  1  0
 17 18  2  0
  2 19  1  0
 19 20  2  0
 20 21  1  0
 21 22  2  0
 22 23  1  0
 23 24  2  0
 24 25  1  0
 24 26  1  0
 26 27  2  0
 27 28  1  0
 28 29  2  0
 12  7  1  0
 18 13  1  0
 29 19  1  0
 28 22  1  0
  3 30  1  0
  4 31  1  0
  4 32  1  0
  8 33  1  0
  8 34  1  0
  9 35  1  0
  9 36  1  0
 10 37  1  0
 10 38  1  0
 11 39  1  0
 11 40  1  0
 12 41  1  1
 14 42  1  0
 15 43  1  0
 16 44  1  0
 17 45  1  0
 20 46  1  0
 21 47  1  0
 23 48  1  0
 26 49  1  0
 27 50  1  0
M  END
>  <smiles>  (91) 
O=C(NCC(=O)N1CCCCC1c1ccccn1)c1ccc2cc(Cl)ccc2n1

>  <score_type>  (91) 
oracle

>  <origin>  (91) 
autodockgpu

>  <m_score__min__energy>  (91) 
-8.9399999999999995

>  <m_primary>  (91) 
energy

>  <rmsd>  (91) 
2.0675776434105675

>  <m_score__min__rmsd>  (91) 
2.0675776434105675

>  <meeko>  (91) 
{"free_energy": -7.82, "intermolecular_energy": -9.31, "internal_energy": -1.76, "cluster_size": 40, "cluster_id": 1, "rank_in_cluster": 40}

>  <energy>  (91) 
-8.17

>  <cluster_rmsd>  (91) 
0.0

>  <cluster>  (91) 
2

$$$$

     RDKit          3D

 50 53  0  0  0  0  0  0  0  0999 V2000
  140.1620   72.6480  220.8120 O   0  0  0  0  0  0  0  0  0  0  0  0
  139.8680   72.9590  222.0020 C   0  0  0  0  0  0  0  0  0  0  0  0
  139.4790   74.2840  222.3360 N   0  0  0  0  0  0  0  0  0  0  0  0
  139.4130   75.2990  221.3070 C   0  0  0  0  0  0  0  0  0  0  0  0
  139.1300   76.6360  221.8710 C   0  0  0  0  0  0  0  0  0  0  0  0
  138.2270   76.7690  222.7350 O   0  0  0  0  0  0  0  0  0  0  0  0
  139.9000   77.7400  221.4090 N   0  0  0  0  0  0  0  0  0  0  0  0
  139.3050   78.8210  220.6490 C   0  0  0  0  0  0  0  0  0  0  0  0
  140.3210   79.6400  219.9230 C   0  0  0  0  0  0  0  0  0  0  0  0
  141.5200   78.8990  219.4400 C   0  0  0  0  0  0  0  0  0  0  0  0
  142.0280   77.8330  220.3720 C   0  0  0  0  0  0  0  0  0  0  0  0
  141.3410   77.8110  221.6960 C   0  0  1  0  0  0  0  0  0  0  0  0
  141.6770   78.9880  222.4960 C   0  0  0  0  0  0  0  0  0  0  0  0
  142.9480   79.4640  222.7210 C   0  0  0  0  0  0  0  0  0  0  0  0
  143.2210   80.5800  223.4840 C   0  0  0  0  0  0  0  0  0  0  0  0
  142.1680   81.2640  224.0570 C   0  0  0  0  0  0  0  0  0  0  0  0
  140.9040   80.7680  223.8170 C   0  0  0  0  0  0  0  0  0  0  0  0
  140.6650   79.6760  223.0680 N   0  0  0  0  0  0  0  0  0  0  0  0
  139.9310   71.9400  223.0580 C   0  0  0  0  0  0  0  0  0  0  0  0
  139.5020   70.6540  222.7890 C   0  0  0  0  0  0  0  0  0  0  0  0
  139.5690   69.6990  223.8090 C   0  0  0  0  0  0  0  0  0  0  0  0
  140.0560   70.0320  225.0680 C   0  0  0  0  0  0  0  0  0  0  0  0
  140.1440   69.1360  226.1010 C   0  0  0  0  0  0  0  0  0  0  0  0
  140.6390   69.5330  227.3290 C   0  0  0  0  0  0  0  0  0  0  0  0
  140.7670   68.4100  228.6840 Cl  0  0  0  0  0  0  0  0  0  0  0  0
  141.0490   70.8320  227.5240 C   0  0  0  0  0  0  0  0  0  0  0  0
  140.9590   71.7310  226.4800 C   0  0  0  0  0  0  0  0  0  0  0  0
  140.4650   71.3350  225.2550 C   0  0  0  0  0  0  0  0  0  0  0  0
  140.4040   72.2590  224.2800 N   0  0  0  0  0  0  0  0  0  0  0  0
  139.2470   74.4840  223.3390 H   0  0  0  0  0  0  0  0  0  0  0  0
  140.3768   75.3326  220.7779 H   0  0  0  0  0  0  0  0  0  0  0  0
  138.5939   75.0373  220.6210 H   0  0  0  0  0  0  0  0  0  0  0  0
  138.6074   78.3927  219.9142 H   0  0  0  0  0  0  0  0  0  0  0  0
  138.7894   79.4835  221.3598 H   0  0  0  0  0  0  0  0  0  0  0  0
  139.8290   80.0933  219.0498 H   0  0  0  0  0  0  0  0  0  0  0  0
  140.6944   80.3727  220.6536 H   0  0  0  0  0  0  0  0  0  0  0  0
  141.2630   78.4212  218.4831 H   0  0  0  0  0  0  0  0  0  0  0  0
  142.3265   79.6422  219.3551 H   0  0  0  0  0  0  0  0  0  0  0  0
  141.8839   76.8545  219.8906 H   0  0  0  0  0  0  0  0  0  0  0  0
  143.0876   78.0561  220.5655 H   0  0  0  0  0  0  0  0  0  0  0  0
  141.6649   76.9475  222.2955 H   0  0  0  0  0  0  0  0  0  0  0  0
  143.7928   78.9250  222.2675 H   0  0  0  0  0  0  0  0  0  0  0  0
  144.2571   80.9182  223.6329 H   0  0  0  0  0  0  0  0  0  0  0  0
  142.3291   82.1601  224.6743 H   0  0  0  0  0  0  0  0  0  0  0  0
  140.0455   81.2928  224.2614 H   0  0  0  0  0  0  0  0  0  0  0  0
  139.1161   70.3871  221.7941 H   0  0  0  0  0  0  0  0  0  0  0  0
  139.2318   68.6706  223.6123 H   0  0  0  0  0  0  0  0  0  0  0  0
  139.8191   68.0957  225.9523 H   0  0  0  0  0  0  0  0  0  0  0  0
  141.4438   71.1504  228.5001 H   0  0  0  0  0  0  0  0  0  0  0  0
  141.2840   72.7716  226.6266 H   0  0  0  0  0  0  0  0  0  0  0  0
  1  2  2  0
  2  3  1  0
  3  4  1  0
  4  5  1  0
  5  6  2  0
  5  7  1  0
  7  8  1  0
  8  9  1  0
  9 10  1  0
 10 11  1  0
 11 12  1  0
 12 13  1  0
 13 14  2  0
 14 15  1  0
 15 16  2  0
 16 17  1  0
 17 18  2  0
  2 19  1  0
 19 20  2  0
 20 21  1  0
 21 22  2  0
 22 23  1  0
 23 24  2  0
 24 25  1  0
 24 26  1  0
 26 27  2  0
 27 28  1  0
 28 29  2  0
 12  7  1  0
 18 13  1  0
 29 19  1  0
 28 22  1  0
  3 30  1  0
  4 31  1  0
  4 32  1  0
  8 33  1  0
  8 34  1  0
  9 35  1  0
  9 36  1  0
 10 37  1  0
 10 38  1  0
 11 39  1  0
 11 40  1  0
 12 41  1  1
 14 42  1  0
 15 43  1  0
 16 44  1  0
 17 45  1  0
 20 46  1  0
 21 47  1  0
 23 48  1  0
 26 49  1  0
 27 50  1  0
M  END
>  <smiles>  (92) 
O=C(NCC(=O)N1CCCCC1c1ccccn1)c1ccc2cc(Cl)ccc2n1

>  <score_type>  (92) 
oracle

>  <origin>  (92) 
autodockgpu

>  <m_score__min__energy>  (92) 
-8.9399999999999995

>  <m_primary>  (92) 
energy

>  <rmsd>  (92) 
2.8039206891185438

>  <m_score__min__rmsd>  (92) 
2.8039206891185438

>  <meeko>  (92) 
{"free_energy": -8.94, "intermolecular_energy": -10.43, "internal_energy": -1.66, "cluster_size": 40, "cluster_id": 1, "rank_in_cluster": 1}

>  <energy>  (92) 
-8.17

>  <cluster_rmsd>  (92) 
0.09

>  <cluster>  (92) 
2

$$$$

     RDKit          3D

 50 53  0  0  0  0  0  0  0  0999 V2000
  137.8920   75.2690  222.6380 O   0  0  0  0  0  0  0  0  0  0  0  0
  139.0020   75.7200  222.2320 C   0  0  0  0  0  0  0  0  0  0  0  0
  139.2600   77.1170  222.2100 N   0  0  0  0  0  0  0  0  0  0  0  0
  138.2450   78.0460  222.6590 C   0  0  0  0  0  0  0  0  0  0  0  0
  138.8370   79.2970  223.1810 C   0  0  0  0  0  0  0  0  0  0  0  0
  138.1490   80.0550  223.9090 O   0  0  0  0  0  0  0  0  0  0  0  0
  140.1820   79.6020  222.8340 N   0  0  0  0  0  0  0  0  0  0  0  0
  141.3050   78.9610  223.4920 C   0  0  0  0  0  0  0  0  0  0  0  0
  142.5870   79.6990  223.2900 C   0  0  0  0  0  0  0  0  0  0  0  0
  142.4690   81.1810  223.1890 C   0  0  0  0  0  0  0  0  0  0  0  0
  141.2610   81.6750  222.4410 C   0  0  0  0  0  0  0  0  0  0  0  0
  140.4730   80.5910  221.7850 C   0  0  1  0  0  0  0  0  0  0  0  0
  141.2030   79.9960  220.6670 C   0  0  0  0  0  0  0  0  0  0  0  0
  141.8620   80.6950  219.6820 C   0  0  0  0  0  0  0  0  0  0  0  0
  142.5400   80.0940  218.6420 C   0  0  0  0  0  0  0  0  0  0  0  0
  142.5640   78.7150  218.5770 C   0  0  0  0  0  0  0  0  0  0  0  0
  141.8960   78.0360  219.5750 C   0  0  0  0  0  0  0  0  0  0  0  0
  141.2420   78.6490  220.5790 N   0  0  0  0  0  0  0  0  0  0  0  0
  140.0420   74.7900  221.7720 C   0  0  0  0  0  0  0  0  0  0  0  0
  139.8240   73.4290  221.8610 C   0  0  0  0  0  0  0  0  0  0  0  0
  140.8280   72.5600  221.4180 C   0  0  0  0  0  0  0  0  0  0  0  0
  142.0200   73.0520  220.9000 C   0  0  0  0  0  0  0  0  0  0  0  0
  143.0340   72.2460  220.4520 C   0  0  0  0  0  0  0  0  0  0  0  0
  144.1950   72.8000  219.9470 C   0  0  0  0  0  0  0  0  0  0  0  0
  145.5230   71.7980  219.3620 Cl  0  0  0  0  0  0  0  0  0  0  0  0
  144.3420   74.1670  219.8880 C   0  0  0  0  0  0  0  0  0  0  0  0
  143.3170   74.9750  220.3410 C   0  0  0  0  0  0  0  0  0  0  0  0
  142.1590   74.4220  220.8440 C   0  0  0  0  0  0  0  0  0  0  0  0
  141.2000   75.2640  221.2680 N   0  0  0  0  0  0  0  0  0  0  0  0
  140.1970   77.4330  221.8620 H   0  0  0  0  0  0  0  0  0  0  0  0
  137.5863   78.2900  221.8125 H   0  0  0  0  0  0  0  0  0  0  0  0
  137.6813   77.5686  223.4741 H   0  0  0  0  0  0  0  0  0  0  0  0
  141.0965   78.9059  224.5707 H   0  0  0  0  0  0  0  0  0  0  0  0
  141.4234   77.9608  223.0498 H   0  0  0  0  0  0  0  0  0  0  0  0
  143.2469   79.4694  224.1396 H   0  0  0  0  0  0  0  0  0  0  0  0
  142.9779   79.3619  222.3186 H   0  0  0  0  0  0  0  0  0  0  0  0
  142.4289   81.5901  224.2093 H   0  0  0  0  0  0  0  0  0  0  0  0
  143.3444   81.5198  222.6155 H   0  0  0  0  0  0  0  0  0  0  0  0
  140.6046   82.1999  223.1506 H   0  0  0  0  0  0  0  0  0  0  0  0
  141.6279   82.3336  221.6399 H   0  0  0  0  0  0  0  0  0  0  0  0
  139.5433   80.9866  221.3501 H   0  0  0  0  0  0  0  0  0  0  0  0
  141.8473   81.7940  219.7264 H   0  0  0  0  0  0  0  0  0  0  0  0
  143.0511   80.7008  217.8801 H   0  0  0  0  0  0  0  0  0  0  0  0
  143.0896   78.1841  217.7696 H   0  0  0  0  0  0  0  0  0  0  0  0
  141.8980   76.9363  219.5488 H   0  0  0  0  0  0  0  0  0  0  0  0
  138.8818   73.0365  222.2711 H   0  0  0  0  0  0  0  0  0  0  0  0
  140.6713   71.4730  221.4807 H   0  0  0  0  0  0  0  0  0  0  0  0
  142.9231   71.1524  220.4946 H   0  0  0  0  0  0  0  0  0  0  0  0
  145.2643   74.6109  219.4851 H   0  0  0  0  0  0  0  0  0  0  0  0
  143.4260   76.0688  220.2999 H   0  0  0  0  0  0  0  0  0  0  0  0
  1  2  2  0
  2  3  1  0
  3  4  1  0
  4  5  1  0
  5  6  2  0
  5  7  1  0
  7  8  1  0
  8  9  1  0
  9 10  1  0
 10 11  1  0
 11 12  1  0
 12 13  1  0
 13 14  2  0
 14 15  1  0
 15 16  2  0
 16 17  1  0
 17 18  2  0
  2 19  1  0
 19 20  2  0
 20 21  1  0
 21 22  2  0
 22 23  1  0
 23 24  2  0
 24 25  1  0
 24 26  1  0
 26 27  2  0
 27 28  1  0
 28 29  2  0
 12  7  1  0
 18 13  1  0
 29 19  1  0
 28 22  1  0
  3 30  1  0
  4 31  1  0
  4 32  1  0
  8 33  1  0
  8 34  1  0
  9 35  1  0
  9 36  1  0
 10 37  1  0
 10 38  1  0
 11 39  1  0
 11 40  1  0
 12 41  1  6
 14 42  1  0
 15 43  1  0
 16 44  1  0
 17 45  1  0
 20 46  1  0
 21 47  1  0
 23 48  1  0
 26 49  1  0
 27 50  1  0
M  END
>  <smiles>  (93) 
O=C(NCC(=O)N1CCCCC1c1ccccn1)c1ccc2cc(Cl)ccc2n1

>  <score_type>  (93) 
oracle

>  <origin>  (93) 
autodockgpu

>  <m_score__min__energy>  (93) 
-8.9399999999999995

>  <m_primary>  (93) 
energy

>  <rmsd>  (93) 
5.95432864139461

>  <m_score__min__rmsd>  (93) 
5.95432864139461

>  <meeko>  (93) 
{"free_energy": -6.88, "intermolecular_energy": -8.37, "internal_energy": -3.06, "cluster_size": 7, "cluster_id": 4, "rank_in_cluster": 5}

>  <energy>  (93) 
-6.98

>  <cluster_rmsd>  (93) 
0.0

>  <cluster>  (93) 
3

$$$$

     RDKit          3D

 50 53  0  0  0  0  0  0  0  0999 V2000
  137.8610   75.2410  222.4850 O   0  0  0  0  0  0  0  0  0  0  0  0
  139.0060   75.6840  222.1810 C   0  0  0  0  0  0  0  0  0  0  0  0
  139.2980   77.0720  222.2620 N   0  0  0  0  0  0  0  0  0  0  0  0
  138.2780   78.0010  222.7000 C   0  0  0  0  0  0  0  0  0  0  0  0
  138.8620   79.2660  223.1930 C   0  0  0  0  0  0  0  0  0  0  0  0
  138.1730   80.0310  223.9130 O   0  0  0  0  0  0  0  0  0  0  0  0
  140.2020   79.5770  222.8300 N   0  0  0  0  0  0  0  0  0  0  0  0
  141.3350   78.9550  223.4860 C   0  0  0  0  0  0  0  0  0  0  0  0
  142.6100   79.7000  223.2620 C   0  0  0  0  0  0  0  0  0  0  0  0
  142.4780   81.1800  223.1420 C   0  0  0  0  0  0  0  0  0  0  0  0
  141.2600   81.6530  222.3980 C   0  0  0  0  0  0  0  0  0  0  0  0
  140.4750   80.5530  221.7650 C   0  0  1  0  0  0  0  0  0  0  0  0
  141.2000   79.9490  220.6480 C   0  0  0  0  0  0  0  0  0  0  0  0
  141.8480   80.6400  219.6500 C   0  0  0  0  0  0  0  0  0  0  0  0
  142.5220   80.0290  218.6130 C   0  0  0  0  0  0  0  0  0  0  0  0
  142.5520   78.6500  218.5640 C   0  0  0  0  0  0  0  0  0  0  0  0
  141.8940   77.9800  219.5750 C   0  0  0  0  0  0  0  0  0  0  0  0
  141.2450   78.6010  220.5760 N   0  0  0  0  0  0  0  0  0  0  0  0
  140.0520   74.7540  221.7350 C   0  0  0  0  0  0  0  0  0  0  0  0
  139.8230   73.3920  221.7970 C   0  0  0  0  0  0  0  0  0  0  0  0
  140.8330   72.5240  221.3680 C   0  0  0  0  0  0  0  0  0  0  0  0
  142.0420   73.0160  220.8890 C   0  0  0  0  0  0  0  0  0  0  0  0
  143.0630   72.2100  220.4560 C   0  0  0  0  0  0  0  0  0  0  0  0
  144.2400   72.7650  219.9910 C   0  0  0  0  0  0  0  0  0  0  0  0
  145.5770   71.7620  219.4260 Cl  0  0  0  0  0  0  0  0  0  0  0  0
  144.3970   74.1310  219.9570 C   0  0  0  0  0  0  0  0  0  0  0  0
  143.3650   74.9390  220.3940 C   0  0  0  0  0  0  0  0  0  0  0  0
  142.1910   74.3860  220.8580 C   0  0  0  0  0  0  0  0  0  0  0  0
  141.2260   75.2270  221.2690 N   0  0  0  0  0  0  0  0  0  0  0  0
  140.2640   77.3810  221.9970 H   0  0  0  0  0  0  0  0  0  0  0  0
  137.6114   78.2228  221.8536 H   0  0  0  0  0  0  0  0  0  0  0  0
  137.7242   77.5348  223.5282 H   0  0  0  0  0  0  0  0  0  0  0  0
  141.1367   78.9136  224.5672 H   0  0  0  0  0  0  0  0  0  0  0  0
  141.4573   77.9497  223.0565 H   0  0  0  0  0  0  0  0  0  0  0  0
  143.2795   79.4874  224.1085 H   0  0  0  0  0  0  0  0  0  0  0  0
  142.9955   79.3524  222.2922 H   0  0  0  0  0  0  0  0  0  0  0  0
  142.4428   81.6025  224.1570 H   0  0  0  0  0  0  0  0  0  0  0  0
  143.3455   81.5187  222.5566 H   0  0  0  0  0  0  0  0  0  0  0  0
  140.6056   82.1830  223.1057 H   0  0  0  0  0  0  0  0  0  0  0  0
  141.6144   82.3026  221.5841 H   0  0  0  0  0  0  0  0  0  0  0  0
  139.5376   80.9340  221.3337 H   0  0  0  0  0  0  0  0  0  0  0  0
  141.8275   81.7394  219.6808 H   0  0  0  0  0  0  0  0  0  0  0  0
  143.0255   80.6289  217.8406 H   0  0  0  0  0  0  0  0  0  0  0  0
  143.0743   78.1120  217.7592 H   0  0  0  0  0  0  0  0  0  0  0  0
  141.9006   76.8801  219.5615 H   0  0  0  0  0  0  0  0  0  0  0  0
  138.8676   72.9993  222.1753 H   0  0  0  0  0  0  0  0  0  0  0  0
  140.6683   71.4372  221.4102 H   0  0  0  0  0  0  0  0  0  0  0  0
  142.9448   71.1166  220.4788 H   0  0  0  0  0  0  0  0  0  0  0  0
  145.3328   74.5748  219.5864 H   0  0  0  0  0  0  0  0  0  0  0  0
  143.4813   76.0326  220.3714 H   0  0  0  0  0  0  0  0  0  0  0  0
  1  2  2  0
  2  3  1  0
  3  4  1  0
  4  5  1  0
  5  6  2  0
  5  7  1  0
  7  8  1  0
  8  9  1  0
  9 10  1  0
 10 11  1  0
 11 12  1  0
 12 13  1  0
 13 14  2  0
 14 15  1  0
 15 16  2  0
 16 17  1  0
 17 18  2  0
  2 19  1  0
 19 20  2  0
 20 21  1  0
 21 22  2  0
 22 23  1  0
 23 24  2  0
 24 25  1  0
 24 26  1  0
 26 27  2  0
 27 28  1  0
 28 29  2  0
 12  7  1  0
 18 13  1  0
 29 19  1  0
 28 22  1  0
  3 30  1  0
  4 31  1  0
  4 32  1  0
  8 33  1  0
  8 34  1  0
  9 35  1  0
  9 36  1  0
 10 37  1  0
 10 38  1  0
 11 39  1  0
 11 40  1  0
 12 41  1  6
 14 42  1  0
 15 43  1  0
 16 44  1  0
 17 45  1  0
 20 46  1  0
 21 47  1  0
 23 48  1  0
 26 49  1  0
 27 50  1  0
M  END
>  <smiles>  (94) 
O=C(NCC(=O)N1CCCCC1c1ccccn1)c1ccc2cc(Cl)ccc2n1

>  <score_type>  (94) 
oracle

>  <origin>  (94) 
autodockgpu

>  <m_score__min__energy>  (94) 
-8.9399999999999995

>  <m_primary>  (94) 
energy

>  <rmsd>  (94) 
5.932588153109497

>  <m_score__min__rmsd>  (94) 
5.932588153109497

>  <meeko>  (94) 
{"free_energy": -6.91, "intermolecular_energy": -8.4, "internal_energy": -3.04, "cluster_size": 7, "cluster_id": 4, "rank_in_cluster": 2}

>  <energy>  (94) 
-6.92

>  <cluster_rmsd>  (94) 
0.0

>  <cluster>  (94) 
4

$$$$

     RDKit          3D

 50 53  0  0  0  0  0  0  0  0999 V2000
  137.9210   75.2460  222.5320 O   0  0  0  0  0  0  0  0  0  0  0  0
  139.0570   75.6820  222.1870 C   0  0  0  0  0  0  0  0  0  0  0  0
  139.3530   77.0710  222.2370 N   0  0  0  0  0  0  0  0  0  0  0  0
  138.3480   78.0080  222.6910 C   0  0  0  0  0  0  0  0  0  0  0  0
  138.9540   79.2170  223.2890 C   0  0  0  0  0  0  0  0  0  0  0  0
  138.2970   79.9000  224.1130 O   0  0  0  0  0  0  0  0  0  0  0  0
  140.2770   79.5690  222.9030 N   0  0  0  0  0  0  0  0  0  0  0  0
  141.4400   78.9810  223.5390 C   0  0  0  0  0  0  0  0  0  0  0  0
  142.6870   79.7650  223.2940 C   0  0  0  0  0  0  0  0  0  0  0  0
  142.5090   81.2400  223.1790 C   0  0  0  0  0  0  0  0  0  0  0  0
  141.2640   81.6760  222.4560 C   0  0  0  0  0  0  0  0  0  0  0  0
  140.5020   80.5540  221.8350 C   0  0  1  0  0  0  0  0  0  0  0  0
  141.2250   79.9730  220.7050 C   0  0  0  0  0  0  0  0  0  0  0  0
  141.8510   80.6840  219.7070 C   0  0  0  0  0  0  0  0  0  0  0  0
  142.5240   80.0960  218.6570 C   0  0  0  0  0  0  0  0  0  0  0  0
  142.5780   78.7180  218.5950 C   0  0  0  0  0  0  0  0  0  0  0  0
  141.9430   78.0270  219.6060 C   0  0  0  0  0  0  0  0  0  0  0  0
  141.2940   78.6270  220.6190 N   0  0  0  0  0  0  0  0  0  0  0  0
  140.0880   74.7440  221.7230 C   0  0  0  0  0  0  0  0  0  0  0  0
  139.8310   73.3860  221.7470 C   0  0  0  0  0  0  0  0  0  0  0  0
  140.8270   72.5090  221.3020 C   0  0  0  0  0  0  0  0  0  0  0  0
  142.0480   72.9890  220.8460 C   0  0  0  0  0  0  0  0  0  0  0  0
  143.0570   72.1740  220.3990 C   0  0  0  0  0  0  0  0  0  0  0  0
  144.2480   72.7170  219.9580 C   0  0  0  0  0  0  0  0  0  0  0  0
  145.5700   71.7030  219.3760 Cl  0  0  0  0  0  0  0  0  0  0  0  0
  144.4330   74.0810  219.9620 C   0  0  0  0  0  0  0  0  0  0  0  0
  143.4140   74.8970  220.4130 C   0  0  0  0  0  0  0  0  0  0  0  0
  142.2260   74.3560  220.8530 C   0  0  0  0  0  0  0  0  0  0  0  0
  141.2750   75.2050  221.2790 N   0  0  0  0  0  0  0  0  0  0  0  0
  140.3110   77.3740  221.9390 H   0  0  0  0  0  0  0  0  0  0  0  0
  137.7276   78.3077  221.8336 H   0  0  0  0  0  0  0  0  0  0  0  0
  137.7422   77.5117  223.4634 H   0  0  0  0  0  0  0  0  0  0  0  0
  141.2617   78.9327  224.6234 H   0  0  0  0  0  0  0  0  0  0  0  0
  141.5856   77.9801  223.1065 H   0  0  0  0  0  0  0  0  0  0  0  0
  143.3775   79.5716  224.1282 H   0  0  0  0  0  0  0  0  0  0  0  0
  143.0650   79.4308  222.3165 H   0  0  0  0  0  0  0  0  0  0  0  0
  142.4783   81.6602  224.1951 H   0  0  0  0  0  0  0  0  0  0  0  0
  143.3561   81.6060  222.5803 H   0  0  0  0  0  0  0  0  0  0  0  0
  140.6060   82.1853  223.1754 H   0  0  0  0  0  0  0  0  0  0  0  0
  141.5849   82.3363  221.6368 H   0  0  0  0  0  0  0  0  0  0  0  0
  139.5464   80.9074  221.4204 H   0  0  0  0  0  0  0  0  0  0  0  0
  141.8124   81.7825  219.7492 H   0  0  0  0  0  0  0  0  0  0  0  0
  143.0078   80.7121  217.8848 H   0  0  0  0  0  0  0  0  0  0  0  0
  143.1014   78.1969  217.7799 H   0  0  0  0  0  0  0  0  0  0  0  0
  141.9690   76.9276  219.5821 H   0  0  0  0  0  0  0  0  0  0  0  0
  138.8650   73.0030  222.1078 H   0  0  0  0  0  0  0  0  0  0  0  0
  140.6402   71.4250  221.3136 H   0  0  0  0  0  0  0  0  0  0  0  0
  142.9169   71.0830  220.3918 H   0  0  0  0  0  0  0  0  0  0  0  0
  145.3804   74.5156  219.6105 H   0  0  0  0  0  0  0  0  0  0  0  0
  143.5523   75.9882  220.4209 H   0  0  0  0  0  0  0  0  0  0  0  0
  1  2  2  0
  2  3  1  0
  3  4  1  0
  4  5  1  0
  5  6  2  0
  5  7  1  0
  7  8  1  0
  8  9  1  0
  9 10  1  0
 10 11  1  0
 11 12  1  0
 12 13  1  0
 13 14  2  0
 14 15  1  0
 15 16  2  0
 16 17  1  0
 17 18  2  0
  2 19  1  0
 19 20  2  0
 20 21  1  0
 21 22  2  0
 22 23  1  0
 23 24  2  0
 24 25  1  0
 24 26  1  0
 26 27  2  0
 27 28  1  0
 28 29  2  0
 12  7  1  0
 18 13  1  0
 29 19  1  0
 28 22  1  0
  3 30  1  0
  4 31  1  0
  4 32  1  0
  8 33  1  0
  8 34  1  0
  9 35  1  0
  9 36  1  0
 10 37  1  0
 10 38  1  0
 11 39  1  0
 11 40  1  0
 12 41  1  6
 14 42  1  0
 15 43  1  0
 16 44  1  0
 17 45  1  0
 20 46  1  0
 21 47  1  0
 23 48  1  0
 26 49  1  0
 27 50  1  0
M  END
>  <smiles>  (95) 
O=C(NCC(=O)N1CCCCC1c1ccccn1)c1ccc2cc(Cl)ccc2n1

>  <score_type>  (95) 
oracle

>  <origin>  (95) 
autodockgpu

>  <m_score__min__energy>  (95) 
-8.9399999999999995

>  <m_primary>  (95) 
energy

>  <rmsd>  (95) 
5.949893680976087

>  <m_score__min__rmsd>  (95) 
5.949893680976087

>  <meeko>  (95) 
{"free_energy": -6.89, "intermolecular_energy": -8.38, "internal_energy": -3.05, "cluster_size": 7, "cluster_id": 4, "rank_in_cluster": 4}

>  <energy>  (95) 
-6.91

>  <cluster_rmsd>  (95) 
0.03

>  <cluster>  (95) 
4

$$$$

     RDKit          3D

 50 53  0  0  0  0  0  0  0  0999 V2000
  139.5720   72.1010  220.7490 O   0  0  0  0  0  0  0  0  0  0  0  0
  139.6080   72.5060  221.9470 C   0  0  0  0  0  0  0  0  0  0  0  0
  139.5340   73.8910  222.2530 N   0  0  0  0  0  0  0  0  0  0  0  0
  139.4140   74.8620  221.1870 C   0  0  0  0  0  0  0  0  0  0  0  0
  140.6690   75.6150  220.9850 C   0  0  0  0  0  0  0  0  0  0  0  0
  141.7660   75.0020  220.9590 O   0  0  0  0  0  0  0  0  0  0  0  0
  140.5910   77.0270  220.8270 N   0  0  0  0  0  0  0  0  0  0  0  0
  139.3200   77.7120  220.7020 C   0  0  0  0  0  0  0  0  0  0  0  0
  139.4610   79.0890  220.1420 C   0  0  0  0  0  0  0  0  0  0  0  0
  140.5590   79.2710  219.1500 C   0  0  0  0  0  0  0  0  0  0  0  0
  141.8230   78.5140  219.4530 C   0  0  0  0  0  0  0  0  0  0  0  0
  141.8170   77.8380  220.7830 C   0  0  1  0  0  0  0  0  0  0  0  0
  141.8660   78.8050  221.8780 C   0  0  0  0  0  0  0  0  0  0  0  0
  141.6020   78.5280  223.2000 C   0  0  0  0  0  0  0  0  0  0  0  0
  141.6590   79.4730  224.2040 C   0  0  0  0  0  0  0  0  0  0  0  0
  142.0000   80.7690  223.8740 C   0  0  0  0  0  0  0  0  0  0  0  0
  142.2600   81.0220  222.5430 C   0  0  0  0  0  0  0  0  0  0  0  0
  142.1970   80.0810  221.5840 N   0  0  0  0  0  0  0  0  0  0  0  0
  139.7300   71.5330  223.0410 C   0  0  0  0  0  0  0  0  0  0  0  0
  139.2900   70.2370  222.8510 C   0  0  0  0  0  0  0  0  0  0  0  0
  139.4150   69.3260  223.9070 C   0  0  0  0  0  0  0  0  0  0  0  0
  139.9690   69.7130  225.1210 C   0  0  0  0  0  0  0  0  0  0  0  0
  140.1140   68.8620  226.1860 C   0  0  0  0  0  0  0  0  0  0  0  0
  140.6740   69.3120  227.3670 C   0  0  0  0  0  0  0  0  0  0  0  0
  140.8780   68.2480  228.7600 Cl  0  0  0  0  0  0  0  0  0  0  0  0
  141.0910   70.6180  227.4840 C   0  0  0  0  0  0  0  0  0  0  0  0
  140.9420   71.4710  226.4080 C   0  0  0  0  0  0  0  0  0  0  0  0
  140.3840   71.0230  225.2300 C   0  0  0  0  0  0  0  0  0  0  0  0
  140.2670   71.9040  224.2210 N   0  0  0  0  0  0  0  0  0  0  0  0
  139.5690   74.1670  223.2640 H   0  0  0  0  0  0  0  0  0  0  0  0
  139.1601   74.3369  220.2544 H   0  0  0  0  0  0  0  0  0  0  0  0
  138.6270   75.5785  221.4650 H   0  0  0  0  0  0  0  0  0  0  0  0
  138.6684   77.1264  220.0368 H   0  0  0  0  0  0  0  0  0  0  0  0
  138.8920   77.8055  221.7110 H   0  0  0  0  0  0  0  0  0  0  0  0
  138.5132   79.3532  219.6502 H   0  0  0  0  0  0  0  0  0  0  0  0
  139.7148   79.7363  220.9944 H   0  0  0  0  0  0  0  0  0  0  0  0
  140.1900   78.9394  218.1682 H   0  0  0  0  0  0  0  0  0  0  0  0
  140.8256   80.3378  219.1796 H   0  0  0  0  0  0  0  0  0  0  0  0
  141.9633   77.7484  218.6757 H   0  0  0  0  0  0  0  0  0  0  0  0
  142.6401   79.2502  219.4720 H   0  0  0  0  0  0  0  0  0  0  0  0
  142.7091   77.2069  220.9090 H   0  0  0  0  0  0  0  0  0  0  0  0
  141.3308   77.4970  223.4711 H   0  0  0  0  0  0  0  0  0  0  0  0
  141.4372   79.1990  225.2460 H   0  0  0  0  0  0  0  0  0  0  0  0
  142.0614   81.5611  224.6347 H   0  0  0  0  0  0  0  0  0  0  0  0
  142.5330   82.0467  222.2508 H   0  0  0  0  0  0  0  0  0  0  0  0
  138.8510   69.9277  221.8910 H   0  0  0  0  0  0  0  0  0  0  0  0
  139.0700   68.2901  223.7737 H   0  0  0  0  0  0  0  0  0  0  0  0
  139.7832   67.8164  226.1004 H   0  0  0  0  0  0  0  0  0  0  0  0
  141.5374   70.9782  228.4226 H   0  0  0  0  0  0  0  0  0  0  0  0
  141.2716   72.5171  226.4919 H   0  0  0  0  0  0  0  0  0  0  0  0
  1  2  2  0
  2  3  1  0
  3  4  1  0
  4  5  1  0
  5  6  2  0
  5  7  1  0
  7  8  1  0
  8  9  1  0
  9 10  1  0
 10 11  1  0
 11 12  1  0
 12 13  1  0
 13 14  2  0
 14 15  1  0
 15 16  2  0
 16 17  1  0
 17 18  2  0
  2 19  1  0
 19 20  2  0
 20 21  1  0
 21 22  2  0
 22 23  1  0
 23 24  2  0
 24 25  1  0
 24 26  1  0
 26 27  2  0
 27 28  1  0
 28 29  2  0
 12  7  1  0
 18 13  1  0
 29 19  1  0
 28 22  1  0
  3 30  1  0
  4 31  1  0
  4 32  1  0
  8 33  1  0
  8 34  1  0
  9 35  1  0
  9 36  1  0
 10 37  1  0
 10 38  1  0
 11 39  1  0
 11 40  1  0
 12 41  1  6
 14 42  1  0
 15 43  1  0
 16 44  1  0
 17 45  1  0
 20 46  1  0
 21 47  1  0
 23 48  1  0
 26 49  1  0
 27 50  1  0
M  END
>  <smiles>  (96) 
O=C(NCC(=O)N1CCCCC1c1ccccn1)c1ccc2cc(Cl)ccc2n1

>  <score_type>  (96) 
oracle

>  <origin>  (96) 
autodockgpu

>  <m_score__min__energy>  (96) 
-8.9399999999999995

>  <m_primary>  (96) 
energy

>  <rmsd>  (96) 
2.6407942229117407

>  <m_score__min__rmsd>  (96) 
2.6407942229117407

>  <meeko>  (96) 
{"free_energy": -8.54, "intermolecular_energy": -10.03, "internal_energy": -1.59, "cluster_size": 40, "cluster_id": 1, "rank_in_cluster": 24}

>  <energy>  (96) 
-6.91

>  <cluster_rmsd>  (96) 
0.07

>  <cluster>  (96) 
4

$$$$

     RDKit          3D

 50 53  0  0  0  0  0  0  0  0999 V2000
  137.8430   75.2260  222.4390 O   0  0  0  0  0  0  0  0  0  0  0  0
  138.9990   75.6660  222.1750 C   0  0  0  0  0  0  0  0  0  0  0  0
  139.3000   77.0490  222.2940 N   0  0  0  0  0  0  0  0  0  0  0  0
  138.2760   77.9770  222.7260 C   0  0  0  0  0  0  0  0  0  0  0  0
  138.8550   79.2500  223.2040 C   0  0  0  0  0  0  0  0  0  0  0  0
  138.1610   80.0230  223.9120 O   0  0  0  0  0  0  0  0  0  0  0  0
  140.1950   79.5610  222.8410 N   0  0  0  0  0  0  0  0  0  0  0  0
  141.3280   78.9440  223.5020 C   0  0  0  0  0  0  0  0  0  0  0  0
  142.6020   79.6890  223.2750 C   0  0  0  0  0  0  0  0  0  0  0  0
  142.4690   81.1680  223.1470 C   0  0  0  0  0  0  0  0  0  0  0  0
  141.2510   81.6360  222.3990 C   0  0  0  0  0  0  0  0  0  0  0  0
  140.4680   80.5320  221.7700 C   0  0  1  0  0  0  0  0  0  0  0  0
  141.1950   79.9220  220.6580 C   0  0  0  0  0  0  0  0  0  0  0  0
  141.8510   80.6080  219.6620 C   0  0  0  0  0  0  0  0  0  0  0  0
  142.5260   79.9920  218.6290 C   0  0  0  0  0  0  0  0  0  0  0  0
  142.5500   78.6130  218.5820 C   0  0  0  0  0  0  0  0  0  0  0  0
  141.8840   77.9480  219.5910 C   0  0  0  0  0  0  0  0  0  0  0  0
  141.2330   78.5740  220.5880 N   0  0  0  0  0  0  0  0  0  0  0  0
  140.0490   74.7370  221.7350 C   0  0  0  0  0  0  0  0  0  0  0  0
  139.8270   73.3750  221.8120 C   0  0  0  0  0  0  0  0  0  0  0  0
  140.8410   72.5080  221.3890 C   0  0  0  0  0  0  0  0  0  0  0  0
  142.0450   73.0010  220.9020 C   0  0  0  0  0  0  0  0  0  0  0  0
  143.0690   72.1960  220.4750 C   0  0  0  0  0  0  0  0  0  0  0  0
  144.2420   72.7520  220.0010 C   0  0  0  0  0  0  0  0  0  0  0  0
  145.5840   71.7510  219.4420 Cl  0  0  0  0  0  0  0  0  0  0  0  0
  144.3920   74.1190  219.9520 C   0  0  0  0  0  0  0  0  0  0  0  0
  143.3570   74.9260  220.3840 C   0  0  0  0  0  0  0  0  0  0  0  0
  142.1870   74.3720  220.8570 C   0  0  0  0  0  0  0  0  0  0  0  0
  141.2190   75.2120  221.2610 N   0  0  0  0  0  0  0  0  0  0  0  0
  140.2750   77.3560  222.0620 H   0  0  0  0  0  0  0  0  0  0  0  0
  137.6054   78.1865  221.8796 H   0  0  0  0  0  0  0  0  0  0  0  0
  137.7273   77.5163  223.5607 H   0  0  0  0  0  0  0  0  0  0  0  0
  141.1286   78.9088  224.5832 H   0  0  0  0  0  0  0  0  0  0  0  0
  141.4519   77.9363  223.0787 H   0  0  0  0  0  0  0  0  0  0  0  0
  143.2711   79.4815  224.1231 H   0  0  0  0  0  0  0  0  0  0  0  0
  142.9883   79.3367  222.3072 H   0  0  0  0  0  0  0  0  0  0  0  0
  142.4324   81.5959  224.1597 H   0  0  0  0  0  0  0  0  0  0  0  0
  143.3369   81.5043  222.5608 H   0  0  0  0  0  0  0  0  0  0  0  0
  140.5950   82.1685  223.1034 H   0  0  0  0  0  0  0  0  0  0  0  0
  141.6057   82.2821  221.5825 H   0  0  0  0  0  0  0  0  0  0  0  0
  139.5313   80.9101  221.3346 H   0  0  0  0  0  0  0  0  0  0  0  0
  141.8363   81.7075  219.6912 H   0  0  0  0  0  0  0  0  0  0  0  0
  143.0353   80.5883  217.8576 H   0  0  0  0  0  0  0  0  0  0  0  0
  143.0737   78.0713  217.7806 H   0  0  0  0  0  0  0  0  0  0  0  0
  141.8855   76.8481  219.5796 H   0  0  0  0  0  0  0  0  0  0  0  0
  138.8748   72.9813  222.1971 H   0  0  0  0  0  0  0  0  0  0  0  0
  140.6824   71.4208  221.4430 H   0  0  0  0  0  0  0  0  0  0  0  0
  142.9565   71.1023  220.5098 H   0  0  0  0  0  0  0  0  0  0  0  0
  145.3242   74.5637  219.5736 H   0  0  0  0  0  0  0  0  0  0  0  0
  143.4677   76.0199  220.3501 H   0  0  0  0  0  0  0  0  0  0  0  0
  1  2  2  0
  2  3  1  0
  3  4  1  0
  4  5  1  0
  5  6  2  0
  5  7  1  0
  7  8  1  0
  8  9  1  0
  9 10  1  0
 10 11  1  0
 11 12  1  0
 12 13  1  0
 13 14  2  0
 14 15  1  0
 15 16  2  0
 16 17  1  0
 17 18  2  0
  2 19  1  0
 19 20  2  0
 20 21  1  0
 21 22  2  0
 22 23  1  0
 23 24  2  0
 24 25  1  0
 24 26  1  0
 26 27  2  0
 27 28  1  0
 28 29  2  0
 12  7  1  0
 18 13  1  0
 29 19  1  0
 28 22  1  0
  3 30  1  0
  4 31  1  0
  4 32  1  0
  8 33  1  0
  8 34  1  0
  9 35  1  0
  9 36  1  0
 10 37  1  0
 10 38  1  0
 11 39  1  0
 11 40  1  0
 12 41  1  6
 14 42  1  0
 15 43  1  0
 16 44  1  0
 17 45  1  0
 20 46  1  0
 21 47  1  0
 23 48  1  0
 26 49  1  0
 27 50  1  0
M  END
>  <smiles>  (97) 
O=C(NCC(=O)N1CCCCC1c1ccccn1)c1ccc2cc(Cl)ccc2n1

>  <score_type>  (97) 
oracle

>  <origin>  (97) 
autodockgpu

>  <m_score__min__energy>  (97) 
-8.9399999999999995

>  <m_primary>  (97) 
energy

>  <rmsd>  (97) 
5.92466875990785

>  <m_score__min__rmsd>  (97) 
5.92466875990785

>  <meeko>  (97) 
{"free_energy": -6.92, "intermolecular_energy": -8.41, "internal_energy": -3.03, "cluster_size": 7, "cluster_id": 4, "rank_in_cluster": 1}

>  <energy>  (97) 
-6.89

>  <cluster_rmsd>  (97) 
0.1

>  <cluster>  (97) 
4

$$$$

     RDKit          3D

 50 53  0  0  0  0  0  0  0  0999 V2000
  137.8560   75.2080  222.4320 O   0  0  0  0  0  0  0  0  0  0  0  0
  139.0070   75.6490  222.1510 C   0  0  0  0  0  0  0  0  0  0  0  0
  139.3060   77.0330  222.2580 N   0  0  0  0  0  0  0  0  0  0  0  0
  138.2860   77.9610  222.6970 C   0  0  0  0  0  0  0  0  0  0  0  0
  138.8710   79.2040  223.2430 C   0  0  0  0  0  0  0  0  0  0  0  0
  138.1920   79.9250  224.0170 O   0  0  0  0  0  0  0  0  0  0  0  0
  140.2000   79.5460  222.8660 N   0  0  0  0  0  0  0  0  0  0  0  0
  141.3540   78.9720  223.5290 C   0  0  0  0  0  0  0  0  0  0  0  0
  142.6050   79.7480  223.2820 C   0  0  0  0  0  0  0  0  0  0  0  0
  142.4300   81.2210  223.1320 C   0  0  0  0  0  0  0  0  0  0  0  0
  141.1950   81.6420  222.3840 C   0  0  0  0  0  0  0  0  0  0  0  0
  140.4390   80.5070  221.7780 C   0  0  1  0  0  0  0  0  0  0  0  0
  141.1750   79.9010  220.6710 C   0  0  0  0  0  0  0  0  0  0  0  0
  141.8630   80.5890  219.6980 C   0  0  0  0  0  0  0  0  0  0  0  0
  142.5460   79.9760  218.6680 C   0  0  0  0  0  0  0  0  0  0  0  0
  142.5460   78.5970  218.6020 C   0  0  0  0  0  0  0  0  0  0  0  0
  141.8500   77.9300  219.5880 C   0  0  0  0  0  0  0  0  0  0  0  0
  141.1910   78.5530  220.5820 N   0  0  0  0  0  0  0  0  0  0  0  0
  140.0540   74.7200  221.7040 C   0  0  0  0  0  0  0  0  0  0  0  0
  139.8170   73.3590  221.7430 C   0  0  0  0  0  0  0  0  0  0  0  0
  140.8280   72.4910  221.3140 C   0  0  0  0  0  0  0  0  0  0  0  0
  142.0440   72.9840  220.8570 C   0  0  0  0  0  0  0  0  0  0  0  0
  143.0670   72.1780  220.4250 C   0  0  0  0  0  0  0  0  0  0  0  0
  144.2520   72.7340  219.9830 C   0  0  0  0  0  0  0  0  0  0  0  0
  145.5910   71.7320  219.4190 Cl  0  0  0  0  0  0  0  0  0  0  0  0
  144.4170   74.1000  219.9700 C   0  0  0  0  0  0  0  0  0  0  0  0
  143.3840   74.9060  220.4060 C   0  0  0  0  0  0  0  0  0  0  0  0
  142.2020   74.3530  220.8480 C   0  0  0  0  0  0  0  0  0  0  0  0
  141.2360   75.1930  221.2590 N   0  0  0  0  0  0  0  0  0  0  0  0
  140.2780   77.3410  222.0120 H   0  0  0  0  0  0  0  0  0  0  0  0
  137.6445   78.2160  221.8405 H   0  0  0  0  0  0  0  0  0  0  0  0
  137.7056   77.4771  223.4964 H   0  0  0  0  0  0  0  0  0  0  0  0
  141.1623   78.9487  224.6119 H   0  0  0  0  0  0  0  0  0  0  0  0
  141.5035   77.9616  223.1207 H   0  0  0  0  0  0  0  0  0  0  0  0
  143.2850   79.5724  224.1286 H   0  0  0  0  0  0  0  0  0  0  0  0
  142.9949   79.3914  222.3172 H   0  0  0  0  0  0  0  0  0  0  0  0
  142.3869   81.6636  224.1381 H   0  0  0  0  0  0  0  0  0  0  0  0
  143.2850   81.5728  222.5360 H   0  0  0  0  0  0  0  0  0  0  0  0
  140.5286   82.1677  223.0837 H   0  0  0  0  0  0  0  0  0  0  0  0
  141.5272   82.2836  221.5545 H   0  0  0  0  0  0  0  0  0  0  0  0
  139.4890   80.8515  221.3434 H   0  0  0  0  0  0  0  0  0  0  0  0
  141.8687   81.6880  219.7440 H   0  0  0  0  0  0  0  0  0  0  0  0
  143.0798   80.5738  217.9146 H   0  0  0  0  0  0  0  0  0  0  0  0
  143.0749   78.0572  217.8027 H   0  0  0  0  0  0  0  0  0  0  0  0
  141.8326   76.8305  219.5605 H   0  0  0  0  0  0  0  0  0  0  0  0
  138.8547   72.9663  222.1033 H   0  0  0  0  0  0  0  0  0  0  0  0
  140.6576   71.4046  221.3390 H   0  0  0  0  0  0  0  0  0  0  0  0
  142.9431   71.0850  220.4306 H   0  0  0  0  0  0  0  0  0  0  0  0
  145.3594   74.5441  219.6169 H   0  0  0  0  0  0  0  0  0  0  0  0
  143.5059   75.9992  220.4004 H   0  0  0  0  0  0  0  0  0  0  0  0
  1  2  2  0
  2  3  1  0
  3  4  1  0
  4  5  1  0
  5  6  2  0
  5  7  1  0
  7  8  1  0
  8  9  1  0
  9 10  1  0
 10 11  1  0
 11 12  1  0
 12 13  1  0
 13 14  2  0
 14 15  1  0
 15 16  2  0
 16 17  1  0
 17 18  2  0
  2 19  1  0
 19 20  2  0
 20 21  1  0
 21 22  2  0
 22 23  1  0
 23 24  2  0
 24 25  1  0
 24 26  1  0
 26 27  2  0
 27 28  1  0
 28 29  2  0
 12  7  1  0
 18 13  1  0
 29 19  1  0
 28 22  1  0
  3 30  1  0
  4 31  1  0
  4 32  1  0
  8 33  1  0
  8 34  1  0
  9 35  1  0
  9 36  1  0
 10 37  1  0
 10 38  1  0
 11 39  1  0
 11 40  1  0
 12 41  1  6
 14 42  1  0
 15 43  1  0
 16 44  1  0
 17 45  1  0
 20 46  1  0
 21 47  1  0
 23 48  1  0
 26 49  1  0
 27 50  1  0
M  END
>  <smiles>  (98) 
O=C(NCC(=O)N1CCCCC1c1ccccn1)c1ccc2cc(Cl)ccc2n1

>  <score_type>  (98) 
oracle

>  <origin>  (98) 
autodockgpu

>  <m_score__min__energy>  (98) 
-8.9399999999999995

>  <m_primary>  (98) 
energy

>  <rmsd>  (98) 
5.927294803173614

>  <m_score__min__rmsd>  (98) 
5.927294803173614

>  <meeko>  (98) 
{"free_energy": -6.88, "intermolecular_energy": -8.37, "internal_energy": -3.07, "cluster_size": 7, "cluster_id": 4, "rank_in_cluster": 6}

>  <energy>  (98) 
-6.88

>  <cluster_rmsd>  (98) 
0.09

>  <cluster>  (98) 
4

$$$$

     RDKit          3D

 50 53  0  0  0  0  0  0  0  0999 V2000
  139.3310   72.1190  220.8210 O   0  0  0  0  0  0  0  0  0  0  0  0
  139.4640   72.5090  222.0170 C   0  0  0  0  0  0  0  0  0  0  0  0
  139.4350   73.8910  222.3430 N   0  0  0  0  0  0  0  0  0  0  0  0
  139.2490   74.8760  221.3000 C   0  0  0  0  0  0  0  0  0  0  0  0
  138.9890   76.2220  221.8540 C   0  0  0  0  0  0  0  0  0  0  0  0
  138.1160   76.3700  222.7460 O   0  0  0  0  0  0  0  0  0  0  0  0
  139.7470   77.3160  221.3530 N   0  0  0  0  0  0  0  0  0  0  0  0
  139.1660   78.3050  220.4660 C   0  0  0  0  0  0  0  0  0  0  0  0
  140.1980   79.1040  219.7410 C   0  0  0  0  0  0  0  0  0  0  0  0
  141.4550   78.3780  219.4020 C   0  0  0  0  0  0  0  0  0  0  0  0
  141.9370   77.4150  220.4520 C   0  0  0  0  0  0  0  0  0  0  0  0
  141.1610   77.4730  221.7260 C   0  0  1  0  0  0  0  0  0  0  0  0
  141.3970   78.7250  222.4430 C   0  0  0  0  0  0  0  0  0  0  0  0
  142.6020   79.3840  222.5230 C   0  0  0  0  0  0  0  0  0  0  0  0
  142.7810   80.5660  223.2120 C   0  0  0  0  0  0  0  0  0  0  0  0
  141.6980   81.1240  223.8610 C   0  0  0  0  0  0  0  0  0  0  0  0
  140.5020   80.4450  223.7670 C   0  0  0  0  0  0  0  0  0  0  0  0
  140.3550   79.2930  223.0870 N   0  0  0  0  0  0  0  0  0  0  0  0
  139.6550   71.5210  223.0870 C   0  0  0  0  0  0  0  0  0  0  0  0
  139.3040   70.2030  222.8660 C   0  0  0  0  0  0  0  0  0  0  0  0
  139.4930   69.2780  223.9000 C   0  0  0  0  0  0  0  0  0  0  0  0
  140.0220   69.6730  225.1230 C   0  0  0  0  0  0  0  0  0  0  0  0
  140.2280   68.8080  226.1670 C   0  0  0  0  0  0  0  0  0  0  0  0
  140.7580   69.2670  227.3580 C   0  0  0  0  0  0  0  0  0  0  0  0
  141.0370   68.1870  228.7250 Cl  0  0  0  0  0  0  0  0  0  0  0  0
  141.0850   70.5950  227.5060 C   0  0  0  0  0  0  0  0  0  0  0  0
  140.8760   71.4610  226.4510 C   0  0  0  0  0  0  0  0  0  0  0  0
  140.3470   71.0050  225.2630 C   0  0  0  0  0  0  0  0  0  0  0  0
  140.1680   71.9000  224.2750 N   0  0  0  0  0  0  0  0  0  0  0  0
  139.5520   74.1540  223.3510 H   0  0  0  0  0  0  0  0  0  0  0  0
  140.1578   74.9153  220.6815 H   0  0  0  0  0  0  0  0  0  0  0  0
  138.3752   74.5786  220.7016 H   0  0  0  0  0  0  0  0  0  0  0  0
  138.5369   77.7883  219.7262 H   0  0  0  0  0  0  0  0  0  0  0  0
  138.5789   79.0012  221.0829 H   0  0  0  0  0  0  0  0  0  0  0  0
  139.7505   79.4621  218.8021 H   0  0  0  0  0  0  0  0  0  0  0  0
  140.4927   79.9097  220.4295 H   0  0  0  0  0  0  0  0  0  0  0  0
  141.2827   77.8128  218.4742 H   0  0  0  0  0  0  0  0  0  0  0  0
  142.2370   79.1458  219.3075 H   0  0  0  0  0  0  0  0  0  0  0  0
  141.8627   76.3950  220.0470 H   0  0  0  0  0  0  0  0  0  0  0  0
  142.9719   77.6980  220.6946 H   0  0  0  0  0  0  0  0  0  0  0  0
  141.4749   76.6766  222.4168 H   0  0  0  0  0  0  0  0  0  0  0  0
  143.4701   78.9447  222.0097 H   0  0  0  0  0  0  0  0  0  0  0  0
  143.7665   81.0536  223.2435 H   0  0  0  0  0  0  0  0  0  0  0  0
  141.7850   82.0642  224.4254 H   0  0  0  0  0  0  0  0  0  0  0  0
  139.6218   80.8668  224.2743 H   0  0  0  0  0  0  0  0  0  0  0  0
  138.8853   69.8874  221.8990 H   0  0  0  0  0  0  0  0  0  0  0  0
  139.2191   68.2244  223.7422 H   0  0  0  0  0  0  0  0  0  0  0  0
  139.9703   67.7444  226.0560 H   0  0  0  0  0  0  0  0  0  0  0  0
  141.5076   70.9624  228.4528 H   0  0  0  0  0  0  0  0  0  0  0  0
  141.1342   72.5247  226.5598 H   0  0  0  0  0  0  0  0  0  0  0  0
  1  2  2  0
  2  3  1  0
  3  4  1  0
  4  5  1  0
  5  6  2  0
  5  7  1  0
  7  8  1  0
  8  9  1  0
  9 10  1  0
 10 11  1  0
 11 12  1  0
 12 13  1  0
 13 14  2  0
 14 15  1  0
 15 16  2  0
 16 17  1  0
 17 18  2  0
  2 19  1  0
 19 20  2  0
 20 21  1  0
 21 22  2  0
 22 23  1  0
 23 24  2  0
 24 25  1  0
 24 26  1  0
 26 27  2  0
 27 28  1  0
 28 29  2  0
 12  7  1  0
 18 13  1  0
 29 19  1  0
 28 22  1  0
  3 30  1  0
  4 31  1  0
  4 32  1  0
  8 33  1  0
  8 34  1  0
  9 35  1  0
  9 36  1  0
 10 37  1  0
 10 38  1  0
 11 39  1  0
 11 40  1  0
 12 41  1  1
 14 42  1  0
 15 43  1  0
 16 44  1  0
 17 45  1  0
 20 46  1  0
 21 47  1  0
 23 48  1  0
 26 49  1  0
 27 50  1  0
M  END
>  <smiles>  (99) 
O=C(NCC(=O)N1CCCCC1c1ccccn1)c1ccc2cc(Cl)ccc2n1

>  <score_type>  (99) 
oracle

>  <origin>  (99) 
autodockgpu

>  <m_score__min__energy>  (99) 
-8.9399999999999995

>  <m_primary>  (99) 
energy

>  <rmsd>  (99) 
2.4933332483949266

>  <m_score__min__rmsd>  (99) 
2.4933332483949266

>  <meeko>  (99) 
{"free_energy": -8.75, "intermolecular_energy": -10.24, "internal_energy": -1.75, "cluster_size": 40, "cluster_id": 1, "rank_in_cluster": 7}

>  <energy>  (99) 
-6.88

>  <cluster_rmsd>  (99) 
0.05

>  <cluster>  (99) 
4

$$$$

     RDKit          3D

 50 53  0  0  0  0  0  0  0  0999 V2000
  141.1610   72.8740  221.1320 O   0  0  0  0  0  0  0  0  0  0  0  0
  140.2670   72.9720  222.0220 C   0  0  0  0  0  0  0  0  0  0  0  0
  139.3420   74.0500  222.0140 N   0  0  0  0  0  0  0  0  0  0  0  0
  139.4130   75.0550  220.9750 C   0  0  0  0  0  0  0  0  0  0  0  0
  140.4140   76.0970  221.2870 C   0  0  0  0  0  0  0  0  0  0  0  0
  141.6390   75.8320  221.1960 O   0  0  0  0  0  0  0  0  0  0  0  0
  139.9490   77.3820  221.6840 N   0  0  0  0  0  0  0  0  0  0  0  0
  138.9400   77.5450  222.7120 C   0  0  0  0  0  0  0  0  0  0  0  0
  138.3060   78.8960  222.6860 C   0  0  0  0  0  0  0  0  0  0  0  0
  138.1710   79.5190  221.3390 C   0  0  0  0  0  0  0  0  0  0  0  0
  139.3270   79.2800  220.4080 C   0  0  0  0  0  0  0  0  0  0  0  0
  140.4880   78.5950  221.0500 C   0  0  1  0  0  0  0  0  0  0  0  0
  141.1550   79.4620  222.0190 C   0  0  0  0  0  0  0  0  0  0  0  0
  141.9310   79.0340  223.0710 C   0  0  0  0  0  0  0  0  0  0  0  0
  142.5440   79.8870  223.9650 C   0  0  0  0  0  0  0  0  0  0  0  0
  142.3750   81.2480  223.8030 C   0  0  0  0  0  0  0  0  0  0  0  0
  141.5930   81.6530  222.7420 C   0  0  0  0  0  0  0  0  0  0  0  0
  141.0060   80.7980  221.8840 N   0  0  0  0  0  0  0  0  0  0  0  0
  140.1820   71.9600  223.0840 C   0  0  0  0  0  0  0  0  0  0  0  0
  139.5890   70.7400  222.8150 C   0  0  0  0  0  0  0  0  0  0  0  0
  139.5170   69.7910  223.8400 C   0  0  0  0  0  0  0  0  0  0  0  0
  140.0300   70.0640  225.1030 C   0  0  0  0  0  0  0  0  0  0  0  0
  139.9860   69.1700  226.1410 C   0  0  0  0  0  0  0  0  0  0  0  0
  140.5150   69.5050  227.3730 C   0  0  0  0  0  0  0  0  0  0  0  0
  140.4780   68.3830  228.7340 Cl  0  0  0  0  0  0  0  0  0  0  0  0
  141.0920   70.7390  227.5680 C   0  0  0  0  0  0  0  0  0  0  0  0
  141.1340   71.6360  226.5180 C   0  0  0  0  0  0  0  0  0  0  0  0
  140.6060   71.3020  225.2900 C   0  0  0  0  0  0  0  0  0  0  0  0
  140.6790   72.2200  224.3100 N   0  0  0  0  0  0  0  0  0  0  0  0
  138.6230   74.0790  222.7770 H   0  0  0  0  0  0  0  0  0  0  0  0
  139.6885   74.5688  220.0275 H   0  0  0  0  0  0  0  0  0  0  0  0
  138.4280   75.5387  220.8992 H   0  0  0  0  0  0  0  0  0  0  0  0
  138.1581   76.7861  222.5614 H   0  0  0  0  0  0  0  0  0  0  0  0
  139.4363   77.4290  223.6868 H   0  0  0  0  0  0  0  0  0  0  0  0
  137.2990   78.8055  223.1193 H   0  0  0  0  0  0  0  0  0  0  0  0
  138.9782   79.5545  223.2557 H   0  0  0  0  0  0  0  0  0  0  0  0
  137.2634   79.1156  220.8662 H   0  0  0  0  0  0  0  0  0  0  0  0
  138.1314   80.6055  221.5062 H   0  0  0  0  0  0  0  0  0  0  0  0
  138.9758   78.6569  219.5723 H   0  0  0  0  0  0  0  0  0  0  0  0
  139.6811   80.2677  220.0779 H   0  0  0  0  0  0  0  0  0  0  0  0
  141.2577   78.3404  220.3066 H   0  0  0  0  0  0  0  0  0  0  0  0
  142.0704   77.9514  223.2069 H   0  0  0  0  0  0  0  0  0  0  0  0
  143.1548   79.4914  224.7899 H   0  0  0  0  0  0  0  0  0  0  0  0
  142.8411   81.9730  224.4865 H   0  0  0  0  0  0  0  0  0  0  0  0
  141.4409   82.7316  222.5887 H   0  0  0  0  0  0  0  0  0  0  0  0
  139.1827   70.5207  221.8166 H   0  0  0  0  0  0  0  0  0  0  0  0
  139.0481   68.8154  223.6441 H   0  0  0  0  0  0  0  0  0  0  0  0
  139.5274   68.1812  225.9927 H   0  0  0  0  0  0  0  0  0  0  0  0
  141.5144   71.0078  228.5474 H   0  0  0  0  0  0  0  0  0  0  0  0
  141.5928   72.6251  226.6637 H   0  0  0  0  0  0  0  0  0  0  0  0
  1  2  2  0
  2  3  1  0
  3  4  1  0
  4  5  1  0
  5  6  2  0
  5  7  1  0
  7  8  1  0
  8  9  1  0
  9 10  1  0
 10 11  1  0
 11 12  1  0
 12 13  1  0
 13 14  2  0
 14 15  1  0
 15 16  2  0
 16 17  1  0
 17 18  2  0
  2 19  1  0
 19 20  2  0
 20 21  1  0
 21 22  2  0
 22 23  1  0
 23 24  2  0
 24 25  1  0
 24 26  1  0
 26 27  2  0
 27 28  1  0
 28 29  2  0
 12  7  1  0
 18 13  1  0
 29 19  1  0
 28 22  1  0
  3 30  1  0
  4 31  1  0
  4 32  1  0
  8 33  1  0
  8 34  1  0
  9 35  1  0
  9 36  1  0
 10 37  1  0
 10 38  1  0
 11 39  1  0
 11 40  1  0
 12 41  1  6
 14 42  1  0
 15 43  1  0
 16 44  1  0
 17 45  1  0
 20 46  1  0
 21 47  1  0
 23 48  1  0
 26 49  1  0
 27 50  1  0
M  END
>  <smiles>  (100) 
O=C(NCC(=O)N1CCCCC1c1ccccn1)c1ccc2cc(Cl)ccc2n1

>  <score_type>  (100) 
oracle

>  <origin>  (100) 
autodockgpu

>  <m_score__min__energy>  (100) 
-8.9399999999999995

>  <m_primary>  (100) 
energy

>  <rmsd>  (100) 
3.2561024544558754

>  <m_score__min__rmsd>  (100) 
3.2561024544558754

>  <meeko>  (100) 
{"free_energy": -8.66, "intermolecular_energy": -10.16, "internal_energy": -1.4, "cluster_size": 40, "cluster_id": 1, "rank_in_cluster": 11}

>  <energy>  (100) 
-6.84

>  <cluster_rmsd>  (100) 
0.07

>  <cluster>  (100) 
4

$$$$
