
     RDKit          3D

 57 60  0  0  0  0  0  0  0  0999 V2000
  139.4520   70.7440  221.2970 O   0  0  0  0  0  0  0  0  0  0  0  0
  139.4610   71.5640  222.2780 C   0  0  0  0  0  0  0  0  0  0  0  0
  139.1830   72.9430  222.1180 N   0  0  0  0  0  0  0  0  0  0  0  0
  138.8660   73.5280  220.8290 C   0  0  0  0  0  0  0  0  0  0  0  0
  140.1480   73.9620  220.1570 C   0  0  0  0  0  0  0  0  0  0  0  0
  140.2750   73.5440  218.9830 O   0  0  0  0  0  0  0  0  0  0  0  0
  141.0440   74.7570  220.8700 N   0  0  0  0  0  0  0  0  0  0  0  0
  140.4510   75.6150  221.9550 C   0  0  0  0  0  0  0  0  0  0  0  0
  141.0380   76.9810  221.7530 C   0  0  0  0  0  0  0  0  0  0  0  0
  141.8290   77.2400  220.5380 C   0  0  0  0  0  0  0  0  0  0  0  0
  142.5300   76.1410  219.8350 C   0  0  0  0  0  0  0  0  0  0  0  0
  142.4550   74.9120  220.7310 C   0  0  2  0  0  0  0  0  0  0  0  0
  143.3640   73.8320  220.4180 C   0  0  0  0  0  0  0  0  0  0  0  0
  143.0730   72.4220  220.8400 C   0  0  0  0  0  0  0  0  0  0  0  0
  143.6800   71.5170  219.7400 C   0  0  0  0  0  0  0  0  0  0  0  0
  145.0690   71.9710  219.4850 C   0  0  0  0  0  0  0  0  0  0  0  0
  145.2300   72.5410  218.2300 F   0  0  0  0  0  0  0  0  0  0  0  0
  145.8670   70.8190  219.4470 F   0  0  0  0  0  0  0  0  0  0  0  0
  145.6640   72.8760  220.5040 C   0  0  0  0  0  0  0  0  0  0  0  0
  144.8400   74.1410  220.7090 C   0  0  0  0  0  0  0  0  0  0  0  0
  139.7780   71.0320  223.6190 C   0  0  0  0  0  0  0  0  0  0  0  0
  139.5800   69.7120  223.9170 C   0  0  0  0  0  0  0  0  0  0  0  0
  139.8820   69.2380  225.1770 C   0  0  0  0  0  0  0  0  0  0  0  0
  140.3840   70.0680  226.1540 C   0  0  0  0  0  0  0  0  0  0  0  0
  140.6800   69.5860  227.4010 C   0  0  0  0  0  0  0  0  0  0  0  0
  141.1760   70.4410  228.3430 C   0  0  0  0  0  0  0  0  0  0  0  0
  141.3760   71.7810  228.0390 C   0  0  0  0  0  0  0  0  0  0  0  0
  141.0750   72.2690  226.7740 C   0  0  0  0  0  0  0  0  0  0  0  0
  140.5740   71.3980  225.8260 C   0  0  0  0  0  0  0  0  0  0  0  0
  140.2700   71.8230  224.5950 N   0  0  0  0  0  0  0  0  0  0  0  0
  139.2190   73.5330  223.0030 H   0  0  0  0  0  0  0  0  0  0  0  0
  138.3546   72.7831  220.2016 H   0  0  0  0  0  0  0  0  0  0  0  0
  138.2063   74.3973  220.9675 H   0  0  0  0  0  0  0  0  0  0  0  0
  139.3555   75.6499  221.8617 H   0  0  0  0  0  0  0  0  0  0  0  0
  140.6753   75.2189  222.9564 H   0  0  0  0  0  0  0  0  0  0  0  0
  140.2017   77.6956  221.7530 H   0  0  0  0  0  0  0  0  0  0  0  0
  141.7662   77.0816  222.5713 H   0  0  0  0  0  0  0  0  0  0  0  0
  141.1411   77.6900  219.8071 H   0  0  0  0  0  0  0  0  0  0  0  0
  142.6598   77.8534  220.9167 H   0  0  0  0  0  0  0  0  0  0  0  0
  142.0389   75.9359  218.8723 H   0  0  0  0  0  0  0  0  0  0  0  0
  143.5765   76.4126  219.6321 H   0  0  0  0  0  0  0  0  0  0  0  0
  142.8973   74.9809  221.7358 H   0  0  0  0  0  0  0  0  0  0  0  0
  143.1468   73.8190  219.3397 H   0  0  0  0  0  0  0  0  0  0  0  0
  143.5412   72.2091  221.8123 H   0  0  0  0  0  0  0  0  0  0  0  0
  141.9928   72.2492  220.9551 H   0  0  0  0  0  0  0  0  0  0  0  0
  143.6860   70.4706  220.0792 H   0  0  0  0  0  0  0  0  0  0  0  0
  143.0821   71.5830  218.8190 H   0  0  0  0  0  0  0  0  0  0  0  0
  145.7280   72.3371  221.4608 H   0  0  0  0  0  0  0  0  0  0  0  0
  146.6587   73.1782  220.1444 H   0  0  0  0  0  0  0  0  0  0  0  0
  144.9463   74.4854  221.7483 H   0  0  0  0  0  0  0  0  0  0  0  0
  145.1949   74.9288  220.0282 H   0  0  0  0  0  0  0  0  0  0  0  0
  139.1804   69.0290  223.1529 H   0  0  0  0  0  0  0  0  0  0  0  0
  139.7183   68.1746  225.4058 H   0  0  0  0  0  0  0  0  0  0  0  0
  140.5204   68.5244  227.6406 H   0  0  0  0  0  0  0  0  0  0  0  0
  141.4185   70.0661  229.3483 H   0  0  0  0  0  0  0  0  0  0  0  0
  141.7758   72.4610  228.8057 H   0  0  0  0  0  0  0  0  0  0  0  0
  141.2327   73.3302  226.5313 H   0  0  0  0  0  0  0  0  0  0  0  0
  1  2  2  0
  2  3  1  0
  3  4  1  0
  4  5  1  0
  5  6  2  0
  5  7  1  0
  7  8  1  0
  8  9  1  0
  9 10  1  0
 10 11  1  0
 11 12  1  0
 12 13  1  0
 13 14  1  0
 14 15  1  0
 15 16  1  0
 16 17  1  0
 16 18  1  0
 16 19  1  0
 19 20  1  0
  2 21  1  0
 21 22  2  0
 22 23  1  0
 23 24  2  0
 24 25  1  0
 25 26  2  0
 26 27  1  0
 27 28  2  0
 28 29  1  0
 29 30  2  0
 12  7  1  0
 20 13  1  0
 30 21  1  0
 29 24  1  0
  3 31  1  0
  4 32  1  0
  4 33  1  0
  8 34  1  0
  8 35  1  0
  9 36  1  0
  9 37  1  0
 10 38  1  0
 10 39  1  0
 11 40  1  0
 11 41  1  0
 12 42  1  1
 13 43  1  0
 14 44  1  0
 14 45  1  0
 15 46  1  0
 15 47  1  0
 19 48  1  0
 19 49  1  0
 20 50  1  0
 20 51  1  0
 22 52  1  0
 23 53  1  0
 25 54  1  0
 26 55  1  0
 27 56  1  0
 28 57  1  0
M  END
>  <smiles>  (1) 
O=C(NCC(=O)N1CCCCC1C1CCC(F)(F)CC1)c1ccc2ccccc2n1

>  <score_type>  (1) 
oracle

>  <origin>  (1) 
autodockgpu

>  <m_score__min__energy>  (1) 
-9.3200000000000003

>  <m_primary>  (1) 
energy

>  <rmsd>  (1) 
2.413107415685566

>  <m_score__min__rmsd>  (1) 
2.413107415685566

>  <meeko>  (1) 
{"free_energy": -8.3, "intermolecular_energy": -9.8, "internal_energy": -2.0, "cluster_size": 11, "cluster_id": 3, "rank_in_cluster": 6}

>  <energy>  (1) 
-9.32

>  <cluster_rmsd>  (1) 
0.0

>  <cluster>  (1) 
1

$$$$

     RDKit          3D

 57 60  0  0  0  0  0  0  0  0999 V2000
  139.9100   71.3340  221.2800 O   0  0  0  0  0  0  0  0  0  0  0  0
  139.8110   72.0040  222.3640 C   0  0  0  0  0  0  0  0  0  0  0  0
  139.6100   73.4060  222.3750 N   0  0  0  0  0  0  0  0  0  0  0  0
  139.5030   74.1850  221.1570 C   0  0  0  0  0  0  0  0  0  0  0  0
  139.9220   75.6090  221.4440 C   0  0  0  0  0  0  0  0  0  0  0  0
  139.8100   75.9400  222.6480 O   0  0  0  0  0  0  0  0  0  0  0  0
  140.3780   76.4000  220.3910 N   0  0  0  0  0  0  0  0  0  0  0  0
  139.8990   76.0160  219.0170 C   0  0  0  0  0  0  0  0  0  0  0  0
  141.1240   76.0130  218.1510 C   0  0  0  0  0  0  0  0  0  0  0  0
  142.4430   76.1630  218.7880 C   0  0  0  0  0  0  0  0  0  0  0  0
  142.5880   76.8620  220.0870 C   0  0  0  0  0  0  0  0  0  0  0  0
  141.2530   77.5260  220.3930 C   0  0  2  0  0  0  0  0  0  0  0  0
  141.2620   78.5460  221.4190 C   0  0  0  0  0  0  0  0  0  0  0  0
  141.4500   78.1950  222.8650 C   0  0  0  0  0  0  0  0  0  0  0  0
  142.2040   79.3910  223.4960 C   0  0  0  0  0  0  0  0  0  0  0  0
  141.5100   80.6380  223.0930 C   0  0  0  0  0  0  0  0  0  0  0  0
  142.2630   81.4220  222.2310 F   0  0  0  0  0  0  0  0  0  0  0  0
  141.3830   81.4190  224.2500 F   0  0  0  0  0  0  0  0  0  0  0  0
  140.1440   80.4780  222.5270 C   0  0  0  0  0  0  0  0  0  0  0  0
  140.1250   79.5720  221.3010 C   0  0  0  0  0  0  0  0  0  0  0  0
  139.9130   71.2700  223.6410 C   0  0  0  0  0  0  0  0  0  0  0  0
  139.5370   69.9580  223.7300 C   0  0  0  0  0  0  0  0  0  0  0  0
  139.6410   69.2920  224.9340 C   0  0  0  0  0  0  0  0  0  0  0  0
  140.1170   69.9210  226.0620 C   0  0  0  0  0  0  0  0  0  0  0  0
  140.2150   69.2500  227.2520 C   0  0  0  0  0  0  0  0  0  0  0  0
  140.6930   69.9090  228.3490 C   0  0  0  0  0  0  0  0  0  0  0  0
  141.0730   71.2410  228.2570 C   0  0  0  0  0  0  0  0  0  0  0  0
  140.9740   71.9210  227.0500 C   0  0  0  0  0  0  0  0  0  0  0  0
  140.4900   71.2480  225.9450 C   0  0  0  0  0  0  0  0  0  0  0  0
  140.3760   71.8610  224.7620 N   0  0  0  0  0  0  0  0  0  0  0  0
  139.5420   73.8610  223.3340 H   0  0  0  0  0  0  0  0  0  0  0  0
  140.1598   73.7558  220.3860 H   0  0  0  0  0  0  0  0  0  0  0  0
  138.4639   74.1693  220.7963 H   0  0  0  0  0  0  0  0  0  0  0  0
  139.4391   75.0169  219.0356 H   0  0  0  0  0  0  0  0  0  0  0  0
  139.1358   76.7135  218.6415 H   0  0  0  0  0  0  0  0  0  0  0  0
  141.1339   75.0563  217.6082 H   0  0  0  0  0  0  0  0  0  0  0  0
  141.0193   76.9209  217.5388 H   0  0  0  0  0  0  0  0  0  0  0  0
  142.8373   75.1465  218.9340 H   0  0  0  0  0  0  0  0  0  0  0  0
  142.9728   76.8312  218.0931 H   0  0  0  0  0  0  0  0  0  0  0  0
  142.8395   76.1396  220.8775 H   0  0  0  0  0  0  0  0  0  0  0  0
  143.3939   77.6093  220.0402 H   0  0  0  0  0  0  0  0  0  0  0  0
  140.8703   78.2652  219.6739 H   0  0  0  0  0  0  0  0  0  0  0  0
  142.2370   78.9716  221.1394 H   0  0  0  0  0  0  0  0  0  0  0  0
  140.4751   78.0555  223.3550 H   0  0  0  0  0  0  0  0  0  0  0  0
  142.0101   77.2558  222.9836 H   0  0  0  0  0  0  0  0  0  0  0  0
  142.1984   79.2988  224.5921 H   0  0  0  0  0  0  0  0  0  0  0  0
  143.2484   79.4077  223.1510 H   0  0  0  0  0  0  0  0  0  0  0  0
  139.4910   80.0429  223.2979 H   0  0  0  0  0  0  0  0  0  0  0  0
  139.7920   81.4722  222.2146 H   0  0  0  0  0  0  0  0  0  0  0  0
  139.1596   79.0477  221.2449 H   0  0  0  0  0  0  0  0  0  0  0  0
  140.2619   80.1751  220.3913 H   0  0  0  0  0  0  0  0  0  0  0  0
  139.1521   69.4342  222.8426 H   0  0  0  0  0  0  0  0  0  0  0  0
  139.3372   68.2365  224.9936 H   0  0  0  0  0  0  0  0  0  0  0  0
  139.9129   68.1947  227.3234 H   0  0  0  0  0  0  0  0  0  0  0  0
  140.7772   69.3813  229.3105 H   0  0  0  0  0  0  0  0  0  0  0  0
  141.4555   71.7620  229.1471 H   0  0  0  0  0  0  0  0  0  0  0  0
  141.2755   72.9762  226.9753 H   0  0  0  0  0  0  0  0  0  0  0  0
  1  2  2  0
  2  3  1  0
  3  4  1  0
  4  5  1  0
  5  6  2  0
  5  7  1  0
  7  8  1  0
  8  9  1  0
  9 10  1  0
 10 11  1  0
 11 12  1  0
 12 13  1  0
 13 14  1  0
 14 15  1  0
 15 16  1  0
 16 17  1  0
 16 18  1  0
 16 19  1  0
 19 20  1  0
  2 21  1  0
 21 22  2  0
 22 23  1  0
 23 24  2  0
 24 25  1  0
 25 26  2  0
 26 27  1  0
 27 28  2  0
 28 29  1  0
 29 30  2  0
 12  7  1  0
 20 13  1  0
 30 21  1  0
 29 24  1  0
  3 31  1  0
  4 32  1  0
  4 33  1  0
  8 34  1  0
  8 35  1  0
  9 36  1  0
  9 37  1  0
 10 38  1  0
 10 39  1  0
 11 40  1  0
 11 41  1  0
 12 42  1  6
 13 43  1  0
 14 44  1  0
 14 45  1  0
 15 46  1  0
 15 47  1  0
 19 48  1  0
 19 49  1  0
 20 50  1  0
 20 51  1  0
 22 52  1  0
 23 53  1  0
 25 54  1  0
 26 55  1  0
 27 56  1  0
 28 57  1  0
M  END
>  <smiles>  (2) 
O=C(NCC(=O)N1CCCCC1C1CCC(F)(F)CC1)c1ccc2ccccc2n1

>  <score_type>  (2) 
oracle

>  <origin>  (2) 
autodockgpu

>  <m_score__min__energy>  (2) 
-9.3200000000000003

>  <m_primary>  (2) 
energy

>  <rmsd>  (2) 
1.5306878701060516

>  <m_score__min__rmsd>  (2) 
1.5306878701060516

>  <meeko>  (2) 
{"free_energy": -8.71, "intermolecular_energy": -10.2, "internal_energy": -2.06, "cluster_size": 34, "cluster_id": 1, "rank_in_cluster": 22}

>  <energy>  (2) 
-9.29

>  <cluster_rmsd>  (2) 
0.07

>  <cluster>  (2) 
1

$$$$

     RDKit          3D

 57 60  0  0  0  0  0  0  0  0999 V2000
  140.1660   71.3830  221.2510 O   0  0  0  0  0  0  0  0  0  0  0  0
  139.9700   72.0380  222.3300 C   0  0  0  0  0  0  0  0  0  0  0  0
  139.7210   73.4330  222.3370 N   0  0  0  0  0  0  0  0  0  0  0  0
  139.6710   74.2200  221.1210 C   0  0  0  0  0  0  0  0  0  0  0  0
  140.2930   75.5720  221.3830 C   0  0  0  0  0  0  0  0  0  0  0  0
  140.4470   75.8360  222.5990 O   0  0  0  0  0  0  0  0  0  0  0  0
  140.6300   76.3790  220.2970 N   0  0  0  0  0  0  0  0  0  0  0  0
  140.0010   76.0140  218.9800 C   0  0  0  0  0  0  0  0  0  0  0  0
  141.1220   76.0240  217.9820 C   0  0  0  0  0  0  0  0  0  0  0  0
  142.5030   76.1660  218.4710 C   0  0  0  0  0  0  0  0  0  0  0  0
  142.7930   76.8460  219.7550 C   0  0  0  0  0  0  0  0  0  0  0  0
  141.5010   77.5050  220.2170 C   0  0  2  0  0  0  0  0  0  0  0  0
  141.6250   78.5100  221.2500 C   0  0  0  0  0  0  0  0  0  0  0  0
  140.6990   78.5350  222.4290 C   0  0  0  0  0  0  0  0  0  0  0  0
  141.5350   79.0800  223.6130 C   0  0  0  0  0  0  0  0  0  0  0  0
  142.2320   80.3070  223.1580 C   0  0  0  0  0  0  0  0  0  0  0  0
  143.6070   80.1490  223.0730 F   0  0  0  0  0  0  0  0  0  0  0  0
  142.0550   81.2650  224.1670 F   0  0  0  0  0  0  0  0  0  0  0  0
  141.7380   80.9150  221.8940 C   0  0  0  0  0  0  0  0  0  0  0  0
  141.7930   79.9430  220.7220 C   0  0  0  0  0  0  0  0  0  0  0  0
  140.0090   71.2960  223.6060 C   0  0  0  0  0  0  0  0  0  0  0  0
  139.5560   70.0080  223.6830 C   0  0  0  0  0  0  0  0  0  0  0  0
  139.6010   69.3330  224.8860 C   0  0  0  0  0  0  0  0  0  0  0  0
  140.0960   69.9300  226.0240 C   0  0  0  0  0  0  0  0  0  0  0  0
  140.1360   69.2510  227.2130 C   0  0  0  0  0  0  0  0  0  0  0  0
  140.6340   69.8770  228.3190 C   0  0  0  0  0  0  0  0  0  0  0  0
  141.0930   71.1850  228.2380 C   0  0  0  0  0  0  0  0  0  0  0  0
  141.0520   71.8730  227.0330 C   0  0  0  0  0  0  0  0  0  0  0  0
  140.5470   71.2330  225.9180 C   0  0  0  0  0  0  0  0  0  0  0  0
  140.4870   71.8560  224.7350 N   0  0  0  0  0  0  0  0  0  0  0  0
  139.5720   73.8760  223.2930 H   0  0  0  0  0  0  0  0  0  0  0  0
  140.2296   73.7052  220.3255 H   0  0  0  0  0  0  0  0  0  0  0  0
  138.6254   74.3475  220.8040 H   0  0  0  0  0  0  0  0  0  0  0  0
  139.5453   75.0144  219.0358 H   0  0  0  0  0  0  0  0  0  0  0  0
  139.2015   76.7164  218.7017 H   0  0  0  0  0  0  0  0  0  0  0  0
  141.0707   75.0750  217.4281 H   0  0  0  0  0  0  0  0  0  0  0  0
  140.9505   76.9397  217.3972 H   0  0  0  0  0  0  0  0  0  0  0  0
  142.9100   75.1478  218.5578 H   0  0  0  0  0  0  0  0  0  0  0  0
  142.9522   76.8452  217.7314 H   0  0  0  0  0  0  0  0  0  0  0  0
  143.1301   76.1125  220.5022 H   0  0  0  0  0  0  0  0  0  0  0  0
  143.5898   77.5940  219.6296 H   0  0  0  0  0  0  0  0  0  0  0  0
  141.0419   78.2539  219.5549 H   0  0  0  0  0  0  0  0  0  0  0  0
  142.5571   78.1104  221.6760 H   0  0  0  0  0  0  0  0  0  0  0  0
  139.8426   79.1957  222.2291 H   0  0  0  0  0  0  0  0  0  0  0  0
  140.2944   77.5355  222.6463 H   0  0  0  0  0  0  0  0  0  0  0  0
  140.8729   79.3189  224.4583 H   0  0  0  0  0  0  0  0  0  0  0  0
  142.2655   78.3266  223.9426 H   0  0  0  0  0  0  0  0  0  0  0  0
  140.6955   81.2345  222.0394 H   0  0  0  0  0  0  0  0  0  0  0  0
  142.3908   81.7672  221.6540 H   0  0  0  0  0  0  0  0  0  0  0  0
  140.9825   80.1725  220.0146 H   0  0  0  0  0  0  0  0  0  0  0  0
  142.7603   80.0375  220.2069 H   0  0  0  0  0  0  0  0  0  0  0  0
  139.1562   69.5105  222.7871 H   0  0  0  0  0  0  0  0  0  0  0  0
  139.2341   68.2972  224.9368 H   0  0  0  0  0  0  0  0  0  0  0  0
  139.7716   68.2150  227.2757 H   0  0  0  0  0  0  0  0  0  0  0  0
  140.6719   69.3424  229.2796 H   0  0  0  0  0  0  0  0  0  0  0  0
  141.4922   71.6798  229.1357 H   0  0  0  0  0  0  0  0  0  0  0  0
  141.4152   72.9092  226.9673 H   0  0  0  0  0  0  0  0  0  0  0  0
  1  2  2  0
  2  3  1  0
  3  4  1  0
  4  5  1  0
  5  6  2  0
  5  7  1  0
  7  8  1  0
  8  9  1  0
  9 10  1  0
 10 11  1  0
 11 12  1  0
 12 13  1  0
 13 14  1  0
 14 15  1  0
 15 16  1  0
 16 17  1  0
 16 18  1  0
 16 19  1  0
 19 20  1  0
  2 21  1  0
 21 22  2  0
 22 23  1  0
 23 24  2  0
 24 25  1  0
 25 26  2  0
 26 27  1  0
 27 28  2  0
 28 29  1  0
 29 30  2  0
 12  7  1  0
 20 13  1  0
 30 21  1  0
 29 24  1  0
  3 31  1  0
  4 32  1  0
  4 33  1  0
  8 34  1  0
  8 35  1  0
  9 36  1  0
  9 37  1  0
 10 38  1  0
 10 39  1  0
 11 40  1  0
 11 41  1  0
 12 42  1  6
 13 43  1  0
 14 44  1  0
 14 45  1  0
 15 46  1  0
 15 47  1  0
 19 48  1  0
 19 49  1  0
 20 50  1  0
 20 51  1  0
 22 52  1  0
 23 53  1  0
 25 54  1  0
 26 55  1  0
 27 56  1  0
 28 57  1  0
M  END
>  <smiles>  (3) 
O=C(NCC(=O)N1CCCCC1C1CCC(F)(F)CC1)c1ccc2ccccc2n1

>  <score_type>  (3) 
oracle

>  <origin>  (3) 
autodockgpu

>  <m_score__min__energy>  (3) 
-9.3200000000000003

>  <m_primary>  (3) 
energy

>  <rmsd>  (3) 
1.530653472114447

>  <m_score__min__rmsd>  (3) 
1.530653472114447

>  <meeko>  (3) 
{"free_energy": -9.12, "intermolecular_energy": -10.62, "internal_energy": -1.87, "cluster_size": 34, "cluster_id": 1, "rank_in_cluster": 7}

>  <energy>  (3) 
-9.17

>  <cluster_rmsd>  (3) 
0.61

>  <cluster>  (3) 
1

$$$$

     RDKit          3D

 57 60  0  0  0  0  0  0  0  0999 V2000
  141.3650   71.5150  221.4700 O   0  0  0  0  0  0  0  0  0  0  0  0
  140.6900   72.0960  222.3870 C   0  0  0  0  0  0  0  0  0  0  0  0
  140.2450   73.4350  222.2690 N   0  0  0  0  0  0  0  0  0  0  0  0
  140.5220   74.2460  221.1000 C   0  0  0  0  0  0  0  0  0  0  0  0
  140.6980   75.6850  221.5280 C   0  0  0  0  0  0  0  0  0  0  0  0
  140.0270   76.0020  222.5380 O   0  0  0  0  0  0  0  0  0  0  0  0
  141.5570   76.5030  220.7960 N   0  0  0  0  0  0  0  0  0  0  0  0
  141.5360   77.9670  221.1450 C   0  0  0  0  0  0  0  0  0  0  0  0
  141.4380   78.6910  219.8350 C   0  0  0  0  0  0  0  0  0  0  0  0
  141.1950   77.9110  218.6100 C   0  0  0  0  0  0  0  0  0  0  0  0
  141.6010   76.4890  218.5180 C   0  0  0  0  0  0  0  0  0  0  0  0
  142.4590   76.1850  219.7380 C   0  0  2  0  0  0  0  0  0  0  0  0
  143.2510   74.9770  219.6830 C   0  0  0  0  0  0  0  0  0  0  0  0
  144.5220   74.8410  220.4680 C   0  0  0  0  0  0  0  0  0  0  0  0
  144.6290   73.3430  220.8460 C   0  0  0  0  0  0  0  0  0  0  0  0
  144.3940   72.5420  219.6200 C   0  0  0  0  0  0  0  0  0  0  0  0
  143.2070   71.8250  219.6610 F   0  0  0  0  0  0  0  0  0  0  0  0
  145.3920   71.5570  219.5880 F   0  0  0  0  0  0  0  0  0  0  0  0
  144.4690   73.2750  218.3280 C   0  0  0  0  0  0  0  0  0  0  0  0
  143.4860   74.4380  218.2640 C   0  0  0  0  0  0  0  0  0  0  0  0
  140.3760   71.3250  223.6070 C   0  0  0  0  0  0  0  0  0  0  0  0
  139.7180   70.1290  223.5320 C   0  0  0  0  0  0  0  0  0  0  0  0
  139.4340   69.4260  224.6850 C   0  0  0  0  0  0  0  0  0  0  0  0
  139.7990   69.9030  225.9240 C   0  0  0  0  0  0  0  0  0  0  0  0
  139.5110   69.1970  227.0620 C   0  0  0  0  0  0  0  0  0  0  0  0
  139.8910   69.7040  228.2710 C   0  0  0  0  0  0  0  0  0  0  0  0
  140.5580   70.9190  228.3450 C   0  0  0  0  0  0  0  0  0  0  0  0
  140.8500   71.6340  227.1910 C   0  0  0  0  0  0  0  0  0  0  0  0
  140.4630   71.1160  225.9710 C   0  0  0  0  0  0  0  0  0  0  0  0
  140.7220   71.7690  224.8320 N   0  0  0  0  0  0  0  0  0  0  0  0
  139.6920   73.8180  223.0940 H   0  0  0  0  0  0  0  0  0  0  0  0
  141.4430   73.8906  220.6147 H   0  0  0  0  0  0  0  0  0  0  0  0
  139.6860   74.1700  220.3891 H   0  0  0  0  0  0  0  0  0  0  0  0
  140.6667   78.1987  221.7780 H   0  0  0  0  0  0  0  0  0  0  0  0
  142.4322   78.2645  221.7091 H   0  0  0  0  0  0  0  0  0  0  0  0
  140.6145   79.4145  219.9263 H   0  0  0  0  0  0  0  0  0  0  0  0
  142.4437   79.1115  219.6875 H   0  0  0  0  0  0  0  0  0  0  0  0
  140.1099   77.9387  218.4316 H   0  0  0  0  0  0  0  0  0  0  0  0
  141.8548   78.3990  217.8775 H   0  0  0  0  0  0  0  0  0  0  0  0
  140.7109   75.8427  218.5129 H   0  0  0  0  0  0  0  0  0  0  0  0
  142.1620   76.3028  217.5904 H   0  0  0  0  0  0  0  0  0  0  0  0
  143.3793   76.7713  219.8767 H   0  0  0  0  0  0  0  0  0  0  0  0
  142.5411   74.3585  220.2518 H   0  0  0  0  0  0  0  0  0  0  0  0
  145.3842   75.1437  219.8556 H   0  0  0  0  0  0  0  0  0  0  0  0
  144.5160   75.4835  221.3609 H   0  0  0  0  0  0  0  0  0  0  0  0
  145.6317   73.1295  221.2447 H   0  0  0  0  0  0  0  0  0  0  0  0
  143.8854   73.0895  221.6159 H   0  0  0  0  0  0  0  0  0  0  0  0
  145.4891   73.6669  218.2025 H   0  0  0  0  0  0  0  0  0  0  0  0
  144.2077   72.5695  217.5255 H   0  0  0  0  0  0  0  0  0  0  0  0
  143.9007   75.2362  217.6309 H   0  0  0  0  0  0  0  0  0  0  0  0
  142.5328   74.0941  217.8359 H   0  0  0  0  0  0  0  0  0  0  0  0
  139.4153   69.7275  222.5537 H   0  0  0  0  0  0  0  0  0  0  0  0
  138.9049   68.4643  224.6127 H   0  0  0  0  0  0  0  0  0  0  0  0
  138.9809   68.2350  227.0024 H   0  0  0  0  0  0  0  0  0  0  0  0
  139.6673   69.1463  229.1923 H   0  0  0  0  0  0  0  0  0  0  0  0
  140.8575   71.3185  229.3252 H   0  0  0  0  0  0  0  0  0  0  0  0
  141.3803   72.5961  227.2478 H   0  0  0  0  0  0  0  0  0  0  0  0
  1  2  2  0
  2  3  1  0
  3  4  1  0
  4  5  1  0
  5  6  2  0
  5  7  1  0
  7  8  1  0
  8  9  1  0
  9 10  1  0
 10 11  1  0
 11 12  1  0
 12 13  1  0
 13 14  1  0
 14 15  1  0
 15 16  1  0
 16 17  1  0
 16 18  1  0
 16 19  1  0
 19 20  1  0
  2 21  1  0
 21 22  2  0
 22 23  1  0
 23 24  2  0
 24 25  1  0
 25 26  2  0
 26 27  1  0
 27 28  2  0
 28 29  1  0
 29 30  2  0
 12  7  1  0
 20 13  1  0
 30 21  1  0
 29 24  1  0
  3 31  1  0
  4 32  1  0
  4 33  1  0
  8 34  1  0
  8 35  1  0
  9 36  1  0
  9 37  1  0
 10 38  1  0
 10 39  1  0
 11 40  1  0
 11 41  1  0
 12 42  1  1
 13 43  1  0
 14 44  1  0
 14 45  1  0
 15 46  1  0
 15 47  1  0
 19 48  1  0
 19 49  1  0
 20 50  1  0
 20 51  1  0
 22 52  1  0
 23 53  1  0
 25 54  1  0
 26 55  1  0
 27 56  1  0
 28 57  1  0
M  END
>  <smiles>  (4) 
O=C(NCC(=O)N1CCCCC1C1CCC(F)(F)CC1)c1ccc2ccccc2n1

>  <score_type>  (4) 
oracle

>  <origin>  (4) 
autodockgpu

>  <m_score__min__energy>  (4) 
-9.3200000000000003

>  <m_primary>  (4) 
energy

>  <rmsd>  (4) 
2.457635683380276

>  <m_score__min__rmsd>  (4) 
2.457635683380276

>  <meeko>  (4) 
{"free_energy": -8.21, "intermolecular_energy": -9.7, "internal_energy": -2.14, "cluster_size": 11, "cluster_id": 3, "rank_in_cluster": 7}

>  <energy>  (4) 
-9.16

>  <cluster_rmsd>  (4) 
0.4

>  <cluster>  (4) 
1

$$$$

     RDKit          3D

 57 60  0  0  0  0  0  0  0  0999 V2000
  138.2790   70.7440  221.8000 O   0  0  0  0  0  0  0  0  0  0  0  0
  138.9240   71.2900  222.7590 C   0  0  0  0  0  0  0  0  0  0  0  0
  139.3400   72.6440  222.7200 N   0  0  0  0  0  0  0  0  0  0  0  0
  139.0660   73.5090  221.5900 C   0  0  0  0  0  0  0  0  0  0  0  0
  139.4650   74.9230  221.9440 C   0  0  0  0  0  0  0  0  0  0  0  0
  140.6920   75.0700  222.1550 O   0  0  0  0  0  0  0  0  0  0  0  0
  138.4770   75.9050  222.0040 N   0  0  0  0  0  0  0  0  0  0  0  0
  137.0770   75.4220  222.2730 C   0  0  0  0  0  0  0  0  0  0  0  0
  136.2130   76.1100  221.2580 C   0  0  0  0  0  0  0  0  0  0  0  0
  136.8590   76.8760  220.1790 C   0  0  0  0  0  0  0  0  0  0  0  0
  138.2080   77.4610  220.3610 C   0  0  0  0  0  0  0  0  0  0  0  0
  138.5660   77.3180  221.8340 C   0  0  2  0  0  0  0  0  0  0  0  0
  139.6690   78.1250  222.3090 C   0  0  0  0  0  0  0  0  0  0  0  0
  139.4850   79.5750  222.6440 C   0  0  0  0  0  0  0  0  0  0  0  0
  140.4700   79.8710  223.8020 C   0  0  0  0  0  0  0  0  0  0  0  0
  141.7990   79.3320  223.4240 C   0  0  0  0  0  0  0  0  0  0  0  0
  142.1860   78.2500  224.2020 F   0  0  0  0  0  0  0  0  0  0  0  0
  142.7370   80.3290  223.7270 F   0  0  0  0  0  0  0  0  0  0  0  0
  141.9860   78.9840  221.9900 C   0  0  0  0  0  0  0  0  0  0  0  0
  140.9650   77.9630  221.5030 C   0  0  0  0  0  0  0  0  0  0  0  0
  139.2370   70.4620  223.9410 C   0  0  0  0  0  0  0  0  0  0  0  0
  138.9310   69.1300  223.9660 C   0  0  0  0  0  0  0  0  0  0  0  0
  139.2320   68.3750  225.0820 C   0  0  0  0  0  0  0  0  0  0  0  0
  139.8390   68.9350  226.1830 C   0  0  0  0  0  0  0  0  0  0  0  0
  140.1330   68.1770  227.2850 C   0  0  0  0  0  0  0  0  0  0  0  0
  140.7350   68.7690  228.3570 C   0  0  0  0  0  0  0  0  0  0  0  0
  141.0440   70.1220  228.3300 C   0  0  0  0  0  0  0  0  0  0  0  0
  140.7460   70.8900  227.2120 C   0  0  0  0  0  0  0  0  0  0  0  0
  140.1370   70.2850  226.1310 C   0  0  0  0  0  0  0  0  0  0  0  0
  139.8300   70.9850  225.0330 N   0  0  0  0  0  0  0  0  0  0  0  0
  139.8700   72.9940  223.5740 H   0  0  0  0  0  0  0  0  0  0  0  0
  139.6441   73.1702  220.7176 H   0  0  0  0  0  0  0  0  0  0  0  0
  137.9935   73.4753  221.3479 H   0  0  0  0  0  0  0  0  0  0  0  0
  137.0172   74.3303  222.1519 H   0  0  0  0  0  0  0  0  0  0  0  0
  136.7579   75.6487  223.3010 H   0  0  0  0  0  0  0  0  0  0  0  0
  135.5963   75.3348  220.7797 H   0  0  0  0  0  0  0  0  0  0  0  0
  135.6747   76.8725  221.8400 H   0  0  0  0  0  0  0  0  0  0  0  0
  136.9249   76.2014  219.3126 H   0  0  0  0  0  0  0  0  0  0  0  0
  136.2181   77.7663  220.0970 H   0  0  0  0  0  0  0  0  0  0  0  0
  138.9394   76.9215  219.7413 H   0  0  0  0  0  0  0  0  0  0  0  0
  138.2193   78.5182  220.0573 H   0  0  0  0  0  0  0  0  0  0  0  0
  137.9067   77.7992  222.5714 H   0  0  0  0  0  0  0  0  0  0  0  0
  139.7328   77.6482  223.2983 H   0  0  0  0  0  0  0  0  0  0  0  0
  139.7205   80.2022  221.7715 H   0  0  0  0  0  0  0  0  0  0  0  0
  138.4461   79.7947  222.9311 H   0  0  0  0  0  0  0  0  0  0  0  0
  140.5401   80.9568  223.9638 H   0  0  0  0  0  0  0  0  0  0  0  0
  140.1180   79.4008  224.7320 H   0  0  0  0  0  0  0  0  0  0  0  0
  141.8853   79.8992  221.3882 H   0  0  0  0  0  0  0  0  0  0  0  0
  142.9855   78.5380  221.8803 H   0  0  0  0  0  0  0  0  0  0  0  0
  140.7581   78.1293  220.4355 H   0  0  0  0  0  0  0  0  0  0  0  0
  141.3625   76.9466  221.6408 H   0  0  0  0  0  0  0  0  0  0  0  0
  138.4455   68.6602  223.0979 H   0  0  0  0  0  0  0  0  0  0  0  0
  138.9815   67.3039  225.0914 H   0  0  0  0  0  0  0  0  0  0  0  0
  139.8871   67.1050  227.3058 H   0  0  0  0  0  0  0  0  0  0  0  0
  140.9768   68.1706  229.2477 H   0  0  0  0  0  0  0  0  0  0  0  0
  141.5283   70.5891  229.2002 H   0  0  0  0  0  0  0  0  0  0  0  0
  140.9911   71.9621  227.1883 H   0  0  0  0  0  0  0  0  0  0  0  0
  1  2  2  0
  2  3  1  0
  3  4  1  0
  4  5  1  0
  5  6  2  0
  5  7  1  0
  7  8  1  0
  8  9  1  0
  9 10  1  0
 10 11  1  0
 11 12  1  0
 12 13  1  0
 13 14  1  0
 14 15  1  0
 15 16  1  0
 16 17  1  0
 16 18  1  0
 16 19  1  0
 19 20  1  0
  2 21  1  0
 21 22  2  0
 22 23  1  0
 23 24  2  0
 24 25  1  0
 25 26  2  0
 26 27  1  0
 27 28  2  0
 28 29  1  0
 29 30  2  0
 12  7  1  0
 20 13  1  0
 30 21  1  0
 29 24  1  0
  3 31  1  0
  4 32  1  0
  4 33  1  0
  8 34  1  0
  8 35  1  0
  9 36  1  0
  9 37  1  0
 10 38  1  0
 10 39  1  0
 11 40  1  0
 11 41  1  0
 12 42  1  1
 13 43  1  0
 14 44  1  0
 14 45  1  0
 15 46  1  0
 15 47  1  0
 19 48  1  0
 19 49  1  0
 20 50  1  0
 20 51  1  0
 22 52  1  0
 23 53  1  0
 25 54  1  0
 26 55  1  0
 27 56  1  0
 28 57  1  0
M  END
>  <smiles>  (5) 
O=C(NCC(=O)N1CCCCC1C1CCC(F)(F)CC1)c1ccc2ccccc2n1

>  <score_type>  (5) 
oracle

>  <origin>  (5) 
autodockgpu

>  <m_score__min__energy>  (5) 
-9.3200000000000003

>  <m_primary>  (5) 
energy

>  <rmsd>  (5) 
2.641410823498904

>  <m_score__min__rmsd>  (5) 
2.641410823498904

>  <meeko>  (5) 
{"free_energy": -8.26, "intermolecular_energy": -9.75, "internal_energy": -1.76, "cluster_size": 34, "cluster_id": 1, "rank_in_cluster": 33}

>  <energy>  (5) 
-9.14

>  <cluster_rmsd>  (5) 
0.44

>  <cluster>  (5) 
1

$$$$

     RDKit          3D

 57 60  0  0  0  0  0  0  0  0999 V2000
  141.1260   71.5700  221.4250 O   0  0  0  0  0  0  0  0  0  0  0  0
  140.5110   72.1680  222.3720 C   0  0  0  0  0  0  0  0  0  0  0  0
  140.0660   73.5080  222.2610 N   0  0  0  0  0  0  0  0  0  0  0  0
  140.2760   74.3000  221.0650 C   0  0  0  0  0  0  0  0  0  0  0  0
  140.2030   75.7660  221.4260 C   0  0  0  0  0  0  0  0  0  0  0  0
  140.0170   75.9820  222.6470 O   0  0  0  0  0  0  0  0  0  0  0  0
  140.3420   76.7150  220.4150 N   0  0  0  0  0  0  0  0  0  0  0  0
  139.4810   76.5170  219.1960 C   0  0  0  0  0  0  0  0  0  0  0  0
  140.4020   76.6780  218.0230 C   0  0  0  0  0  0  0  0  0  0  0  0
  141.8500   76.7770  218.2670 C   0  0  0  0  0  0  0  0  0  0  0  0
  142.3740   77.2860  219.5560 C   0  0  0  0  0  0  0  0  0  0  0  0
  141.1930   77.8560  220.3290 C   0  0  2  0  0  0  0  0  0  0  0  0
  141.5110   78.7180  221.4460 C   0  0  0  0  0  0  0  0  0  0  0  0
  140.7670   78.6170  222.7440 C   0  0  0  0  0  0  0  0  0  0  0  0
  141.7890   78.9830  223.8480 C   0  0  0  0  0  0  0  0  0  0  0  0
  142.4680   80.2390  223.4480 C   0  0  0  0  0  0  0  0  0  0  0  0
  143.8080   80.0560  223.1400 F   0  0  0  0  0  0  0  0  0  0  0  0
  142.4840   81.0650  224.5810 F   0  0  0  0  0  0  0  0  0  0  0  0
  141.8250   81.0170  222.3550 C   0  0  0  0  0  0  0  0  0  0  0  0
  141.6670   80.2000  221.0780 C   0  0  0  0  0  0  0  0  0  0  0  0
  140.2660   71.4170  223.6200 C   0  0  0  0  0  0  0  0  0  0  0  0
  139.5530   70.2500  223.6100 C   0  0  0  0  0  0  0  0  0  0  0  0
  139.3350   69.5660  224.7880 C   0  0  0  0  0  0  0  0  0  0  0  0
  139.8230   70.0310  225.9880 C   0  0  0  0  0  0  0  0  0  0  0  0
  139.6020   69.3440  227.1510 C   0  0  0  0  0  0  0  0  0  0  0  0
  140.1020   69.8380  228.3210 C   0  0  0  0  0  0  0  0  0  0  0  0
  140.8260   71.0230  228.3300 C   0  0  0  0  0  0  0  0  0  0  0  0
  141.0510   71.7200  227.1500 C   0  0  0  0  0  0  0  0  0  0  0  0
  140.5410   71.2140  225.9700 C   0  0  0  0  0  0  0  0  0  0  0  0
  140.7320   71.8500  224.8090 N   0  0  0  0  0  0  0  0  0  0  0  0
  139.5650   73.9060  223.1120 H   0  0  0  0  0  0  0  0  0  0  0  0
  141.2657   74.0733  220.6417 H   0  0  0  0  0  0  0  0  0  0  0  0
  139.5017   74.0617  220.3209 H   0  0  0  0  0  0  0  0  0  0  0  0
  139.0355   75.5113  219.1995 H   0  0  0  0  0  0  0  0  0  0  0  0
  138.6494   77.2363  219.1631 H   0  0  0  0  0  0  0  0  0  0  0  0
  140.2434   75.8102  217.3659 H   0  0  0  0  0  0  0  0  0  0  0  0
  140.1344   77.6608  217.6076 H   0  0  0  0  0  0  0  0  0  0  0  0
  142.2581   75.7632  218.1421 H   0  0  0  0  0  0  0  0  0  0  0  0
  142.1625   77.5550  217.5549 H   0  0  0  0  0  0  0  0  0  0  0  0
  142.8363   76.4659  220.1250 H   0  0  0  0  0  0  0  0  0  0  0  0
  143.1398   78.0577  219.3885 H   0  0  0  0  0  0  0  0  0  0  0  0
  140.6262   78.6781  219.8675 H   0  0  0  0  0  0  0  0  0  0  0  0
  142.4763   78.2433  221.6761 H   0  0  0  0  0  0  0  0  0  0  0  0
  139.9218   79.3209  222.7564 H   0  0  0  0  0  0  0  0  0  0  0  0
  140.3528   77.6092  222.8949 H   0  0  0  0  0  0  0  0  0  0  0  0
  141.2674   79.1295  224.8054 H   0  0  0  0  0  0  0  0  0  0  0  0
  142.5244   78.1741  223.9703 H   0  0  0  0  0  0  0  0  0  0  0  0
  140.8298   81.3433  222.6914 H   0  0  0  0  0  0  0  0  0  0  0  0
  142.4738   81.8755  222.1268 H   0  0  0  0  0  0  0  0  0  0  0  0
  140.7749   80.5397  220.5314 H   0  0  0  0  0  0  0  0  0  0  0  0
  142.5542   80.3323  220.4413 H   0  0  0  0  0  0  0  0  0  0  0  0
  139.1536   69.8571  222.6634 H   0  0  0  0  0  0  0  0  0  0  0  0
  138.7590   68.6291  224.7678 H   0  0  0  0  0  0  0  0  0  0  0  0
  139.0285   68.4054  227.1428 H   0  0  0  0  0  0  0  0  0  0  0  0
  139.9306   69.2945  229.2619 H   0  0  0  0  0  0  0  0  0  0  0  0
  141.2242   71.4124  229.2786 H   0  0  0  0  0  0  0  0  0  0  0  0
  141.6251   72.6583  227.1549 H   0  0  0  0  0  0  0  0  0  0  0  0
  1  2  2  0
  2  3  1  0
  3  4  1  0
  4  5  1  0
  5  6  2  0
  5  7  1  0
  7  8  1  0
  8  9  1  0
  9 10  1  0
 10 11  1  0
 11 12  1  0
 12 13  1  0
 13 14  1  0
 14 15  1  0
 15 16  1  0
 16 17  1  0
 16 18  1  0
 16 19  1  0
 19 20  1  0
  2 21  1  0
 21 22  2  0
 22 23  1  0
 23 24  2  0
 24 25  1  0
 25 26  2  0
 26 27  1  0
 27 28  2  0
 28 29  1  0
 29 30  2  0
 12  7  1  0
 20 13  1  0
 30 21  1  0
 29 24  1  0
  3 31  1  0
  4 32  1  0
  4 33  1  0
  8 34  1  0
  8 35  1  0
  9 36  1  0
  9 37  1  0
 10 38  1  0
 10 39  1  0
 11 40  1  0
 11 41  1  0
 12 42  1  6
 13 43  1  0
 14 44  1  0
 14 45  1  0
 15 46  1  0
 15 47  1  0
 19 48  1  0
 19 49  1  0
 20 50  1  0
 20 51  1  0
 22 52  1  0
 23 53  1  0
 25 54  1  0
 26 55  1  0
 27 56  1  0
 28 57  1  0
M  END
>  <smiles>  (6) 
O=C(NCC(=O)N1CCCCC1C1CCC(F)(F)CC1)c1ccc2ccccc2n1

>  <score_type>  (6) 
oracle

>  <origin>  (6) 
autodockgpu

>  <m_score__min__energy>  (6) 
-9.3200000000000003

>  <m_primary>  (6) 
energy

>  <rmsd>  (6) 
1.6937030691680088

>  <m_score__min__rmsd>  (6) 
1.6937030691680088

>  <meeko>  (6) 
{"free_energy": -9.14, "intermolecular_energy": -10.63, "internal_energy": -1.83, "cluster_size": 34, "cluster_id": 1, "rank_in_cluster": 6}

>  <energy>  (6) 
-9.14

>  <cluster_rmsd>  (6) 
0.62

>  <cluster>  (6) 
1

$$$$

     RDKit          3D

 57 60  0  0  0  0  0  0  0  0999 V2000
  140.0610   71.5980  221.0820 O   0  0  0  0  0  0  0  0  0  0  0  0
  139.8420   72.1850  222.1970 C   0  0  0  0  0  0  0  0  0  0  0  0
  139.5440   73.5670  222.2810 N   0  0  0  0  0  0  0  0  0  0  0  0
  139.4660   74.4180  221.1100 C   0  0  0  0  0  0  0  0  0  0  0  0
  140.6790   75.3190  221.0740 C   0  0  0  0  0  0  0  0  0  0  0  0
  141.4890   75.1200  222.0090 O   0  0  0  0  0  0  0  0  0  0  0  0
  140.7910   76.2540  220.0470 N   0  0  0  0  0  0  0  0  0  0  0  0
  140.0380   75.9420  218.7810 C   0  0  0  0  0  0  0  0  0  0  0  0
  141.0150   76.1710  217.6650 C   0  0  0  0  0  0  0  0  0  0  0  0
  142.4270   76.4230  218.0010 C   0  0  0  0  0  0  0  0  0  0  0  0
  142.8080   77.0110  219.3060 C   0  0  0  0  0  0  0  0  0  0  0  0
  141.5260   77.4740  219.9830 C   0  0  2  0  0  0  0  0  0  0  0  0
  141.6790   78.3890  221.0940 C   0  0  0  0  0  0  0  0  0  0  0  0
  140.9040   78.2070  222.3650 C   0  0  0  0  0  0  0  0  0  0  0  0
  141.8220   78.7260  223.4990 C   0  0  0  0  0  0  0  0  0  0  0  0
  142.3390   80.0570  223.0980 C   0  0  0  0  0  0  0  0  0  0  0  0
  143.7030   80.0540  222.8440 F   0  0  0  0  0  0  0  0  0  0  0  0
  142.1970   80.8950  224.2140 F   0  0  0  0  0  0  0  0  0  0  0  0
  141.6410   80.7230  221.9660 C   0  0  0  0  0  0  0  0  0  0  0  0
  141.6460   79.8730  220.7010 C   0  0  0  0  0  0  0  0  0  0  0  0
  139.9090   71.3740  223.4290 C   0  0  0  0  0  0  0  0  0  0  0  0
  139.4770   70.0770  223.4410 C   0  0  0  0  0  0  0  0  0  0  0  0
  139.5470   69.3380  224.6040 C   0  0  0  0  0  0  0  0  0  0  0  0
  140.0470   69.8790  225.7670 C   0  0  0  0  0  0  0  0  0  0  0  0
  140.1120   69.1370  226.9160 C   0  0  0  0  0  0  0  0  0  0  0  0
  140.6140   69.7090  228.0490 C   0  0  0  0  0  0  0  0  0  0  0  0
  141.0510   71.0260  228.0360 C   0  0  0  0  0  0  0  0  0  0  0  0
  140.9850   71.7790  226.8700 C   0  0  0  0  0  0  0  0  0  0  0  0
  140.4760   71.1930  225.7270 C   0  0  0  0  0  0  0  0  0  0  0  0
  140.3920   71.8780  224.5820 N   0  0  0  0  0  0  0  0  0  0  0  0
  139.3800   73.9500  223.2600 H   0  0  0  0  0  0  0  0  0  0  0  0
  139.4418   73.7959  220.2031 H   0  0  0  0  0  0  0  0  0  0  0  0
  138.5516   75.0278  221.1544 H   0  0  0  0  0  0  0  0  0  0  0  0
  139.6970   74.8962  218.7846 H   0  0  0  0  0  0  0  0  0  0  0  0
  139.1422   76.5714  218.6740 H   0  0  0  0  0  0  0  0  0  0  0  0
  140.9893   75.2775  217.0239 H   0  0  0  0  0  0  0  0  0  0  0  0
  140.6783   77.1114  217.2043 H   0  0  0  0  0  0  0  0  0  0  0  0
  142.9425   75.4537  217.9325 H   0  0  0  0  0  0  0  0  0  0  0  0
  142.7075   77.2131  217.2889 H   0  0  0  0  0  0  0  0  0  0  0  0
  143.3105   76.2552  219.9275 H   0  0  0  0  0  0  0  0  0  0  0  0
  143.5020   77.8530  219.1670 H   0  0  0  0  0  0  0  0  0  0  0  0
  140.9121   78.2230  219.4613 H   0  0  0  0  0  0  0  0  0  0  0  0
  142.6899   78.0547  221.3703 H   0  0  0  0  0  0  0  0  0  0  0  0
  139.9712   78.7890  222.3312 H   0  0  0  0  0  0  0  0  0  0  0  0
  140.6247   77.1545  222.5209 H   0  0  0  0  0  0  0  0  0  0  0  0
  141.2477   78.8146  224.4330 H   0  0  0  0  0  0  0  0  0  0  0  0
  142.6550   78.0272  223.6659 H   0  0  0  0  0  0  0  0  0  0  0  0
  140.5982   80.9160  222.2581 H   0  0  0  0  0  0  0  0  0  0  0  0
  142.1765   81.6580  221.7446 H   0  0  0  0  0  0  0  0  0  0  0  0
  140.7381   80.0789  220.1151 H   0  0  0  0  0  0  0  0  0  0  0  0
  142.5309   80.1159  220.0944 H   0  0  0  0  0  0  0  0  0  0  0  0
  139.0738   69.6228  222.5239 H   0  0  0  0  0  0  0  0  0  0  0  0
  139.1962   68.2954  224.6019 H   0  0  0  0  0  0  0  0  0  0  0  0
  139.7642   68.0935  226.9258 H   0  0  0  0  0  0  0  0  0  0  0  0
  140.6725   69.1226  228.9778 H   0  0  0  0  0  0  0  0  0  0  0  0
  141.4525   71.4772  228.9553 H   0  0  0  0  0  0  0  0  0  0  0  0
  141.3318   72.8228  226.8572 H   0  0  0  0  0  0  0  0  0  0  0  0
  1  2  2  0
  2  3  1  0
  3  4  1  0
  4  5  1  0
  5  6  2  0
  5  7  1  0
  7  8  1  0
  8  9  1  0
  9 10  1  0
 10 11  1  0
 11 12  1  0
 12 13  1  0
 13 14  1  0
 14 15  1  0
 15 16  1  0
 16 17  1  0
 16 18  1  0
 16 19  1  0
 19 20  1  0
  2 21  1  0
 21 22  2  0
 22 23  1  0
 23 24  2  0
 24 25  1  0
 25 26  2  0
 26 27  1  0
 27 28  2  0
 28 29  1  0
 29 30  2  0
 12  7  1  0
 20 13  1  0
 30 21  1  0
 29 24  1  0
  3 31  1  0
  4 32  1  0
  4 33  1  0
  8 34  1  0
  8 35  1  0
  9 36  1  0
  9 37  1  0
 10 38  1  0
 10 39  1  0
 11 40  1  0
 11 41  1  0
 12 42  1  6
 13 43  1  0
 14 44  1  0
 14 45  1  0
 15 46  1  0
 15 47  1  0
 19 48  1  0
 19 49  1  0
 20 50  1  0
 20 51  1  0
 22 52  1  0
 23 53  1  0
 25 54  1  0
 26 55  1  0
 27 56  1  0
 28 57  1  0
M  END
>  <smiles>  (7) 
O=C(NCC(=O)N1CCCCC1C1CCC(F)(F)CC1)c1ccc2ccccc2n1

>  <score_type>  (7) 
oracle

>  <origin>  (7) 
autodockgpu

>  <m_score__min__energy>  (7) 
-9.3200000000000003

>  <m_primary>  (7) 
energy

>  <rmsd>  (7) 
1.4058315704094972

>  <m_score__min__rmsd>  (7) 
1.4058315704094972

>  <meeko>  (7) 
{"free_energy": -8.89, "intermolecular_energy": -10.38, "internal_energy": -1.62, "cluster_size": 34, "cluster_id": 1, "rank_in_cluster": 19}

>  <energy>  (7) 
-9.12

>  <cluster_rmsd>  (7) 
0.42

>  <cluster>  (7) 
1

$$$$

     RDKit          3D

 57 60  0  0  0  0  0  0  0  0999 V2000
  139.6030   71.1650  221.2770 O   0  0  0  0  0  0  0  0  0  0  0  0
  139.6320   71.8890  222.3290 C   0  0  0  0  0  0  0  0  0  0  0  0
  139.4640   73.2950  222.2890 N   0  0  0  0  0  0  0  0  0  0  0  0
  139.2460   74.0160  221.0500 C   0  0  0  0  0  0  0  0  0  0  0  0
  140.5470   74.0820  220.2840 C   0  0  0  0  0  0  0  0  0  0  0  0
  140.6530   73.2170  219.3830 O   0  0  0  0  0  0  0  0  0  0  0  0
  141.4800   75.0590  220.6280 N   0  0  0  0  0  0  0  0  0  0  0  0
  140.9800   76.1740  221.5070 C   0  0  0  0  0  0  0  0  0  0  0  0
  141.4660   77.4400  220.8650 C   0  0  0  0  0  0  0  0  0  0  0  0
  142.0880   77.3660  219.5320 C   0  0  0  0  0  0  0  0  0  0  0  0
  142.7540   76.1260  219.0690 C   0  0  0  0  0  0  0  0  0  0  0  0
  142.8540   75.1930  220.2680 C   0  0  2  0  0  0  0  0  0  0  0  0
  143.7730   74.0830  220.1440 C   0  0  0  0  0  0  0  0  0  0  0  0
  143.3870   72.7000  220.5780 C   0  0  0  0  0  0  0  0  0  0  0  0
  144.1310   71.7340  219.6240 C   0  0  0  0  0  0  0  0  0  0  0  0
  145.5530   72.1510  219.5630 C   0  0  0  0  0  0  0  0  0  0  0  0
  145.9160   72.6590  218.3240 F   0  0  0  0  0  0  0  0  0  0  0  0
  146.3190   70.9840  219.6980 F   0  0  0  0  0  0  0  0  0  0  0  0
  146.0090   73.0920  220.6210 C   0  0  0  0  0  0  0  0  0  0  0  0
  145.1950   74.3800  220.6430 C   0  0  0  0  0  0  0  0  0  0  0  0
  139.8520   71.2150  223.6250 C   0  0  0  0  0  0  0  0  0  0  0  0
  139.5670   69.8880  223.7840 C   0  0  0  0  0  0  0  0  0  0  0  0
  139.7790   69.2790  225.0050 C   0  0  0  0  0  0  0  0  0  0  0  0
  140.2760   69.9820  226.0790 C   0  0  0  0  0  0  0  0  0  0  0  0
  140.4830   69.3680  227.2850 C   0  0  0  0  0  0  0  0  0  0  0  0
  140.9780   70.0990  228.3270 C   0  0  0  0  0  0  0  0  0  0  0  0
  141.2660   71.4470  228.1630 C   0  0  0  0  0  0  0  0  0  0  0  0
  141.0560   72.0690  226.9400 C   0  0  0  0  0  0  0  0  0  0  0  0
  140.5560   71.3240  225.8900 C   0  0  0  0  0  0  0  0  0  0  0  0
  140.3370   71.8800  224.6940 N   0  0  0  0  0  0  0  0  0  0  0  0
  139.5060   73.7980  223.2260 H   0  0  0  0  0  0  0  0  0  0  0  0
  138.4891   73.4929  220.4471 H   0  0  0  0  0  0  0  0  0  0  0  0
  138.8919   75.0340  221.2697 H   0  0  0  0  0  0  0  0  0  0  0  0
  139.8810   76.1638  221.5530 H   0  0  0  0  0  0  0  0  0  0  0  0
  141.3452   76.0742  222.5398 H   0  0  0  0  0  0  0  0  0  0  0  0
  140.5999   78.1129  220.7808 H   0  0  0  0  0  0  0  0  0  0  0  0
  142.2827   77.7746  221.5215 H   0  0  0  0  0  0  0  0  0  0  0  0
  141.2935   77.5852  218.8035 H   0  0  0  0  0  0  0  0  0  0  0  0
  142.9257   78.0739  219.6160 H   0  0  0  0  0  0  0  0  0  0  0  0
  142.1597   75.6539  218.2728 H   0  0  0  0  0  0  0  0  0  0  0  0
  143.7519   76.3475  218.6627 H   0  0  0  0  0  0  0  0  0  0  0  0
  143.4117   75.5454  221.1482 H   0  0  0  0  0  0  0  0  0  0  0  0
  143.7211   74.0222  219.0469 H   0  0  0  0  0  0  0  0  0  0  0  0
  143.6973   72.5248  221.6187 H   0  0  0  0  0  0  0  0  0  0  0  0
  142.2979   72.5519  220.5347 H   0  0  0  0  0  0  0  0  0  0  0  0
  144.0603   70.7048  220.0059 H   0  0  0  0  0  0  0  0  0  0  0  0
  143.6808   71.7671  218.6209 H   0  0  0  0  0  0  0  0  0  0  0  0
  145.9138   72.5972  221.5988 H   0  0  0  0  0  0  0  0  0  0  0  0
  147.0539   73.3592  220.4045 H   0  0  0  0  0  0  0  0  0  0  0  0
  145.1510   74.7707  221.6703 H   0  0  0  0  0  0  0  0  0  0  0  0
  145.6681   75.1292  219.9912 H   0  0  0  0  0  0  0  0  0  0  0  0
  139.1690   69.3055  222.9400 H   0  0  0  0  0  0  0  0  0  0  0  0
  139.5460   68.2103  225.1218 H   0  0  0  0  0  0  0  0  0  0  0  0
  140.2536   68.2998  227.4131 H   0  0  0  0  0  0  0  0  0  0  0  0
  141.1493   69.6173  229.3009 H   0  0  0  0  0  0  0  0  0  0  0  0
  141.6638   72.0268  229.0089 H   0  0  0  0  0  0  0  0  0  0  0  0
  141.2839   73.1372  226.8093 H   0  0  0  0  0  0  0  0  0  0  0  0
  1  2  2  0
  2  3  1  0
  3  4  1  0
  4  5  1  0
  5  6  2  0
  5  7  1  0
  7  8  1  0
  8  9  1  0
  9 10  1  0
 10 11  1  0
 11 12  1  0
 12 13  1  0
 13 14  1  0
 14 15  1  0
 15 16  1  0
 16 17  1  0
 16 18  1  0
 16 19  1  0
 19 20  1  0
  2 21  1  0
 21 22  2  0
 22 23  1  0
 23 24  2  0
 24 25  1  0
 25 26  2  0
 26 27  1  0
 27 28  2  0
 28 29  1  0
 29 30  2  0
 12  7  1  0
 20 13  1  0
 30 21  1  0
 29 24  1  0
  3 31  1  0
  4 32  1  0
  4 33  1  0
  8 34  1  0
  8 35  1  0
  9 36  1  0
  9 37  1  0
 10 38  1  0
 10 39  1  0
 11 40  1  0
 11 41  1  0
 12 42  1  1
 13 43  1  0
 14 44  1  0
 14 45  1  0
 15 46  1  0
 15 47  1  0
 19 48  1  0
 19 49  1  0
 20 50  1  0
 20 51  1  0
 22 52  1  0
 23 53  1  0
 25 54  1  0
 26 55  1  0
 27 56  1  0
 28 57  1  0
M  END
>  <smiles>  (8) 
O=C(NCC(=O)N1CCCCC1C1CCC(F)(F)CC1)c1ccc2ccccc2n1

>  <score_type>  (8) 
oracle

>  <origin>  (8) 
autodockgpu

>  <m_score__min__energy>  (8) 
-9.3200000000000003

>  <m_primary>  (8) 
energy

>  <rmsd>  (8) 
2.3048562148024567

>  <m_score__min__rmsd>  (8) 
2.3048562148024567

>  <meeko>  (8) 
{"free_energy": -8.72, "intermolecular_energy": -10.22, "internal_energy": -1.82, "cluster_size": 11, "cluster_id": 3, "rank_in_cluster": 2}

>  <energy>  (8) 
-9.12

>  <cluster_rmsd>  (8) 
0.44

>  <cluster>  (8) 
1

$$$$

     RDKit          3D

 57 60  0  0  0  0  0  0  0  0999 V2000
  141.2260   71.8700  221.5260 O   0  0  0  0  0  0  0  0  0  0  0  0
  140.3480   72.2510  222.3730 C   0  0  0  0  0  0  0  0  0  0  0  0
  139.5220   73.3810  222.1530 N   0  0  0  0  0  0  0  0  0  0  0  0
  139.6120   74.1880  220.9520 C   0  0  0  0  0  0  0  0  0  0  0  0
  140.6070   75.3020  221.1800 C   0  0  0  0  0  0  0  0  0  0  0  0
  141.0770   75.3360  222.3420 O   0  0  0  0  0  0  0  0  0  0  0  0
  140.9070   76.1610  220.1250 N   0  0  0  0  0  0  0  0  0  0  0  0
  140.2950   75.8150  218.7940 C   0  0  0  0  0  0  0  0  0  0  0  0
  141.4140   75.9110  217.7990 C   0  0  0  0  0  0  0  0  0  0  0  0
  142.7880   76.0980  218.2950 C   0  0  0  0  0  0  0  0  0  0  0  0
  143.0470   76.7440  219.6020 C   0  0  0  0  0  0  0  0  0  0  0  0
  141.7270   77.3270  220.0860 C   0  0  2  0  0  0  0  0  0  0  0  0
  141.8060   78.3000  221.1540 C   0  0  0  0  0  0  0  0  0  0  0  0
  140.9320   78.1960  222.3690 C   0  0  0  0  0  0  0  0  0  0  0  0
  141.7670   78.7680  223.5410 C   0  0  0  0  0  0  0  0  0  0  0  0
  142.3320   80.0700  223.1110 C   0  0  0  0  0  0  0  0  0  0  0  0
  143.7110   80.0400  222.9640 F   0  0  0  0  0  0  0  0  0  0  0  0
  142.1150   80.9690  224.1650 F   0  0  0  0  0  0  0  0  0  0  0  0
  141.7320   80.6790  221.8930 C   0  0  0  0  0  0  0  0  0  0  0  0
  141.8230   79.7600  220.6800 C   0  0  0  0  0  0  0  0  0  0  0  0
  140.2070   71.4730  223.6200 C   0  0  0  0  0  0  0  0  0  0  0  0
  139.5680   70.2640  223.6250 C   0  0  0  0  0  0  0  0  0  0  0  0
  139.4470   69.5550  224.8030 C   0  0  0  0  0  0  0  0  0  0  0  0
  139.9590   70.0370  225.9860 C   0  0  0  0  0  0  0  0  0  0  0  0
  139.8330   69.3250  227.1490 C   0  0  0  0  0  0  0  0  0  0  0  0
  140.3540   69.8370  228.3020 C   0  0  0  0  0  0  0  0  0  0  0  0
  141.0020   71.0650  228.2940 C   0  0  0  0  0  0  0  0  0  0  0  0
  141.1300   71.7870  227.1150 C   0  0  0  0  0  0  0  0  0  0  0  0
  140.6000   71.2620  225.9520 C   0  0  0  0  0  0  0  0  0  0  0  0
  140.6980   71.9220  224.7930 N   0  0  0  0  0  0  0  0  0  0  0  0
  138.8260   73.6080  222.9260 H   0  0  0  0  0  0  0  0  0  0  0  0
  139.9458   73.5619  220.1114 H   0  0  0  0  0  0  0  0  0  0  0  0
  138.6256   74.6139  220.7162 H   0  0  0  0  0  0  0  0  0  0  0  0
  139.8848   74.7945  218.8135 H   0  0  0  0  0  0  0  0  0  0  0  0
  139.4647   76.4902  218.5396 H   0  0  0  0  0  0  0  0  0  0  0  0
  141.4057   74.9809  217.2118 H   0  0  0  0  0  0  0  0  0  0  0  0
  141.2012   76.8382  217.2467 H   0  0  0  0  0  0  0  0  0  0  0  0
  143.2407   75.0968  218.3461 H   0  0  0  0  0  0  0  0  0  0  0  0
  143.2059   76.8227  217.5807 H   0  0  0  0  0  0  0  0  0  0  0  0
  143.4174   76.0004  220.3230 H   0  0  0  0  0  0  0  0  0  0  0  0
  143.8088   77.5314  219.5040 H   0  0  0  0  0  0  0  0  0  0  0  0
  141.2343   78.0774  219.4503 H   0  0  0  0  0  0  0  0  0  0  0  0
  142.7879   77.9718  221.5258 H   0  0  0  0  0  0  0  0  0  0  0  0
  140.0128   78.7843  222.2309 H   0  0  0  0  0  0  0  0  0  0  0  0
  140.6265   77.1566  222.5596 H   0  0  0  0  0  0  0  0  0  0  0  0
  141.1236   78.9131  224.4213 H   0  0  0  0  0  0  0  0  0  0  0  0
  142.5751   78.0715  223.8090 H   0  0  0  0  0  0  0  0  0  0  0  0
  140.6725   80.8974  222.0923 H   0  0  0  0  0  0  0  0  0  0  0  0
  142.2955   81.5953  221.6632 H   0  0  0  0  0  0  0  0  0  0  0  0
  140.9657   79.9415  220.0151 H   0  0  0  0  0  0  0  0  0  0  0  0
  142.7552   79.9610  220.1317 H   0  0  0  0  0  0  0  0  0  0  0  0
  139.1511   69.8573  222.6918 H   0  0  0  0  0  0  0  0  0  0  0  0
  138.9303   68.5839  224.7961 H   0  0  0  0  0  0  0  0  0  0  0  0
  139.3184   68.3528  227.1539 H   0  0  0  0  0  0  0  0  0  0  0  0
  140.2601   69.2739  229.2423 H   0  0  0  0  0  0  0  0  0  0  0  0
  141.4172   71.4690  229.2291 H   0  0  0  0  0  0  0  0  0  0  0  0
  141.6441   72.7594  227.1070 H   0  0  0  0  0  0  0  0  0  0  0  0
  1  2  2  0
  2  3  1  0
  3  4  1  0
  4  5  1  0
  5  6  2  0
  5  7  1  0
  7  8  1  0
  8  9  1  0
  9 10  1  0
 10 11  1  0
 11 12  1  0
 12 13  1  0
 13 14  1  0
 14 15  1  0
 15 16  1  0
 16 17  1  0
 16 18  1  0
 16 19  1  0
 19 20  1  0
  2 21  1  0
 21 22  2  0
 22 23  1  0
 23 24  2  0
 24 25  1  0
 25 26  2  0
 26 27  1  0
 27 28  2  0
 28 29  1  0
 29 30  2  0
 12  7  1  0
 20 13  1  0
 30 21  1  0
 29 24  1  0
  3 31  1  0
  4 32  1  0
  4 33  1  0
  8 34  1  0
  8 35  1  0
  9 36  1  0
  9 37  1  0
 10 38  1  0
 10 39  1  0
 11 40  1  0
 11 41  1  0
 12 42  1  6
 13 43  1  0
 14 44  1  0
 14 45  1  0
 15 46  1  0
 15 47  1  0
 19 48  1  0
 19 49  1  0
 20 50  1  0
 20 51  1  0
 22 52  1  0
 23 53  1  0
 25 54  1  0
 26 55  1  0
 27 56  1  0
 28 57  1  0
M  END
>  <smiles>  (9) 
O=C(NCC(=O)N1CCCCC1C1CCC(F)(F)CC1)c1ccc2ccccc2n1

>  <score_type>  (9) 
oracle

>  <origin>  (9) 
autodockgpu

>  <m_score__min__energy>  (9) 
-9.3200000000000003

>  <m_primary>  (9) 
energy

>  <rmsd>  (9) 
1.6009305328373622

>  <m_score__min__rmsd>  (9) 
1.6009305328373622

>  <meeko>  (9) 
{"free_energy": -9.32, "intermolecular_energy": -10.81, "internal_energy": -1.4, "cluster_size": 34, "cluster_id": 1, "rank_in_cluster": 1}

>  <energy>  (9) 
-9.11

>  <cluster_rmsd>  (9) 
0.41

>  <cluster>  (9) 
1

$$$$

     RDKit          3D

 57 60  0  0  0  0  0  0  0  0999 V2000
  140.7630   71.2890  221.2630 O   0  0  0  0  0  0  0  0  0  0  0  0
  140.3680   71.9870  222.2580 C   0  0  0  0  0  0  0  0  0  0  0  0
  140.0930   73.3730  222.1520 N   0  0  0  0  0  0  0  0  0  0  0  0
  140.2380   74.1010  220.9070 C   0  0  0  0  0  0  0  0  0  0  0  0
  140.2570   75.5830  221.2030 C   0  0  0  0  0  0  0  0  0  0  0  0
  139.9150   75.8740  222.3730 O   0  0  0  0  0  0  0  0  0  0  0  0
  140.6380   76.4650  220.1930 N   0  0  0  0  0  0  0  0  0  0  0  0
  140.0100   76.2400  218.8440 C   0  0  0  0  0  0  0  0  0  0  0  0
  141.1410   76.2890  217.8600 C   0  0  0  0  0  0  0  0  0  0  0  0
  142.5220   76.3310  218.3690 C   0  0  0  0  0  0  0  0  0  0  0  0
  142.8240   76.8870  219.7090 C   0  0  0  0  0  0  0  0  0  0  0  0
  141.5550   77.5570  220.2160 C   0  0  2  0  0  0  0  0  0  0  0  0
  141.7080   78.4650  221.3320 C   0  0  0  0  0  0  0  0  0  0  0  0
  140.8980   78.3040  222.5840 C   0  0  0  0  0  0  0  0  0  0  0  0
  141.8040   78.7950  223.7400 C   0  0  0  0  0  0  0  0  0  0  0  0
  142.3700   80.1100  223.3550 C   0  0  0  0  0  0  0  0  0  0  0  0
  143.7390   80.0670  223.1340 F   0  0  0  0  0  0  0  0  0  0  0  0
  142.2250   80.9500  224.4690 F   0  0  0  0  0  0  0  0  0  0  0  0
  141.7180   80.7980  222.2080 C   0  0  0  0  0  0  0  0  0  0  0  0
  141.7280   79.9500  220.9420 C   0  0  0  0  0  0  0  0  0  0  0  0
  140.2010   71.3050  223.5570 C   0  0  0  0  0  0  0  0  0  0  0  0
  139.5620   70.1000  223.6410 C   0  0  0  0  0  0  0  0  0  0  0  0
  139.4170   69.4810  224.8660 C   0  0  0  0  0  0  0  0  0  0  0  0
  139.9040   70.0520  226.0200 C   0  0  0  0  0  0  0  0  0  0  0  0
  139.7530   69.4300  227.2300 C   0  0  0  0  0  0  0  0  0  0  0  0
  140.2510   70.0290  228.3520 C   0  0  0  0  0  0  0  0  0  0  0  0
  140.8980   71.2530  228.2650 C   0  0  0  0  0  0  0  0  0  0  0  0
  141.0510   71.8850  227.0370 C   0  0  0  0  0  0  0  0  0  0  0  0
  140.5460   71.2730  225.9060 C   0  0  0  0  0  0  0  0  0  0  0  0
  140.6680   71.8430  224.7030 N   0  0  0  0  0  0  0  0  0  0  0  0
  139.7710   73.8550  223.0450 H   0  0  0  0  0  0  0  0  0  0  0  0
  141.1793   73.8106  220.4174 H   0  0  0  0  0  0  0  0  0  0  0  0
  139.3962   73.8662  220.2389 H   0  0  0  0  0  0  0  0  0  0  0  0
  139.5137   75.2589  218.8102 H   0  0  0  0  0  0  0  0  0  0  0  0
  139.2428   76.9960  218.6207 H   0  0  0  0  0  0  0  0  0  0  0  0
  141.0571   75.3940  217.2260 H   0  0  0  0  0  0  0  0  0  0  0  0
  141.0135   77.2583  217.3558 H   0  0  0  0  0  0  0  0  0  0  0  0
  142.8863   75.2931  218.3715 H   0  0  0  0  0  0  0  0  0  0  0  0
  143.0076   77.0503  217.6931 H   0  0  0  0  0  0  0  0  0  0  0  0
  143.1227   76.0793  220.3934 H   0  0  0  0  0  0  0  0  0  0  0  0
  143.6513   77.6098  219.6539 H   0  0  0  0  0  0  0  0  0  0  0  0
  141.1341   78.3779  219.6169 H   0  0  0  0  0  0  0  0  0  0  0  0
  142.7017   78.1003  221.6313 H   0  0  0  0  0  0  0  0  0  0  0  0
  139.9835   78.9128  222.5293 H   0  0  0  0  0  0  0  0  0  0  0  0
  140.5844   77.2600  222.7314 H   0  0  0  0  0  0  0  0  0  0  0  0
  141.2105   78.8996  224.6602 H   0  0  0  0  0  0  0  0  0  0  0  0
  142.6119   78.0717  223.9245 H   0  0  0  0  0  0  0  0  0  0  0  0
  140.6747   81.0208  222.4761 H   0  0  0  0  0  0  0  0  0  0  0  0
  142.2853   81.7174  222.0011 H   0  0  0  0  0  0  0  0  0  0  0  0
  140.8407   80.1835  220.3352 H   0  0  0  0  0  0  0  0  0  0  0  0
  142.6340   80.1675  220.3573 H   0  0  0  0  0  0  0  0  0  0  0  0
  139.1635   69.6238  222.7330 H   0  0  0  0  0  0  0  0  0  0  0  0
  138.9014   68.5109  224.9214 H   0  0  0  0  0  0  0  0  0  0  0  0
  139.2375   68.4607  227.2979 H   0  0  0  0  0  0  0  0  0  0  0  0
  140.1384   69.5381  229.3299 H   0  0  0  0  0  0  0  0  0  0  0  0
  141.2931   71.7271  229.1755 H   0  0  0  0  0  0  0  0  0  0  0  0
  141.5649   72.8550  226.9667 H   0  0  0  0  0  0  0  0  0  0  0  0
  1  2  2  0
  2  3  1  0
  3  4  1  0
  4  5  1  0
  5  6  2  0
  5  7  1  0
  7  8  1  0
  8  9  1  0
  9 10  1  0
 10 11  1  0
 11 12  1  0
 12 13  1  0
 13 14  1  0
 14 15  1  0
 15 16  1  0
 16 17  1  0
 16 18  1  0
 16 19  1  0
 19 20  1  0
  2 21  1  0
 21 22  2  0
 22 23  1  0
 23 24  2  0
 24 25  1  0
 25 26  2  0
 26 27  1  0
 27 28  2  0
 28 29  1  0
 29 30  2  0
 12  7  1  0
 20 13  1  0
 30 21  1  0
 29 24  1  0
  3 31  1  0
  4 32  1  0
  4 33  1  0
  8 34  1  0
  8 35  1  0
  9 36  1  0
  9 37  1  0
 10 38  1  0
 10 39  1  0
 11 40  1  0
 11 41  1  0
 12 42  1  6
 13 43  1  0
 14 44  1  0
 14 45  1  0
 15 46  1  0
 15 47  1  0
 19 48  1  0
 19 49  1  0
 20 50  1  0
 20 51  1  0
 22 52  1  0
 23 53  1  0
 25 54  1  0
 26 55  1  0
 27 56  1  0
 28 57  1  0
M  END
>  <smiles>  (10) 
O=C(NCC(=O)N1CCCCC1C1CCC(F)(F)CC1)c1ccc2ccccc2n1

>  <score_type>  (10) 
oracle

>  <origin>  (10) 
autodockgpu

>  <m_score__min__energy>  (10) 
-9.3200000000000003

>  <m_primary>  (10) 
energy

>  <rmsd>  (10) 
1.680754407111066

>  <m_score__min__rmsd>  (10) 
1.680754407111066

>  <meeko>  (10) 
{"free_energy": -9.12, "intermolecular_energy": -10.61, "internal_energy": -1.77, "cluster_size": 34, "cluster_id": 1, "rank_in_cluster": 8}

>  <energy>  (10) 
-9.11

>  <cluster_rmsd>  (10) 
0.45

>  <cluster>  (10) 
1

$$$$

     RDKit          3D

 57 60  0  0  0  0  0  0  0  0999 V2000
  140.5300   71.4200  221.2630 O   0  0  0  0  0  0  0  0  0  0  0  0
  140.2030   72.0840  222.3040 C   0  0  0  0  0  0  0  0  0  0  0  0
  139.9190   73.4710  222.2620 N   0  0  0  0  0  0  0  0  0  0  0  0
  139.9790   74.2390  221.0340 C   0  0  0  0  0  0  0  0  0  0  0  0
  140.2490   75.6880  221.3710 C   0  0  0  0  0  0  0  0  0  0  0  0
  140.2320   75.9370  222.5990 O   0  0  0  0  0  0  0  0  0  0  0  0
  140.4860   76.5870  220.3330 N   0  0  0  0  0  0  0  0  0  0  0  0
  139.7410   76.3290  219.0500 C   0  0  0  0  0  0  0  0  0  0  0  0
  140.7670   76.4340  217.9610 C   0  0  0  0  0  0  0  0  0  0  0  0
  142.1870   76.5470  218.3340 C   0  0  0  0  0  0  0  0  0  0  0  0
  142.5900   77.1180  219.6400 C   0  0  0  0  0  0  0  0  0  0  0  0
  141.3440   77.7240  220.2710 C   0  0  2  0  0  0  0  0  0  0  0  0
  141.5590   78.6380  221.3710 C   0  0  0  0  0  0  0  0  0  0  0  0
  140.6620   78.6380  222.5720 C   0  0  0  0  0  0  0  0  0  0  0  0
  141.5580   79.0350  223.7710 C   0  0  0  0  0  0  0  0  0  0  0  0
  142.3290   80.2430  223.3880 C   0  0  0  0  0  0  0  0  0  0  0  0
  143.6880   79.9990  223.2560 F   0  0  0  0  0  0  0  0  0  0  0  0
  142.2410   81.1330  224.4690 F   0  0  0  0  0  0  0  0  0  0  0  0
  141.8520   80.9760  222.1850 C   0  0  0  0  0  0  0  0  0  0  0  0
  141.8160   80.0910  220.9440 C   0  0  0  0  0  0  0  0  0  0  0  0
  140.1260   71.3610  223.5890 C   0  0  0  0  0  0  0  0  0  0  0  0
  139.5720   70.1120  223.6610 C   0  0  0  0  0  0  0  0  0  0  0  0
  139.5100   69.4550  224.8730 C   0  0  0  0  0  0  0  0  0  0  0  0
  139.9950   70.0300  226.0260 C   0  0  0  0  0  0  0  0  0  0  0  0
  139.9270   69.3690  227.2230 C   0  0  0  0  0  0  0  0  0  0  0  0
  140.4200   69.9730  228.3440 C   0  0  0  0  0  0  0  0  0  0  0  0
  140.9810   71.2410  228.2690 C   0  0  0  0  0  0  0  0  0  0  0  0
  141.0490   71.9110  227.0550 C   0  0  0  0  0  0  0  0  0  0  0  0
  140.5490   71.2940  225.9250 C   0  0  0  0  0  0  0  0  0  0  0  0
  140.5930   71.9000  224.7340 N   0  0  0  0  0  0  0  0  0  0  0  0
  139.6580   73.9230  223.1890 H   0  0  0  0  0  0  0  0  0  0  0  0
  140.7875   73.8520  220.3964 H   0  0  0  0  0  0  0  0  0  0  0  0
  139.0230   74.1548  220.4965 H   0  0  0  0  0  0  0  0  0  0  0  0
  139.2938   75.3241  219.0609 H   0  0  0  0  0  0  0  0  0  0  0  0
  138.9185   77.0450  218.9054 H   0  0  0  0  0  0  0  0  0  0  0  0
  140.6675   75.5349  217.3351 H   0  0  0  0  0  0  0  0  0  0  0  0
  140.5420   77.3947  217.4747 H   0  0  0  0  0  0  0  0  0  0  0  0
  142.6021   75.5290  218.2964 H   0  0  0  0  0  0  0  0  0  0  0  0
  142.5666   77.2905  217.6177 H   0  0  0  0  0  0  0  0  0  0  0  0
  142.9939   76.3267  220.2886 H   0  0  0  0  0  0  0  0  0  0  0  0
  143.3710   77.8812  219.5078 H   0  0  0  0  0  0  0  0  0  0  0  0
  140.8265   78.5224  219.7190 H   0  0  0  0  0  0  0  0  0  0  0  0
  142.4691   78.1452  221.7436 H   0  0  0  0  0  0  0  0  0  0  0  0
  139.8498   79.3685  222.4429 H   0  0  0  0  0  0  0  0  0  0  0  0
  140.1935   77.6548  222.7261 H   0  0  0  0  0  0  0  0  0  0  0  0
  140.9317   79.2547  224.6482 H   0  0  0  0  0  0  0  0  0  0  0  0
  142.2409   78.2114  224.0265 H   0  0  0  0  0  0  0  0  0  0  0  0
  140.8372   81.3532  222.3800 H   0  0  0  0  0  0  0  0  0  0  0  0
  142.5562   81.7985  221.9912 H   0  0  0  0  0  0  0  0  0  0  0  0
  141.0096   80.4267  220.2753 H   0  0  0  0  0  0  0  0  0  0  0  0
  142.7772   80.1571  220.4133 H   0  0  0  0  0  0  0  0  0  0  0  0
  139.1764   69.6320  222.7537 H   0  0  0  0  0  0  0  0  0  0  0  0
  139.0636   68.4507  224.9188 H   0  0  0  0  0  0  0  0  0  0  0  0
  139.4813   68.3650  227.2809 H   0  0  0  0  0  0  0  0  0  0  0  0
  140.3725   69.4523  229.3118 H   0  0  0  0  0  0  0  0  0  0  0  0
  141.3746   71.7183  229.1785 H   0  0  0  0  0  0  0  0  0  0  0  0
  141.4932   72.9155  226.9941 H   0  0  0  0  0  0  0  0  0  0  0  0
  1  2  2  0
  2  3  1  0
  3  4  1  0
  4  5  1  0
  5  6  2  0
  5  7  1  0
  7  8  1  0
  8  9  1  0
  9 10  1  0
 10 11  1  0
 11 12  1  0
 12 13  1  0
 13 14  1  0
 14 15  1  0
 15 16  1  0
 16 17  1  0
 16 18  1  0
 16 19  1  0
 19 20  1  0
  2 21  1  0
 21 22  2  0
 22 23  1  0
 23 24  2  0
 24 25  1  0
 25 26  2  0
 26 27  1  0
 27 28  2  0
 28 29  1  0
 29 30  2  0
 12  7  1  0
 20 13  1  0
 30 21  1  0
 29 24  1  0
  3 31  1  0
  4 32  1  0
  4 33  1  0
  8 34  1  0
  8 35  1  0
  9 36  1  0
  9 37  1  0
 10 38  1  0
 10 39  1  0
 11 40  1  0
 11 41  1  0
 12 42  1  6
 13 43  1  0
 14 44  1  0
 14 45  1  0
 15 46  1  0
 15 47  1  0
 19 48  1  0
 19 49  1  0
 20 50  1  0
 20 51  1  0
 22 52  1  0
 23 53  1  0
 25 54  1  0
 26 55  1  0
 27 56  1  0
 28 57  1  0
M  END
>  <smiles>  (11) 
O=C(NCC(=O)N1CCCCC1C1CCC(F)(F)CC1)c1ccc2ccccc2n1

>  <score_type>  (11) 
oracle

>  <origin>  (11) 
autodockgpu

>  <m_score__min__energy>  (11) 
-9.3200000000000003

>  <m_primary>  (11) 
energy

>  <rmsd>  (11) 
1.6000721057898541

>  <m_score__min__rmsd>  (11) 
1.6000721057898541

>  <meeko>  (11) 
{"free_energy": -9.08, "intermolecular_energy": -10.57, "internal_energy": -1.92, "cluster_size": 34, "cluster_id": 1, "rank_in_cluster": 14}

>  <energy>  (11) 
-9.1

>  <cluster_rmsd>  (11) 
0.47

>  <cluster>  (11) 
1

$$$$

     RDKit          3D

 57 60  0  0  0  0  0  0  0  0999 V2000
  141.0500   71.5480  221.4000 O   0  0  0  0  0  0  0  0  0  0  0  0
  140.4740   72.1660  222.3590 C   0  0  0  0  0  0  0  0  0  0  0  0
  140.0610   73.5160  222.2530 N   0  0  0  0  0  0  0  0  0  0  0  0
  140.2610   74.2980  221.0480 C   0  0  0  0  0  0  0  0  0  0  0  0
  140.1860   75.7670  221.3950 C   0  0  0  0  0  0  0  0  0  0  0  0
  139.9660   75.9930  222.6080 O   0  0  0  0  0  0  0  0  0  0  0  0
  140.3610   76.7060  220.3810 N   0  0  0  0  0  0  0  0  0  0  0  0
  139.5350   76.5030  219.1390 C   0  0  0  0  0  0  0  0  0  0  0  0
  140.4920   76.6500  217.9920 C   0  0  0  0  0  0  0  0  0  0  0  0
  141.9330   76.7450  218.2790 C   0  0  0  0  0  0  0  0  0  0  0  0
  142.4200   77.2620  219.5790 C   0  0  0  0  0  0  0  0  0  0  0  0
  141.2180   77.8440  220.3110 C   0  0  2  0  0  0  0  0  0  0  0  0
  141.5060   78.7130  221.4310 C   0  0  0  0  0  0  0  0  0  0  0  0
  140.7630   78.5860  222.7270 C   0  0  0  0  0  0  0  0  0  0  0  0
  141.7700   78.9830  223.8340 C   0  0  0  0  0  0  0  0  0  0  0  0
  142.4100   80.2600  223.4380 C   0  0  0  0  0  0  0  0  0  0  0  0
  143.7560   80.1200  223.1320 F   0  0  0  0  0  0  0  0  0  0  0  0
  142.3970   81.0840  224.5720 F   0  0  0  0  0  0  0  0  0  0  0  0
  141.7460   81.0190  222.3450 C   0  0  0  0  0  0  0  0  0  0  0  0
  141.6160   80.2000  221.0660 C   0  0  0  0  0  0  0  0  0  0  0  0
  140.2430   71.4260  223.6160 C   0  0  0  0  0  0  0  0  0  0  0  0
  139.5700   70.2360  223.6180 C   0  0  0  0  0  0  0  0  0  0  0  0
  139.3640   69.5630  224.8050 C   0  0  0  0  0  0  0  0  0  0  0  0
  139.8230   70.0650  226.0020 C   0  0  0  0  0  0  0  0  0  0  0  0
  139.6130   69.3880  227.1740 C   0  0  0  0  0  0  0  0  0  0  0  0
  140.0840   69.9190  228.3410 C   0  0  0  0  0  0  0  0  0  0  0  0
  140.7660   71.1270  228.3370 C   0  0  0  0  0  0  0  0  0  0  0  0
  140.9790   71.8130  227.1480 C   0  0  0  0  0  0  0  0  0  0  0  0
  140.5000   71.2700  225.9720 C   0  0  0  0  0  0  0  0  0  0  0  0
  140.6810   71.8950  224.8030 N   0  0  0  0  0  0  0  0  0  0  0  0
  139.5930   73.9310  223.1130 H   0  0  0  0  0  0  0  0  0  0  0  0
  141.2486   74.0702  220.6205 H   0  0  0  0  0  0  0  0  0  0  0  0
  139.4823   74.0505  220.3115 H   0  0  0  0  0  0  0  0  0  0  0  0
  139.0840   75.4997  219.1371 H   0  0  0  0  0  0  0  0  0  0  0  0
  138.7086   77.2262  219.0760 H   0  0  0  0  0  0  0  0  0  0  0  0
  140.3494   75.7772  217.3379 H   0  0  0  0  0  0  0  0  0  0  0  0
  140.2414   77.6301  217.5600 H   0  0  0  0  0  0  0  0  0  0  0  0
  142.3403   75.7286  218.1744 H   0  0  0  0  0  0  0  0  0  0  0  0
  142.2702   77.5161  217.5707 H   0  0  0  0  0  0  0  0  0  0  0  0
  142.8607   76.4445  220.1685 H   0  0  0  0  0  0  0  0  0  0  0  0
  143.1945   78.0286  219.4289 H   0  0  0  0  0  0  0  0  0  0  0  0
  140.6691   78.6645  219.8256 H   0  0  0  0  0  0  0  0  0  0  0  0
  142.4849   78.2680  221.6629 H   0  0  0  0  0  0  0  0  0  0  0  0
  139.8954   79.2622  222.7385 H   0  0  0  0  0  0  0  0  0  0  0  0
  140.3814   77.5651  222.8754 H   0  0  0  0  0  0  0  0  0  0  0  0
  141.2415   79.1116  224.7901 H   0  0  0  0  0  0  0  0  0  0  0  0
  142.5304   78.1977  223.9569 H   0  0  0  0  0  0  0  0  0  0  0  0
  140.7405   81.3138  222.6797 H   0  0  0  0  0  0  0  0  0  0  0  0
  142.3688   81.8972  222.1196 H   0  0  0  0  0  0  0  0  0  0  0  0
  140.7146   80.5126  220.5184 H   0  0  0  0  0  0  0  0  0  0  0  0
  142.4996   80.3614  220.4310 H   0  0  0  0  0  0  0  0  0  0  0  0
  139.1930   69.8153  222.6741 H   0  0  0  0  0  0  0  0  0  0  0  0
  138.8220   68.6059  224.7946 H   0  0  0  0  0  0  0  0  0  0  0  0
  139.0725   68.4299  227.1754 H   0  0  0  0  0  0  0  0  0  0  0  0
  139.9216   69.3858  229.2893 H   0  0  0  0  0  0  0  0  0  0  0  0
  141.1411   71.5450  229.2828 H   0  0  0  0  0  0  0  0  0  0  0  0
  141.5193   72.7712  227.1432 H   0  0  0  0  0  0  0  0  0  0  0  0
  1  2  2  0
  2  3  1  0
  3  4  1  0
  4  5  1  0
  5  6  2  0
  5  7  1  0
  7  8  1  0
  8  9  1  0
  9 10  1  0
 10 11  1  0
 11 12  1  0
 12 13  1  0
 13 14  1  0
 14 15  1  0
 15 16  1  0
 16 17  1  0
 16 18  1  0
 16 19  1  0
 19 20  1  0
  2 21  1  0
 21 22  2  0
 22 23  1  0
 23 24  2  0
 24 25  1  0
 25 26  2  0
 26 27  1  0
 27 28  2  0
 28 29  1  0
 29 30  2  0
 12  7  1  0
 20 13  1  0
 30 21  1  0
 29 24  1  0
  3 31  1  0
  4 32  1  0
  4 33  1  0
  8 34  1  0
  8 35  1  0
  9 36  1  0
  9 37  1  0
 10 38  1  0
 10 39  1  0
 11 40  1  0
 11 41  1  0
 12 42  1  6
 13 43  1  0
 14 44  1  0
 14 45  1  0
 15 46  1  0
 15 47  1  0
 19 48  1  0
 19 49  1  0
 20 50  1  0
 20 51  1  0
 22 52  1  0
 23 53  1  0
 25 54  1  0
 26 55  1  0
 27 56  1  0
 28 57  1  0
M  END
>  <smiles>  (12) 
O=C(NCC(=O)N1CCCCC1C1CCC(F)(F)CC1)c1ccc2ccccc2n1

>  <score_type>  (12) 
oracle

>  <origin>  (12) 
autodockgpu

>  <m_score__min__energy>  (12) 
-9.3200000000000003

>  <m_primary>  (12) 
energy

>  <rmsd>  (12) 
1.6940214711237032

>  <m_score__min__rmsd>  (12) 
1.6940214711237032

>  <meeko>  (12) 
{"free_energy": -9.17, "intermolecular_energy": -10.66, "internal_energy": -1.83, "cluster_size": 34, "cluster_id": 1, "rank_in_cluster": 3}

>  <energy>  (12) 
-9.1

>  <cluster_rmsd>  (12) 
0.45

>  <cluster>  (12) 
1

$$$$

     RDKit          3D

 57 60  0  0  0  0  0  0  0  0999 V2000
  140.8430   74.6540  221.1210 O   0  0  0  0  0  0  0  0  0  0  0  0
  139.9030   75.0560  221.8880 C   0  0  0  0  0  0  0  0  0  0  0  0
  138.8620   74.2010  222.3260 N   0  0  0  0  0  0  0  0  0  0  0  0
  138.7860   72.8070  221.9370 C   0  0  0  0  0  0  0  0  0  0  0  0
  139.7430   72.0050  222.7890 C   0  0  0  0  0  0  0  0  0  0  0  0
  140.7880   72.6220  223.1010 O   0  0  0  0  0  0  0  0  0  0  0  0
  139.3970   70.7020  223.1430 N   0  0  0  0  0  0  0  0  0  0  0  0
  139.2480   69.7240  222.0080 C   0  0  0  0  0  0  0  0  0  0  0  0
  137.9530   69.0100  222.2610 C   0  0  0  0  0  0  0  0  0  0  0  0
  137.0730   69.4970  223.3360 C   0  0  0  0  0  0  0  0  0  0  0  0
  137.6230   70.2390  224.4950 C   0  0  0  0  0  0  0  0  0  0  0  0
  139.1390   70.1280  224.4230 C   0  0  2  0  0  0  0  0  0  0  0  0
  139.8670   70.4680  225.6260 C   0  0  0  0  0  0  0  0  0  0  0  0
  141.2780   70.9710  225.5670 C   0  0  0  0  0  0  0  0  0  0  0  0
  141.4290   71.9490  226.7580 C   0  0  0  0  0  0  0  0  0  0  0  0
  140.9030   71.2810  227.9720 C   0  0  0  0  0  0  0  0  0  0  0  0
  139.7380   71.8630  228.4490 F   0  0  0  0  0  0  0  0  0  0  0  0
  141.8420   71.5010  228.9900 F   0  0  0  0  0  0  0  0  0  0  0  0
  140.7020   69.8100  227.8800 C   0  0  0  0  0  0  0  0  0  0  0  0
  139.7600   69.4230  226.7460 C   0  0  0  0  0  0  0  0  0  0  0  0
  139.9210   76.4680  222.3200 C   0  0  0  0  0  0  0  0  0  0  0  0
  138.7580   77.1500  222.5420 C   0  0  0  0  0  0  0  0  0  0  0  0
  138.7990   78.4700  222.9440 C   0  0  0  0  0  0  0  0  0  0  0  0
  139.9950   79.1260  223.1300 C   0  0  0  0  0  0  0  0  0  0  0  0
  140.0240   80.4350  223.5290 C   0  0  0  0  0  0  0  0  0  0  0  0
  141.2300   81.0500  223.7030 C   0  0  0  0  0  0  0  0  0  0  0  0
  142.4110   80.3560  223.4760 C   0  0  0  0  0  0  0  0  0  0  0  0
  142.3810   79.0280  223.0720 C   0  0  0  0  0  0  0  0  0  0  0  0
  141.1570   78.4120  222.8980 C   0  0  0  0  0  0  0  0  0  0  0  0
  141.0790   77.1350  222.5090 N   0  0  0  0  0  0  0  0  0  0  0  0
  138.1320   74.6430  222.9620 H   0  0  0  0  0  0  0  0  0  0  0  0
  137.7607   72.4377  222.0869 H   0  0  0  0  0  0  0  0  0  0  0  0
  139.0562   72.7022  220.8759 H   0  0  0  0  0  0  0  0  0  0  0  0
  139.2125   70.2550  221.0453 H   0  0  0  0  0  0  0  0  0  0  0  0
  140.0960   69.0252  221.9577 H   0  0  0  0  0  0  0  0  0  0  0  0
  137.3741   69.0495  221.3265 H   0  0  0  0  0  0  0  0  0  0  0  0
  138.2623   68.0111  222.6024 H   0  0  0  0  0  0  0  0  0  0  0  0
  136.3363   70.1612  222.8604 H   0  0  0  0  0  0  0  0  0  0  0  0
  136.7124   68.5645  223.7947 H   0  0  0  0  0  0  0  0  0  0  0  0
  137.3198   71.2952  224.4445 H   0  0  0  0  0  0  0  0  0  0  0  0
  137.2457   69.8216  225.4402 H   0  0  0  0  0  0  0  0  0  0  0  0
  139.5813   69.1212  224.4492 H   0  0  0  0  0  0  0  0  0  0  0  0
  139.2895   71.3775  225.8480 H   0  0  0  0  0  0  0  0  0  0  0  0
  141.9867   70.1355  225.6656 H   0  0  0  0  0  0  0  0  0  0  0  0
  141.4910   71.4659  224.6080 H   0  0  0  0  0  0  0  0  0  0  0  0
  142.4901   72.2010  226.9012 H   0  0  0  0  0  0  0  0  0  0  0  0
  140.8718   72.8770  226.5620 H   0  0  0  0  0  0  0  0  0  0  0  0
  141.6769   69.3301  227.7090 H   0  0  0  0  0  0  0  0  0  0  0  0
  140.2476   69.4735  228.8236 H   0  0  0  0  0  0  0  0  0  0  0  0
  140.0408   68.4339  226.3551 H   0  0  0  0  0  0  0  0  0  0  0  0
  138.7261   69.3843  227.1196 H   0  0  0  0  0  0  0  0  0  0  0  0
  137.7897   76.6476  222.4005 H   0  0  0  0  0  0  0  0  0  0  0  0
  137.8563   79.0090  223.1194 H   0  0  0  0  0  0  0  0  0  0  0  0
  139.0877   80.9841  223.7071 H   0  0  0  0  0  0  0  0  0  0  0  0
  141.2665   82.1012  224.0248 H   0  0  0  0  0  0  0  0  0  0  0  0
  143.3774   80.8620  223.6173 H   0  0  0  0  0  0  0  0  0  0  0  0
  143.3156   78.4761  222.8936 H   0  0  0  0  0  0  0  0  0  0  0  0
  1  2  2  0
  2  3  1  0
  3  4  1  0
  4  5  1  0
  5  6  2  0
  5  7  1  0
  7  8  1  0
  8  9  1  0
  9 10  1  0
 10 11  1  0
 11 12  1  0
 12 13  1  0
 13 14  1  0
 14 15  1  0
 15 16  1  0
 16 17  1  0
 16 18  1  0
 16 19  1  0
 19 20  1  0
  2 21  1  0
 21 22  2  0
 22 23  1  0
 23 24  2  0
 24 25  1  0
 25 26  2  0
 26 27  1  0
 27 28  2  0
 28 29  1  0
 29 30  2  0
 12  7  1  0
 20 13  1  0
 30 21  1  0
 29 24  1  0
  3 31  1  0
  4 32  1  0
  4 33  1  0
  8 34  1  0
  8 35  1  0
  9 36  1  0
  9 37  1  0
 10 38  1  0
 10 39  1  0
 11 40  1  0
 11 41  1  0
 12 42  1  6
 13 43  1  0
 14 44  1  0
 14 45  1  0
 15 46  1  0
 15 47  1  0
 19 48  1  0
 19 49  1  0
 20 50  1  0
 20 51  1  0
 22 52  1  0
 23 53  1  0
 25 54  1  0
 26 55  1  0
 27 56  1  0
 28 57  1  0
M  END
>  <smiles>  (13) 
O=C(NCC(=O)N1CCCCC1C1CCC(F)(F)CC1)c1ccc2ccccc2n1

>  <score_type>  (13) 
oracle

>  <origin>  (13) 
autodockgpu

>  <m_score__min__energy>  (13) 
-9.3200000000000003

>  <m_primary>  (13) 
energy

>  <rmsd>  (13) 
8.168258097681006

>  <m_score__min__rmsd>  (13) 
8.168258097681006

>  <meeko>  (13) 
{"free_energy": -9.27, "intermolecular_energy": -10.76, "internal_energy": -1.3, "cluster_size": 4, "cluster_id": 2, "rank_in_cluster": 1}

>  <energy>  (13) 
-9.08

>  <cluster_rmsd>  (13) 
0.35

>  <cluster>  (13) 
1

$$$$

     RDKit          3D

 57 60  0  0  0  0  0  0  0  0999 V2000
  141.4580   74.6950  220.9850 O   0  0  0  0  0  0  0  0  0  0  0  0
  140.5070   74.9140  221.8110 C   0  0  0  0  0  0  0  0  0  0  0  0
  139.7030   73.8720  222.3350 N   0  0  0  0  0  0  0  0  0  0  0  0
  139.8990   72.4820  221.9730 C   0  0  0  0  0  0  0  0  0  0  0  0
  138.9330   71.6270  222.7620 C   0  0  0  0  0  0  0  0  0  0  0  0
  137.9250   72.2460  223.1750 O   0  0  0  0  0  0  0  0  0  0  0  0
  139.2320   70.2800  222.9550 N   0  0  0  0  0  0  0  0  0  0  0  0
  139.4100   69.4550  221.7090 C   0  0  0  0  0  0  0  0  0  0  0  0
  138.5940   68.2150  221.9270 C   0  0  0  0  0  0  0  0  0  0  0  0
  137.7050   68.1500  223.0990 C   0  0  0  0  0  0  0  0  0  0  0  0
  137.9890   68.9420  224.3180 C   0  0  0  0  0  0  0  0  0  0  0  0
  139.3850   69.5300  224.1580 C   0  0  2  0  0  0  0  0  0  0  0  0
  140.0090   70.0400  225.3590 C   0  0  0  0  0  0  0  0  0  0  0  0
  141.1940   70.9570  225.2920 C   0  0  0  0  0  0  0  0  0  0  0  0
  141.0730   71.8960  226.5170 C   0  0  0  0  0  0  0  0  0  0  0  0
  140.8160   71.0590  227.7140 C   0  0  0  0  0  0  0  0  0  0  0  0
  139.5430   71.2380  228.2370 F   0  0  0  0  0  0  0  0  0  0  0  0
  141.6730   71.5270  228.7210 F   0  0  0  0  0  0  0  0  0  0  0  0
  141.0760   69.6020  227.5680 C   0  0  0  0  0  0  0  0  0  0  0  0
  140.2650   68.9780  226.4390 C   0  0  0  0  0  0  0  0  0  0  0  0
  140.2540   76.3100  222.2190 C   0  0  0  0  0  0  0  0  0  0  0  0
  138.9780   76.7840  222.3490 C   0  0  0  0  0  0  0  0  0  0  0  0
  138.7660   78.0930  222.7310 C   0  0  0  0  0  0  0  0  0  0  0  0
  139.8160   78.9450  222.9880 C   0  0  0  0  0  0  0  0  0  0  0  0
  139.5940   80.2420  223.3660 C   0  0  0  0  0  0  0  0  0  0  0  0
  140.6620   81.0550  223.6120 C   0  0  0  0  0  0  0  0  0  0  0  0
  141.9570   80.5720  223.4790 C   0  0  0  0  0  0  0  0  0  0  0  0
  142.1830   79.2560  223.0960 C   0  0  0  0  0  0  0  0  0  0  0  0
  141.0970   78.4390  222.8490 C   0  0  0  0  0  0  0  0  0  0  0  0
  141.2650   77.1660  222.4760 N   0  0  0  0  0  0  0  0  0  0  0  0
  138.9400   74.1680  223.0150 H   0  0  0  0  0  0  0  0  0  0  0  0
  139.7129   72.3514  220.8968 H   0  0  0  0  0  0  0  0  0  0  0  0
  140.9324   72.1810  222.1998 H   0  0  0  0  0  0  0  0  0  0  0  0
  139.0454   70.0049  220.8289 H   0  0  0  0  0  0  0  0  0  0  0  0
  140.4684   69.2189  221.5246 H   0  0  0  0  0  0  0  0  0  0  0  0
  137.9642   68.0811  221.0352 H   0  0  0  0  0  0  0  0  0  0  0  0
  139.3433   67.4323  222.1167 H   0  0  0  0  0  0  0  0  0  0  0  0
  136.7074   68.4573  222.7520 H   0  0  0  0  0  0  0  0  0  0  0  0
  137.8393   67.1151  223.4468 H   0  0  0  0  0  0  0  0  0  0  0  0
  137.2497   69.7496  224.4234 H   0  0  0  0  0  0  0  0  0  0  0  0
  137.9322   68.3099  225.2164 H   0  0  0  0  0  0  0  0  0  0  0  0
  140.2248   68.8316  224.0280 H   0  0  0  0  0  0  0  0  0  0  0  0
  139.1858   70.7180  225.6285 H   0  0  0  0  0  0  0  0  0  0  0  0
  142.1285   70.3791  225.3436 H   0  0  0  0  0  0  0  0  0  0  0  0
  141.2139   71.5233  224.3492 H   0  0  0  0  0  0  0  0  0  0  0  0
  142.0087   72.4590  226.6494 H   0  0  0  0  0  0  0  0  0  0  0  0
  140.2516   72.6125  226.3689 H   0  0  0  0  0  0  0  0  0  0  0  0
  142.1456   69.4532  227.3588 H   0  0  0  0  0  0  0  0  0  0  0  0
  140.7771   69.1121  228.5064 H   0  0  0  0  0  0  0  0  0  0  0  0
  140.8253   68.1374  226.0038 H   0  0  0  0  0  0  0  0  0  0  0  0
  139.3058   68.6090  226.8312 H   0  0  0  0  0  0  0  0  0  0  0  0
  138.1218   76.1229  222.1494 H   0  0  0  0  0  0  0  0  0  0  0  0
  137.7353   78.4636  222.8323 H   0  0  0  0  0  0  0  0  0  0  0  0
  138.5677   80.6239  223.4701 H   0  0  0  0  0  0  0  0  0  0  0  0
  140.4961   82.0987  223.9173 H   0  0  0  0  0  0  0  0  0  0  0  0
  142.8105   81.2366  223.6785 H   0  0  0  0  0  0  0  0  0  0  0  0
  143.2083   78.8715  222.9913 H   0  0  0  0  0  0  0  0  0  0  0  0
  1  2  2  0
  2  3  1  0
  3  4  1  0
  4  5  1  0
  5  6  2  0
  5  7  1  0
  7  8  1  0
  8  9  1  0
  9 10  1  0
 10 11  1  0
 11 12  1  0
 12 13  1  0
 13 14  1  0
 14 15  1  0
 15 16  1  0
 16 17  1  0
 16 18  1  0
 16 19  1  0
 19 20  1  0
  2 21  1  0
 21 22  2  0
 22 23  1  0
 23 24  2  0
 24 25  1  0
 25 26  2  0
 26 27  1  0
 27 28  2  0
 28 29  1  0
 29 30  2  0
 12  7  1  0
 20 13  1  0
 30 21  1  0
 29 24  1  0
  3 31  1  0
  4 32  1  0
  4 33  1  0
  8 34  1  0
  8 35  1  0
  9 36  1  0
  9 37  1  0
 10 38  1  0
 10 39  1  0
 11 40  1  0
 11 41  1  0
 12 42  1  6
 13 43  1  0
 14 44  1  0
 14 45  1  0
 15 46  1  0
 15 47  1  0
 19 48  1  0
 19 49  1  0
 20 50  1  0
 20 51  1  0
 22 52  1  0
 23 53  1  0
 25 54  1  0
 26 55  1  0
 27 56  1  0
 28 57  1  0
M  END
>  <smiles>  (14) 
O=C(NCC(=O)N1CCCCC1C1CCC(F)(F)CC1)c1ccc2ccccc2n1

>  <score_type>  (14) 
oracle

>  <origin>  (14) 
autodockgpu

>  <m_score__min__energy>  (14) 
-9.3200000000000003

>  <m_primary>  (14) 
energy

>  <rmsd>  (14) 
8.301825507825463

>  <m_score__min__rmsd>  (14) 
8.301825507825463

>  <meeko>  (14) 
{"free_energy": -8.45, "intermolecular_energy": -9.94, "internal_energy": -1.94, "cluster_size": 4, "cluster_id": 2, "rank_in_cluster": 3}

>  <energy>  (14) 
-9.08

>  <cluster_rmsd>  (14) 
0.51

>  <cluster>  (14) 
1

$$$$

     RDKit          3D

 57 60  0  0  0  0  0  0  0  0999 V2000
  141.3400   71.5030  221.4380 O   0  0  0  0  0  0  0  0  0  0  0  0
  140.6960   72.1170  222.3560 C   0  0  0  0  0  0  0  0  0  0  0  0
  140.2800   73.4640  222.2200 N   0  0  0  0  0  0  0  0  0  0  0  0
  140.5540   74.2460  221.0300 C   0  0  0  0  0  0  0  0  0  0  0  0
  140.9290   75.6520  221.4400 C   0  0  0  0  0  0  0  0  0  0  0  0
  140.4110   76.0230  222.5200 O   0  0  0  0  0  0  0  0  0  0  0  0
  141.7820   76.3860  220.6190 N   0  0  0  0  0  0  0  0  0  0  0  0
  141.8030   77.8740  220.8450 C   0  0  0  0  0  0  0  0  0  0  0  0
  141.6820   78.4900  219.4820 C   0  0  0  0  0  0  0  0  0  0  0  0
  141.3860   77.6170  218.3340 C   0  0  0  0  0  0  0  0  0  0  0  0
  141.7580   76.1830  218.3490 C   0  0  0  0  0  0  0  0  0  0  0  0
  142.6460   75.9610  219.5670 C   0  0  2  0  0  0  0  0  0  0  0  0
  143.4100   74.7330  219.5900 C   0  0  0  0  0  0  0  0  0  0  0  0
  144.6150   74.5820  220.4700 C   0  0  0  0  0  0  0  0  0  0  0  0
  144.6570   73.0890  220.8790 C   0  0  0  0  0  0  0  0  0  0  0  0
  144.4940   72.2720  219.6530 C   0  0  0  0  0  0  0  0  0  0  0  0
  143.2900   71.5830  219.6160 F   0  0  0  0  0  0  0  0  0  0  0  0
  145.4680   71.2640  219.7110 F   0  0  0  0  0  0  0  0  0  0  0  0
  144.6830   72.9800  218.3580 C   0  0  0  0  0  0  0  0  0  0  0  0
  143.7360   74.1640  218.2020 C   0  0  0  0  0  0  0  0  0  0  0  0
  140.3860   71.3770  223.5950 C   0  0  0  0  0  0  0  0  0  0  0  0
  139.6890   70.2010  223.5560 C   0  0  0  0  0  0  0  0  0  0  0  0
  139.4090   69.5270  224.7270 C   0  0  0  0  0  0  0  0  0  0  0  0
  139.8180   70.0130  225.9490 C   0  0  0  0  0  0  0  0  0  0  0  0
  139.5350   69.3350  227.1050 C   0  0  0  0  0  0  0  0  0  0  0  0
  139.9580   69.8500  228.2960 C   0  0  0  0  0  0  0  0  0  0  0  0
  140.6650   71.0440  228.3340 C   0  0  0  0  0  0  0  0  0  0  0  0
  140.9520   71.7300  227.1620 C   0  0  0  0  0  0  0  0  0  0  0  0
  140.5210   71.2040  225.9590 C   0  0  0  0  0  0  0  0  0  0  0  0
  140.7730   71.8300  224.8050 N   0  0  0  0  0  0  0  0  0  0  0  0
  139.7510   73.8750  223.0460 H   0  0  0  0  0  0  0  0  0  0  0  0
  141.3857   73.7902  220.4727 H   0  0  0  0  0  0  0  0  0  0  0  0
  139.6607   74.2719  220.3887 H   0  0  0  0  0  0  0  0  0  0  0  0
  140.9580   78.1780  221.4803 H   0  0  0  0  0  0  0  0  0  0  0  0
  142.7219   78.1954  221.3572 H   0  0  0  0  0  0  0  0  0  0  0  0
  140.8774   79.2382  219.5354 H   0  0  0  0  0  0  0  0  0  0  0  0
  142.6916   78.8731  219.2721 H   0  0  0  0  0  0  0  0  0  0  0  0
  140.2969   77.6558  218.1844 H   0  0  0  0  0  0  0  0  0  0  0  0
  142.0346   78.0265  217.5456 H   0  0  0  0  0  0  0  0  0  0  0  0
  140.8545   75.5599  218.4227 H   0  0  0  0  0  0  0  0  0  0  0  0
  142.2866   75.9069  217.4247 H   0  0  0  0  0  0  0  0  0  0  0  0
  143.5819   76.5353  219.6320 H   0  0  0  0  0  0  0  0  0  0  0  0
  142.6449   74.1405  220.1130 H   0  0  0  0  0  0  0  0  0  0  0  0
  145.5276   74.8537  219.9192 H   0  0  0  0  0  0  0  0  0  0  0  0
  144.5581   75.2404  221.3494 H   0  0  0  0  0  0  0  0  0  0  0  0
  145.6219   72.8595  221.3547 H   0  0  0  0  0  0  0  0  0  0  0  0
  143.8523   72.8669  221.5953 H   0  0  0  0  0  0  0  0  0  0  0  0
  145.7189   73.3460  218.3029 H   0  0  0  0  0  0  0  0  0  0  0  0
  144.4653   72.2664  217.5497 H   0  0  0  0  0  0  0  0  0  0  0  0
  144.2157   74.9410  217.5888 H   0  0  0  0  0  0  0  0  0  0  0  0
  142.8091   73.8347  217.7095 H   0  0  0  0  0  0  0  0  0  0  0  0
  139.3518   69.7927  222.5918 H   0  0  0  0  0  0  0  0  0  0  0  0
  138.8476   68.5821  224.6836 H   0  0  0  0  0  0  0  0  0  0  0  0
  138.9748   68.3889  227.0739 H   0  0  0  0  0  0  0  0  0  0  0  0
  139.7373   69.3155  229.2318 H   0  0  0  0  0  0  0  0  0  0  0  0
  141.0003   71.4495  229.3000 H   0  0  0  0  0  0  0  0  0  0  0  0
  141.5128   72.6759  227.1903 H   0  0  0  0  0  0  0  0  0  0  0  0
  1  2  2  0
  2  3  1  0
  3  4  1  0
  4  5  1  0
  5  6  2  0
  5  7  1  0
  7  8  1  0
  8  9  1  0
  9 10  1  0
 10 11  1  0
 11 12  1  0
 12 13  1  0
 13 14  1  0
 14 15  1  0
 15 16  1  0
 16 17  1  0
 16 18  1  0
 16 19  1  0
 19 20  1  0
  2 21  1  0
 21 22  2  0
 22 23  1  0
 23 24  2  0
 24 25  1  0
 25 26  2  0
 26 27  1  0
 27 28  2  0
 28 29  1  0
 29 30  2  0
 12  7  1  0
 20 13  1  0
 30 21  1  0
 29 24  1  0
  3 31  1  0
  4 32  1  0
  4 33  1  0
  8 34  1  0
  8 35  1  0
  9 36  1  0
  9 37  1  0
 10 38  1  0
 10 39  1  0
 11 40  1  0
 11 41  1  0
 12 42  1  6
 13 43  1  0
 14 44  1  0
 14 45  1  0
 15 46  1  0
 15 47  1  0
 19 48  1  0
 19 49  1  0
 20 50  1  0
 20 51  1  0
 22 52  1  0
 23 53  1  0
 25 54  1  0
 26 55  1  0
 27 56  1  0
 28 57  1  0
M  END
>  <smiles>  (15) 
O=C(NCC(=O)N1CCCCC1C1CCC(F)(F)CC1)c1ccc2ccccc2n1

>  <score_type>  (15) 
oracle

>  <origin>  (15) 
autodockgpu

>  <m_score__min__energy>  (15) 
-9.3200000000000003

>  <m_primary>  (15) 
energy

>  <rmsd>  (15) 
2.4591562184997633

>  <m_score__min__rmsd>  (15) 
2.4591562184997633

>  <meeko>  (15) 
{"free_energy": -8.19, "intermolecular_energy": -9.69, "internal_energy": -2.15, "cluster_size": 11, "cluster_id": 3, "rank_in_cluster": 8}

>  <energy>  (15) 
-9.05

>  <cluster_rmsd>  (15) 
0.49

>  <cluster>  (15) 
1

$$$$

     RDKit          3D

 57 60  0  0  0  0  0  0  0  0999 V2000
  139.9160   71.3700  221.2430 O   0  0  0  0  0  0  0  0  0  0  0  0
  139.8170   72.0340  222.3300 C   0  0  0  0  0  0  0  0  0  0  0  0
  139.6180   73.4360  222.3480 N   0  0  0  0  0  0  0  0  0  0  0  0
  139.5130   74.2220  221.1350 C   0  0  0  0  0  0  0  0  0  0  0  0
  139.9490   75.6400  221.4270 C   0  0  0  0  0  0  0  0  0  0  0  0
  139.8670   75.9600  222.6360 O   0  0  0  0  0  0  0  0  0  0  0  0
  140.3870   76.4390  220.3720 N   0  0  0  0  0  0  0  0  0  0  0  0
  139.9190   76.0390  218.9980 C   0  0  0  0  0  0  0  0  0  0  0  0
  141.1450   76.0630  218.1340 C   0  0  0  0  0  0  0  0  0  0  0  0
  142.4590   76.2460  218.7720 C   0  0  0  0  0  0  0  0  0  0  0  0
  142.5860   76.9520  220.0680 C   0  0  0  0  0  0  0  0  0  0  0  0
  141.2350   77.5850  220.3710 C   0  0  2  0  0  0  0  0  0  0  0  0
  141.2180   78.6080  221.3940 C   0  0  0  0  0  0  0  0  0  0  0  0
  141.4450   78.2710  222.8370 C   0  0  0  0  0  0  0  0  0  0  0  0
  142.1590   79.5000  223.4520 C   0  0  0  0  0  0  0  0  0  0  0  0
  141.4060   80.7150  223.0570 C   0  0  0  0  0  0  0  0  0  0  0  0
  142.1110   81.5270  222.1800 F   0  0  0  0  0  0  0  0  0  0  0  0
  141.2660   81.4940  224.2140 F   0  0  0  0  0  0  0  0  0  0  0  0
  140.0380   80.4950  222.5150 C   0  0  0  0  0  0  0  0  0  0  0  0
  140.0380   79.5850  221.2930 C   0  0  0  0  0  0  0  0  0  0  0  0
  139.9170   71.2920  223.6040 C   0  0  0  0  0  0  0  0  0  0  0  0
  139.5290   69.9840  223.6870 C   0  0  0  0  0  0  0  0  0  0  0  0
  139.6300   69.3110  224.8880 C   0  0  0  0  0  0  0  0  0  0  0  0
  140.1170   69.9300  226.0170 C   0  0  0  0  0  0  0  0  0  0  0  0
  140.2130   69.2520  227.2030 C   0  0  0  0  0  0  0  0  0  0  0  0
  140.7010   69.9010  228.3010 C   0  0  0  0  0  0  0  0  0  0  0  0
  141.0940   71.2300  228.2140 C   0  0  0  0  0  0  0  0  0  0  0  0
  140.9960   71.9160  227.0110 C   0  0  0  0  0  0  0  0  0  0  0  0
  140.5020   71.2540  225.9050 C   0  0  0  0  0  0  0  0  0  0  0  0
  140.3890   71.8740  224.7250 N   0  0  0  0  0  0  0  0  0  0  0  0
  139.5510   73.8860  223.3110 H   0  0  0  0  0  0  0  0  0  0  0  0
  140.1609   73.7896  220.3583 H   0  0  0  0  0  0  0  0  0  0  0  0
  138.4719   74.2194  220.7798 H   0  0  0  0  0  0  0  0  0  0  0  0
  139.4834   75.0292  219.0192 H   0  0  0  0  0  0  0  0  0  0  0  0
  139.1396   76.7165  218.6192 H   0  0  0  0  0  0  0  0  0  0  0  0
  141.1785   75.1054  217.5938 H   0  0  0  0  0  0  0  0  0  0  0  0
  141.0196   76.9667  217.5196 H   0  0  0  0  0  0  0  0  0  0  0  0
  142.8768   75.2395  218.9219 H   0  0  0  0  0  0  0  0  0  0  0  0
  142.9738   76.9242  218.0756 H   0  0  0  0  0  0  0  0  0  0  0  0
  142.8541   76.2384  220.8611 H   0  0  0  0  0  0  0  0  0  0  0  0
  143.3737   77.7182  220.0193 H   0  0  0  0  0  0  0  0  0  0  0  0
  140.8363   78.3127  219.6488 H   0  0  0  0  0  0  0  0  0  0  0  0
  142.1695   79.0724  221.0958 H   0  0  0  0  0  0  0  0  0  0  0  0
  140.4852   78.0926  223.3439 H   0  0  0  0  0  0  0  0  0  0  0  0
  142.0462   77.3566  222.9487 H   0  0  0  0  0  0  0  0  0  0  0  0
  142.1758   79.4116  224.5483 H   0  0  0  0  0  0  0  0  0  0  0  0
  143.1959   79.5594  223.0897 H   0  0  0  0  0  0  0  0  0  0  0  0
  139.4173   80.0352  223.2981 H   0  0  0  0  0  0  0  0  0  0  0  0
  139.6380   81.4720  222.2062 H   0  0  0  0  0  0  0  0  0  0  0  0
  139.0947   79.0205  221.2542 H   0  0  0  0  0  0  0  0  0  0  0  0
  140.1356   80.1907  220.3800 H   0  0  0  0  0  0  0  0  0  0  0  0
  139.1368   69.4684  222.7980 H   0  0  0  0  0  0  0  0  0  0  0  0
  139.3149   68.2586  224.9440 H   0  0  0  0  0  0  0  0  0  0  0  0
  139.9013   68.1992  227.2703 H   0  0  0  0  0  0  0  0  0  0  0  0
  140.7832   69.3680  229.2597 H   0  0  0  0  0  0  0  0  0  0  0  0
  141.4858   71.7430  229.1047 H   0  0  0  0  0  0  0  0  0  0  0  0
  141.3066   72.9689  226.9404 H   0  0  0  0  0  0  0  0  0  0  0  0
  1  2  2  0
  2  3  1  0
  3  4  1  0
  4  5  1  0
  5  6  2  0
  5  7  1  0
  7  8  1  0
  8  9  1  0
  9 10  1  0
 10 11  1  0
 11 12  1  0
 12 13  1  0
 13 14  1  0
 14 15  1  0
 15 16  1  0
 16 17  1  0
 16 18  1  0
 16 19  1  0
 19 20  1  0
  2 21  1  0
 21 22  2  0
 22 23  1  0
 23 24  2  0
 24 25  1  0
 25 26  2  0
 26 27  1  0
 27 28  2  0
 28 29  1  0
 29 30  2  0
 12  7  1  0
 20 13  1  0
 30 21  1  0
 29 24  1  0
  3 31  1  0
  4 32  1  0
  4 33  1  0
  8 34  1  0
  8 35  1  0
  9 36  1  0
  9 37  1  0
 10 38  1  0
 10 39  1  0
 11 40  1  0
 11 41  1  0
 12 42  1  6
 13 43  1  0
 14 44  1  0
 14 45  1  0
 15 46  1  0
 15 47  1  0
 19 48  1  0
 19 49  1  0
 20 50  1  0
 20 51  1  0
 22 52  1  0
 23 53  1  0
 25 54  1  0
 26 55  1  0
 27 56  1  0
 28 57  1  0
M  END
>  <smiles>  (16) 
O=C(NCC(=O)N1CCCCC1C1CCC(F)(F)CC1)c1ccc2ccccc2n1

>  <score_type>  (16) 
oracle

>  <origin>  (16) 
autodockgpu

>  <m_score__min__energy>  (16) 
-9.3200000000000003

>  <m_primary>  (16) 
energy

>  <rmsd>  (16) 
1.530930417860453

>  <m_score__min__rmsd>  (16) 
1.530930417860453

>  <meeko>  (16) 
{"free_energy": -8.69, "intermolecular_energy": -10.18, "internal_energy": -2.07, "cluster_size": 34, "cluster_id": 1, "rank_in_cluster": 25}

>  <energy>  (16) 
-9.02

>  <cluster_rmsd>  (16) 
0.48

>  <cluster>  (16) 
1

$$$$

     RDKit          3D

 57 60  0  0  0  0  0  0  0  0999 V2000
  139.9190   71.3330  221.2530 O   0  0  0  0  0  0  0  0  0  0  0  0
  139.8340   71.9960  222.3430 C   0  0  0  0  0  0  0  0  0  0  0  0
  139.6590   73.4010  222.3650 N   0  0  0  0  0  0  0  0  0  0  0  0
  139.5640   74.1920  221.1530 C   0  0  0  0  0  0  0  0  0  0  0  0
  140.0450   75.5950  221.4420 C   0  0  0  0  0  0  0  0  0  0  0  0
  140.0470   75.8930  222.6600 O   0  0  0  0  0  0  0  0  0  0  0  0
  140.4310   76.4060  220.3760 N   0  0  0  0  0  0  0  0  0  0  0  0
  139.9390   75.9910  219.0150 C   0  0  0  0  0  0  0  0  0  0  0  0
  141.1400   76.0500  218.1180 C   0  0  0  0  0  0  0  0  0  0  0  0
  142.4640   76.2740  218.7210 C   0  0  0  0  0  0  0  0  0  0  0  0
  142.6040   76.9850  220.0130 C   0  0  0  0  0  0  0  0  0  0  0  0
  141.2430   77.5770  220.3520 C   0  0  2  0  0  0  0  0  0  0  0  0
  141.2230   78.6010  221.3740 C   0  0  0  0  0  0  0  0  0  0  0  0
  141.5150   78.2750  222.8080 C   0  0  0  0  0  0  0  0  0  0  0  0
  142.2010   79.5320  223.3980 C   0  0  0  0  0  0  0  0  0  0  0  0
  141.3870   80.7150  223.0290 C   0  0  0  0  0  0  0  0  0  0  0  0
  142.0280   81.5540  222.1280 F   0  0  0  0  0  0  0  0  0  0  0  0
  141.2580   81.4900  224.1910 F   0  0  0  0  0  0  0  0  0  0  0  0
  140.0110   80.4410  222.5370 C   0  0  0  0  0  0  0  0  0  0  0  0
  140.0020   79.5300  221.3160 C   0  0  0  0  0  0  0  0  0  0  0  0
  139.9250   71.2490  223.6140 C   0  0  0  0  0  0  0  0  0  0  0  0
  139.5590   69.9340  223.6840 C   0  0  0  0  0  0  0  0  0  0  0  0
  139.6520   69.2570  224.8830 C   0  0  0  0  0  0  0  0  0  0  0  0
  140.1080   69.8780  226.0230 C   0  0  0  0  0  0  0  0  0  0  0  0
  140.1950   69.1960  227.2080 C   0  0  0  0  0  0  0  0  0  0  0  0
  140.6530   69.8470  228.3170 C   0  0  0  0  0  0  0  0  0  0  0  0
  141.0230   71.1830  228.2440 C   0  0  0  0  0  0  0  0  0  0  0  0
  140.9350   71.8740  227.0420 C   0  0  0  0  0  0  0  0  0  0  0  0
  140.4710   71.2090  225.9240 C   0  0  0  0  0  0  0  0  0  0  0  0
  140.3670   71.8330  224.7460 N   0  0  0  0  0  0  0  0  0  0  0  0
  139.6010   73.8490  223.3280 H   0  0  0  0  0  0  0  0  0  0  0  0
  140.1902   73.7417  220.3687 H   0  0  0  0  0  0  0  0  0  0  0  0
  138.5196   74.2208  220.8090 H   0  0  0  0  0  0  0  0  0  0  0  0
  139.5340   74.9688  219.0481 H   0  0  0  0  0  0  0  0  0  0  0  0
  139.1304   76.6452  218.6570 H   0  0  0  0  0  0  0  0  0  0  0  0
  141.1881   75.0926  217.5784 H   0  0  0  0  0  0  0  0  0  0  0  0
  140.9710   76.9477  217.5052 H   0  0  0  0  0  0  0  0  0  0  0  0
  142.9163   75.2810  218.8600 H   0  0  0  0  0  0  0  0  0  0  0  0
  142.9388   76.9672  218.0110 H   0  0  0  0  0  0  0  0  0  0  0  0
  142.9148   76.2807  220.7988 H   0  0  0  0  0  0  0  0  0  0  0  0
  143.3664   77.7748  219.9430 H   0  0  0  0  0  0  0  0  0  0  0  0
  140.8020   78.2912  219.6410 H   0  0  0  0  0  0  0  0  0  0  0  0
  142.1433   79.1031  221.0409 H   0  0  0  0  0  0  0  0  0  0  0  0
  140.5819   78.0590  223.3489 H   0  0  0  0  0  0  0  0  0  0  0  0
  142.1560   77.3856  222.8975 H   0  0  0  0  0  0  0  0  0  0  0  0
  142.2592   79.4460  224.4931 H   0  0  0  0  0  0  0  0  0  0  0  0
  143.2218   79.6319  223.0004 H   0  0  0  0  0  0  0  0  0  0  0  0
  139.4374   79.9585  223.3421 H   0  0  0  0  0  0  0  0  0  0  0  0
  139.5625   81.4013  222.2426 H   0  0  0  0  0  0  0  0  0  0  0  0
  139.0811   78.9283  221.3120 H   0  0  0  0  0  0  0  0  0  0  0  0
  140.0414   80.1375  220.3998 H   0  0  0  0  0  0  0  0  0  0  0  0
  139.1909   69.4161  222.7861 H   0  0  0  0  0  0  0  0  0  0  0  0
  139.3553   68.1987  224.9282 H   0  0  0  0  0  0  0  0  0  0  0  0
  139.8997   68.1379  227.2650 H   0  0  0  0  0  0  0  0  0  0  0  0
  140.7293   69.3099  229.2739 H   0  0  0  0  0  0  0  0  0  0  0  0
  141.3885   71.6983  229.1445 H   0  0  0  0  0  0  0  0  0  0  0  0
  141.2297   72.9321  226.9818 H   0  0  0  0  0  0  0  0  0  0  0  0
  1  2  2  0
  2  3  1  0
  3  4  1  0
  4  5  1  0
  5  6  2  0
  5  7  1  0
  7  8  1  0
  8  9  1  0
  9 10  1  0
 10 11  1  0
 11 12  1  0
 12 13  1  0
 13 14  1  0
 14 15  1  0
 15 16  1  0
 16 17  1  0
 16 18  1  0
 16 19  1  0
 19 20  1  0
  2 21  1  0
 21 22  2  0
 22 23  1  0
 23 24  2  0
 24 25  1  0
 25 26  2  0
 26 27  1  0
 27 28  2  0
 28 29  1  0
 29 30  2  0
 12  7  1  0
 20 13  1  0
 30 21  1  0
 29 24  1  0
  3 31  1  0
  4 32  1  0
  4 33  1  0
  8 34  1  0
  8 35  1  0
  9 36  1  0
  9 37  1  0
 10 38  1  0
 10 39  1  0
 11 40  1  0
 11 41  1  0
 12 42  1  6
 13 43  1  0
 14 44  1  0
 14 45  1  0
 15 46  1  0
 15 47  1  0
 19 48  1  0
 19 49  1  0
 20 50  1  0
 20 51  1  0
 22 52  1  0
 23 53  1  0
 25 54  1  0
 26 55  1  0
 27 56  1  0
 28 57  1  0
M  END
>  <smiles>  (17) 
O=C(NCC(=O)N1CCCCC1C1CCC(F)(F)CC1)c1ccc2ccccc2n1

>  <score_type>  (17) 
oracle

>  <origin>  (17) 
autodockgpu

>  <m_score__min__energy>  (17) 
-9.3200000000000003

>  <m_primary>  (17) 
energy

>  <rmsd>  (17) 
1.513831357415146

>  <m_score__min__rmsd>  (17) 
1.513831357415146

>  <meeko>  (17) 
{"free_energy": -8.61, "intermolecular_energy": -10.1, "internal_energy": -2.08, "cluster_size": 34, "cluster_id": 1, "rank_in_cluster": 28}

>  <energy>  (17) 
-9.01

>  <cluster_rmsd>  (17) 
0.43

>  <cluster>  (17) 
1

$$$$

     RDKit          3D

 57 60  0  0  0  0  0  0  0  0999 V2000
  138.3170   70.9820  221.7460 O   0  0  0  0  0  0  0  0  0  0  0  0
  139.0080   71.5810  222.6390 C   0  0  0  0  0  0  0  0  0  0  0  0
  139.4210   72.9290  222.5020 N   0  0  0  0  0  0  0  0  0  0  0  0
  139.0890   73.7290  221.3390 C   0  0  0  0  0  0  0  0  0  0  0  0
  140.3410   73.9510  220.5210 C   0  0  0  0  0  0  0  0  0  0  0  0
  140.4590   73.1710  219.5480 O   0  0  0  0  0  0  0  0  0  0  0  0
  141.2210   74.9620  220.9020 N   0  0  0  0  0  0  0  0  0  0  0  0
  140.7030   75.9460  221.9160 C   0  0  0  0  0  0  0  0  0  0  0  0
  141.0470   77.3020  221.3730 C   0  0  0  0  0  0  0  0  0  0  0  0
  141.5790   77.4030  220.0040 C   0  0  0  0  0  0  0  0  0  0  0  0
  142.3010   76.2700  219.3800 C   0  0  0  0  0  0  0  0  0  0  0  0
  142.5530   75.2390  220.4720 C   0  0  2  0  0  0  0  0  0  0  0  0
  143.5400   74.2230  220.1830 C   0  0  0  0  0  0  0  0  0  0  0  0
  144.9860   74.4210  220.5280 C   0  0  0  0  0  0  0  0  0  0  0  0
  145.5360   73.0140  220.8700 C   0  0  0  0  0  0  0  0  0  0  0  0
  145.1250   72.0850  219.7900 C   0  0  0  0  0  0  0  0  0  0  0  0
  144.2000   71.1410  220.2110 F   0  0  0  0  0  0  0  0  0  0  0  0
  146.2600   71.3320  219.4550 F   0  0  0  0  0  0  0  0  0  0  0  0
  144.6360   72.7110  218.5320 C   0  0  0  0  0  0  0  0  0  0  0  0
  143.4450   73.6330  218.7680 C   0  0  0  0  0  0  0  0  0  0  0  0
  139.3810   70.8210  223.8490 C   0  0  0  0  0  0  0  0  0  0  0  0
  139.2220   69.4640  223.9030 C   0  0  0  0  0  0  0  0  0  0  0  0
  139.5760   68.7750  225.0450 C   0  0  0  0  0  0  0  0  0  0  0  0
  140.0910   69.4250  226.1440 C   0  0  0  0  0  0  0  0  0  0  0  0
  140.4390   68.7300  227.2720 C   0  0  0  0  0  0  0  0  0  0  0  0
  140.9460   69.4110  228.3410 C   0  0  0  0  0  0  0  0  0  0  0  0
  141.1070   70.7890  228.2840 C   0  0  0  0  0  0  0  0  0  0  0  0
  140.7540   71.4930  227.1400 C   0  0  0  0  0  0  0  0  0  0  0  0
  140.2410   70.7970  226.0620 C   0  0  0  0  0  0  0  0  0  0  0  0
  139.8870   71.4320  224.9390 N   0  0  0  0  0  0  0  0  0  0  0  0
  139.9930   73.3270  223.3060 H   0  0  0  0  0  0  0  0  0  0  0  0
  138.3394   73.2019  220.7305 H   0  0  0  0  0  0  0  0  0  0  0  0
  138.6775   74.6976  221.6592 H   0  0  0  0  0  0  0  0  0  0  0  0
  139.6138   75.8428  222.0299 H   0  0  0  0  0  0  0  0  0  0  0  0
  141.1469   75.7799  222.9087 H   0  0  0  0  0  0  0  0  0  0  0  0
  140.1291   77.9071  221.4087 H   0  0  0  0  0  0  0  0  0  0  0  0
  141.8795   77.6397  222.0078 H   0  0  0  0  0  0  0  0  0  0  0  0
  140.7220   77.6252  219.3512 H   0  0  0  0  0  0  0  0  0  0  0  0
  142.3663   78.1643  220.1063 H   0  0  0  0  0  0  0  0  0  0  0  0
  141.6893   75.8287  218.5793 H   0  0  0  0  0  0  0  0  0  0  0  0
  143.2492   76.6084  218.9368 H   0  0  0  0  0  0  0  0  0  0  0  0
  143.1438   75.5511  221.3458 H   0  0  0  0  0  0  0  0  0  0  0  0
  143.1958   73.5167  220.9529 H   0  0  0  0  0  0  0  0  0  0  0  0
  145.5292   74.8466  219.6713 H   0  0  0  0  0  0  0  0  0  0  0  0
  145.1091   75.1188  221.3694 H   0  0  0  0  0  0  0  0  0  0  0  0
  146.6335   73.0482  220.9351 H   0  0  0  0  0  0  0  0  0  0  0  0
  145.1386   72.6738  221.8377 H   0  0  0  0  0  0  0  0  0  0  0  0
  145.4540   73.2969  218.0875 H   0  0  0  0  0  0  0  0  0  0  0  0
  144.3081   71.9038  217.8604 H   0  0  0  0  0  0  0  0  0  0  0  0
  143.4566   74.4467  218.0279 H   0  0  0  0  0  0  0  0  0  0  0  0
  142.5093   73.0639  218.6654 H   0  0  0  0  0  0  0  0  0  0  0  0
  138.8126   68.9224  223.0375 H   0  0  0  0  0  0  0  0  0  0  0  0
  139.4439   67.6835  225.0780 H   0  0  0  0  0  0  0  0  0  0  0  0
  140.3117   67.6383  227.3158 H   0  0  0  0  0  0  0  0  0  0  0  0
  141.2287   68.8648  229.2530 H   0  0  0  0  0  0  0  0  0  0  0  0
  141.5172   71.3271  229.1513 H   0  0  0  0  0  0  0  0  0  0  0  0
  140.8805   72.5847  227.0929 H   0  0  0  0  0  0  0  0  0  0  0  0
  1  2  2  0
  2  3  1  0
  3  4  1  0
  4  5  1  0
  5  6  2  0
  5  7  1  0
  7  8  1  0
  8  9  1  0
  9 10  1  0
 10 11  1  0
 11 12  1  0
 12 13  1  0
 13 14  1  0
 14 15  1  0
 15 16  1  0
 16 17  1  0
 16 18  1  0
 16 19  1  0
 19 20  1  0
  2 21  1  0
 21 22  2  0
 22 23  1  0
 23 24  2  0
 24 25  1  0
 25 26  2  0
 26 27  1  0
 27 28  2  0
 28 29  1  0
 29 30  2  0
 12  7  1  0
 20 13  1  0
 30 21  1  0
 29 24  1  0
  3 31  1  0
  4 32  1  0
  4 33  1  0
  8 34  1  0
  8 35  1  0
  9 36  1  0
  9 37  1  0
 10 38  1  0
 10 39  1  0
 11 40  1  0
 11 41  1  0
 12 42  1  1
 13 43  1  0
 14 44  1  0
 14 45  1  0
 15 46  1  0
 15 47  1  0
 19 48  1  0
 19 49  1  0
 20 50  1  0
 20 51  1  0
 22 52  1  0
 23 53  1  0
 25 54  1  0
 26 55  1  0
 27 56  1  0
 28 57  1  0
M  END
>  <smiles>  (18) 
O=C(NCC(=O)N1CCCCC1C1CCC(F)(F)CC1)c1ccc2ccccc2n1

>  <score_type>  (18) 
oracle

>  <origin>  (18) 
autodockgpu

>  <m_score__min__energy>  (18) 
-9.3200000000000003

>  <m_primary>  (18) 
energy

>  <rmsd>  (18) 
2.261963937050408

>  <m_score__min__rmsd>  (18) 
2.261963937050408

>  <meeko>  (18) 
{"free_energy": -8.1, "intermolecular_energy": -9.59, "internal_energy": -1.69, "cluster_size": 11, "cluster_id": 3, "rank_in_cluster": 9}

>  <energy>  (18) 
-8.93

>  <cluster_rmsd>  (18) 
0.47

>  <cluster>  (18) 
1

$$$$

     RDKit          3D

 57 60  0  0  0  0  0  0  0  0999 V2000
  140.2570   71.4000  221.1900 O   0  0  0  0  0  0  0  0  0  0  0  0
  140.0230   72.0730  222.2510 C   0  0  0  0  0  0  0  0  0  0  0  0
  139.7900   73.4700  222.2280 N   0  0  0  0  0  0  0  0  0  0  0  0
  139.7990   74.2390  220.9990 C   0  0  0  0  0  0  0  0  0  0  0  0
  140.4190   75.5910  221.2690 C   0  0  0  0  0  0  0  0  0  0  0  0
  140.7120   75.7860  222.4720 O   0  0  0  0  0  0  0  0  0  0  0  0
  140.6060   76.4690  220.2030 N   0  0  0  0  0  0  0  0  0  0  0  0
  139.8680   76.1380  218.9340 C   0  0  0  0  0  0  0  0  0  0  0  0
  140.8820   76.2600  217.8350 C   0  0  0  0  0  0  0  0  0  0  0  0
  142.2970   76.4530  218.1950 C   0  0  0  0  0  0  0  0  0  0  0  0
  142.6780   77.0810  219.4810 C   0  0  0  0  0  0  0  0  0  0  0  0
  141.4070   77.6440  220.1030 C   0  0  2  0  0  0  0  0  0  0  0  0
  141.5840   78.6000  221.1730 C   0  0  0  0  0  0  0  0  0  0  0  0
  140.6640   78.6230  222.3580 C   0  0  0  0  0  0  0  0  0  0  0  0
  141.5290   79.0790  223.5580 C   0  0  0  0  0  0  0  0  0  0  0  0
  142.2820   80.2890  223.1480 C   0  0  0  0  0  0  0  0  0  0  0  0
  143.6490   80.0690  223.0480 F   0  0  0  0  0  0  0  0  0  0  0  0
  142.1560   81.2140  224.1950 F   0  0  0  0  0  0  0  0  0  0  0  0
  141.8140   80.9700  221.9110 C   0  0  0  0  0  0  0  0  0  0  0  0
  141.8180   80.0430  220.7010 C   0  0  0  0  0  0  0  0  0  0  0  0
  140.0020   71.3480  223.5380 C   0  0  0  0  0  0  0  0  0  0  0  0
  139.4690   70.0920  223.6280 C   0  0  0  0  0  0  0  0  0  0  0  0
  139.4590   69.4340  224.8410 C   0  0  0  0  0  0  0  0  0  0  0  0
  139.9770   70.0160  225.9760 C   0  0  0  0  0  0  0  0  0  0  0  0
  139.9620   69.3540  227.1750 C   0  0  0  0  0  0  0  0  0  0  0  0
  140.4850   69.9650  228.2780 C   0  0  0  0  0  0  0  0  0  0  0  0
  141.0250   71.2410  228.1840 C   0  0  0  0  0  0  0  0  0  0  0  0
  141.0400   71.9120  226.9680 C   0  0  0  0  0  0  0  0  0  0  0  0
  140.5090   71.2870  225.8560 C   0  0  0  0  0  0  0  0  0  0  0  0
  140.5020   71.8950  224.6650 N   0  0  0  0  0  0  0  0  0  0  0  0
  139.6060   73.9280  223.1700 H   0  0  0  0  0  0  0  0  0  0  0  0
  140.3883   73.7087  220.2364 H   0  0  0  0  0  0  0  0  0  0  0  0
  138.7694   74.3685  220.6340 H   0  0  0  0  0  0  0  0  0  0  0  0
  139.4698   75.1135  218.9773 H   0  0  0  0  0  0  0  0  0  0  0  0
  139.0113   76.8091  218.7741 H   0  0  0  0  0  0  0  0  0  0  0  0
  140.8231   75.3388  217.2367 H   0  0  0  0  0  0  0  0  0  0  0  0
  140.6078   77.1935  217.3218 H   0  0  0  0  0  0  0  0  0  0  0  0
  142.7613   75.4558  218.1842 H   0  0  0  0  0  0  0  0  0  0  0  0
  142.6363   77.1925  217.4548 H   0  0  0  0  0  0  0  0  0  0  0  0
  143.1236   76.3297  220.1496 H   0  0  0  0  0  0  0  0  0  0  0  0
  143.4197   77.8774  219.3213 H   0  0  0  0  0  0  0  0  0  0  0  0
  140.8465   78.3996  219.5330 H   0  0  0  0  0  0  0  0  0  0  0  0
  142.4981   78.1401  221.5767 H   0  0  0  0  0  0  0  0  0  0  0  0
  139.8401   79.3319  222.1890 H   0  0  0  0  0  0  0  0  0  0  0  0
  140.2122   77.6363  222.5377 H   0  0  0  0  0  0  0  0  0  0  0  0
  140.8822   79.3150  224.4159 H   0  0  0  0  0  0  0  0  0  0  0  0
  142.2238   78.2790  223.8535 H   0  0  0  0  0  0  0  0  0  0  0  0
  140.7887   81.3337  222.0741 H   0  0  0  0  0  0  0  0  0  0  0  0
  142.5066   81.7984  221.7014 H   0  0  0  0  0  0  0  0  0  0  0  0
  141.0165   80.3384  220.0079 H   0  0  0  0  0  0  0  0  0  0  0  0
  142.7868   80.1117  220.1846 H   0  0  0  0  0  0  0  0  0  0  0  0
  139.0487   69.6067  222.7347 H   0  0  0  0  0  0  0  0  0  0  0  0
  139.0283   68.4237  224.9023 H   0  0  0  0  0  0  0  0  0  0  0  0
  139.5341   68.3433  227.2481 H   0  0  0  0  0  0  0  0  0  0  0  0
  140.4787   69.4438  229.2466 H   0  0  0  0  0  0  0  0  0  0  0  0
  141.4439   71.7238  229.0792 H   0  0  0  0  0  0  0  0  0  0  0  0
  141.4670   72.9229  226.8916 H   0  0  0  0  0  0  0  0  0  0  0  0
  1  2  2  0
  2  3  1  0
  3  4  1  0
  4  5  1  0
  5  6  2  0
  5  7  1  0
  7  8  1  0
  8  9  1  0
  9 10  1  0
 10 11  1  0
 11 12  1  0
 12 13  1  0
 13 14  1  0
 14 15  1  0
 15 16  1  0
 16 17  1  0
 16 18  1  0
 16 19  1  0
 19 20  1  0
  2 21  1  0
 21 22  2  0
 22 23  1  0
 23 24  2  0
 24 25  1  0
 25 26  2  0
 26 27  1  0
 27 28  2  0
 28 29  1  0
 29 30  2  0
 12  7  1  0
 20 13  1  0
 30 21  1  0
 29 24  1  0
  3 31  1  0
  4 32  1  0
  4 33  1  0
  8 34  1  0
  8 35  1  0
  9 36  1  0
  9 37  1  0
 10 38  1  0
 10 39  1  0
 11 40  1  0
 11 41  1  0
 12 42  1  6
 13 43  1  0
 14 44  1  0
 14 45  1  0
 15 46  1  0
 15 47  1  0
 19 48  1  0
 19 49  1  0
 20 50  1  0
 20 51  1  0
 22 52  1  0
 23 53  1  0
 25 54  1  0
 26 55  1  0
 27 56  1  0
 28 57  1  0
M  END
>  <smiles>  (19) 
O=C(NCC(=O)N1CCCCC1C1CCC(F)(F)CC1)c1ccc2ccccc2n1

>  <score_type>  (19) 
oracle

>  <origin>  (19) 
autodockgpu

>  <m_score__min__energy>  (19) 
-9.3200000000000003

>  <m_primary>  (19) 
energy

>  <rmsd>  (19) 
1.50944922054615

>  <m_score__min__rmsd>  (19) 
1.50944922054615

>  <meeko>  (19) 
{"free_energy": -9.01, "intermolecular_energy": -10.5, "internal_energy": -1.92, "cluster_size": 34, "cluster_id": 1, "rank_in_cluster": 17}

>  <energy>  (19) 
-8.89

>  <cluster_rmsd>  (19) 
0.41

>  <cluster>  (19) 
1

$$$$

     RDKit          3D

 57 60  0  0  0  0  0  0  0  0999 V2000
  140.0940   71.1010  221.2160 O   0  0  0  0  0  0  0  0  0  0  0  0
  139.7870   71.8010  222.2400 C   0  0  0  0  0  0  0  0  0  0  0  0
  139.3330   73.1390  222.1360 N   0  0  0  0  0  0  0  0  0  0  0  0
  139.1830   73.8130  220.8610 C   0  0  0  0  0  0  0  0  0  0  0  0
  140.5420   73.9440  220.2120 C   0  0  0  0  0  0  0  0  0  0  0  0
  140.7230   73.1660  219.2460 O   0  0  0  0  0  0  0  0  0  0  0  0
  141.4410   74.8800  220.7200 N   0  0  0  0  0  0  0  0  0  0  0  0
  140.8730   75.8970  221.6720 C   0  0  0  0  0  0  0  0  0  0  0  0
  141.3910   77.2240  221.2000 C   0  0  0  0  0  0  0  0  0  0  0  0
  142.1050   77.2890  219.9140 C   0  0  0  0  0  0  0  0  0  0  0  0
  142.8110   76.1050  219.3730 C   0  0  0  0  0  0  0  0  0  0  0  0
  142.8350   75.0520  220.4720 C   0  0  2  0  0  0  0  0  0  0  0  0
  143.7690   73.9620  220.2990 C   0  0  0  0  0  0  0  0  0  0  0  0
  143.4150   72.5610  220.6990 C   0  0  0  0  0  0  0  0  0  0  0  0
  144.1560   71.6350  219.7030 C   0  0  0  0  0  0  0  0  0  0  0  0
  145.5690   72.0780  219.6280 C   0  0  0  0  0  0  0  0  0  0  0  0
  145.9000   72.6270  218.3970 F   0  0  0  0  0  0  0  0  0  0  0  0
  146.3560   70.9200  219.7130 F   0  0  0  0  0  0  0  0  0  0  0  0
  146.0310   72.9950  220.7030 C   0  0  0  0  0  0  0  0  0  0  0  0
  145.1960   74.2680  220.7780 C   0  0  0  0  0  0  0  0  0  0  0  0
  139.9180   71.1750  223.5710 C   0  0  0  0  0  0  0  0  0  0  0  0
  139.5430   69.8760  223.7760 C   0  0  0  0  0  0  0  0  0  0  0  0
  139.6740   69.3110  225.0280 C   0  0  0  0  0  0  0  0  0  0  0  0
  140.1780   70.0290  226.0890 C   0  0  0  0  0  0  0  0  0  0  0  0
  140.3030   69.4590  227.3280 C   0  0  0  0  0  0  0  0  0  0  0  0
  140.8070   70.2040  228.3550 C   0  0  0  0  0  0  0  0  0  0  0  0
  141.1860   71.5220  228.1450 C   0  0  0  0  0  0  0  0  0  0  0  0
  141.0590   72.1010  226.8880 C   0  0  0  0  0  0  0  0  0  0  0  0
  140.5490   71.3410  225.8540 C   0  0  0  0  0  0  0  0  0  0  0  0
  140.4080   71.8550  224.6270 N   0  0  0  0  0  0  0  0  0  0  0  0
  139.1060   73.6280  223.0540 H   0  0  0  0  0  0  0  0  0  0  0  0
  138.5180   73.2268  220.2097 H   0  0  0  0  0  0  0  0  0  0  0  0
  138.7472   74.8109  221.0166 H   0  0  0  0  0  0  0  0  0  0  0  0
  139.7736   75.8806  221.6405 H   0  0  0  0  0  0  0  0  0  0  0  0
  141.1678   75.6911  222.7116 H   0  0  0  0  0  0  0  0  0  0  0  0
  140.5268   77.9004  221.1247 H   0  0  0  0  0  0  0  0  0  0  0  0
  142.1565   77.4909  221.9435 H   0  0  0  0  0  0  0  0  0  0  0  0
  141.3617   77.5823  219.1581 H   0  0  0  0  0  0  0  0  0  0  0  0
  142.9294   77.9845  220.1299 H   0  0  0  0  0  0  0  0  0  0  0  0
  142.2773   75.7181  218.4924 H   0  0  0  0  0  0  0  0  0  0  0  0
  143.8331   76.3685  219.0633 H   0  0  0  0  0  0  0  0  0  0  0  0
  143.3280   75.3116  221.4204 H   0  0  0  0  0  0  0  0  0  0  0  0
  143.6953   73.9326  219.2019 H   0  0  0  0  0  0  0  0  0  0  0  0
  143.7485   72.3610  221.7280 H   0  0  0  0  0  0  0  0  0  0  0  0
  142.3278   72.3957  220.6717 H   0  0  0  0  0  0  0  0  0  0  0  0
  144.1096   70.5942  220.0560 H   0  0  0  0  0  0  0  0  0  0  0  0
  143.6860   71.6888  218.7099 H   0  0  0  0  0  0  0  0  0  0  0  0
  145.9638   72.4709  221.6678 H   0  0  0  0  0  0  0  0  0  0  0  0
  147.0669   73.2858  220.4742 H   0  0  0  0  0  0  0  0  0  0  0  0
  145.1665   74.6285  221.8168 H   0  0  0  0  0  0  0  0  0  0  0  0
  145.6435   75.0429  220.1383 H   0  0  0  0  0  0  0  0  0  0  0  0
  139.1373   69.2821  222.9437 H   0  0  0  0  0  0  0  0  0  0  0  0
  139.3694   68.2652  225.1815 H   0  0  0  0  0  0  0  0  0  0  0  0
  140.0011   68.4143  227.4935 H   0  0  0  0  0  0  0  0  0  0  0  0
  140.9132   69.7569  229.3544 H   0  0  0  0  0  0  0  0  0  0  0  0
  141.5901   72.1133  228.9799 H   0  0  0  0  0  0  0  0  0  0  0  0
  141.3593   73.1458  226.7198 H   0  0  0  0  0  0  0  0  0  0  0  0
  1  2  2  0
  2  3  1  0
  3  4  1  0
  4  5  1  0
  5  6  2  0
  5  7  1  0
  7  8  1  0
  8  9  1  0
  9 10  1  0
 10 11  1  0
 11 12  1  0
 12 13  1  0
 13 14  1  0
 14 15  1  0
 15 16  1  0
 16 17  1  0
 16 18  1  0
 16 19  1  0
 19 20  1  0
  2 21  1  0
 21 22  2  0
 22 23  1  0
 23 24  2  0
 24 25  1  0
 25 26  2  0
 26 27  1  0
 27 28  2  0
 28 29  1  0
 29 30  2  0
 12  7  1  0
 20 13  1  0
 30 21  1  0
 29 24  1  0
  3 31  1  0
  4 32  1  0
  4 33  1  0
  8 34  1  0
  8 35  1  0
  9 36  1  0
  9 37  1  0
 10 38  1  0
 10 39  1  0
 11 40  1  0
 11 41  1  0
 12 42  1  1
 13 43  1  0
 14 44  1  0
 14 45  1  0
 15 46  1  0
 15 47  1  0
 19 48  1  0
 19 49  1  0
 20 50  1  0
 20 51  1  0
 22 52  1  0
 23 53  1  0
 25 54  1  0
 26 55  1  0
 27 56  1  0
 28 57  1  0
M  END
>  <smiles>  (20) 
O=C(NCC(=O)N1CCCCC1C1CCC(F)(F)CC1)c1ccc2ccccc2n1

>  <score_type>  (20) 
oracle

>  <origin>  (20) 
autodockgpu

>  <m_score__min__energy>  (20) 
-9.3200000000000003

>  <m_primary>  (20) 
energy

>  <rmsd>  (20) 
2.3544092930594216

>  <m_score__min__rmsd>  (20) 
2.3544092930594216

>  <meeko>  (20) 
{"free_energy": -8.79, "intermolecular_energy": -10.28, "internal_energy": -1.83, "cluster_size": 11, "cluster_id": 3, "rank_in_cluster": 1}

>  <energy>  (20) 
-8.82

>  <cluster_rmsd>  (20) 
0.51

>  <cluster>  (20) 
1

$$$$

     RDKit          3D

 57 60  0  0  0  0  0  0  0  0999 V2000
  140.9570   71.6160  221.3920 O   0  0  0  0  0  0  0  0  0  0  0  0
  140.4170   72.2230  222.3780 C   0  0  0  0  0  0  0  0  0  0  0  0
  140.0130   73.5790  222.3060 N   0  0  0  0  0  0  0  0  0  0  0  0
  140.1810   74.3770  221.1080 C   0  0  0  0  0  0  0  0  0  0  0  0
  140.1380   75.8410  221.4810 C   0  0  0  0  0  0  0  0  0  0  0  0
  140.0450   76.0500  222.7130 O   0  0  0  0  0  0  0  0  0  0  0  0
  140.2050   76.7950  220.4670 N   0  0  0  0  0  0  0  0  0  0  0  0
  139.4170   76.4950  219.2210 C   0  0  0  0  0  0  0  0  0  0  0  0
  140.3550   76.7550  218.0790 C   0  0  0  0  0  0  0  0  0  0  0  0
  141.7730   77.0210  218.3740 C   0  0  0  0  0  0  0  0  0  0  0  0
  142.1870   77.5930  219.6760 C   0  0  0  0  0  0  0  0  0  0  0  0
  140.9210   78.0270  220.4020 C   0  0  2  0  0  0  0  0  0  0  0  0
  141.0970   78.9240  221.5230 C   0  0  0  0  0  0  0  0  0  0  0  0
  141.8140   78.4870  222.7660 C   0  0  0  0  0  0  0  0  0  0  0  0
  142.5190   79.7510  223.3150 C   0  0  0  0  0  0  0  0  0  0  0  0
  141.5280   80.8530  223.3480 C   0  0  0  0  0  0  0  0  0  0  0  0
  141.8050   81.8580  222.4320 F   0  0  0  0  0  0  0  0  0  0  0  0
  141.6630   81.4770  224.5960 F   0  0  0  0  0  0  0  0  0  0  0  0
  140.1000   80.4600  223.2130 C   0  0  0  0  0  0  0  0  0  0  0  0
  139.8290   79.6900  221.9250 C   0  0  0  0  0  0  0  0  0  0  0  0
  140.2190   71.4660  223.6310 C   0  0  0  0  0  0  0  0  0  0  0  0
  139.5180   70.2920  223.6380 C   0  0  0  0  0  0  0  0  0  0  0  0
  139.3450   69.6020  224.8210 C   0  0  0  0  0  0  0  0  0  0  0  0
  139.8640   70.0700  226.0070 C   0  0  0  0  0  0  0  0  0  0  0  0
  139.6850   69.3770  227.1740 C   0  0  0  0  0  0  0  0  0  0  0  0
  140.2160   69.8740  228.3300 C   0  0  0  0  0  0  0  0  0  0  0  0
  140.9260   71.0670  228.3200 C   0  0  0  0  0  0  0  0  0  0  0  0
  141.1070   71.7690  227.1360 C   0  0  0  0  0  0  0  0  0  0  0  0
  140.5680   71.2600  225.9700 C   0  0  0  0  0  0  0  0  0  0  0  0
  140.7160   71.9020  224.8060 N   0  0  0  0  0  0  0  0  0  0  0  0
  139.5750   73.9830  223.1870 H   0  0  0  0  0  0  0  0  0  0  0  0
  141.1498   74.1435  220.6424 H   0  0  0  0  0  0  0  0  0  0  0  0
  139.3739   74.1515  220.3954 H   0  0  0  0  0  0  0  0  0  0  0  0
  139.0891   75.4450  219.2174 H   0  0  0  0  0  0  0  0  0  0  0  0
  138.5108   77.1148  219.1530 H   0  0  0  0  0  0  0  0  0  0  0  0
  140.3208   75.8715  217.4246 H   0  0  0  0  0  0  0  0  0  0  0  0
  139.9915   77.6980  217.6447 H   0  0  0  0  0  0  0  0  0  0  0  0
  142.2990   76.0602  218.2731 H   0  0  0  0  0  0  0  0  0  0  0  0
  142.0204   77.8261  217.6664 H   0  0  0  0  0  0  0  0  0  0  0  0
  142.7195   76.8344  220.2684 H   0  0  0  0  0  0  0  0  0  0  0  0
  142.8642   78.4473  219.5288 H   0  0  0  0  0  0  0  0  0  0  0  0
  140.2809   78.7769  219.9143 H   0  0  0  0  0  0  0  0  0  0  0  0
  141.8349   79.5719  221.0273 H   0  0  0  0  0  0  0  0  0  0  0  0
  141.0975   78.0973  223.5041 H   0  0  0  0  0  0  0  0  0  0  0  0
  142.5337   77.6821  222.5556 H   0  0  0  0  0  0  0  0  0  0  0  0
  142.8949   79.5570  224.3304 H   0  0  0  0  0  0  0  0  0  0  0  0
  143.3697   80.0224  222.6726 H   0  0  0  0  0  0  0  0  0  0  0  0
  139.8258   79.8253  224.0685 H   0  0  0  0  0  0  0  0  0  0  0  0
  139.4994   81.3812  223.1861 H   0  0  0  0  0  0  0  0  0  0  0  0
  139.0049   78.9796  222.0868 H   0  0  0  0  0  0  0  0  0  0  0  0
  139.5499   80.3915  221.1250 H   0  0  0  0  0  0  0  0  0  0  0  0
  139.0929   69.8983  222.7030 H   0  0  0  0  0  0  0  0  0  0  0  0
  138.7803   68.6580  224.8159 H   0  0  0  0  0  0  0  0  0  0  0  0
  139.1211   68.4326  227.1805 H   0  0  0  0  0  0  0  0  0  0  0  0
  140.0804   69.3261  229.2741 H   0  0  0  0  0  0  0  0  0  0  0  0
  141.3482   71.4589  229.2571 H   0  0  0  0  0  0  0  0  0  0  0  0
  141.6698   72.7141  227.1263 H   0  0  0  0  0  0  0  0  0  0  0  0
  1  2  2  0
  2  3  1  0
  3  4  1  0
  4  5  1  0
  5  6  2  0
  5  7  1  0
  7  8  1  0
  8  9  1  0
  9 10  1  0
 10 11  1  0
 11 12  1  0
 12 13  1  0
 13 14  1  0
 14 15  1  0
 15 16  1  0
 16 17  1  0
 16 18  1  0
 16 19  1  0
 19 20  1  0
  2 21  1  0
 21 22  2  0
 22 23  1  0
 23 24  2  0
 24 25  1  0
 25 26  2  0
 26 27  1  0
 27 28  2  0
 28 29  1  0
 29 30  2  0
 12  7  1  0
 20 13  1  0
 30 21  1  0
 29 24  1  0
  3 31  1  0
  4 32  1  0
  4 33  1  0
  8 34  1  0
  8 35  1  0
  9 36  1  0
  9 37  1  0
 10 38  1  0
 10 39  1  0
 11 40  1  0
 11 41  1  0
 12 42  1  6
 13 43  1  0
 14 44  1  0
 14 45  1  0
 15 46  1  0
 15 47  1  0
 19 48  1  0
 19 49  1  0
 20 50  1  0
 20 51  1  0
 22 52  1  0
 23 53  1  0
 25 54  1  0
 26 55  1  0
 27 56  1  0
 28 57  1  0
M  END
>  <smiles>  (21) 
O=C(NCC(=O)N1CCCCC1C1CCC(F)(F)CC1)c1ccc2ccccc2n1

>  <score_type>  (21) 
oracle

>  <origin>  (21) 
autodockgpu

>  <m_score__min__energy>  (21) 
-9.3200000000000003

>  <m_primary>  (21) 
energy

>  <rmsd>  (21) 
1.7008506820488936

>  <m_score__min__rmsd>  (21) 
1.7008506820488936

>  <meeko>  (21) 
{"free_energy": -8.64, "intermolecular_energy": -10.13, "internal_energy": -1.99, "cluster_size": 34, "cluster_id": 1, "rank_in_cluster": 26}

>  <energy>  (21) 
-8.71

>  <cluster_rmsd>  (21) 
0.85

>  <cluster>  (21) 
1

$$$$

     RDKit          3D

 57 60  0  0  0  0  0  0  0  0999 V2000
  140.0900   71.3780  221.2420 O   0  0  0  0  0  0  0  0  0  0  0  0
  139.9360   72.0300  222.3310 C   0  0  0  0  0  0  0  0  0  0  0  0
  139.7080   73.4280  222.3520 N   0  0  0  0  0  0  0  0  0  0  0  0
  139.6330   74.2220  221.1420 C   0  0  0  0  0  0  0  0  0  0  0  0
  140.2220   75.5880  221.4120 C   0  0  0  0  0  0  0  0  0  0  0  0
  140.2880   75.8830  222.6280 O   0  0  0  0  0  0  0  0  0  0  0  0
  140.6250   76.3710  220.3320 N   0  0  0  0  0  0  0  0  0  0  0  0
  140.0320   76.0140  218.9950 C   0  0  0  0  0  0  0  0  0  0  0  0
  141.1880   75.9750  218.0400 C   0  0  0  0  0  0  0  0  0  0  0  0
  142.5560   76.0750  218.5770 C   0  0  0  0  0  0  0  0  0  0  0  0
  142.8210   76.7580  219.8640 C   0  0  0  0  0  0  0  0  0  0  0  0
  141.5370   77.4660  220.2730 C   0  0  2  0  0  0  0  0  0  0  0  0
  141.6580   78.4770  221.3000 C   0  0  0  0  0  0  0  0  0  0  0  0
  140.7160   78.5200  222.4660 C   0  0  0  0  0  0  0  0  0  0  0  0
  141.5420   79.0650  223.6580 C   0  0  0  0  0  0  0  0  0  0  0  0
  142.2580   80.2810  223.2040 C   0  0  0  0  0  0  0  0  0  0  0  0
  143.6330   80.1070  223.1380 F   0  0  0  0  0  0  0  0  0  0  0  0
  142.0790   81.2480  224.2040 F   0  0  0  0  0  0  0  0  0  0  0  0
  141.7880   80.8850  221.9290 C   0  0  0  0  0  0  0  0  0  0  0  0
  141.8490   79.9040  220.7640 C   0  0  0  0  0  0  0  0  0  0  0  0
  140.0020   71.2790  223.6010 C   0  0  0  0  0  0  0  0  0  0  0  0
  139.5890   69.9780  223.6700 C   0  0  0  0  0  0  0  0  0  0  0  0
  139.6590   69.2970  224.8690 C   0  0  0  0  0  0  0  0  0  0  0  0
  140.1390   69.9000  226.0090 C   0  0  0  0  0  0  0  0  0  0  0  0
  140.2040   69.2140  227.1930 C   0  0  0  0  0  0  0  0  0  0  0  0
  140.6860   69.8470  228.3020 C   0  0  0  0  0  0  0  0  0  0  0  0
  141.1050   71.1690  228.2290 C   0  0  0  0  0  0  0  0  0  0  0  0
  141.0390   71.8640  227.0290 C   0  0  0  0  0  0  0  0  0  0  0  0
  140.5500   71.2170  225.9100 C   0  0  0  0  0  0  0  0  0  0  0  0
  140.4670   71.8460  224.7330 N   0  0  0  0  0  0  0  0  0  0  0  0
  139.5940   73.8680  223.3150 H   0  0  0  0  0  0  0  0  0  0  0  0
  140.2012   73.7273  220.3405 H   0  0  0  0  0  0  0  0  0  0  0  0
  138.5833   74.3251  220.8298 H   0  0  0  0  0  0  0  0  0  0  0  0
  139.5399   75.0314  219.0430 H   0  0  0  0  0  0  0  0  0  0  0  0
  139.2681   76.7405  218.6808 H   0  0  0  0  0  0  0  0  0  0  0  0
  141.1240   75.0224  217.4937 H   0  0  0  0  0  0  0  0  0  0  0  0
  141.0696   76.8904  217.4417 H   0  0  0  0  0  0  0  0  0  0  0  0
  142.9248   75.0446  218.6878 H   0  0  0  0  0  0  0  0  0  0  0  0
  143.0554   76.7298  217.8477 H   0  0  0  0  0  0  0  0  0  0  0  0
  143.1050   76.0212  220.6298 H   0  0  0  0  0  0  0  0  0  0  0  0
  143.6466   77.4774  219.7605 H   0  0  0  0  0  0  0  0  0  0  0  0
  141.1287   78.2235  219.5878 H   0  0  0  0  0  0  0  0  0  0  0  0
  142.5801   78.0713  221.7418 H   0  0  0  0  0  0  0  0  0  0  0  0
  139.8694   79.1881  222.2497 H   0  0  0  0  0  0  0  0  0  0  0  0
  140.2978   77.5264  222.6847 H   0  0  0  0  0  0  0  0  0  0  0  0
  140.8710   79.3170  224.4924 H   0  0  0  0  0  0  0  0  0  0  0  0
  142.2599   78.3063  224.0029 H   0  0  0  0  0  0  0  0  0  0  0  0
  140.7470   81.2163  222.0577 H   0  0  0  0  0  0  0  0  0  0  0  0
  142.4531   81.7285  221.6923 H   0  0  0  0  0  0  0  0  0  0  0  0
  141.0510   80.1371  220.0437 H   0  0  0  0  0  0  0  0  0  0  0  0
  142.8243   79.9844  220.2616 H   0  0  0  0  0  0  0  0  0  0  0  0
  139.2016   69.4744  222.7720 H   0  0  0  0  0  0  0  0  0  0  0  0
  139.3240   68.2502  224.9139 H   0  0  0  0  0  0  0  0  0  0  0  0
  139.8721   68.1668  227.2492 H   0  0  0  0  0  0  0  0  0  0  0  0
  140.7429   69.3071  229.2587 H   0  0  0  0  0  0  0  0  0  0  0  0
  141.4921   71.6693  229.1289 H   0  0  0  0  0  0  0  0  0  0  0  0
  141.3701   72.9113  226.9699 H   0  0  0  0  0  0  0  0  0  0  0  0
  1  2  2  0
  2  3  1  0
  3  4  1  0
  4  5  1  0
  5  6  2  0
  5  7  1  0
  7  8  1  0
  8  9  1  0
  9 10  1  0
 10 11  1  0
 11 12  1  0
 12 13  1  0
 13 14  1  0
 14 15  1  0
 15 16  1  0
 16 17  1  0
 16 18  1  0
 16 19  1  0
 19 20  1  0
  2 21  1  0
 21 22  2  0
 22 23  1  0
 23 24  2  0
 24 25  1  0
 25 26  2  0
 26 27  1  0
 27 28  2  0
 28 29  1  0
 29 30  2  0
 12  7  1  0
 20 13  1  0
 30 21  1  0
 29 24  1  0
  3 31  1  0
  4 32  1  0
  4 33  1  0
  8 34  1  0
  8 35  1  0
  9 36  1  0
  9 37  1  0
 10 38  1  0
 10 39  1  0
 11 40  1  0
 11 41  1  0
 12 42  1  6
 13 43  1  0
 14 44  1  0
 14 45  1  0
 15 46  1  0
 15 47  1  0
 19 48  1  0
 19 49  1  0
 20 50  1  0
 20 51  1  0
 22 52  1  0
 23 53  1  0
 25 54  1  0
 26 55  1  0
 27 56  1  0
 28 57  1  0
M  END
>  <smiles>  (22) 
O=C(NCC(=O)N1CCCCC1C1CCC(F)(F)CC1)c1ccc2ccccc2n1

>  <score_type>  (22) 
oracle

>  <origin>  (22) 
autodockgpu

>  <m_score__min__energy>  (22) 
-9.3200000000000003

>  <m_primary>  (22) 
energy

>  <rmsd>  (22) 
1.5451695854257825

>  <m_score__min__rmsd>  (22) 
1.5451695854257825

>  <meeko>  (22) 
{"free_energy": -9.1, "intermolecular_energy": -10.59, "internal_energy": -1.87, "cluster_size": 34, "cluster_id": 1, "rank_in_cluster": 12}

>  <energy>  (22) 
-8.71

>  <cluster_rmsd>  (22) 
0.85

>  <cluster>  (22) 
1

$$$$

     RDKit          3D

 57 60  0  0  0  0  0  0  0  0999 V2000
  140.1310   71.3370  221.2270 O   0  0  0  0  0  0  0  0  0  0  0  0
  139.9670   72.0110  222.3000 C   0  0  0  0  0  0  0  0  0  0  0  0
  139.7530   73.4120  222.2910 N   0  0  0  0  0  0  0  0  0  0  0  0
  139.7040   74.1830  221.0640 C   0  0  0  0  0  0  0  0  0  0  0  0
  140.1800   75.5890  221.3470 C   0  0  0  0  0  0  0  0  0  0  0  0
  140.1680   75.8970  222.5620 O   0  0  0  0  0  0  0  0  0  0  0  0
  140.5760   76.3920  220.2790 N   0  0  0  0  0  0  0  0  0  0  0  0
  139.9730   76.0600  218.9400 C   0  0  0  0  0  0  0  0  0  0  0  0
  141.1220   76.0380  217.9760 C   0  0  0  0  0  0  0  0  0  0  0  0
  142.4930   76.1270  218.5050 C   0  0  0  0  0  0  0  0  0  0  0  0
  142.7690   76.7860  219.8020 C   0  0  0  0  0  0  0  0  0  0  0  0
  141.4880   77.4870  220.2340 C   0  0  2  0  0  0  0  0  0  0  0  0
  141.6180   78.4790  221.2780 C   0  0  0  0  0  0  0  0  0  0  0  0
  140.6730   78.5130  222.4420 C   0  0  0  0  0  0  0  0  0  0  0  0
  141.5010   79.0270  223.6460 C   0  0  0  0  0  0  0  0  0  0  0  0
  142.2330   80.2430  223.2150 C   0  0  0  0  0  0  0  0  0  0  0  0
  143.6060   80.0540  223.1500 F   0  0  0  0  0  0  0  0  0  0  0  0
  142.0610   81.1950  224.2300 F   0  0  0  0  0  0  0  0  0  0  0  0
  141.7740   80.8740  221.9490 C   0  0  0  0  0  0  0  0  0  0  0  0
  141.8270   79.9120  220.7680 C   0  0  0  0  0  0  0  0  0  0  0  0
  140.0080   71.2850  223.5850 C   0  0  0  0  0  0  0  0  0  0  0  0
  139.5580   69.9980  223.6790 C   0  0  0  0  0  0  0  0  0  0  0  0
  139.6050   69.3390  224.8910 C   0  0  0  0  0  0  0  0  0  0  0  0
  140.0970   69.9510  226.0210 C   0  0  0  0  0  0  0  0  0  0  0  0
  140.1380   69.2880  227.2190 C   0  0  0  0  0  0  0  0  0  0  0  0
  140.6340   69.9300  228.3170 C   0  0  0  0  0  0  0  0  0  0  0  0
  141.0900   71.2380  228.2190 C   0  0  0  0  0  0  0  0  0  0  0  0
  141.0480   71.9100  227.0050 C   0  0  0  0  0  0  0  0  0  0  0  0
  140.5450   71.2540  225.8980 C   0  0  0  0  0  0  0  0  0  0  0  0
  140.4840   71.8610  224.7070 N   0  0  0  0  0  0  0  0  0  0  0  0
  139.6290   73.8710  223.2430 H   0  0  0  0  0  0  0  0  0  0  0  0
  140.3558   73.7178  220.3098 H   0  0  0  0  0  0  0  0  0  0  0  0
  138.6725   74.2096  220.6828 H   0  0  0  0  0  0  0  0  0  0  0  0
  139.4807   75.0769  218.9735 H   0  0  0  0  0  0  0  0  0  0  0  0
  139.2074   76.7926  218.6449 H   0  0  0  0  0  0  0  0  0  0  0  0
  141.0533   75.0958  217.4125 H   0  0  0  0  0  0  0  0  0  0  0  0
  141.0001   76.9643  217.3954 H   0  0  0  0  0  0  0  0  0  0  0  0
  142.8613   75.0944  218.5943 H   0  0  0  0  0  0  0  0  0  0  0  0
  142.9873   76.7951  217.7844 H   0  0  0  0  0  0  0  0  0  0  0  0
  143.0587   76.0352  220.5519 H   0  0  0  0  0  0  0  0  0  0  0  0
  143.5944   77.5067  219.7054 H   0  0  0  0  0  0  0  0  0  0  0  0
  141.0741   78.2572  219.5666 H   0  0  0  0  0  0  0  0  0  0  0  0
  142.5345   78.0552  221.7144 H   0  0  0  0  0  0  0  0  0  0  0  0
  139.8351   79.1949  222.2348 H   0  0  0  0  0  0  0  0  0  0  0  0
  140.2426   77.5206  222.6420 H   0  0  0  0  0  0  0  0  0  0  0  0
  140.8302   79.2723  224.4826 H   0  0  0  0  0  0  0  0  0  0  0  0
  142.2087   78.2540  223.9802 H   0  0  0  0  0  0  0  0  0  0  0  0
  140.7366   81.2154  222.0803 H   0  0  0  0  0  0  0  0  0  0  0  0
  142.4497   81.7135  221.7284 H   0  0  0  0  0  0  0  0  0  0  0  0
  141.0340   80.1667  220.0495 H   0  0  0  0  0  0  0  0  0  0  0  0
  142.8049   79.9895  220.2703 H   0  0  0  0  0  0  0  0  0  0  0  0
  139.1588   69.4879  222.7899 H   0  0  0  0  0  0  0  0  0  0  0  0
  139.2415   68.3028  224.9549 H   0  0  0  0  0  0  0  0  0  0  0  0
  139.7761   68.2521  227.2953 H   0  0  0  0  0  0  0  0  0  0  0  0
  140.6727   69.4083  229.2847 H   0  0  0  0  0  0  0  0  0  0  0  0
  141.4876   71.7456  229.1102 H   0  0  0  0  0  0  0  0  0  0  0  0
  141.4087   72.9462  226.9259 H   0  0  0  0  0  0  0  0  0  0  0  0
  1  2  2  0
  2  3  1  0
  3  4  1  0
  4  5  1  0
  5  6  2  0
  5  7  1  0
  7  8  1  0
  8  9  1  0
  9 10  1  0
 10 11  1  0
 11 12  1  0
 12 13  1  0
 13 14  1  0
 14 15  1  0
 15 16  1  0
 16 17  1  0
 16 18  1  0
 16 19  1  0
 19 20  1  0
  2 21  1  0
 21 22  2  0
 22 23  1  0
 23 24  2  0
 24 25  1  0
 25 26  2  0
 26 27  1  0
 27 28  2  0
 28 29  1  0
 29 30  2  0
 12  7  1  0
 20 13  1  0
 30 21  1  0
 29 24  1  0
  3 31  1  0
  4 32  1  0
  4 33  1  0
  8 34  1  0
  8 35  1  0
  9 36  1  0
  9 37  1  0
 10 38  1  0
 10 39  1  0
 11 40  1  0
 11 41  1  0
 12 42  1  6
 13 43  1  0
 14 44  1  0
 14 45  1  0
 15 46  1  0
 15 47  1  0
 19 48  1  0
 19 49  1  0
 20 50  1  0
 20 51  1  0
 22 52  1  0
 23 53  1  0
 25 54  1  0
 26 55  1  0
 27 56  1  0
 28 57  1  0
M  END
>  <smiles>  (23) 
O=C(NCC(=O)N1CCCCC1C1CCC(F)(F)CC1)c1ccc2ccccc2n1

>  <score_type>  (23) 
oracle

>  <origin>  (23) 
autodockgpu

>  <m_score__min__energy>  (23) 
-9.3200000000000003

>  <m_primary>  (23) 
energy

>  <rmsd>  (23) 
1.5417963367200764

>  <m_score__min__rmsd>  (23) 
1.5417963367200764

>  <meeko>  (23) 
{"free_energy": -9.11, "intermolecular_energy": -10.6, "internal_energy": -1.89, "cluster_size": 34, "cluster_id": 1, "rank_in_cluster": 10}

>  <energy>  (23) 
-8.7

>  <cluster_rmsd>  (23) 
0.86

>  <cluster>  (23) 
1

$$$$

     RDKit          3D

 57 60  0  0  0  0  0  0  0  0999 V2000
  140.8920   71.2860  221.3480 O   0  0  0  0  0  0  0  0  0  0  0  0
  140.3840   71.9840  222.2910 C   0  0  0  0  0  0  0  0  0  0  0  0
  140.0180   73.3410  222.1180 N   0  0  0  0  0  0  0  0  0  0  0  0
  140.1920   74.0400  220.8600 C   0  0  0  0  0  0  0  0  0  0  0  0
  140.0900   75.5280  221.1040 C   0  0  0  0  0  0  0  0  0  0  0  0
  139.5830   75.8290  222.2100 O   0  0  0  0  0  0  0  0  0  0  0  0
  140.5490   76.4030  220.1210 N   0  0  0  0  0  0  0  0  0  0  0  0
  139.9630   76.2220  218.7460 C   0  0  0  0  0  0  0  0  0  0  0  0
  141.1330   76.2310  217.8070 C   0  0  0  0  0  0  0  0  0  0  0  0
  142.4930   76.2050  218.3680 C   0  0  0  0  0  0  0  0  0  0  0  0
  142.7690   76.7310  219.7260 C   0  0  0  0  0  0  0  0  0  0  0  0
  141.5120   77.4520  220.1940 C   0  0  2  0  0  0  0  0  0  0  0  0
  141.6630   78.3380  221.3260 C   0  0  0  0  0  0  0  0  0  0  0  0
  140.9190   78.1010  222.6060 C   0  0  0  0  0  0  0  0  0  0  0  0
  141.8450   78.6130  223.7370 C   0  0  0  0  0  0  0  0  0  0  0  0
  142.3200   79.9680  223.3640 C   0  0  0  0  0  0  0  0  0  0  0  0
  143.6780   80.0080  223.0840 F   0  0  0  0  0  0  0  0  0  0  0  0
  142.1780   80.7700  224.5060 F   0  0  0  0  0  0  0  0  0  0  0  0
  141.5820   80.6460  222.2650 C   0  0  0  0  0  0  0  0  0  0  0  0
  141.5840   79.8310  220.9770 C   0  0  0  0  0  0  0  0  0  0  0  0
  140.1810   71.3320  223.6000 C   0  0  0  0  0  0  0  0  0  0  0  0
  139.4680   70.1700  223.7040 C   0  0  0  0  0  0  0  0  0  0  0  0
  139.2910   69.5790  224.9380 C   0  0  0  0  0  0  0  0  0  0  0  0
  139.8180   70.1350  226.0820 C   0  0  0  0  0  0  0  0  0  0  0  0
  139.6360   69.5400  227.3020 C   0  0  0  0  0  0  0  0  0  0  0  0
  140.1750   70.1220  228.4120 C   0  0  0  0  0  0  0  0  0  0  0  0
  140.8980   71.3020  228.3050 C   0  0  0  0  0  0  0  0  0  0  0  0
  141.0830   71.9050  227.0680 C   0  0  0  0  0  0  0  0  0  0  0  0
  140.5350   71.3110  225.9480 C   0  0  0  0  0  0  0  0  0  0  0  0
  140.6860   71.8550  224.7360 N   0  0  0  0  0  0  0  0  0  0  0  0
  139.6040   73.8260  222.9710 H   0  0  0  0  0  0  0  0  0  0  0  0
  141.1805   73.8023  220.4400 H   0  0  0  0  0  0  0  0  0  0  0  0
  139.4124   73.7261  220.1502 H   0  0  0  0  0  0  0  0  0  0  0  0
  139.4249   75.2649  218.6804 H   0  0  0  0  0  0  0  0  0  0  0  0
  139.2392   77.0140  218.5035 H   0  0  0  0  0  0  0  0  0  0  0  0
  141.0339   75.3479  217.1587 H   0  0  0  0  0  0  0  0  0  0  0  0
  141.0686   77.2110  217.3116 H   0  0  0  0  0  0  0  0  0  0  0  0
  142.8103   75.1518  218.3702 H   0  0  0  0  0  0  0  0  0  0  0  0
  143.0351   76.9102  217.7208 H   0  0  0  0  0  0  0  0  0  0  0  0
  143.0051   75.9026  220.4102 H   0  0  0  0  0  0  0  0  0  0  0  0
  143.6295   77.4160  219.7118 H   0  0  0  0  0  0  0  0  0  0  0  0
  141.1507   78.2983  219.5912 H   0  0  0  0  0  0  0  0  0  0  0  0
  142.6873   78.0216  221.5723 H   0  0  0  0  0  0  0  0  0  0  0  0
  139.9708   78.6585  222.6061 H   0  0  0  0  0  0  0  0  0  0  0  0
  140.6711   77.0374  222.7378 H   0  0  0  0  0  0  0  0  0  0  0  0
  141.2865   78.6608  224.6835 H   0  0  0  0  0  0  0  0  0  0  0  0
  142.6988   77.9321  223.8688 H   0  0  0  0  0  0  0  0  0  0  0  0
  140.5406   80.8029  222.5826 H   0  0  0  0  0  0  0  0  0  0  0  0
  142.0879   81.6009  222.0594 H   0  0  0  0  0  0  0  0  0  0  0  0
  140.6597   80.0292  220.4145 H   0  0  0  0  0  0  0  0  0  0  0  0
  142.4508   80.1136  220.3616 H   0  0  0  0  0  0  0  0  0  0  0  0
  139.0359   69.7068  222.8047 H   0  0  0  0  0  0  0  0  0  0  0  0
  138.7166   68.6436  225.0094 H   0  0  0  0  0  0  0  0  0  0  0  0
  139.0627   68.6050  227.3859 H   0  0  0  0  0  0  0  0  0  0  0  0
  140.0358   69.6534  229.3974 H   0  0  0  0  0  0  0  0  0  0  0  0
  141.3275   71.7628  229.2067 H   0  0  0  0  0  0  0  0  0  0  0  0
  141.6562   72.8398  226.9815 H   0  0  0  0  0  0  0  0  0  0  0  0
  1  2  2  0
  2  3  1  0
  3  4  1  0
  4  5  1  0
  5  6  2  0
  5  7  1  0
  7  8  1  0
  8  9  1  0
  9 10  1  0
 10 11  1  0
 11 12  1  0
 12 13  1  0
 13 14  1  0
 14 15  1  0
 15 16  1  0
 16 17  1  0
 16 18  1  0
 16 19  1  0
 19 20  1  0
  2 21  1  0
 21 22  2  0
 22 23  1  0
 23 24  2  0
 24 25  1  0
 25 26  2  0
 26 27  1  0
 27 28  2  0
 28 29  1  0
 29 30  2  0
 12  7  1  0
 20 13  1  0
 30 21  1  0
 29 24  1  0
  3 31  1  0
  4 32  1  0
  4 33  1  0
  8 34  1  0
  8 35  1  0
  9 36  1  0
  9 37  1  0
 10 38  1  0
 10 39  1  0
 11 40  1  0
 11 41  1  0
 12 42  1  6
 13 43  1  0
 14 44  1  0
 14 45  1  0
 15 46  1  0
 15 47  1  0
 19 48  1  0
 19 49  1  0
 20 50  1  0
 20 51  1  0
 22 52  1  0
 23 53  1  0
 25 54  1  0
 26 55  1  0
 27 56  1  0
 28 57  1  0
M  END
>  <smiles>  (24) 
O=C(NCC(=O)N1CCCCC1C1CCC(F)(F)CC1)c1ccc2ccccc2n1

>  <score_type>  (24) 
oracle

>  <origin>  (24) 
autodockgpu

>  <m_score__min__energy>  (24) 
-9.3200000000000003

>  <m_primary>  (24) 
energy

>  <rmsd>  (24) 
1.6876734218332627

>  <m_score__min__rmsd>  (24) 
1.6876734218332627

>  <meeko>  (24) 
{"free_energy": -8.93, "intermolecular_energy": -10.42, "internal_energy": -1.76, "cluster_size": 34, "cluster_id": 1, "rank_in_cluster": 18}

>  <energy>  (24) 
-8.7

>  <cluster_rmsd>  (24) 
0.85

>  <cluster>  (24) 
1

$$$$

     RDKit          3D

 57 60  0  0  0  0  0  0  0  0999 V2000
  140.3030   71.3510  221.1390 O   0  0  0  0  0  0  0  0  0  0  0  0
  140.0490   72.0260  222.1940 C   0  0  0  0  0  0  0  0  0  0  0  0
  139.8040   73.4210  222.1610 N   0  0  0  0  0  0  0  0  0  0  0  0
  139.8240   74.1850  220.9290 C   0  0  0  0  0  0  0  0  0  0  0  0
  140.5850   75.4710  221.1600 C   0  0  0  0  0  0  0  0  0  0  0  0
  140.9640   75.6340  222.3430 O   0  0  0  0  0  0  0  0  0  0  0  0
  140.7920   76.3310  220.0820 N   0  0  0  0  0  0  0  0  0  0  0  0
  140.0990   75.9640  218.7980 C   0  0  0  0  0  0  0  0  0  0  0  0
  141.1450   76.0800  217.7290 C   0  0  0  0  0  0  0  0  0  0  0  0
  142.5450   76.3010  218.1290 C   0  0  0  0  0  0  0  0  0  0  0  0
  142.8770   76.9610  219.4130 C   0  0  0  0  0  0  0  0  0  0  0  0
  141.5790   77.5160  219.9830 C   0  0  2  0  0  0  0  0  0  0  0  0
  141.7080   78.4960  221.0400 C   0  0  0  0  0  0  0  0  0  0  0  0
  140.8250   78.4560  222.2510 C   0  0  0  0  0  0  0  0  0  0  0  0
  141.6850   78.9960  223.4200 C   0  0  0  0  0  0  0  0  0  0  0  0
  142.3240   80.2580  222.9770 C   0  0  0  0  0  0  0  0  0  0  0  0
  143.7000   80.1490  222.8380 F   0  0  0  0  0  0  0  0  0  0  0  0
  142.1530   81.1810  224.0190 F   0  0  0  0  0  0  0  0  0  0  0  0
  141.7650   80.8840  221.7490 C   0  0  0  0  0  0  0  0  0  0  0  0
  141.8100   79.9470  220.5480 C   0  0  0  0  0  0  0  0  0  0  0  0
  140.0150   71.3080  223.4840 C   0  0  0  0  0  0  0  0  0  0  0  0
  139.4720   70.0560  223.5770 C   0  0  0  0  0  0  0  0  0  0  0  0
  139.4510   69.4040  224.7920 C   0  0  0  0  0  0  0  0  0  0  0  0
  139.9670   69.9860  225.9280 C   0  0  0  0  0  0  0  0  0  0  0  0
  139.9400   69.3300  227.1290 C   0  0  0  0  0  0  0  0  0  0  0  0
  140.4630   69.9410  228.2320 C   0  0  0  0  0  0  0  0  0  0  0  0
  141.0130   71.2110  228.1360 C   0  0  0  0  0  0  0  0  0  0  0  0
  141.0410   71.8770  226.9170 C   0  0  0  0  0  0  0  0  0  0  0  0
  140.5100   71.2530  225.8050 C   0  0  0  0  0  0  0  0  0  0  0  0
  140.5130   71.8550  224.6110 N   0  0  0  0  0  0  0  0  0  0  0  0
  139.6040   73.8820  223.0990 H   0  0  0  0  0  0  0  0  0  0  0  0
  140.3193   73.5999  220.1401 H   0  0  0  0  0  0  0  0  0  0  0  0
  138.7944   74.4133  220.6163 H   0  0  0  0  0  0  0  0  0  0  0  0
  139.7148   74.9346  218.8495 H   0  0  0  0  0  0  0  0  0  0  0  0
  139.2378   76.6185  218.5982 H   0  0  0  0  0  0  0  0  0  0  0  0
  141.1182   75.1467  217.1474 H   0  0  0  0  0  0  0  0  0  0  0  0
  140.8737   76.9993  217.1892 H   0  0  0  0  0  0  0  0  0  0  0  0
  143.0231   75.3107  218.1537 H   0  0  0  0  0  0  0  0  0  0  0  0
  142.8969   77.0302  217.3844 H   0  0  0  0  0  0  0  0  0  0  0  0
  143.3130   76.2306  220.1105 H   0  0  0  0  0  0  0  0  0  0  0  0
  143.6116   77.7653  219.2600 H   0  0  0  0  0  0  0  0  0  0  0  0
  141.0262   78.2511  219.3797 H   0  0  0  0  0  0  0  0  0  0  0  0
  142.6679   78.1177  221.4214 H   0  0  0  0  0  0  0  0  0  0  0  0
  139.9403   79.0922  222.1009 H   0  0  0  0  0  0  0  0  0  0  0  0
  140.4619   77.4375  222.4531 H   0  0  0  0  0  0  0  0  0  0  0  0
  141.0464   79.1885  224.2947 H   0  0  0  0  0  0  0  0  0  0  0  0
  142.4516   78.2590  223.7012 H   0  0  0  0  0  0  0  0  0  0  0  0
  140.7184   81.1637  221.9400 H   0  0  0  0  0  0  0  0  0  0  0  0
  142.3802   81.7643  221.5111 H   0  0  0  0  0  0  0  0  0  0  0  0
  140.9677   80.1684  219.8761 H   0  0  0  0  0  0  0  0  0  0  0  0
  142.7547   80.0882  220.0024 H   0  0  0  0  0  0  0  0  0  0  0  0
  139.0526   69.5699  222.6838 H   0  0  0  0  0  0  0  0  0  0  0  0
  139.0125   68.3971  224.8549 H   0  0  0  0  0  0  0  0  0  0  0  0
  139.5026   68.3235  227.2044 H   0  0  0  0  0  0  0  0  0  0  0  0
  140.4482   69.4234  229.2025 H   0  0  0  0  0  0  0  0  0  0  0  0
  141.4301   71.6943  229.0318 H   0  0  0  0  0  0  0  0  0  0  0  0
  141.4783   72.8833  226.8388 H   0  0  0  0  0  0  0  0  0  0  0  0
  1  2  2  0
  2  3  1  0
  3  4  1  0
  4  5  1  0
  5  6  2  0
  5  7  1  0
  7  8  1  0
  8  9  1  0
  9 10  1  0
 10 11  1  0
 11 12  1  0
 12 13  1  0
 13 14  1  0
 14 15  1  0
 15 16  1  0
 16 17  1  0
 16 18  1  0
 16 19  1  0
 19 20  1  0
  2 21  1  0
 21 22  2  0
 22 23  1  0
 23 24  2  0
 24 25  1  0
 25 26  2  0
 26 27  1  0
 27 28  2  0
 28 29  1  0
 29 30  2  0
 12  7  1  0
 20 13  1  0
 30 21  1  0
 29 24  1  0
  3 31  1  0
  4 32  1  0
  4 33  1  0
  8 34  1  0
  8 35  1  0
  9 36  1  0
  9 37  1  0
 10 38  1  0
 10 39  1  0
 11 40  1  0
 11 41  1  0
 12 42  1  6
 13 43  1  0
 14 44  1  0
 14 45  1  0
 15 46  1  0
 15 47  1  0
 19 48  1  0
 19 49  1  0
 20 50  1  0
 20 51  1  0
 22 52  1  0
 23 53  1  0
 25 54  1  0
 26 55  1  0
 27 56  1  0
 28 57  1  0
M  END
>  <smiles>  (25) 
O=C(NCC(=O)N1CCCCC1C1CCC(F)(F)CC1)c1ccc2ccccc2n1

>  <score_type>  (25) 
oracle

>  <origin>  (25) 
autodockgpu

>  <m_score__min__energy>  (25) 
-9.3200000000000003

>  <m_primary>  (25) 
energy

>  <rmsd>  (25) 
1.5098934228545957

>  <m_score__min__rmsd>  (25) 
1.5098934228545957

>  <meeko>  (25) 
{"free_energy": -9.08, "intermolecular_energy": -10.57, "internal_energy": -1.82, "cluster_size": 34, "cluster_id": 1, "rank_in_cluster": 13}

>  <energy>  (25) 
-8.69

>  <cluster_rmsd>  (25) 
0.87

>  <cluster>  (25) 
1

$$$$

     RDKit          3D

 57 60  0  0  0  0  0  0  0  0999 V2000
  140.1160   71.2020  221.2660 O   0  0  0  0  0  0  0  0  0  0  0  0
  139.9470   71.8890  222.3300 C   0  0  0  0  0  0  0  0  0  0  0  0
  139.7200   73.2870  222.3030 N   0  0  0  0  0  0  0  0  0  0  0  0
  139.6640   74.0410  221.0660 C   0  0  0  0  0  0  0  0  0  0  0  0
  139.9650   75.4930  221.3610 C   0  0  0  0  0  0  0  0  0  0  0  0
  139.8190   75.8100  222.5640 O   0  0  0  0  0  0  0  0  0  0  0  0
  140.3630   76.3220  220.3130 N   0  0  0  0  0  0  0  0  0  0  0  0
  139.8870   75.9320  218.9400 C   0  0  0  0  0  0  0  0  0  0  0  0
  141.0980   76.0070  218.0580 C   0  0  0  0  0  0  0  0  0  0  0  0
  142.4160   76.2190  218.6800 C   0  0  0  0  0  0  0  0  0  0  0  0
  142.5410   76.9060  219.9860 C   0  0  0  0  0  0  0  0  0  0  0  0
  141.1770   77.4930  220.3200 C   0  0  2  0  0  0  0  0  0  0  0  0
  141.1460   78.4980  221.3600 C   0  0  0  0  0  0  0  0  0  0  0  0
  141.8310   79.8200  221.1870 C   0  0  0  0  0  0  0  0  0  0  0  0
  140.9780   80.8470  221.9720 C   0  0  0  0  0  0  0  0  0  0  0  0
  140.7140   80.2890  223.3200 C   0  0  0  0  0  0  0  0  0  0  0  0
  139.3800   79.9640  223.5210 F   0  0  0  0  0  0  0  0  0  0  0  0
  140.9600   81.3220  224.2360 F   0  0  0  0  0  0  0  0  0  0  0  0
  141.5580   79.1360  223.7330 C   0  0  0  0  0  0  0  0  0  0  0  0
  141.4500   77.9620  222.7660 C   0  0  0  0  0  0  0  0  0  0  0  0
  139.9940   71.1800  223.6250 C   0  0  0  0  0  0  0  0  0  0  0  0
  139.5580   69.8890  223.7350 C   0  0  0  0  0  0  0  0  0  0  0  0
  139.6110   69.2470  224.9560 C   0  0  0  0  0  0  0  0  0  0  0  0
  140.0960   69.8790  226.0780 C   0  0  0  0  0  0  0  0  0  0  0  0
  140.1430   69.2330  227.2840 C   0  0  0  0  0  0  0  0  0  0  0  0
  140.6320   69.8940  228.3740 C   0  0  0  0  0  0  0  0  0  0  0  0
  141.0730   71.2050  228.2600 C   0  0  0  0  0  0  0  0  0  0  0  0
  141.0250   71.8610  227.0370 C   0  0  0  0  0  0  0  0  0  0  0  0
  140.5300   71.1850  225.9380 C   0  0  0  0  0  0  0  0  0  0  0  0
  140.4640   71.7760  224.7400 N   0  0  0  0  0  0  0  0  0  0  0  0
  139.5930   73.7580  223.2480 H   0  0  0  0  0  0  0  0  0  0  0  0
  140.4087   73.6461  220.3593 H   0  0  0  0  0  0  0  0  0  0  0  0
  138.6618   73.9519  220.6213 H   0  0  0  0  0  0  0  0  0  0  0  0
  139.4817   74.9094  218.9500 H   0  0  0  0  0  0  0  0  0  0  0  0
  139.0826   76.5928  218.5847 H   0  0  0  0  0  0  0  0  0  0  0  0
  141.1517   75.0598  217.5012 H   0  0  0  0  0  0  0  0  0  0  0  0
  140.9363   76.9163  217.4604 H   0  0  0  0  0  0  0  0  0  0  0  0
  142.8663   75.2233  218.8059 H   0  0  0  0  0  0  0  0  0  0  0  0
  142.8995   76.9244  217.9882 H   0  0  0  0  0  0  0  0  0  0  0  0
  142.8420   76.1872  220.7623 H   0  0  0  0  0  0  0  0  0  0  0  0
  143.3046   77.6964  219.9392 H   0  0  0  0  0  0  0  0  0  0  0  0
  140.7450   78.2206  219.6172 H   0  0  0  0  0  0  0  0  0  0  0  0
  140.0835   78.7524  221.2319 H   0  0  0  0  0  0  0  0  0  0  0  0
  142.8514   79.7784  221.5957 H   0  0  0  0  0  0  0  0  0  0  0  0
  141.9166   80.0942  220.1252 H   0  0  0  0  0  0  0  0  0  0  0  0
  141.5262   81.7964  222.0619 H   0  0  0  0  0  0  0  0  0  0  0  0
  140.0312   81.0387  221.4459 H   0  0  0  0  0  0  0  0  0  0  0  0
  142.6073   79.4634  223.7756 H   0  0  0  0  0  0  0  0  0  0  0  0
  141.2025   78.7948  224.7165 H   0  0  0  0  0  0  0  0  0  0  0  0
  142.3999   77.4075  222.7518 H   0  0  0  0  0  0  0  0  0  0  0  0
  140.6429   77.2879  223.0890 H   0  0  0  0  0  0  0  0  0  0  0  0
  139.1657   69.3628  222.8523 H   0  0  0  0  0  0  0  0  0  0  0  0
  139.2580   68.2081  225.0336 H   0  0  0  0  0  0  0  0  0  0  0  0
  139.7913   68.1946  227.3738 H   0  0  0  0  0  0  0  0  0  0  0  0
  140.6767   69.3846  229.3479 H   0  0  0  0  0  0  0  0  0  0  0  0
  141.4635   71.7284  229.1452 H   0  0  0  0  0  0  0  0  0  0  0  0
  141.3746   72.8999  226.9447 H   0  0  0  0  0  0  0  0  0  0  0  0
  1  2  2  0
  2  3  1  0
  3  4  1  0
  4  5  1  0
  5  6  2  0
  5  7  1  0
  7  8  1  0
  8  9  1  0
  9 10  1  0
 10 11  1  0
 11 12  1  0
 12 13  1  0
 13 14  1  0
 14 15  1  0
 15 16  1  0
 16 17  1  0
 16 18  1  0
 16 19  1  0
 19 20  1  0
  2 21  1  0
 21 22  2  0
 22 23  1  0
 23 24  2  0
 24 25  1  0
 25 26  2  0
 26 27  1  0
 27 28  2  0
 28 29  1  0
 29 30  2  0
 12  7  1  0
 20 13  1  0
 30 21  1  0
 29 24  1  0
  3 31  1  0
  4 32  1  0
  4 33  1  0
  8 34  1  0
  8 35  1  0
  9 36  1  0
  9 37  1  0
 10 38  1  0
 10 39  1  0
 11 40  1  0
 11 41  1  0
 12 42  1  6
 13 43  1  0
 14 44  1  0
 14 45  1  0
 15 46  1  0
 15 47  1  0
 19 48  1  0
 19 49  1  0
 20 50  1  0
 20 51  1  0
 22 52  1  0
 23 53  1  0
 25 54  1  0
 26 55  1  0
 27 56  1  0
 28 57  1  0
M  END
>  <smiles>  (26) 
O=C(NCC(=O)N1CCCCC1C1CCC(F)(F)CC1)c1ccc2ccccc2n1

>  <score_type>  (26) 
oracle

>  <origin>  (26) 
autodockgpu

>  <m_score__min__energy>  (26) 
-9.3200000000000003

>  <m_primary>  (26) 
energy

>  <rmsd>  (26) 
1.5017785124107874

>  <m_score__min__rmsd>  (26) 
1.5017785124107874

>  <meeko>  (26) 
{"free_energy": -8.7, "intermolecular_energy": -10.2, "internal_energy": -1.95, "cluster_size": 34, "cluster_id": 1, "rank_in_cluster": 23}

>  <energy>  (26) 
-8.64

>  <cluster_rmsd>  (26) 
0.93

>  <cluster>  (26) 
1

$$$$

     RDKit          3D

 57 60  0  0  0  0  0  0  0  0999 V2000
  140.5360   71.2750  221.2960 O   0  0  0  0  0  0  0  0  0  0  0  0
  140.1910   71.9710  222.3110 C   0  0  0  0  0  0  0  0  0  0  0  0
  139.8850   73.3510  222.2160 N   0  0  0  0  0  0  0  0  0  0  0  0
  139.9400   74.0750  220.9610 C   0  0  0  0  0  0  0  0  0  0  0  0
  140.1970   75.5360  221.2470 C   0  0  0  0  0  0  0  0  0  0  0  0
  140.0180   75.8610  222.4440 O   0  0  0  0  0  0  0  0  0  0  0  0
  140.5960   76.3650  220.2000 N   0  0  0  0  0  0  0  0  0  0  0  0
  139.9810   76.0790  218.8560 C   0  0  0  0  0  0  0  0  0  0  0  0
  141.1240   76.0730  217.8840 C   0  0  0  0  0  0  0  0  0  0  0  0
  142.4990   76.1320  218.4070 C   0  0  0  0  0  0  0  0  0  0  0  0
  142.7900   76.7500  219.7210 C   0  0  0  0  0  0  0  0  0  0  0  0
  141.5190   77.4520  220.1810 C   0  0  2  0  0  0  0  0  0  0  0  0
  141.6660   78.4120  221.2530 C   0  0  0  0  0  0  0  0  0  0  0  0
  140.7650   78.3850  222.4510 C   0  0  0  0  0  0  0  0  0  0  0  0
  141.6250   78.8790  223.6400 C   0  0  0  0  0  0  0  0  0  0  0  0
  142.3130   80.1250  223.2240 C   0  0  0  0  0  0  0  0  0  0  0  0
  143.6860   79.9720  223.1020 F   0  0  0  0  0  0  0  0  0  0  0  0
  142.1580   81.0390  224.2760 F   0  0  0  0  0  0  0  0  0  0  0  0
  141.7920   80.7870  221.9970 C   0  0  0  0  0  0  0  0  0  0  0  0
  141.8230   79.8660  220.7840 C   0  0  0  0  0  0  0  0  0  0  0  0
  140.1170   71.2930  223.6210 C   0  0  0  0  0  0  0  0  0  0  0  0
  139.5650   70.0480  223.7370 C   0  0  0  0  0  0  0  0  0  0  0  0
  139.5060   69.4340  224.9720 C   0  0  0  0  0  0  0  0  0  0  0  0
  139.9930   70.0500  226.1030 C   0  0  0  0  0  0  0  0  0  0  0  0
  139.9290   69.4310  227.3230 C   0  0  0  0  0  0  0  0  0  0  0  0
  140.4240   70.0750  228.4210 C   0  0  0  0  0  0  0  0  0  0  0  0
  140.9830   71.3390  228.3000 C   0  0  0  0  0  0  0  0  0  0  0  0
  141.0480   71.9660  227.0630 C   0  0  0  0  0  0  0  0  0  0  0  0
  140.5460   71.3090  225.9560 C   0  0  0  0  0  0  0  0  0  0  0  0
  140.5870   71.8730  224.7440 N   0  0  0  0  0  0  0  0  0  0  0  0
  139.6110   73.8320  223.1250 H   0  0  0  0  0  0  0  0  0  0  0  0
  140.7526   73.6726  220.3384 H   0  0  0  0  0  0  0  0  0  0  0  0
  138.9857   73.9634  220.4254 H   0  0  0  0  0  0  0  0  0  0  0  0
  139.4782   75.1007  218.8639 H   0  0  0  0  0  0  0  0  0  0  0  0
  139.2215   76.8281  218.5875 H   0  0  0  0  0  0  0  0  0  0  0  0
  141.0418   75.1484  217.2938 H   0  0  0  0  0  0  0  0  0  0  0  0
  141.0085   77.0169  217.3312 H   0  0  0  0  0  0  0  0  0  0  0  0
  142.8566   75.0933  218.4640 H   0  0  0  0  0  0  0  0  0  0  0  0
  142.9961   76.8157  217.7031 H   0  0  0  0  0  0  0  0  0  0  0  0
  143.0759   75.9746  220.4469 H   0  0  0  0  0  0  0  0  0  0  0  0
  143.6227   77.4642  219.6403 H   0  0  0  0  0  0  0  0  0  0  0  0
  141.1091   78.2457  219.5391 H   0  0  0  0  0  0  0  0  0  0  0  0
  142.6076   77.9963  221.6410 H   0  0  0  0  0  0  0  0  0  0  0  0
  139.9045   79.0528  222.2977 H   0  0  0  0  0  0  0  0  0  0  0  0
  140.3654   77.3765  222.6331 H   0  0  0  0  0  0  0  0  0  0  0  0
  140.9803   79.0810  224.5081 H   0  0  0  0  0  0  0  0  0  0  0  0
  142.3619   78.1125  223.9220 H   0  0  0  0  0  0  0  0  0  0  0  0
  140.7527   81.0987  222.1777 H   0  0  0  0  0  0  0  0  0  0  0  0
  142.4390   81.6498  221.7803 H   0  0  0  0  0  0  0  0  0  0  0  0
  140.9981   80.1248  220.1038 H   0  0  0  0  0  0  0  0  0  0  0  0
  142.7797   79.9832  220.2540 H   0  0  0  0  0  0  0  0  0  0  0  0
  139.1684   69.5361  222.8478 H   0  0  0  0  0  0  0  0  0  0  0  0
  139.0606   68.4316  225.0542 H   0  0  0  0  0  0  0  0  0  0  0  0
  139.4851   68.4290  227.4173 H   0  0  0  0  0  0  0  0  0  0  0  0
  140.3792   69.5888  229.4067 H   0  0  0  0  0  0  0  0  0  0  0  0
  141.3779   71.8485  229.1913 H   0  0  0  0  0  0  0  0  0  0  0  0
  141.4913   72.9680  226.9660 H   0  0  0  0  0  0  0  0  0  0  0  0
  1  2  2  0
  2  3  1  0
  3  4  1  0
  4  5  1  0
  5  6  2  0
  5  7  1  0
  7  8  1  0
  8  9  1  0
  9 10  1  0
 10 11  1  0
 11 12  1  0
 12 13  1  0
 13 14  1  0
 14 15  1  0
 15 16  1  0
 16 17  1  0
 16 18  1  0
 16 19  1  0
 19 20  1  0
  2 21  1  0
 21 22  2  0
 22 23  1  0
 23 24  2  0
 24 25  1  0
 25 26  2  0
 26 27  1  0
 27 28  2  0
 28 29  1  0
 29 30  2  0
 12  7  1  0
 20 13  1  0
 30 21  1  0
 29 24  1  0
  3 31  1  0
  4 32  1  0
  4 33  1  0
  8 34  1  0
  8 35  1  0
  9 36  1  0
  9 37  1  0
 10 38  1  0
 10 39  1  0
 11 40  1  0
 11 41  1  0
 12 42  1  6
 13 43  1  0
 14 44  1  0
 14 45  1  0
 15 46  1  0
 15 47  1  0
 19 48  1  0
 19 49  1  0
 20 50  1  0
 20 51  1  0
 22 52  1  0
 23 53  1  0
 25 54  1  0
 26 55  1  0
 27 56  1  0
 28 57  1  0
M  END
>  <smiles>  (27) 
O=C(NCC(=O)N1CCCCC1C1CCC(F)(F)CC1)c1ccc2ccccc2n1

>  <score_type>  (27) 
oracle

>  <origin>  (27) 
autodockgpu

>  <m_score__min__energy>  (27) 
-9.3200000000000003

>  <m_primary>  (27) 
energy

>  <rmsd>  (27) 
1.6030911090053754

>  <m_score__min__rmsd>  (27) 
1.6030911090053754

>  <meeko>  (27) 
{"free_energy": -9.16, "intermolecular_energy": -10.66, "internal_energy": -1.79, "cluster_size": 34, "cluster_id": 1, "rank_in_cluster": 4}

>  <energy>  (27) 
-8.62

>  <cluster_rmsd>  (27) 
0.87

>  <cluster>  (27) 
1

$$$$

     RDKit          3D

 57 60  0  0  0  0  0  0  0  0999 V2000
  140.4570   74.0540  220.2020 O   0  0  0  0  0  0  0  0  0  0  0  0
  140.1820   74.7570  221.2340 C   0  0  0  0  0  0  0  0  0  0  0  0
  139.3960   74.2610  222.3020 N   0  0  0  0  0  0  0  0  0  0  0  0
  138.8440   72.9200  222.3050 C   0  0  0  0  0  0  0  0  0  0  0  0
  139.9010   71.9540  222.7900 C   0  0  0  0  0  0  0  0  0  0  0  0
  141.0630   72.4220  222.7790 O   0  0  0  0  0  0  0  0  0  0  0  0
  139.5100   70.6790  223.1930 N   0  0  0  0  0  0  0  0  0  0  0  0
  139.3510   69.6570  222.0990 C   0  0  0  0  0  0  0  0  0  0  0  0
  138.0310   68.9920  222.3580 C   0  0  0  0  0  0  0  0  0  0  0  0
  137.1470   69.5520  223.3940 C   0  0  0  0  0  0  0  0  0  0  0  0
  137.6980   70.3280  224.5300 C   0  0  0  0  0  0  0  0  0  0  0  0
  139.2120   70.1700  224.4920 C   0  0  2  0  0  0  0  0  0  0  0  0
  139.9270   70.5410  225.6930 C   0  0  0  0  0  0  0  0  0  0  0  0
  141.3090   71.1200  225.6290 C   0  0  0  0  0  0  0  0  0  0  0  0
  141.4150   72.0980  226.8250 C   0  0  0  0  0  0  0  0  0  0  0  0
  140.9320   71.3940  228.0380 C   0  0  0  0  0  0  0  0  0  0  0  0
  139.7400   71.9100  228.5260 F   0  0  0  0  0  0  0  0  0  0  0  0
  141.8640   71.6580  229.0520 F   0  0  0  0  0  0  0  0  0  0  0  0
  140.8100   69.9150  227.9380 C   0  0  0  0  0  0  0  0  0  0  0  0
  139.8840   69.4850  226.8070 C   0  0  0  0  0  0  0  0  0  0  0  0
  140.7130   76.1340  221.2930 C   0  0  0  0  0  0  0  0  0  0  0  0
  141.0800   76.7950  220.1540 C   0  0  0  0  0  0  0  0  0  0  0  0
  141.5740   78.0810  220.2330 C   0  0  0  0  0  0  0  0  0  0  0  0
  141.7100   78.7230  221.4430 C   0  0  0  0  0  0  0  0  0  0  0  0
  142.2020   79.9990  221.5110 C   0  0  0  0  0  0  0  0  0  0  0  0
  142.3220   80.6020  222.7300 C   0  0  0  0  0  0  0  0  0  0  0  0
  141.9500   79.9280  223.8850 C   0  0  0  0  0  0  0  0  0  0  0  0
  141.4510   78.6340  223.8170 C   0  0  0  0  0  0  0  0  0  0  0  0
  141.3320   78.0310  222.5800 C   0  0  0  0  0  0  0  0  0  0  0  0
  140.8580   76.7860  222.4640 N   0  0  0  0  0  0  0  0  0  0  0  0
  139.2300   74.9330  223.1110 H   0  0  0  0  0  0  0  0  0  0  0  0
  137.9731   72.8811  222.9758 H   0  0  0  0  0  0  0  0  0  0  0  0
  138.5284   72.6456  221.2876 H   0  0  0  0  0  0  0  0  0  0  0  0
  139.3479   70.1462  221.1138 H   0  0  0  0  0  0  0  0  0  0  0  0
  140.1785   68.9323  222.0952 H   0  0  0  0  0  0  0  0  0  0  0  0
  137.4702   69.0065  221.4118 H   0  0  0  0  0  0  0  0  0  0  0  0
  138.3041   68.0005  222.7482 H   0  0  0  0  0  0  0  0  0  0  0  0
  136.4394   70.2159  222.8758 H   0  0  0  0  0  0  0  0  0  0  0  0
  136.7505   68.6516  223.8860 H   0  0  0  0  0  0  0  0  0  0  0  0
  137.4273   71.3893  224.4278 H   0  0  0  0  0  0  0  0  0  0  0  0
  137.2915   69.9637  225.4850 H   0  0  0  0  0  0  0  0  0  0  0  0
  139.6246   69.1533  224.5701 H   0  0  0  0  0  0  0  0  0  0  0  0
  139.3016   71.4158  225.9245 H   0  0  0  0  0  0  0  0  0  0  0  0
  142.0622   70.3233  225.7183 H   0  0  0  0  0  0  0  0  0  0  0  0
  141.4888   71.6314  224.6718 H   0  0  0  0  0  0  0  0  0  0  0  0
  142.4620   72.4054  226.9640 H   0  0  0  0  0  0  0  0  0  0  0  0
  140.8087   72.9966  226.6382 H   0  0  0  0  0  0  0  0  0  0  0  0
  141.8083   69.4893  227.7587 H   0  0  0  0  0  0  0  0  0  0  0  0
  140.3799   69.5488  228.8819 H   0  0  0  0  0  0  0  0  0  0  0  0
  140.2157   68.5151  226.4080 H   0  0  0  0  0  0  0  0  0  0  0  0
  138.8560   69.3883  227.1863 H   0  0  0  0  0  0  0  0  0  0  0  0
  140.9816   76.3022  219.1755 H   0  0  0  0  0  0  0  0  0  0  0  0
  141.8651   78.6039  219.3100 H   0  0  0  0  0  0  0  0  0  0  0  0
  142.4969   80.5316  220.5949 H   0  0  0  0  0  0  0  0  0  0  0  0
  142.7155   81.6270  222.7972 H   0  0  0  0  0  0  0  0  0  0  0  0
  142.0513   80.4230  224.8621 H   0  0  0  0  0  0  0  0  0  0  0  0
  141.1558   78.0988  224.7316 H   0  0  0  0  0  0  0  0  0  0  0  0
  1  2  2  0
  2  3  1  0
  3  4  1  0
  4  5  1  0
  5  6  2  0
  5  7  1  0
  7  8  1  0
  8  9  1  0
  9 10  1  0
 10 11  1  0
 11 12  1  0
 12 13  1  0
 13 14  1  0
 14 15  1  0
 15 16  1  0
 16 17  1  0
 16 18  1  0
 16 19  1  0
 19 20  1  0
  2 21  1  0
 21 22  2  0
 22 23  1  0
 23 24  2  0
 24 25  1  0
 25 26  2  0
 26 27  1  0
 27 28  2  0
 28 29  1  0
 29 30  2  0
 12  7  1  0
 20 13  1  0
 30 21  1  0
 29 24  1  0
  3 31  1  0
  4 32  1  0
  4 33  1  0
  8 34  1  0
  8 35  1  0
  9 36  1  0
  9 37  1  0
 10 38  1  0
 10 39  1  0
 11 40  1  0
 11 41  1  0
 12 42  1  6
 13 43  1  0
 14 44  1  0
 14 45  1  0
 15 46  1  0
 15 47  1  0
 19 48  1  0
 19 49  1  0
 20 50  1  0
 20 51  1  0
 22 52  1  0
 23 53  1  0
 25 54  1  0
 26 55  1  0
 27 56  1  0
 28 57  1  0
M  END
>  <smiles>  (28) 
O=C(NCC(=O)N1CCCCC1C1CCC(F)(F)CC1)c1ccc2ccccc2n1

>  <score_type>  (28) 
oracle

>  <origin>  (28) 
autodockgpu

>  <m_score__min__energy>  (28) 
-9.3200000000000003

>  <m_primary>  (28) 
energy

>  <rmsd>  (28) 
8.208717306445731

>  <m_score__min__rmsd>  (28) 
8.208717306445731

>  <meeko>  (28) 
{"free_energy": -8.89, "intermolecular_energy": -10.39, "internal_energy": -1.62, "cluster_size": 4, "cluster_id": 2, "rank_in_cluster": 2}

>  <energy>  (28) 
-8.61

>  <cluster_rmsd>  (28) 
0.87

>  <cluster>  (28) 
1

$$$$

     RDKit          3D

 57 60  0  0  0  0  0  0  0  0999 V2000
  137.0100   75.6120  222.1560 O   0  0  0  0  0  0  0  0  0  0  0  0
  138.2710   75.7270  222.3280 C   0  0  0  0  0  0  0  0  0  0  0  0
  139.1490   74.6170  222.2700 N   0  0  0  0  0  0  0  0  0  0  0  0
  138.6810   73.2690  222.0110 C   0  0  0  0  0  0  0  0  0  0  0  0
  139.6660   72.2850  222.6010 C   0  0  0  0  0  0  0  0  0  0  0  0
  140.7980   72.7710  222.8290 O   0  0  0  0  0  0  0  0  0  0  0  0
  139.2490   70.9750  222.8320 N   0  0  0  0  0  0  0  0  0  0  0  0
  139.0550   70.1160  221.6110 C   0  0  0  0  0  0  0  0  0  0  0  0
  137.7230   69.4510  221.7960 C   0  0  0  0  0  0  0  0  0  0  0  0
  136.8630   69.8830  222.9100 C   0  0  0  0  0  0  0  0  0  0  0  0
  137.4440   70.4850  224.1330 C   0  0  0  0  0  0  0  0  0  0  0  0
  138.9530   70.3010  224.0530 C   0  0  2  0  0  0  0  0  0  0  0  0
  139.6900   70.4880  225.2830 C   0  0  0  0  0  0  0  0  0  0  0  0
  141.0640   71.0900  225.2850 C   0  0  0  0  0  0  0  0  0  0  0  0
  141.1850   71.8690  226.6170 C   0  0  0  0  0  0  0  0  0  0  0  0
  140.7350   70.9780  227.7140 C   0  0  0  0  0  0  0  0  0  0  0  0
  139.5490   71.3950  228.2990 F   0  0  0  0  0  0  0  0  0  0  0  0
  141.6860   71.0930  228.7380 F   0  0  0  0  0  0  0  0  0  0  0  0
  140.6270   69.5310  227.3850 C   0  0  0  0  0  0  0  0  0  0  0  0
  139.6810   69.2710  226.2190 C   0  0  0  0  0  0  0  0  0  0  0  0
  138.8120   77.0750  222.5970 C   0  0  0  0  0  0  0  0  0  0  0  0
  137.9810   78.1540  222.7190 C   0  0  0  0  0  0  0  0  0  0  0  0
  138.5090   79.4040  222.9700 C   0  0  0  0  0  0  0  0  0  0  0  0
  139.8660   79.5960  223.1010 C   0  0  0  0  0  0  0  0  0  0  0  0
  140.3790   80.8410  223.3490 C   0  0  0  0  0  0  0  0  0  0  0  0
  141.7300   80.9900  223.4730 C   0  0  0  0  0  0  0  0  0  0  0  0
  142.5720   79.8930  223.3480 C   0  0  0  0  0  0  0  0  0  0  0  0
  142.0510   78.6310  223.0970 C   0  0  0  0  0  0  0  0  0  0  0  0
  140.6830   78.4870  222.9730 C   0  0  0  0  0  0  0  0  0  0  0  0
  140.1360   77.2910  222.7300 N   0  0  0  0  0  0  0  0  0  0  0  0
  140.1800   74.8280  222.4280 H   0  0  0  0  0  0  0  0  0  0  0  0
  137.6938   73.1257  222.4746 H   0  0  0  0  0  0  0  0  0  0  0  0
  138.5971   73.1063  220.9263 H   0  0  0  0  0  0  0  0  0  0  0  0
  139.0525   70.7352  220.7018 H   0  0  0  0  0  0  0  0  0  0  0  0
  139.8654   69.3812  221.4962 H   0  0  0  0  0  0  0  0  0  0  0  0
  137.1526   69.6062  220.8683 H   0  0  0  0  0  0  0  0  0  0  0  0
  137.9777   68.4103  222.0449 H   0  0  0  0  0  0  0  0  0  0  0  0
  136.1653   70.6262  222.4966 H   0  0  0  0  0  0  0  0  0  0  0  0
  136.4508   68.9327  223.2802 H   0  0  0  0  0  0  0  0  0  0  0  0
  137.1970   71.5559  224.1797 H   0  0  0  0  0  0  0  0  0  0  0  0
  137.0394   70.0029  225.0352 H   0  0  0  0  0  0  0  0  0  0  0  0
  139.3422   69.2743  223.9866 H   0  0  0  0  0  0  0  0  0  0  0  0
  139.0600   71.3072  225.6600 H   0  0  0  0  0  0  0  0  0  0  0  0
  141.8277   70.3000  225.2332 H   0  0  0  0  0  0  0  0  0  0  0  0
  141.2173   71.7484  224.4172 H   0  0  0  0  0  0  0  0  0  0  0  0
  142.2315   72.1647  226.7823 H   0  0  0  0  0  0  0  0  0  0  0  0
  140.5653   72.7773  226.5851 H   0  0  0  0  0  0  0  0  0  0  0  0
  141.6257   69.1529  227.1211 H   0  0  0  0  0  0  0  0  0  0  0  0
  140.2219   69.0149  228.2679 H   0  0  0  0  0  0  0  0  0  0  0  0
  140.0132   68.3794  225.6670 H   0  0  0  0  0  0  0  0  0  0  0  0
  138.6623   69.1034  226.5988 H   0  0  0  0  0  0  0  0  0  0  0  0
  136.8932   78.0258  222.6172 H   0  0  0  0  0  0  0  0  0  0  0  0
  137.8315   80.2651  223.0675 H   0  0  0  0  0  0  0  0  0  0  0  0
  139.7112   81.7096  223.4470 H   0  0  0  0  0  0  0  0  0  0  0  0
  142.1543   81.9849  223.6731 H   0  0  0  0  0  0  0  0  0  0  0  0
  143.6594   80.0249  223.4486 H   0  0  0  0  0  0  0  0  0  0  0  0
  142.7163   77.7606  222.9985 H   0  0  0  0  0  0  0  0  0  0  0  0
  1  2  2  0
  2  3  1  0
  3  4  1  0
  4  5  1  0
  5  6  2  0
  5  7  1  0
  7  8  1  0
  8  9  1  0
  9 10  1  0
 10 11  1  0
 11 12  1  0
 12 13  1  0
 13 14  1  0
 14 15  1  0
 15 16  1  0
 16 17  1  0
 16 18  1  0
 16 19  1  0
 19 20  1  0
  2 21  1  0
 21 22  2  0
 22 23  1  0
 23 24  2  0
 24 25  1  0
 25 26  2  0
 26 27  1  0
 27 28  2  0
 28 29  1  0
 29 30  2  0
 12  7  1  0
 20 13  1  0
 30 21  1  0
 29 24  1  0
  3 31  1  0
  4 32  1  0
  4 33  1  0
  8 34  1  0
  8 35  1  0
  9 36  1  0
  9 37  1  0
 10 38  1  0
 10 39  1  0
 11 40  1  0
 11 41  1  0
 12 42  1  6
 13 43  1  0
 14 44  1  0
 14 45  1  0
 15 46  1  0
 15 47  1  0
 19 48  1  0
 19 49  1  0
 20 50  1  0
 20 51  1  0
 22 52  1  0
 23 53  1  0
 25 54  1  0
 26 55  1  0
 27 56  1  0
 28 57  1  0
M  END
>  <smiles>  (29) 
O=C(NCC(=O)N1CCCCC1C1CCC(F)(F)CC1)c1ccc2ccccc2n1

>  <score_type>  (29) 
oracle

>  <origin>  (29) 
autodockgpu

>  <m_score__min__energy>  (29) 
-9.3200000000000003

>  <m_primary>  (29) 
energy

>  <rmsd>  (29) 
8.233352585139224

>  <m_score__min__rmsd>  (29) 
8.233352585139224

>  <meeko>  (29) 
{"free_energy": -8.18, "intermolecular_energy": -9.67, "internal_energy": -2.21, "cluster_size": 4, "cluster_id": 2, "rank_in_cluster": 4}

>  <energy>  (29) 
-8.57

>  <cluster_rmsd>  (29) 
0.84

>  <cluster>  (29) 
1

$$$$

     RDKit          3D

 57 60  0  0  0  0  0  0  0  0999 V2000
  141.2240   71.9590  221.5550 O   0  0  0  0  0  0  0  0  0  0  0  0
  140.3080   72.2880  222.3830 C   0  0  0  0  0  0  0  0  0  0  0  0
  139.4400   73.3840  222.1570 N   0  0  0  0  0  0  0  0  0  0  0  0
  139.5260   74.2130  220.9710 C   0  0  0  0  0  0  0  0  0  0  0  0
  140.5730   75.2800  221.1910 C   0  0  0  0  0  0  0  0  0  0  0  0
  141.0740   75.2740  222.3400 O   0  0  0  0  0  0  0  0  0  0  0  0
  140.8810   76.1450  220.1430 N   0  0  0  0  0  0  0  0  0  0  0  0
  140.2820   75.8060  218.8040 C   0  0  0  0  0  0  0  0  0  0  0  0
  141.4100   75.9090  217.8210 C   0  0  0  0  0  0  0  0  0  0  0  0
  142.7790   76.0950  218.3290 C   0  0  0  0  0  0  0  0  0  0  0  0
  143.0250   76.7350  219.6420 C   0  0  0  0  0  0  0  0  0  0  0  0
  141.6990   77.3140  220.1170 C   0  0  2  0  0  0  0  0  0  0  0  0
  141.7670   78.2800  221.1910 C   0  0  0  0  0  0  0  0  0  0  0  0
  140.8940   78.1600  222.4040 C   0  0  0  0  0  0  0  0  0  0  0  0
  141.7210   78.7340  223.5810 C   0  0  0  0  0  0  0  0  0  0  0  0
  142.2720   80.0450  223.1580 C   0  0  0  0  0  0  0  0  0  0  0  0
  143.6520   80.0300  223.0130 F   0  0  0  0  0  0  0  0  0  0  0  0
  142.0450   80.9350  224.2170 F   0  0  0  0  0  0  0  0  0  0  0  0
  141.6670   80.6540  221.9440 C   0  0  0  0  0  0  0  0  0  0  0  0
  141.7690   79.7440  220.7260 C   0  0  0  0  0  0  0  0  0  0  0  0
  140.1680   71.4840  223.6140 C   0  0  0  0  0  0  0  0  0  0  0  0
  139.5170   70.2830  223.5980 C   0  0  0  0  0  0  0  0  0  0  0  0
  139.3970   69.5490  224.7610 C   0  0  0  0  0  0  0  0  0  0  0  0
  139.9220   70.0010  225.9500 C   0  0  0  0  0  0  0  0  0  0  0  0
  139.7970   69.2650  227.0980 C   0  0  0  0  0  0  0  0  0  0  0  0
  140.3320   69.7470  228.2580 C   0  0  0  0  0  0  0  0  0  0  0  0
  140.9920   70.9680  228.2720 C   0  0  0  0  0  0  0  0  0  0  0  0
  141.1190   71.7140  227.1080 C   0  0  0  0  0  0  0  0  0  0  0  0
  140.5760   71.2200  225.9380 C   0  0  0  0  0  0  0  0  0  0  0  0
  140.6720   71.9030  224.7920 N   0  0  0  0  0  0  0  0  0  0  0  0
  138.7140   73.5680  222.9140 H   0  0  0  0  0  0  0  0  0  0  0  0
  139.8074   73.5928  220.1072 H   0  0  0  0  0  0  0  0  0  0  0  0
  138.5513   74.6838  220.7753 H   0  0  0  0  0  0  0  0  0  0  0  0
  139.8728   74.7850  218.8136 H   0  0  0  0  0  0  0  0  0  0  0  0
  139.4533   76.4817  218.5455 H   0  0  0  0  0  0  0  0  0  0  0  0
  141.4082   74.9821  217.2287 H   0  0  0  0  0  0  0  0  0  0  0  0
  141.2010   76.8397  217.2731 H   0  0  0  0  0  0  0  0  0  0  0  0
  143.2327   75.0942  218.3790 H   0  0  0  0  0  0  0  0  0  0  0  0
  143.2027   76.8232  217.6217 H   0  0  0  0  0  0  0  0  0  0  0  0
  143.3898   75.9883  220.3627 H   0  0  0  0  0  0  0  0  0  0  0  0
  143.7865   77.5240  219.5549 H   0  0  0  0  0  0  0  0  0  0  0  0
  141.2108   78.0670  219.4808 H   0  0  0  0  0  0  0  0  0  0  0  0
  142.7516   77.9585  221.5615 H   0  0  0  0  0  0  0  0  0  0  0  0
  139.9687   78.7392  222.2683 H   0  0  0  0  0  0  0  0  0  0  0  0
  140.6001   77.1161  222.5883 H   0  0  0  0  0  0  0  0  0  0  0  0
  141.0749   78.8671  224.4612 H   0  0  0  0  0  0  0  0  0  0  0  0
  142.5361   78.0449  223.8471 H   0  0  0  0  0  0  0  0  0  0  0  0
  140.6050   80.8596  222.1436 H   0  0  0  0  0  0  0  0  0  0  0  0
  142.2209   81.5777  221.7202 H   0  0  0  0  0  0  0  0  0  0  0  0
  140.9105   79.9206  220.0613 H   0  0  0  0  0  0  0  0  0  0  0  0
  142.6997   79.9583  220.1801 H   0  0  0  0  0  0  0  0  0  0  0  0
  139.0889   69.9013  222.6594 H   0  0  0  0  0  0  0  0  0  0  0  0
  138.8710   68.5832  224.7368 H   0  0  0  0  0  0  0  0  0  0  0  0
  139.2725   68.2982  227.0858 H   0  0  0  0  0  0  0  0  0  0  0  0
  140.2395   69.1645  229.1865 H   0  0  0  0  0  0  0  0  0  0  0  0
  141.4177   71.3475  229.2126 H   0  0  0  0  0  0  0  0  0  0  0  0
  141.6428   72.6813  227.1174 H   0  0  0  0  0  0  0  0  0  0  0  0
  1  2  2  0
  2  3  1  0
  3  4  1  0
  4  5  1  0
  5  6  2  0
  5  7  1  0
  7  8  1  0
  8  9  1  0
  9 10  1  0
 10 11  1  0
 11 12  1  0
 12 13  1  0
 13 14  1  0
 14 15  1  0
 15 16  1  0
 16 17  1  0
 16 18  1  0
 16 19  1  0
 19 20  1  0
  2 21  1  0
 21 22  2  0
 22 23  1  0
 23 24  2  0
 24 25  1  0
 25 26  2  0
 26 27  1  0
 27 28  2  0
 28 29  1  0
 29 30  2  0
 12  7  1  0
 20 13  1  0
 30 21  1  0
 29 24  1  0
  3 31  1  0
  4 32  1  0
  4 33  1  0
  8 34  1  0
  8 35  1  0
  9 36  1  0
  9 37  1  0
 10 38  1  0
 10 39  1  0
 11 40  1  0
 11 41  1  0
 12 42  1  6
 13 43  1  0
 14 44  1  0
 14 45  1  0
 15 46  1  0
 15 47  1  0
 19 48  1  0
 19 49  1  0
 20 50  1  0
 20 51  1  0
 22 52  1  0
 23 53  1  0
 25 54  1  0
 26 55  1  0
 27 56  1  0
 28 57  1  0
M  END
>  <smiles>  (30) 
O=C(NCC(=O)N1CCCCC1C1CCC(F)(F)CC1)c1ccc2ccccc2n1

>  <score_type>  (30) 
oracle

>  <origin>  (30) 
autodockgpu

>  <m_score__min__energy>  (30) 
-9.3200000000000003

>  <m_primary>  (30) 
energy

>  <rmsd>  (30) 
1.5800711704390775

>  <m_score__min__rmsd>  (30) 
1.5800711704390775

>  <meeko>  (30) 
{"free_energy": -9.29, "intermolecular_energy": -10.78, "internal_energy": -1.39, "cluster_size": 34, "cluster_id": 1, "rank_in_cluster": 2}

>  <energy>  (30) 
-8.55

>  <cluster_rmsd>  (30) 
0.91

>  <cluster>  (30) 
1

$$$$

     RDKit          3D

 57 60  0  0  0  0  0  0  0  0999 V2000
  139.9250   71.3870  221.2600 O   0  0  0  0  0  0  0  0  0  0  0  0
  139.8190   72.0500  222.3470 C   0  0  0  0  0  0  0  0  0  0  0  0
  139.6260   73.4530  222.3650 N   0  0  0  0  0  0  0  0  0  0  0  0
  139.5350   74.2410  221.1510 C   0  0  0  0  0  0  0  0  0  0  0  0
  139.9590   75.6600  221.4520 C   0  0  0  0  0  0  0  0  0  0  0  0
  139.8950   75.9650  222.6670 O   0  0  0  0  0  0  0  0  0  0  0  0
  140.3680   76.4760  220.4000 N   0  0  0  0  0  0  0  0  0  0  0  0
  139.8960   76.0760  219.0270 C   0  0  0  0  0  0  0  0  0  0  0  0
  141.1130   76.1340  218.1510 C   0  0  0  0  0  0  0  0  0  0  0  0
  142.4280   76.3430  218.7780 C   0  0  0  0  0  0  0  0  0  0  0  0
  142.5510   77.0430  220.0780 C   0  0  0  0  0  0  0  0  0  0  0  0
  141.1890   77.6420  220.3990 C   0  0  2  0  0  0  0  0  0  0  0  0
  141.1590   78.6570  221.4290 C   0  0  0  0  0  0  0  0  0  0  0  0
  141.7910   78.4260  222.7690 C   0  0  0  0  0  0  0  0  0  0  0  0
  142.3020   79.8090  223.2410 C   0  0  0  0  0  0  0  0  0  0  0  0
  141.2030   80.7890  223.0690 C   0  0  0  0  0  0  0  0  0  0  0  0
  141.4620   81.7270  222.0790 F   0  0  0  0  0  0  0  0  0  0  0  0
  141.1480   81.5410  224.2520 F   0  0  0  0  0  0  0  0  0  0  0  0
  139.8440   80.2250  222.8520 C   0  0  0  0  0  0  0  0  0  0  0  0
  139.7840   79.3090  221.6350 C   0  0  0  0  0  0  0  0  0  0  0  0
  139.9050   71.3060  223.6200 C   0  0  0  0  0  0  0  0  0  0  0  0
  139.5090   70.0000  223.6990 C   0  0  0  0  0  0  0  0  0  0  0  0
  139.5980   69.3260  224.9000 C   0  0  0  0  0  0  0  0  0  0  0  0
  140.0790   69.9400  226.0340 C   0  0  0  0  0  0  0  0  0  0  0  0
  140.1620   69.2610  227.2200 C   0  0  0  0  0  0  0  0  0  0  0  0
  140.6460   69.9060  228.3220 C   0  0  0  0  0  0  0  0  0  0  0  0
  141.0460   71.2320  228.2400 C   0  0  0  0  0  0  0  0  0  0  0  0
  140.9620   71.9210  227.0370 C   0  0  0  0  0  0  0  0  0  0  0  0
  140.4720   71.2620  225.9260 C   0  0  0  0  0  0  0  0  0  0  0  0
  140.3720   71.8840  224.7460 N   0  0  0  0  0  0  0  0  0  0  0  0
  139.5520   73.9020  223.3270 H   0  0  0  0  0  0  0  0  0  0  0  0
  140.1968   73.8134  220.3834 H   0  0  0  0  0  0  0  0  0  0  0  0
  138.4995   74.2335  220.7801 H   0  0  0  0  0  0  0  0  0  0  0  0
  139.4833   75.0565  219.0444 H   0  0  0  0  0  0  0  0  0  0  0  0
  139.0982   76.7389  218.6609 H   0  0  0  0  0  0  0  0  0  0  0  0
  141.1634   75.1810  217.6039 H   0  0  0  0  0  0  0  0  0  0  0  0
  140.9609   77.0384  217.5436 H   0  0  0  0  0  0  0  0  0  0  0  0
  142.8703   75.3455  218.9169 H   0  0  0  0  0  0  0  0  0  0  0  0
  142.9203   77.0378  218.0817 H   0  0  0  0  0  0  0  0  0  0  0  0
  142.8436   76.3304  220.8632 H   0  0  0  0  0  0  0  0  0  0  0  0
  143.3199   77.8280  220.0269 H   0  0  0  0  0  0  0  0  0  0  0  0
  140.7655   78.3652  219.6865 H   0  0  0  0  0  0  0  0  0  0  0  0
  141.8704   79.3340  220.9334 H   0  0  0  0  0  0  0  0  0  0  0  0
  141.0497   78.0294  223.4784 H   0  0  0  0  0  0  0  0  0  0  0  0
  142.6084   77.6923  222.7090 H   0  0  0  0  0  0  0  0  0  0  0  0
  142.5931   79.7573  224.3005 H   0  0  0  0  0  0  0  0  0  0  0  0
  143.1794   80.1128  222.6512 H   0  0  0  0  0  0  0  0  0  0  0  0
  139.5541   79.6486  223.7429 H   0  0  0  0  0  0  0  0  0  0  0  0
  139.1561   81.0648  222.6747 H   0  0  0  0  0  0  0  0  0  0  0  0
  139.0268   78.5281  221.7986 H   0  0  0  0  0  0  0  0  0  0  0  0
  139.5139   79.8941  220.7436 H   0  0  0  0  0  0  0  0  0  0  0  0
  139.1201   69.4872  222.8069 H   0  0  0  0  0  0  0  0  0  0  0  0
  139.2775   68.2750  224.9521 H   0  0  0  0  0  0  0  0  0  0  0  0
  139.8432   68.2102  227.2843 H   0  0  0  0  0  0  0  0  0  0  0  0
  140.7192   69.3711  229.2804 H   0  0  0  0  0  0  0  0  0  0  0  0
  141.4327   71.7416  229.1348 H   0  0  0  0  0  0  0  0  0  0  0  0
  141.2798   72.9720  226.9700 H   0  0  0  0  0  0  0  0  0  0  0  0
  1  2  2  0
  2  3  1  0
  3  4  1  0
  4  5  1  0
  5  6  2  0
  5  7  1  0
  7  8  1  0
  8  9  1  0
  9 10  1  0
 10 11  1  0
 11 12  1  0
 12 13  1  0
 13 14  1  0
 14 15  1  0
 15 16  1  0
 16 17  1  0
 16 18  1  0
 16 19  1  0
 19 20  1  0
  2 21  1  0
 21 22  2  0
 22 23  1  0
 23 24  2  0
 24 25  1  0
 25 26  2  0
 26 27  1  0
 27 28  2  0
 28 29  1  0
 29 30  2  0
 12  7  1  0
 20 13  1  0
 30 21  1  0
 29 24  1  0
  3 31  1  0
  4 32  1  0
  4 33  1  0
  8 34  1  0
  8 35  1  0
  9 36  1  0
  9 37  1  0
 10 38  1  0
 10 39  1  0
 11 40  1  0
 11 41  1  0
 12 42  1  6
 13 43  1  0
 14 44  1  0
 14 45  1  0
 15 46  1  0
 15 47  1  0
 19 48  1  0
 19 49  1  0
 20 50  1  0
 20 51  1  0
 22 52  1  0
 23 53  1  0
 25 54  1  0
 26 55  1  0
 27 56  1  0
 28 57  1  0
M  END
>  <smiles>  (31) 
O=C(NCC(=O)N1CCCCC1C1CCC(F)(F)CC1)c1ccc2ccccc2n1

>  <score_type>  (31) 
oracle

>  <origin>  (31) 
autodockgpu

>  <m_score__min__energy>  (31) 
-9.3200000000000003

>  <m_primary>  (31) 
energy

>  <rmsd>  (31) 
1.5402064051034043

>  <m_score__min__rmsd>  (31) 
1.5402064051034043

>  <meeko>  (31) 
{"free_energy": -8.53, "intermolecular_energy": -10.02, "internal_energy": -2.16, "cluster_size": 34, "cluster_id": 1, "rank_in_cluster": 31}

>  <energy>  (31) 
-8.53

>  <cluster_rmsd>  (31) 
0.92

>  <cluster>  (31) 
1

$$$$

     RDKit          3D

 57 60  0  0  0  0  0  0  0  0999 V2000
  138.9440   75.0890  221.7720 O   0  0  0  0  0  0  0  0  0  0  0  0
  140.1120   75.5710  221.9620 C   0  0  0  0  0  0  0  0  0  0  0  0
  141.2880   74.7960  221.8020 N   0  0  0  0  0  0  0  0  0  0  0  0
  141.2520   73.4010  221.4120 C   0  0  0  0  0  0  0  0  0  0  0  0
  141.4850   73.3000  219.9220 C   0  0  0  0  0  0  0  0  0  0  0  0
  140.4530   73.0360  219.2610 O   0  0  0  0  0  0  0  0  0  0  0  0
  142.7730   73.5000  219.4290 N   0  0  0  0  0  0  0  0  0  0  0  0
  143.5780   72.2580  219.1540 C   0  0  0  0  0  0  0  0  0  0  0  0
  144.9200   72.5030  219.7790 C   0  0  0  0  0  0  0  0  0  0  0  0
  145.0990   73.6910  220.6300 C   0  0  0  0  0  0  0  0  0  0  0  0
  144.2600   74.8970  220.4430 C   0  0  0  0  0  0  0  0  0  0  0  0
  143.4790   74.7070  219.1500 C   0  0  2  0  0  0  0  0  0  0  0  0
  142.8700   75.8920  218.5860 C   0  0  0  0  0  0  0  0  0  0  0  0
  142.3980   77.0160  219.4580 C   0  0  0  0  0  0  0  0  0  0  0  0
  142.6020   78.3090  218.6310 C   0  0  0  0  0  0  0  0  0  0  0  0
  142.0250   78.0890  217.2830 C   0  0  0  0  0  0  0  0  0  0  0  0
  142.9850   78.0420  216.2830 F   0  0  0  0  0  0  0  0  0  0  0  0
  141.2660   79.2290  216.9810 F   0  0  0  0  0  0  0  0  0  0  0  0
  141.1200   76.9170  217.1370 C   0  0  0  0  0  0  0  0  0  0  0  0
  141.8010   75.6080  217.5210 C   0  0  0  0  0  0  0  0  0  0  0  0
  140.2180   76.9880  222.3630 C   0  0  0  0  0  0  0  0  0  0  0  0
  139.0990   77.7430  222.5790 C   0  0  0  0  0  0  0  0  0  0  0  0
  139.2230   79.0660  222.9520 C   0  0  0  0  0  0  0  0  0  0  0  0
  140.4570   79.6530  223.1150 C   0  0  0  0  0  0  0  0  0  0  0  0
  140.5680   80.9660  223.4860 C   0  0  0  0  0  0  0  0  0  0  0  0
  141.8100   81.5110  223.6370 C   0  0  0  0  0  0  0  0  0  0  0  0
  142.9450   80.7430  223.4180 C   0  0  0  0  0  0  0  0  0  0  0  0
  142.8330   79.4110  223.0420 C   0  0  0  0  0  0  0  0  0  0  0  0
  141.5730   78.8660  222.8900 C   0  0  0  0  0  0  0  0  0  0  0  0
  141.4150   77.5880  222.5290 N   0  0  0  0  0  0  0  0  0  0  0  0
  142.2070   75.2990  221.9870 H   0  0  0  0  0  0  0  0  0  0  0  0
  142.0386   72.8483  221.9465 H   0  0  0  0  0  0  0  0  0  0  0  0
  140.2721   72.9698  221.6648 H   0  0  0  0  0  0  0  0  0  0  0  0
  143.0968   71.3796  219.6088 H   0  0  0  0  0  0  0  0  0  0  0  0
  143.6609   72.0560  218.0759 H   0  0  0  0  0  0  0  0  0  0  0  0
  145.1541   71.6239  220.3974 H   0  0  0  0  0  0  0  0  0  0  0  0
  145.5836   72.6873  218.9213 H   0  0  0  0  0  0  0  0  0  0  0  0
  144.9428   73.3592  221.6671 H   0  0  0  0  0  0  0  0  0  0  0  0
  146.0997   74.0458  220.3425 H   0  0  0  0  0  0  0  0  0  0  0  0
  143.5662   75.0082  221.2893 H   0  0  0  0  0  0  0  0  0  0  0  0
  144.8833   75.8020  220.3929 H   0  0  0  0  0  0  0  0  0  0  0  0
  144.0509   74.5689  218.2205 H   0  0  0  0  0  0  0  0  0  0  0  0
  143.7973   76.2912  218.1492 H   0  0  0  0  0  0  0  0  0  0  0  0
  141.3348   76.8856  219.7083 H   0  0  0  0  0  0  0  0  0  0  0  0
  142.9533   77.0516  220.4069 H   0  0  0  0  0  0  0  0  0  0  0  0
  142.0915   79.1504  219.1224 H   0  0  0  0  0  0  0  0  0  0  0  0
  143.6732   78.5467  218.5530 H   0  0  0  0  0  0  0  0  0  0  0  0
  140.2440   77.0636  217.7860 H   0  0  0  0  0  0  0  0  0  0  0  0
  140.8289   76.8467  216.0785 H   0  0  0  0  0  0  0  0  0  0  0  0
  141.0542   74.9091  217.9257 H   0  0  0  0  0  0  0  0  0  0  0  0
  142.2717   75.1605  216.6332 H   0  0  0  0  0  0  0  0  0  0  0  0
  138.1012   77.2967  222.4557 H   0  0  0  0  0  0  0  0  0  0  0  0
  138.3158   79.6642  223.1227 H   0  0  0  0  0  0  0  0  0  0  0  0
  139.6679   81.5738  223.6601 H   0  0  0  0  0  0  0  0  0  0  0  0
  141.9121   82.5652  223.9340 H   0  0  0  0  0  0  0  0  0  0  0  0
  143.9410   81.1929  223.5432 H   0  0  0  0  0  0  0  0  0  0  0  0
  143.7316   78.8008  222.8683 H   0  0  0  0  0  0  0  0  0  0  0  0
  1  2  2  0
  2  3  1  0
  3  4  1  0
  4  5  1  0
  5  6  2  0
  5  7  1  0
  7  8  1  0
  8  9  1  0
  9 10  1  0
 10 11  1  0
 11 12  1  0
 12 13  1  0
 13 14  1  0
 14 15  1  0
 15 16  1  0
 16 17  1  0
 16 18  1  0
 16 19  1  0
 19 20  1  0
  2 21  1  0
 21 22  2  0
 22 23  1  0
 23 24  2  0
 24 25  1  0
 25 26  2  0
 26 27  1  0
 27 28  2  0
 28 29  1  0
 29 30  2  0
 12  7  1  0
 20 13  1  0
 30 21  1  0
 29 24  1  0
  3 31  1  0
  4 32  1  0
  4 33  1  0
  8 34  1  0
  8 35  1  0
  9 36  1  0
  9 37  1  0
 10 38  1  0
 10 39  1  0
 11 40  1  0
 11 41  1  0
 12 42  1  6
 13 43  1  0
 14 44  1  0
 14 45  1  0
 15 46  1  0
 15 47  1  0
 19 48  1  0
 19 49  1  0
 20 50  1  0
 20 51  1  0
 22 52  1  0
 23 53  1  0
 25 54  1  0
 26 55  1  0
 27 56  1  0
 28 57  1  0
M  END
>  <smiles>  (32) 
O=C(NCC(=O)N1CCCCC1C1CCC(F)(F)CC1)c1ccc2ccccc2n1

>  <score_type>  (32) 
oracle

>  <origin>  (32) 
autodockgpu

>  <m_score__min__energy>  (32) 
-9.3200000000000003

>  <m_primary>  (32) 
energy

>  <rmsd>  (32) 
7.535299829228614

>  <m_score__min__rmsd>  (32) 
7.535299829228614

>  <meeko>  (32) 
{"free_energy": -6.88, "intermolecular_energy": -8.37, "internal_energy": -2.61, "cluster_size": 1, "cluster_id": 4, "rank_in_cluster": 1}

>  <energy>  (32) 
-8.48

>  <cluster_rmsd>  (32) 
0.9

>  <cluster>  (32) 
1

$$$$

     RDKit          3D

 57 60  0  0  0  0  0  0  0  0999 V2000
  139.9190   71.3620  221.2710 O   0  0  0  0  0  0  0  0  0  0  0  0
  139.8180   72.0260  222.3580 C   0  0  0  0  0  0  0  0  0  0  0  0
  139.6250   73.4300  222.3750 N   0  0  0  0  0  0  0  0  0  0  0  0
  139.5280   74.2160  221.1610 C   0  0  0  0  0  0  0  0  0  0  0  0
  139.9900   75.6260  221.4490 C   0  0  0  0  0  0  0  0  0  0  0  0
  139.9400   75.9410  222.6610 O   0  0  0  0  0  0  0  0  0  0  0  0
  140.4160   76.4230  220.3880 N   0  0  0  0  0  0  0  0  0  0  0  0
  139.9340   76.0190  219.0200 C   0  0  0  0  0  0  0  0  0  0  0  0
  141.1510   76.0420  218.1420 C   0  0  0  0  0  0  0  0  0  0  0  0
  142.4710   76.2290  218.7660 C   0  0  0  0  0  0  0  0  0  0  0  0
  142.6110   76.9370  220.0590 C   0  0  0  0  0  0  0  0  0  0  0  0
  141.2630   77.5700  220.3750 C   0  0  2  0  0  0  0  0  0  0  0  0
  141.2570   78.5950  221.3960 C   0  0  0  0  0  0  0  0  0  0  0  0
  141.4750   78.2580  222.8400 C   0  0  0  0  0  0  0  0  0  0  0  0
  142.2030   79.4790  223.4550 C   0  0  0  0  0  0  0  0  0  0  0  0
  141.4660   80.7020  223.0550 C   0  0  0  0  0  0  0  0  0  0  0  0
  142.1840   81.5040  222.1790 F   0  0  0  0  0  0  0  0  0  0  0  0
  141.3330   81.4850  224.2110 F   0  0  0  0  0  0  0  0  0  0  0  0
  140.0970   80.4990  222.5100 C   0  0  0  0  0  0  0  0  0  0  0  0
  140.0890   79.5860  221.2890 C   0  0  0  0  0  0  0  0  0  0  0  0
  139.9100   71.2850  223.6320 C   0  0  0  0  0  0  0  0  0  0  0  0
  139.5250   69.9750  223.7120 C   0  0  0  0  0  0  0  0  0  0  0  0
  139.6190   69.3020  224.9130 C   0  0  0  0  0  0  0  0  0  0  0  0
  140.0960   69.9220  226.0460 C   0  0  0  0  0  0  0  0  0  0  0  0
  140.1840   69.2440  227.2330 C   0  0  0  0  0  0  0  0  0  0  0  0
  140.6630   69.8940  228.3350 C   0  0  0  0  0  0  0  0  0  0  0  0
  141.0530   71.2230  228.2510 C   0  0  0  0  0  0  0  0  0  0  0  0
  140.9630   71.9100  227.0480 C   0  0  0  0  0  0  0  0  0  0  0  0
  140.4780   71.2470  225.9370 C   0  0  0  0  0  0  0  0  0  0  0  0
  140.3730   71.8670  224.7570 N   0  0  0  0  0  0  0  0  0  0  0  0
  139.5550   73.8800  223.3370 H   0  0  0  0  0  0  0  0  0  0  0  0
  140.1646   73.7713  220.3819 H   0  0  0  0  0  0  0  0  0  0  0  0
  138.4855   74.2310  220.8105 H   0  0  0  0  0  0  0  0  0  0  0  0
  139.4997   75.0087  219.0484 H   0  0  0  0  0  0  0  0  0  0  0  0
  139.1500   76.6949  218.6479 H   0  0  0  0  0  0  0  0  0  0  0  0
  141.1803   75.0827  217.6045 H   0  0  0  0  0  0  0  0  0  0  0  0
  141.0177   76.9431  217.5254 H   0  0  0  0  0  0  0  0  0  0  0  0
  142.8925   75.2236  218.9130 H   0  0  0  0  0  0  0  0  0  0  0  0
  142.9763   76.9077  218.0632 H   0  0  0  0  0  0  0  0  0  0  0  0
  142.8875   76.2248  220.8504 H   0  0  0  0  0  0  0  0  0  0  0  0
  143.3978   77.7035  220.0008 H   0  0  0  0  0  0  0  0  0  0  0  0
  140.8556   78.2957  219.6557 H   0  0  0  0  0  0  0  0  0  0  0  0
  142.2156   79.0467  221.1010 H   0  0  0  0  0  0  0  0  0  0  0  0
  140.5114   78.0931  223.3442 H   0  0  0  0  0  0  0  0  0  0  0  0
  142.0639   77.3361  222.9554 H   0  0  0  0  0  0  0  0  0  0  0  0
  142.2154   79.3927  224.5515 H   0  0  0  0  0  0  0  0  0  0  0  0
  143.2419   79.5247  223.0963 H   0  0  0  0  0  0  0  0  0  0  0  0
  139.4681   80.0489  223.2922 H   0  0  0  0  0  0  0  0  0  0  0  0
  139.7102   81.4805  222.1984 H   0  0  0  0  0  0  0  0  0  0  0  0
  139.1390   79.0329  221.2487 H   0  0  0  0  0  0  0  0  0  0  0  0
  140.1961   80.1883  220.3748 H   0  0  0  0  0  0  0  0  0  0  0  0
  139.1409   69.4585  222.8200 H   0  0  0  0  0  0  0  0  0  0  0  0
  139.3065   68.2487  224.9662 H   0  0  0  0  0  0  0  0  0  0  0  0
  139.8733   68.1908  227.2980 H   0  0  0  0  0  0  0  0  0  0  0  0
  140.7399   69.3609  229.2941 H   0  0  0  0  0  0  0  0  0  0  0  0
  141.4366   71.7364  229.1450 H   0  0  0  0  0  0  0  0  0  0  0  0
  141.2723   72.9635  226.9805 H   0  0  0  0  0  0  0  0  0  0  0  0
  1  2  2  0
  2  3  1  0
  3  4  1  0
  4  5  1  0
  5  6  2  0
  5  7  1  0
  7  8  1  0
  8  9  1  0
  9 10  1  0
 10 11  1  0
 11 12  1  0
 12 13  1  0
 13 14  1  0
 14 15  1  0
 15 16  1  0
 16 17  1  0
 16 18  1  0
 16 19  1  0
 19 20  1  0
  2 21  1  0
 21 22  2  0
 22 23  1  0
 23 24  2  0
 24 25  1  0
 25 26  2  0
 26 27  1  0
 27 28  2  0
 28 29  1  0
 29 30  2  0
 12  7  1  0
 20 13  1  0
 30 21  1  0
 29 24  1  0
  3 31  1  0
  4 32  1  0
  4 33  1  0
  8 34  1  0
  8 35  1  0
  9 36  1  0
  9 37  1  0
 10 38  1  0
 10 39  1  0
 11 40  1  0
 11 41  1  0
 12 42  1  6
 13 43  1  0
 14 44  1  0
 14 45  1  0
 15 46  1  0
 15 47  1  0
 19 48  1  0
 19 49  1  0
 20 50  1  0
 20 51  1  0
 22 52  1  0
 23 53  1  0
 25 54  1  0
 26 55  1  0
 27 56  1  0
 28 57  1  0
M  END
>  <smiles>  (33) 
O=C(NCC(=O)N1CCCCC1C1CCC(F)(F)CC1)c1ccc2ccccc2n1

>  <score_type>  (33) 
oracle

>  <origin>  (33) 
autodockgpu

>  <m_score__min__energy>  (33) 
-9.3200000000000003

>  <m_primary>  (33) 
energy

>  <rmsd>  (33) 
1.5337031386617077

>  <m_score__min__rmsd>  (33) 
1.5337031386617077

>  <meeko>  (33) 
{"free_energy": -8.7, "intermolecular_energy": -10.19, "internal_energy": -2.05, "cluster_size": 34, "cluster_id": 1, "rank_in_cluster": 24}

>  <energy>  (33) 
-8.26

>  <cluster_rmsd>  (33) 
1.9

>  <cluster>  (33) 
1

$$$$

     RDKit          3D

 57 60  0  0  0  0  0  0  0  0999 V2000
  140.3180   71.2970  221.1770 O   0  0  0  0  0  0  0  0  0  0  0  0
  140.1530   72.0090  222.2250 C   0  0  0  0  0  0  0  0  0  0  0  0
  140.0390   73.4200  222.1740 N   0  0  0  0  0  0  0  0  0  0  0  0
  140.1030   74.1610  220.9290 C   0  0  0  0  0  0  0  0  0  0  0  0
  140.6520   75.5410  221.2050 C   0  0  0  0  0  0  0  0  0  0  0  0
  141.0910   75.6930  222.3690 O   0  0  0  0  0  0  0  0  0  0  0  0
  140.6270   76.4900  220.1850 N   0  0  0  0  0  0  0  0  0  0  0  0
  139.7580   76.1660  218.9990 C   0  0  0  0  0  0  0  0  0  0  0  0
  140.6070   76.4390  217.7920 C   0  0  0  0  0  0  0  0  0  0  0  0
  142.0370   76.7350  217.9840 C   0  0  0  0  0  0  0  0  0  0  0  0
  142.5310   77.3230  219.2510 C   0  0  0  0  0  0  0  0  0  0  0  0
  141.3110   77.7360  220.0630 C   0  0  2  0  0  0  0  0  0  0  0  0
  141.5480   78.6430  221.1640 C   0  0  0  0  0  0  0  0  0  0  0  0
  140.7200   78.5860  222.4130 C   0  0  0  0  0  0  0  0  0  0  0  0
  141.6640   79.0040  223.5670 C   0  0  0  0  0  0  0  0  0  0  0  0
  142.3590   80.2500  223.1630 C   0  0  0  0  0  0  0  0  0  0  0  0
  143.7180   80.0680  222.9520 F   0  0  0  0  0  0  0  0  0  0  0  0
  142.2930   81.1200  224.2610 F   0  0  0  0  0  0  0  0  0  0  0  0
  141.7850   80.9790  222.0000 C   0  0  0  0  0  0  0  0  0  0  0  0
  141.7170   80.1120  220.7490 C   0  0  0  0  0  0  0  0  0  0  0  0
  140.0810   71.3160  223.5270 C   0  0  0  0  0  0  0  0  0  0  0  0
  139.5000   70.0830  223.6360 C   0  0  0  0  0  0  0  0  0  0  0  0
  139.4440   69.4540  224.8630 C   0  0  0  0  0  0  0  0  0  0  0  0
  139.9620   70.0430  225.9940 C   0  0  0  0  0  0  0  0  0  0  0  0
  139.9000   69.4100  227.2070 C   0  0  0  0  0  0  0  0  0  0  0  0
  140.4260   70.0260  228.3060 C   0  0  0  0  0  0  0  0  0  0  0  0
  141.0140   71.2790  228.1940 C   0  0  0  0  0  0  0  0  0  0  0  0
  141.0770   71.9200  226.9640 C   0  0  0  0  0  0  0  0  0  0  0  0
  140.5430   71.2900  225.8560 C   0  0  0  0  0  0  0  0  0  0  0  0
  140.5800   71.8700  224.6510 N   0  0  0  0  0  0  0  0  0  0  0  0
  139.9040   73.9120  223.1080 H   0  0  0  0  0  0  0  0  0  0  0  0
  140.7621   73.6367  220.2214 H   0  0  0  0  0  0  0  0  0  0  0  0
  139.0964   74.2421  220.4929 H   0  0  0  0  0  0  0  0  0  0  0  0
  139.4531   75.1094  219.0233 H   0  0  0  0  0  0  0  0  0  0  0  0
  138.8361   76.7660  218.9931 H   0  0  0  0  0  0  0  0  0  0  0  0
  140.5443   75.5517  217.1450 H   0  0  0  0  0  0  0  0  0  0  0  0
  140.1944   77.3724  217.3815 H   0  0  0  0  0  0  0  0  0  0  0  0
  142.5739   75.7843  217.8501 H   0  0  0  0  0  0  0  0  0  0  0  0
  142.2171   77.5406  217.2570 H   0  0  0  0  0  0  0  0  0  0  0  0
  143.1194   76.5786  219.8075 H   0  0  0  0  0  0  0  0  0  0  0  0
  143.1788   78.1896  219.0523 H   0  0  0  0  0  0  0  0  0  0  0  0
  140.6224   78.4696  219.6184 H   0  0  0  0  0  0  0  0  0  0  0  0
  142.4988   78.1861  221.4758 H   0  0  0  0  0  0  0  0  0  0  0  0
  139.8713   79.2822  222.3416 H   0  0  0  0  0  0  0  0  0  0  0  0
  140.3032   77.5811  222.5759 H   0  0  0  0  0  0  0  0  0  0  0  0
  141.0792   79.1826  224.4814 H   0  0  0  0  0  0  0  0  0  0  0  0
  142.3951   78.2075  223.7697 H   0  0  0  0  0  0  0  0  0  0  0  0
  140.7677   81.3094  222.2569 H   0  0  0  0  0  0  0  0  0  0  0  0
  142.4423   81.8335  221.7813 H   0  0  0  0  0  0  0  0  0  0  0  0
  140.8601   80.4215  220.1325 H   0  0  0  0  0  0  0  0  0  0  0  0
  142.6430   80.2284  220.1668 H   0  0  0  0  0  0  0  0  0  0  0  0
  139.0776   69.5929  222.7464 H   0  0  0  0  0  0  0  0  0  0  0  0
  138.9758   68.4615  224.9387 H   0  0  0  0  0  0  0  0  0  0  0  0
  139.4325   68.4182  227.2946 H   0  0  0  0  0  0  0  0  0  0  0  0
  140.3838   69.5271  229.2854 H   0  0  0  0  0  0  0  0  0  0  0  0
  141.4329   71.7673  229.0862 H   0  0  0  0  0  0  0  0  0  0  0  0
  141.5438   72.9119  226.8731 H   0  0  0  0  0  0  0  0  0  0  0  0
  1  2  2  0
  2  3  1  0
  3  4  1  0
  4  5  1  0
  5  6  2  0
  5  7  1  0
  7  8  1  0
  8  9  1  0
  9 10  1  0
 10 11  1  0
 11 12  1  0
 12 13  1  0
 13 14  1  0
 14 15  1  0
 15 16  1  0
 16 17  1  0
 16 18  1  0
 16 19  1  0
 19 20  1  0
  2 21  1  0
 21 22  2  0
 22 23  1  0
 23 24  2  0
 24 25  1  0
 25 26  2  0
 26 27  1  0
 27 28  2  0
 28 29  1  0
 29 30  2  0
 12  7  1  0
 20 13  1  0
 30 21  1  0
 29 24  1  0
  3 31  1  0
  4 32  1  0
  4 33  1  0
  8 34  1  0
  8 35  1  0
  9 36  1  0
  9 37  1  0
 10 38  1  0
 10 39  1  0
 11 40  1  0
 11 41  1  0
 12 42  1  6
 13 43  1  0
 14 44  1  0
 14 45  1  0
 15 46  1  0
 15 47  1  0
 19 48  1  0
 19 49  1  0
 20 50  1  0
 20 51  1  0
 22 52  1  0
 23 53  1  0
 25 54  1  0
 26 55  1  0
 27 56  1  0
 28 57  1  0
M  END
>  <smiles>  (34) 
O=C(NCC(=O)N1CCCCC1C1CCC(F)(F)CC1)c1ccc2ccccc2n1

>  <score_type>  (34) 
oracle

>  <origin>  (34) 
autodockgpu

>  <m_score__min__energy>  (34) 
-9.3200000000000003

>  <m_primary>  (34) 
energy

>  <rmsd>  (34) 
1.5355803253625657

>  <m_score__min__rmsd>  (34) 
1.5355803253625657

>  <meeko>  (34) 
{"free_energy": -8.82, "intermolecular_energy": -10.31, "internal_energy": -1.97, "cluster_size": 34, "cluster_id": 1, "rank_in_cluster": 20}

>  <energy>  (34) 
-8.19

>  <cluster_rmsd>  (34) 
1.11

>  <cluster>  (34) 
1

$$$$

     RDKit          3D

 57 60  0  0  0  0  0  0  0  0999 V2000
  140.2670   71.3390  221.2320 O   0  0  0  0  0  0  0  0  0  0  0  0
  140.0430   72.0210  222.2890 C   0  0  0  0  0  0  0  0  0  0  0  0
  139.7950   73.4160  222.2530 N   0  0  0  0  0  0  0  0  0  0  0  0
  139.7790   74.1710  221.0160 C   0  0  0  0  0  0  0  0  0  0  0  0
  140.1830   75.5980  221.3050 C   0  0  0  0  0  0  0  0  0  0  0  0
  140.1070   75.9150  222.5160 O   0  0  0  0  0  0  0  0  0  0  0  0
  140.5910   76.4090  220.2470 N   0  0  0  0  0  0  0  0  0  0  0  0
  140.0090   76.0800  218.8980 C   0  0  0  0  0  0  0  0  0  0  0  0
  141.1720   76.0700  217.9500 C   0  0  0  0  0  0  0  0  0  0  0  0
  142.5350   76.1630  218.5000 C   0  0  0  0  0  0  0  0  0  0  0  0
  142.7880   76.8180  219.8050 C   0  0  0  0  0  0  0  0  0  0  0  0
  141.4970   77.5090  220.2210 C   0  0  2  0  0  0  0  0  0  0  0  0
  141.6060   78.4970  221.2720 C   0  0  0  0  0  0  0  0  0  0  0  0
  140.6440   78.5190  222.4220 C   0  0  0  0  0  0  0  0  0  0  0  0
  141.4510   79.0320  223.6400 C   0  0  0  0  0  0  0  0  0  0  0  0
  142.1820   80.2540  223.2260 C   0  0  0  0  0  0  0  0  0  0  0  0
  143.5570   80.0740  223.1810 F   0  0  0  0  0  0  0  0  0  0  0  0
  141.9900   81.2000  224.2440 F   0  0  0  0  0  0  0  0  0  0  0  0
  141.7380   80.8890  221.9570 C   0  0  0  0  0  0  0  0  0  0  0  0
  141.8140   79.9340  220.7720 C   0  0  0  0  0  0  0  0  0  0  0  0
  140.0470   71.3110  223.5830 C   0  0  0  0  0  0  0  0  0  0  0  0
  139.5620   70.0370  223.6880 C   0  0  0  0  0  0  0  0  0  0  0  0
  139.5750   69.3930  224.9080 C   0  0  0  0  0  0  0  0  0  0  0  0
  140.0680   70.0070  226.0370 C   0  0  0  0  0  0  0  0  0  0  0  0
  140.0760   69.3590  227.2430 C   0  0  0  0  0  0  0  0  0  0  0  0
  140.5740   70.0020  228.3400 C   0  0  0  0  0  0  0  0  0  0  0  0
  141.0650   71.2960  228.2320 C   0  0  0  0  0  0  0  0  0  0  0  0
  141.0580   71.9530  227.0090 C   0  0  0  0  0  0  0  0  0  0  0  0
  140.5520   71.2960  225.9030 C   0  0  0  0  0  0  0  0  0  0  0  0
  140.5230   71.8890  224.7050 N   0  0  0  0  0  0  0  0  0  0  0  0
  139.6200   73.8830  223.1930 H   0  0  0  0  0  0  0  0  0  0  0  0
  140.4872   73.7246  220.3024 H   0  0  0  0  0  0  0  0  0  0  0  0
  138.7684   74.1516  220.5820 H   0  0  0  0  0  0  0  0  0  0  0  0
  139.5224   75.0937  218.9196 H   0  0  0  0  0  0  0  0  0  0  0  0
  139.2430   76.8093  218.5957 H   0  0  0  0  0  0  0  0  0  0  0  0
  141.1166   75.1309  217.3798 H   0  0  0  0  0  0  0  0  0  0  0  0
  141.0535   76.9990  217.3729 H   0  0  0  0  0  0  0  0  0  0  0  0
  142.9069   75.1317  218.5903 H   0  0  0  0  0  0  0  0  0  0  0  0
  143.0372   76.8364  217.7898 H   0  0  0  0  0  0  0  0  0  0  0  0
  143.0711   76.0654  220.5556 H   0  0  0  0  0  0  0  0  0  0  0  0
  143.6103   77.5441  219.7240 H   0  0  0  0  0  0  0  0  0  0  0  0
  141.0882   78.2799  219.5512 H   0  0  0  0  0  0  0  0  0  0  0  0
  142.5188   78.0771  221.7197 H   0  0  0  0  0  0  0  0  0  0  0  0
  139.8048   79.1966  222.2060 H   0  0  0  0  0  0  0  0  0  0  0  0
  140.2170   77.5230  222.6107 H   0  0  0  0  0  0  0  0  0  0  0  0
  140.7665   79.2693  224.4677 H   0  0  0  0  0  0  0  0  0  0  0  0
  142.1584   78.2615  223.9806 H   0  0  0  0  0  0  0  0  0  0  0  0
  140.6968   81.2236  222.0748 H   0  0  0  0  0  0  0  0  0  0  0  0
  142.4119   81.7336  221.7509 H   0  0  0  0  0  0  0  0  0  0  0  0
  141.0300   80.1878  220.0433 H   0  0  0  0  0  0  0  0  0  0  0  0
  142.7984   80.0199  220.2888 H   0  0  0  0  0  0  0  0  0  0  0  0
  139.1616   69.5257  222.8001 H   0  0  0  0  0  0  0  0  0  0  0  0
  139.1833   68.3676  224.9800 H   0  0  0  0  0  0  0  0  0  0  0  0
  139.6864   68.3338  227.3272 H   0  0  0  0  0  0  0  0  0  0  0  0
  140.5862   69.4919  229.3145 H   0  0  0  0  0  0  0  0  0  0  0  0
  141.4627   71.8048  229.1225 H   0  0  0  0  0  0  0  0  0  0  0  0
  141.4480   72.9778  226.9217 H   0  0  0  0  0  0  0  0  0  0  0  0
  1  2  2  0
  2  3  1  0
  3  4  1  0
  4  5  1  0
  5  6  2  0
  5  7  1  0
  7  8  1  0
  8  9  1  0
  9 10  1  0
 10 11  1  0
 11 12  1  0
 12 13  1  0
 13 14  1  0
 14 15  1  0
 15 16  1  0
 16 17  1  0
 16 18  1  0
 16 19  1  0
 19 20  1  0
  2 21  1  0
 21 22  2  0
 22 23  1  0
 23 24  2  0
 24 25  1  0
 25 26  2  0
 26 27  1  0
 27 28  2  0
 28 29  1  0
 29 30  2  0
 12  7  1  0
 20 13  1  0
 30 21  1  0
 29 24  1  0
  3 31  1  0
  4 32  1  0
  4 33  1  0
  8 34  1  0
  8 35  1  0
  9 36  1  0
  9 37  1  0
 10 38  1  0
 10 39  1  0
 11 40  1  0
 11 41  1  0
 12 42  1  6
 13 43  1  0
 14 44  1  0
 14 45  1  0
 15 46  1  0
 15 47  1  0
 19 48  1  0
 19 49  1  0
 20 50  1  0
 20 51  1  0
 22 52  1  0
 23 53  1  0
 25 54  1  0
 26 55  1  0
 27 56  1  0
 28 57  1  0
M  END
>  <smiles>  (35) 
O=C(NCC(=O)N1CCCCC1C1CCC(F)(F)CC1)c1ccc2ccccc2n1

>  <score_type>  (35) 
oracle

>  <origin>  (35) 
autodockgpu

>  <m_score__min__energy>  (35) 
-9.3200000000000003

>  <m_primary>  (35) 
energy

>  <rmsd>  (35) 
1.5753136741527978

>  <m_score__min__rmsd>  (35) 
1.5753136741527978

>  <meeko>  (35) 
{"free_energy": -9.14, "intermolecular_energy": -10.63, "internal_energy": -1.86, "cluster_size": 34, "cluster_id": 1, "rank_in_cluster": 5}

>  <energy>  (35) 
-9.27

>  <cluster_rmsd>  (35) 
0.0

>  <cluster>  (35) 
2

$$$$

     RDKit          3D

 57 60  0  0  0  0  0  0  0  0999 V2000
  139.2080   70.7730  221.3590 O   0  0  0  0  0  0  0  0  0  0  0  0
  139.4420   71.4870  222.3930 C   0  0  0  0  0  0  0  0  0  0  0  0
  139.5170   72.9010  222.3390 N   0  0  0  0  0  0  0  0  0  0  0  0
  139.3340   73.6420  221.1060 C   0  0  0  0  0  0  0  0  0  0  0  0
  140.3500   74.7590  221.0480 C   0  0  0  0  0  0  0  0  0  0  0  0
  140.6520   75.2330  222.1680 O   0  0  0  0  0  0  0  0  0  0  0  0
  140.8460   75.1510  219.8050 N   0  0  0  0  0  0  0  0  0  0  0  0
  140.2150   76.3730  219.1950 C   0  0  0  0  0  0  0  0  0  0  0  0
  139.9100   76.0020  217.7740 C   0  0  0  0  0  0  0  0  0  0  0  0
  140.0750   74.5990  217.3580 C   0  0  0  0  0  0  0  0  0  0  0  0
  141.0260   73.7020  218.0560 C   0  0  0  0  0  0  0  0  0  0  0  0
  141.8600   74.5690  218.9890 C   0  0  2  0  0  0  0  0  0  0  0  0
  143.0750   73.9750  219.5030 C   0  0  0  0  0  0  0  0  0  0  0  0
  143.0380   72.7670  220.3900 C   0  0  0  0  0  0  0  0  0  0  0  0
  144.3250   71.9670  220.0710 C   0  0  0  0  0  0  0  0  0  0  0  0
  145.4710   72.9070  220.1030 C   0  0  0  0  0  0  0  0  0  0  0  0
  146.0370   73.1130  218.8530 F   0  0  0  0  0  0  0  0  0  0  0  0
  146.4830   72.2800  220.8430 F   0  0  0  0  0  0  0  0  0  0  0  0
  145.2230   74.2270  220.7430 C   0  0  0  0  0  0  0  0  0  0  0  0
  144.0760   74.9850  220.0830 C   0  0  0  0  0  0  0  0  0  0  0  0
  139.6400   70.7930  223.6810 C   0  0  0  0  0  0  0  0  0  0  0  0
  139.3100   69.4740  223.8270 C   0  0  0  0  0  0  0  0  0  0  0  0
  139.5030   68.8460  225.0400 C   0  0  0  0  0  0  0  0  0  0  0  0
  140.0250   69.5200  226.1210 C   0  0  0  0  0  0  0  0  0  0  0  0
  140.2120   68.8860  227.3210 C   0  0  0  0  0  0  0  0  0  0  0  0
  140.7320   69.5890  228.3690 C   0  0  0  0  0  0  0  0  0  0  0  0
  141.0660   70.9280  228.2200 C   0  0  0  0  0  0  0  0  0  0  0  0
  140.8760   71.5700  227.0030 C   0  0  0  0  0  0  0  0  0  0  0  0
  140.3500   70.8530  225.9460 C   0  0  0  0  0  0  0  0  0  0  0  0
  140.1490   71.4290  224.7560 N   0  0  0  0  0  0  0  0  0  0  0  0
  139.7180   73.3930  223.2600 H   0  0  0  0  0  0  0  0  0  0  0  0
  139.4757   72.9696  220.2471 H   0  0  0  0  0  0  0  0  0  0  0  0
  138.3178   74.0618  221.0720 H   0  0  0  0  0  0  0  0  0  0  0  0
  139.2906   76.6357  219.7302 H   0  0  0  0  0  0  0  0  0  0  0  0
  140.8800   77.2472  219.2539 H   0  0  0  0  0  0  0  0  0  0  0  0
  138.8608   76.2739  217.5865 H   0  0  0  0  0  0  0  0  0  0  0  0
  140.6665   76.5448  217.1882 H   0  0  0  0  0  0  0  0  0  0  0  0
  139.0837   74.1295  217.4416 H   0  0  0  0  0  0  0  0  0  0  0  0
  140.5229   74.6947  216.3579 H   0  0  0  0  0  0  0  0  0  0  0  0
  140.4753   72.9463  218.6354 H   0  0  0  0  0  0  0  0  0  0  0  0
  141.6678   73.1755  217.3343 H   0  0  0  0  0  0  0  0  0  0  0  0
  142.4545   75.3798  218.5427 H   0  0  0  0  0  0  0  0  0  0  0  0
  143.4088   73.5631  218.5392 H   0  0  0  0  0  0  0  0  0  0  0  0
  143.0275   73.0690  221.4477 H   0  0  0  0  0  0  0  0  0  0  0  0
  142.1342   72.1648  220.2150 H   0  0  0  0  0  0  0  0  0  0  0  0
  144.4693   71.1774  220.8231 H   0  0  0  0  0  0  0  0  0  0  0  0
  144.2455   71.4964  219.0800 H   0  0  0  0  0  0  0  0  0  0  0  0
  144.9765   74.0653  221.8028 H   0  0  0  0  0  0  0  0  0  0  0  0
  146.1347   74.8319  220.6298 H   0  0  0  0  0  0  0  0  0  0  0  0
  143.5722   75.6151  220.8308 H   0  0  0  0  0  0  0  0  0  0  0  0
  144.4682   75.6229  219.2772 H   0  0  0  0  0  0  0  0  0  0  0  0
  138.8910   68.9142  222.9779 H   0  0  0  0  0  0  0  0  0  0  0  0
  139.2342   67.7846  225.1457 H   0  0  0  0  0  0  0  0  0  0  0  0
  139.9467   67.8249  227.4383 H   0  0  0  0  0  0  0  0  0  0  0  0
  140.8873   69.0914  229.3376 H   0  0  0  0  0  0  0  0  0  0  0  0
  141.4841   71.4846  229.0717 H   0  0  0  0  0  0  0  0  0  0  0  0
  141.1399   72.6311  226.8830 H   0  0  0  0  0  0  0  0  0  0  0  0
  1  2  2  0
  2  3  1  0
  3  4  1  0
  4  5  1  0
  5  6  2  0
  5  7  1  0
  7  8  1  0
  8  9  1  0
  9 10  1  0
 10 11  1  0
 11 12  1  0
 12 13  1  0
 13 14  1  0
 14 15  1  0
 15 16  1  0
 16 17  1  0
 16 18  1  0
 16 19  1  0
 19 20  1  0
  2 21  1  0
 21 22  2  0
 22 23  1  0
 23 24  2  0
 24 25  1  0
 25 26  2  0
 26 27  1  0
 27 28  2  0
 28 29  1  0
 29 30  2  0
 12  7  1  0
 20 13  1  0
 30 21  1  0
 29 24  1  0
  3 31  1  0
  4 32  1  0
  4 33  1  0
  8 34  1  0
  8 35  1  0
  9 36  1  0
  9 37  1  0
 10 38  1  0
 10 39  1  0
 11 40  1  0
 11 41  1  0
 12 42  1  6
 13 43  1  0
 14 44  1  0
 14 45  1  0
 15 46  1  0
 15 47  1  0
 19 48  1  0
 19 49  1  0
 20 50  1  0
 20 51  1  0
 22 52  1  0
 23 53  1  0
 25 54  1  0
 26 55  1  0
 27 56  1  0
 28 57  1  0
M  END
>  <smiles>  (36) 
O=C(NCC(=O)N1CCCCC1C1CCC(F)(F)CC1)c1ccc2ccccc2n1

>  <score_type>  (36) 
oracle

>  <origin>  (36) 
autodockgpu

>  <m_score__min__energy>  (36) 
-9.3200000000000003

>  <m_primary>  (36) 
energy

>  <rmsd>  (36) 
1.8587845674343721

>  <m_score__min__rmsd>  (36) 
1.8587845674343721

>  <meeko>  (36) 
{"free_energy": -7.72, "intermolecular_energy": -9.21, "internal_energy": -2.26, "cluster_size": 11, "cluster_id": 3, "rank_in_cluster": 11}

>  <energy>  (36) 
-8.89

>  <cluster_rmsd>  (36) 
0.95

>  <cluster>  (36) 
2

$$$$

     RDKit          3D

 57 60  0  0  0  0  0  0  0  0999 V2000
  140.0370   71.3740  221.2500 O   0  0  0  0  0  0  0  0  0  0  0  0
  139.8870   72.0420  222.3300 C   0  0  0  0  0  0  0  0  0  0  0  0
  139.6770   73.4430  222.3320 N   0  0  0  0  0  0  0  0  0  0  0  0
  139.6170   74.2220  221.1110 C   0  0  0  0  0  0  0  0  0  0  0  0
  140.1770   75.6000  221.3770 C   0  0  0  0  0  0  0  0  0  0  0  0
  140.2750   75.8840  222.5940 O   0  0  0  0  0  0  0  0  0  0  0  0
  140.5230   76.4050  220.2940 N   0  0  0  0  0  0  0  0  0  0  0  0
  139.8710   76.0670  218.9800 C   0  0  0  0  0  0  0  0  0  0  0  0
  140.9810   76.0550  217.9710 C   0  0  0  0  0  0  0  0  0  0  0  0
  142.3710   76.1560  218.4460 C   0  0  0  0  0  0  0  0  0  0  0  0
  142.6920   76.8190  219.7310 C   0  0  0  0  0  0  0  0  0  0  0  0
  141.4230   77.5090  220.2120 C   0  0  2  0  0  0  0  0  0  0  0  0
  141.5850   78.5030  221.2510 C   0  0  0  0  0  0  0  0  0  0  0  0
  140.6500   78.5670  222.4210 C   0  0  0  0  0  0  0  0  0  0  0  0
  141.4990   79.0660  223.6160 C   0  0  0  0  0  0  0  0  0  0  0  0
  142.2570   80.2600  223.1730 C   0  0  0  0  0  0  0  0  0  0  0  0
  143.6250   80.0370  223.1000 F   0  0  0  0  0  0  0  0  0  0  0  0
  142.1170   81.2220  224.1850 F   0  0  0  0  0  0  0  0  0  0  0  0
  141.8060   80.8970  221.9070 C   0  0  0  0  0  0  0  0  0  0  0  0
  141.8260   79.9270  220.7310 C   0  0  0  0  0  0  0  0  0  0  0  0
  139.9400   71.3080  223.6100 C   0  0  0  0  0  0  0  0  0  0  0  0
  139.5190   70.0100  223.6930 C   0  0  0  0  0  0  0  0  0  0  0  0
  139.5770   69.3430  224.9000 C   0  0  0  0  0  0  0  0  0  0  0  0
  140.0520   69.9590  226.0370 C   0  0  0  0  0  0  0  0  0  0  0  0
  140.1040   69.2880  227.2290 C   0  0  0  0  0  0  0  0  0  0  0  0
  140.5830   69.9330  228.3330 C   0  0  0  0  0  0  0  0  0  0  0  0
  141.0090   71.2510  228.2470 C   0  0  0  0  0  0  0  0  0  0  0  0
  140.9560   71.9310  227.0370 C   0  0  0  0  0  0  0  0  0  0  0  0
  140.4710   71.2720  225.9240 C   0  0  0  0  0  0  0  0  0  0  0  0
  140.4000   71.8860  224.7380 N   0  0  0  0  0  0  0  0  0  0  0  0
  139.5660   73.8970  223.2880 H   0  0  0  0  0  0  0  0  0  0  0  0
  140.2114   73.7273  220.3287 H   0  0  0  0  0  0  0  0  0  0  0  0
  138.5730   74.3044  220.7743 H   0  0  0  0  0  0  0  0  0  0  0  0
  139.3894   75.0795  219.0330 H   0  0  0  0  0  0  0  0  0  0  0  0
  139.0878   76.7927  218.7153 H   0  0  0  0  0  0  0  0  0  0  0  0
  140.8984   75.1122  217.4103 H   0  0  0  0  0  0  0  0  0  0  0  0
  140.8281   76.9799  217.3956 H   0  0  0  0  0  0  0  0  0  0  0  0
  142.7511   75.1266  218.5218 H   0  0  0  0  0  0  0  0  0  0  0  0
  142.8312   76.8273  217.7060 H   0  0  0  0  0  0  0  0  0  0  0  0
  143.0175   76.0716  220.4695 H   0  0  0  0  0  0  0  0  0  0  0  0
  143.5067   77.5467  219.6017 H   0  0  0  0  0  0  0  0  0  0  0  0
  140.9769   78.2748  219.5604 H   0  0  0  0  0  0  0  0  0  0  0  0
  142.4929   78.0583  221.6845 H   0  0  0  0  0  0  0  0  0  0  0  0
  139.8281   79.2688  222.2160 H   0  0  0  0  0  0  0  0  0  0  0  0
  140.1962   77.5869  222.6294 H   0  0  0  0  0  0  0  0  0  0  0  0
  140.8407   79.3324  224.4561 H   0  0  0  0  0  0  0  0  0  0  0  0
  142.1895   78.2774  223.9496 H   0  0  0  0  0  0  0  0  0  0  0  0
  140.7788   81.2662  222.0433 H   0  0  0  0  0  0  0  0  0  0  0  0
  142.5013   81.7179  221.6775 H   0  0  0  0  0  0  0  0  0  0  0  0
  141.0342   80.1974  220.0169 H   0  0  0  0  0  0  0  0  0  0  0  0
  142.8018   79.9770  220.2256 H   0  0  0  0  0  0  0  0  0  0  0  0
  139.1344   69.4977  222.7988 H   0  0  0  0  0  0  0  0  0  0  0  0
  139.2370   68.2983  224.9552 H   0  0  0  0  0  0  0  0  0  0  0  0
  139.7647   68.2438  227.2965 H   0  0  0  0  0  0  0  0  0  0  0  0
  140.6315   69.4047  229.2966 H   0  0  0  0  0  0  0  0  0  0  0  0
  141.3914   71.7608  229.1436 H   0  0  0  0  0  0  0  0  0  0  0  0
  141.2941   72.9754  226.9663 H   0  0  0  0  0  0  0  0  0  0  0  0
  1  2  2  0
  2  3  1  0
  3  4  1  0
  4  5  1  0
  5  6  2  0
  5  7  1  0
  7  8  1  0
  8  9  1  0
  9 10  1  0
 10 11  1  0
 11 12  1  0
 12 13  1  0
 13 14  1  0
 14 15  1  0
 15 16  1  0
 16 17  1  0
 16 18  1  0
 16 19  1  0
 19 20  1  0
  2 21  1  0
 21 22  2  0
 22 23  1  0
 23 24  2  0
 24 25  1  0
 25 26  2  0
 26 27  1  0
 27 28  2  0
 28 29  1  0
 29 30  2  0
 12  7  1  0
 20 13  1  0
 30 21  1  0
 29 24  1  0
  3 31  1  0
  4 32  1  0
  4 33  1  0
  8 34  1  0
  8 35  1  0
  9 36  1  0
  9 37  1  0
 10 38  1  0
 10 39  1  0
 11 40  1  0
 11 41  1  0
 12 42  1  6
 13 43  1  0
 14 44  1  0
 14 45  1  0
 15 46  1  0
 15 47  1  0
 19 48  1  0
 19 49  1  0
 20 50  1  0
 20 51  1  0
 22 52  1  0
 23 53  1  0
 25 54  1  0
 26 55  1  0
 27 56  1  0
 28 57  1  0
M  END
>  <smiles>  (37) 
O=C(NCC(=O)N1CCCCC1C1CCC(F)(F)CC1)c1ccc2ccccc2n1

>  <score_type>  (37) 
oracle

>  <origin>  (37) 
autodockgpu

>  <m_score__min__energy>  (37) 
-9.3200000000000003

>  <m_primary>  (37) 
energy

>  <rmsd>  (37) 
1.5028239018041991

>  <m_score__min__rmsd>  (37) 
1.5028239018041991

>  <meeko>  (37) 
{"free_energy": -9.1, "intermolecular_energy": -10.59, "internal_energy": -1.92, "cluster_size": 34, "cluster_id": 1, "rank_in_cluster": 11}

>  <energy>  (37) 
-8.45

>  <cluster_rmsd>  (37) 
0.84

>  <cluster>  (37) 
2

$$$$

     RDKit          3D

 57 60  0  0  0  0  0  0  0  0999 V2000
  140.0150   71.3530  221.2560 O   0  0  0  0  0  0  0  0  0  0  0  0
  139.8830   72.0210  222.3380 C   0  0  0  0  0  0  0  0  0  0  0  0
  139.6710   73.4210  222.3440 N   0  0  0  0  0  0  0  0  0  0  0  0
  139.5900   74.2010  221.1240 C   0  0  0  0  0  0  0  0  0  0  0  0
  139.9880   75.6270  221.4230 C   0  0  0  0  0  0  0  0  0  0  0  0
  139.8820   75.9440  222.6310 O   0  0  0  0  0  0  0  0  0  0  0  0
  140.4230   76.4370  220.3760 N   0  0  0  0  0  0  0  0  0  0  0  0
  139.9560   76.0490  218.9990 C   0  0  0  0  0  0  0  0  0  0  0  0
  141.1810   76.0840  218.1330 C   0  0  0  0  0  0  0  0  0  0  0  0
  142.4950   76.2660  218.7730 C   0  0  0  0  0  0  0  0  0  0  0  0
  142.6210   76.9600  220.0750 C   0  0  0  0  0  0  0  0  0  0  0  0
  141.2680   77.5860  220.3850 C   0  0  2  0  0  0  0  0  0  0  0  0
  141.2490   78.6000  221.4160 C   0  0  0  0  0  0  0  0  0  0  0  0
  141.4600   78.2480  222.8590 C   0  0  0  0  0  0  0  0  0  0  0  0
  142.1760   79.4650  223.4920 C   0  0  0  0  0  0  0  0  0  0  0  0
  141.4360   80.6890  223.1010 C   0  0  0  0  0  0  0  0  0  0  0  0
  142.1550   81.5050  222.2390 F   0  0  0  0  0  0  0  0  0  0  0  0
  141.2900   81.4580  224.2650 F   0  0  0  0  0  0  0  0  0  0  0  0
  140.0720   80.4850  222.5440 C   0  0  0  0  0  0  0  0  0  0  0  0
  140.0760   79.5860  221.3140 C   0  0  0  0  0  0  0  0  0  0  0  0
  139.9580   71.2860  223.6170 C   0  0  0  0  0  0  0  0  0  0  0  0
  139.5410   69.9870  223.7060 C   0  0  0  0  0  0  0  0  0  0  0  0
  139.6190   69.3210  224.9120 C   0  0  0  0  0  0  0  0  0  0  0  0
  140.1110   69.9360  226.0410 C   0  0  0  0  0  0  0  0  0  0  0  0
  140.1840   69.2660  227.2320 C   0  0  0  0  0  0  0  0  0  0  0  0
  140.6780   69.9110  228.3290 C   0  0  0  0  0  0  0  0  0  0  0  0
  141.1000   71.2300  228.2360 C   0  0  0  0  0  0  0  0  0  0  0  0
  141.0260   71.9100  227.0280 C   0  0  0  0  0  0  0  0  0  0  0  0
  140.5250   71.2510  225.9220 C   0  0  0  0  0  0  0  0  0  0  0  0
  140.4340   71.8650  224.7370 N   0  0  0  0  0  0  0  0  0  0  0  0
  139.5750   73.8750  223.3020 H   0  0  0  0  0  0  0  0  0  0  0  0
  140.2711   73.7785  220.3706 H   0  0  0  0  0  0  0  0  0  0  0  0
  138.5611   74.1766  220.7357 H   0  0  0  0  0  0  0  0  0  0  0  0
  139.5230   75.0379  219.0110 H   0  0  0  0  0  0  0  0  0  0  0  0
  139.1751   76.7288  218.6273 H   0  0  0  0  0  0  0  0  0  0  0  0
  141.2172   75.1310  217.5847 H   0  0  0  0  0  0  0  0  0  0  0  0
  141.0522   76.9916  217.5250 H   0  0  0  0  0  0  0  0  0  0  0  0
  142.9163   75.2596  218.9133 H   0  0  0  0  0  0  0  0  0  0  0  0
  143.0064   76.9532  218.0829 H   0  0  0  0  0  0  0  0  0  0  0  0
  142.8920   76.2399  220.8611 H   0  0  0  0  0  0  0  0  0  0  0  0
  143.4064   77.7290  220.0329 H   0  0  0  0  0  0  0  0  0  0  0  0
  140.8658   78.3188  219.6700 H   0  0  0  0  0  0  0  0  0  0  0  0
  142.2059   79.0608  221.1297 H   0  0  0  0  0  0  0  0  0  0  0  0
  140.4942   78.0717  223.3550 H   0  0  0  0  0  0  0  0  0  0  0  0
  142.0539   77.3285  222.9678 H   0  0  0  0  0  0  0  0  0  0  0  0
  142.1811   79.3663  224.5876 H   0  0  0  0  0  0  0  0  0  0  0  0
  143.2169   79.5202  223.1405 H   0  0  0  0  0  0  0  0  0  0  0  0
  139.4401   80.0234  223.3170 H   0  0  0  0  0  0  0  0  0  0  0  0
  139.6831   81.4680  222.2400 H   0  0  0  0  0  0  0  0  0  0  0  0
  139.1293   79.0282  221.2624 H   0  0  0  0  0  0  0  0  0  0  0  0
  140.1850   80.1991  220.4072 H   0  0  0  0  0  0  0  0  0  0  0  0
  139.1440   69.4737  222.8178 H   0  0  0  0  0  0  0  0  0  0  0  0
  139.2807   68.2761  224.9725 H   0  0  0  0  0  0  0  0  0  0  0  0
  139.8488   68.2208  227.3045 H   0  0  0  0  0  0  0  0  0  0  0  0
  140.7419   69.3827  229.2917 H   0  0  0  0  0  0  0  0  0  0  0  0
  141.4961   71.7404  229.1263 H   0  0  0  0  0  0  0  0  0  0  0  0
  141.3604   72.9552  226.9528 H   0  0  0  0  0  0  0  0  0  0  0  0
  1  2  2  0
  2  3  1  0
  3  4  1  0
  4  5  1  0
  5  6  2  0
  5  7  1  0
  7  8  1  0
  8  9  1  0
  9 10  1  0
 10 11  1  0
 11 12  1  0
 12 13  1  0
 13 14  1  0
 14 15  1  0
 15 16  1  0
 16 17  1  0
 16 18  1  0
 16 19  1  0
 19 20  1  0
  2 21  1  0
 21 22  2  0
 22 23  1  0
 23 24  2  0
 24 25  1  0
 25 26  2  0
 26 27  1  0
 27 28  2  0
 28 29  1  0
 29 30  2  0
 12  7  1  0
 20 13  1  0
 30 21  1  0
 29 24  1  0
  3 31  1  0
  4 32  1  0
  4 33  1  0
  8 34  1  0
  8 35  1  0
  9 36  1  0
  9 37  1  0
 10 38  1  0
 10 39  1  0
 11 40  1  0
 11 41  1  0
 12 42  1  6
 13 43  1  0
 14 44  1  0
 14 45  1  0
 15 46  1  0
 15 47  1  0
 19 48  1  0
 19 49  1  0
 20 50  1  0
 20 51  1  0
 22 52  1  0
 23 53  1  0
 25 54  1  0
 26 55  1  0
 27 56  1  0
 28 57  1  0
M  END
>  <smiles>  (38) 
O=C(NCC(=O)N1CCCCC1C1CCC(F)(F)CC1)c1ccc2ccccc2n1

>  <score_type>  (38) 
oracle

>  <origin>  (38) 
autodockgpu

>  <m_score__min__energy>  (38) 
-9.3200000000000003

>  <m_primary>  (38) 
energy

>  <rmsd>  (38) 
1.5544724799077136

>  <m_score__min__rmsd>  (38) 
1.5544724799077136

>  <meeko>  (38) 
{"free_energy": -8.71, "intermolecular_energy": -10.21, "internal_energy": -2.05, "cluster_size": 34, "cluster_id": 1, "rank_in_cluster": 21}

>  <energy>  (38) 
-8.18

>  <cluster_rmsd>  (38) 
1.03

>  <cluster>  (38) 
2

$$$$

     RDKit          3D

 57 60  0  0  0  0  0  0  0  0999 V2000
  139.7080   71.1780  221.2450 O   0  0  0  0  0  0  0  0  0  0  0  0
  139.7010   71.8740  222.3170 C   0  0  0  0  0  0  0  0  0  0  0  0
  139.6310   73.2890  222.3030 N   0  0  0  0  0  0  0  0  0  0  0  0
  139.5630   74.0520  221.0720 C   0  0  0  0  0  0  0  0  0  0  0  0
  140.4180   75.2900  221.2120 C   0  0  0  0  0  0  0  0  0  0  0  0
  140.9470   75.4200  222.3400 O   0  0  0  0  0  0  0  0  0  0  0  0
  140.5420   76.1480  220.1200 N   0  0  0  0  0  0  0  0  0  0  0  0
  140.1480   75.5800  218.7830 C   0  0  0  0  0  0  0  0  0  0  0  0
  141.2650   75.9420  217.8480 C   0  0  0  0  0  0  0  0  0  0  0  0
  142.4930   76.5330  218.4060 C   0  0  0  0  0  0  0  0  0  0  0  0
  142.4650   77.2870  219.6810 C   0  0  0  0  0  0  0  0  0  0  0  0
  141.0030   77.4960  220.0510 C   0  0  2  0  0  0  0  0  0  0  0  0
  140.7300   78.5000  221.0550 C   0  0  0  0  0  0  0  0  0  0  0  0
  140.7830   79.9630  220.7290 C   0  0  0  0  0  0  0  0  0  0  0  0
  139.7210   80.6370  221.6320 C   0  0  0  0  0  0  0  0  0  0  0  0
  139.9220   80.1520  223.0190 C   0  0  0  0  0  0  0  0  0  0  0  0
  138.8850   79.3460  223.4660 F   0  0  0  0  0  0  0  0  0  0  0  0
  139.8670   81.2800  223.8500 F   0  0  0  0  0  0  0  0  0  0  0  0
  141.2150   79.4710  223.2980 C   0  0  0  0  0  0  0  0  0  0  0  0
  141.4430   78.2650  222.3950 C   0  0  0  0  0  0  0  0  0  0  0  0
  139.7700   71.1580  223.6070 C   0  0  0  0  0  0  0  0  0  0  0  0
  139.2920   69.8830  223.7280 C   0  0  0  0  0  0  0  0  0  0  0  0
  139.3660   69.2330  224.9440 C   0  0  0  0  0  0  0  0  0  0  0  0
  139.9140   69.8420  226.0500 C   0  0  0  0  0  0  0  0  0  0  0  0
  139.9820   69.1880  227.2510 C   0  0  0  0  0  0  0  0  0  0  0  0
  140.5320   69.8260  228.3250 C   0  0  0  0  0  0  0  0  0  0  0  0
  141.0160   71.1210  228.1990 C   0  0  0  0  0  0  0  0  0  0  0  0
  140.9470   71.7850  226.9810 C   0  0  0  0  0  0  0  0  0  0  0  0
  140.3890   71.1330  225.8990 C   0  0  0  0  0  0  0  0  0  0  0  0
  140.3000   71.7310  224.7060 N   0  0  0  0  0  0  0  0  0  0  0  0
  139.6320   73.7660  223.2540 H   0  0  0  0  0  0  0  0  0  0  0  0
  139.9350   73.4394  220.2375 H   0  0  0  0  0  0  0  0  0  0  0  0
  138.5208   74.3412  220.8714 H   0  0  0  0  0  0  0  0  0  0  0  0
  140.0390   74.4873  218.8467 H   0  0  0  0  0  0  0  0  0  0  0  0
  139.1825   75.9791  218.4388 H   0  0  0  0  0  0  0  0  0  0  0  0
  141.5589   75.0210  217.3233 H   0  0  0  0  0  0  0  0  0  0  0  0
  140.8420   76.7446  217.2260 H   0  0  0  0  0  0  0  0  0  0  0  0
  143.2024   75.7044  218.5480 H   0  0  0  0  0  0  0  0  0  0  0  0
  142.7435   77.3111  217.6699 H   0  0  0  0  0  0  0  0  0  0  0  0
  142.9745   76.7131  220.4691 H   0  0  0  0  0  0  0  0  0  0  0  0
  142.9816   78.2522  219.5742 H   0  0  0  0  0  0  0  0  0  0  0  0
  140.3671   78.0464  219.3420 H   0  0  0  0  0  0  0  0  0  0  0  0
  139.6503   78.2991  221.1167 H   0  0  0  0  0  0  0  0  0  0  0  0
  141.7826   80.3676  220.9463 H   0  0  0  0  0  0  0  0  0  0  0  0
  140.5828   80.1471  219.6632 H   0  0  0  0  0  0  0  0  0  0  0  0
  139.8417   81.7298  221.5978 H   0  0  0  0  0  0  0  0  0  0  0  0
  138.7086   80.3857  221.2830 H   0  0  0  0  0  0  0  0  0  0  0  0
  142.0334   80.1891  223.1417 H   0  0  0  0  0  0  0  0  0  0  0  0
  141.1873   79.1114  224.3372 H   0  0  0  0  0  0  0  0  0  0  0  0
  142.5211   78.1336  222.2208 H   0  0  0  0  0  0  0  0  0  0  0  0
  141.0414   77.3606  222.8754 H   0  0  0  0  0  0  0  0  0  0  0  0
  138.8492   69.3757  222.8582 H   0  0  0  0  0  0  0  0  0  0  0  0
  138.9789   68.2070  225.0306 H   0  0  0  0  0  0  0  0  0  0  0  0
  139.5983   68.1617  227.3491 H   0  0  0  0  0  0  0  0  0  0  0  0
  140.5920   69.3114  229.2953 H   0  0  0  0  0  0  0  0  0  0  0  0
  141.4578   71.6254  229.0710 H   0  0  0  0  0  0  0  0  0  0  0  0
  141.3298   72.8113  226.8801 H   0  0  0  0  0  0  0  0  0  0  0  0
  1  2  2  0
  2  3  1  0
  3  4  1  0
  4  5  1  0
  5  6  2  0
  5  7  1  0
  7  8  1  0
  8  9  1  0
  9 10  1  0
 10 11  1  0
 11 12  1  0
 12 13  1  0
 13 14  1  0
 14 15  1  0
 15 16  1  0
 16 17  1  0
 16 18  1  0
 16 19  1  0
 19 20  1  0
  2 21  1  0
 21 22  2  0
 22 23  1  0
 23 24  2  0
 24 25  1  0
 25 26  2  0
 26 27  1  0
 27 28  2  0
 28 29  1  0
 29 30  2  0
 12  7  1  0
 20 13  1  0
 30 21  1  0
 29 24  1  0
  3 31  1  0
  4 32  1  0
  4 33  1  0
  8 34  1  0
  8 35  1  0
  9 36  1  0
  9 37  1  0
 10 38  1  0
 10 39  1  0
 11 40  1  0
 11 41  1  0
 12 42  1  6
 13 43  1  0
 14 44  1  0
 14 45  1  0
 15 46  1  0
 15 47  1  0
 19 48  1  0
 19 49  1  0
 20 50  1  0
 20 51  1  0
 22 52  1  0
 23 53  1  0
 25 54  1  0
 26 55  1  0
 27 56  1  0
 28 57  1  0
M  END
>  <smiles>  (39) 
O=C(NCC(=O)N1CCCCC1C1CCC(F)(F)CC1)c1ccc2ccccc2n1

>  <score_type>  (39) 
oracle

>  <origin>  (39) 
autodockgpu

>  <m_score__min__energy>  (39) 
-9.3200000000000003

>  <m_primary>  (39) 
energy

>  <rmsd>  (39) 
1.3797680522606313

>  <m_score__min__rmsd>  (39) 
1.3797680522606313

>  <meeko>  (39) 
{"free_energy": -8.19, "intermolecular_energy": -9.68, "internal_energy": -1.96, "cluster_size": 34, "cluster_id": 1, "rank_in_cluster": 34}

>  <energy>  (39) 
-8.79

>  <cluster_rmsd>  (39) 
0.0

>  <cluster>  (39) 
3

$$$$

     RDKit          3D

 57 60  0  0  0  0  0  0  0  0999 V2000
  139.3490   70.9120  221.3270 O   0  0  0  0  0  0  0  0  0  0  0  0
  139.4900   71.7000  222.3230 C   0  0  0  0  0  0  0  0  0  0  0  0
  139.3800   73.1070  222.1980 N   0  0  0  0  0  0  0  0  0  0  0  0
  139.1010   73.7560  220.9330 C   0  0  0  0  0  0  0  0  0  0  0  0
  140.4020   73.9900  220.2010 C   0  0  0  0  0  0  0  0  0  0  0  0
  140.5210   73.3260  219.1450 O   0  0  0  0  0  0  0  0  0  0  0  0
  141.3230   74.8880  220.7390 N   0  0  0  0  0  0  0  0  0  0  0  0
  140.7750   75.8930  221.7170 C   0  0  0  0  0  0  0  0  0  0  0  0
  141.3300   77.2180  221.2850 C   0  0  0  0  0  0  0  0  0  0  0  0
  142.0520   77.3010  220.0050 C   0  0  0  0  0  0  0  0  0  0  0  0
  142.7310   76.1140  219.4340 C   0  0  0  0  0  0  0  0  0  0  0  0
  142.7220   75.0310  220.5030 C   0  0  2  0  0  0  0  0  0  0  0  0
  143.6290   73.9220  220.3040 C   0  0  0  0  0  0  0  0  0  0  0  0
  143.3030   72.5480  220.8080 C   0  0  0  0  0  0  0  0  0  0  0  0
  143.9430   71.5630  219.7990 C   0  0  0  0  0  0  0  0  0  0  0  0
  145.3460   71.9850  219.5720 C   0  0  0  0  0  0  0  0  0  0  0  0
  145.5670   72.4650  218.2900 F   0  0  0  0  0  0  0  0  0  0  0  0
  146.1300   70.8240  219.6470 F   0  0  0  0  0  0  0  0  0  0  0  0
  145.9110   72.9510  220.5520 C   0  0  0  0  0  0  0  0  0  0  0  0
  145.0950   74.2360  220.6350 C   0  0  0  0  0  0  0  0  0  0  0  0
  139.7780   71.1020  223.6420 C   0  0  0  0  0  0  0  0  0  0  0  0
  139.5550   69.7740  223.8750 C   0  0  0  0  0  0  0  0  0  0  0  0
  139.8310   69.2370  225.1160 C   0  0  0  0  0  0  0  0  0  0  0  0
  140.3300   70.0120  226.1380 C   0  0  0  0  0  0  0  0  0  0  0  0
  140.5990   69.4690  227.3650 C   0  0  0  0  0  0  0  0  0  0  0  0
  141.0940   70.2720  228.3530 C   0  0  0  0  0  0  0  0  0  0  0  0
  141.3190   71.6200  228.1140 C   0  0  0  0  0  0  0  0  0  0  0  0
  141.0460   72.1710  226.8690 C   0  0  0  0  0  0  0  0  0  0  0  0
  140.5460   71.3530  225.8750 C   0  0  0  0  0  0  0  0  0  0  0  0
  140.2670   71.8390  224.6600 N   0  0  0  0  0  0  0  0  0  0  0  0
  139.5160   73.6670  223.0930 H   0  0  0  0  0  0  0  0  0  0  0  0
  138.4468   73.1134  220.3255 H   0  0  0  0  0  0  0  0  0  0  0  0
  138.5980   74.7177  221.1124 H   0  0  0  0  0  0  0  0  0  0  0  0
  139.6757   75.9061  221.6791 H   0  0  0  0  0  0  0  0  0  0  0  0
  141.0576   75.6506  222.7521 H   0  0  0  0  0  0  0  0  0  0  0  0
  140.4842   77.9188  221.2252 H   0  0  0  0  0  0  0  0  0  0  0  0
  142.0986   77.4430  222.0390 H   0  0  0  0  0  0  0  0  0  0  0  0
  141.3204   77.6343  219.2542 H   0  0  0  0  0  0  0  0  0  0  0  0
  142.8925   77.9692  220.2440 H   0  0  0  0  0  0  0  0  0  0  0  0
  142.1924   75.7656  218.5404 H   0  0  0  0  0  0  0  0  0  0  0  0
  143.7611   76.3596  219.1365 H   0  0  0  0  0  0  0  0  0  0  0  0
  143.2162   75.2515  221.4607 H   0  0  0  0  0  0  0  0  0  0  0  0
  143.4557   73.8358  219.2212 H   0  0  0  0  0  0  0  0  0  0  0  0
  143.7279   72.3977  221.8114 H   0  0  0  0  0  0  0  0  0  0  0  0
  142.2167   72.3946  220.8887 H   0  0  0  0  0  0  0  0  0  0  0  0
  143.9221   70.5426  220.2093 H   0  0  0  0  0  0  0  0  0  0  0  0
  143.3842   71.5705  218.8515 H   0  0  0  0  0  0  0  0  0  0  0  0
  145.9280   72.4782  221.5450 H   0  0  0  0  0  0  0  0  0  0  0  0
  146.9240   73.2171  220.2160 H   0  0  0  0  0  0  0  0  0  0  0  0
  145.1625   74.6503  221.6518 H   0  0  0  0  0  0  0  0  0  0  0  0
  145.4877   74.9716  219.9175 H   0  0  0  0  0  0  0  0  0  0  0  0
  139.1560   69.1339  223.0744 H   0  0  0  0  0  0  0  0  0  0  0  0
  139.6482   68.1667  225.2921 H   0  0  0  0  0  0  0  0  0  0  0  0
  140.4190   68.4003  227.5532 H   0  0  0  0  0  0  0  0  0  0  0  0
  141.3154   69.8476  229.3434 H   0  0  0  0  0  0  0  0  0  0  0  0
  141.7169   72.2575  228.9173 H   0  0  0  0  0  0  0  0  0  0  0  0
  141.2247   73.2394  226.6780 H   0  0  0  0  0  0  0  0  0  0  0  0
  1  2  2  0
  2  3  1  0
  3  4  1  0
  4  5  1  0
  5  6  2  0
  5  7  1  0
  7  8  1  0
  8  9  1  0
  9 10  1  0
 10 11  1  0
 11 12  1  0
 12 13  1  0
 13 14  1  0
 14 15  1  0
 15 16  1  0
 16 17  1  0
 16 18  1  0
 16 19  1  0
 19 20  1  0
  2 21  1  0
 21 22  2  0
 22 23  1  0
 23 24  2  0
 24 25  1  0
 25 26  2  0
 26 27  1  0
 27 28  2  0
 28 29  1  0
 29 30  2  0
 12  7  1  0
 20 13  1  0
 30 21  1  0
 29 24  1  0
  3 31  1  0
  4 32  1  0
  4 33  1  0
  8 34  1  0
  8 35  1  0
  9 36  1  0
  9 37  1  0
 10 38  1  0
 10 39  1  0
 11 40  1  0
 11 41  1  0
 12 42  1  1
 13 43  1  0
 14 44  1  0
 14 45  1  0
 15 46  1  0
 15 47  1  0
 19 48  1  0
 19 49  1  0
 20 50  1  0
 20 51  1  0
 22 52  1  0
 23 53  1  0
 25 54  1  0
 26 55  1  0
 27 56  1  0
 28 57  1  0
M  END
>  <smiles>  (40) 
O=C(NCC(=O)N1CCCCC1C1CCC(F)(F)CC1)c1ccc2ccccc2n1

>  <score_type>  (40) 
oracle

>  <origin>  (40) 
autodockgpu

>  <m_score__min__energy>  (40) 
-9.3200000000000003

>  <m_primary>  (40) 
energy

>  <rmsd>  (40) 
2.357990443313055

>  <m_score__min__rmsd>  (40) 
2.357990443313055

>  <meeko>  (40) 
{"free_energy": -8.54, "intermolecular_energy": -10.03, "internal_energy": -1.94, "cluster_size": 11, "cluster_id": 3, "rank_in_cluster": 4}

>  <energy>  (40) 
-8.72

>  <cluster_rmsd>  (40) 
0.23

>  <cluster>  (40) 
3

$$$$

     RDKit          3D

 57 60  0  0  0  0  0  0  0  0999 V2000
  139.2850   70.8710  221.3480 O   0  0  0  0  0  0  0  0  0  0  0  0
  139.4460   71.6680  222.3340 C   0  0  0  0  0  0  0  0  0  0  0  0
  139.3390   73.0740  222.1970 N   0  0  0  0  0  0  0  0  0  0  0  0
  139.0380   73.7120  220.9300 C   0  0  0  0  0  0  0  0  0  0  0  0
  140.3310   73.9820  220.1950 C   0  0  0  0  0  0  0  0  0  0  0  0
  140.4390   73.3640  219.1100 O   0  0  0  0  0  0  0  0  0  0  0  0
  141.2550   74.8580  220.7620 N   0  0  0  0  0  0  0  0  0  0  0  0
  140.7100   75.8400  221.7640 C   0  0  0  0  0  0  0  0  0  0  0  0
  141.2770   77.1720  221.3700 C   0  0  0  0  0  0  0  0  0  0  0  0
  142.0070   77.2830  220.0950 C   0  0  0  0  0  0  0  0  0  0  0  0
  142.6790   76.1070  219.4960 C   0  0  0  0  0  0  0  0  0  0  0  0
  142.6560   74.9960  220.5370 C   0  0  2  0  0  0  0  0  0  0  0  0
  143.5560   73.8860  220.3120 C   0  0  0  0  0  0  0  0  0  0  0  0
  143.2220   72.5030  220.7880 C   0  0  0  0  0  0  0  0  0  0  0  0
  143.8540   71.5360  219.7580 C   0  0  0  0  0  0  0  0  0  0  0  0
  145.2590   71.9530  219.5370 C   0  0  0  0  0  0  0  0  0  0  0  0
  145.4810   72.4580  218.2640 F   0  0  0  0  0  0  0  0  0  0  0  0
  146.0360   70.7860  219.5860 F   0  0  0  0  0  0  0  0  0  0  0  0
  145.8320   72.8950  220.5350 C   0  0  0  0  0  0  0  0  0  0  0  0
  145.0250   74.1830  220.6470 C   0  0  0  0  0  0  0  0  0  0  0  0
  139.7570   71.0830  223.6530 C   0  0  0  0  0  0  0  0  0  0  0  0
  139.5490   69.7540  223.8990 C   0  0  0  0  0  0  0  0  0  0  0  0
  139.8460   69.2290  225.1400 C   0  0  0  0  0  0  0  0  0  0  0  0
  140.3520   70.0160  226.1490 C   0  0  0  0  0  0  0  0  0  0  0  0
  140.6430   69.4840  227.3770 C   0  0  0  0  0  0  0  0  0  0  0  0
  141.1440   70.2980  228.3520 C   0  0  0  0  0  0  0  0  0  0  0  0
  141.3540   71.6470  228.1010 C   0  0  0  0  0  0  0  0  0  0  0  0
  141.0590   72.1860  226.8550 C   0  0  0  0  0  0  0  0  0  0  0  0
  140.5530   71.3570  225.8730 C   0  0  0  0  0  0  0  0  0  0  0  0
  140.2530   71.8310  224.6590 N   0  0  0  0  0  0  0  0  0  0  0  0
  139.4930   73.6430  223.0830 H   0  0  0  0  0  0  0  0  0  0  0  0
  138.4017   73.0491  220.3253 H   0  0  0  0  0  0  0  0  0  0  0  0
  138.5071   74.6588  221.1078 H   0  0  0  0  0  0  0  0  0  0  0  0
  139.6110   75.8624  221.7217 H   0  0  0  0  0  0  0  0  0  0  0  0
  140.9858   75.5677  222.7935 H   0  0  0  0  0  0  0  0  0  0  0  0
  140.4367   77.8804  221.3243 H   0  0  0  0  0  0  0  0  0  0  0  0
  142.0431   77.3717  222.1337 H   0  0  0  0  0  0  0  0  0  0  0  0
  141.2820   77.6422  219.3498 H   0  0  0  0  0  0  0  0  0  0  0  0
  142.8518   77.9374  220.3561 H   0  0  0  0  0  0  0  0  0  0  0  0
  142.1420   75.7866  218.5910 H   0  0  0  0  0  0  0  0  0  0  0  0
  143.7124   76.3520  219.2094 H   0  0  0  0  0  0  0  0  0  0  0  0
  143.1459   75.1867  221.5033 H   0  0  0  0  0  0  0  0  0  0  0  0
  143.3806   73.8250  219.2278 H   0  0  0  0  0  0  0  0  0  0  0  0
  143.6475   72.3291  221.7874 H   0  0  0  0  0  0  0  0  0  0  0  0
  142.1349   72.3546  220.8673 H   0  0  0  0  0  0  0  0  0  0  0  0
  143.8271   70.5074  220.1469 H   0  0  0  0  0  0  0  0  0  0  0  0
  143.2937   71.5675  218.8119 H   0  0  0  0  0  0  0  0  0  0  0  0
  145.8484   72.4016  221.5180 H   0  0  0  0  0  0  0  0  0  0  0  0
  146.8457   73.1618  220.2015 H   0  0  0  0  0  0  0  0  0  0  0  0
  145.0971   74.5749  221.6723 H   0  0  0  0  0  0  0  0  0  0  0  0
  145.4214   74.9311  219.9447 H   0  0  0  0  0  0  0  0  0  0  0  0
  139.1454   69.1043  223.1085 H   0  0  0  0  0  0  0  0  0  0  0  0
  139.6746   68.1586  225.3267 H   0  0  0  0  0  0  0  0  0  0  0  0
  140.4753   68.4151  227.5752 H   0  0  0  0  0  0  0  0  0  0  0  0
  141.3826   69.8824  229.3421 H   0  0  0  0  0  0  0  0  0  0  0  0
  141.7569   72.2938  228.8943 H   0  0  0  0  0  0  0  0  0  0  0  0
  141.2256   73.2546  226.6540 H   0  0  0  0  0  0  0  0  0  0  0  0
  1  2  2  0
  2  3  1  0
  3  4  1  0
  4  5  1  0
  5  6  2  0
  5  7  1  0
  7  8  1  0
  8  9  1  0
  9 10  1  0
 10 11  1  0
 11 12  1  0
 12 13  1  0
 13 14  1  0
 14 15  1  0
 15 16  1  0
 16 17  1  0
 16 18  1  0
 16 19  1  0
 19 20  1  0
  2 21  1  0
 21 22  2  0
 22 23  1  0
 23 24  2  0
 24 25  1  0
 25 26  2  0
 26 27  1  0
 27 28  2  0
 28 29  1  0
 29 30  2  0
 12  7  1  0
 20 13  1  0
 30 21  1  0
 29 24  1  0
  3 31  1  0
  4 32  1  0
  4 33  1  0
  8 34  1  0
  8 35  1  0
  9 36  1  0
  9 37  1  0
 10 38  1  0
 10 39  1  0
 11 40  1  0
 11 41  1  0
 12 42  1  1
 13 43  1  0
 14 44  1  0
 14 45  1  0
 15 46  1  0
 15 47  1  0
 19 48  1  0
 19 49  1  0
 20 50  1  0
 20 51  1  0
 22 52  1  0
 23 53  1  0
 25 54  1  0
 26 55  1  0
 27 56  1  0
 28 57  1  0
M  END
>  <smiles>  (41) 
O=C(NCC(=O)N1CCCCC1C1CCC(F)(F)CC1)c1ccc2ccccc2n1

>  <score_type>  (41) 
oracle

>  <origin>  (41) 
autodockgpu

>  <m_score__min__energy>  (41) 
-9.3200000000000003

>  <m_primary>  (41) 
energy

>  <rmsd>  (41) 
2.363756732655862

>  <m_score__min__rmsd>  (41) 
2.363756732655862

>  <meeko>  (41) 
{"free_energy": -8.45, "intermolecular_energy": -9.94, "internal_energy": -1.95, "cluster_size": 11, "cluster_id": 3, "rank_in_cluster": 5}

>  <energy>  (41) 
-8.68

>  <cluster_rmsd>  (41) 
0.26

>  <cluster>  (41) 
3

$$$$

     RDKit          3D

 57 60  0  0  0  0  0  0  0  0999 V2000
  140.2500   71.3790  221.2600 O   0  0  0  0  0  0  0  0  0  0  0  0
  140.0080   72.0440  222.3250 C   0  0  0  0  0  0  0  0  0  0  0  0
  139.7510   73.4370  222.3070 N   0  0  0  0  0  0  0  0  0  0  0  0
  139.7440   74.2110  221.0820 C   0  0  0  0  0  0  0  0  0  0  0  0
  140.3430   75.5710  221.3550 C   0  0  0  0  0  0  0  0  0  0  0  0
  140.5350   75.8090  222.5700 O   0  0  0  0  0  0  0  0  0  0  0  0
  140.6200   76.4120  220.2780 N   0  0  0  0  0  0  0  0  0  0  0  0
  139.9400   76.0720  218.9790 C   0  0  0  0  0  0  0  0  0  0  0  0
  141.0160   76.1270  217.9350 C   0  0  0  0  0  0  0  0  0  0  0  0
  142.4160   76.2780  218.3680 C   0  0  0  0  0  0  0  0  0  0  0  0
  142.7500   76.9290  219.6560 C   0  0  0  0  0  0  0  0  0  0  0  0
  141.4700   77.5540  220.1910 C   0  0  2  0  0  0  0  0  0  0  0  0
  141.6230   78.5330  221.2450 C   0  0  0  0  0  0  0  0  0  0  0  0
  140.6990   78.5600  222.4250 C   0  0  0  0  0  0  0  0  0  0  0  0
  141.5500   79.0550  223.6200 C   0  0  0  0  0  0  0  0  0  0  0  0
  142.2820   80.2720  223.1900 C   0  0  0  0  0  0  0  0  0  0  0  0
  143.6520   80.0760  223.1000 F   0  0  0  0  0  0  0  0  0  0  0  0
  142.1340   81.2130  224.2190 F   0  0  0  0  0  0  0  0  0  0  0  0
  141.8050   80.9200  221.9390 C   0  0  0  0  0  0  0  0  0  0  0  0
  141.8320   79.9710  220.7470 C   0  0  0  0  0  0  0  0  0  0  0  0
  140.0020   71.3140  223.6080 C   0  0  0  0  0  0  0  0  0  0  0  0
  139.4980   70.0460  223.6940 C   0  0  0  0  0  0  0  0  0  0  0  0
  139.5020   69.3840  224.9040 C   0  0  0  0  0  0  0  0  0  0  0  0
  140.0060   69.9730  226.0420 C   0  0  0  0  0  0  0  0  0  0  0  0
  140.0040   69.3070  227.2380 C   0  0  0  0  0  0  0  0  0  0  0  0
  140.5130   69.9250  228.3440 C   0  0  0  0  0  0  0  0  0  0  0  0
  141.0240   71.2130  228.2550 C   0  0  0  0  0  0  0  0  0  0  0  0
  141.0250   71.8880  227.0420 C   0  0  0  0  0  0  0  0  0  0  0  0
  140.5090   71.2560  225.9270 C   0  0  0  0  0  0  0  0  0  0  0  0
  140.4890   71.8680  224.7380 N   0  0  0  0  0  0  0  0  0  0  0  0
  139.5620   73.8890  223.2520 H   0  0  0  0  0  0  0  0  0  0  0  0
  140.3391   73.6932  220.3154 H   0  0  0  0  0  0  0  0  0  0  0  0
  138.7112   74.3258  220.7213 H   0  0  0  0  0  0  0  0  0  0  0  0
  139.5024   75.0639  219.0269 H   0  0  0  0  0  0  0  0  0  0  0  0
  139.1186   76.7684  218.7546 H   0  0  0  0  0  0  0  0  0  0  0  0
  140.9548   75.1926  217.3577 H   0  0  0  0  0  0  0  0  0  0  0  0
  140.8057   77.0555  217.3840 H   0  0  0  0  0  0  0  0  0  0  0  0
  142.8414   75.2645  218.4102 H   0  0  0  0  0  0  0  0  0  0  0  0
  142.8236   76.9824  217.6279 H   0  0  0  0  0  0  0  0  0  0  0  0
  143.1306   76.1819  220.3681 H   0  0  0  0  0  0  0  0  0  0  0  0
  143.5284   77.6935  219.5162 H   0  0  0  0  0  0  0  0  0  0  0  0
  140.9719   78.3127  219.5695 H   0  0  0  0  0  0  0  0  0  0  0  0
  142.5431   78.0975  221.6619 H   0  0  0  0  0  0  0  0  0  0  0  0
  139.8621   79.2494  222.2398 H   0  0  0  0  0  0  0  0  0  0  0  0
  140.2660   77.5680  222.6213 H   0  0  0  0  0  0  0  0  0  0  0  0
  140.8950   79.2946  224.4706 H   0  0  0  0  0  0  0  0  0  0  0  0
  142.2586   78.2742  223.9334 H   0  0  0  0  0  0  0  0  0  0  0  0
  140.7721   81.2659  222.0919 H   0  0  0  0  0  0  0  0  0  0  0  0
  142.4817   81.7581  221.7161 H   0  0  0  0  0  0  0  0  0  0  0  0
  141.0284   80.2382  220.0450 H   0  0  0  0  0  0  0  0  0  0  0  0
  142.8017   80.0483  220.2335 H   0  0  0  0  0  0  0  0  0  0  0  0
  139.0896   69.5541  222.7988 H   0  0  0  0  0  0  0  0  0  0  0  0
  139.0940   68.3641  224.9611 H   0  0  0  0  0  0  0  0  0  0  0  0
  139.5976   68.2872  227.3071 H   0  0  0  0  0  0  0  0  0  0  0  0
  140.5183   69.3998  229.3105 H   0  0  0  0  0  0  0  0  0  0  0  0
  141.4310   71.7021  229.1523 H   0  0  0  0  0  0  0  0  0  0  0  0
  141.4296   72.9083  226.9698 H   0  0  0  0  0  0  0  0  0  0  0  0
  1  2  2  0
  2  3  1  0
  3  4  1  0
  4  5  1  0
  5  6  2  0
  5  7  1  0
  7  8  1  0
  8  9  1  0
  9 10  1  0
 10 11  1  0
 11 12  1  0
 12 13  1  0
 13 14  1  0
 14 15  1  0
 15 16  1  0
 16 17  1  0
 16 18  1  0
 16 19  1  0
 19 20  1  0
  2 21  1  0
 21 22  2  0
 22 23  1  0
 23 24  2  0
 24 25  1  0
 25 26  2  0
 26 27  1  0
 27 28  2  0
 28 29  1  0
 29 30  2  0
 12  7  1  0
 20 13  1  0
 30 21  1  0
 29 24  1  0
  3 31  1  0
  4 32  1  0
  4 33  1  0
  8 34  1  0
  8 35  1  0
  9 36  1  0
  9 37  1  0
 10 38  1  0
 10 39  1  0
 11 40  1  0
 11 41  1  0
 12 42  1  6
 13 43  1  0
 14 44  1  0
 14 45  1  0
 15 46  1  0
 15 47  1  0
 19 48  1  0
 19 49  1  0
 20 50  1  0
 20 51  1  0
 22 52  1  0
 23 53  1  0
 25 54  1  0
 26 55  1  0
 27 56  1  0
 28 57  1  0
M  END
>  <smiles>  (42) 
O=C(NCC(=O)N1CCCCC1C1CCC(F)(F)CC1)c1ccc2ccccc2n1

>  <score_type>  (42) 
oracle

>  <origin>  (42) 
autodockgpu

>  <m_score__min__energy>  (42) 
-9.3200000000000003

>  <m_primary>  (42) 
energy

>  <rmsd>  (42) 
1.5279493687346122

>  <m_score__min__rmsd>  (42) 
1.5279493687346122

>  <meeko>  (42) 
{"free_energy": -9.11, "intermolecular_energy": -10.6, "internal_energy": -1.89, "cluster_size": 34, "cluster_id": 1, "rank_in_cluster": 9}

>  <energy>  (42) 
-8.54

>  <cluster_rmsd>  (42) 
0.25

>  <cluster>  (42) 
3

$$$$

     RDKit          3D

 57 60  0  0  0  0  0  0  0  0999 V2000
  140.7090   71.3110  221.2430 O   0  0  0  0  0  0  0  0  0  0  0  0
  140.2810   71.9780  222.2450 C   0  0  0  0  0  0  0  0  0  0  0  0
  139.9060   73.3410  222.1450 N   0  0  0  0  0  0  0  0  0  0  0  0
  139.9820   74.0780  220.8990 C   0  0  0  0  0  0  0  0  0  0  0  0
  140.0720   75.5560  221.2050 C   0  0  0  0  0  0  0  0  0  0  0  0
  139.8010   75.8470  222.3930 O   0  0  0  0  0  0  0  0  0  0  0  0
  140.4350   76.4320  220.1840 N   0  0  0  0  0  0  0  0  0  0  0  0
  139.9860   76.0580  218.7970 C   0  0  0  0  0  0  0  0  0  0  0  0
  141.1980   76.2170  217.9260 C   0  0  0  0  0  0  0  0  0  0  0  0
  142.5000   76.4760  218.5630 C   0  0  0  0  0  0  0  0  0  0  0  0
  142.5830   77.1320  219.8890 C   0  0  0  0  0  0  0  0  0  0  0  0
  141.1890   77.6420  220.2290 C   0  0  2  0  0  0  0  0  0  0  0  0
  141.1020   78.6140  221.2960 C   0  0  0  0  0  0  0  0  0  0  0  0
  141.8320   78.4170  222.5910 C   0  0  0  0  0  0  0  0  0  0  0  0
  142.2080   79.8350  223.0860 C   0  0  0  0  0  0  0  0  0  0  0  0
  140.9960   80.6860  223.0090 C   0  0  0  0  0  0  0  0  0  0  0  0
  141.0890   81.6770  222.0430 F   0  0  0  0  0  0  0  0  0  0  0  0
  140.9230   81.3890  224.2200 F   0  0  0  0  0  0  0  0  0  0  0  0
  139.7000   79.9740  222.8440 C   0  0  0  0  0  0  0  0  0  0  0  0
  139.6760   79.0950  221.5990 C   0  0  0  0  0  0  0  0  0  0  0  0
  140.1810   71.2860  223.5450 C   0  0  0  0  0  0  0  0  0  0  0  0
  139.5940   70.0550  223.6430 C   0  0  0  0  0  0  0  0  0  0  0  0
  139.5110   69.4270  224.8690 C   0  0  0  0  0  0  0  0  0  0  0  0
  140.0100   70.0140  226.0100 C   0  0  0  0  0  0  0  0  0  0  0  0
  139.9220   69.3820  227.2210 C   0  0  0  0  0  0  0  0  0  0  0  0
  140.4290   69.9970  228.3300 C   0  0  0  0  0  0  0  0  0  0  0  0
  141.0250   71.2460  228.2290 C   0  0  0  0  0  0  0  0  0  0  0  0
  141.1140   71.8870  227.0000 C   0  0  0  0  0  0  0  0  0  0  0  0
  140.5990   71.2590  225.8830 C   0  0  0  0  0  0  0  0  0  0  0  0
  140.6610   71.8380  224.6780 N   0  0  0  0  0  0  0  0  0  0  0  0
  139.5640   73.7990  223.0420 H   0  0  0  0  0  0  0  0  0  0  0  0
  140.8741   73.7627  220.3380 H   0  0  0  0  0  0  0  0  0  0  0  0
  139.0853   73.8780  220.2941 H   0  0  0  0  0  0  0  0  0  0  0  0
  139.6312   75.0170  218.7755 H   0  0  0  0  0  0  0  0  0  0  0  0
  139.1520   76.6882  218.4544 H   0  0  0  0  0  0  0  0  0  0  0  0
  141.3017   75.2895  217.3438 H   0  0  0  0  0  0  0  0  0  0  0  0
  140.9952   77.1336  217.3527 H   0  0  0  0  0  0  0  0  0  0  0  0
  142.9981   75.5005  218.6648 H   0  0  0  0  0  0  0  0  0  0  0  0
  142.9525   77.2231  217.8944 H   0  0  0  0  0  0  0  0  0  0  0  0
  142.9143   76.4075  220.6475 H   0  0  0  0  0  0  0  0  0  0  0  0
  143.3070   77.9599  219.8697 H   0  0  0  0  0  0  0  0  0  0  0  0
  140.7256   78.3669  219.5436 H   0  0  0  0  0  0  0  0  0  0  0  0
  141.7018   79.3839  220.7887 H   0  0  0  0  0  0  0  0  0  0  0  0
  141.1827   77.9156  223.3238 H   0  0  0  0  0  0  0  0  0  0  0  0
  142.7230   77.7853  222.4604 H   0  0  0  0  0  0  0  0  0  0  0  0
  142.5631   79.7850  224.1259 H   0  0  0  0  0  0  0  0  0  0  0  0
  143.0099   80.2564  222.4620 H   0  0  0  0  0  0  0  0  0  0  0  0
  139.5296   79.3408  223.7272 H   0  0  0  0  0  0  0  0  0  0  0  0
  138.9112   80.7329  222.7348 H   0  0  0  0  0  0  0  0  0  0  0  0
  139.0237   78.2267  221.7737 H   0  0  0  0  0  0  0  0  0  0  0  0
  139.2903   79.6719  220.7455 H   0  0  0  0  0  0  0  0  0  0  0  0
  139.1882   69.5656  222.7453 H   0  0  0  0  0  0  0  0  0  0  0  0
  139.0363   68.4369  224.9360 H   0  0  0  0  0  0  0  0  0  0  0  0
  139.4492   68.3919  227.2999 H   0  0  0  0  0  0  0  0  0  0  0  0
  140.3645   69.4994  229.3089 H   0  0  0  0  0  0  0  0  0  0  0  0
  141.4300   71.7321  229.1289 H   0  0  0  0  0  0  0  0  0  0  0  0
  141.5862   72.8771  226.9178 H   0  0  0  0  0  0  0  0  0  0  0  0
  1  2  2  0
  2  3  1  0
  3  4  1  0
  4  5  1  0
  5  6  2  0
  5  7  1  0
  7  8  1  0
  8  9  1  0
  9 10  1  0
 10 11  1  0
 11 12  1  0
 12 13  1  0
 13 14  1  0
 14 15  1  0
 15 16  1  0
 16 17  1  0
 16 18  1  0
 16 19  1  0
 19 20  1  0
  2 21  1  0
 21 22  2  0
 22 23  1  0
 23 24  2  0
 24 25  1  0
 25 26  2  0
 26 27  1  0
 27 28  2  0
 28 29  1  0
 29 30  2  0
 12  7  1  0
 20 13  1  0
 30 21  1  0
 29 24  1  0
  3 31  1  0
  4 32  1  0
  4 33  1  0
  8 34  1  0
  8 35  1  0
  9 36  1  0
  9 37  1  0
 10 38  1  0
 10 39  1  0
 11 40  1  0
 11 41  1  0
 12 42  1  6
 13 43  1  0
 14 44  1  0
 14 45  1  0
 15 46  1  0
 15 47  1  0
 19 48  1  0
 19 49  1  0
 20 50  1  0
 20 51  1  0
 22 52  1  0
 23 53  1  0
 25 54  1  0
 26 55  1  0
 27 56  1  0
 28 57  1  0
M  END
>  <smiles>  (43) 
O=C(NCC(=O)N1CCCCC1C1CCC(F)(F)CC1)c1ccc2ccccc2n1

>  <score_type>  (43) 
oracle

>  <origin>  (43) 
autodockgpu

>  <m_score__min__energy>  (43) 
-9.3200000000000003

>  <m_primary>  (43) 
energy

>  <rmsd>  (43) 
1.6040495931002277

>  <m_score__min__rmsd>  (43) 
1.6040495931002277

>  <meeko>  (43) 
{"free_energy": -8.48, "intermolecular_energy": -9.97, "internal_energy": -2.07, "cluster_size": 34, "cluster_id": 1, "rank_in_cluster": 32}

>  <energy>  (43) 
-8.45

>  <cluster_rmsd>  (43) 
0.3

>  <cluster>  (43) 
3

$$$$

     RDKit          3D

 57 60  0  0  0  0  0  0  0  0999 V2000
  139.9750   71.3600  221.2450 O   0  0  0  0  0  0  0  0  0  0  0  0
  139.8590   72.0240  222.3310 C   0  0  0  0  0  0  0  0  0  0  0  0
  139.6540   73.4260  222.3450 N   0  0  0  0  0  0  0  0  0  0  0  0
  139.5600   74.2100  221.1290 C   0  0  0  0  0  0  0  0  0  0  0  0
  139.9670   75.6340  221.4280 C   0  0  0  0  0  0  0  0  0  0  0  0
  139.8890   75.9420  222.6410 O   0  0  0  0  0  0  0  0  0  0  0  0
  140.3790   76.4500  220.3760 N   0  0  0  0  0  0  0  0  0  0  0  0
  139.9100   76.0500  219.0030 C   0  0  0  0  0  0  0  0  0  0  0  0
  141.1280   76.1080  218.1290 C   0  0  0  0  0  0  0  0  0  0  0  0
  142.4420   76.3170  218.7590 C   0  0  0  0  0  0  0  0  0  0  0  0
  142.5630   77.0160  220.0600 C   0  0  0  0  0  0  0  0  0  0  0  0
  141.2000   77.6160  220.3780 C   0  0  2  0  0  0  0  0  0  0  0  0
  141.1690   78.6310  221.4080 C   0  0  0  0  0  0  0  0  0  0  0  0
  141.7570   78.3820  222.7650 C   0  0  0  0  0  0  0  0  0  0  0  0
  142.2920   79.7510  223.2520 C   0  0  0  0  0  0  0  0  0  0  0  0
  141.2240   80.7600  223.0510 C   0  0  0  0  0  0  0  0  0  0  0  0
  141.5350   81.6910  222.0700 F   0  0  0  0  0  0  0  0  0  0  0  0
  141.1560   81.5130  224.2330 F   0  0  0  0  0  0  0  0  0  0  0  0
  139.8570   80.2320  222.7960 C   0  0  0  0  0  0  0  0  0  0  0  0
  139.8060   79.3180  221.5770 C   0  0  0  0  0  0  0  0  0  0  0  0
  139.9470   71.2850  223.6060 C   0  0  0  0  0  0  0  0  0  0  0  0
  139.5540   69.9780  223.6890 C   0  0  0  0  0  0  0  0  0  0  0  0
  139.6440   69.3070  224.8920 C   0  0  0  0  0  0  0  0  0  0  0  0
  140.1240   69.9260  226.0240 C   0  0  0  0  0  0  0  0  0  0  0  0
  140.2090   69.2510  227.2120 C   0  0  0  0  0  0  0  0  0  0  0  0
  140.6910   69.9000  228.3120 C   0  0  0  0  0  0  0  0  0  0  0  0
  141.0890   71.2270  228.2260 C   0  0  0  0  0  0  0  0  0  0  0  0
  141.0030   71.9110  227.0210 C   0  0  0  0  0  0  0  0  0  0  0  0
  140.5140   71.2490  225.9120 C   0  0  0  0  0  0  0  0  0  0  0  0
  140.4130   71.8670  224.7300 N   0  0  0  0  0  0  0  0  0  0  0  0
  139.5720   73.8760  223.3050 H   0  0  0  0  0  0  0  0  0  0  0  0
  140.2298   73.7877  220.3654 H   0  0  0  0  0  0  0  0  0  0  0  0
  138.5262   74.1904  220.7536 H   0  0  0  0  0  0  0  0  0  0  0  0
  139.4975   75.0304  219.0199 H   0  0  0  0  0  0  0  0  0  0  0  0
  139.1129   76.7130  218.6355 H   0  0  0  0  0  0  0  0  0  0  0  0
  141.1794   75.1551  217.5819 H   0  0  0  0  0  0  0  0  0  0  0  0
  140.9770   77.0121  217.5209 H   0  0  0  0  0  0  0  0  0  0  0  0
  142.8843   75.3194  218.8978 H   0  0  0  0  0  0  0  0  0  0  0  0
  142.9350   77.0129  218.0642 H   0  0  0  0  0  0  0  0  0  0  0  0
  142.8532   76.3026  220.8454 H   0  0  0  0  0  0  0  0  0  0  0  0
  143.3329   77.8002  220.0115 H   0  0  0  0  0  0  0  0  0  0  0  0
  140.7771   78.3397  219.6657 H   0  0  0  0  0  0  0  0  0  0  0  0
  141.9116   79.2895  220.9338 H   0  0  0  0  0  0  0  0  0  0  0  0
  140.9858   78.0056  223.4532 H   0  0  0  0  0  0  0  0  0  0  0  0
  142.5553   77.6261  222.7273 H   0  0  0  0  0  0  0  0  0  0  0  0
  142.5528   79.6914  224.3190 H   0  0  0  0  0  0  0  0  0  0  0  0
  143.1930   80.0314  222.6867 H   0  0  0  0  0  0  0  0  0  0  0  0
  139.5275   79.6634  223.6781 H   0  0  0  0  0  0  0  0  0  0  0  0
  139.1968   81.0898  222.6003 H   0  0  0  0  0  0  0  0  0  0  0  0
  139.0248   78.5568  221.7195 H   0  0  0  0  0  0  0  0  0  0  0  0
  139.5749   79.9097  220.6790 H   0  0  0  0  0  0  0  0  0  0  0  0
  139.1666   69.4618  222.7982 H   0  0  0  0  0  0  0  0  0  0  0  0
  139.3255   68.2556  224.9472 H   0  0  0  0  0  0  0  0  0  0  0  0
  139.8931   68.1995  227.2793 H   0  0  0  0  0  0  0  0  0  0  0  0
  140.7644   69.3683  229.2721 H   0  0  0  0  0  0  0  0  0  0  0  0
  141.4753   71.7403  229.1189 H   0  0  0  0  0  0  0  0  0  0  0  0
  141.3190   72.9623  226.9507 H   0  0  0  0  0  0  0  0  0  0  0  0
  1  2  2  0
  2  3  1  0
  3  4  1  0
  4  5  1  0
  5  6  2  0
  5  7  1  0
  7  8  1  0
  8  9  1  0
  9 10  1  0
 10 11  1  0
 11 12  1  0
 12 13  1  0
 13 14  1  0
 14 15  1  0
 15 16  1  0
 16 17  1  0
 16 18  1  0
 16 19  1  0
 19 20  1  0
  2 21  1  0
 21 22  2  0
 22 23  1  0
 23 24  2  0
 24 25  1  0
 25 26  2  0
 26 27  1  0
 27 28  2  0
 28 29  1  0
 29 30  2  0
 12  7  1  0
 20 13  1  0
 30 21  1  0
 29 24  1  0
  3 31  1  0
  4 32  1  0
  4 33  1  0
  8 34  1  0
  8 35  1  0
  9 36  1  0
  9 37  1  0
 10 38  1  0
 10 39  1  0
 11 40  1  0
 11 41  1  0
 12 42  1  6
 13 43  1  0
 14 44  1  0
 14 45  1  0
 15 46  1  0
 15 47  1  0
 19 48  1  0
 19 49  1  0
 20 50  1  0
 20 51  1  0
 22 52  1  0
 23 53  1  0
 25 54  1  0
 26 55  1  0
 27 56  1  0
 28 57  1  0
M  END
>  <smiles>  (44) 
O=C(NCC(=O)N1CCCCC1C1CCC(F)(F)CC1)c1ccc2ccccc2n1

>  <score_type>  (44) 
oracle

>  <origin>  (44) 
autodockgpu

>  <m_score__min__energy>  (44) 
-9.3200000000000003

>  <m_primary>  (44) 
energy

>  <rmsd>  (44) 
1.536046807394194

>  <m_score__min__rmsd>  (44) 
1.536046807394194

>  <meeko>  (44) 
{"free_energy": -8.55, "intermolecular_energy": -10.04, "internal_energy": -2.15, "cluster_size": 34, "cluster_id": 1, "rank_in_cluster": 30}

>  <energy>  (44) 
-8.3

>  <cluster_rmsd>  (44) 
0.45

>  <cluster>  (44) 
3

$$$$

     RDKit          3D

 57 60  0  0  0  0  0  0  0  0999 V2000
  139.8550   71.3120  221.2460 O   0  0  0  0  0  0  0  0  0  0  0  0
  139.7850   71.9710  222.3390 C   0  0  0  0  0  0  0  0  0  0  0  0
  139.6000   73.3760  222.3670 N   0  0  0  0  0  0  0  0  0  0  0  0
  139.4770   74.1680  221.1590 C   0  0  0  0  0  0  0  0  0  0  0  0
  140.0620   75.5390  221.4080 C   0  0  0  0  0  0  0  0  0  0  0  0
  140.0710   75.8780  222.6150 O   0  0  0  0  0  0  0  0  0  0  0  0
  140.5220   76.2810  220.3210 N   0  0  0  0  0  0  0  0  0  0  0  0
  140.0890   75.8030  218.9610 C   0  0  0  0  0  0  0  0  0  0  0  0
  141.3350   75.7860  218.1260 C   0  0  0  0  0  0  0  0  0  0  0  0
  142.6330   76.0120  218.7850 C   0  0  0  0  0  0  0  0  0  0  0  0
  142.7250   76.7900  220.0420 C   0  0  0  0  0  0  0  0  0  0  0  0
  141.3640   77.4310  220.2770 C   0  0  2  0  0  0  0  0  0  0  0  0
  141.3180   78.5090  221.2400 C   0  0  0  0  0  0  0  0  0  0  0  0
  141.5060   78.2530  222.7060 C   0  0  0  0  0  0  0  0  0  0  0  0
  142.2010   79.5160  223.2710 C   0  0  0  0  0  0  0  0  0  0  0  0
  141.4580   80.7050  222.7880 C   0  0  0  0  0  0  0  0  0  0  0  0
  142.1850   81.4700  221.8880 F   0  0  0  0  0  0  0  0  0  0  0  0
  141.2850   81.5460  223.8970 F   0  0  0  0  0  0  0  0  0  0  0  0
  140.1060   80.4520  222.2230 C   0  0  0  0  0  0  0  0  0  0  0  0
  140.1390   79.4750  221.0530 C   0  0  0  0  0  0  0  0  0  0  0  0
  139.9050   71.2230  223.6060 C   0  0  0  0  0  0  0  0  0  0  0  0
  139.5380   69.9090  223.6830 C   0  0  0  0  0  0  0  0  0  0  0  0
  139.6580   69.2300  224.8790 C   0  0  0  0  0  0  0  0  0  0  0  0
  140.1420   69.8480  226.0090 C   0  0  0  0  0  0  0  0  0  0  0  0
  140.2570   69.1650  227.1900 C   0  0  0  0  0  0  0  0  0  0  0  0
  140.7430   69.8130  228.2890 C   0  0  0  0  0  0  0  0  0  0  0  0
  141.1140   71.1480  228.2080 C   0  0  0  0  0  0  0  0  0  0  0  0
  140.9980   71.8410  227.0100 C   0  0  0  0  0  0  0  0  0  0  0  0
  140.5060   71.1780  225.9030 C   0  0  0  0  0  0  0  0  0  0  0  0
  140.3760   71.8050  224.7280 N   0  0  0  0  0  0  0  0  0  0  0  0
  139.5570   73.8220  223.3320 H   0  0  0  0  0  0  0  0  0  0  0  0
  140.0225   73.6776  220.3393 H   0  0  0  0  0  0  0  0  0  0  0  0
  138.4165   74.2611  220.8819 H   0  0  0  0  0  0  0  0  0  0  0  0
  139.6574   74.7934  219.0279 H   0  0  0  0  0  0  0  0  0  0  0  0
  139.3160   76.4542  218.5269 H   0  0  0  0  0  0  0  0  0  0  0  0
  141.3859   74.8001  217.6409 H   0  0  0  0  0  0  0  0  0  0  0  0
  141.2204   76.6530  217.4588 H   0  0  0  0  0  0  0  0  0  0  0  0
  143.0513   75.0179  219.0012 H   0  0  0  0  0  0  0  0  0  0  0  0
  143.1618   76.6531  218.0644 H   0  0  0  0  0  0  0  0  0  0  0  0
  142.9771   76.1234  220.8799 H   0  0  0  0  0  0  0  0  0  0  0  0
  143.5100   77.5571  219.9692 H   0  0  0  0  0  0  0  0  0  0  0  0
  140.9785   78.1154  219.5069 H   0  0  0  0  0  0  0  0  0  0  0  0
  142.2764   78.9594  220.9423 H   0  0  0  0  0  0  0  0  0  0  0  0
  140.5329   78.1002  223.1957 H   0  0  0  0  0  0  0  0  0  0  0  0
  142.1052   77.3480  222.8846 H   0  0  0  0  0  0  0  0  0  0  0  0
  142.1872   79.4889  224.3706 H   0  0  0  0  0  0  0  0  0  0  0  0
  143.2476   79.5579  222.9350 H   0  0  0  0  0  0  0  0  0  0  0  0
  139.4650   80.0349  223.0137 H   0  0  0  0  0  0  0  0  0  0  0  0
  139.7137   81.4095  221.8497 H   0  0  0  0  0  0  0  0  0  0  0  0
  139.1980   78.9063  221.0210 H   0  0  0  0  0  0  0  0  0  0  0  0
  140.2589   80.0289  220.1102 H   0  0  0  0  0  0  0  0  0  0  0  0
  139.1475   69.3931  222.7934 H   0  0  0  0  0  0  0  0  0  0  0  0
  139.3603   68.1723  224.9296 H   0  0  0  0  0  0  0  0  0  0  0  0
  139.9615   68.1073  227.2526 H   0  0  0  0  0  0  0  0  0  0  0  0
  140.8410   69.2745  229.2432 H   0  0  0  0  0  0  0  0  0  0  0  0
  141.5030   71.6613  229.0998 H   0  0  0  0  0  0  0  0  0  0  0  0
  141.2927   72.8988  226.9441 H   0  0  0  0  0  0  0  0  0  0  0  0
  1  2  2  0
  2  3  1  0
  3  4  1  0
  4  5  1  0
  5  6  2  0
  5  7  1  0
  7  8  1  0
  8  9  1  0
  9 10  1  0
 10 11  1  0
 11 12  1  0
 12 13  1  0
 13 14  1  0
 14 15  1  0
 15 16  1  0
 16 17  1  0
 16 18  1  0
 16 19  1  0
 19 20  1  0
  2 21  1  0
 21 22  2  0
 22 23  1  0
 23 24  2  0
 24 25  1  0
 25 26  2  0
 26 27  1  0
 27 28  2  0
 28 29  1  0
 29 30  2  0
 12  7  1  0
 20 13  1  0
 30 21  1  0
 29 24  1  0
  3 31  1  0
  4 32  1  0
  4 33  1  0
  8 34  1  0
  8 35  1  0
  9 36  1  0
  9 37  1  0
 10 38  1  0
 10 39  1  0
 11 40  1  0
 11 41  1  0
 12 42  1  6
 13 43  1  0
 14 44  1  0
 14 45  1  0
 15 46  1  0
 15 47  1  0
 19 48  1  0
 19 49  1  0
 20 50  1  0
 20 51  1  0
 22 52  1  0
 23 53  1  0
 25 54  1  0
 26 55  1  0
 27 56  1  0
 28 57  1  0
M  END
>  <smiles>  (45) 
O=C(NCC(=O)N1CCCCC1C1CCC(F)(F)CC1)c1ccc2ccccc2n1

>  <score_type>  (45) 
oracle

>  <origin>  (45) 
autodockgpu

>  <m_score__min__energy>  (45) 
-9.3200000000000003

>  <m_primary>  (45) 
energy

>  <rmsd>  (45) 
1.5079745617922147

>  <m_score__min__rmsd>  (45) 
1.5079745617922147

>  <meeko>  (45) 
{"free_energy": -8.57, "intermolecular_energy": -10.06, "internal_energy": -2.03, "cluster_size": 34, "cluster_id": 1, "rank_in_cluster": 29}

>  <energy>  (45) 
-8.21

>  <cluster_rmsd>  (45) 
1.42

>  <cluster>  (45) 
3

$$$$

     RDKit          3D

 57 60  0  0  0  0  0  0  0  0999 V2000
  141.0730   71.2460  221.3530 O   0  0  0  0  0  0  0  0  0  0  0  0
  140.5950   71.9440  222.3110 C   0  0  0  0  0  0  0  0  0  0  0  0
  140.3330   73.3300  222.1830 N   0  0  0  0  0  0  0  0  0  0  0  0
  140.5890   74.0590  220.9560 C   0  0  0  0  0  0  0  0  0  0  0  0
  140.9870   75.4760  221.2990 C   0  0  0  0  0  0  0  0  0  0  0  0
  140.4950   75.8990  222.3720 O   0  0  0  0  0  0  0  0  0  0  0  0
  141.8320   76.1650  220.4310 N   0  0  0  0  0  0  0  0  0  0  0  0
  141.8570   77.6630  220.5790 C   0  0  0  0  0  0  0  0  0  0  0  0
  141.7210   78.2070  219.1880 C   0  0  0  0  0  0  0  0  0  0  0  0
  141.4120   77.2760  218.0900 C   0  0  0  0  0  0  0  0  0  0  0  0
  141.7830   75.8440  218.1760 C   0  0  0  0  0  0  0  0  0  0  0  0
  142.6840   75.6840  219.3930 C   0  0  2  0  0  0  0  0  0  0  0  0
  143.4470   74.4580  219.4720 C   0  0  0  0  0  0  0  0  0  0  0  0
  142.8980   73.1630  218.9520 C   0  0  0  0  0  0  0  0  0  0  0  0
  144.1180   72.3610  218.4380 C   0  0  0  0  0  0  0  0  0  0  0  0
  145.1610   72.3850  219.4910 C   0  0  0  0  0  0  0  0  0  0  0  0
  146.2800   73.1200  219.1300 F   0  0  0  0  0  0  0  0  0  0  0  0
  145.6360   71.0710  219.6150 F   0  0  0  0  0  0  0  0  0  0  0  0
  144.7210   72.8140  220.8460 C   0  0  0  0  0  0  0  0  0  0  0  0
  144.0990   74.2060  220.8390 C   0  0  0  0  0  0  0  0  0  0  0  0
  140.3140   71.2610  223.5900 C   0  0  0  0  0  0  0  0  0  0  0  0
  139.6590   70.0610  223.6160 C   0  0  0  0  0  0  0  0  0  0  0  0
  139.4060   69.4410  224.8230 C   0  0  0  0  0  0  0  0  0  0  0  0
  139.7990   70.0060  226.0150 C   0  0  0  0  0  0  0  0  0  0  0  0
  139.5420   69.3830  227.2070 C   0  0  0  0  0  0  0  0  0  0  0  0
  139.9480   69.9760  228.3680 C   0  0  0  0  0  0  0  0  0  0  0  0
  140.6120   71.1950  228.3390 C   0  0  0  0  0  0  0  0  0  0  0  0
  140.8720   71.8270  227.1300 C   0  0  0  0  0  0  0  0  0  0  0  0
  140.4590   71.2210  225.9590 C   0  0  0  0  0  0  0  0  0  0  0  0
  140.6860   71.7920  224.7720 N   0  0  0  0  0  0  0  0  0  0  0  0
  139.9360   73.8120  223.0440 H   0  0  0  0  0  0  0  0  0  0  0  0
  141.4037   73.5714  220.4005 H   0  0  0  0  0  0  0  0  0  0  0  0
  139.6823   74.0682  220.3333 H   0  0  0  0  0  0  0  0  0  0  0  0
  141.0197   78.0010  221.2072 H   0  0  0  0  0  0  0  0  0  0  0  0
  142.7820   78.0092  221.0632 H   0  0  0  0  0  0  0  0  0  0  0  0
  140.9172   78.9576  219.2114 H   0  0  0  0  0  0  0  0  0  0  0  0
  142.7283   78.5776  218.9474 H   0  0  0  0  0  0  0  0  0  0  0  0
  140.3214   77.3086  217.9500 H   0  0  0  0  0  0  0  0  0  0  0  0
  142.0524   77.6431  217.2744 H   0  0  0  0  0  0  0  0  0  0  0  0
  140.8797   75.2271  218.2922 H   0  0  0  0  0  0  0  0  0  0  0  0
  142.3011   75.5195  217.2615 H   0  0  0  0  0  0  0  0  0  0  0  0
  143.6216   76.2587  219.4170 H   0  0  0  0  0  0  0  0  0  0  0  0
  144.1830   74.7403  218.7048 H   0  0  0  0  0  0  0  0  0  0  0  0
  142.3896   72.6122  219.7571 H   0  0  0  0  0  0  0  0  0  0  0  0
  142.1587   73.3289  218.1546 H   0  0  0  0  0  0  0  0  0  0  0  0
  143.8210   71.3223  218.2308 H   0  0  0  0  0  0  0  0  0  0  0  0
  144.5035   72.8068  217.5092 H   0  0  0  0  0  0  0  0  0  0  0  0
  143.9765   72.0958  221.2200 H   0  0  0  0  0  0  0  0  0  0  0  0
  145.6095   72.8458  221.4938 H   0  0  0  0  0  0  0  0  0  0  0  0
  143.3362   74.2726  221.6288 H   0  0  0  0  0  0  0  0  0  0  0  0
  144.8777   74.9608  221.0230 H   0  0  0  0  0  0  0  0  0  0  0  0
  139.3341   69.5904  222.6763 H   0  0  0  0  0  0  0  0  0  0  0  0
  138.8794   68.4753  224.8325 H   0  0  0  0  0  0  0  0  0  0  0  0
  139.0154   68.4175  227.2290 H   0  0  0  0  0  0  0  0  0  0  0  0
  139.7478   69.4851  229.3318 H   0  0  0  0  0  0  0  0  0  0  0  0
  140.9345   71.6636  229.2805 H   0  0  0  0  0  0  0  0  0  0  0  0
  141.3975   72.7931  227.1051 H   0  0  0  0  0  0  0  0  0  0  0  0
  1  2  2  0
  2  3  1  0
  3  4  1  0
  4  5  1  0
  5  6  2  0
  5  7  1  0
  7  8  1  0
  8  9  1  0
  9 10  1  0
 10 11  1  0
 11 12  1  0
 12 13  1  0
 13 14  1  0
 14 15  1  0
 15 16  1  0
 16 17  1  0
 16 18  1  0
 16 19  1  0
 19 20  1  0
  2 21  1  0
 21 22  2  0
 22 23  1  0
 23 24  2  0
 24 25  1  0
 25 26  2  0
 26 27  1  0
 27 28  2  0
 28 29  1  0
 29 30  2  0
 12  7  1  0
 20 13  1  0
 30 21  1  0
 29 24  1  0
  3 31  1  0
  4 32  1  0
  4 33  1  0
  8 34  1  0
  8 35  1  0
  9 36  1  0
  9 37  1  0
 10 38  1  0
 10 39  1  0
 11 40  1  0
 11 41  1  0
 12 42  1  6
 13 43  1  0
 14 44  1  0
 14 45  1  0
 15 46  1  0
 15 47  1  0
 19 48  1  0
 19 49  1  0
 20 50  1  0
 20 51  1  0
 22 52  1  0
 23 53  1  0
 25 54  1  0
 26 55  1  0
 27 56  1  0
 28 57  1  0
M  END
>  <smiles>  (46) 
O=C(NCC(=O)N1CCCCC1C1CCC(F)(F)CC1)c1ccc2ccccc2n1

>  <score_type>  (46) 
oracle

>  <origin>  (46) 
autodockgpu

>  <m_score__min__energy>  (46) 
-9.3200000000000003

>  <m_primary>  (46) 
energy

>  <rmsd>  (46) 
2.397994421083654

>  <m_score__min__rmsd>  (46) 
2.397994421083654

>  <meeko>  (46) 
{"free_energy": -8.05, "intermolecular_energy": -9.54, "internal_energy": -2.24, "cluster_size": 11, "cluster_id": 3, "rank_in_cluster": 10}

>  <energy>  (46) 
-8.19

>  <cluster_rmsd>  (46) 
1.39

>  <cluster>  (46) 
3

$$$$

     RDKit          3D

 57 60  0  0  0  0  0  0  0  0999 V2000
  140.3030   71.3260  221.2020 O   0  0  0  0  0  0  0  0  0  0  0  0
  140.0160   72.0060  222.2450 C   0  0  0  0  0  0  0  0  0  0  0  0
  139.7020   73.3860  222.1890 N   0  0  0  0  0  0  0  0  0  0  0  0
  139.6820   74.1280  220.9440 C   0  0  0  0  0  0  0  0  0  0  0  0
  139.9220   75.5910  221.2390 C   0  0  0  0  0  0  0  0  0  0  0  0
  139.6750   75.9200  222.4230 O   0  0  0  0  0  0  0  0  0  0  0  0
  140.3780   76.4170  220.2140 N   0  0  0  0  0  0  0  0  0  0  0  0
  139.9560   76.0390  218.8190 C   0  0  0  0  0  0  0  0  0  0  0  0
  141.2050   76.0970  217.9910 C   0  0  0  0  0  0  0  0  0  0  0  0
  142.4980   76.2860  218.6700 C   0  0  0  0  0  0  0  0  0  0  0  0
  142.5780   76.9670  219.9830 C   0  0  0  0  0  0  0  0  0  0  0  0
  141.2100   77.5750  220.2600 C   0  0  2  0  0  0  0  0  0  0  0  0
  141.1500   78.5770  221.3020 C   0  0  0  0  0  0  0  0  0  0  0  0
  141.4570   78.2350  222.7300 C   0  0  0  0  0  0  0  0  0  0  0  0
  142.0920   79.5070  223.3420 C   0  0  0  0  0  0  0  0  0  0  0  0
  141.2310   80.6640  222.9970 C   0  0  0  0  0  0  0  0  0  0  0  0
  141.8350   81.5450  222.1120 F   0  0  0  0  0  0  0  0  0  0  0  0
  141.0720   81.4100  224.1740 F   0  0  0  0  0  0  0  0  0  0  0  0
  139.8660   80.3440  222.5010 C   0  0  0  0  0  0  0  0  0  0  0  0
  139.8920   79.4560  221.2620 C   0  0  0  0  0  0  0  0  0  0  0  0
  140.0210   71.3080  223.5470 C   0  0  0  0  0  0  0  0  0  0  0  0
  139.5220   70.0410  223.6670 C   0  0  0  0  0  0  0  0  0  0  0  0
  139.5350   69.4090  224.8930 C   0  0  0  0  0  0  0  0  0  0  0  0
  140.0430   70.0280  226.0130 C   0  0  0  0  0  0  0  0  0  0  0  0
  140.0510   69.3920  227.2260 C   0  0  0  0  0  0  0  0  0  0  0  0
  140.5630   70.0400  228.3130 C   0  0  0  0  0  0  0  0  0  0  0  0
  141.0690   71.3270  228.1890 C   0  0  0  0  0  0  0  0  0  0  0  0
  141.0610   71.9720  226.9590 C   0  0  0  0  0  0  0  0  0  0  0  0
  140.5410   71.3100  225.8640 C   0  0  0  0  0  0  0  0  0  0  0  0
  140.5110   71.8920  224.6590 N   0  0  0  0  0  0  0  0  0  0  0  0
  139.4790   73.8520  223.1190 H   0  0  0  0  0  0  0  0  0  0  0  0
  140.4722   73.7517  220.2777 H   0  0  0  0  0  0  0  0  0  0  0  0
  138.7058   74.0033  220.4527 H   0  0  0  0  0  0  0  0  0  0  0  0
  139.5342   75.0231  218.8073 H   0  0  0  0  0  0  0  0  0  0  0  0
  139.1787   76.7141  218.4316 H   0  0  0  0  0  0  0  0  0  0  0  0
  141.2677   75.1507  217.4338 H   0  0  0  0  0  0  0  0  0  0  0  0
  141.0839   77.0106  217.3904 H   0  0  0  0  0  0  0  0  0  0  0  0
  142.9265   75.2828  218.8114 H   0  0  0  0  0  0  0  0  0  0  0  0
  143.0217   76.9859  218.0023 H   0  0  0  0  0  0  0  0  0  0  0  0
  142.8337   76.2411  220.7689 H   0  0  0  0  0  0  0  0  0  0  0  0
  143.3557   77.7449  219.9722 H   0  0  0  0  0  0  0  0  0  0  0  0
  140.8210   78.3114  219.5414 H   0  0  0  0  0  0  0  0  0  0  0  0
  142.0490   79.1226  220.9795 H   0  0  0  0  0  0  0  0  0  0  0  0
  140.5342   77.9711  223.2674 H   0  0  0  0  0  0  0  0  0  0  0  0
  142.1331   77.3703  222.8025 H   0  0  0  0  0  0  0  0  0  0  0  0
  142.1559   79.4027  224.4352 H   0  0  0  0  0  0  0  0  0  0  0  0
  143.1067   79.6553  222.9441 H   0  0  0  0  0  0  0  0  0  0  0  0
  139.3137   79.8235  223.2973 H   0  0  0  0  0  0  0  0  0  0  0  0
  139.3785   81.2907  222.2253 H   0  0  0  0  0  0  0  0  0  0  0  0
  138.9965   78.8174  221.2473 H   0  0  0  0  0  0  0  0  0  0  0  0
  139.9049   80.0815  220.3572 H   0  0  0  0  0  0  0  0  0  0  0  0
  139.1104   69.5259  222.7865 H   0  0  0  0  0  0  0  0  0  0  0  0
  139.1311   68.3893  224.9776 H   0  0  0  0  0  0  0  0  0  0  0  0
  139.6501   68.3723  227.3231 H   0  0  0  0  0  0  0  0  0  0  0  0
  140.5748   69.5397  229.2926 H   0  0  0  0  0  0  0  0  0  0  0  0
  141.4793   71.8396  229.0715 H   0  0  0  0  0  0  0  0  0  0  0  0
  141.4615   72.9916  226.8587 H   0  0  0  0  0  0  0  0  0  0  0  0
  1  2  2  0
  2  3  1  0
  3  4  1  0
  4  5  1  0
  5  6  2  0
  5  7  1  0
  7  8  1  0
  8  9  1  0
  9 10  1  0
 10 11  1  0
 11 12  1  0
 12 13  1  0
 13 14  1  0
 14 15  1  0
 15 16  1  0
 16 17  1  0
 16 18  1  0
 16 19  1  0
 19 20  1  0
  2 21  1  0
 21 22  2  0
 22 23  1  0
 23 24  2  0
 24 25  1  0
 25 26  2  0
 26 27  1  0
 27 28  2  0
 28 29  1  0
 29 30  2  0
 12  7  1  0
 20 13  1  0
 30 21  1  0
 29 24  1  0
  3 31  1  0
  4 32  1  0
  4 33  1  0
  8 34  1  0
  8 35  1  0
  9 36  1  0
  9 37  1  0
 10 38  1  0
 10 39  1  0
 11 40  1  0
 11 41  1  0
 12 42  1  6
 13 43  1  0
 14 44  1  0
 14 45  1  0
 15 46  1  0
 15 47  1  0
 19 48  1  0
 19 49  1  0
 20 50  1  0
 20 51  1  0
 22 52  1  0
 23 53  1  0
 25 54  1  0
 26 55  1  0
 27 56  1  0
 28 57  1  0
M  END
>  <smiles>  (47) 
O=C(NCC(=O)N1CCCCC1C1CCC(F)(F)CC1)c1ccc2ccccc2n1

>  <score_type>  (47) 
oracle

>  <origin>  (47) 
autodockgpu

>  <m_score__min__energy>  (47) 
-9.3200000000000003

>  <m_primary>  (47) 
energy

>  <rmsd>  (47) 
1.55489542307412

>  <m_score__min__rmsd>  (47) 
1.55489542307412

>  <meeko>  (47) 
{"free_energy": -8.62, "intermolecular_energy": -10.11, "internal_energy": -2.06, "cluster_size": 34, "cluster_id": 1, "rank_in_cluster": 27}

>  <energy>  (47) 
-8.1

>  <cluster_rmsd>  (47) 
0.85

>  <cluster>  (47) 
3

$$$$

     RDKit          3D

 57 60  0  0  0  0  0  0  0  0999 V2000
  140.5860   71.2940  221.2380 O   0  0  0  0  0  0  0  0  0  0  0  0
  139.8980   71.8520  222.1590 C   0  0  0  0  0  0  0  0  0  0  0  0
  139.1150   73.0090  221.9270 N   0  0  0  0  0  0  0  0  0  0  0  0
  139.0360   73.6450  220.6270 C   0  0  0  0  0  0  0  0  0  0  0  0
  140.4340   73.8340  220.0840 C   0  0  0  0  0  0  0  0  0  0  0  0
  140.6920   73.1250  219.0830 O   0  0  0  0  0  0  0  0  0  0  0  0
  141.2830   74.7410  220.7160 N   0  0  0  0  0  0  0  0  0  0  0  0
  140.6430   75.6540  221.7270 C   0  0  0  0  0  0  0  0  0  0  0  0
  141.1460   77.0300  221.4010 C   0  0  0  0  0  0  0  0  0  0  0  0
  141.9150   77.2280  220.1610 C   0  0  0  0  0  0  0  0  0  0  0  0
  142.6780   76.1140  219.5510 C   0  0  0  0  0  0  0  0  0  0  0  0
  142.6810   74.9670  220.5520 C   0  0  2  0  0  0  0  0  0  0  0  0
  143.6520   73.9190  220.3270 C   0  0  0  0  0  0  0  0  0  0  0  0
  143.4110   72.5180  220.8040 C   0  0  0  0  0  0  0  0  0  0  0  0
  144.1050   71.5940  219.7730 C   0  0  0  0  0  0  0  0  0  0  0  0
  145.4800   72.1040  219.5520 C   0  0  0  0  0  0  0  0  0  0  0  0
  145.6670   72.6230  218.2790 F   0  0  0  0  0  0  0  0  0  0  0  0
  146.3330   70.9910  219.6010 F   0  0  0  0  0  0  0  0  0  0  0  0
  145.9890   73.0820  220.5500 C   0  0  0  0  0  0  0  0  0  0  0  0
  145.0980   74.3140  220.6620 C   0  0  0  0  0  0  0  0  0  0  0  0
  139.9370   71.2530  223.5090 C   0  0  0  0  0  0  0  0  0  0  0  0
  139.3780   70.0290  223.7510 C   0  0  0  0  0  0  0  0  0  0  0  0
  139.4250   69.4900  225.0200 C   0  0  0  0  0  0  0  0  0  0  0  0
  140.0260   70.1590  226.0620 C   0  0  0  0  0  0  0  0  0  0  0  0
  140.0670   69.6150  227.3180 C   0  0  0  0  0  0  0  0  0  0  0  0
  140.6730   70.3100  228.3240 C   0  0  0  0  0  0  0  0  0  0  0  0
  141.2400   71.5530  228.0760 C   0  0  0  0  0  0  0  0  0  0  0  0
  141.1990   72.1050  226.8030 C   0  0  0  0  0  0  0  0  0  0  0  0
  140.5840   71.3960  225.7890 C   0  0  0  0  0  0  0  0  0  0  0  0
  140.5190   71.8870  224.5470 N   0  0  0  0  0  0  0  0  0  0  0  0
  138.5830   73.3890  222.7660 H   0  0  0  0  0  0  0  0  0  0  0  0
  138.4568   73.0098  219.9406 H   0  0  0  0  0  0  0  0  0  0  0  0
  138.5395   74.6220  220.7216 H   0  0  0  0  0  0  0  0  0  0  0  0
  139.5471   75.6150  221.6406 H   0  0  0  0  0  0  0  0  0  0  0  0
  140.8942   75.3615  222.7572 H   0  0  0  0  0  0  0  0  0  0  0  0
  140.2682   77.6907  221.3462 H   0  0  0  0  0  0  0  0  0  0  0  0
  141.8700   77.2453  222.2007 H   0  0  0  0  0  0  0  0  0  0  0  0
  141.1985   77.5702  219.3998 H   0  0  0  0  0  0  0  0  0  0  0  0
  142.7088   77.9212  220.4763 H   0  0  0  0  0  0  0  0  0  0  0  0
  142.1960   75.7956  218.6149 H   0  0  0  0  0  0  0  0  0  0  0  0
  143.7054   76.4283  219.3153 H   0  0  0  0  0  0  0  0  0  0  0  0
  143.1226   75.1511  221.5425 H   0  0  0  0  0  0  0  0  0  0  0  0
  143.4807   73.8446  219.2430 H   0  0  0  0  0  0  0  0  0  0  0  0
  143.8482   72.3733  221.8029 H   0  0  0  0  0  0  0  0  0  0  0  0
  142.3363   72.2979  220.8849 H   0  0  0  0  0  0  0  0  0  0  0  0
  144.1463   70.5658  220.1618 H   0  0  0  0  0  0  0  0  0  0  0  0
  143.5435   71.5877  218.8271 H   0  0  0  0  0  0  0  0  0  0  0  0
  146.0380   72.5908  221.5330 H   0  0  0  0  0  0  0  0  0  0  0  0
  146.9827   73.4156  220.2165 H   0  0  0  0  0  0  0  0  0  0  0  0
  145.1438   74.7100  221.6872 H   0  0  0  0  0  0  0  0  0  0  0  0
  145.4437   75.0871  219.9600 H   0  0  0  0  0  0  0  0  0  0  0  0
  138.8914   69.4747  222.9349 H   0  0  0  0  0  0  0  0  0  0  0  0
  138.9724   68.5043  225.2031 H   0  0  0  0  0  0  0  0  0  0  0  0
  139.6172   68.6304  227.5135 H   0  0  0  0  0  0  0  0  0  0  0  0
  140.7125   69.8831  229.3370 H   0  0  0  0  0  0  0  0  0  0  0  0
  141.7254   72.1046  228.8946 H   0  0  0  0  0  0  0  0  0  0  0  0
  141.6482   73.0894  226.6050 H   0  0  0  0  0  0  0  0  0  0  0  0
  1  2  2  0
  2  3  1  0
  3  4  1  0
  4  5  1  0
  5  6  2  0
  5  7  1  0
  7  8  1  0
  8  9  1  0
  9 10  1  0
 10 11  1  0
 11 12  1  0
 12 13  1  0
 13 14  1  0
 14 15  1  0
 15 16  1  0
 16 17  1  0
 16 18  1  0
 16 19  1  0
 19 20  1  0
  2 21  1  0
 21 22  2  0
 22 23  1  0
 23 24  2  0
 24 25  1  0
 25 26  2  0
 26 27  1  0
 27 28  2  0
 28 29  1  0
 29 30  2  0
 12  7  1  0
 20 13  1  0
 30 21  1  0
 29 24  1  0
  3 31  1  0
  4 32  1  0
  4 33  1  0
  8 34  1  0
  8 35  1  0
  9 36  1  0
  9 37  1  0
 10 38  1  0
 10 39  1  0
 11 40  1  0
 11 41  1  0
 12 42  1  1
 13 43  1  0
 14 44  1  0
 14 45  1  0
 15 46  1  0
 15 47  1  0
 19 48  1  0
 19 49  1  0
 20 50  1  0
 20 51  1  0
 22 52  1  0
 23 53  1  0
 25 54  1  0
 26 55  1  0
 27 56  1  0
 28 57  1  0
M  END
>  <smiles>  (48) 
O=C(NCC(=O)N1CCCCC1C1CCC(F)(F)CC1)c1ccc2ccccc2n1

>  <score_type>  (48) 
oracle

>  <origin>  (48) 
autodockgpu

>  <m_score__min__energy>  (48) 
-9.3200000000000003

>  <m_primary>  (48) 
energy

>  <rmsd>  (48) 
2.3605449350109415

>  <m_score__min__rmsd>  (48) 
2.3605449350109415

>  <meeko>  (48) 
{"free_energy": -8.68, "intermolecular_energy": -10.17, "internal_energy": -1.79, "cluster_size": 11, "cluster_id": 3, "rank_in_cluster": 3}

>  <energy>  (48) 
-8.05

>  <cluster_rmsd>  (48) 
1.21

>  <cluster>  (48) 
3

$$$$

     RDKit          3D

 57 60  0  0  0  0  0  0  0  0999 V2000
  140.0480   71.3010  221.2270 O   0  0  0  0  0  0  0  0  0  0  0  0
  139.8930   71.9870  222.2950 C   0  0  0  0  0  0  0  0  0  0  0  0
  139.6900   73.3890  222.2740 N   0  0  0  0  0  0  0  0  0  0  0  0
  139.6440   74.1490  221.0400 C   0  0  0  0  0  0  0  0  0  0  0  0
  140.0750   75.5700  221.3210 C   0  0  0  0  0  0  0  0  0  0  0  0
  140.0170   75.8910  222.5310 O   0  0  0  0  0  0  0  0  0  0  0  0
  140.4850   76.3700  220.2560 N   0  0  0  0  0  0  0  0  0  0  0  0
  139.8940   76.0400  218.9120 C   0  0  0  0  0  0  0  0  0  0  0  0
  141.0520   76.0130  217.9590 C   0  0  0  0  0  0  0  0  0  0  0  0
  142.4180   76.0970  218.5010 C   0  0  0  0  0  0  0  0  0  0  0  0
  142.6840   76.7560  219.8010 C   0  0  0  0  0  0  0  0  0  0  0  0
  141.4020   77.4620  220.2190 C   0  0  2  0  0  0  0  0  0  0  0  0
  141.5260   78.4540  221.2650 C   0  0  0  0  0  0  0  0  0  0  0  0
  140.5290   78.5370  222.3820 C   0  0  0  0  0  0  0  0  0  0  0  0
  141.3210   79.0220  223.6210 C   0  0  0  0  0  0  0  0  0  0  0  0
  142.1250   80.2020  223.2200 C   0  0  0  0  0  0  0  0  0  0  0  0
  143.4900   79.9530  223.2220 F   0  0  0  0  0  0  0  0  0  0  0  0
  141.9480   81.1670  224.2220 F   0  0  0  0  0  0  0  0  0  0  0  0
  141.7550   80.8450  221.9310 C   0  0  0  0  0  0  0  0  0  0  0  0
  141.8220   79.8730  220.7580 C   0  0  0  0  0  0  0  0  0  0  0  0
  139.9320   71.2720  223.5860 C   0  0  0  0  0  0  0  0  0  0  0  0
  139.4850   69.9840  223.6900 C   0  0  0  0  0  0  0  0  0  0  0  0
  139.5300   69.3360  224.9080 C   0  0  0  0  0  0  0  0  0  0  0  0
  140.0170   69.9600  226.0340 C   0  0  0  0  0  0  0  0  0  0  0  0
  140.0570   69.3070  227.2380 C   0  0  0  0  0  0  0  0  0  0  0  0
  140.5480   69.9600  228.3310 C   0  0  0  0  0  0  0  0  0  0  0  0
  141.0000   71.2680  228.2240 C   0  0  0  0  0  0  0  0  0  0  0  0
  140.9600   71.9300  227.0030 C   0  0  0  0  0  0  0  0  0  0  0  0
  140.4620   71.2630  225.9010 C   0  0  0  0  0  0  0  0  0  0  0  0
  140.4030   71.8590  224.7050 N   0  0  0  0  0  0  0  0  0  0  0  0
  139.5740   73.8580  223.2220 H   0  0  0  0  0  0  0  0  0  0  0  0
  140.3234   73.6965  220.3026 H   0  0  0  0  0  0  0  0  0  0  0  0
  138.6200   74.1438  220.6382 H   0  0  0  0  0  0  0  0  0  0  0  0
  139.3975   75.0589  218.9411 H   0  0  0  0  0  0  0  0  0  0  0  0
  139.1342   76.7756  218.6093 H   0  0  0  0  0  0  0  0  0  0  0  0
  140.9851   75.0707  217.3954 H   0  0  0  0  0  0  0  0  0  0  0  0
  140.9392   76.9394  217.3767 H   0  0  0  0  0  0  0  0  0  0  0  0
  142.7815   75.0630  218.5944 H   0  0  0  0  0  0  0  0  0  0  0  0
  142.9219   76.7627  217.7848 H   0  0  0  0  0  0  0  0  0  0  0  0
  142.9631   76.0045  220.5542 H   0  0  0  0  0  0  0  0  0  0  0  0
  143.5134   77.4731  219.7125 H   0  0  0  0  0  0  0  0  0  0  0  0
  140.9977   78.2330  219.5466 H   0  0  0  0  0  0  0  0  0  0  0  0
  142.4004   77.9935  221.7481 H   0  0  0  0  0  0  0  0  0  0  0  0
  139.7328   79.2536  222.1320 H   0  0  0  0  0  0  0  0  0  0  0  0
  140.0458   77.5660  222.5657 H   0  0  0  0  0  0  0  0  0  0  0  0
  140.6230   79.3016  224.4239 H   0  0  0  0  0  0  0  0  0  0  0  0
  141.9777   78.2210  223.9914 H   0  0  0  0  0  0  0  0  0  0  0  0
  140.7286   81.2324  222.0110 H   0  0  0  0  0  0  0  0  0  0  0  0
  142.4762   81.6532  221.7394 H   0  0  0  0  0  0  0  0  0  0  0  0
  141.0761   80.1570  220.0010 H   0  0  0  0  0  0  0  0  0  0  0  0
  142.8249   79.9042  220.3071 H   0  0  0  0  0  0  0  0  0  0  0  0
  139.0901   69.4649  222.8043 H   0  0  0  0  0  0  0  0  0  0  0  0
  139.1691   68.2994  224.9802 H   0  0  0  0  0  0  0  0  0  0  0  0
  139.6982   68.2706  227.3223 H   0  0  0  0  0  0  0  0  0  0  0  0
  140.5858   69.4465  229.3031 H   0  0  0  0  0  0  0  0  0  0  0  0
  141.3928   71.7843  229.1124 H   0  0  0  0  0  0  0  0  0  0  0  0
  141.3184   72.9663  226.9157 H   0  0  0  0  0  0  0  0  0  0  0  0
  1  2  2  0
  2  3  1  0
  3  4  1  0
  4  5  1  0
  5  6  2  0
  5  7  1  0
  7  8  1  0
  8  9  1  0
  9 10  1  0
 10 11  1  0
 11 12  1  0
 12 13  1  0
 13 14  1  0
 14 15  1  0
 15 16  1  0
 16 17  1  0
 16 18  1  0
 16 19  1  0
 19 20  1  0
  2 21  1  0
 21 22  2  0
 22 23  1  0
 23 24  2  0
 24 25  1  0
 25 26  2  0
 26 27  1  0
 27 28  2  0
 28 29  1  0
 29 30  2  0
 12  7  1  0
 20 13  1  0
 30 21  1  0
 29 24  1  0
  3 31  1  0
  4 32  1  0
  4 33  1  0
  8 34  1  0
  8 35  1  0
  9 36  1  0
  9 37  1  0
 10 38  1  0
 10 39  1  0
 11 40  1  0
 11 41  1  0
 12 42  1  6
 13 43  1  0
 14 44  1  0
 14 45  1  0
 15 46  1  0
 15 47  1  0
 19 48  1  0
 19 49  1  0
 20 50  1  0
 20 51  1  0
 22 52  1  0
 23 53  1  0
 25 54  1  0
 26 55  1  0
 27 56  1  0
 28 57  1  0
M  END
>  <smiles>  (49) 
O=C(NCC(=O)N1CCCCC1C1CCC(F)(F)CC1)c1ccc2ccccc2n1

>  <score_type>  (49) 
oracle

>  <origin>  (49) 
autodockgpu

>  <m_score__min__energy>  (49) 
-9.3200000000000003

>  <m_primary>  (49) 
energy

>  <rmsd>  (49) 
1.503977380298013

>  <m_score__min__rmsd>  (49) 
1.503977380298013

>  <meeko>  (49) 
{"free_energy": -9.05, "intermolecular_energy": -10.54, "internal_energy": -1.93, "cluster_size": 34, "cluster_id": 1, "rank_in_cluster": 15}

>  <energy>  (49) 
-7.72

>  <cluster_rmsd>  (49) 
1.39

>  <cluster>  (49) 
3

$$$$

     RDKit          3D

 57 60  0  0  0  0  0  0  0  0999 V2000
  140.0120   71.3390  221.2040 O   0  0  0  0  0  0  0  0  0  0  0  0
  139.9000   71.9980  222.2930 C   0  0  0  0  0  0  0  0  0  0  0  0
  139.7060   73.4020  222.3140 N   0  0  0  0  0  0  0  0  0  0  0  0
  139.6190   74.1930  221.1020 C   0  0  0  0  0  0  0  0  0  0  0  0
  140.1470   75.5810  221.3810 C   0  0  0  0  0  0  0  0  0  0  0  0
  140.1350   75.8960  222.5940 O   0  0  0  0  0  0  0  0  0  0  0  0
  140.5840   76.3610  220.3120 N   0  0  0  0  0  0  0  0  0  0  0  0
  140.0150   76.0150  218.9620 C   0  0  0  0  0  0  0  0  0  0  0  0
  141.1910   75.9640  218.0320 C   0  0  0  0  0  0  0  0  0  0  0  0
  142.5470   76.0450  218.5990 C   0  0  0  0  0  0  0  0  0  0  0  0
  142.7940   76.7220  219.8940 C   0  0  0  0  0  0  0  0  0  0  0  0
  141.5100   77.4450  220.2760 C   0  0  2  0  0  0  0  0  0  0  0  0
  141.6220   78.4520  221.3090 C   0  0  0  0  0  0  0  0  0  0  0  0
  140.6520   78.5090  222.4510 C   0  0  0  0  0  0  0  0  0  0  0  0
  141.4560   79.0370  223.6640 C   0  0  0  0  0  0  0  0  0  0  0  0
  142.2030   80.2420  223.2310 C   0  0  0  0  0  0  0  0  0  0  0  0
  143.5760   80.0460  223.2000 F   0  0  0  0  0  0  0  0  0  0  0  0
  142.0140   81.2100  224.2280 F   0  0  0  0  0  0  0  0  0  0  0  0
  141.7750   80.8570  221.9460 C   0  0  0  0  0  0  0  0  0  0  0  0
  141.8500   79.8760  220.7810 C   0  0  0  0  0  0  0  0  0  0  0  0
  139.9810   71.2520  223.5640 C   0  0  0  0  0  0  0  0  0  0  0  0
  139.5870   69.9450  223.6370 C   0  0  0  0  0  0  0  0  0  0  0  0
  139.6700   69.2670  224.8370 C   0  0  0  0  0  0  0  0  0  0  0  0
  140.1450   69.8790  225.9740 C   0  0  0  0  0  0  0  0  0  0  0  0
  140.2240   69.1970  227.1590 C   0  0  0  0  0  0  0  0  0  0  0  0
  140.7010   69.8390  228.2650 C   0  0  0  0  0  0  0  0  0  0  0  0
  141.1000   71.1660  228.1890 C   0  0  0  0  0  0  0  0  0  0  0  0
  141.0210   71.8580  226.9870 C   0  0  0  0  0  0  0  0  0  0  0  0
  140.5370   71.2020  225.8720 C   0  0  0  0  0  0  0  0  0  0  0  0
  140.4420   71.8270  224.6930 N   0  0  0  0  0  0  0  0  0  0  0  0
  139.6270   73.8480  223.2760 H   0  0  0  0  0  0  0  0  0  0  0  0
  140.2202   73.7220  220.3104 H   0  0  0  0  0  0  0  0  0  0  0  0
  138.5713   74.2534  220.7723 H   0  0  0  0  0  0  0  0  0  0  0  0
  139.5098   75.0385  218.9967 H   0  0  0  0  0  0  0  0  0  0  0  0
  139.2669   76.7516  218.6337 H   0  0  0  0  0  0  0  0  0  0  0  0
  141.1269   75.0138  217.4815 H   0  0  0  0  0  0  0  0  0  0  0  0
  141.0973   76.8824  217.4338 H   0  0  0  0  0  0  0  0  0  0  0  0
  142.8997   75.0096  218.7152 H   0  0  0  0  0  0  0  0  0  0  0  0
  143.0701   76.6954  217.8826 H   0  0  0  0  0  0  0  0  0  0  0  0
  143.0521   75.9800  220.6640 H   0  0  0  0  0  0  0  0  0  0  0  0
  143.6312   77.4306  219.8108 H   0  0  0  0  0  0  0  0  0  0  0  0
  141.1252   78.2088  219.5843 H   0  0  0  0  0  0  0  0  0  0  0  0
  142.5252   78.0296  221.7735 H   0  0  0  0  0  0  0  0  0  0  0  0
  139.8227   79.1920  222.2150 H   0  0  0  0  0  0  0  0  0  0  0  0
  140.2116   77.5222  222.6567 H   0  0  0  0  0  0  0  0  0  0  0  0
  140.7685   79.2982  224.4820 H   0  0  0  0  0  0  0  0  0  0  0  0
  142.1523   78.2658  224.0250 H   0  0  0  0  0  0  0  0  0  0  0  0
  140.7366   81.2049  222.0490 H   0  0  0  0  0  0  0  0  0  0  0  0
  142.4586   81.6908  221.7281 H   0  0  0  0  0  0  0  0  0  0  0  0
  141.0748   80.1231  220.0407 H   0  0  0  0  0  0  0  0  0  0  0  0
  142.8392   79.9410  220.3044 H   0  0  0  0  0  0  0  0  0  0  0  0
  139.2044   69.4342  222.7411 H   0  0  0  0  0  0  0  0  0  0  0  0
  139.3497   68.2158  224.8849 H   0  0  0  0  0  0  0  0  0  0  0  0
  139.9071   68.1453  227.2187 H   0  0  0  0  0  0  0  0  0  0  0  0
  140.7696   69.3014  229.2222 H   0  0  0  0  0  0  0  0  0  0  0  0
  141.4816   71.6736  229.0871 H   0  0  0  0  0  0  0  0  0  0  0  0
  141.3382   72.9094  226.9243 H   0  0  0  0  0  0  0  0  0  0  0  0
  1  2  2  0
  2  3  1  0
  3  4  1  0
  4  5  1  0
  5  6  2  0
  5  7  1  0
  7  8  1  0
  8  9  1  0
  9 10  1  0
 10 11  1  0
 11 12  1  0
 12 13  1  0
 13 14  1  0
 14 15  1  0
 15 16  1  0
 16 17  1  0
 16 18  1  0
 16 19  1  0
 19 20  1  0
  2 21  1  0
 21 22  2  0
 22 23  1  0
 23 24  2  0
 24 25  1  0
 25 26  2  0
 26 27  1  0
 27 28  2  0
 28 29  1  0
 29 30  2  0
 12  7  1  0
 20 13  1  0
 30 21  1  0
 29 24  1  0
  3 31  1  0
  4 32  1  0
  4 33  1  0
  8 34  1  0
  8 35  1  0
  9 36  1  0
  9 37  1  0
 10 38  1  0
 10 39  1  0
 11 40  1  0
 11 41  1  0
 12 42  1  6
 13 43  1  0
 14 44  1  0
 14 45  1  0
 15 46  1  0
 15 47  1  0
 19 48  1  0
 19 49  1  0
 20 50  1  0
 20 51  1  0
 22 52  1  0
 23 53  1  0
 25 54  1  0
 26 55  1  0
 27 56  1  0
 28 57  1  0
M  END
>  <smiles>  (50) 
O=C(NCC(=O)N1CCCCC1C1CCC(F)(F)CC1)c1ccc2ccccc2n1

>  <score_type>  (50) 
oracle

>  <origin>  (50) 
autodockgpu

>  <m_score__min__energy>  (50) 
-9.3200000000000003

>  <m_primary>  (50) 
energy

>  <rmsd>  (50) 
1.5292965979492699

>  <m_score__min__rmsd>  (50) 
1.5292965979492699

>  <meeko>  (50) 
{"free_energy": -9.02, "intermolecular_energy": -10.51, "internal_energy": -1.89, "cluster_size": 34, "cluster_id": 1, "rank_in_cluster": 16}

>  <energy>  (50) 
-6.88

>  <cluster_rmsd>  (50) 
0.0

>  <cluster>  (50) 
4

$$$$

     RDKit          3D

 57 60  0  0  0  0  0  0  0  0999 V2000
  141.2000   71.4910  221.4580 O   0  0  0  0  0  0  0  0  0  0  0  0
  140.5590   72.0530  222.3900 C   0  0  0  0  0  0  0  0  0  0  0  0
  140.0820   73.3830  222.3280 N   0  0  0  0  0  0  0  0  0  0  0  0
  140.3340   74.1590  221.1300 C   0  0  0  0  0  0  0  0  0  0  0  0
  140.5290   75.6150  221.4690 C   0  0  0  0  0  0  0  0  0  0  0  0
  139.7480   76.0670  222.3420 O   0  0  0  0  0  0  0  0  0  0  0  0
  141.5360   76.3520  220.8100 N   0  0  0  0  0  0  0  0  0  0  0  0
  142.6200   75.6180  220.0950 C   0  0  0  0  0  0  0  0  0  0  0  0
  142.4890   75.9520  218.6210 C   0  0  0  0  0  0  0  0  0  0  0  0
  142.5420   77.4400  218.4770 C   0  0  0  0  0  0  0  0  0  0  0  0
  141.4150   78.1220  219.2550 C   0  0  0  0  0  0  0  0  0  0  0  0
  141.6330   77.7750  220.7200 C   0  0  1  0  0  0  0  0  0  0  0  0
  140.8990   78.5940  221.6980 C   0  0  0  0  0  0  0  0  0  0  0  0
  141.1160   80.0850  221.5000 C   0  0  0  0  0  0  0  0  0  0  0  0
  142.4980   80.4360  221.9460 C   0  0  0  0  0  0  0  0  0  0  0  0
  142.4110   80.6160  223.4700 C   0  0  0  0  0  0  0  0  0  0  0  0
  141.8360   81.8700  223.6690 F   0  0  0  0  0  0  0  0  0  0  0  0
  143.6420   80.5800  224.0670 F   0  0  0  0  0  0  0  0  0  0  0  0
  141.4480   79.5710  223.9610 C   0  0  0  0  0  0  0  0  0  0  0  0
  141.4800   78.3210  223.0980 C   0  0  0  0  0  0  0  0  0  0  0  0
  140.2920   71.2830  223.6180 C   0  0  0  0  0  0  0  0  0  0  0  0
  139.6300   70.0730  223.5880 C   0  0  0  0  0  0  0  0  0  0  0  0
  139.3660   69.3300  224.7220 C   0  0  0  0  0  0  0  0  0  0  0  0
  139.7980   69.8510  225.9360 C   0  0  0  0  0  0  0  0  0  0  0  0
  139.5680   69.1610  227.1130 C   0  0  0  0  0  0  0  0  0  0  0  0
  140.0200   69.7240  228.3030 C   0  0  0  0  0  0  0  0  0  0  0  0
  140.6810   70.9340  228.3290 C   0  0  0  0  0  0  0  0  0  0  0  0
  140.9150   71.6310  227.1530 C   0  0  0  0  0  0  0  0  0  0  0  0
  140.4620   71.0610  225.9790 C   0  0  0  0  0  0  0  0  0  0  0  0
  140.6820   71.7260  224.8300 N   0  0  0  0  0  0  0  0  0  0  0  0
  139.5460   73.8160  223.1360 H   0  0  0  0  0  0  0  0  0  0  0  0
  141.2409   73.7784  220.6374 H   0  0  0  0  0  0  0  0  0  0  0  0
  139.4672   74.0652  220.4592 H   0  0  0  0  0  0  0  0  0  0  0  0
  143.6033   75.9397  220.4687 H   0  0  0  0  0  0  0  0  0  0  0  0
  142.5328   74.5339  220.2597 H   0  0  0  0  0  0  0  0  0  0  0  0
  143.3160   75.4930  218.0594 H   0  0  0  0  0  0  0  0  0  0  0  0
  141.5393   75.5636  218.2244 H   0  0  0  0  0  0  0  0  0  0  0  0
  143.5084   77.8013  218.8584 H   0  0  0  0  0  0  0  0  0  0  0  0
  142.4228   77.6869  217.4117 H   0  0  0  0  0  0  0  0  0  0  0  0
  141.4590   79.2117  219.1116 H   0  0  0  0  0  0  0  0  0  0  0  0
  140.4282   77.7822  218.9074 H   0  0  0  0  0  0  0  0  0  0  0  0
  142.6378   78.0738  221.0534 H   0  0  0  0  0  0  0  0  0  0  0  0
  139.8364   78.3359  221.5789 H   0  0  0  0  0  0  0  0  0  0  0  0
  140.9959   80.3376  220.4362 H   0  0  0  0  0  0  0  0  0  0  0  0
  140.3792   80.6505  222.0893 H   0  0  0  0  0  0  0  0  0  0  0  0
  143.1991   79.6264  221.6950 H   0  0  0  0  0  0  0  0  0  0  0  0
  142.8652   81.3467  221.4503 H   0  0  0  0  0  0  0  0  0  0  0  0
  141.7151   79.2979  224.9925 H   0  0  0  0  0  0  0  0  0  0  0  0
  140.4333   79.9928  223.9125 H   0  0  0  0  0  0  0  0  0  0  0  0
  142.5218   77.9835  222.9943 H   0  0  0  0  0  0  0  0  0  0  0  0
  140.8674   77.5473  223.5839 H   0  0  0  0  0  0  0  0  0  0  0  0
  139.2968   69.6816  222.6155 H   0  0  0  0  0  0  0  0  0  0  0  0
  138.8366   68.3674  224.6667 H   0  0  0  0  0  0  0  0  0  0  0  0
  139.0426   68.1946  227.1084 H   0  0  0  0  0  0  0  0  0  0  0  0
  139.8452   69.1893  229.2483 H   0  0  0  0  0  0  0  0  0  0  0  0
  141.0247   71.3488  229.2881 H   0  0  0  0  0  0  0  0  0  0  0  0
  141.4396   72.5978  227.1550 H   0  0  0  0  0  0  0  0  0  0  0  0
  1  2  2  0
  2  3  1  0
  3  4  1  0
  4  5  1  0
  5  6  2  0
  5  7  1  0
  7  8  1  0
  8  9  1  0
  9 10  1  0
 10 11  1  0
 11 12  1  0
 12 13  1  0
 13 14  1  0
 14 15  1  0
 15 16  1  0
 16 17  1  0
 16 18  1  0
 16 19  1  0
 19 20  1  0
  2 21  1  0
 21 22  2  0
 22 23  1  0
 23 24  2  0
 24 25  1  0
 25 26  2  0
 26 27  1  0
 27 28  2  0
 28 29  1  0
 29 30  2  0
 12  7  1  0
 20 13  1  0
 30 21  1  0
 29 24  1  0
  3 31  1  0
  4 32  1  0
  4 33  1  0
  8 34  1  0
  8 35  1  0
  9 36  1  0
  9 37  1  0
 10 38  1  0
 10 39  1  0
 11 40  1  0
 11 41  1  0
 12 42  1  1
 13 43  1  0
 14 44  1  0
 14 45  1  0
 15 46  1  0
 15 47  1  0
 19 48  1  0
 19 49  1  0
 20 50  1  0
 20 51  1  0
 22 52  1  0
 23 53  1  0
 25 54  1  0
 26 55  1  0
 27 56  1  0
 28 57  1  0
M  END
>  <smiles>  (51) 
O=C(NCC(=O)N1CCCCC1C1CCC(F)(F)CC1)c1ccc2ccccc2n1

>  <score_type>  (51) 
oracle

>  <origin>  (51) 
autodockgpu

>  <m_score__min__energy>  (51) 
-9.5700000000000003

>  <m_primary>  (51) 
energy

>  <rmsd>  (51) 
2.0833782183575815

>  <m_score__min__rmsd>  (51) 
2.0833782183575815

>  <meeko>  (51) 
{"free_energy": -9.54, "intermolecular_energy": -11.03, "internal_energy": -1.67, "cluster_size": 41, "cluster_id": 1, "rank_in_cluster": 13}

>  <energy>  (51) 
-9.57

>  <cluster_rmsd>  (51) 
0.0

>  <cluster>  (51) 
1

$$$$

     RDKit          3D

 57 60  0  0  0  0  0  0  0  0999 V2000
  141.2650   71.5340  221.4650 O   0  0  0  0  0  0  0  0  0  0  0  0
  140.6010   72.0840  222.3870 C   0  0  0  0  0  0  0  0  0  0  0  0
  140.1150   73.4110  222.3240 N   0  0  0  0  0  0  0  0  0  0  0  0
  140.3880   74.1980  221.1390 C   0  0  0  0  0  0  0  0  0  0  0  0
  140.5960   75.6480  221.4970 C   0  0  0  0  0  0  0  0  0  0  0  0
  139.8440   76.0840  222.4030 O   0  0  0  0  0  0  0  0  0  0  0  0
  141.5810   76.3950  220.8180 N   0  0  0  0  0  0  0  0  0  0  0  0
  142.6690   75.6750  220.0950 C   0  0  0  0  0  0  0  0  0  0  0  0
  142.5120   75.9930  218.6190 C   0  0  0  0  0  0  0  0  0  0  0  0
  142.5380   77.4800  218.4630 C   0  0  0  0  0  0  0  0  0  0  0  0
  141.4100   78.1500  219.2500 C   0  0  0  0  0  0  0  0  0  0  0  0
  141.6540   77.8200  220.7140 C   0  0  1  0  0  0  0  0  0  0  0  0
  140.9190   78.6340  221.6960 C   0  0  0  0  0  0  0  0  0  0  0  0
  141.1470   80.1250  221.5120 C   0  0  0  0  0  0  0  0  0  0  0  0
  142.5280   80.4630  221.9700 C   0  0  0  0  0  0  0  0  0  0  0  0
  142.4330   80.6300  223.4950 C   0  0  0  0  0  0  0  0  0  0  0  0
  141.8660   81.8860  223.7020 F   0  0  0  0  0  0  0  0  0  0  0  0
  143.6610   80.5810  224.0990 F   0  0  0  0  0  0  0  0  0  0  0  0
  141.4600   79.5870  223.9700 C   0  0  0  0  0  0  0  0  0  0  0  0
  141.4890   78.3450  223.0960 C   0  0  0  0  0  0  0  0  0  0  0  0
  140.3120   71.3030  223.6030 C   0  0  0  0  0  0  0  0  0  0  0  0
  139.6350   70.1020  223.5520 C   0  0  0  0  0  0  0  0  0  0  0  0
  139.3510   69.3490  224.6740 C   0  0  0  0  0  0  0  0  0  0  0  0
  139.7780   69.8490  225.8980 C   0  0  0  0  0  0  0  0  0  0  0  0
  139.5280   69.1480  227.0640 C   0  0  0  0  0  0  0  0  0  0  0  0
  139.9760   69.6900  228.2660 C   0  0  0  0  0  0  0  0  0  0  0  0
  140.6520   70.8920  228.3120 C   0  0  0  0  0  0  0  0  0  0  0  0
  140.9060   71.6000  227.1470 C   0  0  0  0  0  0  0  0  0  0  0  0
  140.4560   71.0500  225.9630 C   0  0  0  0  0  0  0  0  0  0  0  0
  140.6960   71.7260  224.8240 N   0  0  0  0  0  0  0  0  0  0  0  0
  139.5590   73.8340  223.1240 H   0  0  0  0  0  0  0  0  0  0  0  0
  141.2956   73.8129  220.6512 H   0  0  0  0  0  0  0  0  0  0  0  0
  139.5270   74.1222  220.4586 H   0  0  0  0  0  0  0  0  0  0  0  0
  143.6509   76.0186  220.4524 H   0  0  0  0  0  0  0  0  0  0  0  0
  142.6045   74.5910  220.2705 H   0  0  0  0  0  0  0  0  0  0  0  0
  143.3389   75.5431  218.0499 H   0  0  0  0  0  0  0  0  0  0  0  0
  141.5643   75.5846  218.2381 H   0  0  0  0  0  0  0  0  0  0  0  0
  143.5031   77.8603  218.8290 H   0  0  0  0  0  0  0  0  0  0  0  0
  142.4006   77.7160  217.3974 H   0  0  0  0  0  0  0  0  0  0  0  0
  141.4335   79.2390  219.0963 H   0  0  0  0  0  0  0  0  0  0  0  0
  140.4244   77.7908  218.9189 H   0  0  0  0  0  0  0  0  0  0  0  0
  142.6583   78.1394  221.0293 H   0  0  0  0  0  0  0  0  0  0  0  0
  139.8555   78.3832  221.5692 H   0  0  0  0  0  0  0  0  0  0  0  0
  141.0357   80.3873  220.4495 H   0  0  0  0  0  0  0  0  0  0  0  0
  140.4099   80.6904  222.1011 H   0  0  0  0  0  0  0  0  0  0  0  0
  143.2254   79.6512  221.7161 H   0  0  0  0  0  0  0  0  0  0  0  0
  142.9039   81.3759  221.4849 H   0  0  0  0  0  0  0  0  0  0  0  0
  141.7186   79.3026  225.0007 H   0  0  0  0  0  0  0  0  0  0  0  0
  140.4485   80.0162  223.9188 H   0  0  0  0  0  0  0  0  0  0  0  0
  142.5292   78.0015  222.9956 H   0  0  0  0  0  0  0  0  0  0  0  0
  140.8681   77.5712  223.5711 H   0  0  0  0  0  0  0  0  0  0  0  0
  139.3061   69.7268  222.5717 H   0  0  0  0  0  0  0  0  0  0  0  0
  138.8098   68.3941  224.6019 H   0  0  0  0  0  0  0  0  0  0  0  0
  138.9901   68.1887  227.0423 H   0  0  0  0  0  0  0  0  0  0  0  0
  139.7861   69.1459  229.2029 H   0  0  0  0  0  0  0  0  0  0  0  0
  140.9916   71.2912  229.2791 H   0  0  0  0  0  0  0  0  0  0  0  0
  141.4435   72.5596  227.1653 H   0  0  0  0  0  0  0  0  0  0  0  0
  1  2  2  0
  2  3  1  0
  3  4  1  0
  4  5  1  0
  5  6  2  0
  5  7  1  0
  7  8  1  0
  8  9  1  0
  9 10  1  0
 10 11  1  0
 11 12  1  0
 12 13  1  0
 13 14  1  0
 14 15  1  0
 15 16  1  0
 16 17  1  0
 16 18  1  0
 16 19  1  0
 19 20  1  0
  2 21  1  0
 21 22  2  0
 22 23  1  0
 23 24  2  0
 24 25  1  0
 25 26  2  0
 26 27  1  0
 27 28  2  0
 28 29  1  0
 29 30  2  0
 12  7  1  0
 20 13  1  0
 30 21  1  0
 29 24  1  0
  3 31  1  0
  4 32  1  0
  4 33  1  0
  8 34  1  0
  8 35  1  0
  9 36  1  0
  9 37  1  0
 10 38  1  0
 10 39  1  0
 11 40  1  0
 11 41  1  0
 12 42  1  1
 13 43  1  0
 14 44  1  0
 14 45  1  0
 15 46  1  0
 15 47  1  0
 19 48  1  0
 19 49  1  0
 20 50  1  0
 20 51  1  0
 22 52  1  0
 23 53  1  0
 25 54  1  0
 26 55  1  0
 27 56  1  0
 28 57  1  0
M  END
>  <smiles>  (52) 
O=C(NCC(=O)N1CCCCC1C1CCC(F)(F)CC1)c1ccc2ccccc2n1

>  <score_type>  (52) 
oracle

>  <origin>  (52) 
autodockgpu

>  <m_score__min__energy>  (52) 
-9.5700000000000003

>  <m_primary>  (52) 
energy

>  <rmsd>  (52) 
2.1122033208045625

>  <m_score__min__rmsd>  (52) 
2.1122033208045625

>  <meeko>  (52) 
{"free_energy": -9.53, "intermolecular_energy": -11.02, "internal_energy": -1.67, "cluster_size": 41, "cluster_id": 1, "rank_in_cluster": 17}

>  <energy>  (52) 
-9.56

>  <cluster_rmsd>  (52) 
0.1

>  <cluster>  (52) 
1

$$$$

     RDKit          3D

 57 60  0  0  0  0  0  0  0  0999 V2000
  141.2300   71.5060  221.4660 O   0  0  0  0  0  0  0  0  0  0  0  0
  140.5800   72.0670  222.3920 C   0  0  0  0  0  0  0  0  0  0  0  0
  140.1060   73.3980  222.3270 N   0  0  0  0  0  0  0  0  0  0  0  0
  140.3740   74.1760  221.1340 C   0  0  0  0  0  0  0  0  0  0  0  0
  140.5820   75.6290  221.4800 C   0  0  0  0  0  0  0  0  0  0  0  0
  139.8220   76.0760  222.3740 O   0  0  0  0  0  0  0  0  0  0  0  0
  141.5770   76.3670  220.8050 N   0  0  0  0  0  0  0  0  0  0  0  0
  142.6580   75.6350  220.0840 C   0  0  0  0  0  0  0  0  0  0  0  0
  142.5090   75.9580  218.6080 C   0  0  0  0  0  0  0  0  0  0  0  0
  142.5510   77.4450  218.4540 C   0  0  0  0  0  0  0  0  0  0  0  0
  141.4290   78.1250  219.2390 C   0  0  0  0  0  0  0  0  0  0  0  0
  141.6650   77.7900  220.7040 C   0  0  1  0  0  0  0  0  0  0  0  0
  140.9360   78.6110  221.6850 C   0  0  0  0  0  0  0  0  0  0  0  0
  141.1690   80.1010  221.4940 C   0  0  0  0  0  0  0  0  0  0  0  0
  142.5530   80.4360  221.9470 C   0  0  0  0  0  0  0  0  0  0  0  0
  142.4630   80.6080  223.4720 C   0  0  0  0  0  0  0  0  0  0  0  0
  141.9010   81.8670  223.6750 F   0  0  0  0  0  0  0  0  0  0  0  0
  143.6930   80.5570  224.0720 F   0  0  0  0  0  0  0  0  0  0  0  0
  141.4890   79.5710  223.9540 C   0  0  0  0  0  0  0  0  0  0  0  0
  141.5100   78.3250  223.0840 C   0  0  0  0  0  0  0  0  0  0  0  0
  140.2960   71.2950  223.6150 C   0  0  0  0  0  0  0  0  0  0  0  0
  139.6030   70.1020  223.5770 C   0  0  0  0  0  0  0  0  0  0  0  0
  139.3240   69.3580  224.7070 C   0  0  0  0  0  0  0  0  0  0  0  0
  139.7720   69.8580  225.9230 C   0  0  0  0  0  0  0  0  0  0  0  0
  139.5280   69.1660  227.0950 C   0  0  0  0  0  0  0  0  0  0  0  0
  139.9970   69.7070  228.2880 C   0  0  0  0  0  0  0  0  0  0  0  0
  140.6890   70.9000  228.3210 C   0  0  0  0  0  0  0  0  0  0  0  0
  140.9370   71.6000  227.1500 C   0  0  0  0  0  0  0  0  0  0  0  0
  140.4670   71.0500  225.9740 C   0  0  0  0  0  0  0  0  0  0  0  0
  140.7010   71.7190  224.8290 N   0  0  0  0  0  0  0  0  0  0  0  0
  139.5620   73.8300  223.1300 H   0  0  0  0  0  0  0  0  0  0  0  0
  141.2801   73.7879  220.6459 H   0  0  0  0  0  0  0  0  0  0  0  0
  139.5107   74.0940  220.4573 H   0  0  0  0  0  0  0  0  0  0  0  0
  143.6431   75.9657  220.4449 H   0  0  0  0  0  0  0  0  0  0  0  0
  142.5797   74.5516  220.2573 H   0  0  0  0  0  0  0  0  0  0  0  0
  143.3329   75.5005  218.0407 H   0  0  0  0  0  0  0  0  0  0  0  0
  141.5579   75.5607  218.2239 H   0  0  0  0  0  0  0  0  0  0  0  0
  143.5192   77.8147  218.8227 H   0  0  0  0  0  0  0  0  0  0  0  0
  142.4186   77.6840  217.3885 H   0  0  0  0  0  0  0  0  0  0  0  0
  141.4646   79.2139  219.0873 H   0  0  0  0  0  0  0  0  0  0  0  0
  140.4407   77.7764  218.9046 H   0  0  0  0  0  0  0  0  0  0  0  0
  142.6715   78.0979  221.0237 H   0  0  0  0  0  0  0  0  0  0  0  0
  139.8710   78.3642  221.5629 H   0  0  0  0  0  0  0  0  0  0  0  0
  141.0558   80.3592  220.4308 H   0  0  0  0  0  0  0  0  0  0  0  0
  140.4356   80.6716  222.0827 H   0  0  0  0  0  0  0  0  0  0  0  0
  143.2470   79.6211  221.6935 H   0  0  0  0  0  0  0  0  0  0  0  0
  142.9304   81.3461  221.4580 H   0  0  0  0  0  0  0  0  0  0  0  0
  141.7506   79.2894  224.9847 H   0  0  0  0  0  0  0  0  0  0  0  0
  140.4788   80.0036  223.9050 H   0  0  0  0  0  0  0  0  0  0  0  0
  142.5484   77.9771  222.9811 H   0  0  0  0  0  0  0  0  0  0  0  0
  140.8879   77.5553  223.5642 H   0  0  0  0  0  0  0  0  0  0  0  0
  139.2571   69.7266  222.6026 H   0  0  0  0  0  0  0  0  0  0  0  0
  138.7703   68.4094  224.6464 H   0  0  0  0  0  0  0  0  0  0  0  0
  138.9779   68.2135  227.0845 H   0  0  0  0  0  0  0  0  0  0  0  0
  139.8111   69.1694  229.2295 H   0  0  0  0  0  0  0  0  0  0  0  0
  141.0462   71.2984  229.2821 H   0  0  0  0  0  0  0  0  0  0  0  0
  141.4853   72.5536  227.1576 H   0  0  0  0  0  0  0  0  0  0  0  0
  1  2  2  0
  2  3  1  0
  3  4  1  0
  4  5  1  0
  5  6  2  0
  5  7  1  0
  7  8  1  0
  8  9  1  0
  9 10  1  0
 10 11  1  0
 11 12  1  0
 12 13  1  0
 13 14  1  0
 14 15  1  0
 15 16  1  0
 16 17  1  0
 16 18  1  0
 16 19  1  0
 19 20  1  0
  2 21  1  0
 21 22  2  0
 22 23  1  0
 23 24  2  0
 24 25  1  0
 25 26  2  0
 26 27  1  0
 27 28  2  0
 28 29  1  0
 29 30  2  0
 12  7  1  0
 20 13  1  0
 30 21  1  0
 29 24  1  0
  3 31  1  0
  4 32  1  0
  4 33  1  0
  8 34  1  0
  8 35  1  0
  9 36  1  0
  9 37  1  0
 10 38  1  0
 10 39  1  0
 11 40  1  0
 11 41  1  0
 12 42  1  1
 13 43  1  0
 14 44  1  0
 14 45  1  0
 15 46  1  0
 15 47  1  0
 19 48  1  0
 19 49  1  0
 20 50  1  0
 20 51  1  0
 22 52  1  0
 23 53  1  0
 25 54  1  0
 26 55  1  0
 27 56  1  0
 28 57  1  0
M  END
>  <smiles>  (53) 
O=C(NCC(=O)N1CCCCC1C1CCC(F)(F)CC1)c1ccc2ccccc2n1

>  <score_type>  (53) 
oracle

>  <origin>  (53) 
autodockgpu

>  <m_score__min__energy>  (53) 
-9.5700000000000003

>  <m_primary>  (53) 
energy

>  <rmsd>  (53) 
2.1001553670407507

>  <m_score__min__rmsd>  (53) 
2.1001553670407507

>  <meeko>  (53) 
{"free_energy": -9.54, "intermolecular_energy": -11.03, "internal_energy": -1.68, "cluster_size": 41, "cluster_id": 1, "rank_in_cluster": 16}

>  <energy>  (53) 
-9.55

>  <cluster_rmsd>  (53) 
0.16

>  <cluster>  (53) 
1

$$$$

     RDKit          3D

 57 60  0  0  0  0  0  0  0  0999 V2000
  141.2440   71.4920  221.4860 O   0  0  0  0  0  0  0  0  0  0  0  0
  140.5950   72.0560  222.4120 C   0  0  0  0  0  0  0  0  0  0  0  0
  140.1180   73.3850  222.3420 N   0  0  0  0  0  0  0  0  0  0  0  0
  140.3820   74.1590  221.1460 C   0  0  0  0  0  0  0  0  0  0  0  0
  140.5750   75.6160  221.4850 C   0  0  0  0  0  0  0  0  0  0  0  0
  139.8010   76.0640  222.3660 O   0  0  0  0  0  0  0  0  0  0  0  0
  141.5720   76.3570  220.8160 N   0  0  0  0  0  0  0  0  0  0  0  0
  142.6580   75.6280  220.0980 C   0  0  0  0  0  0  0  0  0  0  0  0
  142.5160   75.9550  218.6230 C   0  0  0  0  0  0  0  0  0  0  0  0
  142.5570   77.4430  218.4730 C   0  0  0  0  0  0  0  0  0  0  0  0
  141.4310   78.1200  219.2550 C   0  0  0  0  0  0  0  0  0  0  0  0
  141.6600   77.7800  220.7200 C   0  0  1  0  0  0  0  0  0  0  0  0
  140.9260   78.5980  221.7000 C   0  0  0  0  0  0  0  0  0  0  0  0
  141.1630   80.0880  221.5190 C   0  0  0  0  0  0  0  0  0  0  0  0
  142.5440   80.4180  221.9820 C   0  0  0  0  0  0  0  0  0  0  0  0
  142.4440   80.5840  223.5070 C   0  0  0  0  0  0  0  0  0  0  0  0
  141.8830   81.8420  223.7130 F   0  0  0  0  0  0  0  0  0  0  0  0
  143.6690   80.5270  224.1150 F   0  0  0  0  0  0  0  0  0  0  0  0
  141.4640   79.5450  223.9770 C   0  0  0  0  0  0  0  0  0  0  0  0
  141.4900   78.3040  223.1020 C   0  0  0  0  0  0  0  0  0  0  0  0
  140.3150   71.2870  223.6380 C   0  0  0  0  0  0  0  0  0  0  0  0
  139.6230   70.0940  223.6070 C   0  0  0  0  0  0  0  0  0  0  0  0
  139.3480   69.3540  224.7410 C   0  0  0  0  0  0  0  0  0  0  0  0
  139.8000   69.8590  225.9540 C   0  0  0  0  0  0  0  0  0  0  0  0
  139.5600   69.1710  227.1290 C   0  0  0  0  0  0  0  0  0  0  0  0
  140.0330   69.7170  228.3190 C   0  0  0  0  0  0  0  0  0  0  0  0
  140.7240   70.9110  228.3450 C   0  0  0  0  0  0  0  0  0  0  0  0
  140.9680   71.6060  227.1700 C   0  0  0  0  0  0  0  0  0  0  0  0
  140.4940   71.0520  225.9980 C   0  0  0  0  0  0  0  0  0  0  0  0
  140.7230   71.7160  224.8500 N   0  0  0  0  0  0  0  0  0  0  0  0
  139.5760   73.8200  223.1450 H   0  0  0  0  0  0  0  0  0  0  0  0
  141.2933   73.7770  220.6627 H   0  0  0  0  0  0  0  0  0  0  0  0
  139.5216   74.0651  220.4671 H   0  0  0  0  0  0  0  0  0  0  0  0
  143.6409   75.9588  220.4648 H   0  0  0  0  0  0  0  0  0  0  0  0
  142.5802   74.5440  220.2678 H   0  0  0  0  0  0  0  0  0  0  0  0
  143.3433   75.5000  218.0585 H   0  0  0  0  0  0  0  0  0  0  0  0
  141.5672   75.5578  218.2333 H   0  0  0  0  0  0  0  0  0  0  0  0
  143.5233   77.8127  218.8467 H   0  0  0  0  0  0  0  0  0  0  0  0
  142.4287   77.6845  217.4075 H   0  0  0  0  0  0  0  0  0  0  0  0
  141.4670   79.2094  219.1073 H   0  0  0  0  0  0  0  0  0  0  0  0
  140.4444   77.7723  218.9147 H   0  0  0  0  0  0  0  0  0  0  0  0
  142.6649   78.0866  221.0457 H   0  0  0  0  0  0  0  0  0  0  0  0
  139.8615   78.3539  221.5686 H   0  0  0  0  0  0  0  0  0  0  0  0
  141.0567   80.3524  220.4566 H   0  0  0  0  0  0  0  0  0  0  0  0
  140.4271   80.6565  222.1066 H   0  0  0  0  0  0  0  0  0  0  0  0
  143.2380   79.6026  221.7298 H   0  0  0  0  0  0  0  0  0  0  0  0
  142.9268   81.3292  221.4991 H   0  0  0  0  0  0  0  0  0  0  0  0
  141.7173   79.2582  225.0083 H   0  0  0  0  0  0  0  0  0  0  0  0
  140.4548   79.9792  223.9222 H   0  0  0  0  0  0  0  0  0  0  0  0
  142.5288   77.9555  223.0048 H   0  0  0  0  0  0  0  0  0  0  0  0
  140.8640   77.5324  223.5740 H   0  0  0  0  0  0  0  0  0  0  0  0
  139.2742   69.7146  222.6352 H   0  0  0  0  0  0  0  0  0  0  0  0
  138.7945   68.4050  224.6858 H   0  0  0  0  0  0  0  0  0  0  0  0
  139.0103   68.2182  227.1237 H   0  0  0  0  0  0  0  0  0  0  0  0
  139.8511   69.1826  229.2631 H   0  0  0  0  0  0  0  0  0  0  0  0
  141.0834   71.3140  229.3033 H   0  0  0  0  0  0  0  0  0  0  0  0
  141.5166   72.5594  227.1719 H   0  0  0  0  0  0  0  0  0  0  0  0
  1  2  2  0
  2  3  1  0
  3  4  1  0
  4  5  1  0
  5  6  2  0
  5  7  1  0
  7  8  1  0
  8  9  1  0
  9 10  1  0
 10 11  1  0
 11 12  1  0
 12 13  1  0
 13 14  1  0
 14 15  1  0
 15 16  1  0
 16 17  1  0
 16 18  1  0
 16 19  1  0
 19 20  1  0
  2 21  1  0
 21 22  2  0
 22 23  1  0
 23 24  2  0
 24 25  1  0
 25 26  2  0
 26 27  1  0
 27 28  2  0
 28 29  1  0
 29 30  2  0
 12  7  1  0
 20 13  1  0
 30 21  1  0
 29 24  1  0
  3 31  1  0
  4 32  1  0
  4 33  1  0
  8 34  1  0
  8 35  1  0
  9 36  1  0
  9 37  1  0
 10 38  1  0
 10 39  1  0
 11 40  1  0
 11 41  1  0
 12 42  1  1
 13 43  1  0
 14 44  1  0
 14 45  1  0
 15 46  1  0
 15 47  1  0
 19 48  1  0
 19 49  1  0
 20 50  1  0
 20 51  1  0
 22 52  1  0
 23 53  1  0
 25 54  1  0
 26 55  1  0
 27 56  1  0
 28 57  1  0
M  END
>  <smiles>  (54) 
O=C(NCC(=O)N1CCCCC1C1CCC(F)(F)CC1)c1ccc2ccccc2n1

>  <score_type>  (54) 
oracle

>  <origin>  (54) 
autodockgpu

>  <m_score__min__energy>  (54) 
-9.5700000000000003

>  <m_primary>  (54) 
energy

>  <rmsd>  (54) 
2.106943939442663

>  <m_score__min__rmsd>  (54) 
2.106943939442663

>  <meeko>  (54) 
{"free_energy": -9.55, "intermolecular_energy": -11.04, "internal_energy": -1.66, "cluster_size": 41, "cluster_id": 1, "rank_in_cluster": 6}

>  <energy>  (54) 
-9.55

>  <cluster_rmsd>  (54) 
0.15

>  <cluster>  (54) 
1

$$$$

     RDKit          3D

 57 60  0  0  0  0  0  0  0  0999 V2000
  141.2810   71.5210  221.5290 O   0  0  0  0  0  0  0  0  0  0  0  0
  140.5850   72.0780  222.4240 C   0  0  0  0  0  0  0  0  0  0  0  0
  140.1100   73.4070  222.3390 N   0  0  0  0  0  0  0  0  0  0  0  0
  140.4320   74.1900  221.1630 C   0  0  0  0  0  0  0  0  0  0  0  0
  140.5800   75.6490  221.5160 C   0  0  0  0  0  0  0  0  0  0  0  0
  139.8860   76.0320  222.4900 O   0  0  0  0  0  0  0  0  0  0  0  0
  141.4520   76.4600  220.7600 N   0  0  0  0  0  0  0  0  0  0  0  0
  142.4730   75.8110  219.8880 C   0  0  0  0  0  0  0  0  0  0  0  0
  142.1340   76.1780  218.4540 C   0  0  0  0  0  0  0  0  0  0  0  0
  142.0880   77.6690  218.3580 C   0  0  0  0  0  0  0  0  0  0  0  0
  141.0370   78.2630  219.2970 C   0  0  0  0  0  0  0  0  0  0  0  0
  141.4610   77.8890  220.7080 C   0  0  1  0  0  0  0  0  0  0  0  0
  140.8160   78.6360  221.8010 C   0  0  0  0  0  0  0  0  0  0  0  0
  140.9500   80.1410  221.6430 C   0  0  0  0  0  0  0  0  0  0  0  0
  142.3600   80.5350  221.9400 C   0  0  0  0  0  0  0  0  0  0  0  0
  142.4470   80.6520  223.4700 C   0  0  0  0  0  0  0  0  0  0  0  0
  141.8520   81.8710  223.7890 F   0  0  0  0  0  0  0  0  0  0  0  0
  143.7420   80.6470  223.9170 F   0  0  0  0  0  0  0  0  0  0  0  0
  141.5910   79.5480  224.0240 C   0  0  0  0  0  0  0  0  0  0  0  0
  141.5690   78.3350  223.1090 C   0  0  0  0  0  0  0  0  0  0  0  0
  140.2450   71.3010  223.6300 C   0  0  0  0  0  0  0  0  0  0  0  0
  139.5400   70.1170  223.5570 C   0  0  0  0  0  0  0  0  0  0  0  0
  139.2090   69.3700  224.6700 C   0  0  0  0  0  0  0  0  0  0  0  0
  139.6150   69.8570  225.9060 C   0  0  0  0  0  0  0  0  0  0  0  0
  139.3170   69.1600  227.0640 C   0  0  0  0  0  0  0  0  0  0  0  0
  139.7460   69.6890  228.2780 C   0  0  0  0  0  0  0  0  0  0  0  0
  140.4500   70.8730  228.3450 C   0  0  0  0  0  0  0  0  0  0  0  0
  140.7510   71.5770  227.1890 C   0  0  0  0  0  0  0  0  0  0  0  0
  140.3210   71.0400  225.9920 C   0  0  0  0  0  0  0  0  0  0  0  0
  140.6060   71.7130  224.8610 N   0  0  0  0  0  0  0  0  0  0  0  0
  139.5260   73.8360  223.1160 H   0  0  0  0  0  0  0  0  0  0  0  0
  141.3769   73.8249  220.7341 H   0  0  0  0  0  0  0  0  0  0  0  0
  139.6150   74.0843  220.4340 H   0  0  0  0  0  0  0  0  0  0  0  0
  143.4773   76.1794  220.1444 H   0  0  0  0  0  0  0  0  0  0  0  0
  142.4675   74.7195  220.0245 H   0  0  0  0  0  0  0  0  0  0  0  0
  142.9048   75.7837  217.7754 H   0  0  0  0  0  0  0  0  0  0  0  0
  141.1635   75.7463  218.1680 H   0  0  0  0  0  0  0  0  0  0  0  0
  143.0750   78.0743  218.6254 H   0  0  0  0  0  0  0  0  0  0  0  0
  141.8182   77.9385  217.3262 H   0  0  0  0  0  0  0  0  0  0  0  0
  141.0038   79.3570  219.1872 H   0  0  0  0  0  0  0  0  0  0  0  0
  140.0331   77.8767  219.0669 H   0  0  0  0  0  0  0  0  0  0  0  0
  142.4830   78.2366  220.9195 H   0  0  0  0  0  0  0  0  0  0  0  0
  139.7577   78.3360  221.7971 H   0  0  0  0  0  0  0  0  0  0  0  0
  140.6957   80.4282  220.6120 H   0  0  0  0  0  0  0  0  0  0  0  0
  140.2663   80.6510  222.3376 H   0  0  0  0  0  0  0  0  0  0  0  0
  143.0577   79.7674  221.5740 H   0  0  0  0  0  0  0  0  0  0  0  0
  142.6299   81.4796  221.4451 H   0  0  0  0  0  0  0  0  0  0  0  0
  141.9892   79.2469  225.0042 H   0  0  0  0  0  0  0  0  0  0  0  0
  140.5620   79.9264  224.1134 H   0  0  0  0  0  0  0  0  0  0  0  0
  142.6035   78.0480  222.8692 H   0  0  0  0  0  0  0  0  0  0  0  0
  141.0492   77.5168  223.6289 H   0  0  0  0  0  0  0  0  0  0  0  0
  139.2276   69.7519  222.5675 H   0  0  0  0  0  0  0  0  0  0  0  0
  138.6472   68.4284  224.5817 H   0  0  0  0  0  0  0  0  0  0  0  0
  138.7567   68.2142  227.0261 H   0  0  0  0  0  0  0  0  0  0  0  0
  139.5175   69.1484  229.2084 H   0  0  0  0  0  0  0  0  0  0  0  0
  140.7747   71.2613  229.3216 H   0  0  0  0  0  0  0  0  0  0  0  0
  141.3093   72.5241  227.2242 H   0  0  0  0  0  0  0  0  0  0  0  0
  1  2  2  0
  2  3  1  0
  3  4  1  0
  4  5  1  0
  5  6  2  0
  5  7  1  0
  7  8  1  0
  8  9  1  0
  9 10  1  0
 10 11  1  0
 11 12  1  0
 12 13  1  0
 13 14  1  0
 14 15  1  0
 15 16  1  0
 16 17  1  0
 16 18  1  0
 16 19  1  0
 19 20  1  0
  2 21  1  0
 21 22  2  0
 22 23  1  0
 23 24  2  0
 24 25  1  0
 25 26  2  0
 26 27  1  0
 27 28  2  0
 28 29  1  0
 29 30  2  0
 12  7  1  0
 20 13  1  0
 30 21  1  0
 29 24  1  0
  3 31  1  0
  4 32  1  0
  4 33  1  0
  8 34  1  0
  8 35  1  0
  9 36  1  0
  9 37  1  0
 10 38  1  0
 10 39  1  0
 11 40  1  0
 11 41  1  0
 12 42  1  6
 13 43  1  0
 14 44  1  0
 14 45  1  0
 15 46  1  0
 15 47  1  0
 19 48  1  0
 19 49  1  0
 20 50  1  0
 20 51  1  0
 22 52  1  0
 23 53  1  0
 25 54  1  0
 26 55  1  0
 27 56  1  0
 28 57  1  0
M  END
>  <smiles>  (55) 
O=C(NCC(=O)N1CCCCC1C1CCC(F)(F)CC1)c1ccc2ccccc2n1

>  <score_type>  (55) 
oracle

>  <origin>  (55) 
autodockgpu

>  <m_score__min__energy>  (55) 
-9.5700000000000003

>  <m_primary>  (55) 
energy

>  <rmsd>  (55) 
2.0560162259251107

>  <m_score__min__rmsd>  (55) 
2.0560162259251107

>  <meeko>  (55) 
{"free_energy": -9.34, "intermolecular_energy": -10.84, "internal_energy": -1.75, "cluster_size": 41, "cluster_id": 1, "rank_in_cluster": 27}

>  <energy>  (55) 
-9.55

>  <cluster_rmsd>  (55) 
0.14

>  <cluster>  (55) 
1

$$$$

     RDKit          3D

 57 60  0  0  0  0  0  0  0  0999 V2000
  141.4340   71.7910  221.6080 O   0  0  0  0  0  0  0  0  0  0  0  0
  140.5970   72.2500  222.4350 C   0  0  0  0  0  0  0  0  0  0  0  0
  139.9080   73.4720  222.2630 N   0  0  0  0  0  0  0  0  0  0  0  0
  140.1670   74.2570  221.0730 C   0  0  0  0  0  0  0  0  0  0  0  0
  140.4100   75.7030  221.4290 C   0  0  0  0  0  0  0  0  0  0  0  0
  139.6160   76.1820  222.2750 O   0  0  0  0  0  0  0  0  0  0  0  0
  141.4710   76.3990  220.8130 N   0  0  0  0  0  0  0  0  0  0  0  0
  142.5320   75.6260  220.1050 C   0  0  0  0  0  0  0  0  0  0  0  0
  142.4560   76.0040  218.6370 C   0  0  0  0  0  0  0  0  0  0  0  0
  142.5920   77.4890  218.5340 C   0  0  0  0  0  0  0  0  0  0  0  0
  141.4850   78.2120  219.3030 C   0  0  0  0  0  0  0  0  0  0  0  0
  141.6470   77.8170  220.7620 C   0  0  1  0  0  0  0  0  0  0  0  0
  140.9340   78.6500  221.7450 C   0  0  0  0  0  0  0  0  0  0  0  0
  141.1770   80.1360  221.5440 C   0  0  0  0  0  0  0  0  0  0  0  0
  142.5670   80.4630  221.9820 C   0  0  0  0  0  0  0  0  0  0  0  0
  142.4920   80.6450  223.5060 C   0  0  0  0  0  0  0  0  0  0  0  0
  141.9420   81.9100  223.7070 F   0  0  0  0  0  0  0  0  0  0  0  0
  143.7270   80.5880  224.0950 F   0  0  0  0  0  0  0  0  0  0  0  0
  141.5140   79.6190  224.0030 C   0  0  0  0  0  0  0  0  0  0  0  0
  141.5180   78.3680  223.1410 C   0  0  0  0  0  0  0  0  0  0  0  0
  140.3180   71.4680  223.6540 C   0  0  0  0  0  0  0  0  0  0  0  0
  139.5950   70.2940  223.6150 C   0  0  0  0  0  0  0  0  0  0  0  0
  139.3190   69.5420  224.7400 C   0  0  0  0  0  0  0  0  0  0  0  0
  139.8040   70.0150  225.9530 C   0  0  0  0  0  0  0  0  0  0  0  0
  139.5650   69.3130  227.1220 C   0  0  0  0  0  0  0  0  0  0  0  0
  140.0710   69.8270  228.3120 C   0  0  0  0  0  0  0  0  0  0  0  0
  140.7940   71.0020  228.3460 C   0  0  0  0  0  0  0  0  0  0  0  0
  141.0360   71.7110  227.1790 C   0  0  0  0  0  0  0  0  0  0  0  0
  140.5290   71.1890  226.0050 C   0  0  0  0  0  0  0  0  0  0  0  0
  140.7570   71.8660  224.8650 N   0  0  0  0  0  0  0  0  0  0  0  0
  139.2110   73.8200  222.9850 H   0  0  0  0  0  0  0  0  0  0  0  0
  141.0556   73.8567  220.5629 H   0  0  0  0  0  0  0  0  0  0  0  0
  139.2888   74.1985  220.4133 H   0  0  0  0  0  0  0  0  0  0  0  0
  143.5213   75.8847  220.5104 H   0  0  0  0  0  0  0  0  0  0  0  0
  142.3832   74.5443  220.2387 H   0  0  0  0  0  0  0  0  0  0  0  0
  143.2711   75.5153  218.0831 H   0  0  0  0  0  0  0  0  0  0  0  0
  141.4972   75.6777  218.2079 H   0  0  0  0  0  0  0  0  0  0  0  0
  143.5668   77.7874  218.9472 H   0  0  0  0  0  0  0  0  0  0  0  0
  142.5120   77.7684  217.4731 H   0  0  0  0  0  0  0  0  0  0  0  0
  141.5919   79.3009  219.1896 H   0  0  0  0  0  0  0  0  0  0  0  0
  140.4902   77.9359  218.9234 H   0  0  0  0  0  0  0  0  0  0  0  0
  142.6582   78.0525  221.1254 H   0  0  0  0  0  0  0  0  0  0  0  0
  139.8662   78.4107  221.6333 H   0  0  0  0  0  0  0  0  0  0  0  0
  141.0558   80.3893  220.4805 H   0  0  0  0  0  0  0  0  0  0  0  0
  140.4537   80.7152  222.1367 H   0  0  0  0  0  0  0  0  0  0  0  0
  143.2525   79.6412  221.7273 H   0  0  0  0  0  0  0  0  0  0  0  0
  142.9471   81.3671  221.4838 H   0  0  0  0  0  0  0  0  0  0  0  0
  141.7822   79.3418  225.0332 H   0  0  0  0  0  0  0  0  0  0  0  0
  140.5069   80.0593  223.9601 H   0  0  0  0  0  0  0  0  0  0  0  0
  142.5528   78.0115  223.0314 H   0  0  0  0  0  0  0  0  0  0  0  0
  140.8943   77.6060  223.6313 H   0  0  0  0  0  0  0  0  0  0  0  0
  139.2210   69.9403  222.6429 H   0  0  0  0  0  0  0  0  0  0  0  0
  138.7401   68.6087  224.6783 H   0  0  0  0  0  0  0  0  0  0  0  0
  138.9909   68.3748  227.1105 H   0  0  0  0  0  0  0  0  0  0  0  0
  139.8899   69.2824  229.2504 H   0  0  0  0  0  0  0  0  0  0  0  0
  141.1807   71.3784  229.3045 H   0  0  0  0  0  0  0  0  0  0  0  0
  141.6082   72.6504  227.1879 H   0  0  0  0  0  0  0  0  0  0  0  0
  1  2  2  0
  2  3  1  0
  3  4  1  0
  4  5  1  0
  5  6  2  0
  5  7  1  0
  7  8  1  0
  8  9  1  0
  9 10  1  0
 10 11  1  0
 11 12  1  0
 12 13  1  0
 13 14  1  0
 14 15  1  0
 15 16  1  0
 16 17  1  0
 16 18  1  0
 16 19  1  0
 19 20  1  0
  2 21  1  0
 21 22  2  0
 22 23  1  0
 23 24  2  0
 24 25  1  0
 25 26  2  0
 26 27  1  0
 27 28  2  0
 28 29  1  0
 29 30  2  0
 12  7  1  0
 20 13  1  0
 30 21  1  0
 29 24  1  0
  3 31  1  0
  4 32  1  0
  4 33  1  0
  8 34  1  0
  8 35  1  0
  9 36  1  0
  9 37  1  0
 10 38  1  0
 10 39  1  0
 11 40  1  0
 11 41  1  0
 12 42  1  1
 13 43  1  0
 14 44  1  0
 14 45  1  0
 15 46  1  0
 15 47  1  0
 19 48  1  0
 19 49  1  0
 20 50  1  0
 20 51  1  0
 22 52  1  0
 23 53  1  0
 25 54  1  0
 26 55  1  0
 27 56  1  0
 28 57  1  0
M  END
>  <smiles>  (56) 
O=C(NCC(=O)N1CCCCC1C1CCC(F)(F)CC1)c1ccc2ccccc2n1

>  <score_type>  (56) 
oracle

>  <origin>  (56) 
autodockgpu

>  <m_score__min__energy>  (56) 
-9.5700000000000003

>  <m_primary>  (56) 
energy

>  <rmsd>  (56) 
2.101700392799923

>  <m_score__min__rmsd>  (56) 
2.101700392799923

>  <meeko>  (56) 
{"free_energy": -9.57, "intermolecular_energy": -11.06, "internal_energy": -1.58, "cluster_size": 41, "cluster_id": 1, "rank_in_cluster": 1}

>  <energy>  (56) 
-9.55

>  <cluster_rmsd>  (56) 
0.17

>  <cluster>  (56) 
1

$$$$

     RDKit          3D

 57 60  0  0  0  0  0  0  0  0999 V2000
  141.3010   71.4940  221.5220 O   0  0  0  0  0  0  0  0  0  0  0  0
  140.6110   72.0500  222.4230 C   0  0  0  0  0  0  0  0  0  0  0  0
  140.1400   73.3810  222.3440 N   0  0  0  0  0  0  0  0  0  0  0  0
  140.4590   74.1660  221.1680 C   0  0  0  0  0  0  0  0  0  0  0  0
  140.5740   75.6290  221.5180 C   0  0  0  0  0  0  0  0  0  0  0  0
  139.8260   76.0120  222.4500 O   0  0  0  0  0  0  0  0  0  0  0  0
  141.4780   76.4430  220.8030 N   0  0  0  0  0  0  0  0  0  0  0  0
  142.4830   75.7990  219.9080 C   0  0  0  0  0  0  0  0  0  0  0  0
  142.1670   76.2400  218.4910 C   0  0  0  0  0  0  0  0  0  0  0  0
  142.1710   77.7350  218.4600 C   0  0  0  0  0  0  0  0  0  0  0  0
  141.1330   78.3220  219.4190 C   0  0  0  0  0  0  0  0  0  0  0  0
  141.5340   77.8710  220.8140 C   0  0  1  0  0  0  0  0  0  0  0  0
  140.9070   78.5910  221.9360 C   0  0  0  0  0  0  0  0  0  0  0  0
  141.0150   80.1010  221.8000 C   0  0  0  0  0  0  0  0  0  0  0  0
  142.4260   80.5110  222.0670 C   0  0  0  0  0  0  0  0  0  0  0  0
  142.5510   80.6040  223.5970 C   0  0  0  0  0  0  0  0  0  0  0  0
  141.9470   81.8080  223.9510 F   0  0  0  0  0  0  0  0  0  0  0  0
  143.8570   80.6110  224.0100 F   0  0  0  0  0  0  0  0  0  0  0  0
  141.7260   79.4780  224.1530 C   0  0  0  0  0  0  0  0  0  0  0  0
  141.6980   78.2800  223.2190 C   0  0  0  0  0  0  0  0  0  0  0  0
  140.2760   71.2710  223.6280 C   0  0  0  0  0  0  0  0  0  0  0  0
  139.5750   70.0850  223.5560 C   0  0  0  0  0  0  0  0  0  0  0  0
  139.2480   69.3350  224.6680 C   0  0  0  0  0  0  0  0  0  0  0  0
  139.6550   69.8230  225.9040 C   0  0  0  0  0  0  0  0  0  0  0  0
  139.3610   69.1240  227.0610 C   0  0  0  0  0  0  0  0  0  0  0  0
  139.7900   69.6520  228.2750 C   0  0  0  0  0  0  0  0  0  0  0  0
  140.4910   70.8390  228.3430 C   0  0  0  0  0  0  0  0  0  0  0  0
  140.7880   71.5450  227.1870 C   0  0  0  0  0  0  0  0  0  0  0  0
  140.3570   71.0080  225.9900 C   0  0  0  0  0  0  0  0  0  0  0  0
  140.6380   71.6830  224.8600 N   0  0  0  0  0  0  0  0  0  0  0  0
  139.5630   73.8100  223.1260 H   0  0  0  0  0  0  0  0  0  0  0  0
  141.4155   73.8184  220.7505 H   0  0  0  0  0  0  0  0  0  0  0  0
  139.6525   74.0414  220.4304 H   0  0  0  0  0  0  0  0  0  0  0  0
  143.4972   76.1215  220.1861 H   0  0  0  0  0  0  0  0  0  0  0  0
  142.4397   74.7034  219.9956 H   0  0  0  0  0  0  0  0  0  0  0  0
  142.9292   75.8504  217.8002 H   0  0  0  0  0  0  0  0  0  0  0  0
  141.1846   75.8542  218.1811 H   0  0  0  0  0  0  0  0  0  0  0  0
  143.1690   78.0952  218.7503 H   0  0  0  0  0  0  0  0  0  0  0  0
  141.9177   78.0583  217.4396 H   0  0  0  0  0  0  0  0  0  0  0  0
  141.1373   79.4203  219.3584 H   0  0  0  0  0  0  0  0  0  0  0  0
  140.1184   77.9808  219.1659 H   0  0  0  0  0  0  0  0  0  0  0  0
  142.5657   78.1737  221.0461 H   0  0  0  0  0  0  0  0  0  0  0  0
  139.8534   78.2755  221.9542 H   0  0  0  0  0  0  0  0  0  0  0  0
  140.7297   80.4013  220.7810 H   0  0  0  0  0  0  0  0  0  0  0  0
  140.3423   80.5892  222.5205 H   0  0  0  0  0  0  0  0  0  0  0  0
  143.1250   79.7601  221.6702 H   0  0  0  0  0  0  0  0  0  0  0  0
  142.6692   81.4675  221.5813 H   0  0  0  0  0  0  0  0  0  0  0  0
  142.1535   79.1668  225.1176 H   0  0  0  0  0  0  0  0  0  0  0  0
  140.6942   79.8395  224.2741 H   0  0  0  0  0  0  0  0  0  0  0  0
  142.7300   78.0125  222.9480 H   0  0  0  0  0  0  0  0  0  0  0  0
  141.2039   77.4457  223.7384 H   0  0  0  0  0  0  0  0  0  0  0  0
  139.2621   69.7200  222.5666 H   0  0  0  0  0  0  0  0  0  0  0  0
  138.6893   68.3916  224.5795 H   0  0  0  0  0  0  0  0  0  0  0  0
  138.8033   68.1766  227.0225 H   0  0  0  0  0  0  0  0  0  0  0  0
  139.5645   69.1091  229.2047 H   0  0  0  0  0  0  0  0  0  0  0  0
  140.8159   71.2271  229.3196 H   0  0  0  0  0  0  0  0  0  0  0  0
  141.3439   72.4935  227.2221 H   0  0  0  0  0  0  0  0  0  0  0  0
  1  2  2  0
  2  3  1  0
  3  4  1  0
  4  5  1  0
  5  6  2  0
  5  7  1  0
  7  8  1  0
  8  9  1  0
  9 10  1  0
 10 11  1  0
 11 12  1  0
 12 13  1  0
 13 14  1  0
 14 15  1  0
 15 16  1  0
 16 17  1  0
 16 18  1  0
 16 19  1  0
 19 20  1  0
  2 21  1  0
 21 22  2  0
 22 23  1  0
 23 24  2  0
 24 25  1  0
 25 26  2  0
 26 27  1  0
 27 28  2  0
 28 29  1  0
 29 30  2  0
 12  7  1  0
 20 13  1  0
 30 21  1  0
 29 24  1  0
  3 31  1  0
  4 32  1  0
  4 33  1  0
  8 34  1  0
  8 35  1  0
  9 36  1  0
  9 37  1  0
 10 38  1  0
 10 39  1  0
 11 40  1  0
 11 41  1  0
 12 42  1  6
 13 43  1  0
 14 44  1  0
 14 45  1  0
 15 46  1  0
 15 47  1  0
 19 48  1  0
 19 49  1  0
 20 50  1  0
 20 51  1  0
 22 52  1  0
 23 53  1  0
 25 54  1  0
 26 55  1  0
 27 56  1  0
 28 57  1  0
M  END
>  <smiles>  (57) 
O=C(NCC(=O)N1CCCCC1C1CCC(F)(F)CC1)c1ccc2ccccc2n1

>  <score_type>  (57) 
oracle

>  <origin>  (57) 
autodockgpu

>  <m_score__min__energy>  (57) 
-9.5700000000000003

>  <m_primary>  (57) 
energy

>  <rmsd>  (57) 
2.075082551629682

>  <m_score__min__rmsd>  (57) 
2.075082551629682

>  <meeko>  (57) 
{"free_energy": -9.36, "intermolecular_energy": -10.85, "internal_energy": -1.76, "cluster_size": 41, "cluster_id": 1, "rank_in_cluster": 26}

>  <energy>  (57) 
-9.55

>  <cluster_rmsd>  (57) 
0.17

>  <cluster>  (57) 
1

$$$$

     RDKit          3D

 57 60  0  0  0  0  0  0  0  0999 V2000
  141.1970   71.5050  221.4730 O   0  0  0  0  0  0  0  0  0  0  0  0
  140.5600   72.0760  222.4030 C   0  0  0  0  0  0  0  0  0  0  0  0
  140.0870   73.4060  222.3320 N   0  0  0  0  0  0  0  0  0  0  0  0
  140.3400   74.1740  221.1300 C   0  0  0  0  0  0  0  0  0  0  0  0
  140.5360   75.6330  221.4590 C   0  0  0  0  0  0  0  0  0  0  0  0
  139.7540   76.0910  222.3280 O   0  0  0  0  0  0  0  0  0  0  0  0
  141.5430   76.3640  220.7950 N   0  0  0  0  0  0  0  0  0  0  0  0
  142.6230   75.6260  220.0780 C   0  0  0  0  0  0  0  0  0  0  0  0
  142.4890   75.9580  218.6030 C   0  0  0  0  0  0  0  0  0  0  0  0
  142.5470   77.4450  218.4580 C   0  0  0  0  0  0  0  0  0  0  0  0
  141.4250   78.1330  219.2380 C   0  0  0  0  0  0  0  0  0  0  0  0
  141.6460   77.7870  220.7020 C   0  0  1  0  0  0  0  0  0  0  0  0
  140.9180   78.6100  221.6820 C   0  0  0  0  0  0  0  0  0  0  0  0
  141.1520   80.0990  221.4890 C   0  0  0  0  0  0  0  0  0  0  0  0
  142.5360   80.4350  221.9400 C   0  0  0  0  0  0  0  0  0  0  0  0
  142.4470   80.6100  223.4650 C   0  0  0  0  0  0  0  0  0  0  0  0
  141.8850   81.8690  223.6660 F   0  0  0  0  0  0  0  0  0  0  0  0
  143.6760   80.5590  224.0650 F   0  0  0  0  0  0  0  0  0  0  0  0
  141.4720   79.5740  223.9490 C   0  0  0  0  0  0  0  0  0  0  0  0
  141.4930   78.3270  223.0820 C   0  0  0  0  0  0  0  0  0  0  0  0
  140.2900   71.3140  223.6360 C   0  0  0  0  0  0  0  0  0  0  0  0
  139.6060   70.1170  223.6160 C   0  0  0  0  0  0  0  0  0  0  0  0
  139.3400   69.3830  224.7550 C   0  0  0  0  0  0  0  0  0  0  0  0
  139.7940   69.8990  225.9630 C   0  0  0  0  0  0  0  0  0  0  0  0
  139.5630   69.2170  227.1440 C   0  0  0  0  0  0  0  0  0  0  0  0
  140.0380   69.7740  228.3280 C   0  0  0  0  0  0  0  0  0  0  0  0
  140.7220   70.9720  228.3430 C   0  0  0  0  0  0  0  0  0  0  0  0
  140.9570   71.6610  227.1620 C   0  0  0  0  0  0  0  0  0  0  0  0
  140.4810   71.0960  225.9960 C   0  0  0  0  0  0  0  0  0  0  0  0
  140.7010   71.7540  224.8420 N   0  0  0  0  0  0  0  0  0  0  0  0
  139.5540   73.8470  223.1390 H   0  0  0  0  0  0  0  0  0  0  0  0
  141.2469   73.7896  220.6404 H   0  0  0  0  0  0  0  0  0  0  0  0
  139.4731   74.0766  220.4599 H   0  0  0  0  0  0  0  0  0  0  0  0
  143.6082   75.9456  220.4485 H   0  0  0  0  0  0  0  0  0  0  0  0
  142.5331   74.5424  220.2446 H   0  0  0  0  0  0  0  0  0  0  0  0
  143.3128   75.4954  218.0397 H   0  0  0  0  0  0  0  0  0  0  0  0
  141.5373   75.5720  218.2089 H   0  0  0  0  0  0  0  0  0  0  0  0
  143.5159   77.8027  218.8366 H   0  0  0  0  0  0  0  0  0  0  0  0
  142.4253   77.6910  217.3928 H   0  0  0  0  0  0  0  0  0  0  0  0
  141.4733   79.2223  219.0930 H   0  0  0  0  0  0  0  0  0  0  0  0
  140.4357   77.7973  218.8936 H   0  0  0  0  0  0  0  0  0  0  0  0
  142.6534   78.0824  221.0306 H   0  0  0  0  0  0  0  0  0  0  0  0
  139.8530   78.3629  221.5605 H   0  0  0  0  0  0  0  0  0  0  0  0
  141.0379   80.3557  220.4255 H   0  0  0  0  0  0  0  0  0  0  0  0
  140.4196   80.6703  222.0782 H   0  0  0  0  0  0  0  0  0  0  0  0
  143.2299   79.6197  221.6876 H   0  0  0  0  0  0  0  0  0  0  0  0
  142.9130   81.3442  221.4488 H   0  0  0  0  0  0  0  0  0  0  0  0
  141.7331   79.2944  224.9803 H   0  0  0  0  0  0  0  0  0  0  0  0
  140.4620   80.0069  223.8988 H   0  0  0  0  0  0  0  0  0  0  0  0
  142.5315   77.9793  222.9794 H   0  0  0  0  0  0  0  0  0  0  0  0
  140.8713   77.5582  223.5640 H   0  0  0  0  0  0  0  0  0  0  0  0
  139.2561   69.7288  222.6481 H   0  0  0  0  0  0  0  0  0  0  0  0
  138.7920   68.4304  224.7082 H   0  0  0  0  0  0  0  0  0  0  0  0
  139.0190   68.2609  227.1475 H   0  0  0  0  0  0  0  0  0  0  0  0
  139.8634   69.2451  229.2765 H   0  0  0  0  0  0  0  0  0  0  0  0
  141.0832   71.3834  229.2971 H   0  0  0  0  0  0  0  0  0  0  0  0
  141.5000   72.6176  227.1551 H   0  0  0  0  0  0  0  0  0  0  0  0
  1  2  2  0
  2  3  1  0
  3  4  1  0
  4  5  1  0
  5  6  2  0
  5  7  1  0
  7  8  1  0
  8  9  1  0
  9 10  1  0
 10 11  1  0
 11 12  1  0
 12 13  1  0
 13 14  1  0
 14 15  1  0
 15 16  1  0
 16 17  1  0
 16 18  1  0
 16 19  1  0
 19 20  1  0
  2 21  1  0
 21 22  2  0
 22 23  1  0
 23 24  2  0
 24 25  1  0
 25 26  2  0
 26 27  1  0
 27 28  2  0
 28 29  1  0
 29 30  2  0
 12  7  1  0
 20 13  1  0
 30 21  1  0
 29 24  1  0
  3 31  1  0
  4 32  1  0
  4 33  1  0
  8 34  1  0
  8 35  1  0
  9 36  1  0
  9 37  1  0
 10 38  1  0
 10 39  1  0
 11 40  1  0
 11 41  1  0
 12 42  1  1
 13 43  1  0
 14 44  1  0
 14 45  1  0
 15 46  1  0
 15 47  1  0
 19 48  1  0
 19 49  1  0
 20 50  1  0
 20 51  1  0
 22 52  1  0
 23 53  1  0
 25 54  1  0
 26 55  1  0
 27 56  1  0
 28 57  1  0
M  END
>  <smiles>  (58) 
O=C(NCC(=O)N1CCCCC1C1CCC(F)(F)CC1)c1ccc2ccccc2n1

>  <score_type>  (58) 
oracle

>  <origin>  (58) 
autodockgpu

>  <m_score__min__energy>  (58) 
-9.5700000000000003

>  <m_primary>  (58) 
energy

>  <rmsd>  (58) 
2.0926026122331285

>  <m_score__min__rmsd>  (58) 
2.0926026122331285

>  <meeko>  (58) 
{"free_energy": -9.55, "intermolecular_energy": -11.04, "internal_energy": -1.68, "cluster_size": 41, "cluster_id": 1, "rank_in_cluster": 4}

>  <energy>  (58) 
-9.55

>  <cluster_rmsd>  (58) 
0.15

>  <cluster>  (58) 
1

$$$$

     RDKit          3D

 57 60  0  0  0  0  0  0  0  0999 V2000
  141.3950   72.4120  221.9120 O   0  0  0  0  0  0  0  0  0  0  0  0
  140.3470   72.4730  222.6150 C   0  0  0  0  0  0  0  0  0  0  0  0
  139.2920   73.3850  222.3800 N   0  0  0  0  0  0  0  0  0  0  0  0
  139.4040   74.3110  221.2710 C   0  0  0  0  0  0  0  0  0  0  0  0
  140.0490   75.6000  221.7140 C   0  0  0  0  0  0  0  0  0  0  0  0
  141.1870   75.4750  222.2280 O   0  0  0  0  0  0  0  0  0  0  0  0
  139.3590   76.8170  221.5320 N   0  0  0  0  0  0  0  0  0  0  0  0
  138.1280   76.8350  220.6910 C   0  0  0  0  0  0  0  0  0  0  0  0
  136.9710   77.2080  221.6000 C   0  0  0  0  0  0  0  0  0  0  0  0
  137.2990   78.5120  222.2540 C   0  0  0  0  0  0  0  0  0  0  0  0
  138.5840   78.4220  223.0780 C   0  0  0  0  0  0  0  0  0  0  0  0
  139.6990   78.0850  222.1000 C   0  0  1  0  0  0  0  0  0  0  0  0
  141.0730   78.2930  222.5840 C   0  0  0  0  0  0  0  0  0  0  0  0
  141.1250   79.0290  223.9120 C   0  0  0  0  0  0  0  0  0  0  0  0
  140.7770   80.4640  223.6840 C   0  0  0  0  0  0  0  0  0  0  0  0
  142.0770   81.1400  223.2190 C   0  0  0  0  0  0  0  0  0  0  0  0
  142.8390   81.3230  224.3710 F   0  0  0  0  0  0  0  0  0  0  0  0
  141.8470   82.3530  222.6280 F   0  0  0  0  0  0  0  0  0  0  0  0
  142.7780   80.1400  222.3420 C   0  0  0  0  0  0  0  0  0  0  0  0
  141.7950   79.2420  221.6100 C   0  0  0  0  0  0  0  0  0  0  0  0
  140.2120   71.5420  223.7490 C   0  0  0  0  0  0  0  0  0  0  0  0
  139.6140   70.3060  223.6080 C   0  0  0  0  0  0  0  0  0  0  0  0
  139.4750   69.4140  224.6530 C   0  0  0  0  0  0  0  0  0  0  0  0
  139.9660   69.8060  225.8920 C   0  0  0  0  0  0  0  0  0  0  0  0
  139.8600   68.9620  226.9840 C   0  0  0  0  0  0  0  0  0  0  0  0
  140.3670   69.4000  228.2040 C   0  0  0  0  0  0  0  0  0  0  0  0
  140.9630   70.6370  228.3410 C   0  0  0  0  0  0  0  0  0  0  0  0
  141.0730   71.4870  227.2500 C   0  0  0  0  0  0  0  0  0  0  0  0
  140.5660   71.0390  226.0460 C   0  0  0  0  0  0  0  0  0  0  0  0
  140.6650   71.8550  224.9800 N   0  0  0  0  0  0  0  0  0  0  0  0
  138.4280   73.4010  222.9970 H   0  0  0  0  0  0  0  0  0  0  0  0
  140.0168   73.8541  220.4800 H   0  0  0  0  0  0  0  0  0  0  0  0
  138.3951   74.5328  220.8930 H   0  0  0  0  0  0  0  0  0  0  0  0
  138.2312   77.5788  219.8872 H   0  0  0  0  0  0  0  0  0  0  0  0
  137.9584   75.8533  220.2247 H   0  0  0  0  0  0  0  0  0  0  0  0
  136.0490   77.3085  221.0086 H   0  0  0  0  0  0  0  0  0  0  0  0
  136.8151   76.4280  222.3598 H   0  0  0  0  0  0  0  0  0  0  0  0
  137.4270   79.2791  221.4761 H   0  0  0  0  0  0  0  0  0  0  0  0
  136.4734   78.7736  222.9322 H   0  0  0  0  0  0  0  0  0  0  0  0
  138.7881   79.3841  223.5707 H   0  0  0  0  0  0  0  0  0  0  0  0
  138.5000   77.6584  223.8653 H   0  0  0  0  0  0  0  0  0  0  0  0
  139.7514   78.8248  221.2877 H   0  0  0  0  0  0  0  0  0  0  0  0
  141.5218   77.2929  222.6751 H   0  0  0  0  0  0  0  0  0  0  0  0
  140.4037   78.5807  224.6111 H   0  0  0  0  0  0  0  0  0  0  0  0
  142.1354   78.9541  224.3403 H   0  0  0  0  0  0  0  0  0  0  0  0
  140.0010   80.5518  222.9093 H   0  0  0  0  0  0  0  0  0  0  0  0
  140.3789   80.9344  224.5952 H   0  0  0  0  0  0  0  0  0  0  0  0
  143.3855   80.6806  221.6013 H   0  0  0  0  0  0  0  0  0  0  0  0
  143.4072   79.5055  222.9835 H   0  0  0  0  0  0  0  0  0  0  0  0
  141.0482   79.8685  221.1002 H   0  0  0  0  0  0  0  0  0  0  0  0
  142.3542   78.6344  220.8832 H   0  0  0  0  0  0  0  0  0  0  0  0
  139.2306   70.0183  222.6179 H   0  0  0  0  0  0  0  0  0  0  0  0
  138.9957   68.4343  224.5103 H   0  0  0  0  0  0  0  0  0  0  0  0
  139.3882   67.9727  226.8902 H   0  0  0  0  0  0  0  0  0  0  0  0
  140.2905   68.7424  229.0825 H   0  0  0  0  0  0  0  0  0  0  0  0
  141.3530   70.9509  229.3205 H   0  0  0  0  0  0  0  0  0  0  0  0
  141.5445   72.4767  227.3402 H   0  0  0  0  0  0  0  0  0  0  0  0
  1  2  2  0
  2  3  1  0
  3  4  1  0
  4  5  1  0
  5  6  2  0
  5  7  1  0
  7  8  1  0
  8  9  1  0
  9 10  1  0
 10 11  1  0
 11 12  1  0
 12 13  1  0
 13 14  1  0
 14 15  1  0
 15 16  1  0
 16 17  1  0
 16 18  1  0
 16 19  1  0
 19 20  1  0
  2 21  1  0
 21 22  2  0
 22 23  1  0
 23 24  2  0
 24 25  1  0
 25 26  2  0
 26 27  1  0
 27 28  2  0
 28 29  1  0
 29 30  2  0
 12  7  1  0
 20 13  1  0
 30 21  1  0
 29 24  1  0
  3 31  1  0
  4 32  1  0
  4 33  1  0
  8 34  1  0
  8 35  1  0
  9 36  1  0
  9 37  1  0
 10 38  1  0
 10 39  1  0
 11 40  1  0
 11 41  1  0
 12 42  1  6
 13 43  1  0
 14 44  1  0
 14 45  1  0
 15 46  1  0
 15 47  1  0
 19 48  1  0
 19 49  1  0
 20 50  1  0
 20 51  1  0
 22 52  1  0
 23 53  1  0
 25 54  1  0
 26 55  1  0
 27 56  1  0
 28 57  1  0
M  END
>  <smiles>  (59) 
O=C(NCC(=O)N1CCCCC1C1CCC(F)(F)CC1)c1ccc2ccccc2n1

>  <score_type>  (59) 
oracle

>  <origin>  (59) 
autodockgpu

>  <m_score__min__energy>  (59) 
-9.5700000000000003

>  <m_primary>  (59) 
energy

>  <rmsd>  (59) 
2.9445320675833884

>  <m_score__min__rmsd>  (59) 
2.9445320675833884

>  <meeko>  (59) 
{"free_energy": -9.26, "intermolecular_energy": -10.75, "internal_energy": -1.2, "cluster_size": 41, "cluster_id": 1, "rank_in_cluster": 31}

>  <energy>  (59) 
-9.54

>  <cluster_rmsd>  (59) 
0.29

>  <cluster>  (59) 
1

$$$$

     RDKit          3D

 57 60  0  0  0  0  0  0  0  0999 V2000
  139.8090   71.2710  221.2460 O   0  0  0  0  0  0  0  0  0  0  0  0
  139.7140   71.9540  222.3050 C   0  0  0  0  0  0  0  0  0  0  0  0
  139.4920   73.3500  222.3230 N   0  0  0  0  0  0  0  0  0  0  0  0
  139.3630   74.0530  221.0620 C   0  0  0  0  0  0  0  0  0  0  0  0
  139.6790   75.5180  221.2330 C   0  0  0  0  0  0  0  0  0  0  0  0
  138.7050   76.2370  221.5610 O   0  0  0  0  0  0  0  0  0  0  0  0
  140.9990   75.9710  221.0200 N   0  0  0  0  0  0  0  0  0  0  0  0
  142.0580   74.9820  220.6690 C   0  0  0  0  0  0  0  0  0  0  0  0
  142.5400   75.3200  219.2700 C   0  0  0  0  0  0  0  0  0  0  0  0
  142.9920   76.7450  219.2700 C   0  0  0  0  0  0  0  0  0  0  0  0
  141.8600   77.6970  219.6620 C   0  0  0  0  0  0  0  0  0  0  0  0
  141.4570   77.3240  221.0800 C   0  0  1  0  0  0  0  0  0  0  0  0
  140.6420   78.3110  221.8060 C   0  0  0  0  0  0  0  0  0  0  0  0
  140.8450   79.7290  221.2970 C   0  0  0  0  0  0  0  0  0  0  0  0
  142.1850   80.2160  221.7420 C   0  0  0  0  0  0  0  0  0  0  0  0
  141.9890   80.7210  223.1810 C   0  0  0  0  0  0  0  0  0  0  0  0
  141.3790   81.9680  223.0610 F   0  0  0  0  0  0  0  0  0  0  0  0
  143.1770   80.8580  223.8480 F   0  0  0  0  0  0  0  0  0  0  0  0
  141.0150   79.7780  223.8270 C   0  0  0  0  0  0  0  0  0  0  0  0
  141.1300   78.3710  223.2640 C   0  0  0  0  0  0  0  0  0  0  0  0
  139.8420   71.2600  223.5990 C   0  0  0  0  0  0  0  0  0  0  0  0
  139.4810   69.9380  223.7540 C   0  0  0  0  0  0  0  0  0  0  0  0
  139.5900   69.2640  224.9540 C   0  0  0  0  0  0  0  0  0  0  0  0
  140.0900   69.9750  226.0380 C   0  0  0  0  0  0  0  0  0  0  0  0
  140.2270   69.3630  227.2720 C   0  0  0  0  0  0  0  0  0  0  0  0
  140.7330   70.1170  228.3270 C   0  0  0  0  0  0  0  0  0  0  0  0
  141.0930   71.4390  228.1670 C   0  0  0  0  0  0  0  0  0  0  0  0
  140.9580   72.0590  226.9330 C   0  0  0  0  0  0  0  0  0  0  0  0
  140.4560   71.2980  225.8960 C   0  0  0  0  0  0  0  0  0  0  0  0
  140.3190   71.8870  224.6930 N   0  0  0  0  0  0  0  0  0  0  0  0
  139.4180   73.8860  223.2370 H   0  0  0  0  0  0  0  0  0  0  0  0
  140.0604   73.6161  220.3321 H   0  0  0  0  0  0  0  0  0  0  0  0
  138.3267   73.9541  220.7066 H   0  0  0  0  0  0  0  0  0  0  0  0
  142.8920   75.0533  221.3827 H   0  0  0  0  0  0  0  0  0  0  0  0
  141.6636   73.9559  220.7095 H   0  0  0  0  0  0  0  0  0  0  0  0
  143.3777   74.6624  218.9945 H   0  0  0  0  0  0  0  0  0  0  0  0
  141.7292   75.1758  218.5407 H   0  0  0  0  0  0  0  0  0  0  0  0
  143.8173   76.8573  219.9885 H   0  0  0  0  0  0  0  0  0  0  0  0
  143.3189   77.0014  218.2515 H   0  0  0  0  0  0  0  0  0  0  0  0
  142.2103   78.7392  219.6277 H   0  0  0  0  0  0  0  0  0  0  0  0
  141.0092   77.6112  218.9700 H   0  0  0  0  0  0  0  0  0  0  0  0
  142.3196   77.3670  221.7613 H   0  0  0  0  0  0  0  0  0  0  0  0
  139.5951   77.9972  221.6816 H   0  0  0  0  0  0  0  0  0  0  0  0
  140.7954   79.7374  220.1981 H   0  0  0  0  0  0  0  0  0  0  0  0
  140.0582   80.3849  221.6980 H   0  0  0  0  0  0  0  0  0  0  0  0
  142.9176   79.3957  221.7201 H   0  0  0  0  0  0  0  0  0  0  0  0
  142.5676   81.0090  221.0827 H   0  0  0  0  0  0  0  0  0  0  0  0
  141.2149   79.7458  224.9082 H   0  0  0  0  0  0  0  0  0  0  0  0
  139.9984   80.1450  223.6224 H   0  0  0  0  0  0  0  0  0  0  0  0
  142.1827   78.0544  223.3029 H   0  0  0  0  0  0  0  0  0  0  0  0
  140.5000   77.7023  223.8689 H   0  0  0  0  0  0  0  0  0  0  0  0
  139.0882   69.3956  222.8814 H   0  0  0  0  0  0  0  0  0  0  0  0
  139.2936   68.2089  225.0479 H   0  0  0  0  0  0  0  0  0  0  0  0
  139.9438   68.3097  227.4150 H   0  0  0  0  0  0  0  0  0  0  0  0
  140.8489   69.6462  229.3144 H   0  0  0  0  0  0  0  0  0  0  0  0
  141.4895   72.0051  229.0228 H   0  0  0  0  0  0  0  0  0  0  0  0
  141.2391   73.1124  226.7870 H   0  0  0  0  0  0  0  0  0  0  0  0
  1  2  2  0
  2  3  1  0
  3  4  1  0
  4  5  1  0
  5  6  2  0
  5  7  1  0
  7  8  1  0
  8  9  1  0
  9 10  1  0
 10 11  1  0
 11 12  1  0
 12 13  1  0
 13 14  1  0
 14 15  1  0
 15 16  1  0
 16 17  1  0
 16 18  1  0
 16 19  1  0
 19 20  1  0
  2 21  1  0
 21 22  2  0
 22 23  1  0
 23 24  2  0
 24 25  1  0
 25 26  2  0
 26 27  1  0
 27 28  2  0
 28 29  1  0
 29 30  2  0
 12  7  1  0
 20 13  1  0
 30 21  1  0
 29 24  1  0
  3 31  1  0
  4 32  1  0
  4 33  1  0
  8 34  1  0
  8 35  1  0
  9 36  1  0
  9 37  1  0
 10 38  1  0
 10 39  1  0
 11 40  1  0
 11 41  1  0
 12 42  1  1
 13 43  1  0
 14 44  1  0
 14 45  1  0
 15 46  1  0
 15 47  1  0
 19 48  1  0
 19 49  1  0
 20 50  1  0
 20 51  1  0
 22 52  1  0
 23 53  1  0
 25 54  1  0
 26 55  1  0
 27 56  1  0
 28 57  1  0
M  END
>  <smiles>  (60) 
O=C(NCC(=O)N1CCCCC1C1CCC(F)(F)CC1)c1ccc2ccccc2n1

>  <score_type>  (60) 
oracle

>  <origin>  (60) 
autodockgpu

>  <m_score__min__energy>  (60) 
-9.5700000000000003

>  <m_primary>  (60) 
energy

>  <rmsd>  (60) 
1.9666582663148848

>  <m_score__min__rmsd>  (60) 
1.9666582663148848

>  <meeko>  (60) 
{"free_energy": -9.17, "intermolecular_energy": -10.66, "internal_energy": -1.54, "cluster_size": 41, "cluster_id": 1, "rank_in_cluster": 37}

>  <energy>  (60) 
-9.54

>  <cluster_rmsd>  (60) 
0.15

>  <cluster>  (60) 
1

$$$$

     RDKit          3D

 57 60  0  0  0  0  0  0  0  0999 V2000
  140.7510   71.2090  221.3030 O   0  0  0  0  0  0  0  0  0  0  0  0
  140.2210   71.8290  222.2670 C   0  0  0  0  0  0  0  0  0  0  0  0
  139.6980   73.1390  222.1700 N   0  0  0  0  0  0  0  0  0  0  0  0
  139.7670   73.8240  220.8940 C   0  0  0  0  0  0  0  0  0  0  0  0
  140.7110   74.9980  220.9700 C   0  0  0  0  0  0  0  0  0  0  0  0
  140.6870   75.6300  222.0530 O   0  0  0  0  0  0  0  0  0  0  0  0
  141.5290   75.3010  219.8610 N   0  0  0  0  0  0  0  0  0  0  0  0
  140.9640   76.1090  218.7410 C   0  0  0  0  0  0  0  0  0  0  0  0
  141.7420   77.4110  218.6920 C   0  0  0  0  0  0  0  0  0  0  0  0
  143.1930   77.0770  218.5490 C   0  0  0  0  0  0  0  0  0  0  0  0
  143.6940   76.2290  219.7200 C   0  0  0  0  0  0  0  0  0  0  0  0
  142.8990   74.9330  219.6830 C   0  0  1  0  0  0  0  0  0  0  0  0
  143.4360   73.8170  220.4790 C   0  0  0  0  0  0  0  0  0  0  0  0
  144.9550   73.8090  220.5310 C   0  0  0  0  0  0  0  0  0  0  0  0
  145.4820   73.3740  219.2030 C   0  0  0  0  0  0  0  0  0  0  0  0
  145.4380   71.8380  219.2190 C   0  0  0  0  0  0  0  0  0  0  0  0
  146.5320   71.4380  219.9830 F   0  0  0  0  0  0  0  0  0  0  0  0
  145.5410   71.3040  217.9620 F   0  0  0  0  0  0  0  0  0  0  0  0
  144.1830   71.4630  219.9560 C   0  0  0  0  0  0  0  0  0  0  0  0
  143.0860   72.4970  219.7690 C   0  0  0  0  0  0  0  0  0  0  0  0
  140.1410   71.1520  223.5740 C   0  0  0  0  0  0  0  0  0  0  0  0
  139.5630   69.9060  223.7140 C   0  0  0  0  0  0  0  0  0  0  0  0
  139.4750   69.2490  224.9250 C   0  0  0  0  0  0  0  0  0  0  0  0
  139.9990   69.8960  226.0370 C   0  0  0  0  0  0  0  0  0  0  0  0
  139.9450   69.2970  227.2830 C   0  0  0  0  0  0  0  0  0  0  0  0
  140.4830   69.9840  228.3670 C   0  0  0  0  0  0  0  0  0  0  0  0
  141.0600   71.2290  228.2230 C   0  0  0  0  0  0  0  0  0  0  0  0
  141.1170   71.8360  226.9770 C   0  0  0  0  0  0  0  0  0  0  0  0
  140.5800   71.1420  225.9110 C   0  0  0  0  0  0  0  0  0  0  0  0
  140.6280   71.7190  224.6960 N   0  0  0  0  0  0  0  0  0  0  0  0
  139.2600   73.6230  223.0070 H   0  0  0  0  0  0  0  0  0  0  0  0
  140.1246   73.1222  220.1262 H   0  0  0  0  0  0  0  0  0  0  0  0
  138.7634   74.1930  220.6358 H   0  0  0  0  0  0  0  0  0  0  0  0
  141.0762   75.5666  217.7906 H   0  0  0  0  0  0  0  0  0  0  0  0
  139.8921   76.2996  218.8982 H   0  0  0  0  0  0  0  0  0  0  0  0
  141.4107   78.0118  217.8322 H   0  0  0  0  0  0  0  0  0  0  0  0
  141.5723   77.9925  219.6102 H   0  0  0  0  0  0  0  0  0  0  0  0
  143.3398   76.5166  217.6139 H   0  0  0  0  0  0  0  0  0  0  0  0
  143.7630   78.0177  218.5369 H   0  0  0  0  0  0  0  0  0  0  0  0
  144.7679   76.0199  219.6062 H   0  0  0  0  0  0  0  0  0  0  0  0
  143.5587   76.7525  220.6779 H   0  0  0  0  0  0  0  0  0  0  0  0
  142.9992   74.4355  218.7071 H   0  0  0  0  0  0  0  0  0  0  0  0
  143.0115   73.9263  221.4879 H   0  0  0  0  0  0  0  0  0  0  0  0
  145.3220   74.8202  220.7607 H   0  0  0  0  0  0  0  0  0  0  0  0
  145.2976   73.1157  221.3133 H   0  0  0  0  0  0  0  0  0  0  0  0
  144.8504   73.7671  218.3927 H   0  0  0  0  0  0  0  0  0  0  0  0
  146.5016   73.7485  219.0292 H   0  0  0  0  0  0  0  0  0  0  0  0
  143.8256   70.4933  219.5793 H   0  0  0  0  0  0  0  0  0  0  0  0
  144.4209   71.4084  221.0286 H   0  0  0  0  0  0  0  0  0  0  0  0
  142.9562   72.6916  218.6941 H   0  0  0  0  0  0  0  0  0  0  0  0
  142.1577   72.1020  220.2074 H   0  0  0  0  0  0  0  0  0  0  0  0
  139.1537   69.4140  222.8193 H   0  0  0  0  0  0  0  0  0  0  0  0
  139.0098   68.2555  225.0059 H   0  0  0  0  0  0  0  0  0  0  0  0
  139.4891   68.3044  227.4133 H   0  0  0  0  0  0  0  0  0  0  0  0
  140.4473   69.5224  229.3648 H   0  0  0  0  0  0  0  0  0  0  0  0
  141.4772   71.7432  229.1014 H   0  0  0  0  0  0  0  0  0  0  0  0
  141.5712   72.8290  226.8438 H   0  0  0  0  0  0  0  0  0  0  0  0
  1  2  2  0
  2  3  1  0
  3  4  1  0
  4  5  1  0
  5  6  2  0
  5  7  1  0
  7  8  1  0
  8  9  1  0
  9 10  1  0
 10 11  1  0
 11 12  1  0
 12 13  1  0
 13 14  1  0
 14 15  1  0
 15 16  1  0
 16 17  1  0
 16 18  1  0
 16 19  1  0
 19 20  1  0
  2 21  1  0
 21 22  2  0
 22 23  1  0
 23 24  2  0
 24 25  1  0
 25 26  2  0
 26 27  1  0
 27 28  2  0
 28 29  1  0
 29 30  2  0
 12  7  1  0
 20 13  1  0
 30 21  1  0
 29 24  1  0
  3 31  1  0
  4 32  1  0
  4 33  1  0
  8 34  1  0
  8 35  1  0
  9 36  1  0
  9 37  1  0
 10 38  1  0
 10 39  1  0
 11 40  1  0
 11 41  1  0
 12 42  1  6
 13 43  1  0
 14 44  1  0
 14 45  1  0
 15 46  1  0
 15 47  1  0
 19 48  1  0
 19 49  1  0
 20 50  1  0
 20 51  1  0
 22 52  1  0
 23 53  1  0
 25 54  1  0
 26 55  1  0
 27 56  1  0
 28 57  1  0
M  END
>  <smiles>  (61) 
O=C(NCC(=O)N1CCCCC1C1CCC(F)(F)CC1)c1ccc2ccccc2n1

>  <score_type>  (61) 
oracle

>  <origin>  (61) 
autodockgpu

>  <m_score__min__energy>  (61) 
-9.5700000000000003

>  <m_primary>  (61) 
energy

>  <rmsd>  (61) 
2.0465448103230086

>  <m_score__min__rmsd>  (61) 
2.0465448103230086

>  <meeko>  (61) 
{"free_energy": -8.6, "intermolecular_energy": -10.09, "internal_energy": -1.91, "cluster_size": 6, "cluster_id": 2, "rank_in_cluster": 1}

>  <energy>  (61) 
-9.54

>  <cluster_rmsd>  (61) 
0.16

>  <cluster>  (61) 
1

$$$$

     RDKit          3D

 57 60  0  0  0  0  0  0  0  0999 V2000
  141.2750   71.5180  221.4910 O   0  0  0  0  0  0  0  0  0  0  0  0
  140.6080   72.0770  222.4070 C   0  0  0  0  0  0  0  0  0  0  0  0
  140.1260   73.4040  222.3330 N   0  0  0  0  0  0  0  0  0  0  0  0
  140.4050   74.1820  221.1420 C   0  0  0  0  0  0  0  0  0  0  0  0
  140.6090   75.6360  221.4900 C   0  0  0  0  0  0  0  0  0  0  0  0
  139.8530   76.0770  222.3890 O   0  0  0  0  0  0  0  0  0  0  0  0
  141.5960   76.3790  220.8090 N   0  0  0  0  0  0  0  0  0  0  0  0
  142.6820   75.6540  220.0890 C   0  0  0  0  0  0  0  0  0  0  0  0
  142.5270   75.9700  218.6120 C   0  0  0  0  0  0  0  0  0  0  0  0
  142.5550   77.4560  218.4520 C   0  0  0  0  0  0  0  0  0  0  0  0
  141.4290   78.1300  219.2370 C   0  0  0  0  0  0  0  0  0  0  0  0
  141.6710   77.8030  220.7020 C   0  0  1  0  0  0  0  0  0  0  0  0
  140.9370   78.6210  221.6810 C   0  0  0  0  0  0  0  0  0  0  0  0
  141.1650   80.1120  221.4910 C   0  0  0  0  0  0  0  0  0  0  0  0
  142.5470   80.4520  221.9460 C   0  0  0  0  0  0  0  0  0  0  0  0
  142.4530   80.6250  223.4710 C   0  0  0  0  0  0  0  0  0  0  0  0
  141.8860   81.8810  223.6730 F   0  0  0  0  0  0  0  0  0  0  0  0
  143.6810   80.5780  224.0740 F   0  0  0  0  0  0  0  0  0  0  0  0
  141.4810   79.5840  223.9510 C   0  0  0  0  0  0  0  0  0  0  0  0
  141.5090   78.3380  223.0820 C   0  0  0  0  0  0  0  0  0  0  0  0
  140.3120   71.3050  223.6270 C   0  0  0  0  0  0  0  0  0  0  0  0
  139.6260   70.1090  223.5830 C   0  0  0  0  0  0  0  0  0  0  0  0
  139.3370   69.3650  224.7100 C   0  0  0  0  0  0  0  0  0  0  0  0
  139.7670   69.8700  225.9310 C   0  0  0  0  0  0  0  0  0  0  0  0
  139.5110   69.1770  227.1020 C   0  0  0  0  0  0  0  0  0  0  0  0
  139.9620   69.7230  228.3000 C   0  0  0  0  0  0  0  0  0  0  0  0
  140.6470   70.9200  228.3400 C   0  0  0  0  0  0  0  0  0  0  0  0
  140.9070   71.6190  227.1700 C   0  0  0  0  0  0  0  0  0  0  0  0
  140.4540   71.0650  225.9890 C   0  0  0  0  0  0  0  0  0  0  0  0
  140.6990   71.7330  224.8460 N   0  0  0  0  0  0  0  0  0  0  0  0
  139.5680   73.8350  223.1280 H   0  0  0  0  0  0  0  0  0  0  0  0
  141.3160   73.7943  220.6627 H   0  0  0  0  0  0  0  0  0  0  0  0
  139.5483   74.0993  220.4570 H   0  0  0  0  0  0  0  0  0  0  0  0
  143.6648   75.9950  220.4467 H   0  0  0  0  0  0  0  0  0  0  0  0
  142.6140   74.5706  220.2667 H   0  0  0  0  0  0  0  0  0  0  0  0
  143.3539   75.5178  218.0448 H   0  0  0  0  0  0  0  0  0  0  0  0
  141.5787   75.5626  218.2316 H   0  0  0  0  0  0  0  0  0  0  0  0
  143.5208   77.8358  218.8166 H   0  0  0  0  0  0  0  0  0  0  0  0
  142.4173   77.6890  217.3858 H   0  0  0  0  0  0  0  0  0  0  0  0
  141.4552   79.2185  219.0809 H   0  0  0  0  0  0  0  0  0  0  0  0
  140.4429   77.7720  218.9063 H   0  0  0  0  0  0  0  0  0  0  0  0
  142.6754   78.1211  221.0181 H   0  0  0  0  0  0  0  0  0  0  0  0
  139.8734   78.3696  221.5560 H   0  0  0  0  0  0  0  0  0  0  0  0
  141.0523   80.3703  220.4277 H   0  0  0  0  0  0  0  0  0  0  0  0
  140.4288   80.6796  222.0791 H   0  0  0  0  0  0  0  0  0  0  0  0
  143.2443   79.6392  221.6946 H   0  0  0  0  0  0  0  0  0  0  0  0
  142.9226   81.3628  221.4568 H   0  0  0  0  0  0  0  0  0  0  0  0
  141.7408   79.3039  224.9825 H   0  0  0  0  0  0  0  0  0  0  0  0
  140.4694   80.0129  223.8989 H   0  0  0  0  0  0  0  0  0  0  0  0
  142.5491   77.9942  222.9818 H   0  0  0  0  0  0  0  0  0  0  0  0
  140.8888   77.5662  223.5612 H   0  0  0  0  0  0  0  0  0  0  0  0
  139.2938   69.7304  222.6051 H   0  0  0  0  0  0  0  0  0  0  0  0
  138.7897   68.4131  224.6439 H   0  0  0  0  0  0  0  0  0  0  0  0
  138.9663   68.2215  227.0859 H   0  0  0  0  0  0  0  0  0  0  0  0
  139.7672   69.1860  229.2400 H   0  0  0  0  0  0  0  0  0  0  0  0
  140.9889   71.3224  229.3049 H   0  0  0  0  0  0  0  0  0  0  0  0
  141.4514   72.5748  227.1827 H   0  0  0  0  0  0  0  0  0  0  0  0
  1  2  2  0
  2  3  1  0
  3  4  1  0
  4  5  1  0
  5  6  2  0
  5  7  1  0
  7  8  1  0
  8  9  1  0
  9 10  1  0
 10 11  1  0
 11 12  1  0
 12 13  1  0
 13 14  1  0
 14 15  1  0
 15 16  1  0
 16 17  1  0
 16 18  1  0
 16 19  1  0
 19 20  1  0
  2 21  1  0
 21 22  2  0
 22 23  1  0
 23 24  2  0
 24 25  1  0
 25 26  2  0
 26 27  1  0
 27 28  2  0
 28 29  1  0
 29 30  2  0
 12  7  1  0
 20 13  1  0
 30 21  1  0
 29 24  1  0
  3 31  1  0
  4 32  1  0
  4 33  1  0
  8 34  1  0
  8 35  1  0
  9 36  1  0
  9 37  1  0
 10 38  1  0
 10 39  1  0
 11 40  1  0
 11 41  1  0
 12 42  1  1
 13 43  1  0
 14 44  1  0
 14 45  1  0
 15 46  1  0
 15 47  1  0
 19 48  1  0
 19 49  1  0
 20 50  1  0
 20 51  1  0
 22 52  1  0
 23 53  1  0
 25 54  1  0
 26 55  1  0
 27 56  1  0
 28 57  1  0
M  END
>  <smiles>  (62) 
O=C(NCC(=O)N1CCCCC1C1CCC(F)(F)CC1)c1ccc2ccccc2n1

>  <score_type>  (62) 
oracle

>  <origin>  (62) 
autodockgpu

>  <m_score__min__energy>  (62) 
-9.5700000000000003

>  <m_primary>  (62) 
energy

>  <rmsd>  (62) 
2.1187684722411726

>  <m_score__min__rmsd>  (62) 
2.1187684722411726

>  <meeko>  (62) 
{"free_energy": -9.54, "intermolecular_energy": -11.03, "internal_energy": -1.67, "cluster_size": 41, "cluster_id": 1, "rank_in_cluster": 14}

>  <energy>  (62) 
-9.54

>  <cluster_rmsd>  (62) 
0.15

>  <cluster>  (62) 
1

$$$$

     RDKit          3D

 57 60  0  0  0  0  0  0  0  0999 V2000
  140.9520   71.8710  221.5210 O   0  0  0  0  0  0  0  0  0  0  0  0
  140.1350   72.2160  222.4200 C   0  0  0  0  0  0  0  0  0  0  0  0
  139.2540   73.3160  222.3030 N   0  0  0  0  0  0  0  0  0  0  0  0
  139.2800   74.1040  221.0870 C   0  0  0  0  0  0  0  0  0  0  0  0
  139.6530   75.5340  221.3850 C   0  0  0  0  0  0  0  0  0  0  0  0
  138.7200   76.2450  221.8300 O   0  0  0  0  0  0  0  0  0  0  0  0
  140.9760   75.9680  221.1510 N   0  0  0  0  0  0  0  0  0  0  0  0
  142.0210   74.9590  220.8120 C   0  0  0  0  0  0  0  0  0  0  0  0
  142.4940   75.2640  219.4020 C   0  0  0  0  0  0  0  0  0  0  0  0
  142.9630   76.6830  219.3690 C   0  0  0  0  0  0  0  0  0  0  0  0
  141.8450   77.6550  219.7500 C   0  0  0  0  0  0  0  0  0  0  0  0
  141.4500   77.3160  221.1790 C   0  0  1  0  0  0  0  0  0  0  0  0
  140.6530   78.3280  221.8920 C   0  0  0  0  0  0  0  0  0  0  0  0
  140.8480   79.7290  221.3360 C   0  0  0  0  0  0  0  0  0  0  0  0
  142.1980   80.2250  221.7380 C   0  0  0  0  0  0  0  0  0  0  0  0
  142.0340   80.7750  223.1640 C   0  0  0  0  0  0  0  0  0  0  0  0
  141.4240   82.0190  223.0200 F   0  0  0  0  0  0  0  0  0  0  0  0
  143.2360   80.9280  223.8020 F   0  0  0  0  0  0  0  0  0  0  0  0
  141.0710   79.8540  223.8590 C   0  0  0  0  0  0  0  0  0  0  0  0
  141.1710   78.4300  223.3370 C   0  0  0  0  0  0  0  0  0  0  0  0
  140.0920   71.4300  223.6660 C   0  0  0  0  0  0  0  0  0  0  0  0
  139.5730   70.1520  223.7020 C   0  0  0  0  0  0  0  0  0  0  0  0
  139.5210   69.3930  224.8550 C   0  0  0  0  0  0  0  0  0  0  0  0
  140.0200   69.9690  226.0170 C   0  0  0  0  0  0  0  0  0  0  0  0
  139.9990   69.2670  227.2090 C   0  0  0  0  0  0  0  0  0  0  0  0
  140.5110   69.8860  228.3450 C   0  0  0  0  0  0  0  0  0  0  0  0
  141.0280   71.1650  228.3050 C   0  0  0  0  0  0  0  0  0  0  0  0
  141.0510   71.8740  227.1130 C   0  0  0  0  0  0  0  0  0  0  0  0
  140.5420   71.2470  225.9940 C   0  0  0  0  0  0  0  0  0  0  0  0
  140.5580   71.9250  224.8300 N   0  0  0  0  0  0  0  0  0  0  0  0
  138.5820   73.5710  223.0850 H   0  0  0  0  0  0  0  0  0  0  0  0
  140.0194   73.6750  220.3947 H   0  0  0  0  0  0  0  0  0  0  0  0
  138.2777   74.0876  220.6341 H   0  0  0  0  0  0  0  0  0  0  0  0
  142.8619   75.0350  221.5170 H   0  0  0  0  0  0  0  0  0  0  0  0
  141.6161   73.9383  220.8773 H   0  0  0  0  0  0  0  0  0  0  0  0
  143.3212   74.5911  219.1320 H   0  0  0  0  0  0  0  0  0  0  0  0
  141.6744   75.1156  218.6835 H   0  0  0  0  0  0  0  0  0  0  0  0
  143.7952   76.8004  220.0787 H   0  0  0  0  0  0  0  0  0  0  0  0
  143.2855   76.9148  218.3432 H   0  0  0  0  0  0  0  0  0  0  0  0
  142.2062   78.6923  219.6910 H   0  0  0  0  0  0  0  0  0  0  0  0
  140.9876   77.5642  219.0670 H   0  0  0  0  0  0  0  0  0  0  0  0
  142.3189   77.3627  221.8519 H   0  0  0  0  0  0  0  0  0  0  0  0
  139.6028   78.0142  221.7989 H   0  0  0  0  0  0  0  0  0  0  0  0
  140.7753   79.7043  220.2387 H   0  0  0  0  0  0  0  0  0  0  0  0
  140.0712   80.3991  221.7329 H   0  0  0  0  0  0  0  0  0  0  0  0
  142.9277   79.4019  221.7264 H   0  0  0  0  0  0  0  0  0  0  0  0
  142.5687   80.9961  221.0466 H   0  0  0  0  0  0  0  0  0  0  0  0
  141.2934   79.8542  224.9363 H   0  0  0  0  0  0  0  0  0  0  0  0
  140.0512   80.2174  223.6643 H   0  0  0  0  0  0  0  0  0  0  0  0
  142.2235   78.1113  223.3639 H   0  0  0  0  0  0  0  0  0  0  0  0
  140.5523   77.7816  223.9748 H   0  0  0  0  0  0  0  0  0  0  0  0
  139.1828   69.7176  222.7698 H   0  0  0  0  0  0  0  0  0  0  0  0
  139.1023   68.3758  224.8534 H   0  0  0  0  0  0  0  0  0  0  0  0
  139.5888   68.2475  227.2573 H   0  0  0  0  0  0  0  0  0  0  0  0
  140.5035   69.3414  229.3007 H   0  0  0  0  0  0  0  0  0  0  0  0
  141.4237   71.6244  229.2228 H   0  0  0  0  0  0  0  0  0  0  0  0
  141.4584   72.8945  227.0618 H   0  0  0  0  0  0  0  0  0  0  0  0
  1  2  2  0
  2  3  1  0
  3  4  1  0
  4  5  1  0
  5  6  2  0
  5  7  1  0
  7  8  1  0
  8  9  1  0
  9 10  1  0
 10 11  1  0
 11 12  1  0
 12 13  1  0
 13 14  1  0
 14 15  1  0
 15 16  1  0
 16 17  1  0
 16 18  1  0
 16 19  1  0
 19 20  1  0
  2 21  1  0
 21 22  2  0
 22 23  1  0
 23 24  2  0
 24 25  1  0
 25 26  2  0
 26 27  1  0
 27 28  2  0
 28 29  1  0
 29 30  2  0
 12  7  1  0
 20 13  1  0
 30 21  1  0
 29 24  1  0
  3 31  1  0
  4 32  1  0
  4 33  1  0
  8 34  1  0
  8 35  1  0
  9 36  1  0
  9 37  1  0
 10 38  1  0
 10 39  1  0
 11 40  1  0
 11 41  1  0
 12 42  1  1
 13 43  1  0
 14 44  1  0
 14 45  1  0
 15 46  1  0
 15 47  1  0
 19 48  1  0
 19 49  1  0
 20 50  1  0
 20 51  1  0
 22 52  1  0
 23 53  1  0
 25 54  1  0
 26 55  1  0
 27 56  1  0
 28 57  1  0
M  END
>  <smiles>  (63) 
O=C(NCC(=O)N1CCCCC1C1CCC(F)(F)CC1)c1ccc2ccccc2n1

>  <score_type>  (63) 
oracle

>  <origin>  (63) 
autodockgpu

>  <m_score__min__energy>  (63) 
-9.5700000000000003

>  <m_primary>  (63) 
energy

>  <rmsd>  (63) 
2.0183046515911496

>  <m_score__min__rmsd>  (63) 
2.0183046515911496

>  <meeko>  (63) 
{"free_energy": -9.4, "intermolecular_energy": -10.9, "internal_energy": -1.46, "cluster_size": 41, "cluster_id": 1, "rank_in_cluster": 24}

>  <energy>  (63) 
-9.54

>  <cluster_rmsd>  (63) 
0.17

>  <cluster>  (63) 
1

$$$$

     RDKit          3D

 57 60  0  0  0  0  0  0  0  0999 V2000
  141.2390   71.5100  221.4900 O   0  0  0  0  0  0  0  0  0  0  0  0
  140.5850   72.0740  222.4120 C   0  0  0  0  0  0  0  0  0  0  0  0
  140.1040   73.4020  222.3380 N   0  0  0  0  0  0  0  0  0  0  0  0
  140.3680   74.1740  221.1400 C   0  0  0  0  0  0  0  0  0  0  0  0
  140.5700   75.6300  221.4770 C   0  0  0  0  0  0  0  0  0  0  0  0
  139.8030   76.0820  222.3620 O   0  0  0  0  0  0  0  0  0  0  0  0
  141.5690   76.3640  220.8040 N   0  0  0  0  0  0  0  0  0  0  0  0
  142.6530   75.6300  220.0900 C   0  0  0  0  0  0  0  0  0  0  0  0
  142.5110   75.9480  218.6130 C   0  0  0  0  0  0  0  0  0  0  0  0
  142.5550   77.4340  218.4540 C   0  0  0  0  0  0  0  0  0  0  0  0
  141.4300   78.1180  219.2320 C   0  0  0  0  0  0  0  0  0  0  0  0
  141.6580   77.7870  220.6980 C   0  0  1  0  0  0  0  0  0  0  0  0
  140.9260   78.6120  221.6730 C   0  0  0  0  0  0  0  0  0  0  0  0
  141.1710   80.1000  221.4880 C   0  0  0  0  0  0  0  0  0  0  0  0
  142.5530   80.4250  221.9540 C   0  0  0  0  0  0  0  0  0  0  0  0
  142.4490   80.5960  223.4780 C   0  0  0  0  0  0  0  0  0  0  0  0
  141.8940   81.8580  223.6780 F   0  0  0  0  0  0  0  0  0  0  0  0
  143.6720   80.5350  224.0910 F   0  0  0  0  0  0  0  0  0  0  0  0
  141.4620   79.5650  223.9490 C   0  0  0  0  0  0  0  0  0  0  0  0
  141.4840   78.3200  223.0780 C   0  0  0  0  0  0  0  0  0  0  0  0
  140.3050   71.3080  223.6400 C   0  0  0  0  0  0  0  0  0  0  0  0
  139.6230   70.1090  223.6100 C   0  0  0  0  0  0  0  0  0  0  0  0
  139.3470   69.3710  224.7440 C   0  0  0  0  0  0  0  0  0  0  0  0
  139.7880   69.8850  225.9570 C   0  0  0  0  0  0  0  0  0  0  0  0
  139.5470   69.1980  227.1340 C   0  0  0  0  0  0  0  0  0  0  0  0
  140.0090   69.7530  228.3250 C   0  0  0  0  0  0  0  0  0  0  0  0
  140.6910   70.9520  228.3500 C   0  0  0  0  0  0  0  0  0  0  0  0
  140.9350   71.6450  227.1740 C   0  0  0  0  0  0  0  0  0  0  0  0
  140.4720   71.0830  226.0010 C   0  0  0  0  0  0  0  0  0  0  0  0
  140.7030   71.7450  224.8520 N   0  0  0  0  0  0  0  0  0  0  0  0
  139.5570   73.8370  223.1380 H   0  0  0  0  0  0  0  0  0  0  0  0
  141.2755   73.7868  220.6537 H   0  0  0  0  0  0  0  0  0  0  0  0
  139.5046   74.0842  220.4643 H   0  0  0  0  0  0  0  0  0  0  0  0
  143.6364   75.9618  220.4543 H   0  0  0  0  0  0  0  0  0  0  0  0
  142.5737   74.5471  220.2662 H   0  0  0  0  0  0  0  0  0  0  0  0
  143.3371   75.4878  218.0510 H   0  0  0  0  0  0  0  0  0  0  0  0
  141.5612   75.5502  218.2261 H   0  0  0  0  0  0  0  0  0  0  0  0
  143.5219   77.8041  218.8255 H   0  0  0  0  0  0  0  0  0  0  0  0
  142.4273   77.6693  217.3871 H   0  0  0  0  0  0  0  0  0  0  0  0
  141.4680   79.2064  219.0775 H   0  0  0  0  0  0  0  0  0  0  0  0
  140.4429   77.7699  218.8938 H   0  0  0  0  0  0  0  0  0  0  0  0
  142.6635   78.0947  221.0210 H   0  0  0  0  0  0  0  0  0  0  0  0
  139.8607   78.3727  221.5390 H   0  0  0  0  0  0  0  0  0  0  0  0
  141.0690   80.3615  220.4244 H   0  0  0  0  0  0  0  0  0  0  0  0
  140.4364   80.6739  222.0719 H   0  0  0  0  0  0  0  0  0  0  0  0
  143.2438   79.6056  221.7063 H   0  0  0  0  0  0  0  0  0  0  0  0
  142.9417   81.3327  221.4693 H   0  0  0  0  0  0  0  0  0  0  0  0
  141.7105   79.2807  224.9822 H   0  0  0  0  0  0  0  0  0  0  0  0
  140.4554   80.0047  223.8899 H   0  0  0  0  0  0  0  0  0  0  0  0
  142.5212   77.9655  222.9854 H   0  0  0  0  0  0  0  0  0  0  0  0
  140.8522   77.5536  223.5508 H   0  0  0  0  0  0  0  0  0  0  0  0
  139.2834   69.7230  222.6375 H   0  0  0  0  0  0  0  0  0  0  0  0
  138.8015   68.4173  224.6893 H   0  0  0  0  0  0  0  0  0  0  0  0
  139.0057   68.2404  227.1290 H   0  0  0  0  0  0  0  0  0  0  0  0
  139.8253   69.2214  229.2704 H   0  0  0  0  0  0  0  0  0  0  0  0
  141.0433   71.3607  229.3086 H   0  0  0  0  0  0  0  0  0  0  0  0
  141.4753   72.6032  227.1756 H   0  0  0  0  0  0  0  0  0  0  0  0
  1  2  2  0
  2  3  1  0
  3  4  1  0
  4  5  1  0
  5  6  2  0
  5  7  1  0
  7  8  1  0
  8  9  1  0
  9 10  1  0
 10 11  1  0
 11 12  1  0
 12 13  1  0
 13 14  1  0
 14 15  1  0
 15 16  1  0
 16 17  1  0
 16 18  1  0
 16 19  1  0
 19 20  1  0
  2 21  1  0
 21 22  2  0
 22 23  1  0
 23 24  2  0
 24 25  1  0
 25 26  2  0
 26 27  1  0
 27 28  2  0
 28 29  1  0
 29 30  2  0
 12  7  1  0
 20 13  1  0
 30 21  1  0
 29 24  1  0
  3 31  1  0
  4 32  1  0
  4 33  1  0
  8 34  1  0
  8 35  1  0
  9 36  1  0
  9 37  1  0
 10 38  1  0
 10 39  1  0
 11 40  1  0
 11 41  1  0
 12 42  1  1
 13 43  1  0
 14 44  1  0
 14 45  1  0
 15 46  1  0
 15 47  1  0
 19 48  1  0
 19 49  1  0
 20 50  1  0
 20 51  1  0
 22 52  1  0
 23 53  1  0
 25 54  1  0
 26 55  1  0
 27 56  1  0
 28 57  1  0
M  END
>  <smiles>  (64) 
O=C(NCC(=O)N1CCCCC1C1CCC(F)(F)CC1)c1ccc2ccccc2n1

>  <score_type>  (64) 
oracle

>  <origin>  (64) 
autodockgpu

>  <m_score__min__energy>  (64) 
-9.5700000000000003

>  <m_primary>  (64) 
energy

>  <rmsd>  (64) 
2.104841621045689

>  <m_score__min__rmsd>  (64) 
2.104841621045689

>  <meeko>  (64) 
{"free_energy": -9.55, "intermolecular_energy": -11.05, "internal_energy": -1.66, "cluster_size": 41, "cluster_id": 1, "rank_in_cluster": 3}

>  <energy>  (64) 
-9.54

>  <cluster_rmsd>  (64) 
0.17

>  <cluster>  (64) 
1

$$$$

     RDKit          3D

 57 60  0  0  0  0  0  0  0  0999 V2000
  141.4520   72.3170  221.8910 O   0  0  0  0  0  0  0  0  0  0  0  0
  140.3980   72.4330  222.5770 C   0  0  0  0  0  0  0  0  0  0  0  0
  139.3820   73.3790  222.3070 N   0  0  0  0  0  0  0  0  0  0  0  0
  139.5450   74.2750  221.1800 C   0  0  0  0  0  0  0  0  0  0  0  0
  140.0430   75.6230  221.6370 C   0  0  0  0  0  0  0  0  0  0  0  0
  139.3540   76.1670  222.5340 O   0  0  0  0  0  0  0  0  0  0  0  0
  141.2040   76.1690  221.0500 N   0  0  0  0  0  0  0  0  0  0  0  0
  142.2300   75.2480  220.4810 C   0  0  0  0  0  0  0  0  0  0  0  0
  142.2870   75.5110  218.9870 C   0  0  0  0  0  0  0  0  0  0  0  0
  142.5730   76.9650  218.7850 C   0  0  0  0  0  0  0  0  0  0  0  0
  141.4920   77.8450  219.4150 C   0  0  0  0  0  0  0  0  0  0  0  0
  141.5190   77.5560  220.9080 C   0  0  1  0  0  0  0  0  0  0  0  0
  140.8260   78.5260  221.7720 C   0  0  0  0  0  0  0  0  0  0  0  0
  141.1050   79.9680  221.3790 C   0  0  0  0  0  0  0  0  0  0  0  0
  142.5030   80.3160  221.7740 C   0  0  0  0  0  0  0  0  0  0  0  0
  142.4330   80.6970  223.2610 C   0  0  0  0  0  0  0  0  0  0  0  0
  141.9130   81.9900  223.2940 F   0  0  0  0  0  0  0  0  0  0  0  0
  143.6660   80.6880  223.8570 F   0  0  0  0  0  0  0  0  0  0  0  0
  141.4310   79.7680  223.8850 C   0  0  0  0  0  0  0  0  0  0  0  0
  141.4040   78.4150  223.1940 C   0  0  0  0  0  0  0  0  0  0  0  0
  140.2110   71.5330  223.7290 C   0  0  0  0  0  0  0  0  0  0  0  0
  139.5620   70.3220  223.6070 C   0  0  0  0  0  0  0  0  0  0  0  0
  139.3730   69.4590  224.6690 C   0  0  0  0  0  0  0  0  0  0  0  0
  139.8700   69.8550  225.9050 C   0  0  0  0  0  0  0  0  0  0  0  0
  139.7170   69.0400  227.0120 C   0  0  0  0  0  0  0  0  0  0  0  0
  140.2320   69.4810  228.2280 C   0  0  0  0  0  0  0  0  0  0  0  0
  140.8810   70.6930  228.3450 C   0  0  0  0  0  0  0  0  0  0  0  0
  141.0370   71.5140  227.2390 C   0  0  0  0  0  0  0  0  0  0  0  0
  140.5220   71.0640  226.0390 C   0  0  0  0  0  0  0  0  0  0  0  0
  140.6670   71.8520  224.9570 N   0  0  0  0  0  0  0  0  0  0  0  0
  138.5110   73.4410  222.9110 H   0  0  0  0  0  0  0  0  0  0  0  0
  140.2711   73.8416  220.4764 H   0  0  0  0  0  0  0  0  0  0  0  0
  138.5693   74.4067  220.6895 H   0  0  0  0  0  0  0  0  0  0  0  0
  143.2109   75.4480  220.9370 H   0  0  0  0  0  0  0  0  0  0  0  0
  141.9696   74.1987  220.6840 H   0  0  0  0  0  0  0  0  0  0  0  0
  143.0853   74.9066  218.5316 H   0  0  0  0  0  0  0  0  0  0  0  0
  141.3315   75.2399  218.5142 H   0  0  0  0  0  0  0  0  0  0  0  0
  143.5424   77.2054  219.2460 H   0  0  0  0  0  0  0  0  0  0  0  0
  142.5917   77.1647  217.7034 H   0  0  0  0  0  0  0  0  0  0  0  0
  141.7100   78.9070  219.2291 H   0  0  0  0  0  0  0  0  0  0  0  0
  140.5025   77.6303  218.9851 H   0  0  0  0  0  0  0  0  0  0  0  0
  142.5219   77.7279  221.3260 H   0  0  0  0  0  0  0  0  0  0  0  0
  139.7527   78.2994  221.6900 H   0  0  0  0  0  0  0  0  0  0  0  0
  140.9893   80.0831  220.2912 H   0  0  0  0  0  0  0  0  0  0  0  0
  140.3963   80.6369  221.8893 H   0  0  0  0  0  0  0  0  0  0  0  0
  143.1684   79.4519  221.6305 H   0  0  0  0  0  0  0  0  0  0  0  0
  142.9046   81.1379  221.1630 H   0  0  0  0  0  0  0  0  0  0  0  0
  141.6931   79.6215  224.9432 H   0  0  0  0  0  0  0  0  0  0  0  0
  140.4348   80.2228  223.7819 H   0  0  0  0  0  0  0  0  0  0  0  0
  142.4298   78.0223  223.1344 H   0  0  0  0  0  0  0  0  0  0  0  0
  140.7624   77.7390  223.7783 H   0  0  0  0  0  0  0  0  0  0  0  0
  139.1773   70.0300  222.6187 H   0  0  0  0  0  0  0  0  0  0  0  0
  138.8512   68.4990  224.5418 H   0  0  0  0  0  0  0  0  0  0  0  0
  139.2029   68.0707  226.9338 H   0  0  0  0  0  0  0  0  0  0  0  0
  140.1185   68.8463  229.1192 H   0  0  0  0  0  0  0  0  0  0  0  0
  141.2768   71.0095  229.3213 H   0  0  0  0  0  0  0  0  0  0  0  0
  141.5500   72.4842  227.3140 H   0  0  0  0  0  0  0  0  0  0  0  0
  1  2  2  0
  2  3  1  0
  3  4  1  0
  4  5  1  0
  5  6  2  0
  5  7  1  0
  7  8  1  0
  8  9  1  0
  9 10  1  0
 10 11  1  0
 11 12  1  0
 12 13  1  0
 13 14  1  0
 14 15  1  0
 15 16  1  0
 16 17  1  0
 16 18  1  0
 16 19  1  0
 19 20  1  0
  2 21  1  0
 21 22  2  0
 22 23  1  0
 23 24  2  0
 24 25  1  0
 25 26  2  0
 26 27  1  0
 27 28  2  0
 28 29  1  0
 29 30  2  0
 12  7  1  0
 20 13  1  0
 30 21  1  0
 29 24  1  0
  3 31  1  0
  4 32  1  0
  4 33  1  0
  8 34  1  0
  8 35  1  0
  9 36  1  0
  9 37  1  0
 10 38  1  0
 10 39  1  0
 11 40  1  0
 11 41  1  0
 12 42  1  1
 13 43  1  0
 14 44  1  0
 14 45  1  0
 15 46  1  0
 15 47  1  0
 19 48  1  0
 19 49  1  0
 20 50  1  0
 20 51  1  0
 22 52  1  0
 23 53  1  0
 25 54  1  0
 26 55  1  0
 27 56  1  0
 28 57  1  0
M  END
>  <smiles>  (65) 
O=C(NCC(=O)N1CCCCC1C1CCC(F)(F)CC1)c1ccc2ccccc2n1

>  <score_type>  (65) 
oracle

>  <origin>  (65) 
autodockgpu

>  <m_score__min__energy>  (65) 
-9.5700000000000003

>  <m_primary>  (65) 
energy

>  <rmsd>  (65) 
1.9792573361750623

>  <m_score__min__rmsd>  (65) 
1.9792573361750623

>  <meeko>  (65) 
{"free_energy": -9.49, "intermolecular_energy": -10.98, "internal_energy": -1.47, "cluster_size": 41, "cluster_id": 1, "rank_in_cluster": 22}

>  <energy>  (65) 
-9.54

>  <cluster_rmsd>  (65) 
0.15

>  <cluster>  (65) 
1

$$$$

     RDKit          3D

 57 60  0  0  0  0  0  0  0  0999 V2000
  141.2690   71.9040  221.6350 O   0  0  0  0  0  0  0  0  0  0  0  0
  140.3680   72.2320  222.4580 C   0  0  0  0  0  0  0  0  0  0  0  0
  139.4870   73.3220  222.2670 N   0  0  0  0  0  0  0  0  0  0  0  0
  139.6130   74.1190  221.0640 C   0  0  0  0  0  0  0  0  0  0  0  0
  139.9820   75.5420  221.4020 C   0  0  0  0  0  0  0  0  0  0  0  0
  139.1080   76.1800  222.0370 O   0  0  0  0  0  0  0  0  0  0  0  0
  141.2360   76.0470  220.9980 N   0  0  0  0  0  0  0  0  0  0  0  0
  142.3020   75.0910  220.5770 C   0  0  0  0  0  0  0  0  0  0  0  0
  142.5880   75.3600  219.1110 C   0  0  0  0  0  0  0  0  0  0  0  0
  142.9520   76.8030  218.9680 C   0  0  0  0  0  0  0  0  0  0  0  0
  141.8220   77.7190  219.4410 C   0  0  0  0  0  0  0  0  0  0  0  0
  141.6180   77.4220  220.9190 C   0  0  1  0  0  0  0  0  0  0  0  0
  140.8410   78.4130  221.6810 C   0  0  0  0  0  0  0  0  0  0  0  0
  141.2060   79.8450  221.3280 C   0  0  0  0  0  0  0  0  0  0  0  0
  142.5470   80.1600  221.9070 C   0  0  0  0  0  0  0  0  0  0  0  0
  142.2880   80.5490  223.3710 C   0  0  0  0  0  0  0  0  0  0  0  0
  141.8010   81.8540  223.3330 F   0  0  0  0  0  0  0  0  0  0  0  0
  143.4290   80.5110  224.1270 F   0  0  0  0  0  0  0  0  0  0  0  0
  141.1870   79.6470  223.8560 C   0  0  0  0  0  0  0  0  0  0  0  0
  141.2190   78.2930  223.1680 C   0  0  0  0  0  0  0  0  0  0  0  0
  140.2220   71.4360  223.6890 C   0  0  0  0  0  0  0  0  0  0  0  0
  139.5890   70.2090  223.6920 C   0  0  0  0  0  0  0  0  0  0  0  0
  139.4390   69.4430  224.8300 C   0  0  0  0  0  0  0  0  0  0  0  0
  139.9560   69.9550  226.0140 C   0  0  0  0  0  0  0  0  0  0  0  0
  139.8410   69.2410  227.1930 C   0  0  0  0  0  0  0  0  0  0  0  0
  140.3760   69.7960  228.3520 C   0  0  0  0  0  0  0  0  0  0  0  0
  141.0080   71.0230  228.3450 C   0  0  0  0  0  0  0  0  0  0  0  0
  141.1260   71.7440  227.1660 C   0  0  0  0  0  0  0  0  0  0  0  0
  140.5920   71.1810  226.0240 C   0  0  0  0  0  0  0  0  0  0  0  0
  140.6990   71.8700  224.8730 N   0  0  0  0  0  0  0  0  0  0  0  0
  138.7420   73.5620  222.9860 H   0  0  0  0  0  0  0  0  0  0  0  0
  140.3958   73.6855  220.4242 H   0  0  0  0  0  0  0  0  0  0  0  0
  138.6468   74.1201  220.5383 H   0  0  0  0  0  0  0  0  0  0  0  0
  143.2112   75.2523  221.1747 H   0  0  0  0  0  0  0  0  0  0  0  0
  141.9776   74.0509  220.7285 H   0  0  0  0  0  0  0  0  0  0  0  0
  143.4228   74.7291  218.7717 H   0  0  0  0  0  0  0  0  0  0  0  0
  141.7033   75.1269  218.5003 H   0  0  0  0  0  0  0  0  0  0  0  0
  143.8508   77.0056  219.5690 H   0  0  0  0  0  0  0  0  0  0  0  0
  143.1369   77.0070  217.9030 H   0  0  0  0  0  0  0  0  0  0  0  0
  142.1027   78.7732  219.3001 H   0  0  0  0  0  0  0  0  0  0  0  0
  140.8997   77.5428  218.8680 H   0  0  0  0  0  0  0  0  0  0  0  0
  142.5532   77.5543  221.4829 H   0  0  0  0  0  0  0  0  0  0  0  0
  139.7831   78.2134  221.4554 H   0  0  0  0  0  0  0  0  0  0  0  0
  141.2402   79.9584  220.2344 H   0  0  0  0  0  0  0  0  0  0  0  0
  140.4523   80.5334  221.7379 H   0  0  0  0  0  0  0  0  0  0  0  0
  143.2036   79.2790  221.8548 H   0  0  0  0  0  0  0  0  0  0  0  0
  143.0473   80.9691  221.3548 H   0  0  0  0  0  0  0  0  0  0  0  0
  141.3011   79.4979  224.9399 H   0  0  0  0  0  0  0  0  0  0  0  0
  140.2253   80.1262  223.6205 H   0  0  0  0  0  0  0  0  0  0  0  0
  142.2332   77.8745  223.2474 H   0  0  0  0  0  0  0  0  0  0  0  0
  140.4874   77.6356  223.6605 H   0  0  0  0  0  0  0  0  0  0  0  0
  139.1857   69.8243  222.7436 H   0  0  0  0  0  0  0  0  0  0  0  0
  138.9313   68.4676  224.8011 H   0  0  0  0  0  0  0  0  0  0  0  0
  139.3406   68.2616  227.2141 H   0  0  0  0  0  0  0  0  0  0  0  0
  140.2929   69.2420  229.2987 H   0  0  0  0  0  0  0  0  0  0  0  0
  141.4203   71.4313  229.2795 H   0  0  0  0  0  0  0  0  0  0  0  0
  141.6246   72.7242  227.1418 H   0  0  0  0  0  0  0  0  0  0  0  0
  1  2  2  0
  2  3  1  0
  3  4  1  0
  4  5  1  0
  5  6  2  0
  5  7  1  0
  7  8  1  0
  8  9  1  0
  9 10  1  0
 10 11  1  0
 11 12  1  0
 12 13  1  0
 13 14  1  0
 14 15  1  0
 15 16  1  0
 16 17  1  0
 16 18  1  0
 16 19  1  0
 19 20  1  0
  2 21  1  0
 21 22  2  0
 22 23  1  0
 23 24  2  0
 24 25  1  0
 25 26  2  0
 26 27  1  0
 27 28  2  0
 28 29  1  0
 29 30  2  0
 12  7  1  0
 20 13  1  0
 30 21  1  0
 29 24  1  0
  3 31  1  0
  4 32  1  0
  4 33  1  0
  8 34  1  0
  8 35  1  0
  9 36  1  0
  9 37  1  0
 10 38  1  0
 10 39  1  0
 11 40  1  0
 11 41  1  0
 12 42  1  1
 13 43  1  0
 14 44  1  0
 14 45  1  0
 15 46  1  0
 15 47  1  0
 19 48  1  0
 19 49  1  0
 20 50  1  0
 20 51  1  0
 22 52  1  0
 23 53  1  0
 25 54  1  0
 26 55  1  0
 27 56  1  0
 28 57  1  0
M  END
>  <smiles>  (66) 
O=C(NCC(=O)N1CCCCC1C1CCC(F)(F)CC1)c1ccc2ccccc2n1

>  <score_type>  (66) 
oracle

>  <origin>  (66) 
autodockgpu

>  <m_score__min__energy>  (66) 
-9.5700000000000003

>  <m_primary>  (66) 
energy

>  <rmsd>  (66) 
2.0335797568422778

>  <m_score__min__rmsd>  (66) 
2.0335797568422778

>  <meeko>  (66) 
{"free_energy": -9.51, "intermolecular_energy": -11.0, "internal_energy": -1.48, "cluster_size": 41, "cluster_id": 1, "rank_in_cluster": 20}

>  <energy>  (66) 
-9.54

>  <cluster_rmsd>  (66) 
0.17

>  <cluster>  (66) 
1

$$$$

     RDKit          3D

 57 60  0  0  0  0  0  0  0  0999 V2000
  140.9670   71.4820  221.3890 O   0  0  0  0  0  0  0  0  0  0  0  0
  140.3920   72.0610  222.3540 C   0  0  0  0  0  0  0  0  0  0  0  0
  139.8860   73.3800  222.2920 N   0  0  0  0  0  0  0  0  0  0  0  0
  140.0260   74.1240  221.0560 C   0  0  0  0  0  0  0  0  0  0  0  0
  140.2660   75.5860  221.3380 C   0  0  0  0  0  0  0  0  0  0  0  0
  139.3670   76.1530  222.0040 O   0  0  0  0  0  0  0  0  0  0  0  0
  141.4400   76.2010  220.8530 N   0  0  0  0  0  0  0  0  0  0  0  0
  142.5260   75.3480  220.2880 C   0  0  0  0  0  0  0  0  0  0  0  0
  142.6560   75.7080  218.8190 C   0  0  0  0  0  0  0  0  0  0  0  0
  142.9050   77.1790  218.7240 C   0  0  0  0  0  0  0  0  0  0  0  0
  141.7630   77.9860  219.3440 C   0  0  0  0  0  0  0  0  0  0  0  0
  141.7170   77.6030  220.8150 C   0  0  1  0  0  0  0  0  0  0  0  0
  140.9460   78.4960  221.6960 C   0  0  0  0  0  0  0  0  0  0  0  0
  141.2240   79.9660  221.4320 C   0  0  0  0  0  0  0  0  0  0  0  0
  142.5830   80.3030  221.9510 C   0  0  0  0  0  0  0  0  0  0  0  0
  142.4020   80.5710  223.4540 C   0  0  0  0  0  0  0  0  0  0  0  0
  141.8560   81.8500  223.5440 F   0  0  0  0  0  0  0  0  0  0  0  0
  143.5900   80.5350  224.1330 F   0  0  0  0  0  0  0  0  0  0  0  0
  141.3760   79.5830  223.9340 C   0  0  0  0  0  0  0  0  0  0  0  0
  141.4250   78.2870  223.1440 C   0  0  0  0  0  0  0  0  0  0  0  0
  140.2380   71.3240  223.6210 C   0  0  0  0  0  0  0  0  0  0  0  0
  139.6290   70.0870  223.6730 C   0  0  0  0  0  0  0  0  0  0  0  0
  139.4720   69.3740  224.8460 C   0  0  0  0  0  0  0  0  0  0  0  0
  139.9580   69.9550  226.0110 C   0  0  0  0  0  0  0  0  0  0  0  0
  139.8350   69.2970  227.2220 C   0  0  0  0  0  0  0  0  0  0  0  0
  140.3380   69.9190  228.3610 C   0  0  0  0  0  0  0  0  0  0  0  0
  140.9460   71.1560  228.3040 C   0  0  0  0  0  0  0  0  0  0  0  0
  141.0730   71.8210  227.0930 C   0  0  0  0  0  0  0  0  0  0  0  0
  140.5700   71.1910  225.9720 C   0  0  0  0  0  0  0  0  0  0  0  0
  140.6860   71.8250  224.7900 N   0  0  0  0  0  0  0  0  0  0  0  0
  139.4080   73.8280  223.1280 H   0  0  0  0  0  0  0  0  0  0  0  0
  140.8769   73.7216  220.4868 H   0  0  0  0  0  0  0  0  0  0  0  0
  139.0969   74.0237  220.4757 H   0  0  0  0  0  0  0  0  0  0  0  0
  143.4731   75.5472  220.8108 H   0  0  0  0  0  0  0  0  0  0  0  0
  142.2901   74.2806  220.4107 H   0  0  0  0  0  0  0  0  0  0  0  0
  143.4973   75.1574  218.3728 H   0  0  0  0  0  0  0  0  0  0  0  0
  141.7369   75.4403  218.2772 H   0  0  0  0  0  0  0  0  0  0  0  0
  143.8390   77.4176  219.2537 H   0  0  0  0  0  0  0  0  0  0  0  0
  142.9767   77.4472  217.6596 H   0  0  0  0  0  0  0  0  0  0  0  0
  141.9567   79.0635  219.2372 H   0  0  0  0  0  0  0  0  0  0  0  0
  140.8062   77.7714  218.8456 H   0  0  0  0  0  0  0  0  0  0  0  0
  142.6893   77.7761  221.2995 H   0  0  0  0  0  0  0  0  0  0  0  0
  139.8858   78.2612  221.5205 H   0  0  0  0  0  0  0  0  0  0  0  0
  141.1833   80.1608  220.3502 H   0  0  0  0  0  0  0  0  0  0  0  0
  140.4682   80.5846  221.9381 H   0  0  0  0  0  0  0  0  0  0  0  0
  143.2733   79.4614  221.7923 H   0  0  0  0  0  0  0  0  0  0  0  0
  143.0101   81.1742  221.4327 H   0  0  0  0  0  0  0  0  0  0  0  0
  141.5654   79.3605  224.9945 H   0  0  0  0  0  0  0  0  0  0  0  0
  140.3807   80.0300  223.7943 H   0  0  0  0  0  0  0  0  0  0  0  0
  142.4603   77.9156  223.1288 H   0  0  0  0  0  0  0  0  0  0  0  0
  140.7575   77.5594  223.6289 H   0  0  0  0  0  0  0  0  0  0  0  0
  139.2511   69.6484  222.7377 H   0  0  0  0  0  0  0  0  0  0  0  0
  138.9832   68.3886  224.8572 H   0  0  0  0  0  0  0  0  0  0  0  0
  139.3532   68.3100  227.2828 H   0  0  0  0  0  0  0  0  0  0  0  0
  140.2483   69.4107  229.3324 H   0  0  0  0  0  0  0  0  0  0  0  0
  141.3325   71.6180  229.2244 H   0  0  0  0  0  0  0  0  0  0  0  0
  141.5540   72.8082  227.0286 H   0  0  0  0  0  0  0  0  0  0  0  0
  1  2  2  0
  2  3  1  0
  3  4  1  0
  4  5  1  0
  5  6  2  0
  5  7  1  0
  7  8  1  0
  8  9  1  0
  9 10  1  0
 10 11  1  0
 11 12  1  0
 12 13  1  0
 13 14  1  0
 14 15  1  0
 15 16  1  0
 16 17  1  0
 16 18  1  0
 16 19  1  0
 19 20  1  0
  2 21  1  0
 21 22  2  0
 22 23  1  0
 23 24  2  0
 24 25  1  0
 25 26  2  0
 26 27  1  0
 27 28  2  0
 28 29  1  0
 29 30  2  0
 12  7  1  0
 20 13  1  0
 30 21  1  0
 29 24  1  0
  3 31  1  0
  4 32  1  0
  4 33  1  0
  8 34  1  0
  8 35  1  0
  9 36  1  0
  9 37  1  0
 10 38  1  0
 10 39  1  0
 11 40  1  0
 11 41  1  0
 12 42  1  1
 13 43  1  0
 14 44  1  0
 14 45  1  0
 15 46  1  0
 15 47  1  0
 19 48  1  0
 19 49  1  0
 20 50  1  0
 20 51  1  0
 22 52  1  0
 23 53  1  0
 25 54  1  0
 26 55  1  0
 27 56  1  0
 28 57  1  0
M  END
>  <smiles>  (67) 
O=C(NCC(=O)N1CCCCC1C1CCC(F)(F)CC1)c1ccc2ccccc2n1

>  <score_type>  (67) 
oracle

>  <origin>  (67) 
autodockgpu

>  <m_score__min__energy>  (67) 
-9.5700000000000003

>  <m_primary>  (67) 
energy

>  <rmsd>  (67) 
2.066009145318628

>  <m_score__min__rmsd>  (67) 
2.066009145318628

>  <meeko>  (67) 
{"free_energy": -9.52, "intermolecular_energy": -11.02, "internal_energy": -1.57, "cluster_size": 41, "cluster_id": 1, "rank_in_cluster": 18}

>  <energy>  (67) 
-9.53

>  <cluster_rmsd>  (67) 
0.17

>  <cluster>  (67) 
1

$$$$

     RDKit          3D

 57 60  0  0  0  0  0  0  0  0999 V2000
  141.3460   71.6300  221.5620 O   0  0  0  0  0  0  0  0  0  0  0  0
  140.5850   72.1220  222.4410 C   0  0  0  0  0  0  0  0  0  0  0  0
  139.9770   73.3940  222.3330 N   0  0  0  0  0  0  0  0  0  0  0  0
  140.2330   74.1930  221.1510 C   0  0  0  0  0  0  0  0  0  0  0  0
  140.5070   75.6280  221.5250 C   0  0  0  0  0  0  0  0  0  0  0  0
  139.7890   76.0820  222.4480 O   0  0  0  0  0  0  0  0  0  0  0  0
  141.5120   76.3420  220.8390 N   0  0  0  0  0  0  0  0  0  0  0  0
  142.5880   75.5870  220.1340 C   0  0  0  0  0  0  0  0  0  0  0  0
  142.4460   75.8850  218.6530 C   0  0  0  0  0  0  0  0  0  0  0  0
  142.5050   77.3680  218.4730 C   0  0  0  0  0  0  0  0  0  0  0  0
  141.3880   78.0750  219.2430 C   0  0  0  0  0  0  0  0  0  0  0  0
  141.6160   77.7630  220.7130 C   0  0  1  0  0  0  0  0  0  0  0  0
  140.8930   78.6090  221.6780 C   0  0  0  0  0  0  0  0  0  0  0  0
  141.0990   80.0940  221.4280 C   0  0  0  0  0  0  0  0  0  0  0  0
  142.4860   80.4660  221.8400 C   0  0  0  0  0  0  0  0  0  0  0  0
  142.4230   80.6940  223.3590 C   0  0  0  0  0  0  0  0  0  0  0  0
  141.8450   81.9510  223.5260 F   0  0  0  0  0  0  0  0  0  0  0  0
  143.6640   80.6840  223.9360 F   0  0  0  0  0  0  0  0  0  0  0  0
  141.4740   79.6610  223.8980 C   0  0  0  0  0  0  0  0  0  0  0  0
  141.4990   78.3840  223.0750 C   0  0  0  0  0  0  0  0  0  0  0  0
  140.3100   71.3290  223.6520 C   0  0  0  0  0  0  0  0  0  0  0  0
  139.6290   70.1300  223.5980 C   0  0  0  0  0  0  0  0  0  0  0  0
  139.3590   69.3670  224.7160 C   0  0  0  0  0  0  0  0  0  0  0  0
  139.8040   69.8530  225.9390 C   0  0  0  0  0  0  0  0  0  0  0  0
  139.5680   69.1400  227.1020 C   0  0  0  0  0  0  0  0  0  0  0  0
  140.0350   69.6680  228.3020 C   0  0  0  0  0  0  0  0  0  0  0  0
  140.7160   70.8670  228.3520 C   0  0  0  0  0  0  0  0  0  0  0  0
  140.9550   71.5870  227.1910 C   0  0  0  0  0  0  0  0  0  0  0  0
  140.4870   71.0510  226.0070 C   0  0  0  0  0  0  0  0  0  0  0  0
  140.7130   71.7380  224.8720 N   0  0  0  0  0  0  0  0  0  0  0  0
  139.3430   73.7700  223.0980 H   0  0  0  0  0  0  0  0  0  0  0  0
  141.1068   73.7849  220.6219 H   0  0  0  0  0  0  0  0  0  0  0  0
  139.3443   74.1604  220.5035 H   0  0  0  0  0  0  0  0  0  0  0  0
  143.5752   75.9147  220.4918 H   0  0  0  0  0  0  0  0  0  0  0  0
  142.4990   74.5076  220.3262 H   0  0  0  0  0  0  0  0  0  0  0  0
  143.2660   75.4083  218.0959 H   0  0  0  0  0  0  0  0  0  0  0  0
  141.4915   75.4915  218.2736 H   0  0  0  0  0  0  0  0  0  0  0  0
  143.4763   77.7333  218.8379 H   0  0  0  0  0  0  0  0  0  0  0  0
  142.3780   77.5894  217.4030 H   0  0  0  0  0  0  0  0  0  0  0  0
  141.4366   79.1606  219.0725 H   0  0  0  0  0  0  0  0  0  0  0  0
  140.3966   77.7323  218.9117 H   0  0  0  0  0  0  0  0  0  0  0  0
  142.6251   78.0654  221.0297 H   0  0  0  0  0  0  0  0  0  0  0  0
  139.8299   78.3417  221.5863 H   0  0  0  0  0  0  0  0  0  0  0  0
  140.9607   80.3111  220.3585 H   0  0  0  0  0  0  0  0  0  0  0  0
  140.3687   80.6749  222.0104 H   0  0  0  0  0  0  0  0  0  0  0  0
  143.1874   79.6524  221.6033 H   0  0  0  0  0  0  0  0  0  0  0  0
  142.8399   81.3624  221.3097 H   0  0  0  0  0  0  0  0  0  0  0  0
  141.7587   79.4224  224.9334 H   0  0  0  0  0  0  0  0  0  0  0  0
  140.4564   80.0762  223.8521 H   0  0  0  0  0  0  0  0  0  0  0  0
  142.5409   78.0491  222.9643 H   0  0  0  0  0  0  0  0  0  0  0  0
  140.8996   77.6227  223.5957 H   0  0  0  0  0  0  0  0  0  0  0  0
  139.2855   69.7655  222.6187 H   0  0  0  0  0  0  0  0  0  0  0  0
  138.8144   68.4142  224.6418 H   0  0  0  0  0  0  0  0  0  0  0  0
  139.0264   68.1828  227.0783 H   0  0  0  0  0  0  0  0  0  0  0  0
  139.8564   69.1146  229.2357 H   0  0  0  0  0  0  0  0  0  0  0  0
  141.0714   71.2541  229.3184 H   0  0  0  0  0  0  0  0  0  0  0  0
  141.4949   72.5452  227.2121 H   0  0  0  0  0  0  0  0  0  0  0  0
  1  2  2  0
  2  3  1  0
  3  4  1  0
  4  5  1  0
  5  6  2  0
  5  7  1  0
  7  8  1  0
  8  9  1  0
  9 10  1  0
 10 11  1  0
 11 12  1  0
 12 13  1  0
 13 14  1  0
 14 15  1  0
 15 16  1  0
 16 17  1  0
 16 18  1  0
 16 19  1  0
 19 20  1  0
  2 21  1  0
 21 22  2  0
 22 23  1  0
 23 24  2  0
 24 25  1  0
 25 26  2  0
 26 27  1  0
 27 28  2  0
 28 29  1  0
 29 30  2  0
 12  7  1  0
 20 13  1  0
 30 21  1  0
 29 24  1  0
  3 31  1  0
  4 32  1  0
  4 33  1  0
  8 34  1  0
  8 35  1  0
  9 36  1  0
  9 37  1  0
 10 38  1  0
 10 39  1  0
 11 40  1  0
 11 41  1  0
 12 42  1  1
 13 43  1  0
 14 44  1  0
 14 45  1  0
 15 46  1  0
 15 47  1  0
 19 48  1  0
 19 49  1  0
 20 50  1  0
 20 51  1  0
 22 52  1  0
 23 53  1  0
 25 54  1  0
 26 55  1  0
 27 56  1  0
 28 57  1  0
M  END
>  <smiles>  (68) 
O=C(NCC(=O)N1CCCCC1C1CCC(F)(F)CC1)c1ccc2ccccc2n1

>  <score_type>  (68) 
oracle

>  <origin>  (68) 
autodockgpu

>  <m_score__min__energy>  (68) 
-9.5700000000000003

>  <m_primary>  (68) 
energy

>  <rmsd>  (68) 
2.06964657738389

>  <m_score__min__rmsd>  (68) 
2.06964657738389

>  <meeko>  (68) 
{"free_energy": -9.54, "intermolecular_energy": -11.03, "internal_energy": -1.62, "cluster_size": 41, "cluster_id": 1, "rank_in_cluster": 15}

>  <energy>  (68) 
-9.52

>  <cluster_rmsd>  (68) 
0.26

>  <cluster>  (68) 
1

$$$$

     RDKit          3D

 57 60  0  0  0  0  0  0  0  0999 V2000
  140.1780   71.0570  221.2280 O   0  0  0  0  0  0  0  0  0  0  0  0
  139.9860   71.7330  222.2780 C   0  0  0  0  0  0  0  0  0  0  0  0
  139.7580   73.1290  222.2850 N   0  0  0  0  0  0  0  0  0  0  0  0
  139.7410   73.8400  221.0220 C   0  0  0  0  0  0  0  0  0  0  0  0
  140.6730   75.0250  221.0640 C   0  0  0  0  0  0  0  0  0  0  0  0
  140.6890   75.6490  222.1530 O   0  0  0  0  0  0  0  0  0  0  0  0
  141.4370   75.3450  219.9230 N   0  0  0  0  0  0  0  0  0  0  0  0
  140.7880   76.0790  218.7980 C   0  0  0  0  0  0  0  0  0  0  0  0
  141.4780   77.4270  218.6870 C   0  0  0  0  0  0  0  0  0  0  0  0
  142.9430   77.1830  218.5100 C   0  0  0  0  0  0  0  0  0  0  0  0
  143.5310   76.4060  219.6890 C   0  0  0  0  0  0  0  0  0  0  0  0
  142.8230   75.0610  219.7140 C   0  0  1  0  0  0  0  0  0  0  0  0
  143.4540   74.0080  220.5260 C   0  0  0  0  0  0  0  0  0  0  0  0
  144.9630   73.9550  220.3510 C   0  0  0  0  0  0  0  0  0  0  0  0
  145.2740   73.3800  219.0070 C   0  0  0  0  0  0  0  0  0  0  0  0
  145.2040   71.8550  219.1800 C   0  0  0  0  0  0  0  0  0  0  0  0
  146.3950   71.4920  219.8070 F   0  0  0  0  0  0  0  0  0  0  0  0
  145.1050   71.2020  217.9800 F   0  0  0  0  0  0  0  0  0  0  0  0
  144.0700   71.5920  220.1300 C   0  0  0  0  0  0  0  0  0  0  0  0
  142.9760   72.6390  220.0090 C   0  0  0  0  0  0  0  0  0  0  0  0
  139.9990   71.0310  223.5740 C   0  0  0  0  0  0  0  0  0  0  0  0
  139.5240   69.7430  223.7080 C   0  0  0  0  0  0  0  0  0  0  0  0
  139.5250   69.0620  224.9090 C   0  0  0  0  0  0  0  0  0  0  0  0
  140.0330   69.7300  226.0170 C   0  0  0  0  0  0  0  0  0  0  0  0
  140.0650   69.1080  227.2530 C   0  0  0  0  0  0  0  0  0  0  0  0
  140.5840   69.8180  228.3320 C   0  0  0  0  0  0  0  0  0  0  0  0
  141.0580   71.1060  228.1930 C   0  0  0  0  0  0  0  0  0  0  0  0
  141.0290   71.7350  226.9570 C   0  0  0  0  0  0  0  0  0  0  0  0
  140.5120   71.0180  225.8950 C   0  0  0  0  0  0  0  0  0  0  0  0
  140.4780   71.6170  224.6900 N   0  0  0  0  0  0  0  0  0  0  0  0
  139.6000   73.6580  223.1920 H   0  0  0  0  0  0  0  0  0  0  0  0
  140.0598   73.1583  220.2197 H   0  0  0  0  0  0  0  0  0  0  0  0
  138.7191   74.2007  220.8333 H   0  0  0  0  0  0  0  0  0  0  0  0
  140.9079   75.5155  217.8609 H   0  0  0  0  0  0  0  0  0  0  0  0
  139.7109   76.2047  218.9824 H   0  0  0  0  0  0  0  0  0  0  0  0
  141.0839   77.9779  217.8203 H   0  0  0  0  0  0  0  0  0  0  0  0
  141.2968   78.0248  219.5924 H   0  0  0  0  0  0  0  0  0  0  0  0
  143.0996   76.6045  217.5876 H   0  0  0  0  0  0  0  0  0  0  0  0
  143.4497   78.1577  218.4534 H   0  0  0  0  0  0  0  0  0  0  0  0
  144.6127   76.2637  219.5490 H   0  0  0  0  0  0  0  0  0  0  0  0
  143.3881   76.9490  220.6349 H   0  0  0  0  0  0  0  0  0  0  0  0
  142.9286   74.5408  218.7506 H   0  0  0  0  0  0  0  0  0  0  0  0
  143.1897   74.2256  221.5714 H   0  0  0  0  0  0  0  0  0  0  0  0
  145.3791   74.9707  220.4235 H   0  0  0  0  0  0  0  0  0  0  0  0
  145.4078   73.3273  221.1372 H   0  0  0  0  0  0  0  0  0  0  0  0
  144.5341   73.7161  218.2657 H   0  0  0  0  0  0  0  0  0  0  0  0
  146.2620   73.7024  218.6466 H   0  0  0  0  0  0  0  0  0  0  0  0
  143.6422   70.6032  219.9082 H   0  0  0  0  0  0  0  0  0  0  0  0
  144.4676   71.6309  221.1549 H   0  0  0  0  0  0  0  0  0  0  0  0
  142.6876   72.7357  218.9519 H   0  0  0  0  0  0  0  0  0  0  0  0
  142.1182   72.3175  220.6179 H   0  0  0  0  0  0  0  0  0  0  0  0
  139.1261   69.2351  222.8171 H   0  0  0  0  0  0  0  0  0  0  0  0
  139.1401   68.0344  224.9858 H   0  0  0  0  0  0  0  0  0  0  0  0
  139.6908   68.0813  227.3792 H   0  0  0  0  0  0  0  0  0  0  0  0
  140.6170   69.3393  229.3218 H   0  0  0  0  0  0  0  0  0  0  0  0
  141.4614   71.6375  229.0675 H   0  0  0  0  0  0  0  0  0  0  0  0
  141.4020   72.7617  226.8277 H   0  0  0  0  0  0  0  0  0  0  0  0
  1  2  2  0
  2  3  1  0
  3  4  1  0
  4  5  1  0
  5  6  2  0
  5  7  1  0
  7  8  1  0
  8  9  1  0
  9 10  1  0
 10 11  1  0
 11 12  1  0
 12 13  1  0
 13 14  1  0
 14 15  1  0
 15 16  1  0
 16 17  1  0
 16 18  1  0
 16 19  1  0
 19 20  1  0
  2 21  1  0
 21 22  2  0
 22 23  1  0
 23 24  2  0
 24 25  1  0
 25 26  2  0
 26 27  1  0
 27 28  2  0
 28 29  1  0
 29 30  2  0
 12  7  1  0
 20 13  1  0
 30 21  1  0
 29 24  1  0
  3 31  1  0
  4 32  1  0
  4 33  1  0
  8 34  1  0
  8 35  1  0
  9 36  1  0
  9 37  1  0
 10 38  1  0
 10 39  1  0
 11 40  1  0
 11 41  1  0
 12 42  1  6
 13 43  1  0
 14 44  1  0
 14 45  1  0
 15 46  1  0
 15 47  1  0
 19 48  1  0
 19 49  1  0
 20 50  1  0
 20 51  1  0
 22 52  1  0
 23 53  1  0
 25 54  1  0
 26 55  1  0
 27 56  1  0
 28 57  1  0
M  END
>  <smiles>  (69) 
O=C(NCC(=O)N1CCCCC1C1CCC(F)(F)CC1)c1ccc2ccccc2n1

>  <score_type>  (69) 
oracle

>  <origin>  (69) 
autodockgpu

>  <m_score__min__energy>  (69) 
-9.5700000000000003

>  <m_primary>  (69) 
energy

>  <rmsd>  (69) 
1.9238608426897286

>  <m_score__min__rmsd>  (69) 
1.9238608426897286

>  <meeko>  (69) 
{"free_energy": -8.54, "intermolecular_energy": -10.03, "internal_energy": -2.05, "cluster_size": 6, "cluster_id": 2, "rank_in_cluster": 3}

>  <energy>  (69) 
-9.51

>  <cluster_rmsd>  (69) 
0.19

>  <cluster>  (69) 
1

$$$$

     RDKit          3D

 57 60  0  0  0  0  0  0  0  0999 V2000
  139.7170   71.2300  221.2380 O   0  0  0  0  0  0  0  0  0  0  0  0
  139.7070   71.9070  222.3050 C   0  0  0  0  0  0  0  0  0  0  0  0
  139.5460   73.3110  222.3450 N   0  0  0  0  0  0  0  0  0  0  0  0
  139.3820   74.0300  221.0970 C   0  0  0  0  0  0  0  0  0  0  0  0
  139.7080   75.4920  221.2770 C   0  0  0  0  0  0  0  0  0  0  0  0
  138.7400   76.2130  221.6210 O   0  0  0  0  0  0  0  0  0  0  0  0
  141.0270   75.9400  221.0550 N   0  0  0  0  0  0  0  0  0  0  0  0
  142.0890   74.9410  220.7370 C   0  0  0  0  0  0  0  0  0  0  0  0
  142.5750   75.2370  219.3300 C   0  0  0  0  0  0  0  0  0  0  0  0
  143.0260   76.6620  219.2880 C   0  0  0  0  0  0  0  0  0  0  0  0
  141.8920   77.6240  219.6470 C   0  0  0  0  0  0  0  0  0  0  0  0
  141.4850   77.2940  221.0740 C   0  0  1  0  0  0  0  0  0  0  0  0
  140.6660   78.3030  221.7670 C   0  0  0  0  0  0  0  0  0  0  0  0
  140.9100   79.7120  221.2540 C   0  0  0  0  0  0  0  0  0  0  0  0
  142.2450   80.1780  221.7350 C   0  0  0  0  0  0  0  0  0  0  0  0
  142.0160   80.6990  223.1630 C   0  0  0  0  0  0  0  0  0  0  0  0
  141.4330   81.9560  223.0150 F   0  0  0  0  0  0  0  0  0  0  0  0
  143.1850   80.8200  223.8650 F   0  0  0  0  0  0  0  0  0  0  0  0
  141.0050   79.7790  223.7870 C   0  0  0  0  0  0  0  0  0  0  0  0
  141.1110   78.3660  223.2400 C   0  0  0  0  0  0  0  0  0  0  0  0
  139.8730   71.1970  223.5850 C   0  0  0  0  0  0  0  0  0  0  0  0
  139.5420   69.8650  223.7270 C   0  0  0  0  0  0  0  0  0  0  0  0
  139.6870   69.1750  224.9140 C   0  0  0  0  0  0  0  0  0  0  0  0
  140.1910   69.8800  226.0000 C   0  0  0  0  0  0  0  0  0  0  0  0
  140.3630   69.2520  227.2210 C   0  0  0  0  0  0  0  0  0  0  0  0
  140.8720   70.0010  228.2790 C   0  0  0  0  0  0  0  0  0  0  0  0
  141.2010   71.3330  228.1330 C   0  0  0  0  0  0  0  0  0  0  0  0
  141.0310   71.9680  226.9120 C   0  0  0  0  0  0  0  0  0  0  0  0
  140.5270   71.2130  225.8710 C   0  0  0  0  0  0  0  0  0  0  0  0
  140.3560   71.8170  224.6800 N   0  0  0  0  0  0  0  0  0  0  0  0
  139.5430   73.8410  223.2650 H   0  0  0  0  0  0  0  0  0  0  0  0
  140.0560   73.6001  220.3414 H   0  0  0  0  0  0  0  0  0  0  0  0
  138.3354   73.9386  220.7711 H   0  0  0  0  0  0  0  0  0  0  0  0
  142.9207   75.0347  221.4508 H   0  0  0  0  0  0  0  0  0  0  0  0
  141.6955   73.9162  220.8072 H   0  0  0  0  0  0  0  0  0  0  0  0
  143.4141   74.5721  219.0771 H   0  0  0  0  0  0  0  0  0  0  0  0
  141.7665   75.0702  218.6031 H   0  0  0  0  0  0  0  0  0  0  0  0
  143.8488   76.7970  220.0054 H   0  0  0  0  0  0  0  0  0  0  0  0
  143.3562   76.8876  218.2633 H   0  0  0  0  0  0  0  0  0  0  0  0
  142.2413   78.6650  219.5821 H   0  0  0  0  0  0  0  0  0  0  0  0
  141.0436   77.5162  218.9552 H   0  0  0  0  0  0  0  0  0  0  0  0
  142.3463   77.3577  221.7552 H   0  0  0  0  0  0  0  0  0  0  0  0
  139.6177   78.0077  221.6125 H   0  0  0  0  0  0  0  0  0  0  0  0
  140.8931   79.7125  220.1541 H   0  0  0  0  0  0  0  0  0  0  0  0
  140.1240   80.3854  221.6265 H   0  0  0  0  0  0  0  0  0  0  0  0
  142.9624   79.3442  221.7417 H   0  0  0  0  0  0  0  0  0  0  0  0
  142.6618   80.9581  221.0810 H   0  0  0  0  0  0  0  0  0  0  0  0
  141.1713   79.7529  224.8741 H   0  0  0  0  0  0  0  0  0  0  0  0
  140.0021   80.1625  223.5482 H   0  0  0  0  0  0  0  0  0  0  0  0
  142.1560   78.0304  223.3136 H   0  0  0  0  0  0  0  0  0  0  0  0
  140.4511   77.7138  223.8309 H   0  0  0  0  0  0  0  0  0  0  0  0
  139.1440   69.3277  222.8536 H   0  0  0  0  0  0  0  0  0  0  0  0
  139.4151   68.1123  224.9964 H   0  0  0  0  0  0  0  0  0  0  0  0
  140.1049   68.1908  227.3523 H   0  0  0  0  0  0  0  0  0  0  0  0
  141.0155   69.5180  229.2568 H   0  0  0  0  0  0  0  0  0  0  0  0
  141.6006   71.8946  228.9903 H   0  0  0  0  0  0  0  0  0  0  0  0
  141.2870   73.0294  226.7780 H   0  0  0  0  0  0  0  0  0  0  0  0
  1  2  2  0
  2  3  1  0
  3  4  1  0
  4  5  1  0
  5  6  2  0
  5  7  1  0
  7  8  1  0
  8  9  1  0
  9 10  1  0
 10 11  1  0
 11 12  1  0
 12 13  1  0
 13 14  1  0
 14 15  1  0
 15 16  1  0
 16 17  1  0
 16 18  1  0
 16 19  1  0
 19 20  1  0
  2 21  1  0
 21 22  2  0
 22 23  1  0
 23 24  2  0
 24 25  1  0
 25 26  2  0
 26 27  1  0
 27 28  2  0
 28 29  1  0
 29 30  2  0
 12  7  1  0
 20 13  1  0
 30 21  1  0
 29 24  1  0
  3 31  1  0
  4 32  1  0
  4 33  1  0
  8 34  1  0
  8 35  1  0
  9 36  1  0
  9 37  1  0
 10 38  1  0
 10 39  1  0
 11 40  1  0
 11 41  1  0
 12 42  1  1
 13 43  1  0
 14 44  1  0
 14 45  1  0
 15 46  1  0
 15 47  1  0
 19 48  1  0
 19 49  1  0
 20 50  1  0
 20 51  1  0
 22 52  1  0
 23 53  1  0
 25 54  1  0
 26 55  1  0
 27 56  1  0
 28 57  1  0
M  END
>  <smiles>  (70) 
O=C(NCC(=O)N1CCCCC1C1CCC(F)(F)CC1)c1ccc2ccccc2n1

>  <score_type>  (70) 
oracle

>  <origin>  (70) 
autodockgpu

>  <m_score__min__energy>  (70) 
-9.5700000000000003

>  <m_primary>  (70) 
energy

>  <rmsd>  (70) 
1.9726614494166048

>  <m_score__min__rmsd>  (70) 
1.9726614494166048

>  <meeko>  (70) 
{"free_energy": -9.14, "intermolecular_energy": -10.63, "internal_energy": -1.56, "cluster_size": 41, "cluster_id": 1, "rank_in_cluster": 38}

>  <energy>  (70) 
-9.51

>  <cluster_rmsd>  (70) 
0.42

>  <cluster>  (70) 
1

$$$$

     RDKit          3D

 57 60  0  0  0  0  0  0  0  0999 V2000
  141.4050   71.4990  221.5290 O   0  0  0  0  0  0  0  0  0  0  0  0
  140.6930   72.0570  222.4090 C   0  0  0  0  0  0  0  0  0  0  0  0
  140.2200   73.3860  222.3130 N   0  0  0  0  0  0  0  0  0  0  0  0
  140.5640   74.1670  221.1420 C   0  0  0  0  0  0  0  0  0  0  0  0
  140.6140   75.6360  221.4750 C   0  0  0  0  0  0  0  0  0  0  0  0
  139.8690   75.9930  222.4200 O   0  0  0  0  0  0  0  0  0  0  0  0
  141.4620   76.4860  220.7340 N   0  0  0  0  0  0  0  0  0  0  0  0
  142.4410   75.8850  219.7820 C   0  0  0  0  0  0  0  0  0  0  0  0
  142.0470   76.3400  218.3890 C   0  0  0  0  0  0  0  0  0  0  0  0
  142.0100   77.8350  218.3850 C   0  0  0  0  0  0  0  0  0  0  0  0
  141.0030   78.3780  219.4000 C   0  0  0  0  0  0  0  0  0  0  0  0
  141.4810   77.9160  220.7680 C   0  0  1  0  0  0  0  0  0  0  0  0
  140.8890   78.5990  221.9290 C   0  0  0  0  0  0  0  0  0  0  0  0
  140.9460   80.1140  221.8130 C   0  0  0  0  0  0  0  0  0  0  0  0
  142.3560   80.5620  222.0190 C   0  0  0  0  0  0  0  0  0  0  0  0
  142.5520   80.6360  223.5410 C   0  0  0  0  0  0  0  0  0  0  0  0
  141.9310   81.8160  223.9440 F   0  0  0  0  0  0  0  0  0  0  0  0
  143.8750   80.6770  223.8910 F   0  0  0  0  0  0  0  0  0  0  0  0
  141.7880   79.4780  224.1190 C   0  0  0  0  0  0  0  0  0  0  0  0
  141.7500   78.2940  223.1680 C   0  0  0  0  0  0  0  0  0  0  0  0
  140.3300   71.2830  223.6100 C   0  0  0  0  0  0  0  0  0  0  0  0
  139.6070   70.1110  223.5290 C   0  0  0  0  0  0  0  0  0  0  0  0
  139.2540   69.3660  224.6360 C   0  0  0  0  0  0  0  0  0  0  0  0
  139.6590   69.8430  225.8770 C   0  0  0  0  0  0  0  0  0  0  0  0
  139.3400   69.1470  227.0300 C   0  0  0  0  0  0  0  0  0  0  0  0
  139.7690   69.6650  228.2490 C   0  0  0  0  0  0  0  0  0  0  0  0
  140.4920   70.8380  228.3260 C   0  0  0  0  0  0  0  0  0  0  0  0
  140.8140   71.5390  227.1740 C   0  0  0  0  0  0  0  0  0  0  0  0
  140.3830   71.0140  225.9720 C   0  0  0  0  0  0  0  0  0  0  0  0
  140.6890   71.6850  224.8460 N   0  0  0  0  0  0  0  0  0  0  0  0
  139.6220   73.8160  223.0790 H   0  0  0  0  0  0  0  0  0  0  0  0
  141.5493   73.8473  220.7718 H   0  0  0  0  0  0  0  0  0  0  0  0
  139.7952   74.0057  220.3720 H   0  0  0  0  0  0  0  0  0  0  0  0
  143.4580   76.2311  220.0183 H   0  0  0  0  0  0  0  0  0  0  0  0
  142.4315   74.7873  219.8522 H   0  0  0  0  0  0  0  0  0  0  0  0
  142.7859   75.9828  217.6566 H   0  0  0  0  0  0  0  0  0  0  0  0
  141.0619   75.9324  218.1180 H   0  0  0  0  0  0  0  0  0  0  0  0
  143.0105   78.2171  218.6358 H   0  0  0  0  0  0  0  0  0  0  0  0
  141.7010   78.1679  217.3832 H   0  0  0  0  0  0  0  0  0  0  0  0
  140.9751   79.4768  219.3578 H   0  0  0  0  0  0  0  0  0  0  0  0
  139.9871   78.0132  219.1883 H   0  0  0  0  0  0  0  0  0  0  0  0
  142.5137   78.2438  220.9578 H   0  0  0  0  0  0  0  0  0  0  0  0
  139.8475   78.2508  221.9920 H   0  0  0  0  0  0  0  0  0  0  0  0
  140.6032   80.4210  220.8139 H   0  0  0  0  0  0  0  0  0  0  0  0
  140.2949   80.5709  222.5728 H   0  0  0  0  0  0  0  0  0  0  0  0
  143.0566   79.8382  221.5771 H   0  0  0  0  0  0  0  0  0  0  0  0
  142.5475   81.5325  221.5379 H   0  0  0  0  0  0  0  0  0  0  0  0
  142.2709   79.1657  225.0567 H   0  0  0  0  0  0  0  0  0  0  0  0
  140.7533   79.8064  224.2964 H   0  0  0  0  0  0  0  0  0  0  0  0
  142.7751   78.0619  222.8436 H   0  0  0  0  0  0  0  0  0  0  0  0
  141.3060   77.4379  223.6971 H   0  0  0  0  0  0  0  0  0  0  0  0
  139.2973   69.7535  222.5359 H   0  0  0  0  0  0  0  0  0  0  0  0
  138.6768   68.4345  224.5401 H   0  0  0  0  0  0  0  0  0  0  0  0
  138.7638   68.2111  226.9845 H   0  0  0  0  0  0  0  0  0  0  0  0
  139.5251   69.1248  229.1757 H   0  0  0  0  0  0  0  0  0  0  0  0
  140.8145   71.2187  229.3064 H   0  0  0  0  0  0  0  0  0  0  0  0
  141.3895   72.4755  227.2160 H   0  0  0  0  0  0  0  0  0  0  0  0
  1  2  2  0
  2  3  1  0
  3  4  1  0
  4  5  1  0
  5  6  2  0
  5  7  1  0
  7  8  1  0
  8  9  1  0
  9 10  1  0
 10 11  1  0
 11 12  1  0
 12 13  1  0
 13 14  1  0
 14 15  1  0
 15 16  1  0
 16 17  1  0
 16 18  1  0
 16 19  1  0
 19 20  1  0
  2 21  1  0
 21 22  2  0
 22 23  1  0
 23 24  2  0
 24 25  1  0
 25 26  2  0
 26 27  1  0
 27 28  2  0
 28 29  1  0
 29 30  2  0
 12  7  1  0
 20 13  1  0
 30 21  1  0
 29 24  1  0
  3 31  1  0
  4 32  1  0
  4 33  1  0
  8 34  1  0
  8 35  1  0
  9 36  1  0
  9 37  1  0
 10 38  1  0
 10 39  1  0
 11 40  1  0
 11 41  1  0
 12 42  1  6
 13 43  1  0
 14 44  1  0
 14 45  1  0
 15 46  1  0
 15 47  1  0
 19 48  1  0
 19 49  1  0
 20 50  1  0
 20 51  1  0
 22 52  1  0
 23 53  1  0
 25 54  1  0
 26 55  1  0
 27 56  1  0
 28 57  1  0
M  END
>  <smiles>  (71) 
O=C(NCC(=O)N1CCCCC1C1CCC(F)(F)CC1)c1ccc2ccccc2n1

>  <score_type>  (71) 
oracle

>  <origin>  (71) 
autodockgpu

>  <m_score__min__energy>  (71) 
-9.5700000000000003

>  <m_primary>  (71) 
energy

>  <rmsd>  (71) 
2.0824293895258803

>  <m_score__min__rmsd>  (71) 
2.0824293895258803

>  <meeko>  (71) 
{"free_energy": -9.27, "intermolecular_energy": -10.76, "internal_energy": -1.79, "cluster_size": 41, "cluster_id": 1, "rank_in_cluster": 30}

>  <energy>  (71) 
-9.51

>  <cluster_rmsd>  (71) 
0.22

>  <cluster>  (71) 
1

$$$$

     RDKit          3D

 57 60  0  0  0  0  0  0  0  0999 V2000
  138.1890   71.1740  221.6910 O   0  0  0  0  0  0  0  0  0  0  0  0
  138.8940   71.6070  222.6460 C   0  0  0  0  0  0  0  0  0  0  0  0
  139.4050   72.9230  222.7150 N   0  0  0  0  0  0  0  0  0  0  0  0
  139.1130   73.8430  221.6340 C   0  0  0  0  0  0  0  0  0  0  0  0
  139.7070   75.2000  221.9120 C   0  0  0  0  0  0  0  0  0  0  0  0
  140.8910   75.1870  222.3280 O   0  0  0  0  0  0  0  0  0  0  0  0
  138.9260   76.3560  221.6980 N   0  0  0  0  0  0  0  0  0  0  0  0
  137.4830   76.2020  221.3510 C   0  0  0  0  0  0  0  0  0  0  0  0
  136.6830   76.8120  222.4870 C   0  0  0  0  0  0  0  0  0  0  0  0
  137.1350   78.2260  222.6640 C   0  0  0  0  0  0  0  0  0  0  0  0
  138.6270   78.3050  222.9940 C   0  0  0  0  0  0  0  0  0  0  0  0
  139.3620   77.7130  221.8010 C   0  0  1  0  0  0  0  0  0  0  0  0
  140.8040   77.9970  221.7200 C   0  0  0  0  0  0  0  0  0  0  0  0
  141.4630   78.0920  223.0870 C   0  0  0  0  0  0  0  0  0  0  0  0
  141.0470   79.3710  223.7360 C   0  0  0  0  0  0  0  0  0  0  0  0
  141.9840   80.4500  223.1700 C   0  0  0  0  0  0  0  0  0  0  0  0
  143.1920   80.2920  223.8470 F   0  0  0  0  0  0  0  0  0  0  0  0
  141.5060   81.7150  223.3830 F   0  0  0  0  0  0  0  0  0  0  0  0
  142.2020   80.0990  221.7250 C   0  0  0  0  0  0  0  0  0  0  0  0
  140.9940   79.4030  221.1230 C   0  0  0  0  0  0  0  0  0  0  0  0
  139.2040   70.6890  223.7570 C   0  0  0  0  0  0  0  0  0  0  0  0
  138.8800   69.3490  223.7060 C   0  0  0  0  0  0  0  0  0  0  0  0
  139.1590   68.4670  224.7310 C   0  0  0  0  0  0  0  0  0  0  0  0
  139.7950   68.9810  225.8550 C   0  0  0  0  0  0  0  0  0  0  0  0
  140.1060   68.1550  226.9210 C   0  0  0  0  0  0  0  0  0  0  0  0
  140.7430   68.7170  228.0230 C   0  0  0  0  0  0  0  0  0  0  0  0
  141.0660   70.0580  228.0700 C   0  0  0  0  0  0  0  0  0  0  0  0
  140.7570   70.8910  227.0050 C   0  0  0  0  0  0  0  0  0  0  0  0
  140.1250   70.3200  225.9180 C   0  0  0  0  0  0  0  0  0  0  0  0
  139.8200   71.1180  224.8770 N   0  0  0  0  0  0  0  0  0  0  0  0
  139.9930   73.2450  223.5390 H   0  0  0  0  0  0  0  0  0  0  0  0
  139.5377   73.4479  220.6994 H   0  0  0  0  0  0  0  0  0  0  0  0
  138.0216   73.9471  221.5443 H   0  0  0  0  0  0  0  0  0  0  0  0
  137.2631   76.7275  220.4100 H   0  0  0  0  0  0  0  0  0  0  0  0
  137.2241   75.1415  221.2153 H   0  0  0  0  0  0  0  0  0  0  0  0
  135.6109   76.7908  222.2418 H   0  0  0  0  0  0  0  0  0  0  0  0
  136.8407   76.2418  223.4143 H   0  0  0  0  0  0  0  0  0  0  0  0
  136.9458   78.7801  221.7328 H   0  0  0  0  0  0  0  0  0  0  0  0
  136.5741   78.6633  223.5032 H   0  0  0  0  0  0  0  0  0  0  0  0
  138.9284   79.3520  223.1453 H   0  0  0  0  0  0  0  0  0  0  0  0
  138.8607   77.7570  223.9187 H   0  0  0  0  0  0  0  0  0  0  0  0
  139.0910   78.2333  220.8705 H   0  0  0  0  0  0  0  0  0  0  0  0
  141.2450   77.1804  221.1295 H   0  0  0  0  0  0  0  0  0  0  0  0
  141.1466   77.2420  223.7094 H   0  0  0  0  0  0  0  0  0  0  0  0
  142.5571   78.0687  222.9760 H   0  0  0  0  0  0  0  0  0  0  0  0
  140.0007   79.6038  223.4887 H   0  0  0  0  0  0  0  0  0  0  0  0
  141.1142   79.3101  224.8322 H   0  0  0  0  0  0  0  0  0  0  0  0
  142.3984   81.0224  221.1604 H   0  0  0  0  0  0  0  0  0  0  0  0
  143.0570   79.4093  221.6669 H   0  0  0  0  0  0  0  0  0  0  0  0
  140.0955   80.0036  221.3276 H   0  0  0  0  0  0  0  0  0  0  0  0
  141.1557   79.3015  220.0397 H   0  0  0  0  0  0  0  0  0  0  0  0
  138.3759   68.9653  222.8068 H   0  0  0  0  0  0  0  0  0  0  0  0
  138.8894   67.4028  224.6611 H   0  0  0  0  0  0  0  0  0  0  0  0
  139.8565   67.0839  226.8977 H   0  0  0  0  0  0  0  0  0  0  0  0
  140.9960   68.0752  228.8798 H   0  0  0  0  0  0  0  0  0  0  0  0
  141.5712   70.4683  228.9568 H   0  0  0  0  0  0  0  0  0  0  0  0
  141.0052   71.9624  227.0254 H   0  0  0  0  0  0  0  0  0  0  0  0
  1  2  2  0
  2  3  1  0
  3  4  1  0
  4  5  1  0
  5  6  2  0
  5  7  1  0
  7  8  1  0
  8  9  1  0
  9 10  1  0
 10 11  1  0
 11 12  1  0
 12 13  1  0
 13 14  1  0
 14 15  1  0
 15 16  1  0
 16 17  1  0
 16 18  1  0
 16 19  1  0
 19 20  1  0
  2 21  1  0
 21 22  2  0
 22 23  1  0
 23 24  2  0
 24 25  1  0
 25 26  2  0
 26 27  1  0
 27 28  2  0
 28 29  1  0
 29 30  2  0
 12  7  1  0
 20 13  1  0
 30 21  1  0
 29 24  1  0
  3 31  1  0
  4 32  1  0
  4 33  1  0
  8 34  1  0
  8 35  1  0
  9 36  1  0
  9 37  1  0
 10 38  1  0
 10 39  1  0
 11 40  1  0
 11 41  1  0
 12 42  1  6
 13 43  1  0
 14 44  1  0
 14 45  1  0
 15 46  1  0
 15 47  1  0
 19 48  1  0
 19 49  1  0
 20 50  1  0
 20 51  1  0
 22 52  1  0
 23 53  1  0
 25 54  1  0
 26 55  1  0
 27 56  1  0
 28 57  1  0
M  END
>  <smiles>  (72) 
O=C(NCC(=O)N1CCCCC1C1CCC(F)(F)CC1)c1ccc2ccccc2n1

>  <score_type>  (72) 
oracle

>  <origin>  (72) 
autodockgpu

>  <m_score__min__energy>  (72) 
-9.5700000000000003

>  <m_primary>  (72) 
energy

>  <rmsd>  (72) 
2.9486521666965513

>  <m_score__min__rmsd>  (72) 
2.9486521666965513

>  <meeko>  (72) 
{"free_energy": -8.64, "intermolecular_energy": -10.13, "internal_energy": -1.35, "cluster_size": 41, "cluster_id": 1, "rank_in_cluster": 39}

>  <energy>  (72) 
-9.49

>  <cluster_rmsd>  (72) 
0.39

>  <cluster>  (72) 
1

$$$$

     RDKit          3D

 57 60  0  0  0  0  0  0  0  0999 V2000
  140.8660   71.4850  221.3430 O   0  0  0  0  0  0  0  0  0  0  0  0
  140.3760   72.0980  222.3320 C   0  0  0  0  0  0  0  0  0  0  0  0
  139.9650   73.4500  222.2970 N   0  0  0  0  0  0  0  0  0  0  0  0
  140.1070   74.1900  221.0590 C   0  0  0  0  0  0  0  0  0  0  0  0
  140.3130   75.6580  221.3350 C   0  0  0  0  0  0  0  0  0  0  0  0
  139.4230   76.1960  222.0380 O   0  0  0  0  0  0  0  0  0  0  0  0
  141.4470   76.3110  220.8070 N   0  0  0  0  0  0  0  0  0  0  0  0
  142.5280   75.4950  220.1830 C   0  0  0  0  0  0  0  0  0  0  0  0
  142.5840   75.8740  218.7140 C   0  0  0  0  0  0  0  0  0  0  0  0
  142.7880   77.3530  218.6270 C   0  0  0  0  0  0  0  0  0  0  0  0
  141.6540   78.1210  219.3070 C   0  0  0  0  0  0  0  0  0  0  0  0
  141.6840   77.7200  220.7740 C   0  0  1  0  0  0  0  0  0  0  0  0
  140.9300   78.5820  221.7000 C   0  0  0  0  0  0  0  0  0  0  0  0
  141.1800   80.0620  221.4620 C   0  0  0  0  0  0  0  0  0  0  0  0
  142.5510   80.4050  221.9470 C   0  0  0  0  0  0  0  0  0  0  0  0
  142.4120   80.6350  223.4610 C   0  0  0  0  0  0  0  0  0  0  0  0
  141.8530   81.9030  223.5990 F   0  0  0  0  0  0  0  0  0  0  0  0
  143.6210   80.5980  224.1030 F   0  0  0  0  0  0  0  0  0  0  0  0
  141.4140   79.6220  223.9480 C   0  0  0  0  0  0  0  0  0  0  0  0
  141.4550   78.3450  223.1270 C   0  0  0  0  0  0  0  0  0  0  0  0
  140.2220   71.3650  223.6020 C   0  0  0  0  0  0  0  0  0  0  0  0
  139.6170   70.1260  223.6580 C   0  0  0  0  0  0  0  0  0  0  0  0
  139.4600   69.4180  224.8330 C   0  0  0  0  0  0  0  0  0  0  0  0
  139.9410   70.0050  225.9970 C   0  0  0  0  0  0  0  0  0  0  0  0
  139.8180   69.3520  227.2110 C   0  0  0  0  0  0  0  0  0  0  0  0
  140.3160   69.9810  228.3490 C   0  0  0  0  0  0  0  0  0  0  0  0
  140.9190   71.2200  228.2880 C   0  0  0  0  0  0  0  0  0  0  0  0
  141.0460   71.8800  227.0740 C   0  0  0  0  0  0  0  0  0  0  0  0
  140.5480   71.2440  225.9540 C   0  0  0  0  0  0  0  0  0  0  0  0
  140.6650   71.8730  224.7700 N   0  0  0  0  0  0  0  0  0  0  0  0
  139.5570   73.9260  223.1540 H   0  0  0  0  0  0  0  0  0  0  0  0
  140.9738   73.8020  220.5040 H   0  0  0  0  0  0  0  0  0  0  0  0
  139.1881   74.0675  220.4669 H   0  0  0  0  0  0  0  0  0  0  0  0
  143.4919   75.7136  220.6658 H   0  0  0  0  0  0  0  0  0  0  0  0
  142.3248   74.4205  220.3020 H   0  0  0  0  0  0  0  0  0  0  0  0
  143.4200   75.3523  218.2253 H   0  0  0  0  0  0  0  0  0  0  0  0
  141.6503   75.5861  218.2087 H   0  0  0  0  0  0  0  0  0  0  0  0
  143.7380   77.6114  219.1177 H   0  0  0  0  0  0  0  0  0  0  0  0
  142.8041   77.6351  217.5639 H   0  0  0  0  0  0  0  0  0  0  0  0
  141.8137   79.2046  219.2053 H   0  0  0  0  0  0  0  0  0  0  0  0
  140.6820   77.8860  218.8488 H   0  0  0  0  0  0  0  0  0  0  0  0
  142.6721   77.9140  221.2168 H   0  0  0  0  0  0  0  0  0  0  0  0
  139.8679   78.3372  221.5518 H   0  0  0  0  0  0  0  0  0  0  0  0
  141.1030   80.2813  220.3869 H   0  0  0  0  0  0  0  0  0  0  0  0
  140.4323   80.6585  222.0052 H   0  0  0  0  0  0  0  0  0  0  0  0
  143.2467   79.5767  221.7473 H   0  0  0  0  0  0  0  0  0  0  0  0
  142.9514   81.2934  221.4367 H   0  0  0  0  0  0  0  0  0  0  0  0
  141.6385   79.3776  224.9968 H   0  0  0  0  0  0  0  0  0  0  0  0
  140.4093   80.0587  223.8483 H   0  0  0  0  0  0  0  0  0  0  0  0
  142.4938   77.9873  223.0721 H   0  0  0  0  0  0  0  0  0  0  0  0
  140.8119   77.5975  223.6144 H   0  0  0  0  0  0  0  0  0  0  0  0
  139.2427   69.6821  222.7238 H   0  0  0  0  0  0  0  0  0  0  0  0
  138.9747   68.4310  224.8470 H   0  0  0  0  0  0  0  0  0  0  0  0
  139.3400   68.3634  227.2751 H   0  0  0  0  0  0  0  0  0  0  0  0
  140.2261   69.4765  229.3224 H   0  0  0  0  0  0  0  0  0  0  0  0
  141.3015   71.6877  229.2072 H   0  0  0  0  0  0  0  0  0  0  0  0
  141.5235   72.8687  227.0066 H   0  0  0  0  0  0  0  0  0  0  0  0
  1  2  2  0
  2  3  1  0
  3  4  1  0
  4  5  1  0
  5  6  2  0
  5  7  1  0
  7  8  1  0
  8  9  1  0
  9 10  1  0
 10 11  1  0
 11 12  1  0
 12 13  1  0
 13 14  1  0
 14 15  1  0
 15 16  1  0
 16 17  1  0
 16 18  1  0
 16 19  1  0
 19 20  1  0
  2 21  1  0
 21 22  2  0
 22 23  1  0
 23 24  2  0
 24 25  1  0
 25 26  2  0
 26 27  1  0
 27 28  2  0
 28 29  1  0
 29 30  2  0
 12  7  1  0
 20 13  1  0
 30 21  1  0
 29 24  1  0
  3 31  1  0
  4 32  1  0
  4 33  1  0
  8 34  1  0
  8 35  1  0
  9 36  1  0
  9 37  1  0
 10 38  1  0
 10 39  1  0
 11 40  1  0
 11 41  1  0
 12 42  1  1
 13 43  1  0
 14 44  1  0
 14 45  1  0
 15 46  1  0
 15 47  1  0
 19 48  1  0
 19 49  1  0
 20 50  1  0
 20 51  1  0
 22 52  1  0
 23 53  1  0
 25 54  1  0
 26 55  1  0
 27 56  1  0
 28 57  1  0
M  END
>  <smiles>  (73) 
O=C(NCC(=O)N1CCCCC1C1CCC(F)(F)CC1)c1ccc2ccccc2n1

>  <score_type>  (73) 
oracle

>  <origin>  (73) 
autodockgpu

>  <m_score__min__energy>  (73) 
-9.5700000000000003

>  <m_primary>  (73) 
energy

>  <rmsd>  (73) 
2.07208915245198

>  <m_score__min__rmsd>  (73) 
2.07208915245198

>  <meeko>  (73) 
{"free_energy": -9.51, "intermolecular_energy": -11.0, "internal_energy": -1.61, "cluster_size": 41, "cluster_id": 1, "rank_in_cluster": 21}

>  <energy>  (73) 
-9.48

>  <cluster_rmsd>  (73) 
0.4

>  <cluster>  (73) 
1

$$$$

     RDKit          3D

 57 60  0  0  0  0  0  0  0  0999 V2000
  141.4540   72.5370  221.9640 O   0  0  0  0  0  0  0  0  0  0  0  0
  140.3710   72.5490  222.6140 C   0  0  0  0  0  0  0  0  0  0  0  0
  139.2970   73.4270  222.3410 N   0  0  0  0  0  0  0  0  0  0  0  0
  139.4320   74.3770  221.2550 C   0  0  0  0  0  0  0  0  0  0  0  0
  140.0090   75.6780  221.7510 C   0  0  0  0  0  0  0  0  0  0  0  0
  141.1180   75.5810  222.3300 O   0  0  0  0  0  0  0  0  0  0  0  0
  139.2940   76.8770  221.5440 N   0  0  0  0  0  0  0  0  0  0  0  0
  138.1170   76.8710  220.6280 C   0  0  0  0  0  0  0  0  0  0  0  0
  136.8940   77.1930  221.4680 C   0  0  0  0  0  0  0  0  0  0  0  0
  137.1400   78.4960  222.1600 C   0  0  0  0  0  0  0  0  0  0  0  0
  138.3740   78.4320  223.0620 C   0  0  0  0  0  0  0  0  0  0  0  0
  139.5570   78.1450  222.1500 C   0  0  1  0  0  0  0  0  0  0  0  0
  140.8920   78.3870  222.7210 C   0  0  0  0  0  0  0  0  0  0  0  0
  140.8570   79.3050  223.9320 C   0  0  0  0  0  0  0  0  0  0  0  0
  140.5830   80.7000  223.4740 C   0  0  0  0  0  0  0  0  0  0  0  0
  141.9410   81.2710  223.0370 C   0  0  0  0  0  0  0  0  0  0  0  0
  142.6080   81.5990  224.2150 F   0  0  0  0  0  0  0  0  0  0  0  0
  141.8070   82.3920  222.2620 F   0  0  0  0  0  0  0  0  0  0  0  0
  142.6770   80.1390  222.3760 C   0  0  0  0  0  0  0  0  0  0  0  0
  141.7290   79.1680  221.6930 C   0  0  0  0  0  0  0  0  0  0  0  0
  140.2120   71.5920  223.7240 C   0  0  0  0  0  0  0  0  0  0  0  0
  139.5870   70.3740  223.5510 C   0  0  0  0  0  0  0  0  0  0  0  0
  139.4250   69.4590  224.5730 C   0  0  0  0  0  0  0  0  0  0  0  0
  139.9230   69.8080  225.8220 C   0  0  0  0  0  0  0  0  0  0  0  0
  139.7950   68.9400  226.8920 C   0  0  0  0  0  0  0  0  0  0  0  0
  140.3110   69.3350  228.1230 C   0  0  0  0  0  0  0  0  0  0  0  0
  140.9350   70.5540  228.2920 C   0  0  0  0  0  0  0  0  0  0  0  0
  141.0650   71.4280  227.2240 C   0  0  0  0  0  0  0  0  0  0  0  0
  140.5500   71.0240  226.0080 C   0  0  0  0  0  0  0  0  0  0  0  0
  140.6710   71.8630  224.9630 N   0  0  0  0  0  0  0  0  0  0  0  0
  138.4030   73.4010  222.9140 H   0  0  0  0  0  0  0  0  0  0  0  0
  140.0987   73.9558  220.4882 H   0  0  0  0  0  0  0  0  0  0  0  0
  138.4359   74.5718  220.8310 H   0  0  0  0  0  0  0  0  0  0  0  0
  138.2461   77.6309  219.8432 H   0  0  0  0  0  0  0  0  0  0  0  0
  138.0080   75.8922  220.1380 H   0  0  0  0  0  0  0  0  0  0  0  0
  136.0078   77.2749  220.8215 H   0  0  0  0  0  0  0  0  0  0  0  0
  136.7154   76.3961  222.2050 H   0  0  0  0  0  0  0  0  0  0  0  0
  137.2920   79.2791  221.4026 H   0  0  0  0  0  0  0  0  0  0  0  0
  136.2661   78.7212  222.7890 H   0  0  0  0  0  0  0  0  0  0  0  0
  138.5169   79.3918  223.5801 H   0  0  0  0  0  0  0  0  0  0  0  0
  138.2656   77.6540  223.8320 H   0  0  0  0  0  0  0  0  0  0  0  0
  139.6344   78.8995  221.3533 H   0  0  0  0  0  0  0  0  0  0  0  0
  141.2944   77.3996  222.9914 H   0  0  0  0  0  0  0  0  0  0  0  0
  140.0624   78.9793  224.6194 H   0  0  0  0  0  0  0  0  0  0  0  0
  141.8235   79.2678  224.4558 H   0  0  0  0  0  0  0  0  0  0  0  0
  139.8797   80.6944  222.6282 H   0  0  0  0  0  0  0  0  0  0  0  0
  140.1264   81.3056  224.2708 H   0  0  0  0  0  0  0  0  0  0  0  0
  143.3645   80.5531  221.6237 H   0  0  0  0  0  0  0  0  0  0  0  0
  143.2254   79.5886  223.1547 H   0  0  0  0  0  0  0  0  0  0  0  0
  141.0523   79.7317  221.0340 H   0  0  0  0  0  0  0  0  0  0  0  0
  142.3267   78.4488  221.1138 H   0  0  0  0  0  0  0  0  0  0  0  0
  139.1999   70.1200  222.5532 H   0  0  0  0  0  0  0  0  0  0  0  0
  138.9229   68.4948  224.4050 H   0  0  0  0  0  0  0  0  0  0  0  0
  139.2994   67.9652  226.7732 H   0  0  0  0  0  0  0  0  0  0  0  0
  140.2188   68.6570  228.9843 H   0  0  0  0  0  0  0  0  0  0  0  0
  141.3313   70.8336  229.2793 H   0  0  0  0  0  0  0  0  0  0  0  0
  141.5586   72.4041  227.3404 H   0  0  0  0  0  0  0  0  0  0  0  0
  1  2  2  0
  2  3  1  0
  3  4  1  0
  4  5  1  0
  5  6  2  0
  5  7  1  0
  7  8  1  0
  8  9  1  0
  9 10  1  0
 10 11  1  0
 11 12  1  0
 12 13  1  0
 13 14  1  0
 14 15  1  0
 15 16  1  0
 16 17  1  0
 16 18  1  0
 16 19  1  0
 19 20  1  0
  2 21  1  0
 21 22  2  0
 22 23  1  0
 23 24  2  0
 24 25  1  0
 25 26  2  0
 26 27  1  0
 27 28  2  0
 28 29  1  0
 29 30  2  0
 12  7  1  0
 20 13  1  0
 30 21  1  0
 29 24  1  0
  3 31  1  0
  4 32  1  0
  4 33  1  0
  8 34  1  0
  8 35  1  0
  9 36  1  0
  9 37  1  0
 10 38  1  0
 10 39  1  0
 11 40  1  0
 11 41  1  0
 12 42  1  6
 13 43  1  0
 14 44  1  0
 14 45  1  0
 15 46  1  0
 15 47  1  0
 19 48  1  0
 19 49  1  0
 20 50  1  0
 20 51  1  0
 22 52  1  0
 23 53  1  0
 25 54  1  0
 26 55  1  0
 27 56  1  0
 28 57  1  0
M  END
>  <smiles>  (74) 
O=C(NCC(=O)N1CCCCC1C1CCC(F)(F)CC1)c1ccc2ccccc2n1

>  <score_type>  (74) 
oracle

>  <origin>  (74) 
autodockgpu

>  <m_score__min__energy>  (74) 
-9.5700000000000003

>  <m_primary>  (74) 
energy

>  <rmsd>  (74) 
2.970504278775481

>  <m_score__min__rmsd>  (74) 
2.970504278775481

>  <meeko>  (74) 
{"free_energy": -9.21, "intermolecular_energy": -10.7, "internal_energy": -1.25, "cluster_size": 41, "cluster_id": 1, "rank_in_cluster": 36}

>  <energy>  (74) 
-9.4

>  <cluster_rmsd>  (74) 
0.62

>  <cluster>  (74) 
1

$$$$

     RDKit          3D

 57 60  0  0  0  0  0  0  0  0999 V2000
  139.2570   70.8910  221.4060 O   0  0  0  0  0  0  0  0  0  0  0  0
  139.3760   71.6970  222.3710 C   0  0  0  0  0  0  0  0  0  0  0  0
  139.0980   73.0810  222.2810 N   0  0  0  0  0  0  0  0  0  0  0  0
  138.6500   73.6210  221.0130 C   0  0  0  0  0  0  0  0  0  0  0  0
  139.8190   73.8600  220.0910 C   0  0  0  0  0  0  0  0  0  0  0  0
  139.5840   73.6620  218.8740 O   0  0  0  0  0  0  0  0  0  0  0  0
  141.0540   74.2730  220.6310 N   0  0  0  0  0  0  0  0  0  0  0  0
  142.0630   73.2410  221.0080 C   0  0  0  0  0  0  0  0  0  0  0  0
  143.2680   73.4450  220.1080 C   0  0  0  0  0  0  0  0  0  0  0  0
  143.7310   74.8580  220.2680 C   0  0  0  0  0  0  0  0  0  0  0  0
  142.6370   75.8570  219.8870 C   0  0  0  0  0  0  0  0  0  0  0  0
  141.4840   75.6190  220.8500 C   0  0  1  0  0  0  0  0  0  0  0  0
  140.4650   76.6800  220.9190 C   0  0  0  0  0  0  0  0  0  0  0  0
  141.0470   78.0690  220.7140 C   0  0  0  0  0  0  0  0  0  0  0  0
  141.8180   78.4560  221.9340 C   0  0  0  0  0  0  0  0  0  0  0  0
  140.7800   78.9990  222.9290 C   0  0  0  0  0  0  0  0  0  0  0  0
  140.4800   80.2880  222.4930 F   0  0  0  0  0  0  0  0  0  0  0  0
  141.2670   79.0530  224.2070 F   0  0  0  0  0  0  0  0  0  0  0  0
  139.5540   78.1450  222.7630 C   0  0  0  0  0  0  0  0  0  0  0  0
  139.9040   76.7250  222.3520 C   0  0  0  0  0  0  0  0  0  0  0  0
  139.8320   71.1710  223.6700 C   0  0  0  0  0  0  0  0  0  0  0  0
  140.6860   71.8840  224.4860 C   0  0  0  0  0  0  0  0  0  0  0  0
  141.1280   71.4150  225.7070 C   0  0  0  0  0  0  0  0  0  0  0  0
  140.6760   70.1640  226.1070 C   0  0  0  0  0  0  0  0  0  0  0  0
  141.0790   69.6310  227.3190 C   0  0  0  0  0  0  0  0  0  0  0  0
  140.5990   68.3740  227.6760 C   0  0  0  0  0  0  0  0  0  0  0  0
  139.7450   67.6640  226.8580 C   0  0  0  0  0  0  0  0  0  0  0  0
  139.3380   68.1920  225.6420 C   0  0  0  0  0  0  0  0  0  0  0  0
  139.8210   69.4400  225.3010 C   0  0  0  0  0  0  0  0  0  0  0  0
  139.4340   69.9640  224.1230 N   0  0  0  0  0  0  0  0  0  0  0  0
  139.2120   73.7230  223.1190 H   0  0  0  0  0  0  0  0  0  0  0  0
  137.9583   72.9076  220.5412 H   0  0  0  0  0  0  0  0  0  0  0  0
  138.1435   74.5800  221.1969 H   0  0  0  0  0  0  0  0  0  0  0  0
  142.3538   73.3648  222.0616 H   0  0  0  0  0  0  0  0  0  0  0  0
  141.6511   72.2282  220.8870 H   0  0  0  0  0  0  0  0  0  0  0  0
  144.0725   72.7535  220.3989 H   0  0  0  0  0  0  0  0  0  0  0  0
  142.9996   73.2474  219.0597 H   0  0  0  0  0  0  0  0  0  0  0  0
  144.0154   75.0235  221.3176 H   0  0  0  0  0  0  0  0  0  0  0  0
  144.5891   75.0162  219.5982 H   0  0  0  0  0  0  0  0  0  0  0  0
  143.0103   76.8868  219.9876 H   0  0  0  0  0  0  0  0  0  0  0  0
  142.3190   75.7212  218.8428 H   0  0  0  0  0  0  0  0  0  0  0  0
  141.8155   75.7100  221.8949 H   0  0  0  0  0  0  0  0  0  0  0  0
  139.7250   76.4481  220.1388 H   0  0  0  0  0  0  0  0  0  0  0  0
  141.7159   78.0638  219.8408 H   0  0  0  0  0  0  0  0  0  0  0  0
  140.2354   78.7912  220.5415 H   0  0  0  0  0  0  0  0  0  0  0  0
  142.3321   77.5801  222.3564 H   0  0  0  0  0  0  0  0  0  0  0  0
  142.5903   79.2050  221.7048 H   0  0  0  0  0  0  0  0  0  0  0  0
  139.0097   78.1147  223.7184 H   0  0  0  0  0  0  0  0  0  0  0  0
  138.9356   78.5873  221.9680 H   0  0  0  0  0  0  0  0  0  0  0  0
  140.6596   76.3272  223.0454 H   0  0  0  0  0  0  0  0  0  0  0  0
  138.9874   76.1178  222.3854 H   0  0  0  0  0  0  0  0  0  0  0  0
  141.0309   72.8723  224.1480 H   0  0  0  0  0  0  0  0  0  0  0  0
  141.8091   72.0068  226.3362 H   0  0  0  0  0  0  0  0  0  0  0  0
  141.7597   70.1853  227.9819 H   0  0  0  0  0  0  0  0  0  0  0  0
  140.9090   67.9353  228.6359 H   0  0  0  0  0  0  0  0  0  0  0  0
  139.3847   66.6733  227.1720 H   0  0  0  0  0  0  0  0  0  0  0  0
  138.6584   67.6395  224.9765 H   0  0  0  0  0  0  0  0  0  0  0  0
  1  2  2  0
  2  3  1  0
  3  4  1  0
  4  5  1  0
  5  6  2  0
  5  7  1  0
  7  8  1  0
  8  9  1  0
  9 10  1  0
 10 11  1  0
 11 12  1  0
 12 13  1  0
 13 14  1  0
 14 15  1  0
 15 16  1  0
 16 17  1  0
 16 18  1  0
 16 19  1  0
 19 20  1  0
  2 21  1  0
 21 22  2  0
 22 23  1  0
 23 24  2  0
 24 25  1  0
 25 26  2  0
 26 27  1  0
 27 28  2  0
 28 29  1  0
 29 30  2  0
 12  7  1  0
 20 13  1  0
 30 21  1  0
 29 24  1  0
  3 31  1  0
  4 32  1  0
  4 33  1  0
  8 34  1  0
  8 35  1  0
  9 36  1  0
  9 37  1  0
 10 38  1  0
 10 39  1  0
 11 40  1  0
 11 41  1  0
 12 42  1  1
 13 43  1  0
 14 44  1  0
 14 45  1  0
 15 46  1  0
 15 47  1  0
 19 48  1  0
 19 49  1  0
 20 50  1  0
 20 51  1  0
 22 52  1  0
 23 53  1  0
 25 54  1  0
 26 55  1  0
 27 56  1  0
 28 57  1  0
M  END
>  <smiles>  (75) 
O=C(NCC(=O)N1CCCCC1C1CCC(F)(F)CC1)c1ccc2ccccc2n1

>  <score_type>  (75) 
oracle

>  <origin>  (75) 
autodockgpu

>  <m_score__min__energy>  (75) 
-9.5700000000000003

>  <m_primary>  (75) 
energy

>  <rmsd>  (75) 
3.1836105340584155

>  <m_score__min__rmsd>  (75) 
3.1836105340584155

>  <meeko>  (75) 
{"free_energy": -7.9, "intermolecular_energy": -9.39, "internal_energy": -1.71, "cluster_size": 41, "cluster_id": 1, "rank_in_cluster": 41}

>  <energy>  (75) 
-9.39

>  <cluster_rmsd>  (75) 
1.42

>  <cluster>  (75) 
1

$$$$

     RDKit          3D

 57 60  0  0  0  0  0  0  0  0999 V2000
  139.9050   71.1040  221.2480 O   0  0  0  0  0  0  0  0  0  0  0  0
  139.8260   71.7910  222.3050 C   0  0  0  0  0  0  0  0  0  0  0  0
  139.6710   73.1960  222.3220 N   0  0  0  0  0  0  0  0  0  0  0  0
  139.5970   73.9050  221.0590 C   0  0  0  0  0  0  0  0  0  0  0  0
  140.5210   75.0970  221.0620 C   0  0  0  0  0  0  0  0  0  0  0  0
  140.5080   75.7770  222.1160 O   0  0  0  0  0  0  0  0  0  0  0  0
  141.3090   75.3640  219.9230 N   0  0  0  0  0  0  0  0  0  0  0  0
  140.7220   76.1550  218.8020 C   0  0  0  0  0  0  0  0  0  0  0  0
  141.5160   77.4440  218.7010 C   0  0  0  0  0  0  0  0  0  0  0  0
  142.9570   77.0860  218.5240 C   0  0  0  0  0  0  0  0  0  0  0  0
  143.4810   76.2570  219.6980 C   0  0  0  0  0  0  0  0  0  0  0  0
  142.6680   74.9720  219.7130 C   0  0  1  0  0  0  0  0  0  0  0  0
  143.2130   73.8670  220.5180 C   0  0  0  0  0  0  0  0  0  0  0  0
  144.7330   73.8400  220.5290 C   0  0  0  0  0  0  0  0  0  0  0  0
  145.2180   73.3710  219.1960 C   0  0  0  0  0  0  0  0  0  0  0  0
  145.1550   71.8360  219.2460 C   0  0  0  0  0  0  0  0  0  0  0  0
  146.2650   71.4380  219.9880 F   0  0  0  0  0  0  0  0  0  0  0  0
  145.2170   71.2740  217.9990 F   0  0  0  0  0  0  0  0  0  0  0  0
  143.9170   71.4930  220.0250 C   0  0  0  0  0  0  0  0  0  0  0  0
  142.8270   72.5370  219.8470 C   0  0  0  0  0  0  0  0  0  0  0  0
  139.8990   71.0920  223.6010 C   0  0  0  0  0  0  0  0  0  0  0  0
  139.4990   69.7790  223.7420 C   0  0  0  0  0  0  0  0  0  0  0  0
  139.5580   69.1000  224.9430 C   0  0  0  0  0  0  0  0  0  0  0  0
  140.0440   69.7960  226.0430 C   0  0  0  0  0  0  0  0  0  0  0  0
  140.1300   69.1780  227.2780 C   0  0  0  0  0  0  0  0  0  0  0  0
  140.6240   69.9160  228.3490 C   0  0  0  0  0  0  0  0  0  0  0  0
  141.0230   71.2300  228.2030 C   0  0  0  0  0  0  0  0  0  0  0  0
  140.9390   71.8550  226.9680 C   0  0  0  0  0  0  0  0  0  0  0  0
  140.4470   71.1100  225.9140 C   0  0  0  0  0  0  0  0  0  0  0  0
  140.3610   71.7040  224.7100 N   0  0  0  0  0  0  0  0  0  0  0  0
  139.6080   73.7350  223.2350 H   0  0  0  0  0  0  0  0  0  0  0  0
  139.8881   73.2245  220.2453 H   0  0  0  0  0  0  0  0  0  0  0  0
  138.5655   74.2574  220.9111 H   0  0  0  0  0  0  0  0  0  0  0  0
  140.7985   75.5901  217.8612 H   0  0  0  0  0  0  0  0  0  0  0  0
  139.6579   76.3643  218.9861 H   0  0  0  0  0  0  0  0  0  0  0  0
  141.1681   78.0301  217.8376 H   0  0  0  0  0  0  0  0  0  0  0  0
  141.3811   78.0483  219.6102 H   0  0  0  0  0  0  0  0  0  0  0  0
  143.0686   76.5032  217.5978 H   0  0  0  0  0  0  0  0  0  0  0  0
  143.5390   78.0181  218.4749 H   0  0  0  0  0  0  0  0  0  0  0  0
  144.5482   76.0304  219.5573 H   0  0  0  0  0  0  0  0  0  0  0  0
  143.3813   76.8031  220.6477 H   0  0  0  0  0  0  0  0  0  0  0  0
  142.7323   74.4513  218.7462 H   0  0  0  0  0  0  0  0  0  0  0  0
  142.8181   74.0038  221.5355 H   0  0  0  0  0  0  0  0  0  0  0  0
  145.1189   74.8507  220.7277 H   0  0  0  0  0  0  0  0  0  0  0  0
  145.0881   73.1583  221.3159 H   0  0  0  0  0  0  0  0  0  0  0  0
  144.5694   73.7554  218.3951 H   0  0  0  0  0  0  0  0  0  0  0  0
  146.2369   73.7286  218.9863 H   0  0  0  0  0  0  0  0  0  0  0  0
  143.5374   70.5203  219.6790 H   0  0  0  0  0  0  0  0  0  0  0  0
  144.1844   71.4583  221.0914 H   0  0  0  0  0  0  0  0  0  0  0  0
  142.6687   72.7103  218.7723 H   0  0  0  0  0  0  0  0  0  0  0  0
  141.9070   72.1631  220.3201 H   0  0  0  0  0  0  0  0  0  0  0  0
  139.1157   69.2491  222.8576 H   0  0  0  0  0  0  0  0  0  0  0  0
  139.2338   68.0521  225.0254 H   0  0  0  0  0  0  0  0  0  0  0  0
  139.8164   68.1319  227.4094 H   0  0  0  0  0  0  0  0  0  0  0  0
  140.6987   69.4403  229.3380 H   0  0  0  0  0  0  0  0  0  0  0  0
  141.4096   71.7839  229.0712 H   0  0  0  0  0  0  0  0  0  0  0  0
  141.2513   72.9011  226.8332 H   0  0  0  0  0  0  0  0  0  0  0  0
  1  2  2  0
  2  3  1  0
  3  4  1  0
  4  5  1  0
  5  6  2  0
  5  7  1  0
  7  8  1  0
  8  9  1  0
  9 10  1  0
 10 11  1  0
 11 12  1  0
 12 13  1  0
 13 14  1  0
 14 15  1  0
 15 16  1  0
 16 17  1  0
 16 18  1  0
 16 19  1  0
 19 20  1  0
  2 21  1  0
 21 22  2  0
 22 23  1  0
 23 24  2  0
 24 25  1  0
 25 26  2  0
 26 27  1  0
 27 28  2  0
 28 29  1  0
 29 30  2  0
 12  7  1  0
 20 13  1  0
 30 21  1  0
 29 24  1  0
  3 31  1  0
  4 32  1  0
  4 33  1  0
  8 34  1  0
  8 35  1  0
  9 36  1  0
  9 37  1  0
 10 38  1  0
 10 39  1  0
 11 40  1  0
 11 41  1  0
 12 42  1  6
 13 43  1  0
 14 44  1  0
 14 45  1  0
 15 46  1  0
 15 47  1  0
 19 48  1  0
 19 49  1  0
 20 50  1  0
 20 51  1  0
 22 52  1  0
 23 53  1  0
 25 54  1  0
 26 55  1  0
 27 56  1  0
 28 57  1  0
M  END
>  <smiles>  (76) 
O=C(NCC(=O)N1CCCCC1C1CCC(F)(F)CC1)c1ccc2ccccc2n1

>  <score_type>  (76) 
oracle

>  <origin>  (76) 
autodockgpu

>  <m_score__min__energy>  (76) 
-9.5700000000000003

>  <m_primary>  (76) 
energy

>  <rmsd>  (76) 
1.9158397136473224

>  <m_score__min__rmsd>  (76) 
1.9158397136473224

>  <meeko>  (76) 
{"free_energy": -8.43, "intermolecular_energy": -9.93, "internal_energy": -2.08, "cluster_size": 6, "cluster_id": 2, "rank_in_cluster": 6}

>  <energy>  (76) 
-9.36

>  <cluster_rmsd>  (76) 
0.28

>  <cluster>  (76) 
1

$$$$

     RDKit          3D

 57 60  0  0  0  0  0  0  0  0999 V2000
  141.1490   71.5060  221.4470 O   0  0  0  0  0  0  0  0  0  0  0  0
  140.5310   72.0790  222.3870 C   0  0  0  0  0  0  0  0  0  0  0  0
  140.0540   73.4090  222.3200 N   0  0  0  0  0  0  0  0  0  0  0  0
  140.2790   74.1710  221.1090 C   0  0  0  0  0  0  0  0  0  0  0  0
  140.4710   75.6330  221.4260 C   0  0  0  0  0  0  0  0  0  0  0  0
  139.6650   76.1050  222.2640 O   0  0  0  0  0  0  0  0  0  0  0  0
  141.5030   76.3510  220.7860 N   0  0  0  0  0  0  0  0  0  0  0  0
  142.5870   75.5990  220.0900 C   0  0  0  0  0  0  0  0  0  0  0  0
  142.4890   75.9370  218.6130 C   0  0  0  0  0  0  0  0  0  0  0  0
  142.5720   77.4230  218.4730 C   0  0  0  0  0  0  0  0  0  0  0  0
  141.4440   78.1250  219.2310 C   0  0  0  0  0  0  0  0  0  0  0  0
  141.6290   77.7730  220.6990 C   0  0  1  0  0  0  0  0  0  0  0  0
  140.8920   78.6040  221.6650 C   0  0  0  0  0  0  0  0  0  0  0  0
  141.1200   80.0920  221.4560 C   0  0  0  0  0  0  0  0  0  0  0  0
  142.5000   80.4390  221.9090 C   0  0  0  0  0  0  0  0  0  0  0  0
  142.4030   80.6320  223.4310 C   0  0  0  0  0  0  0  0  0  0  0  0
  141.8340   81.8910  223.6150 F   0  0  0  0  0  0  0  0  0  0  0  0
  143.6300   80.5950  224.0370 F   0  0  0  0  0  0  0  0  0  0  0  0
  141.4310   79.5970  223.9230 C   0  0  0  0  0  0  0  0  0  0  0  0
  141.4620   78.3400  223.0710 C   0  0  0  0  0  0  0  0  0  0  0  0
  140.2900   71.3230  223.6290 C   0  0  0  0  0  0  0  0  0  0  0  0
  139.6470   70.1030  223.6250 C   0  0  0  0  0  0  0  0  0  0  0  0
  139.4090   69.3730  224.7730 C   0  0  0  0  0  0  0  0  0  0  0  0
  139.8470   69.9190  225.9740 C   0  0  0  0  0  0  0  0  0  0  0  0
  139.6420   69.2430  227.1630 C   0  0  0  0  0  0  0  0  0  0  0  0
  140.1000   69.8300  228.3390 C   0  0  0  0  0  0  0  0  0  0  0  0
  140.7430   71.0510  228.3390 C   0  0  0  0  0  0  0  0  0  0  0  0
  140.9510   71.7330  227.1500 C   0  0  0  0  0  0  0  0  0  0  0  0
  140.4920   71.1390  225.9910 C   0  0  0  0  0  0  0  0  0  0  0  0
  140.6880   71.7910  224.8300 N   0  0  0  0  0  0  0  0  0  0  0  0
  139.5380   73.8520  223.1360 H   0  0  0  0  0  0  0  0  0  0  0  0
  141.1792   73.7898  220.6047 H   0  0  0  0  0  0  0  0  0  0  0  0
  139.4006   74.0635  220.4556 H   0  0  0  0  0  0  0  0  0  0  0  0
  143.5687   75.9031  220.4821 H   0  0  0  0  0  0  0  0  0  0  0  0
  142.4778   74.5164  220.2515 H   0  0  0  0  0  0  0  0  0  0  0  0
  143.3176   75.4636  218.0659 H   0  0  0  0  0  0  0  0  0  0  0  0
  141.5400   75.5664  218.1982 H   0  0  0  0  0  0  0  0  0  0  0  0
  143.5378   77.7656  218.8729 H   0  0  0  0  0  0  0  0  0  0  0  0
  142.4768   77.6734  217.4061 H   0  0  0  0  0  0  0  0  0  0  0  0
  141.5107   79.2138  219.0895 H   0  0  0  0  0  0  0  0  0  0  0  0
  140.4576   77.8038  218.8652 H   0  0  0  0  0  0  0  0  0  0  0  0
  142.6332   78.0533  221.0498 H   0  0  0  0  0  0  0  0  0  0  0  0
  139.8288   78.3508  221.5408 H   0  0  0  0  0  0  0  0  0  0  0  0
  141.0094   80.3361  220.3891 H   0  0  0  0  0  0  0  0  0  0  0  0
  140.3824   80.6667  222.0353 H   0  0  0  0  0  0  0  0  0  0  0  0
  143.1984   79.6236  221.6697 H   0  0  0  0  0  0  0  0  0  0  0  0
  142.8757   81.3436  221.4085 H   0  0  0  0  0  0  0  0  0  0  0  0
  141.6889   79.3310  224.9587 H   0  0  0  0  0  0  0  0  0  0  0  0
  140.4191   80.0242  223.8633 H   0  0  0  0  0  0  0  0  0  0  0  0
  142.5026   77.9961  222.9772 H   0  0  0  0  0  0  0  0  0  0  0  0
  140.8419   77.5738  223.5592 H   0  0  0  0  0  0  0  0  0  0  0  0
  139.3079   69.6921  222.6626 H   0  0  0  0  0  0  0  0  0  0  0  0
  138.8949   68.4012  224.7384 H   0  0  0  0  0  0  0  0  0  0  0  0
  139.1314   68.2688  227.1788 H   0  0  0  0  0  0  0  0  0  0  0  0
  139.9453   69.3066  229.2940 H   0  0  0  0  0  0  0  0  0  0  0  0
  141.0923   71.4854  229.2873 H   0  0  0  0  0  0  0  0  0  0  0  0
  141.4609   72.7075  227.1307 H   0  0  0  0  0  0  0  0  0  0  0  0
  1  2  2  0
  2  3  1  0
  3  4  1  0
  4  5  1  0
  5  6  2  0
  5  7  1  0
  7  8  1  0
  8  9  1  0
  9 10  1  0
 10 11  1  0
 11 12  1  0
 12 13  1  0
 13 14  1  0
 14 15  1  0
 15 16  1  0
 16 17  1  0
 16 18  1  0
 16 19  1  0
 19 20  1  0
  2 21  1  0
 21 22  2  0
 22 23  1  0
 23 24  2  0
 24 25  1  0
 25 26  2  0
 26 27  1  0
 27 28  2  0
 28 29  1  0
 29 30  2  0
 12  7  1  0
 20 13  1  0
 30 21  1  0
 29 24  1  0
  3 31  1  0
  4 32  1  0
  4 33  1  0
  8 34  1  0
  8 35  1  0
  9 36  1  0
  9 37  1  0
 10 38  1  0
 10 39  1  0
 11 40  1  0
 11 41  1  0
 12 42  1  1
 13 43  1  0
 14 44  1  0
 14 45  1  0
 15 46  1  0
 15 47  1  0
 19 48  1  0
 19 49  1  0
 20 50  1  0
 20 51  1  0
 22 52  1  0
 23 53  1  0
 25 54  1  0
 26 55  1  0
 27 56  1  0
 28 57  1  0
M  END
>  <smiles>  (77) 
O=C(NCC(=O)N1CCCCC1C1CCC(F)(F)CC1)c1ccc2ccccc2n1

>  <score_type>  (77) 
oracle

>  <origin>  (77) 
autodockgpu

>  <m_score__min__energy>  (77) 
-9.5700000000000003

>  <m_primary>  (77) 
energy

>  <rmsd>  (77) 
2.0769862549778737

>  <m_score__min__rmsd>  (77) 
2.0769862549778737

>  <meeko>  (77) 
{"free_energy": -9.54, "intermolecular_energy": -11.04, "internal_energy": -1.66, "cluster_size": 41, "cluster_id": 1, "rank_in_cluster": 10}

>  <energy>  (77) 
-9.34

>  <cluster_rmsd>  (77) 
0.27

>  <cluster>  (77) 
1

$$$$

     RDKit          3D

 57 60  0  0  0  0  0  0  0  0999 V2000
  140.1170   71.3530  221.2610 O   0  0  0  0  0  0  0  0  0  0  0  0
  139.8400   71.9920  222.3150 C   0  0  0  0  0  0  0  0  0  0  0  0
  139.4510   73.3520  222.3310 N   0  0  0  0  0  0  0  0  0  0  0  0
  139.3620   74.0680  221.0750 C   0  0  0  0  0  0  0  0  0  0  0  0
  139.6870   75.5280  221.2680 C   0  0  0  0  0  0  0  0  0  0  0  0
  138.7160   76.2480  221.6070 O   0  0  0  0  0  0  0  0  0  0  0  0
  141.0090   75.9770  221.0620 N   0  0  0  0  0  0  0  0  0  0  0  0
  142.0700   74.9810  220.7360 C   0  0  0  0  0  0  0  0  0  0  0  0
  142.5670   75.3000  219.3380 C   0  0  0  0  0  0  0  0  0  0  0  0
  143.0210   76.7250  219.3220 C   0  0  0  0  0  0  0  0  0  0  0  0
  141.8860   77.6830  219.6890 C   0  0  0  0  0  0  0  0  0  0  0  0
  141.4680   77.3300  221.1080 C   0  0  1  0  0  0  0  0  0  0  0  0
  140.6470   78.3280  221.8120 C   0  0  0  0  0  0  0  0  0  0  0  0
  140.8820   79.7430  221.3090 C   0  0  0  0  0  0  0  0  0  0  0  0
  142.2160   80.2120  221.7910 C   0  0  0  0  0  0  0  0  0  0  0  0
  141.9880   80.7200  223.2230 C   0  0  0  0  0  0  0  0  0  0  0  0
  141.3980   81.9750  223.0870 F   0  0  0  0  0  0  0  0  0  0  0  0
  143.1590   80.8420  223.9220 F   0  0  0  0  0  0  0  0  0  0  0  0
  140.9840   79.7890  223.8430 C   0  0  0  0  0  0  0  0  0  0  0  0
  141.0960   78.3820  223.2830 C   0  0  0  0  0  0  0  0  0  0  0  0
  139.9240   71.2850  223.6050 C   0  0  0  0  0  0  0  0  0  0  0  0
  139.5350   69.9680  223.7390 C   0  0  0  0  0  0  0  0  0  0  0  0
  139.6030   69.2810  224.9350 C   0  0  0  0  0  0  0  0  0  0  0  0
  140.0890   69.9730  226.0370 C   0  0  0  0  0  0  0  0  0  0  0  0
  140.1850   69.3470  227.2680 C   0  0  0  0  0  0  0  0  0  0  0  0
  140.6780   70.0820  228.3420 C   0  0  0  0  0  0  0  0  0  0  0  0
  141.0650   71.3990  228.2030 C   0  0  0  0  0  0  0  0  0  0  0  0
  140.9710   72.0320  226.9730 C   0  0  0  0  0  0  0  0  0  0  0  0
  140.4810   71.2910  225.9160 C   0  0  0  0  0  0  0  0  0  0  0  0
  140.3850   71.8930  224.7160 N   0  0  0  0  0  0  0  0  0  0  0  0
  139.2260   73.8510  223.2420 H   0  0  0  0  0  0  0  0  0  0  0  0
  140.0742   73.6313  220.3594 H   0  0  0  0  0  0  0  0  0  0  0  0
  138.3344   73.9827  220.6920 H   0  0  0  0  0  0  0  0  0  0  0  0
  142.8965   75.0603  221.4575 H   0  0  0  0  0  0  0  0  0  0  0  0
  141.6737   73.9561  220.7863 H   0  0  0  0  0  0  0  0  0  0  0  0
  143.4068   74.6379  219.0804 H   0  0  0  0  0  0  0  0  0  0  0  0
  141.7631   75.1471  218.6029 H   0  0  0  0  0  0  0  0  0  0  0  0
  143.8392   76.8469  220.0470 H   0  0  0  0  0  0  0  0  0  0  0  0
  143.3587   76.9666  218.3034 H   0  0  0  0  0  0  0  0  0  0  0  0
  142.2376   78.7243  219.6439 H   0  0  0  0  0  0  0  0  0  0  0  0
  141.0423   77.5882  218.9895 H   0  0  0  0  0  0  0  0  0  0  0  0
  142.3236   77.3813  221.7975 H   0  0  0  0  0  0  0  0  0  0  0  0
  139.5998   78.0279  221.6592 H   0  0  0  0  0  0  0  0  0  0  0  0
  140.8626   79.7520  220.2092 H   0  0  0  0  0  0  0  0  0  0  0  0
  140.0931   80.4094  221.6880 H   0  0  0  0  0  0  0  0  0  0  0  0
  142.9376   79.3818  221.7893 H   0  0  0  0  0  0  0  0  0  0  0  0
  142.6272   80.9996  221.1424 H   0  0  0  0  0  0  0  0  0  0  0  0
  141.1545   79.7542  224.9292 H   0  0  0  0  0  0  0  0  0  0  0  0
  139.9780   80.1691  223.6117 H   0  0  0  0  0  0  0  0  0  0  0  0
  142.1431   78.0519  223.3503 H   0  0  0  0  0  0  0  0  0  0  0  0
  140.4411   77.7215  223.8703 H   0  0  0  0  0  0  0  0  0  0  0  0
  139.1531   69.4410  222.8522 H   0  0  0  0  0  0  0  0  0  0  0  0
  139.2858   68.2305  225.0117 H   0  0  0  0  0  0  0  0  0  0  0  0
  139.8800   68.2976  227.3938 H   0  0  0  0  0  0  0  0  0  0  0  0
  140.7613   69.6004  229.3274 H   0  0  0  0  0  0  0  0  0  0  0  0
  141.4505   71.9502  229.0734 H   0  0  0  0  0  0  0  0  0  0  0  0
  141.2743   73.0815  226.8445 H   0  0  0  0  0  0  0  0  0  0  0  0
  1  2  2  0
  2  3  1  0
  3  4  1  0
  4  5  1  0
  5  6  2  0
  5  7  1  0
  7  8  1  0
  8  9  1  0
  9 10  1  0
 10 11  1  0
 11 12  1  0
 12 13  1  0
 13 14  1  0
 14 15  1  0
 15 16  1  0
 16 17  1  0
 16 18  1  0
 16 19  1  0
 19 20  1  0
  2 21  1  0
 21 22  2  0
 22 23  1  0
 23 24  2  0
 24 25  1  0
 25 26  2  0
 26 27  1  0
 27 28  2  0
 28 29  1  0
 29 30  2  0
 12  7  1  0
 20 13  1  0
 30 21  1  0
 29 24  1  0
  3 31  1  0
  4 32  1  0
  4 33  1  0
  8 34  1  0
  8 35  1  0
  9 36  1  0
  9 37  1  0
 10 38  1  0
 10 39  1  0
 11 40  1  0
 11 41  1  0
 12 42  1  1
 13 43  1  0
 14 44  1  0
 14 45  1  0
 15 46  1  0
 15 47  1  0
 19 48  1  0
 19 49  1  0
 20 50  1  0
 20 51  1  0
 22 52  1  0
 23 53  1  0
 25 54  1  0
 26 55  1  0
 27 56  1  0
 28 57  1  0
M  END
>  <smiles>  (78) 
O=C(NCC(=O)N1CCCCC1C1CCC(F)(F)CC1)c1ccc2ccccc2n1

>  <score_type>  (78) 
oracle

>  <origin>  (78) 
autodockgpu

>  <m_score__min__energy>  (78) 
-9.5700000000000003

>  <m_primary>  (78) 
energy

>  <rmsd>  (78) 
1.9933747532571158

>  <m_score__min__rmsd>  (78) 
1.9933747532571158

>  <meeko>  (78) 
{"free_energy": -9.22, "intermolecular_energy": -10.71, "internal_energy": -1.52, "cluster_size": 41, "cluster_id": 1, "rank_in_cluster": 34}

>  <energy>  (78) 
-9.32

>  <cluster_rmsd>  (78) 
0.29

>  <cluster>  (78) 
1

$$$$

     RDKit          3D

 57 60  0  0  0  0  0  0  0  0999 V2000
  141.5440   72.3160  221.9650 O   0  0  0  0  0  0  0  0  0  0  0  0
  140.4660   72.4110  222.6160 C   0  0  0  0  0  0  0  0  0  0  0  0
  139.4540   73.3550  222.3280 N   0  0  0  0  0  0  0  0  0  0  0  0
  139.6500   74.2760  221.2260 C   0  0  0  0  0  0  0  0  0  0  0  0
  140.1930   75.5930  221.7200 C   0  0  0  0  0  0  0  0  0  0  0  0
  139.5880   76.0790  222.7070 O   0  0  0  0  0  0  0  0  0  0  0  0
  141.3000   76.1750  221.0680 N   0  0  0  0  0  0  0  0  0  0  0  0
  142.3370   75.2870  220.4670 C   0  0  0  0  0  0  0  0  0  0  0  0
  142.3120   75.5210  218.9680 C   0  0  0  0  0  0  0  0  0  0  0  0
  142.5250   76.9820  218.7260 C   0  0  0  0  0  0  0  0  0  0  0  0
  141.4380   77.8280  219.3910 C   0  0  0  0  0  0  0  0  0  0  0  0
  141.5480   77.5710  220.8860 C   0  0  1  0  0  0  0  0  0  0  0  0
  140.8560   78.5290  221.7630 C   0  0  0  0  0  0  0  0  0  0  0  0
  141.1160   79.9750  221.3770 C   0  0  0  0  0  0  0  0  0  0  0  0
  142.5150   80.3340  221.7600 C   0  0  0  0  0  0  0  0  0  0  0  0
  142.4590   80.7050  223.2500 C   0  0  0  0  0  0  0  0  0  0  0  0
  141.9270   81.9920  223.2970 F   0  0  0  0  0  0  0  0  0  0  0  0
  143.6980   80.7030  223.8320 F   0  0  0  0  0  0  0  0  0  0  0  0
  141.4720   79.7610  223.8790 C   0  0  0  0  0  0  0  0  0  0  0  0
  141.4510   78.4130  223.1780 C   0  0  0  0  0  0  0  0  0  0  0  0
  140.2440   71.4860  223.7410 C   0  0  0  0  0  0  0  0  0  0  0  0
  139.5530   70.3020  223.5850 C   0  0  0  0  0  0  0  0  0  0  0  0
  139.3310   69.4170  224.6220 C   0  0  0  0  0  0  0  0  0  0  0  0
  139.8380   69.7610  225.8690 C   0  0  0  0  0  0  0  0  0  0  0  0
  139.6530   68.9220  226.9530 C   0  0  0  0  0  0  0  0  0  0  0  0
  140.1810   69.3100  228.1820 C   0  0  0  0  0  0  0  0  0  0  0  0
  140.8720   70.4950  228.3340 C   0  0  0  0  0  0  0  0  0  0  0  0
  141.0600   71.3410  227.2510 C   0  0  0  0  0  0  0  0  0  0  0  0
  140.5320   70.9430  226.0380 C   0  0  0  0  0  0  0  0  0  0  0  0
  140.7080   71.7540  224.9790 N   0  0  0  0  0  0  0  0  0  0  0  0
  138.5610   73.4000  222.9020 H   0  0  0  0  0  0  0  0  0  0  0  0
  140.3621   73.8374  220.5115 H   0  0  0  0  0  0  0  0  0  0  0  0
  138.6802   74.4546  220.7386 H   0  0  0  0  0  0  0  0  0  0  0  0
  143.3287   75.5379  220.8714 H   0  0  0  0  0  0  0  0  0  0  0  0
  142.1321   74.2320  220.7016 H   0  0  0  0  0  0  0  0  0  0  0  0
  143.1134   74.9418  218.4861 H   0  0  0  0  0  0  0  0  0  0  0  0
  141.3481   75.1998  218.5465 H   0  0  0  0  0  0  0  0  0  0  0  0
  143.5037   77.2726  219.1354 H   0  0  0  0  0  0  0  0  0  0  0  0
  142.4839   77.1603  217.6413 H   0  0  0  0  0  0  0  0  0  0  0  0
  141.6007   78.8943  219.1754 H   0  0  0  0  0  0  0  0  0  0  0  0
  140.4395   77.5628  219.0133 H   0  0  0  0  0  0  0  0  0  0  0  0
  142.5609   77.7926  221.2534 H   0  0  0  0  0  0  0  0  0  0  0  0
  139.7839   78.2937  221.6909 H   0  0  0  0  0  0  0  0  0  0  0  0
  140.9877   80.0962  220.2912 H   0  0  0  0  0  0  0  0  0  0  0  0
  140.4060   80.6335  221.8988 H   0  0  0  0  0  0  0  0  0  0  0  0
  143.1868   79.4771  221.6036 H   0  0  0  0  0  0  0  0  0  0  0  0
  142.9013   81.1641  221.1503 H   0  0  0  0  0  0  0  0  0  0  0  0
  141.7472   79.6093  224.9332 H   0  0  0  0  0  0  0  0  0  0  0  0
  140.4702   80.2067  223.7907 H   0  0  0  0  0  0  0  0  0  0  0  0
  142.4800   78.0312  223.1041 H   0  0  0  0  0  0  0  0  0  0  0  0
  140.8229   77.7260  223.7641 H   0  0  0  0  0  0  0  0  0  0  0  0
  139.1606   70.0512  222.5884 H   0  0  0  0  0  0  0  0  0  0  0  0
  138.7764   68.4797  224.4671 H   0  0  0  0  0  0  0  0  0  0  0  0
  139.1041   67.9746  226.8473 H   0  0  0  0  0  0  0  0  0  0  0  0
  140.0436   68.6546  229.0547 H   0  0  0  0  0  0  0  0  0  0  0  0
  141.2759   70.7701  229.3195 H   0  0  0  0  0  0  0  0  0  0  0  0
  141.6070   72.2898  227.3538 H   0  0  0  0  0  0  0  0  0  0  0  0
  1  2  2  0
  2  3  1  0
  3  4  1  0
  4  5  1  0
  5  6  2  0
  5  7  1  0
  7  8  1  0
  8  9  1  0
  9 10  1  0
 10 11  1  0
 11 12  1  0
 12 13  1  0
 13 14  1  0
 14 15  1  0
 15 16  1  0
 16 17  1  0
 16 18  1  0
 16 19  1  0
 19 20  1  0
  2 21  1  0
 21 22  2  0
 22 23  1  0
 23 24  2  0
 24 25  1  0
 25 26  2  0
 26 27  1  0
 27 28  2  0
 28 29  1  0
 29 30  2  0
 12  7  1  0
 20 13  1  0
 30 21  1  0
 29 24  1  0
  3 31  1  0
  4 32  1  0
  4 33  1  0
  8 34  1  0
  8 35  1  0
  9 36  1  0
  9 37  1  0
 10 38  1  0
 10 39  1  0
 11 40  1  0
 11 41  1  0
 12 42  1  1
 13 43  1  0
 14 44  1  0
 14 45  1  0
 15 46  1  0
 15 47  1  0
 19 48  1  0
 19 49  1  0
 20 50  1  0
 20 51  1  0
 22 52  1  0
 23 53  1  0
 25 54  1  0
 26 55  1  0
 27 56  1  0
 28 57  1  0
M  END
>  <smiles>  (79) 
O=C(NCC(=O)N1CCCCC1C1CCC(F)(F)CC1)c1ccc2ccccc2n1

>  <score_type>  (79) 
oracle

>  <origin>  (79) 
autodockgpu

>  <m_score__min__energy>  (79) 
-9.5700000000000003

>  <m_primary>  (79) 
energy

>  <rmsd>  (79) 
2.0010338508981236

>  <m_score__min__rmsd>  (79) 
2.0010338508981236

>  <meeko>  (79) 
{"free_energy": -9.48, "intermolecular_energy": -10.97, "internal_energy": -1.47, "cluster_size": 41, "cluster_id": 1, "rank_in_cluster": 23}

>  <energy>  (79) 
-9.27

>  <cluster_rmsd>  (79) 
1.46

>  <cluster>  (79) 
1

$$$$

     RDKit          3D

 57 60  0  0  0  0  0  0  0  0999 V2000
  141.3660   72.2490  221.8040 O   0  0  0  0  0  0  0  0  0  0  0  0
  140.3590   72.4090  222.5510 C   0  0  0  0  0  0  0  0  0  0  0  0
  139.3590   73.3830  222.3250 N   0  0  0  0  0  0  0  0  0  0  0  0
  139.4810   74.2560  221.1750 C   0  0  0  0  0  0  0  0  0  0  0  0
  140.1220   75.5650  221.5650 C   0  0  0  0  0  0  0  0  0  0  0  0
  141.3090   75.4770  221.9620 O   0  0  0  0  0  0  0  0  0  0  0  0
  139.3760   76.7580  221.4630 N   0  0  0  0  0  0  0  0  0  0  0  0
  138.1630   76.7850  220.5960 C   0  0  0  0  0  0  0  0  0  0  0  0
  136.9700   77.0260  221.5030 C   0  0  0  0  0  0  0  0  0  0  0  0
  137.2190   78.2880  222.2660 C   0  0  0  0  0  0  0  0  0  0  0  0
  138.4900   78.1940  223.1120 C   0  0  0  0  0  0  0  0  0  0  0  0
  139.6400   77.9900  222.1380 C   0  0  1  0  0  0  0  0  0  0  0  0
  140.9930   78.2250  222.6700 C   0  0  0  0  0  0  0  0  0  0  0  0
  140.9890   79.0670  223.9360 C   0  0  0  0  0  0  0  0  0  0  0  0
  140.6720   80.4820  223.5750 C   0  0  0  0  0  0  0  0  0  0  0  0
  142.0010   81.1050  223.1210 C   0  0  0  0  0  0  0  0  0  0  0  0
  142.7090   81.3750  224.2910 F   0  0  0  0  0  0  0  0  0  0  0  0
  141.8160   82.2680  222.4230 F   0  0  0  0  0  0  0  0  0  0  0  0
  142.7300   80.0310  222.3640 C   0  0  0  0  0  0  0  0  0  0  0  0
  141.7730   79.0840  221.6600 C   0  0  0  0  0  0  0  0  0  0  0  0
  140.2140   71.5320  223.7260 C   0  0  0  0  0  0  0  0  0  0  0  0
  139.5780   70.3100  223.6490 C   0  0  0  0  0  0  0  0  0  0  0  0
  139.4290   69.4690  224.7340 C   0  0  0  0  0  0  0  0  0  0  0  0
  139.9510   69.9000  225.9470 C   0  0  0  0  0  0  0  0  0  0  0  0
  139.8370   69.1090  227.0760 C   0  0  0  0  0  0  0  0  0  0  0  0
  140.3770   69.5830  228.2680 C   0  0  0  0  0  0  0  0  0  0  0  0
  141.0120   70.8060  228.3420 C   0  0  0  0  0  0  0  0  0  0  0  0
  141.1290   71.6040  227.2130 C   0  0  0  0  0  0  0  0  0  0  0  0
  140.5900   71.1200  226.0380 C   0  0  0  0  0  0  0  0  0  0  0  0
  140.6960   71.8850  224.9350 N   0  0  0  0  0  0  0  0  0  0  0  0
  138.5280   73.4820  222.9790 H   0  0  0  0  0  0  0  0  0  0  0  0
  140.1014   73.7633  220.4118 H   0  0  0  0  0  0  0  0  0  0  0  0
  138.4759   74.4591  220.7768 H   0  0  0  0  0  0  0  0  0  0  0  0
  138.2452   77.5961  219.8575 H   0  0  0  0  0  0  0  0  0  0  0  0
  138.0527   75.8375  220.0482 H   0  0  0  0  0  0  0  0  0  0  0  0
  136.0563   77.1286  220.8991 H   0  0  0  0  0  0  0  0  0  0  0  0
  136.8377   76.1806  222.1942 H   0  0  0  0  0  0  0  0  0  0  0  0
  137.3247   79.1202  221.5545 H   0  0  0  0  0  0  0  0  0  0  0  0
  136.3675   78.4545  222.9422 H   0  0  0  0  0  0  0  0  0  0  0  0
  138.6359   79.1223  223.6838 H   0  0  0  0  0  0  0  0  0  0  0  0
  138.4279   77.3669  223.8345 H   0  0  0  0  0  0  0  0  0  0  0  0
  139.6714   78.7944  221.3884 H   0  0  0  0  0  0  0  0  0  0  0  0
  141.4249   77.2319  222.8630 H   0  0  0  0  0  0  0  0  0  0  0  0
  140.2279   78.6840  224.6318 H   0  0  0  0  0  0  0  0  0  0  0  0
  141.9758   79.0178  224.4196 H   0  0  0  0  0  0  0  0  0  0  0  0
  139.9354   80.5134  222.7586 H   0  0  0  0  0  0  0  0  0  0  0  0
  140.2372   81.0292  224.4244 H   0  0  0  0  0  0  0  0  0  0  0  0
  143.3792   80.5040  221.6124 H   0  0  0  0  0  0  0  0  0  0  0  0
  143.3191   79.4458  223.0855 H   0  0  0  0  0  0  0  0  0  0  0  0
  141.0599   79.6726  221.0642 H   0  0  0  0  0  0  0  0  0  0  0  0
  142.3597   78.4140  221.0143 H   0  0  0  0  0  0  0  0  0  0  0  0
  139.1708   69.9909  222.6783 H   0  0  0  0  0  0  0  0  0  0  0  0
  138.9186   68.4990  224.6417 H   0  0  0  0  0  0  0  0  0  0  0  0
  139.3333   68.1320  227.0329 H   0  0  0  0  0  0  0  0  0  0  0  0
  140.2955   68.9664  229.1753 H   0  0  0  0  0  0  0  0  0  0  0  0
  141.4274   71.1499  229.3007 H   0  0  0  0  0  0  0  0  0  0  0  0
  141.6307   72.5821  227.2526 H   0  0  0  0  0  0  0  0  0  0  0  0
  1  2  2  0
  2  3  1  0
  3  4  1  0
  4  5  1  0
  5  6  2  0
  5  7  1  0
  7  8  1  0
  8  9  1  0
  9 10  1  0
 10 11  1  0
 11 12  1  0
 12 13  1  0
 13 14  1  0
 14 15  1  0
 15 16  1  0
 16 17  1  0
 16 18  1  0
 16 19  1  0
 19 20  1  0
  2 21  1  0
 21 22  2  0
 22 23  1  0
 23 24  2  0
 24 25  1  0
 25 26  2  0
 26 27  1  0
 27 28  2  0
 28 29  1  0
 29 30  2  0
 12  7  1  0
 20 13  1  0
 30 21  1  0
 29 24  1  0
  3 31  1  0
  4 32  1  0
  4 33  1  0
  8 34  1  0
  8 35  1  0
  9 36  1  0
  9 37  1  0
 10 38  1  0
 10 39  1  0
 11 40  1  0
 11 41  1  0
 12 42  1  6
 13 43  1  0
 14 44  1  0
 14 45  1  0
 15 46  1  0
 15 47  1  0
 19 48  1  0
 19 49  1  0
 20 50  1  0
 20 51  1  0
 22 52  1  0
 23 53  1  0
 25 54  1  0
 26 55  1  0
 27 56  1  0
 28 57  1  0
M  END
>  <smiles>  (80) 
O=C(NCC(=O)N1CCCCC1C1CCC(F)(F)CC1)c1ccc2ccccc2n1

>  <score_type>  (80) 
oracle

>  <origin>  (80) 
autodockgpu

>  <m_score__min__energy>  (80) 
-9.5700000000000003

>  <m_primary>  (80) 
energy

>  <rmsd>  (80) 
2.93302649165147

>  <m_score__min__rmsd>  (80) 
2.93302649165147

>  <meeko>  (80) 
{"free_energy": -9.25, "intermolecular_energy": -10.74, "internal_energy": -1.28, "cluster_size": 41, "cluster_id": 1, "rank_in_cluster": 32}

>  <energy>  (80) 
-9.27

>  <cluster_rmsd>  (80) 
0.33

>  <cluster>  (80) 
1

$$$$

     RDKit          3D

 57 60  0  0  0  0  0  0  0  0999 V2000
  141.4480   71.8830  221.6580 O   0  0  0  0  0  0  0  0  0  0  0  0
  140.5600   72.2770  222.4660 C   0  0  0  0  0  0  0  0  0  0  0  0
  139.8030   73.4580  222.2890 N   0  0  0  0  0  0  0  0  0  0  0  0
  140.0470   74.2740  221.1160 C   0  0  0  0  0  0  0  0  0  0  0  0
  140.3630   75.6950  221.5120 C   0  0  0  0  0  0  0  0  0  0  0  0
  139.6280   76.1720  222.4100 O   0  0  0  0  0  0  0  0  0  0  0  0
  141.4230   76.3720  220.8720 N   0  0  0  0  0  0  0  0  0  0  0  0
  142.4880   75.5780  220.1950 C   0  0  0  0  0  0  0  0  0  0  0  0
  142.4130   75.9000  218.7130 C   0  0  0  0  0  0  0  0  0  0  0  0
  142.5430   77.3820  218.5560 C   0  0  0  0  0  0  0  0  0  0  0  0
  141.4320   78.1280  219.2950 C   0  0  0  0  0  0  0  0  0  0  0  0
  141.5930   77.7880  220.7690 C   0  0  1  0  0  0  0  0  0  0  0  0
  140.8740   78.6540  221.7190 C   0  0  0  0  0  0  0  0  0  0  0  0
  141.1180   80.1330  221.4670 C   0  0  0  0  0  0  0  0  0  0  0  0
  142.5060   80.4750  221.9000 C   0  0  0  0  0  0  0  0  0  0  0  0
  142.4240   80.7110  223.4160 C   0  0  0  0  0  0  0  0  0  0  0  0
  141.8720   81.9810  223.5710 F   0  0  0  0  0  0  0  0  0  0  0  0
  143.6560   80.6750  224.0130 F   0  0  0  0  0  0  0  0  0  0  0  0
  141.4440   79.7010  223.9440 C   0  0  0  0  0  0  0  0  0  0  0  0
  141.4530   78.4210  223.1260 C   0  0  0  0  0  0  0  0  0  0  0  0
  140.2950   71.4630  223.6660 C   0  0  0  0  0  0  0  0  0  0  0  0
  139.6030   70.2710  223.5980 C   0  0  0  0  0  0  0  0  0  0  0  0
  139.3410   69.4890  224.7050 C   0  0  0  0  0  0  0  0  0  0  0  0
  139.8060   69.9480  225.9310 C   0  0  0  0  0  0  0  0  0  0  0  0
  139.5790   69.2160  227.0830 C   0  0  0  0  0  0  0  0  0  0  0  0
  140.0650   69.7170  228.2870 C   0  0  0  0  0  0  0  0  0  0  0  0
  140.7570   70.9090  228.3500 C   0  0  0  0  0  0  0  0  0  0  0  0
  140.9870   71.6490  227.2000 C   0  0  0  0  0  0  0  0  0  0  0  0
  140.5000   71.1390  226.0120 C   0  0  0  0  0  0  0  0  0  0  0  0
  140.7170   71.8460  224.8880 N   0  0  0  0  0  0  0  0  0  0  0  0
  139.0650   73.7520  222.9940 H   0  0  0  0  0  0  0  0  0  0  0  0
  140.8976   73.8573  220.5567 H   0  0  0  0  0  0  0  0  0  0  0  0
  139.1423   74.2738  220.4903 H   0  0  0  0  0  0  0  0  0  0  0  0
  143.4755   75.8562  220.5918 H   0  0  0  0  0  0  0  0  0  0  0  0
  142.3434   74.5015  220.3690 H   0  0  0  0  0  0  0  0  0  0  0  0
  143.2313   75.3946  218.1791 H   0  0  0  0  0  0  0  0  0  0  0  0
  141.4568   75.5533  218.2940 H   0  0  0  0  0  0  0  0  0  0  0  0
  143.5156   77.6994  218.9601 H   0  0  0  0  0  0  0  0  0  0  0  0
  142.4640   77.6219  217.4854 H   0  0  0  0  0  0  0  0  0  0  0  0
  141.5345   79.2124  219.1413 H   0  0  0  0  0  0  0  0  0  0  0  0
  140.4391   77.8338  218.9241 H   0  0  0  0  0  0  0  0  0  0  0  0
  142.6023   78.0412  221.1257 H   0  0  0  0  0  0  0  0  0  0  0  0
  139.8067   78.4106  221.6114 H   0  0  0  0  0  0  0  0  0  0  0  0
  141.0020   80.3489  220.3947 H   0  0  0  0  0  0  0  0  0  0  0  0
  140.3918   80.7327  222.0354 H   0  0  0  0  0  0  0  0  0  0  0  0
  143.1923   79.6445  221.6780 H   0  0  0  0  0  0  0  0  0  0  0  0
  142.8887   81.3608  221.3720 H   0  0  0  0  0  0  0  0  0  0  0  0
  141.7076   79.4599  224.9844 H   0  0  0  0  0  0  0  0  0  0  0  0
  140.4367   80.1385  223.8811 H   0  0  0  0  0  0  0  0  0  0  0  0
  142.4887   78.0624  223.0327 H   0  0  0  0  0  0  0  0  0  0  0  0
  140.8285   77.6754  223.6400 H   0  0  0  0  0  0  0  0  0  0  0  0
  139.2436   69.9282  222.6165 H   0  0  0  0  0  0  0  0  0  0  0  0
  138.7874   68.5423  224.6199 H   0  0  0  0  0  0  0  0  0  0  0  0
  139.0293   68.2639  227.0481 H   0  0  0  0  0  0  0  0  0  0  0  0
  139.8930   69.1479  229.2125 H   0  0  0  0  0  0  0  0  0  0  0  0
  141.1286   71.2746  229.3186 H   0  0  0  0  0  0  0  0  0  0  0  0
  141.5345   72.6025  227.2323 H   0  0  0  0  0  0  0  0  0  0  0  0
  1  2  2  0
  2  3  1  0
  3  4  1  0
  4  5  1  0
  5  6  2  0
  5  7  1  0
  7  8  1  0
  8  9  1  0
  9 10  1  0
 10 11  1  0
 11 12  1  0
 12 13  1  0
 13 14  1  0
 14 15  1  0
 15 16  1  0
 16 17  1  0
 16 18  1  0
 16 19  1  0
 19 20  1  0
  2 21  1  0
 21 22  2  0
 22 23  1  0
 23 24  2  0
 24 25  1  0
 25 26  2  0
 26 27  1  0
 27 28  2  0
 28 29  1  0
 29 30  2  0
 12  7  1  0
 20 13  1  0
 30 21  1  0
 29 24  1  0
  3 31  1  0
  4 32  1  0
  4 33  1  0
  8 34  1  0
  8 35  1  0
  9 36  1  0
  9 37  1  0
 10 38  1  0
 10 39  1  0
 11 40  1  0
 11 41  1  0
 12 42  1  1
 13 43  1  0
 14 44  1  0
 14 45  1  0
 15 46  1  0
 15 47  1  0
 19 48  1  0
 19 49  1  0
 20 50  1  0
 20 51  1  0
 22 52  1  0
 23 53  1  0
 25 54  1  0
 26 55  1  0
 27 56  1  0
 28 57  1  0
M  END
>  <smiles>  (81) 
O=C(NCC(=O)N1CCCCC1C1CCC(F)(F)CC1)c1ccc2ccccc2n1

>  <score_type>  (81) 
oracle

>  <origin>  (81) 
autodockgpu

>  <m_score__min__energy>  (81) 
-9.5700000000000003

>  <m_primary>  (81) 
energy

>  <rmsd>  (81) 
2.067309782676533

>  <m_score__min__rmsd>  (81) 
2.067309782676533

>  <meeko>  (81) 
{"free_energy": -9.56, "intermolecular_energy": -11.05, "internal_energy": -1.55, "cluster_size": 41, "cluster_id": 1, "rank_in_cluster": 2}

>  <energy>  (81) 
-9.26

>  <cluster_rmsd>  (81) 
1.42

>  <cluster>  (81) 
1

$$$$

     RDKit          3D

 57 60  0  0  0  0  0  0  0  0999 V2000
  141.2620   71.5090  221.4910 O   0  0  0  0  0  0  0  0  0  0  0  0
  140.6000   72.0670  222.4110 C   0  0  0  0  0  0  0  0  0  0  0  0
  140.1160   73.3940  222.3390 N   0  0  0  0  0  0  0  0  0  0  0  0
  140.3870   74.1720  221.1470 C   0  0  0  0  0  0  0  0  0  0  0  0
  140.5910   75.6250  221.4930 C   0  0  0  0  0  0  0  0  0  0  0  0
  139.8370   76.0680  222.3930 O   0  0  0  0  0  0  0  0  0  0  0  0
  141.5770   76.3680  220.8100 N   0  0  0  0  0  0  0  0  0  0  0  0
  142.6650   75.6430  220.0920 C   0  0  0  0  0  0  0  0  0  0  0  0
  142.5090   75.9520  218.6140 C   0  0  0  0  0  0  0  0  0  0  0  0
  142.5350   77.4380  218.4480 C   0  0  0  0  0  0  0  0  0  0  0  0
  141.4070   78.1130  219.2310 C   0  0  0  0  0  0  0  0  0  0  0  0
  141.6500   77.7920  220.6970 C   0  0  1  0  0  0  0  0  0  0  0  0
  140.9140   78.6120  221.6740 C   0  0  0  0  0  0  0  0  0  0  0  0
  141.1560   80.1020  221.4910 C   0  0  0  0  0  0  0  0  0  0  0  0
  142.5360   80.4290  221.9580 C   0  0  0  0  0  0  0  0  0  0  0  0
  142.4320   80.5970  223.4830 C   0  0  0  0  0  0  0  0  0  0  0  0
  141.8730   81.8570  223.6850 F   0  0  0  0  0  0  0  0  0  0  0  0
  143.6550   80.5380  224.0950 F   0  0  0  0  0  0  0  0  0  0  0  0
  141.4480   79.5620  223.9510 C   0  0  0  0  0  0  0  0  0  0  0  0
  141.4730   78.3200  223.0780 C   0  0  0  0  0  0  0  0  0  0  0  0
  140.3130   71.2950  223.6330 C   0  0  0  0  0  0  0  0  0  0  0  0
  139.6220   70.1010  223.5940 C   0  0  0  0  0  0  0  0  0  0  0  0
  139.3400   69.3580  224.7230 C   0  0  0  0  0  0  0  0  0  0  0  0
  139.7830   69.8600  225.9400 C   0  0  0  0  0  0  0  0  0  0  0  0
  139.5350   69.1670  227.1130 C   0  0  0  0  0  0  0  0  0  0  0  0
  139.9990   69.7100  228.3070 C   0  0  0  0  0  0  0  0  0  0  0  0
  140.6890   70.9050  228.3420 C   0  0  0  0  0  0  0  0  0  0  0  0
  140.9400   71.6040  227.1700 C   0  0  0  0  0  0  0  0  0  0  0  0
  140.4750   71.0530  225.9930 C   0  0  0  0  0  0  0  0  0  0  0  0
  140.7120   71.7210  224.8490 N   0  0  0  0  0  0  0  0  0  0  0  0
  139.5620   73.8240  223.1370 H   0  0  0  0  0  0  0  0  0  0  0  0
  141.2957   73.7853  220.6625 H   0  0  0  0  0  0  0  0  0  0  0  0
  139.5263   74.0882  220.4672 H   0  0  0  0  0  0  0  0  0  0  0  0
  143.6469   75.9882  220.4479 H   0  0  0  0  0  0  0  0  0  0  0  0
  142.5997   74.5601  220.2741 H   0  0  0  0  0  0  0  0  0  0  0  0
  143.3363   75.4985  218.0484 H   0  0  0  0  0  0  0  0  0  0  0  0
  141.5613   75.5414  218.2354 H   0  0  0  0  0  0  0  0  0  0  0  0
  143.5002   77.8208  218.8112 H   0  0  0  0  0  0  0  0  0  0  0  0
  142.3975   77.6670  217.3809 H   0  0  0  0  0  0  0  0  0  0  0  0
  141.4309   79.2010  219.0708 H   0  0  0  0  0  0  0  0  0  0  0  0
  140.4215   77.7518  218.9018 H   0  0  0  0  0  0  0  0  0  0  0  0
  142.6541   78.1136  221.0105 H   0  0  0  0  0  0  0  0  0  0  0  0
  139.8495   78.3690  221.5403 H   0  0  0  0  0  0  0  0  0  0  0  0
  141.0541   80.3647  220.4277 H   0  0  0  0  0  0  0  0  0  0  0  0
  140.4197   80.6736  222.0751 H   0  0  0  0  0  0  0  0  0  0  0  0
  143.2287   79.6116  221.7088 H   0  0  0  0  0  0  0  0  0  0  0  0
  142.9223   81.3388  221.4753 H   0  0  0  0  0  0  0  0  0  0  0  0
  141.6972   79.2758  224.9835 H   0  0  0  0  0  0  0  0  0  0  0  0
  140.4403   79.9991  223.8924 H   0  0  0  0  0  0  0  0  0  0  0  0
  142.5112   77.9686  222.9844 H   0  0  0  0  0  0  0  0  0  0  0  0
  140.8431   77.5514  223.5496 H   0  0  0  0  0  0  0  0  0  0  0  0
  139.2803   69.7240  222.6188 H   0  0  0  0  0  0  0  0  0  0  0  0
  138.7878   68.4086  224.6613 H   0  0  0  0  0  0  0  0  0  0  0  0
  138.9864   68.2137  227.1011 H   0  0  0  0  0  0  0  0  0  0  0  0
  139.8109   69.1727  229.2482 H   0  0  0  0  0  0  0  0  0  0  0  0
  141.0417   71.3052  229.3040 H   0  0  0  0  0  0  0  0  0  0  0  0
  141.4872   72.5582  227.1785 H   0  0  0  0  0  0  0  0  0  0  0  0
  1  2  2  0
  2  3  1  0
  3  4  1  0
  4  5  1  0
  5  6  2  0
  5  7  1  0
  7  8  1  0
  8  9  1  0
  9 10  1  0
 10 11  1  0
 11 12  1  0
 12 13  1  0
 13 14  1  0
 14 15  1  0
 15 16  1  0
 16 17  1  0
 16 18  1  0
 16 19  1  0
 19 20  1  0
  2 21  1  0
 21 22  2  0
 22 23  1  0
 23 24  2  0
 24 25  1  0
 25 26  2  0
 26 27  1  0
 27 28  2  0
 28 29  1  0
 29 30  2  0
 12  7  1  0
 20 13  1  0
 30 21  1  0
 29 24  1  0
  3 31  1  0
  4 32  1  0
  4 33  1  0
  8 34  1  0
  8 35  1  0
  9 36  1  0
  9 37  1  0
 10 38  1  0
 10 39  1  0
 11 40  1  0
 11 41  1  0
 12 42  1  1
 13 43  1  0
 14 44  1  0
 14 45  1  0
 15 46  1  0
 15 47  1  0
 19 48  1  0
 19 49  1  0
 20 50  1  0
 20 51  1  0
 22 52  1  0
 23 53  1  0
 25 54  1  0
 26 55  1  0
 27 56  1  0
 28 57  1  0
M  END
>  <smiles>  (82) 
O=C(NCC(=O)N1CCCCC1C1CCC(F)(F)CC1)c1ccc2ccccc2n1

>  <score_type>  (82) 
oracle

>  <origin>  (82) 
autodockgpu

>  <m_score__min__energy>  (82) 
-9.5700000000000003

>  <m_primary>  (82) 
energy

>  <rmsd>  (82) 
2.1068495481148664

>  <m_score__min__rmsd>  (82) 
2.1068495481148664

>  <meeko>  (82) 
{"free_energy": -9.55, "intermolecular_energy": -11.04, "internal_energy": -1.67, "cluster_size": 41, "cluster_id": 1, "rank_in_cluster": 7}

>  <energy>  (82) 
-9.25

>  <cluster_rmsd>  (82) 
1.43

>  <cluster>  (82) 
1

$$$$

     RDKit          3D

 57 60  0  0  0  0  0  0  0  0999 V2000
  141.4510   72.0130  221.7550 O   0  0  0  0  0  0  0  0  0  0  0  0
  140.4900   72.2840  222.5280 C   0  0  0  0  0  0  0  0  0  0  0  0
  139.6050   73.3700  222.3330 N   0  0  0  0  0  0  0  0  0  0  0  0
  139.8010   74.2330  221.1850 C   0  0  0  0  0  0  0  0  0  0  0  0
  140.2370   75.6090  221.6200 C   0  0  0  0  0  0  0  0  0  0  0  0
  139.5300   76.1320  222.5160 O   0  0  0  0  0  0  0  0  0  0  0  0
  141.3650   76.2020  221.0150 N   0  0  0  0  0  0  0  0  0  0  0  0
  142.4190   75.3240  220.4290 C   0  0  0  0  0  0  0  0  0  0  0  0
  142.4420   75.5890  218.9350 C   0  0  0  0  0  0  0  0  0  0  0  0
  142.6640   77.0530  218.7290 C   0  0  0  0  0  0  0  0  0  0  0  0
  141.5580   77.8880  219.3760 C   0  0  0  0  0  0  0  0  0  0  0  0
  141.6200   77.6010  220.8680 C   0  0  1  0  0  0  0  0  0  0  0  0
  140.9010   78.5420  221.7420 C   0  0  0  0  0  0  0  0  0  0  0  0
  141.1630   79.9960  221.3830 C   0  0  0  0  0  0  0  0  0  0  0  0
  142.5500   80.3560  221.8050 C   0  0  0  0  0  0  0  0  0  0  0  0
  142.4550   80.7050  223.2980 C   0  0  0  0  0  0  0  0  0  0  0  0
  141.9150   81.9880  223.3510 F   0  0  0  0  0  0  0  0  0  0  0  0
  143.6810   80.7010  223.9100 F   0  0  0  0  0  0  0  0  0  0  0  0
  141.4590   79.7470  223.8900 C   0  0  0  0  0  0  0  0  0  0  0  0
  141.4630   78.4100  223.1690 C   0  0  0  0  0  0  0  0  0  0  0  0
  140.2720   71.4210  223.7020 C   0  0  0  0  0  0  0  0  0  0  0  0
  139.6070   70.2150  223.6060 C   0  0  0  0  0  0  0  0  0  0  0  0
  139.3900   69.3870  224.6890 C   0  0  0  0  0  0  0  0  0  0  0  0
  139.8720   69.8130  225.9210 C   0  0  0  0  0  0  0  0  0  0  0  0
  139.6900   69.0340  227.0490 C   0  0  0  0  0  0  0  0  0  0  0  0
  140.1930   69.5030  228.2600 C   0  0  0  0  0  0  0  0  0  0  0  0
  140.8570   70.7090  228.3510 C   0  0  0  0  0  0  0  0  0  0  0  0
  141.0420   71.4950  227.2240 C   0  0  0  0  0  0  0  0  0  0  0  0
  140.5400   71.0170  226.0300 C   0  0  0  0  0  0  0  0  0  0  0  0
  140.7130   71.7700  224.9280 N   0  0  0  0  0  0  0  0  0  0  0  0
  138.8080   73.5610  223.0090 H   0  0  0  0  0  0  0  0  0  0  0  0
  140.5741   73.7982  220.5344 H   0  0  0  0  0  0  0  0  0  0  0  0
  138.8486   74.3196  220.6414 H   0  0  0  0  0  0  0  0  0  0  0  0
  143.3978   75.5641  220.8697 H   0  0  0  0  0  0  0  0  0  0  0  0
  142.2049   74.2649  220.6351 H   0  0  0  0  0  0  0  0  0  0  0  0
  143.2577   75.0182  218.4671 H   0  0  0  0  0  0  0  0  0  0  0  0
  141.4913   75.2784  218.4771 H   0  0  0  0  0  0  0  0  0  0  0  0
  143.6298   77.3335  219.1746 H   0  0  0  0  0  0  0  0  0  0  0  0
  142.6569   77.2526  217.6473 H   0  0  0  0  0  0  0  0  0  0  0  0
  141.7293   78.9580  219.1870 H   0  0  0  0  0  0  0  0  0  0  0  0
  140.5716   77.6327  218.9616 H   0  0  0  0  0  0  0  0  0  0  0  0
  142.6213   77.8140  221.2706 H   0  0  0  0  0  0  0  0  0  0  0  0
  139.8325   78.3012  221.6409 H   0  0  0  0  0  0  0  0  0  0  0  0
  141.0605   80.1323  220.2963 H   0  0  0  0  0  0  0  0  0  0  0  0
  140.4371   80.6435  221.8968 H   0  0  0  0  0  0  0  0  0  0  0  0
  143.2299   79.5048  221.6530 H   0  0  0  0  0  0  0  0  0  0  0  0
  142.9472   81.1965  221.2169 H   0  0  0  0  0  0  0  0  0  0  0  0
  141.7101   79.5814  224.9481 H   0  0  0  0  0  0  0  0  0  0  0  0
  140.4569   80.1884  223.7851 H   0  0  0  0  0  0  0  0  0  0  0  0
  142.4959   78.0357  223.1141 H   0  0  0  0  0  0  0  0  0  0  0  0
  140.8250   77.7113  223.7300 H   0  0  0  0  0  0  0  0  0  0  0  0
  139.2327   69.8993  222.6210 H   0  0  0  0  0  0  0  0  0  0  0  0
  138.8580   68.4303  224.5814 H   0  0  0  0  0  0  0  0  0  0  0  0
  139.1625   68.0705  226.9913 H   0  0  0  0  0  0  0  0  0  0  0  0
  140.0574   68.8962  229.1674 H   0  0  0  0  0  0  0  0  0  0  0  0
  141.2420   71.0490  229.3237 H   0  0  0  0  0  0  0  0  0  0  0  0
  141.5673   72.4599  227.2789 H   0  0  0  0  0  0  0  0  0  0  0  0
  1  2  2  0
  2  3  1  0
  3  4  1  0
  4  5  1  0
  5  6  2  0
  5  7  1  0
  7  8  1  0
  8  9  1  0
  9 10  1  0
 10 11  1  0
 11 12  1  0
 12 13  1  0
 13 14  1  0
 14 15  1  0
 15 16  1  0
 16 17  1  0
 16 18  1  0
 16 19  1  0
 19 20  1  0
  2 21  1  0
 21 22  2  0
 22 23  1  0
 23 24  2  0
 24 25  1  0
 25 26  2  0
 26 27  1  0
 27 28  2  0
 28 29  1  0
 29 30  2  0
 12  7  1  0
 20 13  1  0
 30 21  1  0
 29 24  1  0
  3 31  1  0
  4 32  1  0
  4 33  1  0
  8 34  1  0
  8 35  1  0
  9 36  1  0
  9 37  1  0
 10 38  1  0
 10 39  1  0
 11 40  1  0
 11 41  1  0
 12 42  1  1
 13 43  1  0
 14 44  1  0
 14 45  1  0
 15 46  1  0
 15 47  1  0
 19 48  1  0
 19 49  1  0
 20 50  1  0
 20 51  1  0
 22 52  1  0
 23 53  1  0
 25 54  1  0
 26 55  1  0
 27 56  1  0
 28 57  1  0
M  END
>  <smiles>  (83) 
O=C(NCC(=O)N1CCCCC1C1CCC(F)(F)CC1)c1ccc2ccccc2n1

>  <score_type>  (83) 
oracle

>  <origin>  (83) 
autodockgpu

>  <m_score__min__energy>  (83) 
-9.5700000000000003

>  <m_primary>  (83) 
energy

>  <rmsd>  (83) 
2.0278273223123513

>  <m_score__min__rmsd>  (83) 
2.0278273223123513

>  <meeko>  (83) 
{"free_energy": -9.54, "intermolecular_energy": -11.04, "internal_energy": -1.5, "cluster_size": 41, "cluster_id": 1, "rank_in_cluster": 9}

>  <energy>  (83) 
-9.23

>  <cluster_rmsd>  (83) 
1.41

>  <cluster>  (83) 
1

$$$$

     RDKit          3D

 57 60  0  0  0  0  0  0  0  0999 V2000
  141.1470   71.4810  221.4540 O   0  0  0  0  0  0  0  0  0  0  0  0
  140.5330   72.0670  222.3890 C   0  0  0  0  0  0  0  0  0  0  0  0
  140.0780   73.4040  222.3170 N   0  0  0  0  0  0  0  0  0  0  0  0
  140.3230   74.1600  221.1050 C   0  0  0  0  0  0  0  0  0  0  0  0
  140.4870   75.6270  221.4150 C   0  0  0  0  0  0  0  0  0  0  0  0
  139.6570   76.0930  222.2330 O   0  0  0  0  0  0  0  0  0  0  0  0
  141.5210   76.3550  220.7900 N   0  0  0  0  0  0  0  0  0  0  0  0
  142.6020   75.6150  220.0780 C   0  0  0  0  0  0  0  0  0  0  0  0
  142.5050   75.9860  218.6090 C   0  0  0  0  0  0  0  0  0  0  0  0
  142.5920   77.4740  218.5010 C   0  0  0  0  0  0  0  0  0  0  0  0
  141.4670   78.1630  219.2750 C   0  0  0  0  0  0  0  0  0  0  0  0
  141.6510   77.7780  220.7350 C   0  0  1  0  0  0  0  0  0  0  0  0
  140.9170   78.5900  221.7190 C   0  0  0  0  0  0  0  0  0  0  0  0
  141.1380   80.0820  221.5340 C   0  0  0  0  0  0  0  0  0  0  0  0
  142.5200   80.4270  221.9850 C   0  0  0  0  0  0  0  0  0  0  0  0
  142.4310   80.5940  223.5100 C   0  0  0  0  0  0  0  0  0  0  0  0
  141.8590   81.8470  223.7190 F   0  0  0  0  0  0  0  0  0  0  0  0
  143.6620   80.5510  224.1090 F   0  0  0  0  0  0  0  0  0  0  0  0
  141.4650   79.5470  223.9910 C   0  0  0  0  0  0  0  0  0  0  0  0
  141.4960   78.3050  223.1170 C   0  0  0  0  0  0  0  0  0  0  0  0
  140.2730   71.3180  223.6320 C   0  0  0  0  0  0  0  0  0  0  0  0
  139.5930   70.1170  223.6280 C   0  0  0  0  0  0  0  0  0  0  0  0
  139.3360   69.3940  224.7770 C   0  0  0  0  0  0  0  0  0  0  0  0
  139.7940   69.9250  225.9760 C   0  0  0  0  0  0  0  0  0  0  0  0
  139.5720   69.2550  227.1660 C   0  0  0  0  0  0  0  0  0  0  0  0
  140.0500   69.8270  228.3410 C   0  0  0  0  0  0  0  0  0  0  0  0
  140.7290   71.0290  228.3400 C   0  0  0  0  0  0  0  0  0  0  0  0
  140.9550   71.7050  227.1510 C   0  0  0  0  0  0  0  0  0  0  0  0
  140.4760   71.1260  225.9930 C   0  0  0  0  0  0  0  0  0  0  0  0
  140.6880   71.7720  224.8310 N   0  0  0  0  0  0  0  0  0  0  0  0
  139.5650   73.8570  223.1290 H   0  0  0  0  0  0  0  0  0  0  0  0
  141.2407   73.7874  220.6264 H   0  0  0  0  0  0  0  0  0  0  0  0
  139.4629   74.0353  220.4307 H   0  0  0  0  0  0  0  0  0  0  0  0
  143.5848   75.9070  220.4767 H   0  0  0  0  0  0  0  0  0  0  0  0
  142.4893   74.5295  220.2157 H   0  0  0  0  0  0  0  0  0  0  0  0
  143.3323   75.5224  218.0516 H   0  0  0  0  0  0  0  0  0  0  0  0
  141.5548   75.6274  218.1866 H   0  0  0  0  0  0  0  0  0  0  0  0
  143.5592   77.8052  218.9071 H   0  0  0  0  0  0  0  0  0  0  0  0
  142.4962   77.7474  217.4398 H   0  0  0  0  0  0  0  0  0  0  0  0
  141.5376   79.2544  219.1577 H   0  0  0  0  0  0  0  0  0  0  0  0
  140.4793   77.8534  218.9026 H   0  0  0  0  0  0  0  0  0  0  0  0
  142.6558   78.0471  221.0926 H   0  0  0  0  0  0  0  0  0  0  0  0
  139.8541   78.3346  221.5964 H   0  0  0  0  0  0  0  0  0  0  0  0
  141.0202   80.3437  220.4721 H   0  0  0  0  0  0  0  0  0  0  0  0
  140.4016   80.6439  222.1273 H   0  0  0  0  0  0  0  0  0  0  0  0
  143.2202   79.6185  221.7281 H   0  0  0  0  0  0  0  0  0  0  0  0
  142.8894   81.3413  221.4976 H   0  0  0  0  0  0  0  0  0  0  0  0
  141.7301   79.2644  225.0205 H   0  0  0  0  0  0  0  0  0  0  0  0
  140.4511   79.9713  223.9454 H   0  0  0  0  0  0  0  0  0  0  0  0
  142.5375   77.9671  223.0114 H   0  0  0  0  0  0  0  0  0  0  0  0
  140.8814   77.5283  223.5956 H   0  0  0  0  0  0  0  0  0  0  0  0
  139.2395   69.7171  222.6661 H   0  0  0  0  0  0  0  0  0  0  0  0
  138.7919   68.4386  224.7437 H   0  0  0  0  0  0  0  0  0  0  0  0
  139.0325   68.2965  227.1828 H   0  0  0  0  0  0  0  0  0  0  0  0
  139.8824   69.3076  229.2961 H   0  0  0  0  0  0  0  0  0  0  0  0
  141.0927   71.4526  229.2878 H   0  0  0  0  0  0  0  0  0  0  0  0
  141.4940   72.6637  227.1311 H   0  0  0  0  0  0  0  0  0  0  0  0
  1  2  2  0
  2  3  1  0
  3  4  1  0
  4  5  1  0
  5  6  2  0
  5  7  1  0
  7  8  1  0
  8  9  1  0
  9 10  1  0
 10 11  1  0
 11 12  1  0
 12 13  1  0
 13 14  1  0
 14 15  1  0
 15 16  1  0
 16 17  1  0
 16 18  1  0
 16 19  1  0
 19 20  1  0
  2 21  1  0
 21 22  2  0
 22 23  1  0
 23 24  2  0
 24 25  1  0
 25 26  2  0
 26 27  1  0
 27 28  2  0
 28 29  1  0
 29 30  2  0
 12  7  1  0
 20 13  1  0
 30 21  1  0
 29 24  1  0
  3 31  1  0
  4 32  1  0
  4 33  1  0
  8 34  1  0
  8 35  1  0
  9 36  1  0
  9 37  1  0
 10 38  1  0
 10 39  1  0
 11 40  1  0
 11 41  1  0
 12 42  1  1
 13 43  1  0
 14 44  1  0
 14 45  1  0
 15 46  1  0
 15 47  1  0
 19 48  1  0
 19 49  1  0
 20 50  1  0
 20 51  1  0
 22 52  1  0
 23 53  1  0
 25 54  1  0
 26 55  1  0
 27 56  1  0
 28 57  1  0
M  END
>  <smiles>  (84) 
O=C(NCC(=O)N1CCCCC1C1CCC(F)(F)CC1)c1ccc2ccccc2n1

>  <score_type>  (84) 
oracle

>  <origin>  (84) 
autodockgpu

>  <m_score__min__energy>  (84) 
-9.5700000000000003

>  <m_primary>  (84) 
energy

>  <rmsd>  (84) 
2.0931765246152563

>  <m_score__min__rmsd>  (84) 
2.0931765246152563

>  <meeko>  (84) 
{"free_energy": -9.54, "intermolecular_energy": -11.03, "internal_energy": -1.67, "cluster_size": 41, "cluster_id": 1, "rank_in_cluster": 12}

>  <energy>  (84) 
-9.22

>  <cluster_rmsd>  (84) 
0.69

>  <cluster>  (84) 
1

$$$$

     RDKit          3D

 57 60  0  0  0  0  0  0  0  0999 V2000
  141.2890   72.4330  221.9500 O   0  0  0  0  0  0  0  0  0  0  0  0
  140.2190   72.3960  222.6210 C   0  0  0  0  0  0  0  0  0  0  0  0
  139.0890   73.2000  222.3460 N   0  0  0  0  0  0  0  0  0  0  0  0
  139.1450   74.1260  221.2320 C   0  0  0  0  0  0  0  0  0  0  0  0
  139.8230   75.4100  221.6390 C   0  0  0  0  0  0  0  0  0  0  0  0
  140.9970   75.2800  222.0630 O   0  0  0  0  0  0  0  0  0  0  0  0
  139.1230   76.6300  221.5230 N   0  0  0  0  0  0  0  0  0  0  0  0
  137.7210   76.6160  221.0120 C   0  0  0  0  0  0  0  0  0  0  0  0
  136.8290   77.1020  222.1400 C   0  0  0  0  0  0  0  0  0  0  0  0
  137.3230   78.4450  222.5730 C   0  0  0  0  0  0  0  0  0  0  0  0
  138.7710   78.3840  223.0610 C   0  0  0  0  0  0  0  0  0  0  0  0
  139.6050   77.9290  221.8740 C   0  0  1  0  0  0  0  0  0  0  0  0
  141.0590   78.1330  221.9840 C   0  0  0  0  0  0  0  0  0  0  0  0
  141.5120   78.3770  223.4140 C   0  0  0  0  0  0  0  0  0  0  0  0
  141.0900   79.7490  223.8280 C   0  0  0  0  0  0  0  0  0  0  0  0
  142.1690   80.7000  223.2850 C   0  0  0  0  0  0  0  0  0  0  0  0
  143.2500   80.5780  224.1560 F   0  0  0  0  0  0  0  0  0  0  0  0
  141.7480   82.0020  223.2630 F   0  0  0  0  0  0  0  0  0  0  0  0
  142.5750   80.1510  221.9460 C   0  0  0  0  0  0  0  0  0  0  0  0
  141.4270   79.4370  221.2540 C   0  0  0  0  0  0  0  0  0  0  0  0
  140.1390   71.4630  223.7590 C   0  0  0  0  0  0  0  0  0  0  0  0
  139.5850   70.2060  223.6310 C   0  0  0  0  0  0  0  0  0  0  0  0
  139.4970   69.3120  224.6800 C   0  0  0  0  0  0  0  0  0  0  0  0
  139.9980   69.7240  225.9090 C   0  0  0  0  0  0  0  0  0  0  0  0
  139.9430   68.8800  227.0030 C   0  0  0  0  0  0  0  0  0  0  0  0
  140.4580   69.3380  228.2130 C   0  0  0  0  0  0  0  0  0  0  0  0
  141.0110   70.5960  228.3360 C   0  0  0  0  0  0  0  0  0  0  0  0
  141.0690   71.4470  227.2430 C   0  0  0  0  0  0  0  0  0  0  0  0
  140.5550   70.9790  226.0490 C   0  0  0  0  0  0  0  0  0  0  0  0
  140.6050   71.7950  224.9800 N   0  0  0  0  0  0  0  0  0  0  0  0
  138.2090   73.1370  222.9370 H   0  0  0  0  0  0  0  0  0  0  0  0
  139.7093   73.6654  220.4077 H   0  0  0  0  0  0  0  0  0  0  0  0
  138.1182   74.3550  220.9108 H   0  0  0  0  0  0  0  0  0  0  0  0
  137.6293   77.2851  220.1437 H   0  0  0  0  0  0  0  0  0  0  0  0
  137.4312   75.6041  220.6924 H   0  0  0  0  0  0  0  0  0  0  0  0
  135.7904   77.1823  221.7866 H   0  0  0  0  0  0  0  0  0  0  0  0
  136.8574   76.3945  222.9818 H   0  0  0  0  0  0  0  0  0  0  0  0
  137.2626   79.1387  221.7215 H   0  0  0  0  0  0  0  0  0  0  0  0
  136.6940   78.7895  223.4071 H   0  0  0  0  0  0  0  0  0  0  0  0
  139.1007   79.3775  223.3992 H   0  0  0  0  0  0  0  0  0  0  0  0
  138.8767   77.6936  223.9108 H   0  0  0  0  0  0  0  0  0  0  0  0
  139.4610   78.5956  221.0109 H   0  0  0  0  0  0  0  0  0  0  0  0
  141.5288   77.2263  221.5752 H   0  0  0  0  0  0  0  0  0  0  0  0
  141.0509   77.6323  224.0795 H   0  0  0  0  0  0  0  0  0  0  0  0
  142.6065   78.2885  223.4784 H   0  0  0  0  0  0  0  0  0  0  0  0
  140.1092   79.9952  223.3951 H   0  0  0  0  0  0  0  0  0  0  0  0
  140.9911   79.8301  224.9205 H   0  0  0  0  0  0  0  0  0  0  0  0
  142.9127   80.9816  221.3088 H   0  0  0  0  0  0  0  0  0  0  0  0
  143.3820   79.4212  222.1077 H   0  0  0  0  0  0  0  0  0  0  0  0
  140.5492   80.0998  221.2397 H   0  0  0  0  0  0  0  0  0  0  0  0
  141.7410   79.1854  220.2302 H   0  0  0  0  0  0  0  0  0  0  0  0
  139.1955   69.9018  222.6483 H   0  0  0  0  0  0  0  0  0  0  0  0
  139.0492   68.3159  224.5482 H   0  0  0  0  0  0  0  0  0  0  0  0
  139.5045   67.8746  226.9197 H   0  0  0  0  0  0  0  0  0  0  0  0
  140.4230   68.6797  229.0936 H   0  0  0  0  0  0  0  0  0  0  0  0
  141.4083   70.9258  229.3072 H   0  0  0  0  0  0  0  0  0  0  0  0
  141.5062   72.4532  227.3231 H   0  0  0  0  0  0  0  0  0  0  0  0
  1  2  2  0
  2  3  1  0
  3  4  1  0
  4  5  1  0
  5  6  2  0
  5  7  1  0
  7  8  1  0
  8  9  1  0
  9 10  1  0
 10 11  1  0
 11 12  1  0
 12 13  1  0
 13 14  1  0
 14 15  1  0
 15 16  1  0
 16 17  1  0
 16 18  1  0
 16 19  1  0
 19 20  1  0
  2 21  1  0
 21 22  2  0
 22 23  1  0
 23 24  2  0
 24 25  1  0
 25 26  2  0
 26 27  1  0
 27 28  2  0
 28 29  1  0
 29 30  2  0
 12  7  1  0
 20 13  1  0
 30 21  1  0
 29 24  1  0
  3 31  1  0
  4 32  1  0
  4 33  1  0
  8 34  1  0
  8 35  1  0
  9 36  1  0
  9 37  1  0
 10 38  1  0
 10 39  1  0
 11 40  1  0
 11 41  1  0
 12 42  1  6
 13 43  1  0
 14 44  1  0
 14 45  1  0
 15 46  1  0
 15 47  1  0
 19 48  1  0
 19 49  1  0
 20 50  1  0
 20 51  1  0
 22 52  1  0
 23 53  1  0
 25 54  1  0
 26 55  1  0
 27 56  1  0
 28 57  1  0
M  END
>  <smiles>  (85) 
O=C(NCC(=O)N1CCCCC1C1CCC(F)(F)CC1)c1ccc2ccccc2n1

>  <score_type>  (85) 
oracle

>  <origin>  (85) 
autodockgpu

>  <m_score__min__energy>  (85) 
-9.5700000000000003

>  <m_primary>  (85) 
energy

>  <rmsd>  (85) 
2.973330568673966

>  <m_score__min__rmsd>  (85) 
2.973330568673966

>  <meeko>  (85) 
{"free_energy": -9.39, "intermolecular_energy": -10.88, "internal_energy": -0.92, "cluster_size": 41, "cluster_id": 1, "rank_in_cluster": 25}

>  <energy>  (85) 
-9.21

>  <cluster_rmsd>  (85) 
1.47

>  <cluster>  (85) 
1

$$$$

     RDKit          3D

 57 60  0  0  0  0  0  0  0  0999 V2000
  141.2290   71.5240  221.4950 O   0  0  0  0  0  0  0  0  0  0  0  0
  140.5480   72.0720  222.4060 C   0  0  0  0  0  0  0  0  0  0  0  0
  140.0310   73.3850  222.3210 N   0  0  0  0  0  0  0  0  0  0  0  0
  140.2890   74.1610  221.1250 C   0  0  0  0  0  0  0  0  0  0  0  0
  140.4980   75.6150  221.4660 C   0  0  0  0  0  0  0  0  0  0  0  0
  139.7250   76.0710  222.3430 O   0  0  0  0  0  0  0  0  0  0  0  0
  141.5090   76.3440  220.8030 N   0  0  0  0  0  0  0  0  0  0  0  0
  142.5890   75.6020  220.0900 C   0  0  0  0  0  0  0  0  0  0  0  0
  142.4580   75.9330  218.6150 C   0  0  0  0  0  0  0  0  0  0  0  0
  142.5200   77.4200  218.4670 C   0  0  0  0  0  0  0  0  0  0  0  0
  141.3980   78.1110  219.2440 C   0  0  0  0  0  0  0  0  0  0  0  0
  141.6150   77.7660  220.7090 C   0  0  1  0  0  0  0  0  0  0  0  0
  140.8860   78.5920  221.6870 C   0  0  0  0  0  0  0  0  0  0  0  0
  141.1110   80.0810  221.4840 C   0  0  0  0  0  0  0  0  0  0  0  0
  142.4950   80.4260  221.9280 C   0  0  0  0  0  0  0  0  0  0  0  0
  142.4100   80.6100  223.4520 C   0  0  0  0  0  0  0  0  0  0  0  0
  141.8430   81.8680  223.6470 F   0  0  0  0  0  0  0  0  0  0  0  0
  143.6420   80.5690  224.0480 F   0  0  0  0  0  0  0  0  0  0  0  0
  141.4420   79.5720  223.9460 C   0  0  0  0  0  0  0  0  0  0  0  0
  141.4670   78.3200  223.0860 C   0  0  0  0  0  0  0  0  0  0  0  0
  140.2730   71.3020  223.6330 C   0  0  0  0  0  0  0  0  0  0  0  0
  139.6020   70.0970  223.6000 C   0  0  0  0  0  0  0  0  0  0  0  0
  139.3320   69.3550  224.7330 C   0  0  0  0  0  0  0  0  0  0  0  0
  139.7650   69.8710  225.9480 C   0  0  0  0  0  0  0  0  0  0  0  0
  139.5280   69.1820  227.1240 C   0  0  0  0  0  0  0  0  0  0  0  0
  139.9820   69.7400  228.3160 C   0  0  0  0  0  0  0  0  0  0  0  0
  140.6520   70.9460  228.3440 C   0  0  0  0  0  0  0  0  0  0  0  0
  140.8920   71.6420  227.1690 C   0  0  0  0  0  0  0  0  0  0  0  0
  140.4370   71.0760  225.9940 C   0  0  0  0  0  0  0  0  0  0  0  0
  140.6640   71.7420  224.8460 N   0  0  0  0  0  0  0  0  0  0  0  0
  139.4610   73.8070  223.1130 H   0  0  0  0  0  0  0  0  0  0  0  0
  141.1919   73.7729  220.6308 H   0  0  0  0  0  0  0  0  0  0  0  0
  139.4204   74.0768  220.4553 H   0  0  0  0  0  0  0  0  0  0  0  0
  143.5742   75.9197  220.4621 H   0  0  0  0  0  0  0  0  0  0  0  0
  142.4970   74.5188  220.2581 H   0  0  0  0  0  0  0  0  0  0  0  0
  143.2814   75.4674  218.0535 H   0  0  0  0  0  0  0  0  0  0  0  0
  141.5054   75.5494  218.2208 H   0  0  0  0  0  0  0  0  0  0  0  0
  143.4890   77.7763  218.8467 H   0  0  0  0  0  0  0  0  0  0  0  0
  142.4014   77.6647  217.4011 H   0  0  0  0  0  0  0  0  0  0  0  0
  141.4489   79.2001  219.0980 H   0  0  0  0  0  0  0  0  0  0  0  0
  140.4088   77.7770  218.8979 H   0  0  0  0  0  0  0  0  0  0  0  0
  142.6222   78.0596  221.0398 H   0  0  0  0  0  0  0  0  0  0  0  0
  139.8218   78.3391  221.5707 H   0  0  0  0  0  0  0  0  0  0  0  0
  140.9917   80.3307  220.4194 H   0  0  0  0  0  0  0  0  0  0  0  0
  140.3776   80.6524  222.0719 H   0  0  0  0  0  0  0  0  0  0  0  0
  143.1918   79.6123  221.6783 H   0  0  0  0  0  0  0  0  0  0  0  0
  142.8665   81.3337  221.4298 H   0  0  0  0  0  0  0  0  0  0  0  0
  141.7081   79.3000  224.9781 H   0  0  0  0  0  0  0  0  0  0  0  0
  140.4295   79.9992  223.8973 H   0  0  0  0  0  0  0  0  0  0  0  0
  142.5071   77.9773  222.9818 H   0  0  0  0  0  0  0  0  0  0  0  0
  140.8513   77.5504  223.5745 H   0  0  0  0  0  0  0  0  0  0  0  0
  139.2667   69.7095  222.6267 H   0  0  0  0  0  0  0  0  0  0  0  0
  138.7966   68.3958  224.6758 H   0  0  0  0  0  0  0  0  0  0  0  0
  138.9954   68.2196  227.1174 H   0  0  0  0  0  0  0  0  0  0  0  0
  139.8019   69.2054  229.2603 H   0  0  0  0  0  0  0  0  0  0  0  0
  140.9976   71.3575  229.3038 H   0  0  0  0  0  0  0  0  0  0  0  0
  141.4230   72.6054  227.1724 H   0  0  0  0  0  0  0  0  0  0  0  0
  1  2  2  0
  2  3  1  0
  3  4  1  0
  4  5  1  0
  5  6  2  0
  5  7  1  0
  7  8  1  0
  8  9  1  0
  9 10  1  0
 10 11  1  0
 11 12  1  0
 12 13  1  0
 13 14  1  0
 14 15  1  0
 15 16  1  0
 16 17  1  0
 16 18  1  0
 16 19  1  0
 19 20  1  0
  2 21  1  0
 21 22  2  0
 22 23  1  0
 23 24  2  0
 24 25  1  0
 25 26  2  0
 26 27  1  0
 27 28  2  0
 28 29  1  0
 29 30  2  0
 12  7  1  0
 20 13  1  0
 30 21  1  0
 29 24  1  0
  3 31  1  0
  4 32  1  0
  4 33  1  0
  8 34  1  0
  8 35  1  0
  9 36  1  0
  9 37  1  0
 10 38  1  0
 10 39  1  0
 11 40  1  0
 11 41  1  0
 12 42  1  1
 13 43  1  0
 14 44  1  0
 14 45  1  0
 15 46  1  0
 15 47  1  0
 19 48  1  0
 19 49  1  0
 20 50  1  0
 20 51  1  0
 22 52  1  0
 23 53  1  0
 25 54  1  0
 26 55  1  0
 27 56  1  0
 28 57  1  0
M  END
>  <smiles>  (86) 
O=C(NCC(=O)N1CCCCC1C1CCC(F)(F)CC1)c1ccc2ccccc2n1

>  <score_type>  (86) 
oracle

>  <origin>  (86) 
autodockgpu

>  <m_score__min__energy>  (86) 
-9.5700000000000003

>  <m_primary>  (86) 
energy

>  <rmsd>  (86) 
2.0697796593309774

>  <m_score__min__rmsd>  (86) 
2.0697796593309774

>  <meeko>  (86) 
{"free_energy": -9.55, "intermolecular_energy": -11.04, "internal_energy": -1.66, "cluster_size": 41, "cluster_id": 1, "rank_in_cluster": 8}

>  <energy>  (86) 
-9.21

>  <cluster_rmsd>  (86) 
1.48

>  <cluster>  (86) 
1

$$$$

     RDKit          3D

 57 60  0  0  0  0  0  0  0  0999 V2000
  140.3040   71.1890  221.2500 O   0  0  0  0  0  0  0  0  0  0  0  0
  140.0230   71.8330  222.3000 C   0  0  0  0  0  0  0  0  0  0  0  0
  139.7020   73.2100  222.3170 N   0  0  0  0  0  0  0  0  0  0  0  0
  139.6910   73.9400  221.0650 C   0  0  0  0  0  0  0  0  0  0  0  0
  140.6830   75.0750  221.1000 C   0  0  0  0  0  0  0  0  0  0  0  0
  140.7480   75.6900  222.1930 O   0  0  0  0  0  0  0  0  0  0  0  0
  141.4440   75.3660  219.9490 N   0  0  0  0  0  0  0  0  0  0  0  0
  140.7970   76.0840  218.8130 C   0  0  0  0  0  0  0  0  0  0  0  0
  141.4990   77.4220  218.6720 C   0  0  0  0  0  0  0  0  0  0  0  0
  142.9600   77.1600  218.4920 C   0  0  0  0  0  0  0  0  0  0  0  0
  143.5470   76.4010  219.6830 C   0  0  0  0  0  0  0  0  0  0  0  0
  142.8260   75.0640  219.7390 C   0  0  1  0  0  0  0  0  0  0  0  0
  143.4510   74.0210  220.5680 C   0  0  0  0  0  0  0  0  0  0  0  0
  144.9600   73.9600  220.3980 C   0  0  0  0  0  0  0  0  0  0  0  0
  145.2730   73.3640  219.0640 C   0  0  0  0  0  0  0  0  0  0  0  0
  145.1970   71.8410  219.2590 C   0  0  0  0  0  0  0  0  0  0  0  0
  146.3850   71.4840  219.8950 F   0  0  0  0  0  0  0  0  0  0  0  0
  145.1000   71.1710  218.0690 F   0  0  0  0  0  0  0  0  0  0  0  0
  144.0590   71.5970  220.2090 C   0  0  0  0  0  0  0  0  0  0  0  0
  142.9690   72.6460  220.0700 C   0  0  0  0  0  0  0  0  0  0  0  0
  140.0290   71.1110  223.5850 C   0  0  0  0  0  0  0  0  0  0  0  0
  139.5480   69.8230  223.6980 C   0  0  0  0  0  0  0  0  0  0  0  0
  139.5410   69.1240  224.8890 C   0  0  0  0  0  0  0  0  0  0  0  0
  140.0480   69.7730  226.0090 C   0  0  0  0  0  0  0  0  0  0  0  0
  140.0720   69.1330  227.2350 C   0  0  0  0  0  0  0  0  0  0  0  0
  140.5900   69.8240  228.3270 C   0  0  0  0  0  0  0  0  0  0  0  0
  141.0700   71.1120  228.2090 C   0  0  0  0  0  0  0  0  0  0  0  0
  141.0480   71.7600  226.9830 C   0  0  0  0  0  0  0  0  0  0  0  0
  140.5330   71.0620  225.9080 C   0  0  0  0  0  0  0  0  0  0  0  0
  140.5050   71.6780  224.7120 N   0  0  0  0  0  0  0  0  0  0  0  0
  139.4720   73.7120  223.2240 H   0  0  0  0  0  0  0  0  0  0  0  0
  139.9548   73.2552  220.2456 H   0  0  0  0  0  0  0  0  0  0  0  0
  138.6847   74.3551  220.9070 H   0  0  0  0  0  0  0  0  0  0  0  0
  140.9068   75.5010  217.8867 H   0  0  0  0  0  0  0  0  0  0  0  0
  139.7221   76.2240  219.0001 H   0  0  0  0  0  0  0  0  0  0  0  0
  141.1055   77.9597  217.7968 H   0  0  0  0  0  0  0  0  0  0  0  0
  141.3286   78.0393  219.5664 H   0  0  0  0  0  0  0  0  0  0  0  0
  143.1057   76.5617  217.5805 H   0  0  0  0  0  0  0  0  0  0  0  0
  143.4759   78.1283  218.4131 H   0  0  0  0  0  0  0  0  0  0  0  0
  144.6265   76.2452  219.5399 H   0  0  0  0  0  0  0  0  0  0  0  0
  143.4148   76.9643  220.6185 H   0  0  0  0  0  0  0  0  0  0  0  0
  142.9213   74.5232  218.7859 H   0  0  0  0  0  0  0  0  0  0  0  0
  143.1849   74.2550  221.6094 H   0  0  0  0  0  0  0  0  0  0  0  0
  145.3795   74.9752  220.4565 H   0  0  0  0  0  0  0  0  0  0  0  0
  145.4002   73.3424  221.1947 H   0  0  0  0  0  0  0  0  0  0  0  0
  144.5366   73.6918  218.3155 H   0  0  0  0  0  0  0  0  0  0  0  0
  146.2634   73.6775  218.7022 H   0  0  0  0  0  0  0  0  0  0  0  0
  143.6280   70.6067  220.0004 H   0  0  0  0  0  0  0  0  0  0  0  0
  144.4540   71.6501  221.2343 H   0  0  0  0  0  0  0  0  0  0  0  0
  142.6833   72.7282  219.0109 H   0  0  0  0  0  0  0  0  0  0  0  0
  142.1086   72.3367  220.6816 H   0  0  0  0  0  0  0  0  0  0  0  0
  139.1518   69.3300  222.7980 H   0  0  0  0  0  0  0  0  0  0  0  0
  139.1508   68.0973  224.9489 H   0  0  0  0  0  0  0  0  0  0  0  0
  139.6923   68.1064  227.3442 H   0  0  0  0  0  0  0  0  0  0  0  0
  140.6172   69.3301  229.3095 H   0  0  0  0  0  0  0  0  0  0  0  0
  141.4727   71.6283  229.0929 H   0  0  0  0  0  0  0  0  0  0  0  0
  141.4251   72.7873  226.8713 H   0  0  0  0  0  0  0  0  0  0  0  0
  1  2  2  0
  2  3  1  0
  3  4  1  0
  4  5  1  0
  5  6  2  0
  5  7  1  0
  7  8  1  0
  8  9  1  0
  9 10  1  0
 10 11  1  0
 11 12  1  0
 12 13  1  0
 13 14  1  0
 14 15  1  0
 15 16  1  0
 16 17  1  0
 16 18  1  0
 16 19  1  0
 19 20  1  0
  2 21  1  0
 21 22  2  0
 22 23  1  0
 23 24  2  0
 24 25  1  0
 25 26  2  0
 26 27  1  0
 27 28  2  0
 28 29  1  0
 29 30  2  0
 12  7  1  0
 20 13  1  0
 30 21  1  0
 29 24  1  0
  3 31  1  0
  4 32  1  0
  4 33  1  0
  8 34  1  0
  8 35  1  0
  9 36  1  0
  9 37  1  0
 10 38  1  0
 10 39  1  0
 11 40  1  0
 11 41  1  0
 12 42  1  6
 13 43  1  0
 14 44  1  0
 14 45  1  0
 15 46  1  0
 15 47  1  0
 19 48  1  0
 19 49  1  0
 20 50  1  0
 20 51  1  0
 22 52  1  0
 23 53  1  0
 25 54  1  0
 26 55  1  0
 27 56  1  0
 28 57  1  0
M  END
>  <smiles>  (87) 
O=C(NCC(=O)N1CCCCC1C1CCC(F)(F)CC1)c1ccc2ccccc2n1

>  <score_type>  (87) 
oracle

>  <origin>  (87) 
autodockgpu

>  <m_score__min__energy>  (87) 
-9.5700000000000003

>  <m_primary>  (87) 
energy

>  <rmsd>  (87) 
1.929835746648772

>  <m_score__min__rmsd>  (87) 
1.929835746648772

>  <meeko>  (87) 
{"free_energy": -8.58, "intermolecular_energy": -10.07, "internal_energy": -2.01, "cluster_size": 6, "cluster_id": 2, "rank_in_cluster": 2}

>  <energy>  (87) 
-9.17

>  <cluster_rmsd>  (87) 
0.73

>  <cluster>  (87) 
1

$$$$

     RDKit          3D

 57 60  0  0  0  0  0  0  0  0999 V2000
  136.6170   77.3040  222.4160 O   0  0  0  0  0  0  0  0  0  0  0  0
  136.7810   76.1200  222.8220 C   0  0  0  0  0  0  0  0  0  0  0  0
  137.8230   75.2730  222.3800 N   0  0  0  0  0  0  0  0  0  0  0  0
  138.7660   75.7790  221.4020 C   0  0  0  0  0  0  0  0  0  0  0  0
  140.1350   75.1860  221.6240 C   0  0  0  0  0  0  0  0  0  0  0  0
  140.1560   74.1490  222.3310 O   0  0  0  0  0  0  0  0  0  0  0  0
  141.2620   75.8090  221.0490 N   0  0  0  0  0  0  0  0  0  0  0  0
  142.3380   74.9620  220.4590 C   0  0  0  0  0  0  0  0  0  0  0  0
  142.3770   75.2600  218.9710 C   0  0  0  0  0  0  0  0  0  0  0  0
  142.5770   76.7310  218.8000 C   0  0  0  0  0  0  0  0  0  0  0  0
  141.4490   77.5340  219.4500 C   0  0  0  0  0  0  0  0  0  0  0  0
  141.4960   77.2150  220.9360 C   0  0  1  0  0  0  0  0  0  0  0  0
  140.7500   78.1250  221.8200 C   0  0  0  0  0  0  0  0  0  0  0  0
  140.8160   79.5740  221.3650 C   0  0  0  0  0  0  0  0  0  0  0  0
  142.1840   80.1070  221.6430 C   0  0  0  0  0  0  0  0  0  0  0  0
  142.1730   80.5340  223.1190 C   0  0  0  0  0  0  0  0  0  0  0  0
  141.4990   81.7530  223.1530 F   0  0  0  0  0  0  0  0  0  0  0  0
  143.4370   80.7000  223.6190 F   0  0  0  0  0  0  0  0  0  0  0  0
  141.3430   79.5130  223.8450 C   0  0  0  0  0  0  0  0  0  0  0  0
  141.4380   78.1420  223.1970 C   0  0  0  0  0  0  0  0  0  0  0  0
  135.8340   75.5830  223.8160 C   0  0  0  0  0  0  0  0  0  0  0  0
  135.0400   76.4100  224.5850 C   0  0  0  0  0  0  0  0  0  0  0  0
  134.1450   75.9350  225.5220 C   0  0  0  0  0  0  0  0  0  0  0  0
  134.0600   74.5570  225.6780 C   0  0  0  0  0  0  0  0  0  0  0  0
  133.1850   74.0110  226.6000 C   0  0  0  0  0  0  0  0  0  0  0  0
  133.1360   72.6250  226.7190 C   0  0  0  0  0  0  0  0  0  0  0  0
  133.9320   71.8020  225.9480 C   0  0  0  0  0  0  0  0  0  0  0  0
  134.8120   72.3430  225.0230 C   0  0  0  0  0  0  0  0  0  0  0  0
  134.8490   73.7190  224.9150 C   0  0  0  0  0  0  0  0  0  0  0  0
  135.6990   74.2580  224.0210 N   0  0  0  0  0  0  0  0  0  0  0  0
  137.9240   74.2820  222.7490 H   0  0  0  0  0  0  0  0  0  0  0  0
  138.4170   75.5137  220.3931 H   0  0  0  0  0  0  0  0  0  0  0  0
  138.8328   76.8718  221.5080 H   0  0  0  0  0  0  0  0  0  0  0  0
  143.3066   75.2085  220.9185 H   0  0  0  0  0  0  0  0  0  0  0  0
  142.1388   73.8953  220.6390 H   0  0  0  0  0  0  0  0  0  0  0  0
  143.2085   74.7132  218.5024 H   0  0  0  0  0  0  0  0  0  0  0  0
  141.4380   74.9438  218.4931 H   0  0  0  0  0  0  0  0  0  0  0  0
  143.5321   77.0174  219.2645 H   0  0  0  0  0  0  0  0  0  0  0  0
  142.5804   76.9540  217.7228 H   0  0  0  0  0  0  0  0  0  0  0  0
  141.6055   78.6105  219.2869 H   0  0  0  0  0  0  0  0  0  0  0  0
  140.4724   77.2724  219.0167 H   0  0  0  0  0  0  0  0  0  0  0  0
  142.4883   77.4346  221.3570 H   0  0  0  0  0  0  0  0  0  0  0  0
  139.7108   77.7645  221.8257 H   0  0  0  0  0  0  0  0  0  0  0  0
  140.6094   79.6320  220.2861 H   0  0  0  0  0  0  0  0  0  0  0  0
  140.0668   80.1694  221.9075 H   0  0  0  0  0  0  0  0  0  0  0  0
  142.9409   79.3266  221.4753 H   0  0  0  0  0  0  0  0  0  0  0  0
  142.4343   80.9478  220.9794 H   0  0  0  0  0  0  0  0  0  0  0  0
  141.6967   79.4407  224.8841 H   0  0  0  0  0  0  0  0  0  0  0  0
  140.2925   79.8369  223.8057 H   0  0  0  0  0  0  0  0  0  0  0  0
  142.4984   77.8780  223.0710 H   0  0  0  0  0  0  0  0  0  0  0  0
  140.9304   77.4147  223.8476 H   0  0  0  0  0  0  0  0  0  0  0  0
  135.1246   77.4977  224.4444 H   0  0  0  0  0  0  0  0  0  0  0  0
  133.5249   76.6187  226.1203 H   0  0  0  0  0  0  0  0  0  0  0  0
  132.5455   74.6545  227.2220 H   0  0  0  0  0  0  0  0  0  0  0  0
  132.4450   72.1738  227.4463 H   0  0  0  0  0  0  0  0  0  0  0  0
  133.8679   70.7105  226.0681 H   0  0  0  0  0  0  0  0  0  0  0  0
  135.4542   71.7023  224.4008 H   0  0  0  0  0  0  0  0  0  0  0  0
  1  2  2  0
  2  3  1  0
  3  4  1  0
  4  5  1  0
  5  6  2  0
  5  7  1  0
  7  8  1  0
  8  9  1  0
  9 10  1  0
 10 11  1  0
 11 12  1  0
 12 13  1  0
 13 14  1  0
 14 15  1  0
 15 16  1  0
 16 17  1  0
 16 18  1  0
 16 19  1  0
 19 20  1  0
  2 21  1  0
 21 22  2  0
 22 23  1  0
 23 24  2  0
 24 25  1  0
 25 26  2  0
 26 27  1  0
 27 28  2  0
 28 29  1  0
 29 30  2  0
 12  7  1  0
 20 13  1  0
 30 21  1  0
 29 24  1  0
  3 31  1  0
  4 32  1  0
  4 33  1  0
  8 34  1  0
  8 35  1  0
  9 36  1  0
  9 37  1  0
 10 38  1  0
 10 39  1  0
 11 40  1  0
 11 41  1  0
 12 42  1  1
 13 43  1  0
 14 44  1  0
 14 45  1  0
 15 46  1  0
 15 47  1  0
 19 48  1  0
 19 49  1  0
 20 50  1  0
 20 51  1  0
 22 52  1  0
 23 53  1  0
 25 54  1  0
 26 55  1  0
 27 56  1  0
 28 57  1  0
M  END
>  <smiles>  (88) 
O=C(NCC(=O)N1CCCCC1C1CCC(F)(F)CC1)c1ccc2ccccc2n1

>  <score_type>  (88) 
oracle

>  <origin>  (88) 
autodockgpu

>  <m_score__min__energy>  (88) 
-9.5700000000000003

>  <m_primary>  (88) 
energy

>  <rmsd>  (88) 
5.607495000725039

>  <m_score__min__rmsd>  (88) 
5.607495000725039

>  <meeko>  (88) 
{"free_energy": -7.82, "intermolecular_energy": -9.31, "internal_energy": -2.13, "cluster_size": 3, "cluster_id": 3, "rank_in_cluster": 2}

>  <energy>  (88) 
-9.14

>  <cluster_rmsd>  (88) 
0.75

>  <cluster>  (88) 
1

$$$$

     RDKit          3D

 57 60  0  0  0  0  0  0  0  0999 V2000
  141.2380   71.5010  221.4950 O   0  0  0  0  0  0  0  0  0  0  0  0
  140.5720   72.0590  222.4130 C   0  0  0  0  0  0  0  0  0  0  0  0
  140.0940   73.3880  222.3420 N   0  0  0  0  0  0  0  0  0  0  0  0
  140.3760   74.1690  221.1550 C   0  0  0  0  0  0  0  0  0  0  0  0
  140.5900   75.6190  221.5090 C   0  0  0  0  0  0  0  0  0  0  0  0
  139.8450   76.0600  222.4170 O   0  0  0  0  0  0  0  0  0  0  0  0
  141.5750   76.3610  220.8230 N   0  0  0  0  0  0  0  0  0  0  0  0
  142.6590   75.6350  220.1000 C   0  0  0  0  0  0  0  0  0  0  0  0
  142.4980   75.9480  218.6230 C   0  0  0  0  0  0  0  0  0  0  0  0
  142.5270   77.4340  218.4610 C   0  0  0  0  0  0  0  0  0  0  0  0
  141.4040   78.1100  219.2480 C   0  0  0  0  0  0  0  0  0  0  0  0
  141.6510   77.7850  220.7130 C   0  0  1  0  0  0  0  0  0  0  0  0
  140.9210   78.6050  221.6940 C   0  0  0  0  0  0  0  0  0  0  0  0
  141.1380   80.0960  221.4920 C   0  0  0  0  0  0  0  0  0  0  0  0
  142.5220   80.4470  221.9330 C   0  0  0  0  0  0  0  0  0  0  0  0
  142.4410   80.6290  223.4570 C   0  0  0  0  0  0  0  0  0  0  0  0
  141.8680   81.8840  223.6560 F   0  0  0  0  0  0  0  0  0  0  0  0
  143.6750   80.5940  224.0490 F   0  0  0  0  0  0  0  0  0  0  0  0
  141.4800   79.5860  223.9520 C   0  0  0  0  0  0  0  0  0  0  0  0
  141.5080   78.3350  223.0910 C   0  0  0  0  0  0  0  0  0  0  0  0
  140.2740   71.2840  223.6300 C   0  0  0  0  0  0  0  0  0  0  0  0
  139.5910   70.0860  223.5810 C   0  0  0  0  0  0  0  0  0  0  0  0
  139.2980   69.3390  224.7050 C   0  0  0  0  0  0  0  0  0  0  0  0
  139.7220   69.8420  225.9290 C   0  0  0  0  0  0  0  0  0  0  0  0
  139.4630   69.1470  227.0970 C   0  0  0  0  0  0  0  0  0  0  0  0
  139.9090   69.6910  228.2980 C   0  0  0  0  0  0  0  0  0  0  0  0
  140.5910   70.8890  228.3430 C   0  0  0  0  0  0  0  0  0  0  0  0
  140.8540   71.5910  227.1760 C   0  0  0  0  0  0  0  0  0  0  0  0
  140.4070   71.0390  225.9920 C   0  0  0  0  0  0  0  0  0  0  0  0
  140.6550   71.7100  224.8510 N   0  0  0  0  0  0  0  0  0  0  0  0
  139.5370   73.8170  223.1380 H   0  0  0  0  0  0  0  0  0  0  0  0
  141.2836   73.7774  220.6724 H   0  0  0  0  0  0  0  0  0  0  0  0
  139.5177   74.0951  220.4710 H   0  0  0  0  0  0  0  0  0  0  0  0
  143.6429   75.9773  220.4532 H   0  0  0  0  0  0  0  0  0  0  0  0
  142.5924   74.5519  220.2802 H   0  0  0  0  0  0  0  0  0  0  0  0
  143.3220   75.4940  218.0530 H   0  0  0  0  0  0  0  0  0  0  0  0
  141.5480   75.5406  218.2469 H   0  0  0  0  0  0  0  0  0  0  0  0
  143.4942   77.8133  218.8225 H   0  0  0  0  0  0  0  0  0  0  0  0
  142.3866   77.6658  217.3949 H   0  0  0  0  0  0  0  0  0  0  0  0
  141.4304   79.1983  219.0900 H   0  0  0  0  0  0  0  0  0  0  0  0
  140.4165   77.7524  218.9210 H   0  0  0  0  0  0  0  0  0  0  0  0
  142.6570   78.1031  221.0242 H   0  0  0  0  0  0  0  0  0  0  0  0
  139.8579   78.3461  221.5810 H   0  0  0  0  0  0  0  0  0  0  0  0
  141.0147   80.3464  220.4280 H   0  0  0  0  0  0  0  0  0  0  0  0
  140.4033   80.6632  222.0823 H   0  0  0  0  0  0  0  0  0  0  0  0
  143.2218   79.6368  221.6804 H   0  0  0  0  0  0  0  0  0  0  0  0
  142.8876   81.3571  221.4349 H   0  0  0  0  0  0  0  0  0  0  0  0
  141.7504   79.3141  224.9830 H   0  0  0  0  0  0  0  0  0  0  0  0
  140.4654   80.0085  223.9061 H   0  0  0  0  0  0  0  0  0  0  0  0
  142.5493   77.9974  222.9831 H   0  0  0  0  0  0  0  0  0  0  0  0
  140.8974   77.5623  223.5810 H   0  0  0  0  0  0  0  0  0  0  0  0
  139.2646   69.7083  222.6008 H   0  0  0  0  0  0  0  0  0  0  0  0
  138.7523   68.3865  224.6344 H   0  0  0  0  0  0  0  0  0  0  0  0
  138.9196   68.1908  227.0770 H   0  0  0  0  0  0  0  0  0  0  0  0
  139.7124   69.1512  229.2361 H   0  0  0  0  0  0  0  0  0  0  0  0
  140.9284   71.2901  229.3101 H   0  0  0  0  0  0  0  0  0  0  0  0
  141.3963   72.5479  227.1931 H   0  0  0  0  0  0  0  0  0  0  0  0
  1  2  2  0
  2  3  1  0
  3  4  1  0
  4  5  1  0
  5  6  2  0
  5  7  1  0
  7  8  1  0
  8  9  1  0
  9 10  1  0
 10 11  1  0
 11 12  1  0
 12 13  1  0
 13 14  1  0
 14 15  1  0
 15 16  1  0
 16 17  1  0
 16 18  1  0
 16 19  1  0
 19 20  1  0
  2 21  1  0
 21 22  2  0
 22 23  1  0
 23 24  2  0
 24 25  1  0
 25 26  2  0
 26 27  1  0
 27 28  2  0
 28 29  1  0
 29 30  2  0
 12  7  1  0
 20 13  1  0
 30 21  1  0
 29 24  1  0
  3 31  1  0
  4 32  1  0
  4 33  1  0
  8 34  1  0
  8 35  1  0
  9 36  1  0
  9 37  1  0
 10 38  1  0
 10 39  1  0
 11 40  1  0
 11 41  1  0
 12 42  1  1
 13 43  1  0
 14 44  1  0
 14 45  1  0
 15 46  1  0
 15 47  1  0
 19 48  1  0
 19 49  1  0
 20 50  1  0
 20 51  1  0
 22 52  1  0
 23 53  1  0
 25 54  1  0
 26 55  1  0
 27 56  1  0
 28 57  1  0
M  END
>  <smiles>  (89) 
O=C(NCC(=O)N1CCCCC1C1CCC(F)(F)CC1)c1ccc2ccccc2n1

>  <score_type>  (89) 
oracle

>  <origin>  (89) 
autodockgpu

>  <m_score__min__energy>  (89) 
-9.5700000000000003

>  <m_primary>  (89) 
energy

>  <rmsd>  (89) 
2.1000912796916964

>  <m_score__min__rmsd>  (89) 
2.1000912796916964

>  <meeko>  (89) 
{"free_energy": -9.51, "intermolecular_energy": -11.0, "internal_energy": -1.68, "cluster_size": 41, "cluster_id": 1, "rank_in_cluster": 19}

>  <energy>  (89) 
-8.64

>  <cluster_rmsd>  (89) 
1.74

>  <cluster>  (89) 
1

$$$$

     RDKit          3D

 57 60  0  0  0  0  0  0  0  0999 V2000
  141.3560   72.3710  221.8900 O   0  0  0  0  0  0  0  0  0  0  0  0
  140.3100   72.4530  222.5940 C   0  0  0  0  0  0  0  0  0  0  0  0
  139.2580   73.3620  222.3390 N   0  0  0  0  0  0  0  0  0  0  0  0
  139.3700   74.2590  221.2060 C   0  0  0  0  0  0  0  0  0  0  0  0
  139.9990   75.5660  221.6200 C   0  0  0  0  0  0  0  0  0  0  0  0
  141.1700   75.4750  222.0610 O   0  0  0  0  0  0  0  0  0  0  0  0
  139.2600   76.7610  221.4920 N   0  0  0  0  0  0  0  0  0  0  0  0
  138.0070   76.7560  220.6830 C   0  0  0  0  0  0  0  0  0  0  0  0
  136.8610   77.0590  221.6320 C   0  0  0  0  0  0  0  0  0  0  0  0
  137.1580   78.3550  222.3160 C   0  0  0  0  0  0  0  0  0  0  0  0
  138.4680   78.2910  223.1040 C   0  0  0  0  0  0  0  0  0  0  0  0
  139.5670   78.0240  222.0880 C   0  0  1  0  0  0  0  0  0  0  0  0
  140.9460   78.2700  222.5420 C   0  0  0  0  0  0  0  0  0  0  0  0
  141.0060   79.0310  223.8560 C   0  0  0  0  0  0  0  0  0  0  0  0
  140.6230   80.4530  223.6100 C   0  0  0  0  0  0  0  0  0  0  0  0
  141.8990   81.1480  223.1080 C   0  0  0  0  0  0  0  0  0  0  0  0
  142.6780   81.3690  224.2430 F   0  0  0  0  0  0  0  0  0  0  0  0
  141.6320   82.3460  222.5000 F   0  0  0  0  0  0  0  0  0  0  0  0
  142.6050   80.1480  222.2360 C   0  0  0  0  0  0  0  0  0  0  0  0
  141.6290   79.2160  221.5380 C   0  0  0  0  0  0  0  0  0  0  0  0
  140.1740   71.5510  223.7520 C   0  0  0  0  0  0  0  0  0  0  0  0
  139.5540   70.3230  223.6480 C   0  0  0  0  0  0  0  0  0  0  0  0
  139.4130   69.4580  224.7160 C   0  0  0  0  0  0  0  0  0  0  0  0
  139.9280   69.8700  225.9390 C   0  0  0  0  0  0  0  0  0  0  0  0
  139.8230   69.0550  227.0510 C   0  0  0  0  0  0  0  0  0  0  0  0
  140.3550   69.5120  228.2540 C   0  0  0  0  0  0  0  0  0  0  0  0
  140.9750   70.7410  228.3530 C   0  0  0  0  0  0  0  0  0  0  0  0
  141.0840   71.5630  227.2410 C   0  0  0  0  0  0  0  0  0  0  0  0
  140.5520   71.0970  226.0550 C   0  0  0  0  0  0  0  0  0  0  0  0
  140.6510   71.8850  224.9680 N   0  0  0  0  0  0  0  0  0  0  0  0
  138.3950   73.3960  222.9570 H   0  0  0  0  0  0  0  0  0  0  0  0
  139.9937   73.7873  220.4324 H   0  0  0  0  0  0  0  0  0  0  0  0
  138.3622   74.4604  220.8138 H   0  0  0  0  0  0  0  0  0  0  0  0
  138.0611   77.5257  219.8990 H   0  0  0  0  0  0  0  0  0  0  0  0
  137.8618   75.7822  220.1925 H   0  0  0  0  0  0  0  0  0  0  0  0
  135.9206   77.1418  221.0673 H   0  0  0  0  0  0  0  0  0  0  0  0
  136.7540   76.2521  222.3719 H   0  0  0  0  0  0  0  0  0  0  0  0
  137.2361   79.1485  221.5582 H   0  0  0  0  0  0  0  0  0  0  0  0
  136.3420   78.5647  223.0232 H   0  0  0  0  0  0  0  0  0  0  0  0
  138.6495   79.2461  223.6187 H   0  0  0  0  0  0  0  0  0  0  0  0
  138.4340   77.5034  223.8712 H   0  0  0  0  0  0  0  0  0  0  0  0
  139.5685   78.7881  221.2967 H   0  0  0  0  0  0  0  0  0  0  0  0
  141.4185   77.2817  222.6420 H   0  0  0  0  0  0  0  0  0  0  0  0
  140.3075   78.5798  224.5761 H   0  0  0  0  0  0  0  0  0  0  0  0
  142.0255   78.9856  224.2665 H   0  0  0  0  0  0  0  0  0  0  0  0
  139.8306   80.5104  222.8492 H   0  0  0  0  0  0  0  0  0  0  0  0
  140.2323   80.9310  224.5204 H   0  0  0  0  0  0  0  0  0  0  0  0
  143.1871   80.6882  221.4748 H   0  0  0  0  0  0  0  0  0  0  0  0
  143.2592   79.5386  222.8769 H   0  0  0  0  0  0  0  0  0  0  0  0
  140.8596   79.8168  221.0310 H   0  0  0  0  0  0  0  0  0  0  0  0
  142.1879   78.6076  220.8117 H   0  0  0  0  0  0  0  0  0  0  0  0
  139.1535   70.0186  222.6698 H   0  0  0  0  0  0  0  0  0  0  0  0
  138.9141   68.4842  224.6029 H   0  0  0  0  0  0  0  0  0  0  0  0
  139.3326   68.0724  226.9871 H   0  0  0  0  0  0  0  0  0  0  0  0
  140.2791   68.8768  229.1488 H   0  0  0  0  0  0  0  0  0  0  0  0
  141.3850   71.0705  229.3191 H   0  0  0  0  0  0  0  0  0  0  0  0
  141.5742   72.5459  227.3015 H   0  0  0  0  0  0  0  0  0  0  0  0
  1  2  2  0
  2  3  1  0
  3  4  1  0
  4  5  1  0
  5  6  2  0
  5  7  1  0
  7  8  1  0
  8  9  1  0
  9 10  1  0
 10 11  1  0
 11 12  1  0
 12 13  1  0
 13 14  1  0
 14 15  1  0
 15 16  1  0
 16 17  1  0
 16 18  1  0
 16 19  1  0
 19 20  1  0
  2 21  1  0
 21 22  2  0
 22 23  1  0
 23 24  2  0
 24 25  1  0
 25 26  2  0
 26 27  1  0
 27 28  2  0
 28 29  1  0
 29 30  2  0
 12  7  1  0
 20 13  1  0
 30 21  1  0
 29 24  1  0
  3 31  1  0
  4 32  1  0
  4 33  1  0
  8 34  1  0
  8 35  1  0
  9 36  1  0
  9 37  1  0
 10 38  1  0
 10 39  1  0
 11 40  1  0
 11 41  1  0
 12 42  1  6
 13 43  1  0
 14 44  1  0
 14 45  1  0
 15 46  1  0
 15 47  1  0
 19 48  1  0
 19 49  1  0
 20 50  1  0
 20 51  1  0
 22 52  1  0
 23 53  1  0
 25 54  1  0
 26 55  1  0
 27 56  1  0
 28 57  1  0
M  END
>  <smiles>  (90) 
O=C(NCC(=O)N1CCCCC1C1CCC(F)(F)CC1)c1ccc2ccccc2n1

>  <score_type>  (90) 
oracle

>  <origin>  (90) 
autodockgpu

>  <m_score__min__energy>  (90) 
-9.5700000000000003

>  <m_primary>  (90) 
energy

>  <rmsd>  (90) 
2.960927794176028

>  <m_score__min__rmsd>  (90) 
2.960927794176028

>  <meeko>  (90) 
{"free_energy": -9.27, "intermolecular_energy": -10.76, "internal_energy": -1.22, "cluster_size": 41, "cluster_id": 1, "rank_in_cluster": 29}

>  <energy>  (90) 
-8.3

>  <cluster_rmsd>  (90) 
1.23

>  <cluster>  (90) 
1

$$$$

     RDKit          3D

 57 60  0  0  0  0  0  0  0  0999 V2000
  141.3900   71.5070  221.5110 O   0  0  0  0  0  0  0  0  0  0  0  0
  140.6890   72.0580  222.4050 C   0  0  0  0  0  0  0  0  0  0  0  0
  140.2080   73.3860  222.3230 N   0  0  0  0  0  0  0  0  0  0  0  0
  140.5310   74.1730  221.1500 C   0  0  0  0  0  0  0  0  0  0  0  0
  140.6230   75.6380  221.4990 C   0  0  0  0  0  0  0  0  0  0  0  0
  139.8740   76.0090  222.4350 O   0  0  0  0  0  0  0  0  0  0  0  0
  141.5090   76.4670  220.7790 N   0  0  0  0  0  0  0  0  0  0  0  0
  142.5050   75.8410  219.8620 C   0  0  0  0  0  0  0  0  0  0  0  0
  142.1640   76.2940  218.4540 C   0  0  0  0  0  0  0  0  0  0  0  0
  142.1550   77.7900  218.4400 C   0  0  0  0  0  0  0  0  0  0  0  0
  141.1270   78.3580  219.4200 C   0  0  0  0  0  0  0  0  0  0  0  0
  141.5540   77.8960  220.8050 C   0  0  1  0  0  0  0  0  0  0  0  0
  140.9380   78.5980  221.9430 C   0  0  0  0  0  0  0  0  0  0  0  0
  141.0230   80.1100  221.8180 C   0  0  0  0  0  0  0  0  0  0  0  0
  142.4340   80.5370  222.0620 C   0  0  0  0  0  0  0  0  0  0  0  0
  142.5860   80.6200  223.5900 C   0  0  0  0  0  0  0  0  0  0  0  0
  141.9720   81.8130  223.9650 F   0  0  0  0  0  0  0  0  0  0  0  0
  143.8980   80.6420  223.9790 F   0  0  0  0  0  0  0  0  0  0  0  0
  141.7860   79.4790  224.1520 C   0  0  0  0  0  0  0  0  0  0  0  0
  141.7570   78.2880  223.2090 C   0  0  0  0  0  0  0  0  0  0  0  0
  140.3480   71.2770  223.6080 C   0  0  0  0  0  0  0  0  0  0  0  0
  139.6450   70.0920  223.5300 C   0  0  0  0  0  0  0  0  0  0  0  0
  139.3130   69.3400  224.6400 C   0  0  0  0  0  0  0  0  0  0  0  0
  139.7190   69.8230  225.8780 C   0  0  0  0  0  0  0  0  0  0  0  0
  139.4210   69.1210  227.0330 C   0  0  0  0  0  0  0  0  0  0  0  0
  139.8490   69.6450  228.2490 C   0  0  0  0  0  0  0  0  0  0  0  0
  140.5520   70.8300  228.3220 C   0  0  0  0  0  0  0  0  0  0  0  0
  140.8530   71.5390  227.1680 C   0  0  0  0  0  0  0  0  0  0  0  0
  140.4230   71.0060  225.9690 C   0  0  0  0  0  0  0  0  0  0  0  0
  140.7090   71.6840  224.8410 N   0  0  0  0  0  0  0  0  0  0  0  0
  139.6210   73.8100  223.1000 H   0  0  0  0  0  0  0  0  0  0  0  0
  141.4968   73.8371  220.7446 H   0  0  0  0  0  0  0  0  0  0  0  0
  139.7352   74.0369  220.4029 H   0  0  0  0  0  0  0  0  0  0  0  0
  143.5207   76.1690  220.1280 H   0  0  0  0  0  0  0  0  0  0  0  0
  142.4716   74.7442  219.9386 H   0  0  0  0  0  0  0  0  0  0  0  0
  142.9191   75.9185  217.7477 H   0  0  0  0  0  0  0  0  0  0  0  0
  141.1807   75.9028  218.1539 H   0  0  0  0  0  0  0  0  0  0  0  0
  143.1542   78.1553  218.7198 H   0  0  0  0  0  0  0  0  0  0  0  0
  141.8836   78.1221  217.4271 H   0  0  0  0  0  0  0  0  0  0  0  0
  141.1207   79.4569  219.3705 H   0  0  0  0  0  0  0  0  0  0  0  0
  140.1115   78.0107  219.1789 H   0  0  0  0  0  0  0  0  0  0  0  0
  142.5865   78.2052  221.0249 H   0  0  0  0  0  0  0  0  0  0  0  0
  139.8893   78.2679  221.9772 H   0  0  0  0  0  0  0  0  0  0  0  0
  140.7144   80.4149  220.8071 H   0  0  0  0  0  0  0  0  0  0  0  0
  140.3576   80.5830  222.5552 H   0  0  0  0  0  0  0  0  0  0  0  0
  143.1354   79.7985  221.6465 H   0  0  0  0  0  0  0  0  0  0  0  0
  142.6557   81.5003  221.5793 H   0  0  0  0  0  0  0  0  0  0  0  0
  142.2349   79.1661  225.1062 H   0  0  0  0  0  0  0  0  0  0  0  0
  140.7519   79.8257  224.2947 H   0  0  0  0  0  0  0  0  0  0  0  0
  142.7873   78.0369  222.9169 H   0  0  0  0  0  0  0  0  0  0  0  0
  141.2840   77.4430  223.7307 H   0  0  0  0  0  0  0  0  0  0  0  0
  139.3349   69.7299  222.5387 H   0  0  0  0  0  0  0  0  0  0  0  0
  138.7511   68.3988  224.5479 H   0  0  0  0  0  0  0  0  0  0  0  0
  138.8613   68.1750  226.9909 H   0  0  0  0  0  0  0  0  0  0  0  0
  139.6208   69.0999  229.1768 H   0  0  0  0  0  0  0  0  0  0  0  0
  140.8756   71.2147  229.3004 H   0  0  0  0  0  0  0  0  0  0  0  0
  141.4109   72.4862  227.2066 H   0  0  0  0  0  0  0  0  0  0  0  0
  1  2  2  0
  2  3  1  0
  3  4  1  0
  4  5  1  0
  5  6  2  0
  5  7  1  0
  7  8  1  0
  8  9  1  0
  9 10  1  0
 10 11  1  0
 11 12  1  0
 12 13  1  0
 13 14  1  0
 14 15  1  0
 15 16  1  0
 16 17  1  0
 16 18  1  0
 16 19  1  0
 19 20  1  0
  2 21  1  0
 21 22  2  0
 22 23  1  0
 23 24  2  0
 24 25  1  0
 25 26  2  0
 26 27  1  0
 27 28  2  0
 28 29  1  0
 29 30  2  0
 12  7  1  0
 20 13  1  0
 30 21  1  0
 29 24  1  0
  3 31  1  0
  4 32  1  0
  4 33  1  0
  8 34  1  0
  8 35  1  0
  9 36  1  0
  9 37  1  0
 10 38  1  0
 10 39  1  0
 11 40  1  0
 11 41  1  0
 12 42  1  6
 13 43  1  0
 14 44  1  0
 14 45  1  0
 15 46  1  0
 15 47  1  0
 19 48  1  0
 19 49  1  0
 20 50  1  0
 20 51  1  0
 22 52  1  0
 23 53  1  0
 25 54  1  0
 26 55  1  0
 27 56  1  0
 28 57  1  0
M  END
>  <smiles>  (91) 
O=C(NCC(=O)N1CCCCC1C1CCC(F)(F)CC1)c1ccc2ccccc2n1

>  <score_type>  (91) 
oracle

>  <origin>  (91) 
autodockgpu

>  <m_score__min__energy>  (91) 
-9.5700000000000003

>  <m_primary>  (91) 
energy

>  <rmsd>  (91) 
2.0959375243301417

>  <m_score__min__rmsd>  (91) 
2.0959375243301417

>  <meeko>  (91) 
{"free_energy": -9.32, "intermolecular_energy": -10.81, "internal_energy": -1.77, "cluster_size": 41, "cluster_id": 1, "rank_in_cluster": 28}

>  <energy>  (91) 
-7.9

>  <cluster_rmsd>  (91) 
1.68

>  <cluster>  (91) 
1

$$$$

     RDKit          3D

 57 60  0  0  0  0  0  0  0  0999 V2000
  136.4480   77.0540  222.2360 O   0  0  0  0  0  0  0  0  0  0  0  0
  136.7530   75.9190  222.6990 C   0  0  0  0  0  0  0  0  0  0  0  0
  137.9270   75.2150  222.3470 N   0  0  0  0  0  0  0  0  0  0  0  0
  138.8450   75.8160  221.4000 C   0  0  0  0  0  0  0  0  0  0  0  0
  140.2440   75.2940  221.6070 C   0  0  0  0  0  0  0  0  0  0  0  0
  140.3270   74.2710  222.3290 O   0  0  0  0  0  0  0  0  0  0  0  0
  141.3290   75.9620  221.0020 N   0  0  0  0  0  0  0  0  0  0  0  0
  142.4270   75.1580  220.3910 C   0  0  0  0  0  0  0  0  0  0  0  0
  142.4180   75.4490  218.9010 C   0  0  0  0  0  0  0  0  0  0  0  0
  142.5520   76.9270  218.7190 C   0  0  0  0  0  0  0  0  0  0  0  0
  141.4060   77.6840  219.3910 C   0  0  0  0  0  0  0  0  0  0  0  0
  141.5010   77.3760  220.8770 C   0  0  1  0  0  0  0  0  0  0  0  0
  140.7380   78.2580  221.7750 C   0  0  0  0  0  0  0  0  0  0  0  0
  140.8220   79.7220  221.3740 C   0  0  0  0  0  0  0  0  0  0  0  0
  142.1850   80.2360  221.7040 C   0  0  0  0  0  0  0  0  0  0  0  0
  142.1400   80.6110  223.1940 C   0  0  0  0  0  0  0  0  0  0  0  0
  141.4710   81.8310  223.2550 F   0  0  0  0  0  0  0  0  0  0  0  0
  143.3920   80.7510  223.7310 F   0  0  0  0  0  0  0  0  0  0  0  0
  141.2870   79.5690  223.8620 C   0  0  0  0  0  0  0  0  0  0  0  0
  141.3910   78.2210  223.1680 C   0  0  0  0  0  0  0  0  0  0  0  0
  135.8340   75.2880  223.6630 C   0  0  0  0  0  0  0  0  0  0  0  0
  135.6580   73.9200  223.7110 C   0  0  0  0  0  0  0  0  0  0  0  0
  134.8040   73.3030  224.6040 C   0  0  0  0  0  0  0  0  0  0  0  0
  134.1030   74.1200  225.4820 C   0  0  0  0  0  0  0  0  0  0  0  0
  133.2310   73.5700  226.4030 C   0  0  0  0  0  0  0  0  0  0  0  0
  132.5520   74.4300  227.2610 C   0  0  0  0  0  0  0  0  0  0  0  0
  132.7320   75.7970  227.2100 C   0  0  0  0  0  0  0  0  0  0  0  0
  133.6050   76.3560  226.2880 C   0  0  0  0  0  0  0  0  0  0  0  0
  134.2720   75.4900  225.4440 C   0  0  0  0  0  0  0  0  0  0  0  0
  135.1220   76.0190  224.5440 N   0  0  0  0  0  0  0  0  0  0  0  0
  138.1450   74.2620  222.7610 H   0  0  0  0  0  0  0  0  0  0  0  0
  138.5177   75.5754  220.3778 H   0  0  0  0  0  0  0  0  0  0  0  0
  138.8482   76.9052  221.5541 H   0  0  0  0  0  0  0  0  0  0  0  0
  143.3945   75.4486  220.8263 H   0  0  0  0  0  0  0  0  0  0  0  0
  142.2786   74.0848  220.5810 H   0  0  0  0  0  0  0  0  0  0  0  0
  143.2604   74.9350  218.4150 H   0  0  0  0  0  0  0  0  0  0  0  0
  141.4822   75.0910  218.4470 H   0  0  0  0  0  0  0  0  0  0  0  0
  143.5043   77.2560  219.1605 H   0  0  0  0  0  0  0  0  0  0  0  0
  142.5222   77.1446  217.6411 H   0  0  0  0  0  0  0  0  0  0  0  0
  141.5119   78.7653  219.2191 H   0  0  0  0  0  0  0  0  0  0  0  0
  140.4319   77.3779  218.9818 H   0  0  0  0  0  0  0  0  0  0  0  0
  142.4927   77.6406  221.2727 H   0  0  0  0  0  0  0  0  0  0  0  0
  139.6972   77.9037  221.7423 H   0  0  0  0  0  0  0  0  0  0  0  0
  140.6420   79.8198  220.2932 H   0  0  0  0  0  0  0  0  0  0  0  0
  140.0627   80.3021  221.9189 H   0  0  0  0  0  0  0  0  0  0  0  0
  142.9415   79.4572  221.5274 H   0  0  0  0  0  0  0  0  0  0  0  0
  142.4561   81.0981  221.0769 H   0  0  0  0  0  0  0  0  0  0  0  0
  141.6144   79.4575  224.9062 H   0  0  0  0  0  0  0  0  0  0  0  0
  140.2395   79.9002  223.8079 H   0  0  0  0  0  0  0  0  0  0  0  0
  142.4528   77.9549  223.0592 H   0  0  0  0  0  0  0  0  0  0  0  0
  140.8635   77.4739  223.7792 H   0  0  0  0  0  0  0  0  0  0  0  0
  136.2235   73.2927  223.0062 H   0  0  0  0  0  0  0  0  0  0  0  0
  134.6839   72.2097  224.6194 H   0  0  0  0  0  0  0  0  0  0  0  0
  133.0780   72.4820  226.4562 H   0  0  0  0  0  0  0  0  0  0  0  0
  131.8536   74.0089  227.9991 H   0  0  0  0  0  0  0  0  0  0  0  0
  132.1801   76.4474  227.9045 H   0  0  0  0  0  0  0  0  0  0  0  0
  133.7595   77.4436  226.2316 H   0  0  0  0  0  0  0  0  0  0  0  0
  1  2  2  0
  2  3  1  0
  3  4  1  0
  4  5  1  0
  5  6  2  0
  5  7  1  0
  7  8  1  0
  8  9  1  0
  9 10  1  0
 10 11  1  0
 11 12  1  0
 12 13  1  0
 13 14  1  0
 14 15  1  0
 15 16  1  0
 16 17  1  0
 16 18  1  0
 16 19  1  0
 19 20  1  0
  2 21  1  0
 21 22  2  0
 22 23  1  0
 23 24  2  0
 24 25  1  0
 25 26  2  0
 26 27  1  0
 27 28  2  0
 28 29  1  0
 29 30  2  0
 12  7  1  0
 20 13  1  0
 30 21  1  0
 29 24  1  0
  3 31  1  0
  4 32  1  0
  4 33  1  0
  8 34  1  0
  8 35  1  0
  9 36  1  0
  9 37  1  0
 10 38  1  0
 10 39  1  0
 11 40  1  0
 11 41  1  0
 12 42  1  1
 13 43  1  0
 14 44  1  0
 14 45  1  0
 15 46  1  0
 15 47  1  0
 19 48  1  0
 19 49  1  0
 20 50  1  0
 20 51  1  0
 22 52  1  0
 23 53  1  0
 25 54  1  0
 26 55  1  0
 27 56  1  0
 28 57  1  0
M  END
>  <smiles>  (92) 
O=C(NCC(=O)N1CCCCC1C1CCC(F)(F)CC1)c1ccc2ccccc2n1

>  <score_type>  (92) 
oracle

>  <origin>  (92) 
autodockgpu

>  <m_score__min__energy>  (92) 
-9.5700000000000003

>  <m_primary>  (92) 
energy

>  <rmsd>  (92) 
5.542174698681717

>  <m_score__min__rmsd>  (92) 
5.542174698681717

>  <meeko>  (92) 
{"free_energy": -8.07, "intermolecular_energy": -9.56, "internal_energy": -1.88, "cluster_size": 3, "cluster_id": 3, "rank_in_cluster": 1}

>  <energy>  (92) 
-8.6

>  <cluster_rmsd>  (92) 
0.0

>  <cluster>  (92) 
2

$$$$

     RDKit          3D

 57 60  0  0  0  0  0  0  0  0999 V2000
  136.5650   77.3550  222.2350 O   0  0  0  0  0  0  0  0  0  0  0  0
  136.7170   76.2000  222.7230 C   0  0  0  0  0  0  0  0  0  0  0  0
  137.7530   75.3150  222.3460 N   0  0  0  0  0  0  0  0  0  0  0  0
  138.7050   75.7430  221.3400 C   0  0  0  0  0  0  0  0  0  0  0  0
  140.0690   75.1610  221.6150 C   0  0  0  0  0  0  0  0  0  0  0  0
  140.0740   74.1390  222.3430 O   0  0  0  0  0  0  0  0  0  0  0  0
  141.2090   75.7790  221.0590 N   0  0  0  0  0  0  0  0  0  0  0  0
  142.2720   74.9270  220.4510 C   0  0  0  0  0  0  0  0  0  0  0  0
  142.3220   75.2630  218.9720 C   0  0  0  0  0  0  0  0  0  0  0  0
  142.5510   76.7350  218.8400 C   0  0  0  0  0  0  0  0  0  0  0  0
  141.4350   77.5410  219.5070 C   0  0  0  0  0  0  0  0  0  0  0  0
  141.4700   77.1820  220.9850 C   0  0  1  0  0  0  0  0  0  0  0  0
  140.7380   78.0830  221.8910 C   0  0  0  0  0  0  0  0  0  0  0  0
  140.8110   79.5380  221.4590 C   0  0  0  0  0  0  0  0  0  0  0  0
  142.1850   80.0560  221.7350 C   0  0  0  0  0  0  0  0  0  0  0  0
  142.1900   80.4590  223.2180 C   0  0  0  0  0  0  0  0  0  0  0  0
  141.5240   81.6820  223.2780 F   0  0  0  0  0  0  0  0  0  0  0  0
  143.4590   80.6070  223.7110 F   0  0  0  0  0  0  0  0  0  0  0  0
  141.3580   79.4320  223.9330 C   0  0  0  0  0  0  0  0  0  0  0  0
  141.4370   78.0710  223.2620 C   0  0  0  0  0  0  0  0  0  0  0  0
  135.7600   75.7430  223.7470 C   0  0  0  0  0  0  0  0  0  0  0  0
  134.9640   76.6280  224.4460 C   0  0  0  0  0  0  0  0  0  0  0  0
  134.0600   76.2270  225.4100 C   0  0  0  0  0  0  0  0  0  0  0  0
  133.9690   74.8650  225.6680 C   0  0  0  0  0  0  0  0  0  0  0  0
  133.0850   74.3920  226.6210 C   0  0  0  0  0  0  0  0  0  0  0  0
  133.0300   73.0200  226.8430 C   0  0  0  0  0  0  0  0  0  0  0  0
  133.8280   72.1380  226.1420 C   0  0  0  0  0  0  0  0  0  0  0  0
  134.7170   72.6060  225.1860 C   0  0  0  0  0  0  0  0  0  0  0  0
  134.7600   73.9700  224.9750 C   0  0  0  0  0  0  0  0  0  0  0  0
  135.6180   74.4370  224.0500 N   0  0  0  0  0  0  0  0  0  0  0  0
  137.8430   74.3510  222.7840 H   0  0  0  0  0  0  0  0  0  0  0  0
  138.3613   75.4059  220.3510 H   0  0  0  0  0  0  0  0  0  0  0  0
  138.7770   76.8403  221.3654 H   0  0  0  0  0  0  0  0  0  0  0  0
  143.2432   75.1434  220.9201 H   0  0  0  0  0  0  0  0  0  0  0  0
  142.0527   73.8598  220.6027 H   0  0  0  0  0  0  0  0  0  0  0  0
  143.1445   74.7127  218.4918 H   0  0  0  0  0  0  0  0  0  0  0  0
  141.3788   74.9776  218.4832 H   0  0  0  0  0  0  0  0  0  0  0  0
  143.5093   76.9912  219.3154 H   0  0  0  0  0  0  0  0  0  0  0  0
  142.5638   76.9863  217.7692 H   0  0  0  0  0  0  0  0  0  0  0  0
  141.6116   78.6184  219.3730 H   0  0  0  0  0  0  0  0  0  0  0  0
  140.4556   77.3087  219.0634 H   0  0  0  0  0  0  0  0  0  0  0  0
  142.4643   77.3716  221.4157 H   0  0  0  0  0  0  0  0  0  0  0  0
  139.6960   77.7307  221.9001 H   0  0  0  0  0  0  0  0  0  0  0  0
  140.5966   79.6149  220.3829 H   0  0  0  0  0  0  0  0  0  0  0  0
  140.0703   80.1301  222.0165 H   0  0  0  0  0  0  0  0  0  0  0  0
  142.9344   79.2727  221.5483 H   0  0  0  0  0  0  0  0  0  0  0  0
  142.4359   80.9060  221.0834 H   0  0  0  0  0  0  0  0  0  0  0  0
  141.7192   79.3397  224.9679 H   0  0  0  0  0  0  0  0  0  0  0  0
  140.3098   79.7644  223.9067 H   0  0  0  0  0  0  0  0  0  0  0  0
  142.4942   77.8007  223.1230 H   0  0  0  0  0  0  0  0  0  0  0  0
  140.9292   77.3367  223.9046 H   0  0  0  0  0  0  0  0  0  0  0  0
  135.0538   77.7018  224.2251 H   0  0  0  0  0  0  0  0  0  0  0  0
  133.4381   76.9555  225.9509 H   0  0  0  0  0  0  0  0  0  0  0  0
  132.4429   75.0822  227.1879 H   0  0  0  0  0  0  0  0  0  0  0  0
  132.3321   72.6272  227.5971 H   0  0  0  0  0  0  0  0  0  0  0  0
  133.7583   71.0587  226.3428 H   0  0  0  0  0  0  0  0  0  0  0  0
  135.3617   71.9185  224.6188 H   0  0  0  0  0  0  0  0  0  0  0  0
  1  2  2  0
  2  3  1  0
  3  4  1  0
  4  5  1  0
  5  6  2  0
  5  7  1  0
  7  8  1  0
  8  9  1  0
  9 10  1  0
 10 11  1  0
 11 12  1  0
 12 13  1  0
 13 14  1  0
 14 15  1  0
 15 16  1  0
 16 17  1  0
 16 18  1  0
 16 19  1  0
 19 20  1  0
  2 21  1  0
 21 22  2  0
 22 23  1  0
 23 24  2  0
 24 25  1  0
 25 26  2  0
 26 27  1  0
 27 28  2  0
 28 29  1  0
 29 30  2  0
 12  7  1  0
 20 13  1  0
 30 21  1  0
 29 24  1  0
  3 31  1  0
  4 32  1  0
  4 33  1  0
  8 34  1  0
  8 35  1  0
  9 36  1  0
  9 37  1  0
 10 38  1  0
 10 39  1  0
 11 40  1  0
 11 41  1  0
 12 42  1  1
 13 43  1  0
 14 44  1  0
 14 45  1  0
 15 46  1  0
 15 47  1  0
 19 48  1  0
 19 49  1  0
 20 50  1  0
 20 51  1  0
 22 52  1  0
 23 53  1  0
 25 54  1  0
 26 55  1  0
 27 56  1  0
 28 57  1  0
M  END
>  <smiles>  (93) 
O=C(NCC(=O)N1CCCCC1C1CCC(F)(F)CC1)c1ccc2ccccc2n1

>  <score_type>  (93) 
oracle

>  <origin>  (93) 
autodockgpu

>  <m_score__min__energy>  (93) 
-9.5700000000000003

>  <m_primary>  (93) 
energy

>  <rmsd>  (93) 
5.724419225295699

>  <m_score__min__rmsd>  (93) 
5.724419225295699

>  <meeko>  (93) 
{"free_energy": -7.76, "intermolecular_energy": -9.25, "internal_energy": -2.15, "cluster_size": 3, "cluster_id": 3, "rank_in_cluster": 3}

>  <energy>  (93) 
-8.58

>  <cluster_rmsd>  (93) 
0.23

>  <cluster>  (93) 
2

$$$$

     RDKit          3D

 57 60  0  0  0  0  0  0  0  0999 V2000
  141.2300   72.1970  221.7250 O   0  0  0  0  0  0  0  0  0  0  0  0
  140.2560   72.3610  222.5130 C   0  0  0  0  0  0  0  0  0  0  0  0
  139.2470   73.3340  222.3250 N   0  0  0  0  0  0  0  0  0  0  0  0
  139.3200   74.2020  221.1670 C   0  0  0  0  0  0  0  0  0  0  0  0
  139.9960   75.5030  221.5180 C   0  0  0  0  0  0  0  0  0  0  0  0
  141.1630   75.3920  221.9670 O   0  0  0  0  0  0  0  0  0  0  0  0
  139.3030   76.7170  221.3280 N   0  0  0  0  0  0  0  0  0  0  0  0
  138.1720   76.7620  220.3560 C   0  0  0  0  0  0  0  0  0  0  0  0
  136.9130   77.0620  221.1500 C   0  0  0  0  0  0  0  0  0  0  0  0
  137.1360   78.3320  221.9080 C   0  0  0  0  0  0  0  0  0  0  0  0
  138.3250   78.2170  222.8640 C   0  0  0  0  0  0  0  0  0  0  0  0
  139.5480   77.9550  221.9990 C   0  0  1  0  0  0  0  0  0  0  0  0
  140.8560   78.1590  222.6430 C   0  0  0  0  0  0  0  0  0  0  0  0
  140.7800   79.0800  223.8500 C   0  0  0  0  0  0  0  0  0  0  0  0
  140.5740   80.4820  223.3770 C   0  0  0  0  0  0  0  0  0  0  0  0
  141.9710   81.0100  223.0160 C   0  0  0  0  0  0  0  0  0  0  0  0
  142.5810   81.3220  224.2300 F   0  0  0  0  0  0  0  0  0  0  0  0
  141.9140   82.1330  222.2350 F   0  0  0  0  0  0  0  0  0  0  0  0
  142.7090   79.8560  222.3980 C   0  0  0  0  0  0  0  0  0  0  0  0
  141.7720   78.9130  221.6630 C   0  0  0  0  0  0  0  0  0  0  0  0
  140.1600   71.4900  223.6980 C   0  0  0  0  0  0  0  0  0  0  0  0
  139.6000   70.2310  223.6320 C   0  0  0  0  0  0  0  0  0  0  0  0
  139.4980   69.3940  224.7260 C   0  0  0  0  0  0  0  0  0  0  0  0
  139.9900   69.8680  225.9350 C   0  0  0  0  0  0  0  0  0  0  0  0
  139.9210   69.0840  227.0730 C   0  0  0  0  0  0  0  0  0  0  0  0
  140.4280   69.6030  228.2610 C   0  0  0  0  0  0  0  0  0  0  0  0
  140.9880   70.8620  228.3220 C   0  0  0  0  0  0  0  0  0  0  0  0
  141.0600   71.6540  227.1860 C   0  0  0  0  0  0  0  0  0  0  0  0
  140.5540   71.1260  226.0140 C   0  0  0  0  0  0  0  0  0  0  0  0
  140.6170   71.8840  224.9030 N   0  0  0  0  0  0  0  0  0  0  0  0
  138.4440   73.4360  223.0130 H   0  0  0  0  0  0  0  0  0  0  0  0
  139.8938   73.6993  220.3745 H   0  0  0  0  0  0  0  0  0  0  0  0
  138.2982   74.4165  220.8209 H   0  0  0  0  0  0  0  0  0  0  0  0
  138.3458   77.5526  219.6112 H   0  0  0  0  0  0  0  0  0  0  0  0
  138.0783   75.8062  219.8196 H   0  0  0  0  0  0  0  0  0  0  0  0
  136.0597   77.1805  220.4660 H   0  0  0  0  0  0  0  0  0  0  0  0
  136.6929   76.2369  221.8433 H   0  0  0  0  0  0  0  0  0  0  0  0
  137.3305   79.1449  221.1929 H   0  0  0  0  0  0  0  0  0  0  0  0
  136.2348   78.5394  222.5037 H   0  0  0  0  0  0  0  0  0  0  0  0
  138.4515   79.1529  223.4281 H   0  0  0  0  0  0  0  0  0  0  0  0
  138.1726   77.4086  223.5943 H   0  0  0  0  0  0  0  0  0  0  0  0
  139.6713   78.7409  221.2393 H   0  0  0  0  0  0  0  0  0  0  0  0
  141.2139   77.1608  222.9353 H   0  0  0  0  0  0  0  0  0  0  0  0
  139.9385   78.7793  224.4914 H   0  0  0  0  0  0  0  0  0  0  0  0
  141.7139   79.0151  224.4276 H   0  0  0  0  0  0  0  0  0  0  0  0
  139.9188   80.4961  222.4935 H   0  0  0  0  0  0  0  0  0  0  0  0
  140.0923   81.1029  224.1467 H   0  0  0  0  0  0  0  0  0  0  0  0
  143.4498   80.2481  221.6856 H   0  0  0  0  0  0  0  0  0  0  0  0
  143.1965   79.2910  223.2061 H   0  0  0  0  0  0  0  0  0  0  0  0
  141.1502   79.4957  220.9674 H   0  0  0  0  0  0  0  0  0  0  0  0
  142.3791   78.1754  221.1176 H   0  0  0  0  0  0  0  0  0  0  0  0
  139.2170   69.8773  222.6634 H   0  0  0  0  0  0  0  0  0  0  0  0
  139.0463   68.3945  224.6431 H   0  0  0  0  0  0  0  0  0  0  0  0
  139.4776   68.0779  227.0398 H   0  0  0  0  0  0  0  0  0  0  0  0
  140.3808   68.9930  229.1752 H   0  0  0  0  0  0  0  0  0  0  0  0
  141.3799   71.2402  229.2777 H   0  0  0  0  0  0  0  0  0  0  0  0
  141.5017   72.6609  227.2168 H   0  0  0  0  0  0  0  0  0  0  0  0
  1  2  2  0
  2  3  1  0
  3  4  1  0
  4  5  1  0
  5  6  2  0
  5  7  1  0
  7  8  1  0
  8  9  1  0
  9 10  1  0
 10 11  1  0
 11 12  1  0
 12 13  1  0
 13 14  1  0
 14 15  1  0
 15 16  1  0
 16 17  1  0
 16 18  1  0
 16 19  1  0
 19 20  1  0
  2 21  1  0
 21 22  2  0
 22 23  1  0
 23 24  2  0
 24 25  1  0
 25 26  2  0
 26 27  1  0
 27 28  2  0
 28 29  1  0
 29 30  2  0
 12  7  1  0
 20 13  1  0
 30 21  1  0
 29 24  1  0
  3 31  1  0
  4 32  1  0
  4 33  1  0
  8 34  1  0
  8 35  1  0
  9 36  1  0
  9 37  1  0
 10 38  1  0
 10 39  1  0
 11 40  1  0
 11 41  1  0
 12 42  1  6
 13 43  1  0
 14 44  1  0
 14 45  1  0
 15 46  1  0
 15 47  1  0
 19 48  1  0
 19 49  1  0
 20 50  1  0
 20 51  1  0
 22 52  1  0
 23 53  1  0
 25 54  1  0
 26 55  1  0
 27 56  1  0
 28 57  1  0
M  END
>  <smiles>  (94) 
O=C(NCC(=O)N1CCCCC1C1CCC(F)(F)CC1)c1ccc2ccccc2n1

>  <score_type>  (94) 
oracle

>  <origin>  (94) 
autodockgpu

>  <m_score__min__energy>  (94) 
-9.5700000000000003

>  <m_primary>  (94) 
energy

>  <rmsd>  (94) 
2.826507435470403

>  <m_score__min__rmsd>  (94) 
2.826507435470403

>  <meeko>  (94) 
{"free_energy": -9.21, "intermolecular_energy": -10.7, "internal_energy": -1.3, "cluster_size": 41, "cluster_id": 1, "rank_in_cluster": 35}

>  <energy>  (94) 
-8.54

>  <cluster_rmsd>  (94) 
0.24

>  <cluster>  (94) 
2

$$$$

     RDKit          3D

 57 60  0  0  0  0  0  0  0  0999 V2000
  140.1430   70.9490  221.2190 O   0  0  0  0  0  0  0  0  0  0  0  0
  139.9610   71.6470  222.2560 C   0  0  0  0  0  0  0  0  0  0  0  0
  139.7440   73.0440  222.2360 N   0  0  0  0  0  0  0  0  0  0  0  0
  139.7280   73.7300  220.9600 C   0  0  0  0  0  0  0  0  0  0  0  0
  140.5930   74.9640  221.0050 C   0  0  0  0  0  0  0  0  0  0  0  0
  140.5340   75.6150  222.0770 O   0  0  0  0  0  0  0  0  0  0  0  0
  141.3830   75.2970  219.8850 N   0  0  0  0  0  0  0  0  0  0  0  0
  140.7720   76.0810  218.7730 C   0  0  0  0  0  0  0  0  0  0  0  0
  141.4980   77.4120  218.7120 C   0  0  0  0  0  0  0  0  0  0  0  0
  142.9590   77.1340  218.5500 C   0  0  0  0  0  0  0  0  0  0  0  0
  143.5080   76.3080  219.7140 C   0  0  0  0  0  0  0  0  0  0  0  0
  142.7640   74.9820  219.6880 C   0  0  1  0  0  0  0  0  0  0  0  0
  143.3550   73.8890  220.4780 C   0  0  0  0  0  0  0  0  0  0  0  0
  144.8710   73.8480  220.3840 C   0  0  0  0  0  0  0  0  0  0  0  0
  145.2590   73.3460  219.0310 C   0  0  0  0  0  0  0  0  0  0  0  0
  145.1880   71.8130  219.1190 C   0  0  0  0  0  0  0  0  0  0  0  0
  146.3440   71.4210  219.7920 F   0  0  0  0  0  0  0  0  0  0  0  0
  145.1590   71.2250  217.8830 F   0  0  0  0  0  0  0  0  0  0  0  0
  144.0040   71.4980  219.9890 C   0  0  0  0  0  0  0  0  0  0  0  0
  142.9130   72.5480  219.8640 C   0  0  0  0  0  0  0  0  0  0  0  0
  139.9740   70.9710  223.5660 C   0  0  0  0  0  0  0  0  0  0  0  0
  139.5030   69.6840  223.7250 C   0  0  0  0  0  0  0  0  0  0  0  0
  139.5040   69.0270  224.9400 C   0  0  0  0  0  0  0  0  0  0  0  0
  140.0080   69.7180  226.0350 C   0  0  0  0  0  0  0  0  0  0  0  0
  140.0390   69.1220  227.2830 C   0  0  0  0  0  0  0  0  0  0  0  0
  140.5540   69.8550  228.3480 C   0  0  0  0  0  0  0  0  0  0  0  0
  141.0240   71.1410  228.1850 C   0  0  0  0  0  0  0  0  0  0  0  0
  140.9950   71.7450  226.9360 C   0  0  0  0  0  0  0  0  0  0  0  0
  140.4830   71.0060  225.8880 C   0  0  0  0  0  0  0  0  0  0  0  0
  140.4490   71.5800  224.6710 N   0  0  0  0  0  0  0  0  0  0  0  0
  139.5950   73.5930  223.1340 H   0  0  0  0  0  0  0  0  0  0  0  0
  140.1071   73.0520  220.1812 H   0  0  0  0  0  0  0  0  0  0  0  0
  138.6945   74.0318  220.7348 H   0  0  0  0  0  0  0  0  0  0  0  0
  140.8919   75.5422  217.8215 H   0  0  0  0  0  0  0  0  0  0  0  0
  139.6959   76.2303  218.9452 H   0  0  0  0  0  0  0  0  0  0  0  0
  141.1322   77.9980  217.8559 H   0  0  0  0  0  0  0  0  0  0  0  0
  141.3181   77.9882  219.6316 H   0  0  0  0  0  0  0  0  0  0  0  0
  143.1149   76.5785  217.6135 H   0  0  0  0  0  0  0  0  0  0  0  0
  143.4918   78.0961  218.5298 H   0  0  0  0  0  0  0  0  0  0  0  0
  144.5877   76.1410  219.5861 H   0  0  0  0  0  0  0  0  0  0  0  0
  143.3650   76.8267  220.6734 H   0  0  0  0  0  0  0  0  0  0  0  0
  142.8700   74.4876  218.7111 H   0  0  0  0  0  0  0  0  0  0  0  0
  143.0327   74.0512  221.5171 H   0  0  0  0  0  0  0  0  0  0  0  0
  145.2776   74.8591  220.5332 H   0  0  0  0  0  0  0  0  0  0  0  0
  145.2744   73.1798  221.1591 H   0  0  0  0  0  0  0  0  0  0  0  0
  144.5594   73.7191  218.2685 H   0  0  0  0  0  0  0  0  0  0  0  0
  146.2636   73.6897  218.7436 H   0  0  0  0  0  0  0  0  0  0  0  0
  143.5937   70.5218  219.6912 H   0  0  0  0  0  0  0  0  0  0  0  0
  144.3442   71.4831  221.0350 H   0  0  0  0  0  0  0  0  0  0  0  0
  142.6822   72.7000  218.7993 H   0  0  0  0  0  0  0  0  0  0  0  0
  142.0251   72.1929  220.4076 H   0  0  0  0  0  0  0  0  0  0  0  0
  139.1086   69.1569  222.8437 H   0  0  0  0  0  0  0  0  0  0  0  0
  139.1219   68.0000  225.0366 H   0  0  0  0  0  0  0  0  0  0  0  0
  139.6670   68.0972  227.4295 H   0  0  0  0  0  0  0  0  0  0  0  0
  140.5870   69.3959  229.3471 H   0  0  0  0  0  0  0  0  0  0  0  0
  141.4240   71.6910  229.0496 H   0  0  0  0  0  0  0  0  0  0  0  0
  141.3646   72.7703  226.7870 H   0  0  0  0  0  0  0  0  0  0  0  0
  1  2  2  0
  2  3  1  0
  3  4  1  0
  4  5  1  0
  5  6  2  0
  5  7  1  0
  7  8  1  0
  8  9  1  0
  9 10  1  0
 10 11  1  0
 11 12  1  0
 12 13  1  0
 13 14  1  0
 14 15  1  0
 15 16  1  0
 16 17  1  0
 16 18  1  0
 16 19  1  0
 19 20  1  0
  2 21  1  0
 21 22  2  0
 22 23  1  0
 23 24  2  0
 24 25  1  0
 25 26  2  0
 26 27  1  0
 27 28  2  0
 28 29  1  0
 29 30  2  0
 12  7  1  0
 20 13  1  0
 30 21  1  0
 29 24  1  0
  3 31  1  0
  4 32  1  0
  4 33  1  0
  8 34  1  0
  8 35  1  0
  9 36  1  0
  9 37  1  0
 10 38  1  0
 10 39  1  0
 11 40  1  0
 11 41  1  0
 12 42  1  6
 13 43  1  0
 14 44  1  0
 14 45  1  0
 15 46  1  0
 15 47  1  0
 19 48  1  0
 19 49  1  0
 20 50  1  0
 20 51  1  0
 22 52  1  0
 23 53  1  0
 25 54  1  0
 26 55  1  0
 27 56  1  0
 28 57  1  0
M  END
>  <smiles>  (95) 
O=C(NCC(=O)N1CCCCC1C1CCC(F)(F)CC1)c1ccc2ccccc2n1

>  <score_type>  (95) 
oracle

>  <origin>  (95) 
autodockgpu

>  <m_score__min__energy>  (95) 
-9.5700000000000003

>  <m_primary>  (95) 
energy

>  <rmsd>  (95) 
1.926795062790204

>  <m_score__min__rmsd>  (95) 
1.926795062790204

>  <meeko>  (95) 
{"free_energy": -8.51, "intermolecular_energy": -10.0, "internal_energy": -2.08, "cluster_size": 6, "cluster_id": 2, "rank_in_cluster": 5}

>  <energy>  (95) 
-8.54

>  <cluster_rmsd>  (95) 
0.22

>  <cluster>  (95) 
2

$$$$

     RDKit          3D

 57 60  0  0  0  0  0  0  0  0999 V2000
  140.3050   70.9940  221.2230 O   0  0  0  0  0  0  0  0  0  0  0  0
  140.0570   71.6850  222.2510 C   0  0  0  0  0  0  0  0  0  0  0  0
  139.7870   73.0730  222.2210 N   0  0  0  0  0  0  0  0  0  0  0  0
  139.7900   73.7570  220.9430 C   0  0  0  0  0  0  0  0  0  0  0  0
  140.6630   74.9850  220.9980 C   0  0  0  0  0  0  0  0  0  0  0  0
  140.6170   75.6220  222.0790 O   0  0  0  0  0  0  0  0  0  0  0  0
  141.4440   75.3310  219.8750 N   0  0  0  0  0  0  0  0  0  0  0  0
  140.8090   76.0770  218.7510 C   0  0  0  0  0  0  0  0  0  0  0  0
  141.4900   77.4320  218.6730 C   0  0  0  0  0  0  0  0  0  0  0  0
  142.9590   77.2020  218.5190 C   0  0  0  0  0  0  0  0  0  0  0  0
  143.5340   76.4120  219.6960 C   0  0  0  0  0  0  0  0  0  0  0  0
  142.8360   75.0610  219.6870 C   0  0  1  0  0  0  0  0  0  0  0  0
  143.4620   74.0000  220.4930 C   0  0  0  0  0  0  0  0  0  0  0  0
  144.9710   73.9470  220.3260 C   0  0  0  0  0  0  0  0  0  0  0  0
  145.2900   73.3840  218.9800 C   0  0  0  0  0  0  0  0  0  0  0  0
  145.2190   71.8570  219.1380 C   0  0  0  0  0  0  0  0  0  0  0  0
  146.4050   71.4890  219.7690 F   0  0  0  0  0  0  0  0  0  0  0  0
  145.1260   71.2160  217.9320 F   0  0  0  0  0  0  0  0  0  0  0  0
  144.0780   71.5870  220.0790 C   0  0  0  0  0  0  0  0  0  0  0  0
  142.9860   72.6360  219.9610 C   0  0  0  0  0  0  0  0  0  0  0  0
  140.0490   71.0110  223.5620 C   0  0  0  0  0  0  0  0  0  0  0  0
  139.5530   69.7330  223.7190 C   0  0  0  0  0  0  0  0  0  0  0  0
  139.5330   69.0780  224.9340 C   0  0  0  0  0  0  0  0  0  0  0  0
  140.0410   69.7610  226.0320 C   0  0  0  0  0  0  0  0  0  0  0  0
  140.0530   69.1650  227.2810 C   0  0  0  0  0  0  0  0  0  0  0  0
  140.5730   69.8900  228.3500 C   0  0  0  0  0  0  0  0  0  0  0  0
  141.0680   71.1680  228.1880 C   0  0  0  0  0  0  0  0  0  0  0  0
  141.0590   71.7700  226.9390 C   0  0  0  0  0  0  0  0  0  0  0  0
  140.5410   71.0400  225.8880 C   0  0  0  0  0  0  0  0  0  0  0  0
  140.5260   71.6130  224.6700 N   0  0  0  0  0  0  0  0  0  0  0  0
  139.5830   73.6150  223.1110 H   0  0  0  0  0  0  0  0  0  0  0  0
  140.1738   73.0755  220.1695 H   0  0  0  0  0  0  0  0  0  0  0  0
  138.7613   74.0647  220.7041 H   0  0  0  0  0  0  0  0  0  0  0  0
  140.9496   75.5292  217.8075 H   0  0  0  0  0  0  0  0  0  0  0  0
  139.7279   76.1914  218.9185 H   0  0  0  0  0  0  0  0  0  0  0  0
  141.1072   77.9930  217.8077 H   0  0  0  0  0  0  0  0  0  0  0  0
  141.2877   78.0146  219.5839 H   0  0  0  0  0  0  0  0  0  0  0  0
  143.1364   76.6388  217.5909 H   0  0  0  0  0  0  0  0  0  0  0  0
  143.4581   78.1817  218.4868 H   0  0  0  0  0  0  0  0  0  0  0  0
  144.6191   76.2806  219.5724 H   0  0  0  0  0  0  0  0  0  0  0  0
  143.3715   76.9389  220.6478 H   0  0  0  0  0  0  0  0  0  0  0  0
  142.9619   74.5565  218.7177 H   0  0  0  0  0  0  0  0  0  0  0  0
  143.1921   74.2087  221.5387 H   0  0  0  0  0  0  0  0  0  0  0  0
  145.3875   74.9616  220.4099 H   0  0  0  0  0  0  0  0  0  0  0  0
  145.4102   73.3115  221.1091 H   0  0  0  0  0  0  0  0  0  0  0  0
  144.5547   73.7269  218.2372 H   0  0  0  0  0  0  0  0  0  0  0  0
  146.2805   73.7094  218.6292 H   0  0  0  0  0  0  0  0  0  0  0  0
  143.6504   70.6007  219.8456 H   0  0  0  0  0  0  0  0  0  0  0  0
  144.4694   71.6165  221.1066 H   0  0  0  0  0  0  0  0  0  0  0  0
  142.7039   72.7424  218.9031 H   0  0  0  0  0  0  0  0  0  0  0  0
  142.1244   72.3099  220.5621 H   0  0  0  0  0  0  0  0  0  0  0  0
  139.1553   69.2122  222.8355 H   0  0  0  0  0  0  0  0  0  0  0  0
  139.1317   68.0582  225.0288 H   0  0  0  0  0  0  0  0  0  0  0  0
  139.6626   68.1468  227.4252 H   0  0  0  0  0  0  0  0  0  0  0  0
  140.5897   69.4320  229.3500 H   0  0  0  0  0  0  0  0  0  0  0  0
  141.4719   71.7121  229.0545 H   0  0  0  0  0  0  0  0  0  0  0  0
  141.4488   72.7880  226.7915 H   0  0  0  0  0  0  0  0  0  0  0  0
  1  2  2  0
  2  3  1  0
  3  4  1  0
  4  5  1  0
  5  6  2  0
  5  7  1  0
  7  8  1  0
  8  9  1  0
  9 10  1  0
 10 11  1  0
 11 12  1  0
 12 13  1  0
 13 14  1  0
 14 15  1  0
 15 16  1  0
 16 17  1  0
 16 18  1  0
 16 19  1  0
 19 20  1  0
  2 21  1  0
 21 22  2  0
 22 23  1  0
 23 24  2  0
 24 25  1  0
 25 26  2  0
 26 27  1  0
 27 28  2  0
 28 29  1  0
 29 30  2  0
 12  7  1  0
 20 13  1  0
 30 21  1  0
 29 24  1  0
  3 31  1  0
  4 32  1  0
  4 33  1  0
  8 34  1  0
  8 35  1  0
  9 36  1  0
  9 37  1  0
 10 38  1  0
 10 39  1  0
 11 40  1  0
 11 41  1  0
 12 42  1  6
 13 43  1  0
 14 44  1  0
 14 45  1  0
 15 46  1  0
 15 47  1  0
 19 48  1  0
 19 49  1  0
 20 50  1  0
 20 51  1  0
 22 52  1  0
 23 53  1  0
 25 54  1  0
 26 55  1  0
 27 56  1  0
 28 57  1  0
M  END
>  <smiles>  (96) 
O=C(NCC(=O)N1CCCCC1C1CCC(F)(F)CC1)c1ccc2ccccc2n1

>  <score_type>  (96) 
oracle

>  <origin>  (96) 
autodockgpu

>  <m_score__min__energy>  (96) 
-9.5700000000000003

>  <m_primary>  (96) 
energy

>  <rmsd>  (96) 
1.9436496927741995

>  <m_score__min__rmsd>  (96) 
1.9436496927741995

>  <meeko>  (96) 
{"free_energy": -8.54, "intermolecular_energy": -10.03, "internal_energy": -2.05, "cluster_size": 6, "cluster_id": 2, "rank_in_cluster": 4}

>  <energy>  (96) 
-8.51

>  <cluster_rmsd>  (96) 
0.24

>  <cluster>  (96) 
2

$$$$

     RDKit          3D

 57 60  0  0  0  0  0  0  0  0999 V2000
  141.1030   71.5120  221.4320 O   0  0  0  0  0  0  0  0  0  0  0  0
  140.4890   72.0840  222.3760 C   0  0  0  0  0  0  0  0  0  0  0  0
  140.0120   73.4140  222.3150 N   0  0  0  0  0  0  0  0  0  0  0  0
  140.2340   74.1790  221.1040 C   0  0  0  0  0  0  0  0  0  0  0  0
  140.4390   75.6380  221.4250 C   0  0  0  0  0  0  0  0  0  0  0  0
  139.6340   76.1170  222.2600 O   0  0  0  0  0  0  0  0  0  0  0  0
  141.4810   76.3470  220.7900 N   0  0  0  0  0  0  0  0  0  0  0  0
  142.5560   75.5860  220.0900 C   0  0  0  0  0  0  0  0  0  0  0  0
  142.4630   75.9340  218.6160 C   0  0  0  0  0  0  0  0  0  0  0  0
  142.5650   77.4200  218.4860 C   0  0  0  0  0  0  0  0  0  0  0  0
  141.4460   78.1320  219.2470 C   0  0  0  0  0  0  0  0  0  0  0  0
  141.6250   77.7680  220.7130 C   0  0  1  0  0  0  0  0  0  0  0  0
  140.8980   78.6020  221.6840 C   0  0  0  0  0  0  0  0  0  0  0  0
  141.1450   80.0880  221.4840 C   0  0  0  0  0  0  0  0  0  0  0  0
  142.5290   80.4150  221.9410 C   0  0  0  0  0  0  0  0  0  0  0  0
  142.4330   80.5990  223.4640 C   0  0  0  0  0  0  0  0  0  0  0  0
  141.8800   81.8640  223.6560 F   0  0  0  0  0  0  0  0  0  0  0  0
  143.6590   80.5420  224.0710 F   0  0  0  0  0  0  0  0  0  0  0  0
  141.4470   79.5740  223.9490 C   0  0  0  0  0  0  0  0  0  0  0  0
  141.4630   78.3220  223.0890 C   0  0  0  0  0  0  0  0  0  0  0  0
  140.2520   71.3260  223.6180 C   0  0  0  0  0  0  0  0  0  0  0  0
  139.5830   70.1190  223.6170 C   0  0  0  0  0  0  0  0  0  0  0  0
  139.3480   69.3870  224.7640 C   0  0  0  0  0  0  0  0  0  0  0  0
  139.8180   69.9150  225.9600 C   0  0  0  0  0  0  0  0  0  0  0  0
  139.6180   69.2370  227.1490 C   0  0  0  0  0  0  0  0  0  0  0  0
  140.1070   69.8060  228.3210 C   0  0  0  0  0  0  0  0  0  0  0  0
  140.7750   71.0130  228.3180 C   0  0  0  0  0  0  0  0  0  0  0  0
  140.9780   71.6990  227.1300 C   0  0  0  0  0  0  0  0  0  0  0  0
  140.4890   71.1220  225.9750 C   0  0  0  0  0  0  0  0  0  0  0  0
  140.6790   71.7770  224.8140 N   0  0  0  0  0  0  0  0  0  0  0  0
  139.4990   73.8560  223.1330 H   0  0  0  0  0  0  0  0  0  0  0  0
  141.1277   73.7930  220.5918 H   0  0  0  0  0  0  0  0  0  0  0  0
  139.3503   74.0802  220.4564 H   0  0  0  0  0  0  0  0  0  0  0  0
  143.5412   75.8756  220.4845 H   0  0  0  0  0  0  0  0  0  0  0  0
  142.4334   74.5039  220.2449 H   0  0  0  0  0  0  0  0  0  0  0  0
  143.2857   75.4536  218.0662 H   0  0  0  0  0  0  0  0  0  0  0  0
  141.5098   75.5779  218.1982 H   0  0  0  0  0  0  0  0  0  0  0  0
  143.5347   77.7475  218.8890 H   0  0  0  0  0  0  0  0  0  0  0  0
  142.4737   77.6783  217.4207 H   0  0  0  0  0  0  0  0  0  0  0  0
  141.5274   79.2207  219.1126 H   0  0  0  0  0  0  0  0  0  0  0  0
  140.4557   77.8266  218.8782 H   0  0  0  0  0  0  0  0  0  0  0  0
  142.6321   78.0333  221.0670 H   0  0  0  0  0  0  0  0  0  0  0  0
  139.8317   78.3629  221.5578 H   0  0  0  0  0  0  0  0  0  0  0  0
  141.0390   80.3397  220.4184 H   0  0  0  0  0  0  0  0  0  0  0  0
  140.4139   80.6686  222.0656 H   0  0  0  0  0  0  0  0  0  0  0  0
  143.2176   79.5926  221.6969 H   0  0  0  0  0  0  0  0  0  0  0  0
  142.9163   81.3184  221.4471 H   0  0  0  0  0  0  0  0  0  0  0  0
  141.7003   79.2983  224.9833 H   0  0  0  0  0  0  0  0  0  0  0  0
  140.4408   80.0146  223.8914 H   0  0  0  0  0  0  0  0  0  0  0  0
  142.4993   77.9655  222.9941 H   0  0  0  0  0  0  0  0  0  0  0  0
  140.8326   77.5607  223.5717 H   0  0  0  0  0  0  0  0  0  0  0  0
  139.2200   69.7215  222.6577 H   0  0  0  0  0  0  0  0  0  0  0  0
  138.8118   68.4271  224.7321 H   0  0  0  0  0  0  0  0  0  0  0  0
  139.0867   68.2740  227.1676 H   0  0  0  0  0  0  0  0  0  0  0  0
  139.9569   69.2794  229.2750 H   0  0  0  0  0  0  0  0  0  0  0  0
  141.1487   71.4336  229.2632 H   0  0  0  0  0  0  0  0  0  0  0  0
  141.5069   72.6633  227.1088 H   0  0  0  0  0  0  0  0  0  0  0  0
  1  2  2  0
  2  3  1  0
  3  4  1  0
  4  5  1  0
  5  6  2  0
  5  7  1  0
  7  8  1  0
  8  9  1  0
  9 10  1  0
 10 11  1  0
 11 12  1  0
 12 13  1  0
 13 14  1  0
 14 15  1  0
 15 16  1  0
 16 17  1  0
 16 18  1  0
 16 19  1  0
 19 20  1  0
  2 21  1  0
 21 22  2  0
 22 23  1  0
 23 24  2  0
 24 25  1  0
 25 26  2  0
 26 27  1  0
 27 28  2  0
 28 29  1  0
 29 30  2  0
 12  7  1  0
 20 13  1  0
 30 21  1  0
 29 24  1  0
  3 31  1  0
  4 32  1  0
  4 33  1  0
  8 34  1  0
  8 35  1  0
  9 36  1  0
  9 37  1  0
 10 38  1  0
 10 39  1  0
 11 40  1  0
 11 41  1  0
 12 42  1  1
 13 43  1  0
 14 44  1  0
 14 45  1  0
 15 46  1  0
 15 47  1  0
 19 48  1  0
 19 49  1  0
 20 50  1  0
 20 51  1  0
 22 52  1  0
 23 53  1  0
 25 54  1  0
 26 55  1  0
 27 56  1  0
 28 57  1  0
M  END
>  <smiles>  (97) 
O=C(NCC(=O)N1CCCCC1C1CCC(F)(F)CC1)c1ccc2ccccc2n1

>  <score_type>  (97) 
oracle

>  <origin>  (97) 
autodockgpu

>  <m_score__min__energy>  (97) 
-9.5700000000000003

>  <m_primary>  (97) 
energy

>  <rmsd>  (97) 
2.058790084626738

>  <m_score__min__rmsd>  (97) 
2.058790084626738

>  <meeko>  (97) 
{"free_energy": -9.55, "intermolecular_energy": -11.04, "internal_energy": -1.65, "cluster_size": 41, "cluster_id": 1, "rank_in_cluster": 5}

>  <energy>  (97) 
-8.43

>  <cluster_rmsd>  (97) 
0.28

>  <cluster>  (97) 
2

$$$$

     RDKit          3D

 57 60  0  0  0  0  0  0  0  0999 V2000
  141.4310   72.2570  221.8340 O   0  0  0  0  0  0  0  0  0  0  0  0
  140.4130   72.4240  222.5630 C   0  0  0  0  0  0  0  0  0  0  0  0
  139.4400   73.4260  222.3410 N   0  0  0  0  0  0  0  0  0  0  0  0
  139.6070   74.3220  221.2140 C   0  0  0  0  0  0  0  0  0  0  0  0
  140.1880   75.6400  221.6610 C   0  0  0  0  0  0  0  0  0  0  0  0
  141.3320   75.5700  222.1730 O   0  0  0  0  0  0  0  0  0  0  0  0
  139.4390   76.8230  221.4860 N   0  0  0  0  0  0  0  0  0  0  0  0
  138.2490   76.8020  220.5870 C   0  0  0  0  0  0  0  0  0  0  0  0
  137.0320   77.0780  221.4510 C   0  0  0  0  0  0  0  0  0  0  0  0
  137.2540   78.3750  222.1610 C   0  0  0  0  0  0  0  0  0  0  0  0
  138.5030   78.3280  223.0430 C   0  0  0  0  0  0  0  0  0  0  0  0
  139.6790   78.0870  222.1090 C   0  0  1  0  0  0  0  0  0  0  0  0
  141.0160   78.3540  222.6650 C   0  0  0  0  0  0  0  0  0  0  0  0
  140.9740   79.2360  223.9020 C   0  0  0  0  0  0  0  0  0  0  0  0
  140.6490   80.6340  223.4890 C   0  0  0  0  0  0  0  0  0  0  0  0
  141.9820   81.2590  223.0450 C   0  0  0  0  0  0  0  0  0  0  0  0
  142.6590   81.5740  224.2220 F   0  0  0  0  0  0  0  0  0  0  0  0
  141.8000   82.3970  222.3060 F   0  0  0  0  0  0  0  0  0  0  0  0
  142.7410   80.1700  222.3400 C   0  0  0  0  0  0  0  0  0  0  0  0
  141.8110   79.1900  221.6450 C   0  0  0  0  0  0  0  0  0  0  0  0
  140.2230   71.5250  223.7150 C   0  0  0  0  0  0  0  0  0  0  0  0
  139.5760   70.3120  223.5920 C   0  0  0  0  0  0  0  0  0  0  0  0
  139.3850   69.4500  224.6540 C   0  0  0  0  0  0  0  0  0  0  0  0
  139.8760   69.8490  225.8920 C   0  0  0  0  0  0  0  0  0  0  0  0
  139.7200   69.0350  227.0000 C   0  0  0  0  0  0  0  0  0  0  0  0
  140.2290   69.4780  228.2170 C   0  0  0  0  0  0  0  0  0  0  0  0
  140.8750   70.6910  228.3350 C   0  0  0  0  0  0  0  0  0  0  0  0
  141.0350   71.5120  227.2280 C   0  0  0  0  0  0  0  0  0  0  0  0
  140.5250   71.0590  226.0270 C   0  0  0  0  0  0  0  0  0  0  0  0
  140.6730   71.8460  224.9450 N   0  0  0  0  0  0  0  0  0  0  0  0
  138.5980   73.5300  222.9800 H   0  0  0  0  0  0  0  0  0  0  0  0
  140.2847   73.8586  220.4819 H   0  0  0  0  0  0  0  0  0  0  0  0
  138.6220   74.5060  220.7601 H   0  0  0  0  0  0  0  0  0  0  0  0
  138.3466   77.5782  219.8137 H   0  0  0  0  0  0  0  0  0  0  0  0
  138.1576   75.8295  220.0812 H   0  0  0  0  0  0  0  0  0  0  0  0
  136.1339   77.1470  220.8197 H   0  0  0  0  0  0  0  0  0  0  0  0
  136.8866   76.2648  222.1773 H   0  0  0  0  0  0  0  0  0  0  0  0
  137.3738   79.1744  221.4149 H   0  0  0  0  0  0  0  0  0  0  0  0
  136.3842   78.5670  222.8065 H   0  0  0  0  0  0  0  0  0  0  0  0
  138.6291   79.2824  223.5752 H   0  0  0  0  0  0  0  0  0  0  0  0
  138.4265   77.5345  223.8010 H   0  0  0  0  0  0  0  0  0  0  0  0
  139.7257   78.8560  221.3239 H   0  0  0  0  0  0  0  0  0  0  0  0
  141.4531   77.3724  222.9006 H   0  0  0  0  0  0  0  0  0  0  0  0
  140.2021   78.8663  224.5930 H   0  0  0  0  0  0  0  0  0  0  0  0
  141.9504   79.2145  224.4082 H   0  0  0  0  0  0  0  0  0  0  0  0
  139.9310   80.6303  222.6556 H   0  0  0  0  0  0  0  0  0  0  0  0
  140.1884   81.2026  224.3103 H   0  0  0  0  0  0  0  0  0  0  0  0
  143.4024   80.6264  221.5888 H   0  0  0  0  0  0  0  0  0  0  0  0
  143.3198   79.6152  223.0932 H   0  0  0  0  0  0  0  0  0  0  0  0
  141.1058   79.7510  221.0142 H   0  0  0  0  0  0  0  0  0  0  0  0
  142.4198   78.5065  221.0350 H   0  0  0  0  0  0  0  0  0  0  0  0
  139.1950   70.0184  222.6027 H   0  0  0  0  0  0  0  0  0  0  0  0
  138.8663   68.4885  224.5258 H   0  0  0  0  0  0  0  0  0  0  0  0
  139.2079   68.0647  226.9210 H   0  0  0  0  0  0  0  0  0  0  0  0
  140.1131   68.8441  229.1085 H   0  0  0  0  0  0  0  0  0  0  0  0
  141.2657   71.0094  229.3127 H   0  0  0  0  0  0  0  0  0  0  0  0
  141.5465   72.4829  227.3037 H   0  0  0  0  0  0  0  0  0  0  0  0
  1  2  2  0
  2  3  1  0
  3  4  1  0
  4  5  1  0
  5  6  2  0
  5  7  1  0
  7  8  1  0
  8  9  1  0
  9 10  1  0
 10 11  1  0
 11 12  1  0
 12 13  1  0
 13 14  1  0
 14 15  1  0
 15 16  1  0
 16 17  1  0
 16 18  1  0
 16 19  1  0
 19 20  1  0
  2 21  1  0
 21 22  2  0
 22 23  1  0
 23 24  2  0
 24 25  1  0
 25 26  2  0
 26 27  1  0
 27 28  2  0
 28 29  1  0
 29 30  2  0
 12  7  1  0
 20 13  1  0
 30 21  1  0
 29 24  1  0
  3 31  1  0
  4 32  1  0
  4 33  1  0
  8 34  1  0
  8 35  1  0
  9 36  1  0
  9 37  1  0
 10 38  1  0
 10 39  1  0
 11 40  1  0
 11 41  1  0
 12 42  1  6
 13 43  1  0
 14 44  1  0
 14 45  1  0
 15 46  1  0
 15 47  1  0
 19 48  1  0
 19 49  1  0
 20 50  1  0
 20 51  1  0
 22 52  1  0
 23 53  1  0
 25 54  1  0
 26 55  1  0
 27 56  1  0
 28 57  1  0
M  END
>  <smiles>  (98) 
O=C(NCC(=O)N1CCCCC1C1CCC(F)(F)CC1)c1ccc2ccccc2n1

>  <score_type>  (98) 
oracle

>  <origin>  (98) 
autodockgpu

>  <m_score__min__energy>  (98) 
-9.5700000000000003

>  <m_primary>  (98) 
energy

>  <rmsd>  (98) 
2.9212313369171428

>  <m_score__min__rmsd>  (98) 
2.9212313369171428

>  <meeko>  (98) 
{"free_energy": -9.23, "intermolecular_energy": -10.73, "internal_energy": -1.26, "cluster_size": 41, "cluster_id": 1, "rank_in_cluster": 33}

>  <energy>  (98) 
-8.07

>  <cluster_rmsd>  (98) 
0.0

>  <cluster>  (98) 
3

$$$$

     RDKit          3D

 57 60  0  0  0  0  0  0  0  0999 V2000
  141.2380   71.5180  221.4790 O   0  0  0  0  0  0  0  0  0  0  0  0
  140.5850   72.0790  222.4040 C   0  0  0  0  0  0  0  0  0  0  0  0
  140.1060   73.4080  222.3350 N   0  0  0  0  0  0  0  0  0  0  0  0
  140.3720   74.1850  221.1410 C   0  0  0  0  0  0  0  0  0  0  0  0
  140.5690   75.6400  221.4840 C   0  0  0  0  0  0  0  0  0  0  0  0
  139.7950   76.0880  222.3660 O   0  0  0  0  0  0  0  0  0  0  0  0
  141.5690   76.3800  220.8190 N   0  0  0  0  0  0  0  0  0  0  0  0
  142.6560   75.6510  220.1030 C   0  0  0  0  0  0  0  0  0  0  0  0
  142.5180   75.9780  218.6280 C   0  0  0  0  0  0  0  0  0  0  0  0
  142.5610   77.4660  218.4790 C   0  0  0  0  0  0  0  0  0  0  0  0
  141.4330   78.1440  219.2580 C   0  0  0  0  0  0  0  0  0  0  0  0
  141.6580   77.8040  220.7230 C   0  0  1  0  0  0  0  0  0  0  0  0
  140.9220   78.6220  221.7010 C   0  0  0  0  0  0  0  0  0  0  0  0
  141.1540   80.1120  221.5150 C   0  0  0  0  0  0  0  0  0  0  0  0
  142.5340   80.4490  221.9760 C   0  0  0  0  0  0  0  0  0  0  0  0
  142.4350   80.6190  223.5000 C   0  0  0  0  0  0  0  0  0  0  0  0
  141.8690   81.8760  223.7020 F   0  0  0  0  0  0  0  0  0  0  0  0
  143.6610   80.5680  224.1070 F   0  0  0  0  0  0  0  0  0  0  0  0
  141.4590   79.5790  223.9750 C   0  0  0  0  0  0  0  0  0  0  0  0
  141.4880   78.3350  223.1030 C   0  0  0  0  0  0  0  0  0  0  0  0
  140.3020   71.3080  223.6280 C   0  0  0  0  0  0  0  0  0  0  0  0
  139.6290   70.1050  223.5900 C   0  0  0  0  0  0  0  0  0  0  0  0
  139.3520   69.3620  224.7210 C   0  0  0  0  0  0  0  0  0  0  0  0
  139.7820   69.8750  225.9380 C   0  0  0  0  0  0  0  0  0  0  0  0
  139.5380   69.1840  227.1120 C   0  0  0  0  0  0  0  0  0  0  0  0
  139.9890   69.7390  228.3060 C   0  0  0  0  0  0  0  0  0  0  0  0
  140.6620   70.9430  228.3390 C   0  0  0  0  0  0  0  0  0  0  0  0
  140.9090   71.6400  227.1660 C   0  0  0  0  0  0  0  0  0  0  0  0
  140.4570   71.0780  225.9890 C   0  0  0  0  0  0  0  0  0  0  0  0
  140.6900   71.7450  224.8430 N   0  0  0  0  0  0  0  0  0  0  0  0
  139.5590   73.8400  223.1370 H   0  0  0  0  0  0  0  0  0  0  0  0
  141.2822   73.8019  220.6564 H   0  0  0  0  0  0  0  0  0  0  0  0
  139.5111   74.0954  220.4621 H   0  0  0  0  0  0  0  0  0  0  0  0
  143.6382   75.9813  220.4721 H   0  0  0  0  0  0  0  0  0  0  0  0
  142.5769   74.5670  220.2721 H   0  0  0  0  0  0  0  0  0  0  0  0
  143.3462   75.5223  218.0654 H   0  0  0  0  0  0  0  0  0  0  0  0
  141.5699   75.5816  218.2355 H   0  0  0  0  0  0  0  0  0  0  0  0
  143.5265   77.8345  218.8560 H   0  0  0  0  0  0  0  0  0  0  0  0
  142.4363   77.7082  217.4133 H   0  0  0  0  0  0  0  0  0  0  0  0
  141.4700   79.2334  219.1103 H   0  0  0  0  0  0  0  0  0  0  0  0
  140.4471   77.7971  218.9151 H   0  0  0  0  0  0  0  0  0  0  0  0
  142.6623   78.1103  221.0510 H   0  0  0  0  0  0  0  0  0  0  0  0
  139.8583   78.3734  221.5715 H   0  0  0  0  0  0  0  0  0  0  0  0
  141.0462   80.3724  220.4517 H   0  0  0  0  0  0  0  0  0  0  0  0
  140.4166   80.6796  222.1015 H   0  0  0  0  0  0  0  0  0  0  0  0
  143.2311   79.6357  221.7255 H   0  0  0  0  0  0  0  0  0  0  0  0
  142.9125   81.3604  221.4901 H   0  0  0  0  0  0  0  0  0  0  0  0
  141.7147   79.2962  225.0068 H   0  0  0  0  0  0  0  0  0  0  0  0
  140.4483   80.0098  223.9210 H   0  0  0  0  0  0  0  0  0  0  0  0
  142.5278   77.9896  223.0059 H   0  0  0  0  0  0  0  0  0  0  0  0
  140.8645   77.5632  223.5780 H   0  0  0  0  0  0  0  0  0  0  0  0
  139.2976   69.7195  222.6145 H   0  0  0  0  0  0  0  0  0  0  0  0
  138.8137   68.4046  224.6604 H   0  0  0  0  0  0  0  0  0  0  0  0
  139.0026   68.2231  227.1017 H   0  0  0  0  0  0  0  0  0  0  0  0
  139.8039   69.2033  229.2488 H   0  0  0  0  0  0  0  0  0  0  0  0
  141.0044   71.3522  229.3009 H   0  0  0  0  0  0  0  0  0  0  0  0
  141.4433   72.6015  227.1731 H   0  0  0  0  0  0  0  0  0  0  0  0
  1  2  2  0
  2  3  1  0
  3  4  1  0
  4  5  1  0
  5  6  2  0
  5  7  1  0
  7  8  1  0
  8  9  1  0
  9 10  1  0
 10 11  1  0
 11 12  1  0
 12 13  1  0
 13 14  1  0
 14 15  1  0
 15 16  1  0
 16 17  1  0
 16 18  1  0
 16 19  1  0
 19 20  1  0
  2 21  1  0
 21 22  2  0
 22 23  1  0
 23 24  2  0
 24 25  1  0
 25 26  2  0
 26 27  1  0
 27 28  2  0
 28 29  1  0
 29 30  2  0
 12  7  1  0
 20 13  1  0
 30 21  1  0
 29 24  1  0
  3 31  1  0
  4 32  1  0
  4 33  1  0
  8 34  1  0
  8 35  1  0
  9 36  1  0
  9 37  1  0
 10 38  1  0
 10 39  1  0
 11 40  1  0
 11 41  1  0
 12 42  1  1
 13 43  1  0
 14 44  1  0
 14 45  1  0
 15 46  1  0
 15 47  1  0
 19 48  1  0
 19 49  1  0
 20 50  1  0
 20 51  1  0
 22 52  1  0
 23 53  1  0
 25 54  1  0
 26 55  1  0
 27 56  1  0
 28 57  1  0
M  END
>  <smiles>  (99) 
O=C(NCC(=O)N1CCCCC1C1CCC(F)(F)CC1)c1ccc2ccccc2n1

>  <score_type>  (99) 
oracle

>  <origin>  (99) 
autodockgpu

>  <m_score__min__energy>  (99) 
-9.5700000000000003

>  <m_primary>  (99) 
energy

>  <rmsd>  (99) 
2.111681801893617

>  <m_score__min__rmsd>  (99) 
2.111681801893617

>  <meeko>  (99) 
{"free_energy": -9.54, "intermolecular_energy": -11.03, "internal_energy": -1.67, "cluster_size": 41, "cluster_id": 1, "rank_in_cluster": 11}

>  <energy>  (99) 
-7.82

>  <cluster_rmsd>  (99) 
0.66

>  <cluster>  (99) 
3

$$$$

     RDKit          3D

 57 60  0  0  0  0  0  0  0  0999 V2000
  141.3910   72.1810  221.5760 O   0  0  0  0  0  0  0  0  0  0  0  0
  140.5170   72.5240  222.4220 C   0  0  0  0  0  0  0  0  0  0  0  0
  139.7730   73.7230  222.3440 N   0  0  0  0  0  0  0  0  0  0  0  0
  140.0160   74.6240  221.2350 C   0  0  0  0  0  0  0  0  0  0  0  0
  139.3120   75.9400  221.4520 C   0  0  0  0  0  0  0  0  0  0  0  0
  138.4770   75.9480  222.3890 O   0  0  0  0  0  0  0  0  0  0  0  0
  139.6240   77.0370  220.6210 N   0  0  0  0  0  0  0  0  0  0  0  0
  139.8310   76.8070  219.1620 C   0  0  0  0  0  0  0  0  0  0  0  0
  138.7310   77.5560  218.4310 C   0  0  0  0  0  0  0  0  0  0  0  0
  138.7910   78.9900  218.8520 C   0  0  0  0  0  0  0  0  0  0  0  0
  138.5940   79.1440  220.3610 C   0  0  0  0  0  0  0  0  0  0  0  0
  139.7470   78.4040  221.0220 C   0  0  1  0  0  0  0  0  0  0  0  0
  139.9800   78.7020  222.4440 C   0  0  0  0  0  0  0  0  0  0  0  0
  140.0550   80.1930  222.7290 C   0  0  0  0  0  0  0  0  0  0  0  0
  141.3490   80.7220  222.2020 C   0  0  0  0  0  0  0  0  0  0  0  0
  142.3940   80.4260  223.2890 C   0  0  0  0  0  0  0  0  0  0  0  0
  142.1960   81.3920  224.2740 F   0  0  0  0  0  0  0  0  0  0  0  0
  143.6750   80.5170  222.8150 F   0  0  0  0  0  0  0  0  0  0  0  0
  142.0340   79.0840  223.8630 C   0  0  0  0  0  0  0  0  0  0  0  0
  141.3780   78.1850  222.8290 C   0  0  0  0  0  0  0  0  0  0  0  0
  140.2540   71.6240  223.5590 C   0  0  0  0  0  0  0  0  0  0  0  0
  139.5610   70.4410  223.4060 C   0  0  0  0  0  0  0  0  0  0  0  0
  139.3010   69.5790  224.4530 C   0  0  0  0  0  0  0  0  0  0  0  0
  139.7700   69.9460  225.7080 C   0  0  0  0  0  0  0  0  0  0  0  0
  139.5460   69.1310  226.8030 C   0  0  0  0  0  0  0  0  0  0  0  0
  140.0360   69.5420  228.0390 C   0  0  0  0  0  0  0  0  0  0  0  0
  140.7290   70.7260  228.1890 C   0  0  0  0  0  0  0  0  0  0  0  0
  140.9570   71.5480  227.0950 C   0  0  0  0  0  0  0  0  0  0  0  0
  140.4660   71.1270  225.8750 C   0  0  0  0  0  0  0  0  0  0  0  0
  140.6800   71.9150  224.8050 N   0  0  0  0  0  0  0  0  0  0  0  0
  139.0470   73.9720  223.0780 H   0  0  0  0  0  0  0  0  0  0  0  0
  141.0976   74.8036  221.1463 H   0  0  0  0  0  0  0  0  0  0  0  0
  139.6283   74.1636  220.3143 H   0  0  0  0  0  0  0  0  0  0  0  0
  140.8158   77.1897  218.8558 H   0  0  0  0  0  0  0  0  0  0  0  0
  139.7965   75.7331  218.9264 H   0  0  0  0  0  0  0  0  0  0  0  0
  138.8850   77.4790  217.3446 H   0  0  0  0  0  0  0  0  0  0  0  0
  137.7482   77.1264  218.6752 H   0  0  0  0  0  0  0  0  0  0  0  0
  139.7731   79.4018  218.5766 H   0  0  0  0  0  0  0  0  0  0  0  0
  137.9803   79.5317  218.3428 H   0  0  0  0  0  0  0  0  0  0  0  0
  138.6142   80.2076  220.6408 H   0  0  0  0  0  0  0  0  0  0  0  0
  137.6233   78.7367  220.6802 H   0  0  0  0  0  0  0  0  0  0  0  0
  140.7170   78.7817  220.6663 H   0  0  0  0  0  0  0  0  0  0  0  0
  139.1472   78.2407  222.9951 H   0  0  0  0  0  0  0  0  0  0  0  0
  139.2173   80.7061  222.2340 H   0  0  0  0  0  0  0  0  0  0  0  0
  139.9945   80.3687  223.8132 H   0  0  0  0  0  0  0  0  0  0  0  0
  141.6172   80.2140  221.2639 H   0  0  0  0  0  0  0  0  0  0  0  0
  141.2874   81.7978  221.9808 H   0  0  0  0  0  0  0  0  0  0  0  0
  142.9495   78.5963  224.2292 H   0  0  0  0  0  0  0  0  0  0  0  0
  141.3164   79.2438  224.6812 H   0  0  0  0  0  0  0  0  0  0  0  0
  142.0092   78.1546  221.9286 H   0  0  0  0  0  0  0  0  0  0  0  0
  141.2691   77.1798  223.2623 H   0  0  0  0  0  0  0  0  0  0  0  0
  139.1986   70.1718  222.4029 H   0  0  0  0  0  0  0  0  0  0  0  0
  138.7461   68.6417  224.2998 H   0  0  0  0  0  0  0  0  0  0  0  0
  138.9958   68.1841  226.6996 H   0  0  0  0  0  0  0  0  0  0  0  0
  139.8663   68.9059  228.9203 H   0  0  0  0  0  0  0  0  0  0  0  0
  141.1025   71.0194  229.1812 H   0  0  0  0  0  0  0  0  0  0  0  0
  141.5061   72.4958  227.1953 H   0  0  0  0  0  0  0  0  0  0  0  0
  1  2  2  0
  2  3  1  0
  3  4  1  0
  4  5  1  0
  5  6  2  0
  5  7  1  0
  7  8  1  0
  8  9  1  0
  9 10  1  0
 10 11  1  0
 11 12  1  0
 12 13  1  0
 13 14  1  0
 14 15  1  0
 15 16  1  0
 16 17  1  0
 16 18  1  0
 16 19  1  0
 19 20  1  0
  2 21  1  0
 21 22  2  0
 22 23  1  0
 23 24  2  0
 24 25  1  0
 25 26  2  0
 26 27  1  0
 27 28  2  0
 28 29  1  0
 29 30  2  0
 12  7  1  0
 20 13  1  0
 30 21  1  0
 29 24  1  0
  3 31  1  0
  4 32  1  0
  4 33  1  0
  8 34  1  0
  8 35  1  0
  9 36  1  0
  9 37  1  0
 10 38  1  0
 10 39  1  0
 11 40  1  0
 11 41  1  0
 12 42  1  6
 13 43  1  0
 14 44  1  0
 14 45  1  0
 15 46  1  0
 15 47  1  0
 19 48  1  0
 19 49  1  0
 20 50  1  0
 20 51  1  0
 22 52  1  0
 23 53  1  0
 25 54  1  0
 26 55  1  0
 27 56  1  0
 28 57  1  0
M  END
>  <smiles>  (100) 
O=C(NCC(=O)N1CCCCC1C1CCC(F)(F)CC1)c1ccc2ccccc2n1

>  <score_type>  (100) 
oracle

>  <origin>  (100) 
autodockgpu

>  <m_score__min__energy>  (100) 
-9.5700000000000003

>  <m_primary>  (100) 
energy

>  <rmsd>  (100) 
2.2329777740407923

>  <m_score__min__rmsd>  (100) 
2.2329777740407923

>  <meeko>  (100) 
{"free_energy": -8.3, "intermolecular_energy": -9.79, "internal_energy": -1.93, "cluster_size": 41, "cluster_id": 1, "rank_in_cluster": 40}

>  <energy>  (100) 
-7.76

>  <cluster_rmsd>  (100) 
0.65

>  <cluster>  (100) 
3

$$$$
