
     RDKit          3D

 60 64  0  0  0  0  0  0  0  0999 V2000
  139.1340   69.7020  228.7360 C   0  0  0  0  0  0  0  0  0  0  0  0
  140.5370   69.5760  228.4240 N   0  0  0  0  0  0  0  0  0  0  0  0
  141.0740   70.7410  227.7900 C   0  0  0  0  0  0  0  0  0  0  0  0
  140.8560   70.8270  226.3160 C   0  0  0  0  0  0  0  0  0  0  0  0
  140.0790   69.7540  225.7550 N   0  0  0  0  0  0  0  0  0  0  0  0
  139.1680   69.9440  224.6610 C   0  0  0  0  0  0  0  0  0  0  0  0
  137.9430   69.3080  224.6290 C   0  0  0  0  0  0  0  0  0  0  0  0
  137.0680   69.4930  223.5710 C   0  0  0  0  0  0  0  0  0  0  0  0
  137.4270   70.3350  222.5190 C   0  0  0  0  0  0  0  0  0  0  0  0
  138.6590   70.9650  222.5660 C   0  0  0  0  0  0  0  0  0  0  0  0
  139.5360   70.7790  223.6270 C   0  0  0  0  0  0  0  0  0  0  0  0
  140.7230   71.5900  223.3420 C   0  0  0  0  0  0  0  0  0  0  0  0
  140.4110   72.2370  222.0250 C   0  0  0  0  0  0  0  0  0  0  0  0
  141.3320   73.1590  221.3280 C   0  0  0  0  0  0  0  0  0  0  0  0
  142.5290   72.7110  220.8050 C   0  0  0  0  0  0  0  0  0  0  0  0
  143.3290   73.6520  220.1660 C   0  0  0  0  0  0  0  0  0  0  0  0
  142.9590   74.9720  220.0530 C   0  0  0  0  0  0  0  0  0  0  0  0
  141.7620   75.4190  220.5750 C   0  0  0  0  0  0  0  0  0  0  0  0
  141.3220   76.8090  220.4830 C   0  0  0  0  0  0  0  0  0  0  0  0
  140.1030   77.0720  220.6300 O   0  0  0  0  0  0  0  0  0  0  0  0
  142.2010   77.8930  220.2340 N   0  0  0  0  0  0  0  0  0  0  0  0
  141.8040   79.2690  220.1380 C   0  0  0  0  0  0  0  0  0  0  0  0
  141.8970   80.0400  221.3790 C   0  0  0  0  0  0  0  0  0  0  0  0
  142.5660   79.4750  222.4600 C   0  0  0  0  0  0  0  0  0  0  0  0
  142.7070   80.1280  223.6670 C   0  0  0  0  0  0  0  0  0  0  0  0
  142.1780   81.3890  223.8450 C   0  0  0  0  0  0  0  0  0  0  0  0
  141.5180   81.9490  222.7790 C   0  0  0  0  0  0  0  0  0  0  0  0
  141.3760   81.2990  221.5740 C   0  0  0  0  0  0  0  0  0  0  0  0
  140.9730   74.4850  221.2070 C   0  0  0  0  0  0  0  0  0  0  0  0
  139.2390   71.8560  221.6270 N   0  0  0  0  0  0  0  0  0  0  0  0
  140.1840   68.4060  226.2840 C   0  0  0  0  0  0  0  0  0  0  0  0
  140.8650   68.4150  227.6490 C   0  0  0  0  0  0  0  0  0  0  0  0
  139.0008   69.7140  229.8278 H   0  0  0  0  0  0  0  0  0  0  0  0
  138.7461   70.6386  228.3090 H   0  0  0  0  0  0  0  0  0  0  0  0
  138.5854   68.8495  228.3090 H   0  0  0  0  0  0  0  0  0  0  0  0
  140.6097   71.6239  228.2536 H   0  0  0  0  0  0  0  0  0  0  0  0
  142.1635   70.6878  227.9321 H   0  0  0  0  0  0  0  0  0  0  0  0
  140.3370   71.7729  226.1020 H   0  0  0  0  0  0  0  0  0  0  0  0
  141.8515   70.7621  225.8526 H   0  0  0  0  0  0  0  0  0  0  0  0
  137.6570   68.6433  225.4574 H   0  0  0  0  0  0  0  0  0  0  0  0
  136.0957   68.9787  223.5608 H   0  0  0  0  0  0  0  0  0  0  0  0
  136.7461   70.4952  221.6701 H   0  0  0  0  0  0  0  0  0  0  0  0
  140.8757   72.3483  224.1240 H   0  0  0  0  0  0  0  0  0  0  0  0
  141.6469   70.9937  223.3131 H   0  0  0  0  0  0  0  0  0  0  0  0
  142.8356   71.6580  220.8900 H   0  0  0  0  0  0  0  0  0  0  0  0
  144.2893   73.3302  219.7368 H   0  0  0  0  0  0  0  0  0  0  0  0
  143.6258   75.6806  219.5399 H   0  0  0  0  0  0  0  0  0  0  0  0
  143.2150   77.6750  220.1100 H   0  0  0  0  0  0  0  0  0  0  0  0
  142.4453   79.7552  219.3881 H   0  0  0  0  0  0  0  0  0  0  0  0
  140.7375   79.2574  219.8689 H   0  0  0  0  0  0  0  0  0  0  0  0
  142.9987   78.4699  222.3481 H   0  0  0  0  0  0  0  0  0  0  0  0
  143.2450   79.6396  224.4929 H   0  0  0  0  0  0  0  0  0  0  0  0
  142.2804   81.9238  224.8008 H   0  0  0  0  0  0  0  0  0  0  0  0
  141.0867   82.9546  222.8923 H   0  0  0  0  0  0  0  0  0  0  0  0
  140.8370   81.7942  220.7529 H   0  0  0  0  0  0  0  0  0  0  0  0
  140.0133   74.8107  221.6347 H   0  0  0  0  0  0  0  0  0  0  0  0
  139.1757   67.9784  226.3861 H   0  0  0  0  0  0  0  0  0  0  0  0
  140.7867   67.7999  225.5916 H   0  0  0  0  0  0  0  0  0  0  0  0
  140.5497   67.5200  228.2054 H   0  0  0  0  0  0  0  0  0  0  0  0
  141.9516   68.4261  227.4779 H   0  0  0  0  0  0  0  0  0  0  0  0
  1  2  1  0
  2  3  1  0
  3  4  1  0
  4  5  1  0
  5  6  1  0
  6  7  2  0
  7  8  1  0
  8  9  2  0
  9 10  1  0
 10 11  2  0
 11 12  1  0
 12 13  1  0
 13 14  1  0
 14 15  2  0
 15 16  1  0
 16 17  2  0
 17 18  1  0
 18 19  1  0
 19 20  2  0
 19 21  1  0
 21 22  1  0
 22 23  1  0
 23 24  2  0
 24 25  1  0
 25 26  2  0
 26 27  1  0
 27 28  2  0
 18 29  2  0
 13 30  2  0
  5 31  1  0
 31 32  1  0
 32  2  1  0
 11  6  1  0
 29 14  1  0
 30 10  1  0
 28 23  1  0
  1 33  1  0
  1 34  1  0
  1 35  1  0
  3 36  1  0
  3 37  1  0
  4 38  1  0
  4 39  1  0
  7 40  1  0
  8 41  1  0
  9 42  1  0
 12 43  1  0
 12 44  1  0
 15 45  1  0
 16 46  1  0
 17 47  1  0
 21 48  1  0
 22 49  1  0
 22 50  1  0
 24 51  1  0
 25 52  1  0
 26 53  1  0
 27 54  1  0
 28 55  1  0
 29 56  1  0
 31 57  1  0
 31 58  1  0
 32 59  1  0
 32 60  1  0
M  END
>  <smiles>  (1) 
CN1CCN(c2cccc3c2CC(c2cccc(C(=O)NCc4ccccc4)c2)=N3)CC1

>  <score_type>  (1) 
oracle

>  <origin>  (1) 
autodockgpu

>  <m_score__min__energy>  (1) 
-9.5899999999999999

>  <m_primary>  (1) 
energy

>  <rmsd>  (1) 
8.694649030300805

>  <m_score__min__rmsd>  (1) 
8.694649030300805

>  <meeko>  (1) 
{"free_energy": -9.43, "intermolecular_energy": -10.92, "internal_energy": -1.14, "cluster_size": 6, "cluster_id": 2, "rank_in_cluster": 3}

>  <energy>  (1) 
-9.59

>  <cluster_rmsd>  (1) 
0.0

>  <cluster>  (1) 
1

$$$$

     RDKit          3D

 60 64  0  0  0  0  0  0  0  0999 V2000
  139.0720   69.7810  228.7000 C   0  0  0  0  0  0  0  0  0  0  0  0
  140.4650   69.5950  228.3730 N   0  0  0  0  0  0  0  0  0  0  0  0
  141.0780   70.7780  227.8490 C   0  0  0  0  0  0  0  0  0  0  0  0
  140.8690   71.0160  226.3910 C   0  0  0  0  0  0  0  0  0  0  0  0
  140.0250   70.0550  225.7340 N   0  0  0  0  0  0  0  0  0  0  0  0
  139.1310   70.4050  224.6660 C   0  0  0  0  0  0  0  0  0  0  0  0
  137.8030   70.0300  224.6900 C   0  0  0  0  0  0  0  0  0  0  0  0
  136.9450   70.3710  223.6570 C   0  0  0  0  0  0  0  0  0  0  0  0
  137.4260   71.1040  222.5740 C   0  0  0  0  0  0  0  0  0  0  0  0
  138.7610   71.4720  222.5650 C   0  0  0  0  0  0  0  0  0  0  0  0
  139.6210   71.1310  223.6000 C   0  0  0  0  0  0  0  0  0  0  0  0
  140.9360   71.6800  223.2570 C   0  0  0  0  0  0  0  0  0  0  0  0
  140.7120   72.3540  221.9350 C   0  0  0  0  0  0  0  0  0  0  0  0
  141.7730   73.0570  221.1860 C   0  0  0  0  0  0  0  0  0  0  0  0
  142.9490   72.4180  220.8440 C   0  0  0  0  0  0  0  0  0  0  0  0
  143.8880   73.1620  220.1380 C   0  0  0  0  0  0  0  0  0  0  0  0
  143.6710   74.4750  219.7900 C   0  0  0  0  0  0  0  0  0  0  0  0
  142.4960   75.1130  220.1310 C   0  0  0  0  0  0  0  0  0  0  0  0
  142.2150   76.5040  219.7860 C   0  0  0  0  0  0  0  0  0  0  0  0
  142.1220   76.8240  218.5760 O   0  0  0  0  0  0  0  0  0  0  0  0
  142.0390   77.5290  220.7510 N   0  0  0  0  0  0  0  0  0  0  0  0
  141.7620   78.9040  220.4480 C   0  0  0  0  0  0  0  0  0  0  0  0
  141.8630   79.8310  221.5770 C   0  0  0  0  0  0  0  0  0  0  0  0
  142.5140   79.4020  222.7300 C   0  0  0  0  0  0  0  0  0  0  0  0
  142.6610   80.2050  223.8410 C   0  0  0  0  0  0  0  0  0  0  0  0
  142.1550   81.4880  223.8460 C   0  0  0  0  0  0  0  0  0  0  0  0
  141.5110   81.9140  222.7110 C   0  0  0  0  0  0  0  0  0  0  0  0
  141.3640   81.1140  221.6010 C   0  0  0  0  0  0  0  0  0  0  0  0
  141.5690   74.3730  220.8300 C   0  0  0  0  0  0  0  0  0  0  0  0
  139.4730   72.2110  221.5860 N   0  0  0  0  0  0  0  0  0  0  0  0
  140.0420   68.6580  226.1320 C   0  0  0  0  0  0  0  0  0  0  0  0
  140.7180   68.4940  227.4900 C   0  0  0  0  0  0  0  0  0  0  0  0
  138.9510   69.7972  229.7932 H   0  0  0  0  0  0  0  0  0  0  0  0
  138.7204   70.7341  228.2780 H   0  0  0  0  0  0  0  0  0  0  0  0
  138.4827   68.9536  228.2780 H   0  0  0  0  0  0  0  0  0  0  0  0
  140.6709   71.6415  228.3954 H   0  0  0  0  0  0  0  0  0  0  0  0
  142.1615   70.6415  227.9812 H   0  0  0  0  0  0  0  0  0  0  0  0
  140.4137   72.0099  226.2692 H   0  0  0  0  0  0  0  0  0  0  0  0
  141.8592   70.9289  225.9199 H   0  0  0  0  0  0  0  0  0  0  0  0
  137.4196   69.4510  225.5431 H   0  0  0  0  0  0  0  0  0  0  0  0
  135.8891   70.0645  223.6916 H   0  0  0  0  0  0  0  0  0  0  0  0
  136.7600   71.3841  221.7445 H   0  0  0  0  0  0  0  0  0  0  0  0
  141.2672   72.4052  224.0149 H   0  0  0  0  0  0  0  0  0  0  0  0
  141.7192   70.9089  223.2128 H   0  0  0  0  0  0  0  0  0  0  0  0
  143.1342   71.3688  221.1176 H   0  0  0  0  0  0  0  0  0  0  0  0
  144.8358   72.6847  219.8482 H   0  0  0  0  0  0  0  0  0  0  0  0
  144.4444   75.0236  219.2325 H   0  0  0  0  0  0  0  0  0  0  0  0
  142.1180   77.2640  221.7580 H   0  0  0  0  0  0  0  0  0  0  0  0
  142.4742   79.2311  219.6762 H   0  0  0  0  0  0  0  0  0  0  0  0
  140.7113   78.9361  220.1240 H   0  0  0  0  0  0  0  0  0  0  0  0
  142.9272   78.3829  222.7558 H   0  0  0  0  0  0  0  0  0  0  0  0
  143.1848   79.8202  224.7285 H   0  0  0  0  0  0  0  0  0  0  0  0
  142.2630   82.1429  224.7232 H   0  0  0  0  0  0  0  0  0  0  0  0
  141.0970   82.9329  222.6879 H   0  0  0  0  0  0  0  0  0  0  0  0
  140.8388   81.5063  220.7177 H   0  0  0  0  0  0  0  0  0  0  0  0
  140.6224   74.8539  221.1175 H   0  0  0  0  0  0  0  0  0  0  0  0
  139.0081   68.2878  226.1959 H   0  0  0  0  0  0  0  0  0  0  0  0
  140.6068   68.0831  225.3833 H   0  0  0  0  0  0  0  0  0  0  0  0
  140.3432   67.5730  227.9603 H   0  0  0  0  0  0  0  0  0  0  0  0
  141.8034   68.4510  227.3167 H   0  0  0  0  0  0  0  0  0  0  0  0
  1  2  1  0
  2  3  1  0
  3  4  1  0
  4  5  1  0
  5  6  1  0
  6  7  2  0
  7  8  1  0
  8  9  2  0
  9 10  1  0
 10 11  2  0
 11 12  1  0
 12 13  1  0
 13 14  1  0
 14 15  2  0
 15 16  1  0
 16 17  2  0
 17 18  1  0
 18 19  1  0
 19 20  2  0
 19 21  1  0
 21 22  1  0
 22 23  1  0
 23 24  2  0
 24 25  1  0
 25 26  2  0
 26 27  1  0
 27 28  2  0
 18 29  2  0
 13 30  2  0
  5 31  1  0
 31 32  1  0
 32  2  1  0
 11  6  1  0
 29 14  1  0
 30 10  1  0
 28 23  1  0
  1 33  1  0
  1 34  1  0
  1 35  1  0
  3 36  1  0
  3 37  1  0
  4 38  1  0
  4 39  1  0
  7 40  1  0
  8 41  1  0
  9 42  1  0
 12 43  1  0
 12 44  1  0
 15 45  1  0
 16 46  1  0
 17 47  1  0
 21 48  1  0
 22 49  1  0
 22 50  1  0
 24 51  1  0
 25 52  1  0
 26 53  1  0
 27 54  1  0
 28 55  1  0
 29 56  1  0
 31 57  1  0
 31 58  1  0
 32 59  1  0
 32 60  1  0
M  END
>  <smiles>  (2) 
CN1CCN(c2cccc3c2CC(c2cccc(C(=O)NCc4ccccc4)c2)=N3)CC1

>  <score_type>  (2) 
oracle

>  <origin>  (2) 
autodockgpu

>  <m_score__min__energy>  (2) 
-9.5899999999999999

>  <m_primary>  (2) 
energy

>  <rmsd>  (2) 
8.690001371224238

>  <m_score__min__rmsd>  (2) 
8.690001371224238

>  <meeko>  (2) 
{"free_energy": -9.39, "intermolecular_energy": -10.88, "internal_energy": -1.06, "cluster_size": 6, "cluster_id": 2, "rank_in_cluster": 4}

>  <energy>  (2) 
-9.59

>  <cluster_rmsd>  (2) 
0.21

>  <cluster>  (2) 
1

$$$$

     RDKit          3D

 60 64  0  0  0  0  0  0  0  0999 V2000
  139.1100   81.0920  218.7270 C   0  0  0  0  0  0  0  0  0  0  0  0
  140.3140   81.7480  218.2770 N   0  0  0  0  0  0  0  0  0  0  0  0
  141.3940   80.8370  218.0490 C   0  0  0  0  0  0  0  0  0  0  0  0
  142.1750   80.4520  219.2620 C   0  0  0  0  0  0  0  0  0  0  0  0
  141.6870   81.0040  220.4970 N   0  0  0  0  0  0  0  0  0  0  0  0
  141.7420   80.2920  221.7420 C   0  0  0  0  0  0  0  0  0  0  0  0
  142.1330   80.9170  222.9100 C   0  0  0  0  0  0  0  0  0  0  0  0
  142.1860   80.2250  224.1090 C   0  0  0  0  0  0  0  0  0  0  0  0
  141.8390   78.8750  224.1420 C   0  0  0  0  0  0  0  0  0  0  0  0
  141.4490   78.2630  222.9630 C   0  0  0  0  0  0  0  0  0  0  0  0
  141.3970   78.9560  221.7610 C   0  0  0  0  0  0  0  0  0  0  0  0
  140.9500   78.0030  220.7410 C   0  0  0  0  0  0  0  0  0  0  0  0
  140.7620   76.7230  221.5010 C   0  0  0  0  0  0  0  0  0  0  0  0
  140.3130   75.4610  220.8780 C   0  0  0  0  0  0  0  0  0  0  0  0
  139.8370   75.4340  219.5820 C   0  0  0  0  0  0  0  0  0  0  0  0
  139.4390   74.1990  219.0820 C   0  0  0  0  0  0  0  0  0  0  0  0
  139.5070   73.0490  219.8320 C   0  0  0  0  0  0  0  0  0  0  0  0
  139.9830   73.0750  221.1270 C   0  0  0  0  0  0  0  0  0  0  0  0
  140.0770   71.8840  221.9660 C   0  0  0  0  0  0  0  0  0  0  0  0
  140.2080   70.7620  221.4180 O   0  0  0  0  0  0  0  0  0  0  0  0
  140.0260   71.9190  223.3830 N   0  0  0  0  0  0  0  0  0  0  0  0
  140.1160   70.7690  224.2380 C   0  0  0  0  0  0  0  0  0  0  0  0
  140.4240   71.0500  225.6410 C   0  0  0  0  0  0  0  0  0  0  0  0
  139.9080   70.2000  226.6150 C   0  0  0  0  0  0  0  0  0  0  0  0
  140.1490   70.3830  227.9610 C   0  0  0  0  0  0  0  0  0  0  0  0
  140.9260   71.4370  228.3940 C   0  0  0  0  0  0  0  0  0  0  0  0
  141.4360   72.2770  227.4360 C   0  0  0  0  0  0  0  0  0  0  0  0
  141.1970   72.0960  226.0930 C   0  0  0  0  0  0  0  0  0  0  0  0
  140.3770   74.2990  221.6180 C   0  0  0  0  0  0  0  0  0  0  0  0
  141.0560   76.9170  222.7470 N   0  0  0  0  0  0  0  0  0  0  0  0
  141.1040   82.3330  220.5370 C   0  0  0  0  0  0  0  0  0  0  0  0
  140.7570   82.8110  219.1310 C   0  0  0  0  0  0  0  0  0  0  0  0
  139.0881   81.0801  219.8267 H   0  0  0  0  0  0  0  0  0  0  0  0
  138.2324   81.6366  218.3487 H   0  0  0  0  0  0  0  0  0  0  0  0
  139.0918   80.0593  218.3487 H   0  0  0  0  0  0  0  0  0  0  0  0
  140.9766   79.9193  217.6089 H   0  0  0  0  0  0  0  0  0  0  0  0
  142.0995   81.3630  217.3890 H   0  0  0  0  0  0  0  0  0  0  0  0
  142.1560   79.3554  219.3468 H   0  0  0  0  0  0  0  0  0  0  0  0
  143.1865   80.8604  219.1200 H   0  0  0  0  0  0  0  0  0  0  0  0
  142.4069   81.9821  222.8878 H   0  0  0  0  0  0  0  0  0  0  0  0
  142.5002   80.7379  225.0300 H   0  0  0  0  0  0  0  0  0  0  0  0
  141.8743   78.3085  225.0843 H   0  0  0  0  0  0  0  0  0  0  0  0
  140.0034   78.3311  220.2868 H   0  0  0  0  0  0  0  0  0  0  0  0
  141.6654   77.9027  219.9114 H   0  0  0  0  0  0  0  0  0  0  0  0
  139.7755   76.3479  218.9729 H   0  0  0  0  0  0  0  0  0  0  0  0
  139.0570   74.1403  218.0521 H   0  0  0  0  0  0  0  0  0  0  0  0
  139.1776   72.0953  219.3940 H   0  0  0  0  0  0  0  0  0  0  0  0
  139.9160   72.8510  223.8400 H   0  0  0  0  0  0  0  0  0  0  0  0
  139.1505   70.2432  224.2017 H   0  0  0  0  0  0  0  0  0  0  0  0
  140.9592   70.1743  223.8568 H   0  0  0  0  0  0  0  0  0  0  0  0
  139.2846   69.3503  226.2996 H   0  0  0  0  0  0  0  0  0  0  0  0
  139.7188   69.6840  228.6933 H   0  0  0  0  0  0  0  0  0  0  0  0
  141.1286   71.5977  229.4632 H   0  0  0  0  0  0  0  0  0  0  0  0
  142.0588   73.1263  227.7534 H   0  0  0  0  0  0  0  0  0  0  0  0
  141.6313   72.7996  225.3675 H   0  0  0  0  0  0  0  0  0  0  0  0
  140.7604   74.3528  222.6476 H   0  0  0  0  0  0  0  0  0  0  0  0
  140.1884   82.3077  221.1462 H   0  0  0  0  0  0  0  0  0  0  0  0
  141.8353   83.0273  220.9766 H   0  0  0  0  0  0  0  0  0  0  0  0
  139.9560   83.5615  219.2025 H   0  0  0  0  0  0  0  0  0  0  0  0
  141.6720   83.2320  218.6888 H   0  0  0  0  0  0  0  0  0  0  0  0
  1  2  1  0
  2  3  1  0
  3  4  1  0
  4  5  1  0
  5  6  1  0
  6  7  2  0
  7  8  1  0
  8  9  2  0
  9 10  1  0
 10 11  2  0
 11 12  1  0
 12 13  1  0
 13 14  1  0
 14 15  2  0
 15 16  1  0
 16 17  2  0
 17 18  1  0
 18 19  1  0
 19 20  2  0
 19 21  1  0
 21 22  1  0
 22 23  1  0
 23 24  2  0
 24 25  1  0
 25 26  2  0
 26 27  1  0
 27 28  2  0
 18 29  2  0
 13 30  2  0
  5 31  1  0
 31 32  1  0
 32  2  1  0
 11  6  1  0
 29 14  1  0
 30 10  1  0
 28 23  1  0
  1 33  1  0
  1 34  1  0
  1 35  1  0
  3 36  1  0
  3 37  1  0
  4 38  1  0
  4 39  1  0
  7 40  1  0
  8 41  1  0
  9 42  1  0
 12 43  1  0
 12 44  1  0
 15 45  1  0
 16 46  1  0
 17 47  1  0
 21 48  1  0
 22 49  1  0
 22 50  1  0
 24 51  1  0
 25 52  1  0
 26 53  1  0
 27 54  1  0
 28 55  1  0
 29 56  1  0
 31 57  1  0
 31 58  1  0
 32 59  1  0
 32 60  1  0
M  END
>  <smiles>  (3) 
CN1CCN(c2cccc3c2CC(c2cccc(C(=O)NCc4ccccc4)c2)=N3)CC1

>  <score_type>  (3) 
oracle

>  <origin>  (3) 
autodockgpu

>  <m_score__min__energy>  (3) 
-9.5899999999999999

>  <m_primary>  (3) 
energy

>  <rmsd>  (3) 
7.880433910449378

>  <m_score__min__rmsd>  (3) 
7.880433910449378

>  <meeko>  (3) 
{"free_energy": -8.94, "intermolecular_energy": -10.43, "internal_energy": -1.17, "cluster_size": 4, "cluster_id": 3, "rank_in_cluster": 4}

>  <energy>  (3) 
-9.59

>  <cluster_rmsd>  (3) 
0.12

>  <cluster>  (3) 
1

$$$$

     RDKit          3D

 60 64  0  0  0  0  0  0  0  0999 V2000
  135.9540   79.6100  223.2700 C   0  0  0  0  0  0  0  0  0  0  0  0
  135.9310   81.0050  223.6340 N   0  0  0  0  0  0  0  0  0  0  0  0
  136.5050   81.8520  222.6330 C   0  0  0  0  0  0  0  0  0  0  0  0
  137.9930   81.9700  222.6700 C   0  0  0  0  0  0  0  0  0  0  0  0
  138.6400   81.1610  223.6680 N   0  0  0  0  0  0  0  0  0  0  0  0
  139.9220   80.5490  223.4600 C   0  0  0  0  0  0  0  0  0  0  0  0
  141.0940   81.2340  223.7130 C   0  0  0  0  0  0  0  0  0  0  0  0
  142.3290   80.6390  223.5110 C   0  0  0  0  0  0  0  0  0  0  0  0
  142.3940   79.3270  223.0450 C   0  0  0  0  0  0  0  0  0  0  0  0
  141.2100   78.6540  222.7960 C   0  0  0  0  0  0  0  0  0  0  0  0
  139.9720   79.2500  222.9980 C   0  0  0  0  0  0  0  0  0  0  0  0
  138.9580   78.2560  222.6360 C   0  0  0  0  0  0  0  0  0  0  0  0
  139.7610   77.0590  222.2170 C   0  0  0  0  0  0  0  0  0  0  0  0
  139.1570   75.7900  221.7590 C   0  0  0  0  0  0  0  0  0  0  0  0
  138.1740   75.7760  220.7890 C   0  0  0  0  0  0  0  0  0  0  0  0
  137.6680   74.5340  220.4230 C   0  0  0  0  0  0  0  0  0  0  0  0
  138.1140   73.3640  220.9920 C   0  0  0  0  0  0  0  0  0  0  0  0
  139.0970   73.3780  221.9610 C   0  0  0  0  0  0  0  0  0  0  0  0
  139.6060   72.1660  222.5970 C   0  0  0  0  0  0  0  0  0  0  0  0
  140.6800   71.6660  222.1800 O   0  0  0  0  0  0  0  0  0  0  0  0
  138.9510   71.5120  223.6710 N   0  0  0  0  0  0  0  0  0  0  0  0
  139.4230   70.3220  224.3200 C   0  0  0  0  0  0  0  0  0  0  0  0
  139.9700   70.5110  225.6640 C   0  0  0  0  0  0  0  0  0  0  0  0
  140.7110   71.6600  225.9220 C   0  0  0  0  0  0  0  0  0  0  0  0
  141.2620   71.9260  227.1580 C   0  0  0  0  0  0  0  0  0  0  0  0
  141.0920   71.0410  228.2020 C   0  0  0  0  0  0  0  0  0  0  0  0
  140.3610   69.9060  227.9510 C   0  0  0  0  0  0  0  0  0  0  0  0
  139.8110   69.6390  226.7180 C   0  0  0  0  0  0  0  0  0  0  0  0
  139.5960   74.6100  222.3210 C   0  0  0  0  0  0  0  0  0  0  0  0
  141.0220   77.3300  222.3230 N   0  0  0  0  0  0  0  0  0  0  0  0
  138.0100   80.9250  224.9540 C   0  0  0  0  0  0  0  0  0  0  0  0
  136.5300   81.2910  224.9040 C   0  0  0  0  0  0  0  0  0  0  0  0
  135.9642   78.9935  224.1809 H   0  0  0  0  0  0  0  0  0  0  0  0
  135.0597   79.3713  222.6757 H   0  0  0  0  0  0  0  0  0  0  0  0
  136.8557   79.4009  222.6757 H   0  0  0  0  0  0  0  0  0  0  0  0
  136.2206   81.4539  221.6478 H   0  0  0  0  0  0  0  0  0  0  0  0
  136.1160   82.8617  222.8310 H   0  0  0  0  0  0  0  0  0  0  0  0
  138.3838   81.6750  221.6850 H   0  0  0  0  0  0  0  0  0  0  0  0
  138.2132   83.0158  222.9303 H   0  0  0  0  0  0  0  0  0  0  0  0
  141.0464   82.2695  224.0811 H   0  0  0  0  0  0  0  0  0  0  0  0
  143.2530   81.1990  223.7173 H   0  0  0  0  0  0  0  0  0  0  0  0
  143.3647   78.8370  222.8787 H   0  0  0  0  0  0  0  0  0  0  0  0
  138.3190   78.0164  223.4987 H   0  0  0  0  0  0  0  0  0  0  0  0
  138.2794   78.6099  221.8459 H   0  0  0  0  0  0  0  0  0  0  0  0
  137.8082   76.7050  220.3272 H   0  0  0  0  0  0  0  0  0  0  0  0
  136.8846   74.4854  219.6524 H   0  0  0  0  0  0  0  0  0  0  0  0
  137.6818   72.4048  220.6708 H   0  0  0  0  0  0  0  0  0  0  0  0
  138.0570   71.9270  224.0170 H   0  0  0  0  0  0  0  0  0  0  0  0
  138.5801   69.6190  224.3932 H   0  0  0  0  0  0  0  0  0  0  0  0
  140.2566   69.9531  223.7043 H   0  0  0  0  0  0  0  0  0  0  0  0
  140.8633   72.3845  225.1084 H   0  0  0  0  0  0  0  0  0  0  0  0
  141.8402   72.8490  227.3120 H   0  0  0  0  0  0  0  0  0  0  0  0
  141.5241   71.2362  229.1946 H   0  0  0  0  0  0  0  0  0  0  0  0
  140.2093   69.1830  228.7661 H   0  0  0  0  0  0  0  0  0  0  0  0
  139.2347   68.7135  226.5719 H   0  0  0  0  0  0  0  0  0  0  0  0
  140.3799   74.6547  223.0914 H   0  0  0  0  0  0  0  0  0  0  0  0
  138.1104   79.8613  225.2156 H   0  0  0  0  0  0  0  0  0  0  0  0
  138.5043   81.5521  225.7106 H   0  0  0  0  0  0  0  0  0  0  0  0
  135.9999   80.7189  225.6797 H   0  0  0  0  0  0  0  0  0  0  0  0
  136.4506   82.3753  225.0716 H   0  0  0  0  0  0  0  0  0  0  0  0
  1  2  1  0
  2  3  1  0
  3  4  1  0
  4  5  1  0
  5  6  1  0
  6  7  2  0
  7  8  1  0
  8  9  2  0
  9 10  1  0
 10 11  2  0
 11 12  1  0
 12 13  1  0
 13 14  1  0
 14 15  2  0
 15 16  1  0
 16 17  2  0
 17 18  1  0
 18 19  1  0
 19 20  2  0
 19 21  1  0
 21 22  1  0
 22 23  1  0
 23 24  2  0
 24 25  1  0
 25 26  2  0
 26 27  1  0
 27 28  2  0
 18 29  2  0
 13 30  2  0
  5 31  1  0
 31 32  1  0
 32  2  1  0
 11  6  1  0
 29 14  1  0
 30 10  1  0
 28 23  1  0
  1 33  1  0
  1 34  1  0
  1 35  1  0
  3 36  1  0
  3 37  1  0
  4 38  1  0
  4 39  1  0
  7 40  1  0
  8 41  1  0
  9 42  1  0
 12 43  1  0
 12 44  1  0
 15 45  1  0
 16 46  1  0
 17 47  1  0
 21 48  1  0
 22 49  1  0
 22 50  1  0
 24 51  1  0
 25 52  1  0
 26 53  1  0
 27 54  1  0
 28 55  1  0
 29 56  1  0
 31 57  1  0
 31 58  1  0
 32 59  1  0
 32 60  1  0
M  END
>  <smiles>  (4) 
CN1CCN(c2cccc3c2CC(c2cccc(C(=O)NCc4ccccc4)c2)=N3)CC1

>  <score_type>  (4) 
oracle

>  <origin>  (4) 
autodockgpu

>  <m_score__min__energy>  (4) 
-9.5899999999999999

>  <m_primary>  (4) 
energy

>  <rmsd>  (4) 
8.276516868783013

>  <m_score__min__rmsd>  (4) 
8.276516868783013

>  <meeko>  (4) 
{"free_energy": -9.14, "intermolecular_energy": -10.63, "internal_energy": -1.34, "cluster_size": 10, "cluster_id": 4, "rank_in_cluster": 6}

>  <energy>  (4) 
-9.58

>  <cluster_rmsd>  (4) 
0.21

>  <cluster>  (4) 
1

$$$$

     RDKit          3D

 60 64  0  0  0  0  0  0  0  0999 V2000
  141.5700   78.8490  223.7190 C   0  0  0  0  0  0  0  0  0  0  0  0
  140.8820   80.1120  223.8350 N   0  0  0  0  0  0  0  0  0  0  0  0
  139.6740   80.1620  223.0680 C   0  0  0  0  0  0  0  0  0  0  0  0
  139.8460   80.5020  221.6250 C   0  0  0  0  0  0  0  0  0  0  0  0
  141.2100   80.6650  221.1990 N   0  0  0  0  0  0  0  0  0  0  0  0
  141.6700   80.2750  219.8960 C   0  0  0  0  0  0  0  0  0  0  0  0
  141.7890   81.1940  218.8720 C   0  0  0  0  0  0  0  0  0  0  0  0
  142.2330   80.8130  217.6160 C   0  0  0  0  0  0  0  0  0  0  0  0
  142.5660   79.4810  217.3780 C   0  0  0  0  0  0  0  0  0  0  0  0
  142.4410   78.5710  218.4140 C   0  0  0  0  0  0  0  0  0  0  0  0
  141.9960   78.9530  219.6730 C   0  0  0  0  0  0  0  0  0  0  0  0
  141.9890   77.7460  220.5050 C   0  0  0  0  0  0  0  0  0  0  0  0
  142.4740   76.6680  219.5800 C   0  0  0  0  0  0  0  0  0  0  0  0
  142.6320   75.2560  219.9830 C   0  0  0  0  0  0  0  0  0  0  0  0
  143.7140   74.5090  219.5580 C   0  0  0  0  0  0  0  0  0  0  0  0
  143.7770   73.1890  219.9900 C   0  0  0  0  0  0  0  0  0  0  0  0
  142.8130   72.6380  220.8020 C   0  0  0  0  0  0  0  0  0  0  0  0
  141.7330   73.3840  221.2270 C   0  0  0  0  0  0  0  0  0  0  0  0
  140.6830   72.8470  222.0880 C   0  0  0  0  0  0  0  0  0  0  0  0
  139.7370   73.5980  222.4350 O   0  0  0  0  0  0  0  0  0  0  0  0
  140.6670   71.5110  222.5630 N   0  0  0  0  0  0  0  0  0  0  0  0
  139.6520   70.9510  223.4100 C   0  0  0  0  0  0  0  0  0  0  0  0
  139.9880   70.8750  224.8320 C   0  0  0  0  0  0  0  0  0  0  0  0
  140.7840   71.8770  225.3790 C   0  0  0  0  0  0  0  0  0  0  0  0
  141.1480   71.8920  226.7090 C   0  0  0  0  0  0  0  0  0  0  0  0
  140.7270   70.8910  227.5590 C   0  0  0  0  0  0  0  0  0  0  0  0
  139.9420   69.9000  227.0230 C   0  0  0  0  0  0  0  0  0  0  0  0
  139.5780   69.8840  225.6960 C   0  0  0  0  0  0  0  0  0  0  0  0
  141.6740   74.6900  220.7970 C   0  0  0  0  0  0  0  0  0  0  0  0
  142.7150   77.1800  218.4150 N   0  0  0  0  0  0  0  0  0  0  0  0
  142.2010   81.2440  222.0880 C   0  0  0  0  0  0  0  0  0  0  0  0
  141.6930   81.2530  223.5270 C   0  0  0  0  0  0  0  0  0  0  0  0
  141.7847   78.4548  224.7232 H   0  0  0  0  0  0  0  0  0  0  0  0
  140.9362   78.1350  223.1726 H   0  0  0  0  0  0  0  0  0  0  0  0
  142.5136   78.9943  223.1726 H   0  0  0  0  0  0  0  0  0  0  0  0
  139.1920   79.1751  223.1291 H   0  0  0  0  0  0  0  0  0  0  0  0
  139.0729   80.9749  223.5015 H   0  0  0  0  0  0  0  0  0  0  0  0
  139.3958   79.6952  221.0280 H   0  0  0  0  0  0  0  0  0  0  0  0
  139.3586   81.4771  221.4779 H   0  0  0  0  0  0  0  0  0  0  0  0
  141.5269   82.2462  219.0566 H   0  0  0  0  0  0  0  0  0  0  0  0
  142.3221   81.5577  216.8114 H   0  0  0  0  0  0  0  0  0  0  0  0
  142.9208   79.1592  216.3878 H   0  0  0  0  0  0  0  0  0  0  0  0
  142.6666   77.8588  221.3641 H   0  0  0  0  0  0  0  0  0  0  0  0
  140.9974   77.5278  220.9281 H   0  0  0  0  0  0  0  0  0  0  0  0
  144.4900   74.9390  218.9077 H   0  0  0  0  0  0  0  0  0  0  0  0
  144.6253   72.5650  219.6721 H   0  0  0  0  0  0  0  0  0  0  0  0
  142.9045   71.5880  221.1169 H   0  0  0  0  0  0  0  0  0  0  0  0
  141.4540   70.8870  222.2770 H   0  0  0  0  0  0  0  0  0  0  0  0
  138.7474   71.5685  223.3083 H   0  0  0  0  0  0  0  0  0  0  0  0
  139.5199   69.9115  223.0755 H   0  0  0  0  0  0  0  0  0  0  0  0
  141.1364   72.6884  224.7252 H   0  0  0  0  0  0  0  0  0  0  0  0
  141.7779   72.7073  227.0942 H   0  0  0  0  0  0  0  0  0  0  0  0
  141.0084   70.8866  228.6224 H   0  0  0  0  0  0  0  0  0  0  0  0
  139.5913   69.0892  227.6784 H   0  0  0  0  0  0  0  0  0  0  0  0
  138.9482   69.0649  225.3186 H   0  0  0  0  0  0  0  0  0  0  0  0
  140.8240   75.3104  221.1173 H   0  0  0  0  0  0  0  0  0  0  0  0
  143.1252   80.6499  222.0348 H   0  0  0  0  0  0  0  0  0  0  0  0
  142.3957   82.2803  221.7746 H   0  0  0  0  0  0  0  0  0  0  0  0
  142.5587   81.2629  224.2056 H   0  0  0  0  0  0  0  0  0  0  0  0
  141.0671   82.1488  223.6525 H   0  0  0  0  0  0  0  0  0  0  0  0
  1  2  1  0
  2  3  1  0
  3  4  1  0
  4  5  1  0
  5  6  1  0
  6  7  2  0
  7  8  1  0
  8  9  2  0
  9 10  1  0
 10 11  2  0
 11 12  1  0
 12 13  1  0
 13 14  1  0
 14 15  2  0
 15 16  1  0
 16 17  2  0
 17 18  1  0
 18 19  1  0
 19 20  2  0
 19 21  1  0
 21 22  1  0
 22 23  1  0
 23 24  2  0
 24 25  1  0
 25 26  2  0
 26 27  1  0
 27 28  2  0
 18 29  2  0
 13 30  2  0
  5 31  1  0
 31 32  1  0
 32  2  1  0
 11  6  1  0
 29 14  1  0
 30 10  1  0
 28 23  1  0
  1 33  1  0
  1 34  1  0
  1 35  1  0
  3 36  1  0
  3 37  1  0
  4 38  1  0
  4 39  1  0
  7 40  1  0
  8 41  1  0
  9 42  1  0
 12 43  1  0
 12 44  1  0
 15 45  1  0
 16 46  1  0
 17 47  1  0
 21 48  1  0
 22 49  1  0
 22 50  1  0
 24 51  1  0
 25 52  1  0
 26 53  1  0
 27 54  1  0
 28 55  1  0
 29 56  1  0
 31 57  1  0
 31 58  1  0
 32 59  1  0
 32 60  1  0
M  END
>  <smiles>  (5) 
CN1CCN(c2cccc3c2CC(c2cccc(C(=O)NCc4ccccc4)c2)=N3)CC1

>  <score_type>  (5) 
oracle

>  <origin>  (5) 
autodockgpu

>  <m_score__min__energy>  (5) 
-9.5899999999999999

>  <m_primary>  (5) 
energy

>  <rmsd>  (5) 
7.793555520158477

>  <m_score__min__rmsd>  (5) 
7.793555520158477

>  <meeko>  (5) 
{"free_energy": -9.5, "intermolecular_energy": -10.99, "internal_energy": -1.37, "cluster_size": 30, "cluster_id": 1, "rank_in_cluster": 14}

>  <energy>  (5) 
-9.58

>  <cluster_rmsd>  (5) 
0.04

>  <cluster>  (5) 
1

$$$$

     RDKit          3D

 60 64  0  0  0  0  0  0  0  0999 V2000
  141.0410   78.7780  223.6080 C   0  0  0  0  0  0  0  0  0  0  0  0
  140.8720   80.1910  223.8440 N   0  0  0  0  0  0  0  0  0  0  0  0
  139.7970   80.7580  223.0890 C   0  0  0  0  0  0  0  0  0  0  0  0
  140.1300   81.1330  221.6830 C   0  0  0  0  0  0  0  0  0  0  0  0
  141.4690   80.8090  221.2700 N   0  0  0  0  0  0  0  0  0  0  0  0
  141.7910   80.3910  219.9350 C   0  0  0  0  0  0  0  0  0  0  0  0
  141.8370   81.2940  218.8910 C   0  0  0  0  0  0  0  0  0  0  0  0
  142.1480   80.8860  217.6050 C   0  0  0  0  0  0  0  0  0  0  0  0
  142.4210   79.5420  217.3550 C   0  0  0  0  0  0  0  0  0  0  0  0
  142.3710   78.6490  218.4120 C   0  0  0  0  0  0  0  0  0  0  0  0
  142.0590   79.0580  219.7010 C   0  0  0  0  0  0  0  0  0  0  0  0
  142.1010   77.8620  220.5480 C   0  0  0  0  0  0  0  0  0  0  0  0
  142.4660   76.7600  219.5960 C   0  0  0  0  0  0  0  0  0  0  0  0
  142.6240   75.3490  220.0030 C   0  0  0  0  0  0  0  0  0  0  0  0
  143.7060   74.6010  219.5800 C   0  0  0  0  0  0  0  0  0  0  0  0
  143.7690   73.2810  220.0160 C   0  0  0  0  0  0  0  0  0  0  0  0
  142.8060   72.7320  220.8290 C   0  0  0  0  0  0  0  0  0  0  0  0
  141.7260   73.4800  221.2530 C   0  0  0  0  0  0  0  0  0  0  0  0
  140.6760   72.9450  222.1160 C   0  0  0  0  0  0  0  0  0  0  0  0
  139.7120   73.6850  222.4310 O   0  0  0  0  0  0  0  0  0  0  0  0
  140.6820   71.6230  222.6280 N   0  0  0  0  0  0  0  0  0  0  0  0
  139.6680   71.0640  223.4770 C   0  0  0  0  0  0  0  0  0  0  0  0
  140.0150   70.9720  224.8960 C   0  0  0  0  0  0  0  0  0  0  0  0
  139.5340   69.8900  225.6270 C   0  0  0  0  0  0  0  0  0  0  0  0
  139.8120   69.7170  226.9670 C   0  0  0  0  0  0  0  0  0  0  0  0
  140.5930   70.6330  227.6410 C   0  0  0  0  0  0  0  0  0  0  0  0
  141.0690   71.7020  226.9230 C   0  0  0  0  0  0  0  0  0  0  0  0
  140.7930   71.8750  225.5860 C   0  0  0  0  0  0  0  0  0  0  0  0
  141.6670   74.7850  220.8190 C   0  0  0  0  0  0  0  0  0  0  0  0
  142.6080   77.2500  218.4060 N   0  0  0  0  0  0  0  0  0  0  0  0
  142.5750   80.8930  222.2070 C   0  0  0  0  0  0  0  0  0  0  0  0
  142.0610   80.9660  223.6410 C   0  0  0  0  0  0  0  0  0  0  0  0
  141.1041   78.2504  224.5711 H   0  0  0  0  0  0  0  0  0  0  0  0
  140.1821   78.3964  223.0365 H   0  0  0  0  0  0  0  0  0  0  0  0
  141.9657   78.6097  223.0365 H   0  0  0  0  0  0  0  0  0  0  0  0
  138.9786   80.0236  223.0596 H   0  0  0  0  0  0  0  0  0  0  0  0
  139.5310   81.6962  223.5980 H   0  0  0  0  0  0  0  0  0  0  0  0
  139.4304   80.6093  221.0150 H   0  0  0  0  0  0  0  0  0  0  0  0
  140.0473   82.2285  221.6284 H   0  0  0  0  0  0  0  0  0  0  0  0
  141.6229   82.3555  219.0845 H   0  0  0  0  0  0  0  0  0  0  0  0
  142.1795   81.6185  216.7849 H   0  0  0  0  0  0  0  0  0  0  0  0
  142.6707   79.1985  216.3403 H   0  0  0  0  0  0  0  0  0  0  0  0
  142.8613   77.9666  221.3360 H   0  0  0  0  0  0  0  0  0  0  0  0
  141.1498   77.6763  221.0683 H   0  0  0  0  0  0  0  0  0  0  0  0
  144.4820   75.0293  218.9285 H   0  0  0  0  0  0  0  0  0  0  0  0
  144.6173   72.6563  219.6997 H   0  0  0  0  0  0  0  0  0  0  0  0
  142.8972   71.6826  221.1459 H   0  0  0  0  0  0  0  0  0  0  0  0
  141.4850   71.0070  222.3680 H   0  0  0  0  0  0  0  0  0  0  0  0
  138.7682   71.6905  223.3880 H   0  0  0  0  0  0  0  0  0  0  0  0
  139.5233   70.0290  223.1336 H   0  0  0  0  0  0  0  0  0  0  0  0
  138.9077   69.1436  225.1164 H   0  0  0  0  0  0  0  0  0  0  0  0
  139.4088   68.8440  227.5010 H   0  0  0  0  0  0  0  0  0  0  0  0
  140.8247   70.5119  228.7095 H   0  0  0  0  0  0  0  0  0  0  0  0
  141.6942   72.4479  227.4355 H   0  0  0  0  0  0  0  0  0  0  0  0
  141.2010   72.7501  225.0590 H   0  0  0  0  0  0  0  0  0  0  0  0
  140.8171   75.4062  221.1380 H   0  0  0  0  0  0  0  0  0  0  0  0
  143.2109   80.0023  222.0961 H   0  0  0  0  0  0  0  0  0  0  0  0
  143.1533   81.8035  221.9914 H   0  0  0  0  0  0  0  0  0  0  0  0
  142.8449   80.5905  224.3151 H   0  0  0  0  0  0  0  0  0  0  0  0
  141.8120   82.0167  223.8510 H   0  0  0  0  0  0  0  0  0  0  0  0
  1  2  1  0
  2  3  1  0
  3  4  1  0
  4  5  1  0
  5  6  1  0
  6  7  2  0
  7  8  1  0
  8  9  2  0
  9 10  1  0
 10 11  2  0
 11 12  1  0
 12 13  1  0
 13 14  1  0
 14 15  2  0
 15 16  1  0
 16 17  2  0
 17 18  1  0
 18 19  1  0
 19 20  2  0
 19 21  1  0
 21 22  1  0
 22 23  1  0
 23 24  2  0
 24 25  1  0
 25 26  2  0
 26 27  1  0
 27 28  2  0
 18 29  2  0
 13 30  2  0
  5 31  1  0
 31 32  1  0
 32  2  1  0
 11  6  1  0
 29 14  1  0
 30 10  1  0
 28 23  1  0
  1 33  1  0
  1 34  1  0
  1 35  1  0
  3 36  1  0
  3 37  1  0
  4 38  1  0
  4 39  1  0
  7 40  1  0
  8 41  1  0
  9 42  1  0
 12 43  1  0
 12 44  1  0
 15 45  1  0
 16 46  1  0
 17 47  1  0
 21 48  1  0
 22 49  1  0
 22 50  1  0
 24 51  1  0
 25 52  1  0
 26 53  1  0
 27 54  1  0
 28 55  1  0
 29 56  1  0
 31 57  1  0
 31 58  1  0
 32 59  1  0
 32 60  1  0
M  END
>  <smiles>  (6) 
CN1CCN(c2cccc3c2CC(c2cccc(C(=O)NCc4ccccc4)c2)=N3)CC1

>  <score_type>  (6) 
oracle

>  <origin>  (6) 
autodockgpu

>  <m_score__min__energy>  (6) 
-9.5899999999999999

>  <m_primary>  (6) 
energy

>  <rmsd>  (6) 
7.887171920976011

>  <m_score__min__rmsd>  (6) 
7.887171920976011

>  <meeko>  (6) 
{"free_energy": -9.46, "intermolecular_energy": -10.95, "internal_energy": -1.35, "cluster_size": 30, "cluster_id": 1, "rank_in_cluster": 23}

>  <energy>  (6) 
-9.57

>  <cluster_rmsd>  (6) 
0.18

>  <cluster>  (6) 
1

$$$$

     RDKit          3D

 60 64  0  0  0  0  0  0  0  0999 V2000
  141.5010   78.8600  223.7320 C   0  0  0  0  0  0  0  0  0  0  0  0
  140.8530   80.1420  223.8670 N   0  0  0  0  0  0  0  0  0  0  0  0
  139.6480   80.2410  223.1010 C   0  0  0  0  0  0  0  0  0  0  0  0
  139.8300   80.5960  221.6620 C   0  0  0  0  0  0  0  0  0  0  0  0
  141.1990   80.7230  221.2380 N   0  0  0  0  0  0  0  0  0  0  0  0
  141.6460   80.3370  219.9290 C   0  0  0  0  0  0  0  0  0  0  0  0
  141.7480   81.2590  218.9060 C   0  0  0  0  0  0  0  0  0  0  0  0
  142.1800   80.8820  217.6450 C   0  0  0  0  0  0  0  0  0  0  0  0
  142.5180   79.5520  217.4000 C   0  0  0  0  0  0  0  0  0  0  0  0
  142.4100   78.6400  218.4370 C   0  0  0  0  0  0  0  0  0  0  0  0
  141.9770   79.0180  219.7010 C   0  0  0  0  0  0  0  0  0  0  0  0
  141.9880   77.8100  220.5320 C   0  0  0  0  0  0  0  0  0  0  0  0
  142.4680   76.7360  219.5990 C   0  0  0  0  0  0  0  0  0  0  0  0
  142.6390   75.3240  219.9990 C   0  0  0  0  0  0  0  0  0  0  0  0
  143.7340   74.5920  219.5830 C   0  0  0  0  0  0  0  0  0  0  0  0
  143.8090   73.2710  220.0110 C   0  0  0  0  0  0  0  0  0  0  0  0
  142.8440   72.7050  220.8100 C   0  0  0  0  0  0  0  0  0  0  0  0
  141.7490   73.4360  221.2260 C   0  0  0  0  0  0  0  0  0  0  0  0
  140.6970   72.8830  222.0740 C   0  0  0  0  0  0  0  0  0  0  0  0
  139.7500   73.6260  222.4300 O   0  0  0  0  0  0  0  0  0  0  0  0
  140.6810   71.5390  222.5250 N   0  0  0  0  0  0  0  0  0  0  0  0
  139.6640   70.9620  223.3570 C   0  0  0  0  0  0  0  0  0  0  0  0
  139.9910   70.8690  224.7810 C   0  0  0  0  0  0  0  0  0  0  0  0
  140.7930   71.8590  225.3410 C   0  0  0  0  0  0  0  0  0  0  0  0
  141.1500   71.8570  226.6740 C   0  0  0  0  0  0  0  0  0  0  0  0
  140.7150   70.8520  227.5110 C   0  0  0  0  0  0  0  0  0  0  0  0
  139.9250   69.8740  226.9610 C   0  0  0  0  0  0  0  0  0  0  0  0
  139.5670   69.8740  225.6320 C   0  0  0  0  0  0  0  0  0  0  0  0
  141.6790   74.7430  220.8000 C   0  0  0  0  0  0  0  0  0  0  0  0
  142.6930   77.2500  218.4320 N   0  0  0  0  0  0  0  0  0  0  0  0
  142.2070   81.2570  222.1360 C   0  0  0  0  0  0  0  0  0  0  0  0
  141.7000   81.2620  223.5740 C   0  0  0  0  0  0  0  0  0  0  0  0
  141.7095   78.4476  224.7302 H   0  0  0  0  0  0  0  0  0  0  0  0
  140.8422   78.1723  223.1814 H   0  0  0  0  0  0  0  0  0  0  0  0
  142.4454   78.9827  223.1814 H   0  0  0  0  0  0  0  0  0  0  0  0
  139.1352   79.2690  223.1483 H   0  0  0  0  0  0  0  0  0  0  0  0
  139.0734   81.0667  223.5461 H   0  0  0  0  0  0  0  0  0  0  0  0
  139.3553   79.8119  221.0539 H   0  0  0  0  0  0  0  0  0  0  0  0
  139.3724   81.5873  221.5285 H   0  0  0  0  0  0  0  0  0  0  0  0
  141.4820   82.3094  219.0955 H   0  0  0  0  0  0  0  0  0  0  0  0
  142.2559   81.6286  216.8408 H   0  0  0  0  0  0  0  0  0  0  0  0
  142.8629   79.2337  216.4051 H   0  0  0  0  0  0  0  0  0  0  0  0
  142.6759   77.9260  221.3825 H   0  0  0  0  0  0  0  0  0  0  0  0
  141.0033   77.5852  220.9678 H   0  0  0  0  0  0  0  0  0  0  0  0
  144.5113   75.0339  218.9423 H   0  0  0  0  0  0  0  0  0  0  0  0
  144.6685   72.6590  219.7001 H   0  0  0  0  0  0  0  0  0  0  0  0
  142.9456   71.6552  221.1222 H   0  0  0  0  0  0  0  0  0  0  0  0
  141.4690   70.9200  222.2300 H   0  0  0  0  0  0  0  0  0  0  0  0
  138.7564   71.5755  223.2573 H   0  0  0  0  0  0  0  0  0  0  0  0
  139.5404   69.9263  223.0077 H   0  0  0  0  0  0  0  0  0  0  0  0
  141.1559   72.6736  224.6970 H   0  0  0  0  0  0  0  0  0  0  0  0
  141.7855   72.6623  227.0710 H   0  0  0  0  0  0  0  0  0  0  0  0
  140.9898   70.8346  228.5760 H   0  0  0  0  0  0  0  0  0  0  0  0
  139.5644   69.0595  227.6064 H   0  0  0  0  0  0  0  0  0  0  0  0
  138.9311   69.0649  225.2434 H   0  0  0  0  0  0  0  0  0  0  0  0
  140.8179   75.3517  221.1129 H   0  0  0  0  0  0  0  0  0  0  0  0
  143.1117   80.6344  222.0743 H   0  0  0  0  0  0  0  0  0  0  0  0
  142.4341   82.2911  221.8376 H   0  0  0  0  0  0  0  0  0  0  0  0
  142.5656   81.2354  224.2523 H   0  0  0  0  0  0  0  0  0  0  0  0
  141.1024   82.1751  223.7121 H   0  0  0  0  0  0  0  0  0  0  0  0
  1  2  1  0
  2  3  1  0
  3  4  1  0
  4  5  1  0
  5  6  1  0
  6  7  2  0
  7  8  1  0
  8  9  2  0
  9 10  1  0
 10 11  2  0
 11 12  1  0
 12 13  1  0
 13 14  1  0
 14 15  2  0
 15 16  1  0
 16 17  2  0
 17 18  1  0
 18 19  1  0
 19 20  2  0
 19 21  1  0
 21 22  1  0
 22 23  1  0
 23 24  2  0
 24 25  1  0
 25 26  2  0
 26 27  1  0
 27 28  2  0
 18 29  2  0
 13 30  2  0
  5 31  1  0
 31 32  1  0
 32  2  1  0
 11  6  1  0
 29 14  1  0
 30 10  1  0
 28 23  1  0
  1 33  1  0
  1 34  1  0
  1 35  1  0
  3 36  1  0
  3 37  1  0
  4 38  1  0
  4 39  1  0
  7 40  1  0
  8 41  1  0
  9 42  1  0
 12 43  1  0
 12 44  1  0
 15 45  1  0
 16 46  1  0
 17 47  1  0
 21 48  1  0
 22 49  1  0
 22 50  1  0
 24 51  1  0
 25 52  1  0
 26 53  1  0
 27 54  1  0
 28 55  1  0
 29 56  1  0
 31 57  1  0
 31 58  1  0
 32 59  1  0
 32 60  1  0
M  END
>  <smiles>  (7) 
CN1CCN(c2cccc3c2CC(c2cccc(C(=O)NCc4ccccc4)c2)=N3)CC1

>  <score_type>  (7) 
oracle

>  <origin>  (7) 
autodockgpu

>  <m_score__min__energy>  (7) 
-9.5899999999999999

>  <m_primary>  (7) 
energy

>  <rmsd>  (7) 
7.831362185631929

>  <m_score__min__rmsd>  (7) 
7.831362185631929

>  <meeko>  (7) 
{"free_energy": -9.48, "intermolecular_energy": -10.97, "internal_energy": -1.37, "cluster_size": 30, "cluster_id": 1, "rank_in_cluster": 21}

>  <energy>  (7) 
-9.57

>  <cluster_rmsd>  (7) 
0.24

>  <cluster>  (7) 
1

$$$$

     RDKit          3D

 60 64  0  0  0  0  0  0  0  0999 V2000
  135.9860   79.5920  223.3090 C   0  0  0  0  0  0  0  0  0  0  0  0
  135.9670   80.9890  223.6670 N   0  0  0  0  0  0  0  0  0  0  0  0
  136.5400   81.8300  222.6600 C   0  0  0  0  0  0  0  0  0  0  0  0
  138.0280   81.9440  222.6920 C   0  0  0  0  0  0  0  0  0  0  0  0
  138.6770   81.1390  223.6910 N   0  0  0  0  0  0  0  0  0  0  0  0
  139.9570   80.5220  223.4830 C   0  0  0  0  0  0  0  0  0  0  0  0
  141.1310   81.2020  223.7410 C   0  0  0  0  0  0  0  0  0  0  0  0
  142.3630   80.6030  223.5380 C   0  0  0  0  0  0  0  0  0  0  0  0
  142.4240   79.2920  223.0660 C   0  0  0  0  0  0  0  0  0  0  0  0
  141.2370   78.6250  222.8120 C   0  0  0  0  0  0  0  0  0  0  0  0
  140.0020   79.2250  223.0160 C   0  0  0  0  0  0  0  0  0  0  0  0
  138.9850   78.2360  222.6480 C   0  0  0  0  0  0  0  0  0  0  0  0
  139.7830   77.0380  222.2240 C   0  0  0  0  0  0  0  0  0  0  0  0
  139.1750   75.7740  221.7600 C   0  0  0  0  0  0  0  0  0  0  0  0
  138.2010   75.7670  220.7810 C   0  0  0  0  0  0  0  0  0  0  0  0
  137.6890   74.5290  220.4090 C   0  0  0  0  0  0  0  0  0  0  0  0
  138.1230   73.3560  220.9820 C   0  0  0  0  0  0  0  0  0  0  0  0
  139.0970   73.3620  221.9590 C   0  0  0  0  0  0  0  0  0  0  0  0
  139.5920   72.1460  222.5990 C   0  0  0  0  0  0  0  0  0  0  0  0
  140.6420   71.6140  222.1630 O   0  0  0  0  0  0  0  0  0  0  0  0
  138.9480   71.5230  223.6980 N   0  0  0  0  0  0  0  0  0  0  0  0
  139.4070   70.3290  224.3510 C   0  0  0  0  0  0  0  0  0  0  0  0
  139.9440   70.5160  225.7000 C   0  0  0  0  0  0  0  0  0  0  0  0
  140.6970   71.6570  225.9610 C   0  0  0  0  0  0  0  0  0  0  0  0
  141.2390   71.9190  227.2020 C   0  0  0  0  0  0  0  0  0  0  0  0
  141.0500   71.0380  228.2460 C   0  0  0  0  0  0  0  0  0  0  0  0
  140.3090   69.9110  227.9910 C   0  0  0  0  0  0  0  0  0  0  0  0
  139.7660   69.6490  226.7540 C   0  0  0  0  0  0  0  0  0  0  0  0
  139.6000   74.5900  222.3250 C   0  0  0  0  0  0  0  0  0  0  0  0
  141.0450   77.3030  222.3340 N   0  0  0  0  0  0  0  0  0  0  0  0
  138.0500   80.9100  224.9810 C   0  0  0  0  0  0  0  0  0  0  0  0
  136.5710   81.2800  224.9340 C   0  0  0  0  0  0  0  0  0  0  0  0
  135.9943   78.9794  224.2226 H   0  0  0  0  0  0  0  0  0  0  0  0
  135.0910   79.3533  222.7157 H   0  0  0  0  0  0  0  0  0  0  0  0
  136.8871   79.3778  222.7157 H   0  0  0  0  0  0  0  0  0  0  0  0
  136.2514   81.4281  221.6776 H   0  0  0  0  0  0  0  0  0  0  0  0
  136.1542   82.8416  222.8543 H   0  0  0  0  0  0  0  0  0  0  0  0
  138.4147   81.6432  221.7071 H   0  0  0  0  0  0  0  0  0  0  0  0
  138.2511   82.9904  222.9474 H   0  0  0  0  0  0  0  0  0  0  0  0
  141.0868   82.2360  224.1137 H   0  0  0  0  0  0  0  0  0  0  0  0
  143.2889   81.1585  223.7480 H   0  0  0  0  0  0  0  0  0  0  0  0
  143.3930   78.7988  222.8992 H   0  0  0  0  0  0  0  0  0  0  0  0
  138.3443   77.9947  223.5089 H   0  0  0  0  0  0  0  0  0  0  0  0
  138.3090   78.5964  221.8586 H   0  0  0  0  0  0  0  0  0  0  0  0
  137.8462   76.6989  220.3165 H   0  0  0  0  0  0  0  0  0  0  0  0
  136.9120   74.4861  219.6316 H   0  0  0  0  0  0  0  0  0  0  0  0
  137.6873   72.3998  220.6566 H   0  0  0  0  0  0  0  0  0  0  0  0
  138.0740   71.9640  224.0600 H   0  0  0  0  0  0  0  0  0  0  0  0
  138.5590   69.6315  224.4173 H   0  0  0  0  0  0  0  0  0  0  0  0
  140.2428   69.9537  223.7422 H   0  0  0  0  0  0  0  0  0  0  0  0
  140.8663   72.3770  225.1468 H   0  0  0  0  0  0  0  0  0  0  0  0
  141.8255   72.8361  227.3599 H   0  0  0  0  0  0  0  0  0  0  0  0
  141.4755   71.2305  229.2420 H   0  0  0  0  0  0  0  0  0  0  0  0
  140.1431   69.1907  228.8056 H   0  0  0  0  0  0  0  0  0  0  0  0
  139.1794   68.7305  226.6050 H   0  0  0  0  0  0  0  0  0  0  0  0
  140.3762   74.6286  223.1035 H   0  0  0  0  0  0  0  0  0  0  0  0
  138.1482   79.8471  225.2468 H   0  0  0  0  0  0  0  0  0  0  0  0
  138.5485   81.5388  225.7334 H   0  0  0  0  0  0  0  0  0  0  0  0
  136.0417   80.7135  225.7144 H   0  0  0  0  0  0  0  0  0  0  0  0
  136.4951   82.3653  225.0963 H   0  0  0  0  0  0  0  0  0  0  0  0
  1  2  1  0
  2  3  1  0
  3  4  1  0
  4  5  1  0
  5  6  1  0
  6  7  2  0
  7  8  1  0
  8  9  2  0
  9 10  1  0
 10 11  2  0
 11 12  1  0
 12 13  1  0
 13 14  1  0
 14 15  2  0
 15 16  1  0
 16 17  2  0
 17 18  1  0
 18 19  1  0
 19 20  2  0
 19 21  1  0
 21 22  1  0
 22 23  1  0
 23 24  2  0
 24 25  1  0
 25 26  2  0
 26 27  1  0
 27 28  2  0
 18 29  2  0
 13 30  2  0
  5 31  1  0
 31 32  1  0
 32  2  1  0
 11  6  1  0
 29 14  1  0
 30 10  1  0
 28 23  1  0
  1 33  1  0
  1 34  1  0
  1 35  1  0
  3 36  1  0
  3 37  1  0
  4 38  1  0
  4 39  1  0
  7 40  1  0
  8 41  1  0
  9 42  1  0
 12 43  1  0
 12 44  1  0
 15 45  1  0
 16 46  1  0
 17 47  1  0
 21 48  1  0
 22 49  1  0
 22 50  1  0
 24 51  1  0
 25 52  1  0
 26 53  1  0
 27 54  1  0
 28 55  1  0
 29 56  1  0
 31 57  1  0
 31 58  1  0
 32 59  1  0
 32 60  1  0
M  END
>  <smiles>  (8) 
CN1CCN(c2cccc3c2CC(c2cccc(C(=O)NCc4ccccc4)c2)=N3)CC1

>  <score_type>  (8) 
oracle

>  <origin>  (8) 
autodockgpu

>  <m_score__min__energy>  (8) 
-9.5899999999999999

>  <m_primary>  (8) 
energy

>  <rmsd>  (8) 
8.265800235695858

>  <m_score__min__rmsd>  (8) 
8.265800235695858

>  <meeko>  (8) 
{"free_energy": -9.16, "intermolecular_energy": -10.66, "internal_energy": -1.34, "cluster_size": 10, "cluster_id": 4, "rank_in_cluster": 3}

>  <energy>  (8) 
-9.57

>  <cluster_rmsd>  (8) 
0.08

>  <cluster>  (8) 
1

$$$$

     RDKit          3D

 60 64  0  0  0  0  0  0  0  0999 V2000
  141.4450   78.8610  223.7270 C   0  0  0  0  0  0  0  0  0  0  0  0
  140.8080   80.1490  223.8560 N   0  0  0  0  0  0  0  0  0  0  0  0
  139.6170   80.2630  223.0710 C   0  0  0  0  0  0  0  0  0  0  0  0
  139.8260   80.6210  221.6370 C   0  0  0  0  0  0  0  0  0  0  0  0
  141.2020   80.7350  221.2350 N   0  0  0  0  0  0  0  0  0  0  0  0
  141.6670   80.3490  219.9320 C   0  0  0  0  0  0  0  0  0  0  0  0
  141.7940   81.2720  218.9130 C   0  0  0  0  0  0  0  0  0  0  0  0
  142.2420   80.8950  217.6580 C   0  0  0  0  0  0  0  0  0  0  0  0
  142.5710   79.5630  217.4150 C   0  0  0  0  0  0  0  0  0  0  0  0
  142.4380   78.6490  218.4470 C   0  0  0  0  0  0  0  0  0  0  0  0
  141.9890   79.0270  219.7050 C   0  0  0  0  0  0  0  0  0  0  0  0
  141.9750   77.8170  220.5320 C   0  0  0  0  0  0  0  0  0  0  0  0
  142.4600   76.7410  219.6040 C   0  0  0  0  0  0  0  0  0  0  0  0
  142.6120   75.3270  220.0020 C   0  0  0  0  0  0  0  0  0  0  0  0
  143.6880   74.5750  219.5700 C   0  0  0  0  0  0  0  0  0  0  0  0
  143.7450   73.2530  219.9980 C   0  0  0  0  0  0  0  0  0  0  0  0
  142.7820   72.7040  220.8120 C   0  0  0  0  0  0  0  0  0  0  0  0
  141.7070   73.4550  221.2440 C   0  0  0  0  0  0  0  0  0  0  0  0
  140.6580   72.9220  222.1070 C   0  0  0  0  0  0  0  0  0  0  0  0
  139.6560   73.6350  222.3590 O   0  0  0  0  0  0  0  0  0  0  0  0
  140.7040   71.6280  222.6870 N   0  0  0  0  0  0  0  0  0  0  0  0
  139.6910   71.0720  223.5390 C   0  0  0  0  0  0  0  0  0  0  0  0
  140.0550   70.9480  224.9520 C   0  0  0  0  0  0  0  0  0  0  0  0
  139.6270   69.8210  225.6490 C   0  0  0  0  0  0  0  0  0  0  0  0
  139.9250   69.6170  226.9800 C   0  0  0  0  0  0  0  0  0  0  0  0
  140.6710   70.5420  227.6790 C   0  0  0  0  0  0  0  0  0  0  0  0
  141.0940   71.6550  226.9940 C   0  0  0  0  0  0  0  0  0  0  0  0
  140.7980   71.8600  225.6660 C   0  0  0  0  0  0  0  0  0  0  0  0
  141.6540   74.7630  220.8180 C   0  0  0  0  0  0  0  0  0  0  0  0
  142.7080   77.2570  218.4430 N   0  0  0  0  0  0  0  0  0  0  0  0
  142.2020   81.2560  222.1500 C   0  0  0  0  0  0  0  0  0  0  0  0
  141.6710   81.2610  223.5810 C   0  0  0  0  0  0  0  0  0  0  0  0
  141.6480   78.4505  224.7272 H   0  0  0  0  0  0  0  0  0  0  0  0
  140.7813   78.1770  223.1778 H   0  0  0  0  0  0  0  0  0  0  0  0
  142.3914   78.9734  223.1778 H   0  0  0  0  0  0  0  0  0  0  0  0
  139.0936   79.2961  223.1064 H   0  0  0  0  0  0  0  0  0  0  0  0
  139.0437   81.0930  223.5097 H   0  0  0  0  0  0  0  0  0  0  0  0
  139.3527   79.8441  221.0185 H   0  0  0  0  0  0  0  0  0  0  0  0
  139.3814   81.6178  221.5003 H   0  0  0  0  0  0  0  0  0  0  0  0
  141.5350   82.3244  219.1012 H   0  0  0  0  0  0  0  0  0  0  0  0
  142.3376   81.6431  216.8573 H   0  0  0  0  0  0  0  0  0  0  0  0
  142.9287   79.2443  216.4248 H   0  0  0  0  0  0  0  0  0  0  0  0
  142.6499   77.9241  221.3940 H   0  0  0  0  0  0  0  0  0  0  0  0
  140.9812   77.6004  220.9508 H   0  0  0  0  0  0  0  0  0  0  0  0
  144.4637   75.0024  218.9176 H   0  0  0  0  0  0  0  0  0  0  0  0
  144.5886   72.6255  219.6746 H   0  0  0  0  0  0  0  0  0  0  0  0
  142.8694   71.6525  221.1230 H   0  0  0  0  0  0  0  0  0  0  0  0
  141.5380   71.0340  222.4790 H   0  0  0  0  0  0  0  0  0  0  0  0
  138.8017   71.7161  223.4732 H   0  0  0  0  0  0  0  0  0  0  0  0
  139.5227   70.0463  223.1790 H   0  0  0  0  0  0  0  0  0  0  0  0
  139.0291   69.0655  225.1183 H   0  0  0  0  0  0  0  0  0  0  0  0
  139.5650   68.7099  227.4875 H   0  0  0  0  0  0  0  0  0  0  0  0
  140.9172   70.3949  228.7410 H   0  0  0  0  0  0  0  0  0  0  0  0
  141.6911   72.4099  227.5265 H   0  0  0  0  0  0  0  0  0  0  0  0
  141.1620   72.7696  225.1659 H   0  0  0  0  0  0  0  0  0  0  0  0
  140.8086   75.3870  221.1435 H   0  0  0  0  0  0  0  0  0  0  0  0
  143.1012   80.6244  222.1004 H   0  0  0  0  0  0  0  0  0  0  0  0
  142.4453   82.2884  221.8587 H   0  0  0  0  0  0  0  0  0  0  0  0
  142.5251   81.2230  224.2732 H   0  0  0  0  0  0  0  0  0  0  0  0
  141.0806   82.1797  223.7126 H   0  0  0  0  0  0  0  0  0  0  0  0
  1  2  1  0
  2  3  1  0
  3  4  1  0
  4  5  1  0
  5  6  1  0
  6  7  2  0
  7  8  1  0
  8  9  2  0
  9 10  1  0
 10 11  2  0
 11 12  1  0
 12 13  1  0
 13 14  1  0
 14 15  2  0
 15 16  1  0
 16 17  2  0
 17 18  1  0
 18 19  1  0
 19 20  2  0
 19 21  1  0
 21 22  1  0
 22 23  1  0
 23 24  2  0
 24 25  1  0
 25 26  2  0
 26 27  1  0
 27 28  2  0
 18 29  2  0
 13 30  2  0
  5 31  1  0
 31 32  1  0
 32  2  1  0
 11  6  1  0
 29 14  1  0
 30 10  1  0
 28 23  1  0
  1 33  1  0
  1 34  1  0
  1 35  1  0
  3 36  1  0
  3 37  1  0
  4 38  1  0
  4 39  1  0
  7 40  1  0
  8 41  1  0
  9 42  1  0
 12 43  1  0
 12 44  1  0
 15 45  1  0
 16 46  1  0
 17 47  1  0
 21 48  1  0
 22 49  1  0
 22 50  1  0
 24 51  1  0
 25 52  1  0
 26 53  1  0
 27 54  1  0
 28 55  1  0
 29 56  1  0
 31 57  1  0
 31 58  1  0
 32 59  1  0
 32 60  1  0
M  END
>  <smiles>  (9) 
CN1CCN(c2cccc3c2CC(c2cccc(C(=O)NCc4ccccc4)c2)=N3)CC1

>  <score_type>  (9) 
oracle

>  <origin>  (9) 
autodockgpu

>  <m_score__min__energy>  (9) 
-9.5899999999999999

>  <m_primary>  (9) 
energy

>  <rmsd>  (9) 
7.830088375111294

>  <m_score__min__rmsd>  (9) 
7.830088375111294

>  <meeko>  (9) 
{"free_energy": -9.57, "intermolecular_energy": -11.06, "internal_energy": -1.34, "cluster_size": 30, "cluster_id": 1, "rank_in_cluster": 7}

>  <energy>  (9) 
-9.56

>  <cluster_rmsd>  (9) 
0.1

>  <cluster>  (9) 
1

$$$$

     RDKit          3D

 60 64  0  0  0  0  0  0  0  0999 V2000
  141.6020   78.8390  223.7990 C   0  0  0  0  0  0  0  0  0  0  0  0
  140.9060   80.0990  223.8920 N   0  0  0  0  0  0  0  0  0  0  0  0
  139.6930   80.1230  223.1330 C   0  0  0  0  0  0  0  0  0  0  0  0
  139.8510   80.4320  221.6810 C   0  0  0  0  0  0  0  0  0  0  0  0
  141.2110   80.5960  221.2420 N   0  0  0  0  0  0  0  0  0  0  0  0
  141.6650   80.1800  219.9440 C   0  0  0  0  0  0  0  0  0  0  0  0
  141.8040   81.0840  218.9090 C   0  0  0  0  0  0  0  0  0  0  0  0
  142.2420   80.6780  217.6590 C   0  0  0  0  0  0  0  0  0  0  0  0
  142.5480   79.3360  217.4380 C   0  0  0  0  0  0  0  0  0  0  0  0
  142.4040   78.4430  218.4860 C   0  0  0  0  0  0  0  0  0  0  0  0
  141.9650   78.8500  219.7390 C   0  0  0  0  0  0  0  0  0  0  0  0
  141.9330   77.6540  220.5860 C   0  0  0  0  0  0  0  0  0  0  0  0
  142.3980   76.5550  219.6760 C   0  0  0  0  0  0  0  0  0  0  0  0
  142.5270   75.1450  220.0970 C   0  0  0  0  0  0  0  0  0  0  0  0
  143.5780   74.3620  219.6590 C   0  0  0  0  0  0  0  0  0  0  0  0
  143.6160   73.0470  220.1100 C   0  0  0  0  0  0  0  0  0  0  0  0
  142.6570   72.5350  220.9530 C   0  0  0  0  0  0  0  0  0  0  0  0
  141.6070   73.3160  221.3910 C   0  0  0  0  0  0  0  0  0  0  0  0
  140.5640   72.8220  222.2840 C   0  0  0  0  0  0  0  0  0  0  0  0
  139.4810   73.4520  222.3630 O   0  0  0  0  0  0  0  0  0  0  0  0
  140.7030   71.6550  223.0790 N   0  0  0  0  0  0  0  0  0  0  0  0
  139.6990   71.1400  223.9660 C   0  0  0  0  0  0  0  0  0  0  0  0
  140.1180   70.9660  225.3580 C   0  0  0  0  0  0  0  0  0  0  0  0
  140.9760   71.9090  225.9150 C   0  0  0  0  0  0  0  0  0  0  0  0
  141.4200   71.8300  227.2180 C   0  0  0  0  0  0  0  0  0  0  0  0
  141.0190   70.7900  228.0300 C   0  0  0  0  0  0  0  0  0  0  0  0
  140.1720   69.8570  227.4840 C   0  0  0  0  0  0  0  0  0  0  0  0
  139.7280   69.9350  226.1830 C   0  0  0  0  0  0  0  0  0  0  0  0
  141.5740   74.6170  220.9410 C   0  0  0  0  0  0  0  0  0  0  0  0
  142.6510   77.0460  218.5040 N   0  0  0  0  0  0  0  0  0  0  0  0
  142.2040   81.2020  222.1110 C   0  0  0  0  0  0  0  0  0  0  0  0
  141.7050   81.2390  223.5530 C   0  0  0  0  0  0  0  0  0  0  0  0
  141.8113   78.4602  224.8103 H   0  0  0  0  0  0  0  0  0  0  0  0
  140.9766   78.1137  223.2579 H   0  0  0  0  0  0  0  0  0  0  0  0
  142.5489   78.9822  223.2579 H   0  0  0  0  0  0  0  0  0  0  0  0
  139.2190   79.1341  223.2197 H   0  0  0  0  0  0  0  0  0  0  0  0
  139.0896   80.9414  223.5526 H   0  0  0  0  0  0  0  0  0  0  0  0
  139.4029   79.6086  221.1055 H   0  0  0  0  0  0  0  0  0  0  0  0
  139.3541   81.3993  221.5152 H   0  0  0  0  0  0  0  0  0  0  0  0
  141.5630   82.1436  219.0800 H   0  0  0  0  0  0  0  0  0  0  0  0
  142.3478   81.4106  216.8453 H   0  0  0  0  0  0  0  0  0  0  0  0
  142.8963   78.9941  216.4522 H   0  0  0  0  0  0  0  0  0  0  0  0
  142.6114   77.7644  221.4448 H   0  0  0  0  0  0  0  0  0  0  0  0
  140.9365   77.4608  221.0099 H   0  0  0  0  0  0  0  0  0  0  0  0
  144.3497   74.7608  218.9841 H   0  0  0  0  0  0  0  0  0  0  0  0
  144.4393   72.3953  219.7821 H   0  0  0  0  0  0  0  0  0  0  0  0
  142.7282   71.4880  221.2827 H   0  0  0  0  0  0  0  0  0  0  0  0
  141.6030   71.1300  223.0140 H   0  0  0  0  0  0  0  0  0  0  0  0
  138.8464   71.8349  223.9529 H   0  0  0  0  0  0  0  0  0  0  0  0
  139.4558   70.1333  223.5954 H   0  0  0  0  0  0  0  0  0  0  0  0
  141.3133   72.7503  225.2917 H   0  0  0  0  0  0  0  0  0  0  0  0
  142.0982   72.6012  227.6122 H   0  0  0  0  0  0  0  0  0  0  0  0
  141.3633   70.7110  229.0718 H   0  0  0  0  0  0  0  0  0  0  0  0
  139.8359   69.0165  228.1090 H   0  0  0  0  0  0  0  0  0  0  0  0
  139.0499   69.1601  225.7960 H   0  0  0  0  0  0  0  0  0  0  0  0
  140.7485   75.2650  221.2705 H   0  0  0  0  0  0  0  0  0  0  0  0
  143.1323   80.6136  222.0646 H   0  0  0  0  0  0  0  0  0  0  0  0
  142.3893   82.2324  221.7733 H   0  0  0  0  0  0  0  0  0  0  0  0
  142.5749   81.2714  224.2255 H   0  0  0  0  0  0  0  0  0  0  0  0
  141.0722   82.1321  223.6623 H   0  0  0  0  0  0  0  0  0  0  0  0
  1  2  1  0
  2  3  1  0
  3  4  1  0
  4  5  1  0
  5  6  1  0
  6  7  2  0
  7  8  1  0
  8  9  2  0
  9 10  1  0
 10 11  2  0
 11 12  1  0
 12 13  1  0
 13 14  1  0
 14 15  2  0
 15 16  1  0
 16 17  2  0
 17 18  1  0
 18 19  1  0
 19 20  2  0
 19 21  1  0
 21 22  1  0
 22 23  1  0
 23 24  2  0
 24 25  1  0
 25 26  2  0
 26 27  1  0
 27 28  2  0
 18 29  2  0
 13 30  2  0
  5 31  1  0
 31 32  1  0
 32  2  1  0
 11  6  1  0
 29 14  1  0
 30 10  1  0
 28 23  1  0
  1 33  1  0
  1 34  1  0
  1 35  1  0
  3 36  1  0
  3 37  1  0
  4 38  1  0
  4 39  1  0
  7 40  1  0
  8 41  1  0
  9 42  1  0
 12 43  1  0
 12 44  1  0
 15 45  1  0
 16 46  1  0
 17 47  1  0
 21 48  1  0
 22 49  1  0
 22 50  1  0
 24 51  1  0
 25 52  1  0
 26 53  1  0
 27 54  1  0
 28 55  1  0
 29 56  1  0
 31 57  1  0
 31 58  1  0
 32 59  1  0
 32 60  1  0
M  END
>  <smiles>  (10) 
CN1CCN(c2cccc3c2CC(c2cccc(C(=O)NCc4ccccc4)c2)=N3)CC1

>  <score_type>  (10) 
oracle

>  <origin>  (10) 
autodockgpu

>  <m_score__min__energy>  (10) 
-9.5899999999999999

>  <m_primary>  (10) 
energy

>  <rmsd>  (10) 
7.700579668139926

>  <m_score__min__rmsd>  (10) 
7.700579668139926

>  <meeko>  (10) 
{"free_energy": -9.54, "intermolecular_energy": -11.03, "internal_energy": -1.32, "cluster_size": 30, "cluster_id": 1, "rank_in_cluster": 12}

>  <energy>  (10) 
-9.55

>  <cluster_rmsd>  (10) 
0.13

>  <cluster>  (10) 
1

$$$$

     RDKit          3D

 60 64  0  0  0  0  0  0  0  0999 V2000
  141.0520   78.7670  223.6090 C   0  0  0  0  0  0  0  0  0  0  0  0
  140.8730   80.1790  223.8450 N   0  0  0  0  0  0  0  0  0  0  0  0
  139.7950   80.7380  223.0870 C   0  0  0  0  0  0  0  0  0  0  0  0
  140.1270   81.1160  221.6820 C   0  0  0  0  0  0  0  0  0  0  0  0
  141.4690   80.8010  221.2710 N   0  0  0  0  0  0  0  0  0  0  0  0
  141.7960   80.3850  219.9360 C   0  0  0  0  0  0  0  0  0  0  0  0
  141.8450   81.2890  218.8940 C   0  0  0  0  0  0  0  0  0  0  0  0
  142.1600   80.8830  217.6080 C   0  0  0  0  0  0  0  0  0  0  0  0
  142.4340   79.5390  217.3570 C   0  0  0  0  0  0  0  0  0  0  0  0
  142.3800   78.6440  218.4130 C   0  0  0  0  0  0  0  0  0  0  0  0
  142.0640   79.0520  219.7010 C   0  0  0  0  0  0  0  0  0  0  0  0
  142.1020   77.8540  220.5460 C   0  0  0  0  0  0  0  0  0  0  0  0
  142.4700   76.7540  219.5940 C   0  0  0  0  0  0  0  0  0  0  0  0
  142.6270   75.3420  219.9990 C   0  0  0  0  0  0  0  0  0  0  0  0
  143.7060   74.5920  219.5740 C   0  0  0  0  0  0  0  0  0  0  0  0
  143.7680   73.2730  220.0080 C   0  0  0  0  0  0  0  0  0  0  0  0
  142.8050   72.7240  220.8230 C   0  0  0  0  0  0  0  0  0  0  0  0
  141.7270   73.4730  221.2480 C   0  0  0  0  0  0  0  0  0  0  0  0
  140.6780   72.9390  222.1130 C   0  0  0  0  0  0  0  0  0  0  0  0
  139.7070   73.6750  222.4160 O   0  0  0  0  0  0  0  0  0  0  0  0
  140.6910   71.6220  222.6360 N   0  0  0  0  0  0  0  0  0  0  0  0
  139.6770   71.0650  223.4870 C   0  0  0  0  0  0  0  0  0  0  0  0
  140.0260   70.9730  224.9060 C   0  0  0  0  0  0  0  0  0  0  0  0
  139.5320   69.8990  225.6410 C   0  0  0  0  0  0  0  0  0  0  0  0
  139.8110   69.7280  226.9810 C   0  0  0  0  0  0  0  0  0  0  0  0
  140.6040   70.6350  227.6500 C   0  0  0  0  0  0  0  0  0  0  0  0
  141.0930   71.6960  226.9280 C   0  0  0  0  0  0  0  0  0  0  0  0
  140.8160   71.8680  225.5910 C   0  0  0  0  0  0  0  0  0  0  0  0
  141.6690   74.7780  220.8160 C   0  0  0  0  0  0  0  0  0  0  0  0
  142.6160   77.2460  218.4050 N   0  0  0  0  0  0  0  0  0  0  0  0
  142.5730   80.8920  222.2090 C   0  0  0  0  0  0  0  0  0  0  0  0
  142.0570   80.9620  223.6430 C   0  0  0  0  0  0  0  0  0  0  0  0
  141.1188   78.2398  224.5721 H   0  0  0  0  0  0  0  0  0  0  0  0
  140.1958   78.3793  223.0375 H   0  0  0  0  0  0  0  0  0  0  0  0
  141.9778   78.6052  223.0375 H   0  0  0  0  0  0  0  0  0  0  0  0
  138.9825   79.9972  223.0558 H   0  0  0  0  0  0  0  0  0  0  0  0
  139.5214   81.6743  223.5955 H   0  0  0  0  0  0  0  0  0  0  0  0
  139.4318   80.5879  221.0127 H   0  0  0  0  0  0  0  0  0  0  0  0
  140.0367   82.2109  221.6276 H   0  0  0  0  0  0  0  0  0  0  0  0
  141.6301   82.3501  219.0884 H   0  0  0  0  0  0  0  0  0  0  0  0
  142.1939   81.6167  216.7891 H   0  0  0  0  0  0  0  0  0  0  0  0
  142.6875   79.1970  216.3427 H   0  0  0  0  0  0  0  0  0  0  0  0
  142.8592   77.9567  221.3372 H   0  0  0  0  0  0  0  0  0  0  0  0
  141.1486   77.6678  221.0621 H   0  0  0  0  0  0  0  0  0  0  0  0
  144.4815   75.0193  218.9213 H   0  0  0  0  0  0  0  0  0  0  0  0
  144.6149   72.6475  219.6894 H   0  0  0  0  0  0  0  0  0  0  0  0
  142.8957   71.6745  221.1398 H   0  0  0  0  0  0  0  0  0  0  0  0
  141.4980   71.0090  222.3850 H   0  0  0  0  0  0  0  0  0  0  0  0
  138.7782   71.6930  223.3990 H   0  0  0  0  0  0  0  0  0  0  0  0
  139.5300   70.0301  223.1443 H   0  0  0  0  0  0  0  0  0  0  0  0
  138.8953   69.1589  225.1342 H   0  0  0  0  0  0  0  0  0  0  0  0
  139.3979   68.8621  227.5190 H   0  0  0  0  0  0  0  0  0  0  0  0
  140.8358   70.5141  228.7185 H   0  0  0  0  0  0  0  0  0  0  0  0
  141.7292   72.4352  227.4368 H   0  0  0  0  0  0  0  0  0  0  0  0
  141.2334   72.7364  225.0603 H   0  0  0  0  0  0  0  0  0  0  0  0
  140.8202   75.3999  221.1366 H   0  0  0  0  0  0  0  0  0  0  0  0
  143.2146   80.0053  222.0989 H   0  0  0  0  0  0  0  0  0  0  0  0
  143.1457   81.8062  221.9939 H   0  0  0  0  0  0  0  0  0  0  0  0
  142.8428   80.5919  224.3180 H   0  0  0  0  0  0  0  0  0  0  0  0
  141.8008   82.0110  223.8525 H   0  0  0  0  0  0  0  0  0  0  0  0
  1  2  1  0
  2  3  1  0
  3  4  1  0
  4  5  1  0
  5  6  1  0
  6  7  2  0
  7  8  1  0
  8  9  2  0
  9 10  1  0
 10 11  2  0
 11 12  1  0
 12 13  1  0
 13 14  1  0
 14 15  2  0
 15 16  1  0
 16 17  2  0
 17 18  1  0
 18 19  1  0
 19 20  2  0
 19 21  1  0
 21 22  1  0
 22 23  1  0
 23 24  2  0
 24 25  1  0
 25 26  2  0
 26 27  1  0
 27 28  2  0
 18 29  2  0
 13 30  2  0
  5 31  1  0
 31 32  1  0
 32  2  1  0
 11  6  1  0
 29 14  1  0
 30 10  1  0
 28 23  1  0
  1 33  1  0
  1 34  1  0
  1 35  1  0
  3 36  1  0
  3 37  1  0
  4 38  1  0
  4 39  1  0
  7 40  1  0
  8 41  1  0
  9 42  1  0
 12 43  1  0
 12 44  1  0
 15 45  1  0
 16 46  1  0
 17 47  1  0
 21 48  1  0
 22 49  1  0
 22 50  1  0
 24 51  1  0
 25 52  1  0
 26 53  1  0
 27 54  1  0
 28 55  1  0
 29 56  1  0
 31 57  1  0
 31 58  1  0
 32 59  1  0
 32 60  1  0
M  END
>  <smiles>  (11) 
CN1CCN(c2cccc3c2CC(c2cccc(C(=O)NCc4ccccc4)c2)=N3)CC1

>  <score_type>  (11) 
oracle

>  <origin>  (11) 
autodockgpu

>  <m_score__min__energy>  (11) 
-9.5899999999999999

>  <m_primary>  (11) 
energy

>  <rmsd>  (11) 
7.883014205461608

>  <m_score__min__rmsd>  (11) 
7.883014205461608

>  <meeko>  (11) 
{"free_energy": -9.47, "intermolecular_energy": -10.96, "internal_energy": -1.34, "cluster_size": 30, "cluster_id": 1, "rank_in_cluster": 22}

>  <energy>  (11) 
-9.54

>  <cluster_rmsd>  (11) 
0.19

>  <cluster>  (11) 
1

$$$$

     RDKit          3D

 60 64  0  0  0  0  0  0  0  0999 V2000
  141.4830   78.8650  223.7420 C   0  0  0  0  0  0  0  0  0  0  0  0
  140.8330   80.1480  223.8630 N   0  0  0  0  0  0  0  0  0  0  0  0
  139.6390   80.2440  223.0810 C   0  0  0  0  0  0  0  0  0  0  0  0
  139.8400   80.5930  221.6440 C   0  0  0  0  0  0  0  0  0  0  0  0
  141.2140   80.7180  221.2370 N   0  0  0  0  0  0  0  0  0  0  0  0
  141.6790   80.3270  219.9360 C   0  0  0  0  0  0  0  0  0  0  0  0
  141.8160   81.2490  218.9170 C   0  0  0  0  0  0  0  0  0  0  0  0
  142.2640   80.8670  217.6630 C   0  0  0  0  0  0  0  0  0  0  0  0
  142.5840   79.5320  217.4220 C   0  0  0  0  0  0  0  0  0  0  0  0
  142.4410   78.6200  218.4540 C   0  0  0  0  0  0  0  0  0  0  0  0
  141.9920   79.0030  219.7110 C   0  0  0  0  0  0  0  0  0  0  0  0
  141.9660   77.7930  220.5380 C   0  0  0  0  0  0  0  0  0  0  0  0
  142.4440   76.7130  219.6130 C   0  0  0  0  0  0  0  0  0  0  0  0
  142.5840   75.2970  220.0120 C   0  0  0  0  0  0  0  0  0  0  0  0
  143.6500   74.5350  219.5780 C   0  0  0  0  0  0  0  0  0  0  0  0
  143.6960   73.2130  220.0070 C   0  0  0  0  0  0  0  0  0  0  0  0
  142.7300   72.6750  220.8250 C   0  0  0  0  0  0  0  0  0  0  0  0
  141.6650   73.4370  221.2590 C   0  0  0  0  0  0  0  0  0  0  0  0
  140.6130   72.9150  222.1280 C   0  0  0  0  0  0  0  0  0  0  0  0
  139.6110   73.6320  222.3680 O   0  0  0  0  0  0  0  0  0  0  0  0
  140.6570   71.6290  222.7230 N   0  0  0  0  0  0  0  0  0  0  0  0
  139.6420   71.0830  223.5800 C   0  0  0  0  0  0  0  0  0  0  0  0
  140.0510   70.8370  224.9640 C   0  0  0  0  0  0  0  0  0  0  0  0
  140.6860   71.8620  225.6590 C   0  0  0  0  0  0  0  0  0  0  0  0
  141.1030   71.7230  226.9670 C   0  0  0  0  0  0  0  0  0  0  0  0
  140.9000   70.5370  227.6420 C   0  0  0  0  0  0  0  0  0  0  0  0
  140.2740   69.5240  226.9580 C   0  0  0  0  0  0  0  0  0  0  0  0
  139.8570   69.6610  225.6540 C   0  0  0  0  0  0  0  0  0  0  0  0
  141.6230   74.7440  220.8320 C   0  0  0  0  0  0  0  0  0  0  0  0
  142.7000   77.2260  218.4520 N   0  0  0  0  0  0  0  0  0  0  0  0
  142.2110   81.2560  222.1460 C   0  0  0  0  0  0  0  0  0  0  0  0
  141.6840   81.2650  223.5780 C   0  0  0  0  0  0  0  0  0  0  0  0
  141.6874   78.4615  224.7447 H   0  0  0  0  0  0  0  0  0  0  0  0
  140.8273   78.1719  223.1945 H   0  0  0  0  0  0  0  0  0  0  0  0
  142.4297   78.9837  223.1945 H   0  0  0  0  0  0  0  0  0  0  0  0
  139.1255   79.2722  223.1254 H   0  0  0  0  0  0  0  0  0  0  0  0
  139.0587   81.0716  223.5151 H   0  0  0  0  0  0  0  0  0  0  0  0
  139.3729   79.8066  221.0329 H   0  0  0  0  0  0  0  0  0  0  0  0
  139.3847   81.5841  221.5009 H   0  0  0  0  0  0  0  0  0  0  0  0
  141.5654   82.3036  219.1041 H   0  0  0  0  0  0  0  0  0  0  0  0
  142.3667   81.6134  216.8616 H   0  0  0  0  0  0  0  0  0  0  0  0
  142.9424   79.2099  216.4332 H   0  0  0  0  0  0  0  0  0  0  0  0
  142.6395   77.8948  221.4017 H   0  0  0  0  0  0  0  0  0  0  0  0
  140.9691   77.5848  220.9537 H   0  0  0  0  0  0  0  0  0  0  0  0
  144.4276   74.9544  218.9227 H   0  0  0  0  0  0  0  0  0  0  0  0
  144.5322   72.5768  219.6815 H   0  0  0  0  0  0  0  0  0  0  0  0
  142.8076   71.6231  221.1373 H   0  0  0  0  0  0  0  0  0  0  0  0
  141.4910   71.0320  222.5250 H   0  0  0  0  0  0  0  0  0  0  0  0
  138.7973   71.7875  223.5964 H   0  0  0  0  0  0  0  0  0  0  0  0
  139.3899   70.0981  223.1600 H   0  0  0  0  0  0  0  0  0  0  0  0
  140.8621   72.8191  225.1462 H   0  0  0  0  0  0  0  0  0  0  0  0
  141.6002   72.5628  227.4745 H   0  0  0  0  0  0  0  0  0  0  0  0
  141.2260   70.4082  228.6847 H   0  0  0  0  0  0  0  0  0  0  0  0
  140.0994   68.5672  227.4719 H   0  0  0  0  0  0  0  0  0  0  0  0
  139.3600   68.8166  225.1539 H   0  0  0  0  0  0  0  0  0  0  0  0
  140.7849   75.3767  221.1595 H   0  0  0  0  0  0  0  0  0  0  0  0
  143.1168   80.6338  222.0982 H   0  0  0  0  0  0  0  0  0  0  0  0
  142.4423   82.2890  221.8471 H   0  0  0  0  0  0  0  0  0  0  0  0
  142.5404   81.2396  224.2679 H   0  0  0  0  0  0  0  0  0  0  0  0
  141.0851   82.1789  223.7050 H   0  0  0  0  0  0  0  0  0  0  0  0
  1  2  1  0
  2  3  1  0
  3  4  1  0
  4  5  1  0
  5  6  1  0
  6  7  2  0
  7  8  1  0
  8  9  2  0
  9 10  1  0
 10 11  2  0
 11 12  1  0
 12 13  1  0
 13 14  1  0
 14 15  2  0
 15 16  1  0
 16 17  2  0
 17 18  1  0
 18 19  1  0
 19 20  2  0
 19 21  1  0
 21 22  1  0
 22 23  1  0
 23 24  2  0
 24 25  1  0
 25 26  2  0
 26 27  1  0
 27 28  2  0
 18 29  2  0
 13 30  2  0
  5 31  1  0
 31 32  1  0
 32  2  1  0
 11  6  1  0
 29 14  1  0
 30 10  1  0
 28 23  1  0
  1 33  1  0
  1 34  1  0
  1 35  1  0
  3 36  1  0
  3 37  1  0
  4 38  1  0
  4 39  1  0
  7 40  1  0
  8 41  1  0
  9 42  1  0
 12 43  1  0
 12 44  1  0
 15 45  1  0
 16 46  1  0
 17 47  1  0
 21 48  1  0
 22 49  1  0
 22 50  1  0
 24 51  1  0
 25 52  1  0
 26 53  1  0
 27 54  1  0
 28 55  1  0
 29 56  1  0
 31 57  1  0
 31 58  1  0
 32 59  1  0
 32 60  1  0
M  END
>  <smiles>  (12) 
CN1CCN(c2cccc3c2CC(c2cccc(C(=O)NCc4ccccc4)c2)=N3)CC1

>  <score_type>  (12) 
oracle

>  <origin>  (12) 
autodockgpu

>  <m_score__min__energy>  (12) 
-9.5899999999999999

>  <m_primary>  (12) 
energy

>  <rmsd>  (12) 
7.813042895009177

>  <m_score__min__rmsd>  (12) 
7.813042895009177

>  <meeko>  (12) 
{"free_energy": -9.54, "intermolecular_energy": -11.03, "internal_energy": -1.34, "cluster_size": 30, "cluster_id": 1, "rank_in_cluster": 11}

>  <energy>  (12) 
-9.54

>  <cluster_rmsd>  (12) 
0.2

>  <cluster>  (12) 
1

$$$$

     RDKit          3D

 60 64  0  0  0  0  0  0  0  0999 V2000
  140.6830   84.6760  220.8390 C   0  0  0  0  0  0  0  0  0  0  0  0
  139.9950   83.9500  219.8000 N   0  0  0  0  0  0  0  0  0  0  0  0
  138.8580   83.2270  220.2840 C   0  0  0  0  0  0  0  0  0  0  0  0
  139.1540   81.8920  220.8830 C   0  0  0  0  0  0  0  0  0  0  0  0
  140.5510   81.5530  220.9450 N   0  0  0  0  0  0  0  0  0  0  0  0
  141.1190   80.7940  222.0240 C   0  0  0  0  0  0  0  0  0  0  0  0
  141.8380   81.4050  223.0320 C   0  0  0  0  0  0  0  0  0  0  0  0
  142.3840   80.6680  224.0690 C   0  0  0  0  0  0  0  0  0  0  0  0
  142.2080   79.2860  224.1010 C   0  0  0  0  0  0  0  0  0  0  0  0
  141.4850   78.6870  223.0830 C   0  0  0  0  0  0  0  0  0  0  0  0
  140.9370   79.4260  222.0420 C   0  0  0  0  0  0  0  0  0  0  0  0
  140.2510   78.4760  221.1630 C   0  0  0  0  0  0  0  0  0  0  0  0
  140.4760   77.1470  221.8230 C   0  0  0  0  0  0  0  0  0  0  0  0
  139.9600   75.8700  221.2860 C   0  0  0  0  0  0  0  0  0  0  0  0
  139.2040   75.8350  220.1310 C   0  0  0  0  0  0  0  0  0  0  0  0
  138.7640   74.5860  219.7040 C   0  0  0  0  0  0  0  0  0  0  0  0
  139.0600   73.4320  220.3900 C   0  0  0  0  0  0  0  0  0  0  0  0
  139.8160   73.4670  221.5440 C   0  0  0  0  0  0  0  0  0  0  0  0
  140.1570   72.2720  222.3100 C   0  0  0  0  0  0  0  0  0  0  0  0
  141.1750   71.6120  221.9850 O   0  0  0  0  0  0  0  0  0  0  0  0
  139.3980   71.8060  223.4130 N   0  0  0  0  0  0  0  0  0  0  0  0
  139.7040   70.6370  224.1880 C   0  0  0  0  0  0  0  0  0  0  0  0
  140.1830   70.8900  225.5480 C   0  0  0  0  0  0  0  0  0  0  0  0
  139.7690   70.0360  226.5650 C   0  0  0  0  0  0  0  0  0  0  0  0
  140.1720   70.1940  227.8750 C   0  0  0  0  0  0  0  0  0  0  0  0
  141.0160   71.2260  228.2260 C   0  0  0  0  0  0  0  0  0  0  0  0
  141.4270   72.0700  227.2240 C   0  0  0  0  0  0  0  0  0  0  0  0
  141.0260   71.9140  225.9170 C   0  0  0  0  0  0  0  0  0  0  0  0
  140.2490   74.7040  221.9630 C   0  0  0  0  0  0  0  0  0  0  0  0
  141.1750   77.3150  222.8990 N   0  0  0  0  0  0  0  0  0  0  0  0
  141.4650   81.9740  219.8980 C   0  0  0  0  0  0  0  0  0  0  0  0
  140.8350   83.0690  219.0430 C   0  0  0  0  0  0  0  0  0  0  0  0
  140.3440   84.3183  221.8224 H   0  0  0  0  0  0  0  0  0  0  0  0
  141.7668   84.5139  220.7435 H   0  0  0  0  0  0  0  0  0  0  0  0
  140.4630   85.7495  220.7435 H   0  0  0  0  0  0  0  0  0  0  0  0
  138.3670   83.8421  221.0524 H   0  0  0  0  0  0  0  0  0  0  0  0
  138.2274   83.0307  219.4043 H   0  0  0  0  0  0  0  0  0  0  0  0
  138.7537   81.8806  221.9075 H   0  0  0  0  0  0  0  0  0  0  0  0
  138.6843   81.1468  220.2241 H   0  0  0  0  0  0  0  0  0  0  0  0
  141.9794   82.4957  223.0108 H   0  0  0  0  0  0  0  0  0  0  0  0
  142.9541   81.1710  224.8640 H   0  0  0  0  0  0  0  0  0  0  0  0
  142.6341   78.6840  224.9171 H   0  0  0  0  0  0  0  0  0  0  0  0
  139.1770   78.7054  221.1009 H   0  0  0  0  0  0  0  0  0  0  0  0
  140.6273   78.5059  220.1298 H   0  0  0  0  0  0  0  0  0  0  0  0
  138.9609   76.7521  219.5743 H   0  0  0  0  0  0  0  0  0  0  0  0
  138.1595   74.5198  218.7874 H   0  0  0  0  0  0  0  0  0  0  0  0
  138.6890   72.4672  220.0138 H   0  0  0  0  0  0  0  0  0  0  0  0
  138.5510   72.3540  223.6830 H   0  0  0  0  0  0  0  0  0  0  0  0
  138.7905   70.0283  224.2582 H   0  0  0  0  0  0  0  0  0  0  0  0
  140.5317   70.1359  223.6647 H   0  0  0  0  0  0  0  0  0  0  0  0
  139.0949   69.2034  226.3154 H   0  0  0  0  0  0  0  0  0  0  0  0
  139.8176   69.4921  228.6443 H   0  0  0  0  0  0  0  0  0  0  0  0
  141.3465   71.3674  229.2656 H   0  0  0  0  0  0  0  0  0  0  0  0
  142.1018   72.9016  227.4754 H   0  0  0  0  0  0  0  0  0  0  0  0
  141.3853   72.6198  225.1536 H   0  0  0  0  0  0  0  0  0  0  0  0
  140.8534   74.7656  222.8800 H   0  0  0  0  0  0  0  0  0  0  0  0
  142.3874   82.3595  220.3569 H   0  0  0  0  0  0  0  0  0  0  0  0
  141.6914   81.1096  219.2565 H   0  0  0  0  0  0  0  0  0  0  0  0
  141.6391   83.6606  218.5810 H   0  0  0  0  0  0  0  0  0  0  0  0
  140.2044   82.5778  218.2873 H   0  0  0  0  0  0  0  0  0  0  0  0
  1  2  1  0
  2  3  1  0
  3  4  1  0
  4  5  1  0
  5  6  1  0
  6  7  2  0
  7  8  1  0
  8  9  2  0
  9 10  1  0
 10 11  2  0
 11 12  1  0
 12 13  1  0
 13 14  1  0
 14 15  2  0
 15 16  1  0
 16 17  2  0
 17 18  1  0
 18 19  1  0
 19 20  2  0
 19 21  1  0
 21 22  1  0
 22 23  1  0
 23 24  2  0
 24 25  1  0
 25 26  2  0
 26 27  1  0
 27 28  2  0
 18 29  2  0
 13 30  2  0
  5 31  1  0
 31 32  1  0
 32  2  1  0
 11  6  1  0
 29 14  1  0
 30 10  1  0
 28 23  1  0
  1 33  1  0
  1 34  1  0
  1 35  1  0
  3 36  1  0
  3 37  1  0
  4 38  1  0
  4 39  1  0
  7 40  1  0
  8 41  1  0
  9 42  1  0
 12 43  1  0
 12 44  1  0
 15 45  1  0
 16 46  1  0
 17 47  1  0
 21 48  1  0
 22 49  1  0
 22 50  1  0
 24 51  1  0
 25 52  1  0
 26 53  1  0
 27 54  1  0
 28 55  1  0
 29 56  1  0
 31 57  1  0
 31 58  1  0
 32 59  1  0
 32 60  1  0
M  END
>  <smiles>  (13) 
CN1CCN(c2cccc3c2CC(c2cccc(C(=O)NCc4ccccc4)c2)=N3)CC1

>  <score_type>  (13) 
oracle

>  <origin>  (13) 
autodockgpu

>  <m_score__min__energy>  (13) 
-9.5899999999999999

>  <m_primary>  (13) 
energy

>  <rmsd>  (13) 
8.380970041864366

>  <m_score__min__rmsd>  (13) 
8.380970041864366

>  <meeko>  (13) 
{"free_energy": -8.95, "intermolecular_energy": -10.44, "internal_energy": -1.2, "cluster_size": 4, "cluster_id": 3, "rank_in_cluster": 2}

>  <energy>  (13) 
-9.51

>  <cluster_rmsd>  (13) 
0.31

>  <cluster>  (13) 
1

$$$$

     RDKit          3D

 60 64  0  0  0  0  0  0  0  0999 V2000
  141.8390   78.6350  223.7540 C   0  0  0  0  0  0  0  0  0  0  0  0
  140.9480   79.7650  223.8440 N   0  0  0  0  0  0  0  0  0  0  0  0
  139.7320   79.5760  223.1120 C   0  0  0  0  0  0  0  0  0  0  0  0
  139.8090   79.8810  221.6530 C   0  0  0  0  0  0  0  0  0  0  0  0
  141.1140   80.2570  221.1810 N   0  0  0  0  0  0  0  0  0  0  0  0
  141.6030   79.8980  219.8790 C   0  0  0  0  0  0  0  0  0  0  0  0
  141.6270   80.8120  218.8440 C   0  0  0  0  0  0  0  0  0  0  0  0
  142.1000   80.4600  217.5900 C   0  0  0  0  0  0  0  0  0  0  0  0
  142.5600   79.1640  217.3650 C   0  0  0  0  0  0  0  0  0  0  0  0
  142.5300   78.2590  218.4140 C   0  0  0  0  0  0  0  0  0  0  0  0
  142.0560   78.6120  219.6700 C   0  0  0  0  0  0  0  0  0  0  0  0
  142.1710   77.4200  220.5160 C   0  0  0  0  0  0  0  0  0  0  0  0
  142.7540   76.3830  219.6010 C   0  0  0  0  0  0  0  0  0  0  0  0
  143.0520   74.9980  220.0200 C   0  0  0  0  0  0  0  0  0  0  0  0
  144.3110   74.4560  219.8510 C   0  0  0  0  0  0  0  0  0  0  0  0
  144.4950   73.1450  220.2770 C   0  0  0  0  0  0  0  0  0  0  0  0
  143.4790   72.4090  220.8400 C   0  0  0  0  0  0  0  0  0  0  0  0
  142.2210   72.9500  221.0090 C   0  0  0  0  0  0  0  0  0  0  0  0
  141.1090   72.2130  221.6010 C   0  0  0  0  0  0  0  0  0  0  0  0
  140.3720   71.5210  220.8560 O   0  0  0  0  0  0  0  0  0  0  0  0
  140.8070   72.2310  222.9870 N   0  0  0  0  0  0  0  0  0  0  0  0
  139.7230   71.5180  223.6020 C   0  0  0  0  0  0  0  0  0  0  0  0
  139.9720   71.0480  224.9660 C   0  0  0  0  0  0  0  0  0  0  0  0
  140.7900   71.8140  225.7920 C   0  0  0  0  0  0  0  0  0  0  0  0
  141.0780   71.4530  227.0920 C   0  0  0  0  0  0  0  0  0  0  0  0
  140.5520   70.2950  227.6260 C   0  0  0  0  0  0  0  0  0  0  0  0
  139.7450   69.5380  226.8150 C   0  0  0  0  0  0  0  0  0  0  0  0
  139.4570   69.8970  225.5180 C   0  0  0  0  0  0  0  0  0  0  0  0
  142.0430   74.2480  220.5860 C   0  0  0  0  0  0  0  0  0  0  0  0
  142.9390   76.9010  218.4280 N   0  0  0  0  0  0  0  0  0  0  0  0
  142.0110   81.0330  222.0180 C   0  0  0  0  0  0  0  0  0  0  0  0
  141.5430   81.0140  223.4700 C   0  0  0  0  0  0  0  0  0  0  0  0
  142.1057   78.2968  224.7662 H   0  0  0  0  0  0  0  0  0  0  0  0
  141.3403   77.8169  223.2136 H   0  0  0  0  0  0  0  0  0  0  0  0
  142.7508   78.9292  223.2136 H   0  0  0  0  0  0  0  0  0  0  0  0
  139.4288   78.5245  223.2233 H   0  0  0  0  0  0  0  0  0  0  0  0
  139.0103   80.2912  223.5334 H   0  0  0  0  0  0  0  0  0  0  0  0
  139.4904   78.9854  221.0995 H   0  0  0  0  0  0  0  0  0  0  0  0
  139.1577   80.7514  221.4851 H   0  0  0  0  0  0  0  0  0  0  0  0
  141.2648   81.8360  219.0179 H   0  0  0  0  0  0  0  0  0  0  0  0
  142.1123   81.2000  216.7762 H   0  0  0  0  0  0  0  0  0  0  0  0
  142.9387   78.8658  216.3762 H   0  0  0  0  0  0  0  0  0  0  0  0
  142.8388   77.6088  221.3695 H   0  0  0  0  0  0  0  0  0  0  0  0
  141.2074   77.1115  220.9476 H   0  0  0  0  0  0  0  0  0  0  0  0
  145.1306   75.0347  219.4001 H   0  0  0  0  0  0  0  0  0  0  0  0
  145.4857   72.6816  220.1597 H   0  0  0  0  0  0  0  0  0  0  0  0
  143.6719   71.3744  221.1601 H   0  0  0  0  0  0  0  0  0  0  0  0
  141.4180   72.8070  223.6080 H   0  0  0  0  0  0  0  0  0  0  0  0
  138.8493   72.1858  223.6277 H   0  0  0  0  0  0  0  0  0  0  0  0
  139.5720   70.6141  222.9936 H   0  0  0  0  0  0  0  0  0  0  0  0
  141.2234   72.7429  225.3927 H   0  0  0  0  0  0  0  0  0  0  0  0
  141.7303   72.0917  227.7057 H   0  0  0  0  0  0  0  0  0  0  0  0
  140.7708   69.9909  228.6602 H   0  0  0  0  0  0  0  0  0  0  0  0
  139.3121   68.6098  227.2162 H   0  0  0  0  0  0  0  0  0  0  0  0
  138.8035   69.2526  224.9116 H   0  0  0  0  0  0  0  0  0  0  0  0
  141.0507   74.7076  220.7050 H   0  0  0  0  0  0  0  0  0  0  0  0
  143.0222   80.6041  221.9586 H   0  0  0  0  0  0  0  0  0  0  0  0
  142.0170   82.0735  221.6613 H   0  0  0  0  0  0  0  0  0  0  0  0
  142.4097   81.1997  224.1214 H   0  0  0  0  0  0  0  0  0  0  0  0
  140.7752   81.7938  223.5814 H   0  0  0  0  0  0  0  0  0  0  0  0
  1  2  1  0
  2  3  1  0
  3  4  1  0
  4  5  1  0
  5  6  1  0
  6  7  2  0
  7  8  1  0
  8  9  2  0
  9 10  1  0
 10 11  2  0
 11 12  1  0
 12 13  1  0
 13 14  1  0
 14 15  2  0
 15 16  1  0
 16 17  2  0
 17 18  1  0
 18 19  1  0
 19 20  2  0
 19 21  1  0
 21 22  1  0
 22 23  1  0
 23 24  2  0
 24 25  1  0
 25 26  2  0
 26 27  1  0
 27 28  2  0
 18 29  2  0
 13 30  2  0
  5 31  1  0
 31 32  1  0
 32  2  1  0
 11  6  1  0
 29 14  1  0
 30 10  1  0
 28 23  1  0
  1 33  1  0
  1 34  1  0
  1 35  1  0
  3 36  1  0
  3 37  1  0
  4 38  1  0
  4 39  1  0
  7 40  1  0
  8 41  1  0
  9 42  1  0
 12 43  1  0
 12 44  1  0
 15 45  1  0
 16 46  1  0
 17 47  1  0
 21 48  1  0
 22 49  1  0
 22 50  1  0
 24 51  1  0
 25 52  1  0
 26 53  1  0
 27 54  1  0
 28 55  1  0
 29 56  1  0
 31 57  1  0
 31 58  1  0
 32 59  1  0
 32 60  1  0
M  END
>  <smiles>  (14) 
CN1CCN(c2cccc3c2CC(c2cccc(C(=O)NCc4ccccc4)c2)=N3)CC1

>  <score_type>  (14) 
oracle

>  <origin>  (14) 
autodockgpu

>  <m_score__min__energy>  (14) 
-9.5899999999999999

>  <m_primary>  (14) 
energy

>  <rmsd>  (14) 
7.62259823039141

>  <m_score__min__rmsd>  (14) 
7.62259823039141

>  <meeko>  (14) 
{"free_energy": -8.92, "intermolecular_energy": -10.42, "internal_energy": -1.24, "cluster_size": 30, "cluster_id": 1, "rank_in_cluster": 28}

>  <energy>  (14) 
-9.5

>  <cluster_rmsd>  (14) 
0.32

>  <cluster>  (14) 
1

$$$$

     RDKit          3D

 60 64  0  0  0  0  0  0  0  0999 V2000
  141.5250   78.8670  223.7550 C   0  0  0  0  0  0  0  0  0  0  0  0
  140.8500   80.1360  223.8740 N   0  0  0  0  0  0  0  0  0  0  0  0
  139.6470   80.2020  223.1010 C   0  0  0  0  0  0  0  0  0  0  0  0
  139.8300   80.5470  221.6600 C   0  0  0  0  0  0  0  0  0  0  0  0
  141.1980   80.6980  221.2420 N   0  0  0  0  0  0  0  0  0  0  0  0
  141.6600   80.3100  219.9390 C   0  0  0  0  0  0  0  0  0  0  0  0
  141.7820   81.2300  218.9170 C   0  0  0  0  0  0  0  0  0  0  0  0
  142.2280   80.8500  217.6620 C   0  0  0  0  0  0  0  0  0  0  0  0
  142.5620   79.5180  217.4230 C   0  0  0  0  0  0  0  0  0  0  0  0
  142.4350   78.6070  218.4580 C   0  0  0  0  0  0  0  0  0  0  0  0
  141.9870   78.9880  219.7160 C   0  0  0  0  0  0  0  0  0  0  0  0
  141.9790   77.7800  220.5470 C   0  0  0  0  0  0  0  0  0  0  0  0
  142.4650   76.7030  219.6220 C   0  0  0  0  0  0  0  0  0  0  0  0
  142.6230   75.2910  220.0240 C   0  0  0  0  0  0  0  0  0  0  0  0
  143.7090   74.5460  219.6060 C   0  0  0  0  0  0  0  0  0  0  0  0
  143.7710   73.2250  220.0370 C   0  0  0  0  0  0  0  0  0  0  0  0
  142.8020   72.6710  220.8410 C   0  0  0  0  0  0  0  0  0  0  0  0
  141.7170   73.4150  221.2580 C   0  0  0  0  0  0  0  0  0  0  0  0
  140.6610   72.8750  222.1110 C   0  0  0  0  0  0  0  0  0  0  0  0
  139.6990   73.6160  222.4300 O   0  0  0  0  0  0  0  0  0  0  0  0
  140.6590   71.5470  222.6060 N   0  0  0  0  0  0  0  0  0  0  0  0
  139.6390   70.9830  223.4450 C   0  0  0  0  0  0  0  0  0  0  0  0
  139.9720   70.8910  224.8670 C   0  0  0  0  0  0  0  0  0  0  0  0
  140.7640   71.8880  225.4280 C   0  0  0  0  0  0  0  0  0  0  0  0
  141.1250   71.8870  226.7590 C   0  0  0  0  0  0  0  0  0  0  0  0
  140.7040   70.8750  227.5960 C   0  0  0  0  0  0  0  0  0  0  0  0
  139.9220   69.8890  227.0460 C   0  0  0  0  0  0  0  0  0  0  0  0
  139.5610   69.8890  225.7180 C   0  0  0  0  0  0  0  0  0  0  0  0
  141.6600   74.7220  220.8300 C   0  0  0  0  0  0  0  0  0  0  0  0
  142.7090   77.2160  218.4580 N   0  0  0  0  0  0  0  0  0  0  0  0
  142.1900   81.2630  222.1390 C   0  0  0  0  0  0  0  0  0  0  0  0
  141.6740   81.2700  223.5750 C   0  0  0  0  0  0  0  0  0  0  0  0
  141.7368   78.4688  224.7583 H   0  0  0  0  0  0  0  0  0  0  0  0
  140.8836   78.1604  223.2080 H   0  0  0  0  0  0  0  0  0  0  0  0
  142.4695   79.0039  223.2080 H   0  0  0  0  0  0  0  0  0  0  0  0
  139.1546   79.2198  223.1550 H   0  0  0  0  0  0  0  0  0  0  0  0
  139.0522   81.0191  223.5352 H   0  0  0  0  0  0  0  0  0  0  0  0
  139.3748   79.7476  221.0569 H   0  0  0  0  0  0  0  0  0  0  0  0
  139.3532   81.5276  221.5148 H   0  0  0  0  0  0  0  0  0  0  0  0
  141.5207   82.2823  219.1025 H   0  0  0  0  0  0  0  0  0  0  0  0
  142.3182   81.5954  216.8581 H   0  0  0  0  0  0  0  0  0  0  0  0
  142.9189   79.1973  216.4332 H   0  0  0  0  0  0  0  0  0  0  0  0
  142.6556   77.8920  221.4071 H   0  0  0  0  0  0  0  0  0  0  0  0
  140.9868   77.5615  220.9686 H   0  0  0  0  0  0  0  0  0  0  0  0
  144.4890   74.9779  218.9617 H   0  0  0  0  0  0  0  0  0  0  0  0
  144.6228   72.6029  219.7247 H   0  0  0  0  0  0  0  0  0  0  0  0
  142.8932   71.6209  221.1558 H   0  0  0  0  0  0  0  0  0  0  0  0
  141.4590   70.9300  222.3420 H   0  0  0  0  0  0  0  0  0  0  0  0
  138.7376   71.6058  223.3477 H   0  0  0  0  0  0  0  0  0  0  0  0
  139.5023   69.9477  223.0995 H   0  0  0  0  0  0  0  0  0  0  0  0
  141.1157   72.7085  224.7852 H   0  0  0  0  0  0  0  0  0  0  0  0
  141.7527   72.6986  227.1556 H   0  0  0  0  0  0  0  0  0  0  0  0
  140.9829   70.8582  228.6599 H   0  0  0  0  0  0  0  0  0  0  0  0
  139.5714   69.0694  227.6905 H   0  0  0  0  0  0  0  0  0  0  0  0
  138.9329   69.0740  225.3291 H   0  0  0  0  0  0  0  0  0  0  0  0
  140.8071   75.3408  221.1455 H   0  0  0  0  0  0  0  0  0  0  0  0
  143.1086   80.6600  222.0879 H   0  0  0  0  0  0  0  0  0  0  0  0
  142.3969   82.2987  221.8316 H   0  0  0  0  0  0  0  0  0  0  0  0
  142.5360   81.2682  224.2583 H   0  0  0  0  0  0  0  0  0  0  0  0
  141.0559   82.1712  223.7007 H   0  0  0  0  0  0  0  0  0  0  0  0
  1  2  1  0
  2  3  1  0
  3  4  1  0
  4  5  1  0
  5  6  1  0
  6  7  2  0
  7  8  1  0
  8  9  2  0
  9 10  1  0
 10 11  2  0
 11 12  1  0
 12 13  1  0
 13 14  1  0
 14 15  2  0
 15 16  1  0
 16 17  2  0
 17 18  1  0
 18 19  1  0
 19 20  2  0
 19 21  1  0
 21 22  1  0
 22 23  1  0
 23 24  2  0
 24 25  1  0
 25 26  2  0
 26 27  1  0
 27 28  2  0
 18 29  2  0
 13 30  2  0
  5 31  1  0
 31 32  1  0
 32  2  1  0
 11  6  1  0
 29 14  1  0
 30 10  1  0
 28 23  1  0
  1 33  1  0
  1 34  1  0
  1 35  1  0
  3 36  1  0
  3 37  1  0
  4 38  1  0
  4 39  1  0
  7 40  1  0
  8 41  1  0
  9 42  1  0
 12 43  1  0
 12 44  1  0
 15 45  1  0
 16 46  1  0
 17 47  1  0
 21 48  1  0
 22 49  1  0
 22 50  1  0
 24 51  1  0
 25 52  1  0
 26 53  1  0
 27 54  1  0
 28 55  1  0
 29 56  1  0
 31 57  1  0
 31 58  1  0
 32 59  1  0
 32 60  1  0
M  END
>  <smiles>  (15) 
CN1CCN(c2cccc3c2CC(c2cccc(C(=O)NCc4ccccc4)c2)=N3)CC1

>  <score_type>  (15) 
oracle

>  <origin>  (15) 
autodockgpu

>  <m_score__min__energy>  (15) 
-9.5899999999999999

>  <m_primary>  (15) 
energy

>  <rmsd>  (15) 
7.806312443945422

>  <m_score__min__rmsd>  (15) 
7.806312443945422

>  <meeko>  (15) 
{"free_energy": -9.51, "intermolecular_energy": -11.0, "internal_energy": -1.37, "cluster_size": 30, "cluster_id": 1, "rank_in_cluster": 13}

>  <energy>  (15) 
-9.49

>  <cluster_rmsd>  (15) 
0.29

>  <cluster>  (15) 
1

$$$$

     RDKit          3D

 60 64  0  0  0  0  0  0  0  0999 V2000
  141.6370   78.8590  223.7620 C   0  0  0  0  0  0  0  0  0  0  0  0
  140.8950   80.0930  223.8460 N   0  0  0  0  0  0  0  0  0  0  0  0
  139.6810   80.0660  223.0880 C   0  0  0  0  0  0  0  0  0  0  0  0
  139.8270   80.3680  221.6330 C   0  0  0  0  0  0  0  0  0  0  0  0
  141.1790   80.5790  221.1910 N   0  0  0  0  0  0  0  0  0  0  0  0
  141.6460   80.1690  219.8960 C   0  0  0  0  0  0  0  0  0  0  0  0
  141.8000   81.0780  218.8680 C   0  0  0  0  0  0  0  0  0  0  0  0
  142.2510   80.6780  217.6210 C   0  0  0  0  0  0  0  0  0  0  0  0
  142.5560   79.3370  217.3950 C   0  0  0  0  0  0  0  0  0  0  0  0
  142.3960   78.4380  218.4360 C   0  0  0  0  0  0  0  0  0  0  0  0
  141.9440   78.8390  219.6860 C   0  0  0  0  0  0  0  0  0  0  0  0
  141.8990   77.6380  220.5260 C   0  0  0  0  0  0  0  0  0  0  0  0
  142.3700   76.5430  219.6140 C   0  0  0  0  0  0  0  0  0  0  0  0
  142.4910   75.1300  220.0290 C   0  0  0  0  0  0  0  0  0  0  0  0
  143.5220   74.3360  219.5660 C   0  0  0  0  0  0  0  0  0  0  0  0
  143.5520   73.0190  220.0130 C   0  0  0  0  0  0  0  0  0  0  0  0
  142.6050   72.5160  220.8740 C   0  0  0  0  0  0  0  0  0  0  0  0
  141.5740   73.3100  221.3360 C   0  0  0  0  0  0  0  0  0  0  0  0
  140.5440   72.8250  222.2500 C   0  0  0  0  0  0  0  0  0  0  0  0
  139.4600   73.4530  222.3320 O   0  0  0  0  0  0  0  0  0  0  0  0
  140.6970   71.6730  223.0620 N   0  0  0  0  0  0  0  0  0  0  0  0
  139.7060   71.1680  223.9700 C   0  0  0  0  0  0  0  0  0  0  0  0
  140.1640   70.9450  225.3420 C   0  0  0  0  0  0  0  0  0  0  0  0
  140.0230   69.6730  225.8890 C   0  0  0  0  0  0  0  0  0  0  0  0
  140.4290   69.3680  227.1720 C   0  0  0  0  0  0  0  0  0  0  0  0
  140.9990   70.3360  227.9710 C   0  0  0  0  0  0  0  0  0  0  0  0
  141.1400   71.5920  227.4350 C   0  0  0  0  0  0  0  0  0  0  0  0
  140.7350   71.8980  226.1550 C   0  0  0  0  0  0  0  0  0  0  0  0
  141.5480   74.6120  220.8920 C   0  0  0  0  0  0  0  0  0  0  0  0
  142.6380   77.0400  218.4490 N   0  0  0  0  0  0  0  0  0  0  0  0
  142.1500   81.2280  222.0530 C   0  0  0  0  0  0  0  0  0  0  0  0
  141.6520   81.2590  223.4950 C   0  0  0  0  0  0  0  0  0  0  0  0
  141.8567   78.4935  224.7760 H   0  0  0  0  0  0  0  0  0  0  0  0
  141.0403   78.1084  223.2230 H   0  0  0  0  0  0  0  0  0  0  0  0
  142.5798   79.0340  223.2230 H   0  0  0  0  0  0  0  0  0  0  0  0
  139.2435   79.0613  223.1837 H   0  0  0  0  0  0  0  0  0  0  0  0
  139.0481   80.8652  223.5012 H   0  0  0  0  0  0  0  0  0  0  0  0
  139.4098   79.5233  221.0652 H   0  0  0  0  0  0  0  0  0  0  0  0
  139.2945   81.3147  221.4595 H   0  0  0  0  0  0  0  0  0  0  0  0
  141.5605   82.1374  219.0423 H   0  0  0  0  0  0  0  0  0  0  0  0
  142.3679   81.4152  216.8130 H   0  0  0  0  0  0  0  0  0  0  0  0
  142.9158   79.0002  216.4116 H   0  0  0  0  0  0  0  0  0  0  0  0
  142.5687   77.7410  221.3926 H   0  0  0  0  0  0  0  0  0  0  0  0
  140.8976   77.4457  220.9386 H   0  0  0  0  0  0  0  0  0  0  0  0
  144.2841   74.7269  218.8758 H   0  0  0  0  0  0  0  0  0  0  0  0
  144.3600   72.3580  219.6663 H   0  0  0  0  0  0  0  0  0  0  0  0
  142.6696   71.4671  221.1990 H   0  0  0  0  0  0  0  0  0  0  0  0
  141.5990   71.1510  222.9960 H   0  0  0  0  0  0  0  0  0  0  0  0
  138.8769   71.8901  224.0026 H   0  0  0  0  0  0  0  0  0  0  0  0
  139.4179   70.1793  223.5833 H   0  0  0  0  0  0  0  0  0  0  0  0
  139.5705   68.8804  225.2750 H   0  0  0  0  0  0  0  0  0  0  0  0
  140.2971   68.3469  227.5593 H   0  0  0  0  0  0  0  0  0  0  0  0
  141.3275   70.1112  228.9964 H   0  0  0  0  0  0  0  0  0  0  0  0
  141.5931   72.3830  228.0507 H   0  0  0  0  0  0  0  0  0  0  0  0
  140.8700   72.9216  225.7755 H   0  0  0  0  0  0  0  0  0  0  0  0
  140.7384   75.2697  221.2412 H   0  0  0  0  0  0  0  0  0  0  0  0
  143.0991   80.6735  222.0101 H   0  0  0  0  0  0  0  0  0  0  0  0
  142.2971   82.2615  221.7063 H   0  0  0  0  0  0  0  0  0  0  0  0
  142.5211   81.3290  224.1657 H   0  0  0  0  0  0  0  0  0  0  0  0
  140.9869   82.1292  223.5973 H   0  0  0  0  0  0  0  0  0  0  0  0
  1  2  1  0
  2  3  1  0
  3  4  1  0
  4  5  1  0
  5  6  1  0
  6  7  2  0
  7  8  1  0
  8  9  2  0
  9 10  1  0
 10 11  2  0
 11 12  1  0
 12 13  1  0
 13 14  1  0
 14 15  2  0
 15 16  1  0
 16 17  2  0
 17 18  1  0
 18 19  1  0
 19 20  2  0
 19 21  1  0
 21 22  1  0
 22 23  1  0
 23 24  2  0
 24 25  1  0
 25 26  2  0
 26 27  1  0
 27 28  2  0
 18 29  2  0
 13 30  2  0
  5 31  1  0
 31 32  1  0
 32  2  1  0
 11  6  1  0
 29 14  1  0
 30 10  1  0
 28 23  1  0
  1 33  1  0
  1 34  1  0
  1 35  1  0
  3 36  1  0
  3 37  1  0
  4 38  1  0
  4 39  1  0
  7 40  1  0
  8 41  1  0
  9 42  1  0
 12 43  1  0
 12 44  1  0
 15 45  1  0
 16 46  1  0
 17 47  1  0
 21 48  1  0
 22 49  1  0
 22 50  1  0
 24 51  1  0
 25 52  1  0
 26 53  1  0
 27 54  1  0
 28 55  1  0
 29 56  1  0
 31 57  1  0
 31 58  1  0
 32 59  1  0
 32 60  1  0
M  END
>  <smiles>  (16) 
CN1CCN(c2cccc3c2CC(c2cccc(C(=O)NCc4ccccc4)c2)=N3)CC1

>  <score_type>  (16) 
oracle

>  <origin>  (16) 
autodockgpu

>  <m_score__min__energy>  (16) 
-9.5899999999999999

>  <m_primary>  (16) 
energy

>  <rmsd>  (16) 
7.697581615901985

>  <m_score__min__rmsd>  (16) 
7.697581615901985

>  <meeko>  (16) 
{"free_energy": -9.57, "intermolecular_energy": -11.06, "internal_energy": -1.3, "cluster_size": 30, "cluster_id": 1, "rank_in_cluster": 8}

>  <energy>  (16) 
-9.49

>  <cluster_rmsd>  (16) 
0.27

>  <cluster>  (16) 
1

$$$$

     RDKit          3D

 60 64  0  0  0  0  0  0  0  0999 V2000
  136.1510   79.3220  223.2160 C   0  0  0  0  0  0  0  0  0  0  0  0
  136.0390   80.7310  223.5070 N   0  0  0  0  0  0  0  0  0  0  0  0
  136.5780   81.5580  222.4700 C   0  0  0  0  0  0  0  0  0  0  0  0
  138.0550   81.7670  222.5190 C   0  0  0  0  0  0  0  0  0  0  0  0
  138.7340   81.0500  223.5660 N   0  0  0  0  0  0  0  0  0  0  0  0
  140.0530   80.5060  223.4060 C   0  0  0  0  0  0  0  0  0  0  0  0
  141.1740   81.2210  223.7790 C   0  0  0  0  0  0  0  0  0  0  0  0
  142.4450   80.6920  223.6220 C   0  0  0  0  0  0  0  0  0  0  0  0
  142.5990   79.4170  223.0810 C   0  0  0  0  0  0  0  0  0  0  0  0
  141.4640   78.7120  222.7130 C   0  0  0  0  0  0  0  0  0  0  0  0
  140.1910   79.2430  222.8690 C   0  0  0  0  0  0  0  0  0  0  0  0
  139.2480   78.2330  222.3800 C   0  0  0  0  0  0  0  0  0  0  0  0
  140.1290   77.1000  221.9410 C   0  0  0  0  0  0  0  0  0  0  0  0
  139.6140   75.8400  221.3670 C   0  0  0  0  0  0  0  0  0  0  0  0
  138.7960   75.8440  220.2540 C   0  0  0  0  0  0  0  0  0  0  0  0
  138.3630   74.6090  219.7850 C   0  0  0  0  0  0  0  0  0  0  0  0
  138.7220   73.4280  220.3920 C   0  0  0  0  0  0  0  0  0  0  0  0
  139.5390   73.4240  221.5040 C   0  0  0  0  0  0  0  0  0  0  0  0
  139.9500   72.2000  222.1870 C   0  0  0  0  0  0  0  0  0  0  0  0
  140.8740   71.5090  221.6930 O   0  0  0  0  0  0  0  0  0  0  0  0
  139.3580   71.7390  223.3900 N   0  0  0  0  0  0  0  0  0  0  0  0
  139.7360   70.5420  224.0870 C   0  0  0  0  0  0  0  0  0  0  0  0
  140.1530   70.7280  225.4780 C   0  0  0  0  0  0  0  0  0  0  0  0
  140.8880   71.8640  225.8030 C   0  0  0  0  0  0  0  0  0  0  0  0
  141.3200   72.1260  227.0870 C   0  0  0  0  0  0  0  0  0  0  0  0
  141.0310   71.2500  228.1120 C   0  0  0  0  0  0  0  0  0  0  0  0
  140.3050   70.1290  227.7950 C   0  0  0  0  0  0  0  0  0  0  0  0
  139.8740   69.8660  226.5150 C   0  0  0  0  0  0  0  0  0  0  0  0
  139.9660   74.6490  221.9650 C   0  0  0  0  0  0  0  0  0  0  0  0
  141.3680   77.4150  222.1480 N   0  0  0  0  0  0  0  0  0  0  0  0
  138.0990   80.8420  224.8550 C   0  0  0  0  0  0  0  0  0  0  0  0
  136.6010   81.1170  224.7680 C   0  0  0  0  0  0  0  0  0  0  0  0
  136.1960   78.7555  224.1579 H   0  0  0  0  0  0  0  0  0  0  0  0
  135.2759   78.9971  222.6342 H   0  0  0  0  0  0  0  0  0  0  0  0
  137.0665   79.1394  222.6342 H   0  0  0  0  0  0  0  0  0  0  0  0
  136.3332   81.0930  221.5037 H   0  0  0  0  0  0  0  0  0  0  0  0
  136.1270   82.5515  222.6101 H   0  0  0  0  0  0  0  0  0  0  0  0
  138.4777   81.4462  221.5555 H   0  0  0  0  0  0  0  0  0  0  0  0
  138.2086   82.8361  222.7274 H   0  0  0  0  0  0  0  0  0  0  0  0
  141.0560   82.2271  224.2078 H   0  0  0  0  0  0  0  0  0  0  0  0
  143.3278   81.2753  223.9228 H   0  0  0  0  0  0  0  0  0  0  0  0
  143.5997   78.9797  222.9489 H   0  0  0  0  0  0  0  0  0  0  0  0
  138.5676   77.9116  223.1824 H   0  0  0  0  0  0  0  0  0  0  0  0
  138.6052   78.6091  221.5705 H   0  0  0  0  0  0  0  0  0  0  0  0
  138.5006   76.7819  219.7610 H   0  0  0  0  0  0  0  0  0  0  0  0
  137.7117   74.5751  218.8992 H   0  0  0  0  0  0  0  0  0  0  0  0
  138.3531   72.4746  219.9858 H   0  0  0  0  0  0  0  0  0  0  0  0
  138.5880   72.3120  223.8010 H   0  0  0  0  0  0  0  0  0  0  0  0
  138.8737   69.8591  224.0801 H   0  0  0  0  0  0  0  0  0  0  0  0
  140.6166   70.1494  223.5575 H   0  0  0  0  0  0  0  0  0  0  0  0
  141.1341   72.5807  225.0056 H   0  0  0  0  0  0  0  0  0  0  0  0
  141.8981   73.0386  227.2941 H   0  0  0  0  0  0  0  0  0  0  0  0
  141.3684   71.4416  229.1413 H   0  0  0  0  0  0  0  0  0  0  0  0
  140.0586   69.4143  228.5940 H   0  0  0  0  0  0  0  0  0  0  0  0
  139.2964   68.9511  226.3166 H   0  0  0  0  0  0  0  0  0  0  0  0
  140.6176   74.6786  222.8507 H   0  0  0  0  0  0  0  0  0  0  0  0
  138.2573   79.8006  225.1718 H   0  0  0  0  0  0  0  0  0  0  0  0
  138.5442   81.5344  225.5847 H   0  0  0  0  0  0  0  0  0  0  0  0
  136.0934   80.5553  225.5660 H   0  0  0  0  0  0  0  0  0  0  0  0
  136.4559   82.2018  224.8778 H   0  0  0  0  0  0  0  0  0  0  0  0
  1  2  1  0
  2  3  1  0
  3  4  1  0
  4  5  1  0
  5  6  1  0
  6  7  2  0
  7  8  1  0
  8  9  2  0
  9 10  1  0
 10 11  2  0
 11 12  1  0
 12 13  1  0
 13 14  1  0
 14 15  2  0
 15 16  1  0
 16 17  2  0
 17 18  1  0
 18 19  1  0
 19 20  2  0
 19 21  1  0
 21 22  1  0
 22 23  1  0
 23 24  2  0
 24 25  1  0
 25 26  2  0
 26 27  1  0
 27 28  2  0
 18 29  2  0
 13 30  2  0
  5 31  1  0
 31 32  1  0
 32  2  1  0
 11  6  1  0
 29 14  1  0
 30 10  1  0
 28 23  1  0
  1 33  1  0
  1 34  1  0
  1 35  1  0
  3 36  1  0
  3 37  1  0
  4 38  1  0
  4 39  1  0
  7 40  1  0
  8 41  1  0
  9 42  1  0
 12 43  1  0
 12 44  1  0
 15 45  1  0
 16 46  1  0
 17 47  1  0
 21 48  1  0
 22 49  1  0
 22 50  1  0
 24 51  1  0
 25 52  1  0
 26 53  1  0
 27 54  1  0
 28 55  1  0
 29 56  1  0
 31 57  1  0
 31 58  1  0
 32 59  1  0
 32 60  1  0
M  END
>  <smiles>  (17) 
CN1CCN(c2cccc3c2CC(c2cccc(C(=O)NCc4ccccc4)c2)=N3)CC1

>  <score_type>  (17) 
oracle

>  <origin>  (17) 
autodockgpu

>  <m_score__min__energy>  (17) 
-9.5899999999999999

>  <m_primary>  (17) 
energy

>  <rmsd>  (17) 
8.2562152463463

>  <m_score__min__rmsd>  (17) 
8.2562152463463

>  <meeko>  (17) 
{"free_energy": -9.15, "intermolecular_energy": -10.65, "internal_energy": -1.31, "cluster_size": 10, "cluster_id": 4, "rank_in_cluster": 5}

>  <energy>  (17) 
-9.49

>  <cluster_rmsd>  (17) 
0.32

>  <cluster>  (17) 
1

$$$$

     RDKit          3D

 60 64  0  0  0  0  0  0  0  0999 V2000
  135.9980   79.6270  223.2590 C   0  0  0  0  0  0  0  0  0  0  0  0
  135.9850   81.0200  223.6340 N   0  0  0  0  0  0  0  0  0  0  0  0
  136.5740   81.8690  222.6430 C   0  0  0  0  0  0  0  0  0  0  0  0
  138.0630   81.9720  222.6910 C   0  0  0  0  0  0  0  0  0  0  0  0
  138.6960   81.1490  223.6870 N   0  0  0  0  0  0  0  0  0  0  0  0
  139.9730   80.5260  223.4830 C   0  0  0  0  0  0  0  0  0  0  0  0
  141.1500   81.2010  223.7400 C   0  0  0  0  0  0  0  0  0  0  0  0
  142.3800   80.5950  223.5420 C   0  0  0  0  0  0  0  0  0  0  0  0
  142.4350   79.2830  223.0750 C   0  0  0  0  0  0  0  0  0  0  0  0
  141.2460   78.6200  222.8210 C   0  0  0  0  0  0  0  0  0  0  0  0
  140.0140   79.2270  223.0200 C   0  0  0  0  0  0  0  0  0  0  0  0
  138.9920   78.2420  222.6540 C   0  0  0  0  0  0  0  0  0  0  0  0
  139.7850   77.0380  222.2370 C   0  0  0  0  0  0  0  0  0  0  0  0
  139.1730   75.7750  221.7760 C   0  0  0  0  0  0  0  0  0  0  0  0
  138.1920   75.7710  220.8030 C   0  0  0  0  0  0  0  0  0  0  0  0
  137.6760   74.5330  220.4340 C   0  0  0  0  0  0  0  0  0  0  0  0
  138.1110   73.3590  221.0030 C   0  0  0  0  0  0  0  0  0  0  0  0
  139.0920   73.3630  221.9750 C   0  0  0  0  0  0  0  0  0  0  0  0
  139.5890   72.1470  222.6110 C   0  0  0  0  0  0  0  0  0  0  0  0
  140.6370   71.6150  222.1720 O   0  0  0  0  0  0  0  0  0  0  0  0
  138.9480   71.5220  223.7110 N   0  0  0  0  0  0  0  0  0  0  0  0
  139.4080   70.3270  224.3610 C   0  0  0  0  0  0  0  0  0  0  0  0
  139.9220   70.5070  225.7200 C   0  0  0  0  0  0  0  0  0  0  0  0
  140.6340   71.6660  226.0110 C   0  0  0  0  0  0  0  0  0  0  0  0
  141.1520   71.9230  227.2630 C   0  0  0  0  0  0  0  0  0  0  0  0
  140.9760   71.0200  228.2900 C   0  0  0  0  0  0  0  0  0  0  0  0
  140.2730   69.8750  228.0070 C   0  0  0  0  0  0  0  0  0  0  0  0
  139.7560   69.6170  226.7570 C   0  0  0  0  0  0  0  0  0  0  0  0
  139.5990   74.5900  222.3370 C   0  0  0  0  0  0  0  0  0  0  0  0
  141.0490   77.2980  222.3470 N   0  0  0  0  0  0  0  0  0  0  0  0
  138.0550   80.9090  224.9670 C   0  0  0  0  0  0  0  0  0  0  0  0
  136.5790   81.2900  224.9100 C   0  0  0  0  0  0  0  0  0  0  0  0
  136.0038   79.0034  224.1651 H   0  0  0  0  0  0  0  0  0  0  0  0
  135.1019   79.3994  222.6630 H   0  0  0  0  0  0  0  0  0  0  0  0
  136.8982   79.4161  222.6630 H   0  0  0  0  0  0  0  0  0  0  0  0
  136.2924   81.4811  221.6530 H   0  0  0  0  0  0  0  0  0  0  0  0
  136.1935   82.8810  222.8459 H   0  0  0  0  0  0  0  0  0  0  0  0
  138.4574   81.6808  221.7063 H   0  0  0  0  0  0  0  0  0  0  0  0
  138.2913   83.0135  222.9613 H   0  0  0  0  0  0  0  0  0  0  0  0
  141.1103   82.2369  224.1080 H   0  0  0  0  0  0  0  0  0  0  0  0
  143.3083   81.1464  223.7523 H   0  0  0  0  0  0  0  0  0  0  0  0
  143.4020   78.7848  222.9117 H   0  0  0  0  0  0  0  0  0  0  0  0
  138.3481   78.0078  223.5145 H   0  0  0  0  0  0  0  0  0  0  0  0
  138.3194   78.6025  221.8618 H   0  0  0  0  0  0  0  0  0  0  0  0
  137.8355   76.7037  220.3415 H   0  0  0  0  0  0  0  0  0  0  0  0
  136.8940   74.4917  219.6614 H   0  0  0  0  0  0  0  0  0  0  0  0
  137.6716   72.4039  220.6795 H   0  0  0  0  0  0  0  0  0  0  0  0
  138.0750   71.9620  224.0770 H   0  0  0  0  0  0  0  0  0  0  0  0
  138.5658   69.6210  224.4079 H   0  0  0  0  0  0  0  0  0  0  0  0
  140.2569   69.9651  223.7624 H   0  0  0  0  0  0  0  0  0  0  0  0
  140.7898   72.4058  225.2120 H   0  0  0  0  0  0  0  0  0  0  0  0
  141.7090   72.8542  227.4434 H   0  0  0  0  0  0  0  0  0  0  0  0
  141.3821   71.2091  229.2947 H   0  0  0  0  0  0  0  0  0  0  0  0
  140.1171   69.1371  228.8078 H   0  0  0  0  0  0  0  0  0  0  0  0
  139.2006   68.6834  226.5841 H   0  0  0  0  0  0  0  0  0  0  0  0
  140.3807   74.6270  223.1101 H   0  0  0  0  0  0  0  0  0  0  0  0
  138.1431   79.8423  225.2207 H   0  0  0  0  0  0  0  0  0  0  0  0
  138.5503   81.5251  225.7319 H   0  0  0  0  0  0  0  0  0  0  0  0
  136.0382   80.7172  225.6778 H   0  0  0  0  0  0  0  0  0  0  0  0
  136.5095   82.3737  225.0852 H   0  0  0  0  0  0  0  0  0  0  0  0
  1  2  1  0
  2  3  1  0
  3  4  1  0
  4  5  1  0
  5  6  1  0
  6  7  2  0
  7  8  1  0
  8  9  2  0
  9 10  1  0
 10 11  2  0
 11 12  1  0
 12 13  1  0
 13 14  1  0
 14 15  2  0
 15 16  1  0
 16 17  2  0
 17 18  1  0
 18 19  1  0
 19 20  2  0
 19 21  1  0
 21 22  1  0
 22 23  1  0
 23 24  2  0
 24 25  1  0
 25 26  2  0
 26 27  1  0
 27 28  2  0
 18 29  2  0
 13 30  2  0
  5 31  1  0
 31 32  1  0
 32  2  1  0
 11  6  1  0
 29 14  1  0
 30 10  1  0
 28 23  1  0
  1 33  1  0
  1 34  1  0
  1 35  1  0
  3 36  1  0
  3 37  1  0
  4 38  1  0
  4 39  1  0
  7 40  1  0
  8 41  1  0
  9 42  1  0
 12 43  1  0
 12 44  1  0
 15 45  1  0
 16 46  1  0
 17 47  1  0
 21 48  1  0
 22 49  1  0
 22 50  1  0
 24 51  1  0
 25 52  1  0
 26 53  1  0
 27 54  1  0
 28 55  1  0
 29 56  1  0
 31 57  1  0
 31 58  1  0
 32 59  1  0
 32 60  1  0
M  END
>  <smiles>  (18) 
CN1CCN(c2cccc3c2CC(c2cccc(C(=O)NCc4ccccc4)c2)=N3)CC1

>  <score_type>  (18) 
oracle

>  <origin>  (18) 
autodockgpu

>  <m_score__min__energy>  (18) 
-9.5899999999999999

>  <m_primary>  (18) 
energy

>  <rmsd>  (18) 
8.263418870134236

>  <m_score__min__rmsd>  (18) 
8.263418870134236

>  <meeko>  (18) 
{"free_energy": -9.16, "intermolecular_energy": -10.65, "internal_energy": -1.33, "cluster_size": 10, "cluster_id": 4, "rank_in_cluster": 4}

>  <energy>  (18) 
-9.48

>  <cluster_rmsd>  (18) 
0.33

>  <cluster>  (18) 
1

$$$$

     RDKit          3D

 60 64  0  0  0  0  0  0  0  0999 V2000
  139.0010   69.9700  228.6440 C   0  0  0  0  0  0  0  0  0  0  0  0
  140.3960   69.7450  228.3560 N   0  0  0  0  0  0  0  0  0  0  0  0
  141.0470   70.9000  227.8160 C   0  0  0  0  0  0  0  0  0  0  0  0
  140.8780   71.1020  226.3470 C   0  0  0  0  0  0  0  0  0  0  0  0
  140.0300   70.1410  225.6960 N   0  0  0  0  0  0  0  0  0  0  0  0
  139.1690   70.4800  224.5980 C   0  0  0  0  0  0  0  0  0  0  0  0
  137.8320   70.1350  224.6000 C   0  0  0  0  0  0  0  0  0  0  0  0
  137.0070   70.4640  223.5370 C   0  0  0  0  0  0  0  0  0  0  0  0
  137.5300   71.1560  222.4460 C   0  0  0  0  0  0  0  0  0  0  0  0
  138.8720   71.4950  222.4590 C   0  0  0  0  0  0  0  0  0  0  0  0
  139.7000   71.1650  223.5240 C   0  0  0  0  0  0  0  0  0  0  0  0
  141.0350   71.6750  223.1970 C   0  0  0  0  0  0  0  0  0  0  0  0
  140.8560   72.3160  221.8520 C   0  0  0  0  0  0  0  0  0  0  0  0
  141.9500   72.9750  221.1090 C   0  0  0  0  0  0  0  0  0  0  0  0
  143.0960   72.2850  220.7650 C   0  0  0  0  0  0  0  0  0  0  0  0
  144.0700   72.9900  220.0660 C   0  0  0  0  0  0  0  0  0  0  0  0
  143.9140   74.3130  219.7270 C   0  0  0  0  0  0  0  0  0  0  0  0
  142.7690   75.0030  220.0700 C   0  0  0  0  0  0  0  0  0  0  0  0
  142.5530   76.4070  219.7350 C   0  0  0  0  0  0  0  0  0  0  0  0
  142.8300   76.8060  218.5770 O   0  0  0  0  0  0  0  0  0  0  0  0
  142.0430   77.3610  220.6520 N   0  0  0  0  0  0  0  0  0  0  0  0
  141.8180   78.7480  220.3570 C   0  0  0  0  0  0  0  0  0  0  0  0
  141.9000   79.6570  221.5010 C   0  0  0  0  0  0  0  0  0  0  0  0
  142.2210   79.1270  222.7470 C   0  0  0  0  0  0  0  0  0  0  0  0
  142.3250   79.9060  223.8800 C   0  0  0  0  0  0  0  0  0  0  0  0
  142.1070   81.2660  223.8140 C   0  0  0  0  0  0  0  0  0  0  0  0
  141.7900   81.7930  222.5860 C   0  0  0  0  0  0  0  0  0  0  0  0
  141.6870   81.0160  221.4550 C   0  0  0  0  0  0  0  0  0  0  0  0
  141.8080   74.3010  220.7620 C   0  0  0  0  0  0  0  0  0  0  0  0
  139.6230   72.1900  221.4770 N   0  0  0  0  0  0  0  0  0  0  0  0
  140.0060   68.7560  226.1320 C   0  0  0  0  0  0  0  0  0  0  0  0
  140.6470   68.6150  227.5100 C   0  0  0  0  0  0  0  0  0  0  0  0
  138.8508   69.9942  229.7334 H   0  0  0  0  0  0  0  0  0  0  0  0
  138.6871   70.9304  228.2091 H   0  0  0  0  0  0  0  0  0  0  0  0
  138.4011   69.1570  228.2091 H   0  0  0  0  0  0  0  0  0  0  0  0
  140.6457   71.7866  228.3288 H   0  0  0  0  0  0  0  0  0  0  0  0
  142.1238   70.7447  227.9786 H   0  0  0  0  0  0  0  0  0  0  0  0
  140.4469   72.1013  226.1872 H   0  0  0  0  0  0  0  0  0  0  0  0
  141.8771   70.9817  225.9028 H   0  0  0  0  0  0  0  0  0  0  0  0
  137.4152   69.5900  225.4598 H   0  0  0  0  0  0  0  0  0  0  0  0
  135.9443   70.1805  223.5538 H   0  0  0  0  0  0  0  0  0  0  0  0
  136.8902   71.4268  221.5932 H   0  0  0  0  0  0  0  0  0  0  0  0
  141.3652   72.4139  223.9420 H   0  0  0  0  0  0  0  0  0  0  0  0
  141.8016   70.8861  223.1927 H   0  0  0  0  0  0  0  0  0  0  0  0
  143.2321   71.2265  221.0316 H   0  0  0  0  0  0  0  0  0  0  0  0
  144.9956   72.4719  219.7748 H   0  0  0  0  0  0  0  0  0  0  0  0
  144.7131   74.8291  219.1745 H   0  0  0  0  0  0  0  0  0  0  0  0
  141.8140   77.0310  221.6160 H   0  0  0  0  0  0  0  0  0  0  0  0
  142.5699   79.0637  219.6188 H   0  0  0  0  0  0  0  0  0  0  0  0
  140.7825   78.8149  219.9919 H   0  0  0  0  0  0  0  0  0  0  0  0
  142.3986   78.0447  222.8313 H   0  0  0  0  0  0  0  0  0  0  0  0
  142.5834   79.4398  224.8422 H   0  0  0  0  0  0  0  0  0  0  0  0
  142.1838   81.9024  224.7079 H   0  0  0  0  0  0  0  0  0  0  0  0
  141.6120   82.8754  222.5036 H   0  0  0  0  0  0  0  0  0  0  0  0
  141.4296   81.4898  220.4962 H   0  0  0  0  0  0  0  0  0  0  0  0
  140.8839   74.8228  221.0514 H   0  0  0  0  0  0  0  0  0  0  0  0
  138.9628   68.4107  226.1816 H   0  0  0  0  0  0  0  0  0  0  0  0
  140.5744   68.1481  225.4128 H   0  0  0  0  0  0  0  0  0  0  0  0
  140.2422   67.7150  227.9959 H   0  0  0  0  0  0  0  0  0  0  0  0
  141.7350   68.5446  227.3643 H   0  0  0  0  0  0  0  0  0  0  0  0
  1  2  1  0
  2  3  1  0
  3  4  1  0
  4  5  1  0
  5  6  1  0
  6  7  2  0
  7  8  1  0
  8  9  2  0
  9 10  1  0
 10 11  2  0
 11 12  1  0
 12 13  1  0
 13 14  1  0
 14 15  2  0
 15 16  1  0
 16 17  2  0
 17 18  1  0
 18 19  1  0
 19 20  2  0
 19 21  1  0
 21 22  1  0
 22 23  1  0
 23 24  2  0
 24 25  1  0
 25 26  2  0
 26 27  1  0
 27 28  2  0
 18 29  2  0
 13 30  2  0
  5 31  1  0
 31 32  1  0
 32  2  1  0
 11  6  1  0
 29 14  1  0
 30 10  1  0
 28 23  1  0
  1 33  1  0
  1 34  1  0
  1 35  1  0
  3 36  1  0
  3 37  1  0
  4 38  1  0
  4 39  1  0
  7 40  1  0
  8 41  1  0
  9 42  1  0
 12 43  1  0
 12 44  1  0
 15 45  1  0
 16 46  1  0
 17 47  1  0
 21 48  1  0
 22 49  1  0
 22 50  1  0
 24 51  1  0
 25 52  1  0
 26 53  1  0
 27 54  1  0
 28 55  1  0
 29 56  1  0
 31 57  1  0
 31 58  1  0
 32 59  1  0
 32 60  1  0
M  END
>  <smiles>  (19) 
CN1CCN(c2cccc3c2CC(c2cccc(C(=O)NCc4ccccc4)c2)=N3)CC1

>  <score_type>  (19) 
oracle

>  <origin>  (19) 
autodockgpu

>  <m_score__min__energy>  (19) 
-9.5899999999999999

>  <m_primary>  (19) 
energy

>  <rmsd>  (19) 
8.665357506265824

>  <m_score__min__rmsd>  (19) 
8.665357506265824

>  <meeko>  (19) 
{"free_energy": -9.33, "intermolecular_energy": -10.82, "internal_energy": -1.08, "cluster_size": 6, "cluster_id": 2, "rank_in_cluster": 5}

>  <energy>  (19) 
-9.48

>  <cluster_rmsd>  (19) 
0.37

>  <cluster>  (19) 
1

$$$$

     RDKit          3D

 60 64  0  0  0  0  0  0  0  0999 V2000
  136.1760   79.2750  223.2030 C   0  0  0  0  0  0  0  0  0  0  0  0
  136.0380   80.6860  223.4720 N   0  0  0  0  0  0  0  0  0  0  0  0
  136.5620   81.5070  222.4230 C   0  0  0  0  0  0  0  0  0  0  0  0
  138.0350   81.7430  222.4700 C   0  0  0  0  0  0  0  0  0  0  0  0
  138.7260   81.0550  223.5270 N   0  0  0  0  0  0  0  0  0  0  0  0
  140.0550   80.5330  223.3770 C   0  0  0  0  0  0  0  0  0  0  0  0
  141.1620   81.2660  223.7580 C   0  0  0  0  0  0  0  0  0  0  0  0
  142.4420   80.7580  223.6100 C   0  0  0  0  0  0  0  0  0  0  0  0
  142.6210   79.4860  223.0690 C   0  0  0  0  0  0  0  0  0  0  0  0
  141.5010   78.7640  222.6920 C   0  0  0  0  0  0  0  0  0  0  0  0
  140.2180   79.2730  222.8400 C   0  0  0  0  0  0  0  0  0  0  0  0
  139.2950   78.2480  222.3430 C   0  0  0  0  0  0  0  0  0  0  0  0
  140.1980   77.1300  221.9100 C   0  0  0  0  0  0  0  0  0  0  0  0
  139.7080   75.8620  221.3310 C   0  0  0  0  0  0  0  0  0  0  0  0
  138.9640   75.8490  220.1670 C   0  0  0  0  0  0  0  0  0  0  0  0
  138.5480   74.6070  219.6980 C   0  0  0  0  0  0  0  0  0  0  0  0
  138.8550   73.4380  220.3530 C   0  0  0  0  0  0  0  0  0  0  0  0
  139.5990   73.4500  221.5160 C   0  0  0  0  0  0  0  0  0  0  0  0
  139.9510   72.2380  222.2500 C   0  0  0  0  0  0  0  0  0  0  0  0
  140.9650   71.5870  221.8970 O   0  0  0  0  0  0  0  0  0  0  0  0
  139.2060   71.7470  223.3520 N   0  0  0  0  0  0  0  0  0  0  0  0
  139.5230   70.5610  224.0960 C   0  0  0  0  0  0  0  0  0  0  0  0
  140.0290   70.7840  225.4510 C   0  0  0  0  0  0  0  0  0  0  0  0
  140.8740   71.8670  225.6730 C   0  0  0  0  0  0  0  0  0  0  0  0
  141.3950   72.1590  226.9170 C   0  0  0  0  0  0  0  0  0  0  0  0
  141.0900   71.3670  228.0040 C   0  0  0  0  0  0  0  0  0  0  0  0
  140.2570   70.2970  227.7890 C   0  0  0  0  0  0  0  0  0  0  0  0
  139.7360   70.0050  226.5480 C   0  0  0  0  0  0  0  0  0  0  0  0
  140.0080   74.6810  221.9760 C   0  0  0  0  0  0  0  0  0  0  0  0
  141.4300   77.4650  222.1250 N   0  0  0  0  0  0  0  0  0  0  0  0
  138.0950   80.8560  224.8190 C   0  0  0  0  0  0  0  0  0  0  0  0
  136.5920   81.1010  224.7270 C   0  0  0  0  0  0  0  0  0  0  0  0
  136.2299   78.7241  224.1536 H   0  0  0  0  0  0  0  0  0  0  0  0
  135.3078   78.9253  222.6252 H   0  0  0  0  0  0  0  0  0  0  0  0
  137.0955   79.1001  222.6252 H   0  0  0  0  0  0  0  0  0  0  0  0
  136.3262   81.0233  221.4636 H   0  0  0  0  0  0  0  0  0  0  0  0
  136.0928   82.4941  222.5475 H   0  0  0  0  0  0  0  0  0  0  0  0
  138.4641   81.4154  221.5116 H   0  0  0  0  0  0  0  0  0  0  0  0
  138.1688   82.8176  222.6629 H   0  0  0  0  0  0  0  0  0  0  0  0
  141.0247   82.2699  224.1861 H   0  0  0  0  0  0  0  0  0  0  0  0
  143.3129   81.3554  223.9178 H   0  0  0  0  0  0  0  0  0  0  0  0
  143.6295   79.0650  222.9443 H   0  0  0  0  0  0  0  0  0  0  0  0
  138.6139   77.9149  223.1399 H   0  0  0  0  0  0  0  0  0  0  0  0
  138.6522   78.6142  221.5289 H   0  0  0  0  0  0  0  0  0  0  0  0
  138.7120   76.7784  219.6352 H   0  0  0  0  0  0  0  0  0  0  0  0
  137.9543   74.5589  218.7732 H   0  0  0  0  0  0  0  0  0  0  0  0
  138.5028   72.4792  219.9446 H   0  0  0  0  0  0  0  0  0  0  0  0
  138.3620   72.2870  223.6450 H   0  0  0  0  0  0  0  0  0  0  0  0
  138.6090   69.9536  224.1712 H   0  0  0  0  0  0  0  0  0  0  0  0
  140.3385   70.0684  223.5462 H   0  0  0  0  0  0  0  0  0  0  0  0
  141.1368   72.5154  224.8242 H   0  0  0  0  0  0  0  0  0  0  0  0
  142.0573   73.0283  227.0423 H   0  0  0  0  0  0  0  0  0  0  0  0
  141.4975   71.5837  229.0025 H   0  0  0  0  0  0  0  0  0  0  0  0
  139.9962   69.6493  228.6390 H   0  0  0  0  0  0  0  0  0  0  0  0
  139.0742   69.1342  226.4311 H   0  0  0  0  0  0  0  0  0  0  0  0
  140.6017   74.7246  222.9010 H   0  0  0  0  0  0  0  0  0  0  0  0
  138.2730   79.8231  225.1528 H   0  0  0  0  0  0  0  0  0  0  0  0
  138.5267   81.5683  225.5375 H   0  0  0  0  0  0  0  0  0  0  0  0
  136.0946   80.5416  225.5330 H   0  0  0  0  0  0  0  0  0  0  0  0
  136.4264   82.1845  224.8203 H   0  0  0  0  0  0  0  0  0  0  0  0
  1  2  1  0
  2  3  1  0
  3  4  1  0
  4  5  1  0
  5  6  1  0
  6  7  2  0
  7  8  1  0
  8  9  2  0
  9 10  1  0
 10 11  2  0
 11 12  1  0
 12 13  1  0
 13 14  1  0
 14 15  2  0
 15 16  1  0
 16 17  2  0
 17 18  1  0
 18 19  1  0
 19 20  2  0
 19 21  1  0
 21 22  1  0
 22 23  1  0
 23 24  2  0
 24 25  1  0
 25 26  2  0
 26 27  1  0
 27 28  2  0
 18 29  2  0
 13 30  2  0
  5 31  1  0
 31 32  1  0
 32  2  1  0
 11  6  1  0
 29 14  1  0
 30 10  1  0
 28 23  1  0
  1 33  1  0
  1 34  1  0
  1 35  1  0
  3 36  1  0
  3 37  1  0
  4 38  1  0
  4 39  1  0
  7 40  1  0
  8 41  1  0
  9 42  1  0
 12 43  1  0
 12 44  1  0
 15 45  1  0
 16 46  1  0
 17 47  1  0
 21 48  1  0
 22 49  1  0
 22 50  1  0
 24 51  1  0
 25 52  1  0
 26 53  1  0
 27 54  1  0
 28 55  1  0
 29 56  1  0
 31 57  1  0
 31 58  1  0
 32 59  1  0
 32 60  1  0
M  END
>  <smiles>  (20) 
CN1CCN(c2cccc3c2CC(c2cccc(C(=O)NCc4ccccc4)c2)=N3)CC1

>  <score_type>  (20) 
oracle

>  <origin>  (20) 
autodockgpu

>  <m_score__min__energy>  (20) 
-9.5899999999999999

>  <m_primary>  (20) 
energy

>  <rmsd>  (20) 
8.250630567637932

>  <m_score__min__rmsd>  (20) 
8.250630567637932

>  <meeko>  (20) 
{"free_energy": -9.12, "intermolecular_energy": -10.61, "internal_energy": -1.34, "cluster_size": 10, "cluster_id": 4, "rank_in_cluster": 7}

>  <energy>  (20) 
-9.48

>  <cluster_rmsd>  (20) 
0.21

>  <cluster>  (20) 
1

$$$$

     RDKit          3D

 60 64  0  0  0  0  0  0  0  0999 V2000
  141.5470   78.8200  223.7190 C   0  0  0  0  0  0  0  0  0  0  0  0
  140.8680   80.0870  223.8490 N   0  0  0  0  0  0  0  0  0  0  0  0
  139.6620   80.1540  223.0810 C   0  0  0  0  0  0  0  0  0  0  0  0
  139.8380   80.5080  221.6420 C   0  0  0  0  0  0  0  0  0  0  0  0
  141.2030   80.6670  221.2200 N   0  0  0  0  0  0  0  0  0  0  0  0
  141.6620   80.2890  219.9130 C   0  0  0  0  0  0  0  0  0  0  0  0
  141.7750   81.2160  218.8950 C   0  0  0  0  0  0  0  0  0  0  0  0
  142.2170   80.8450  217.6360 C   0  0  0  0  0  0  0  0  0  0  0  0
  142.5560   79.5160  217.3870 C   0  0  0  0  0  0  0  0  0  0  0  0
  142.4370   78.5990  218.4170 C   0  0  0  0  0  0  0  0  0  0  0  0
  141.9930   78.9700  219.6800 C   0  0  0  0  0  0  0  0  0  0  0  0
  141.9940   77.7570  220.5030 C   0  0  0  0  0  0  0  0  0  0  0  0
  142.4810   76.6880  219.5690 C   0  0  0  0  0  0  0  0  0  0  0  0
  142.6470   75.2730  219.9610 C   0  0  0  0  0  0  0  0  0  0  0  0
  143.7130   74.5250  219.5030 C   0  0  0  0  0  0  0  0  0  0  0  0
  143.7840   73.2030  219.9270 C   0  0  0  0  0  0  0  0  0  0  0  0
  142.8430   72.6510  220.7650 C   0  0  0  0  0  0  0  0  0  0  0  0
  141.7780   73.3990  221.2230 C   0  0  0  0  0  0  0  0  0  0  0  0
  140.7510   72.8620  222.1120 C   0  0  0  0  0  0  0  0  0  0  0  0
  139.8660   73.6330  222.5550 O   0  0  0  0  0  0  0  0  0  0  0  0
  140.6950   71.5020  222.5110 N   0  0  0  0  0  0  0  0  0  0  0  0
  139.7010   70.9400  223.3820 C   0  0  0  0  0  0  0  0  0  0  0  0
  140.0520   70.9100  224.8020 C   0  0  0  0  0  0  0  0  0  0  0  0
  139.6080   69.8400  225.5720 C   0  0  0  0  0  0  0  0  0  0  0  0
  139.8930   69.7250  226.9170 C   0  0  0  0  0  0  0  0  0  0  0  0
  140.6430   70.6890  227.5560 C   0  0  0  0  0  0  0  0  0  0  0  0
  141.0840   71.7470  226.7990 C   0  0  0  0  0  0  0  0  0  0  0  0
  140.8000   71.8630  225.4570 C   0  0  0  0  0  0  0  0  0  0  0  0
  141.7110   74.7070  220.8000 C   0  0  0  0  0  0  0  0  0  0  0  0
  142.7170   77.2090  218.4070 N   0  0  0  0  0  0  0  0  0  0  0  0
  142.1970   81.2290  222.1170 C   0  0  0  0  0  0  0  0  0  0  0  0
  141.6870   81.2250  223.5550 C   0  0  0  0  0  0  0  0  0  0  0  0
  141.7636   78.4158  224.7188 H   0  0  0  0  0  0  0  0  0  0  0  0
  140.9058   78.1151  223.1695 H   0  0  0  0  0  0  0  0  0  0  0  0
  142.4891   78.9635  223.1695 H   0  0  0  0  0  0  0  0  0  0  0  0
  139.1728   79.1700  223.1310 H   0  0  0  0  0  0  0  0  0  0  0  0
  139.0666   80.9668  223.5223 H   0  0  0  0  0  0  0  0  0  0  0  0
  139.3838   79.7103  221.0359 H   0  0  0  0  0  0  0  0  0  0  0  0
  139.3566   81.4875  221.5043 H   0  0  0  0  0  0  0  0  0  0  0  0
  141.5096   82.2660  219.0875 H   0  0  0  0  0  0  0  0  0  0  0  0
  142.3002   81.5956  216.8362 H   0  0  0  0  0  0  0  0  0  0  0  0
  142.9103   79.2029  216.3938 H   0  0  0  0  0  0  0  0  0  0  0  0
  142.6737   77.8666  221.3609 H   0  0  0  0  0  0  0  0  0  0  0  0
  141.0046   77.5313  220.9274 H   0  0  0  0  0  0  0  0  0  0  0  0
  144.4718   74.9555  218.8330 H   0  0  0  0  0  0  0  0  0  0  0  0
  144.6202   72.5777  219.5810 H   0  0  0  0  0  0  0  0  0  0  0  0
  142.9409   71.5998  221.0739 H   0  0  0  0  0  0  0  0  0  0  0  0
  141.4320   70.8590  222.1440 H   0  0  0  0  0  0  0  0  0  0  0  0
  138.7807   71.5326  223.2729 H   0  0  0  0  0  0  0  0  0  0  0  0
  139.5908   69.8892  223.0760 H   0  0  0  0  0  0  0  0  0  0  0  0
  139.0065   69.0553  225.0900 H   0  0  0  0  0  0  0  0  0  0  0  0
  139.5195   68.8588  227.4829 H   0  0  0  0  0  0  0  0  0  0  0  0
  140.8786   70.6141  228.6279 H   0  0  0  0  0  0  0  0  0  0  0  0
  141.6861   72.5302  227.2828 H   0  0  0  0  0  0  0  0  0  0  0  0
  141.1771   72.7321  224.8980 H   0  0  0  0  0  0  0  0  0  0  0  0
  140.8727   75.3289  221.1471 H   0  0  0  0  0  0  0  0  0  0  0  0
  143.1172   80.6291  222.0582 H   0  0  0  0  0  0  0  0  0  0  0  0
  142.3995   82.2674  221.8157 H   0  0  0  0  0  0  0  0  0  0  0  0
  142.5517   81.2211  224.2349 H   0  0  0  0  0  0  0  0  0  0  0  0
  141.0671   82.1236  223.6897 H   0  0  0  0  0  0  0  0  0  0  0  0
  1  2  1  0
  2  3  1  0
  3  4  1  0
  4  5  1  0
  5  6  1  0
  6  7  2  0
  7  8  1  0
  8  9  2  0
  9 10  1  0
 10 11  2  0
 11 12  1  0
 12 13  1  0
 13 14  1  0
 14 15  2  0
 15 16  1  0
 16 17  2  0
 17 18  1  0
 18 19  1  0
 19 20  2  0
 19 21  1  0
 21 22  1  0
 22 23  1  0
 23 24  2  0
 24 25  1  0
 25 26  2  0
 26 27  1  0
 27 28  2  0
 18 29  2  0
 13 30  2  0
  5 31  1  0
 31 32  1  0
 32  2  1  0
 11  6  1  0
 29 14  1  0
 30 10  1  0
 28 23  1  0
  1 33  1  0
  1 34  1  0
  1 35  1  0
  3 36  1  0
  3 37  1  0
  4 38  1  0
  4 39  1  0
  7 40  1  0
  8 41  1  0
  9 42  1  0
 12 43  1  0
 12 44  1  0
 15 45  1  0
 16 46  1  0
 17 47  1  0
 21 48  1  0
 22 49  1  0
 22 50  1  0
 24 51  1  0
 25 52  1  0
 26 53  1  0
 27 54  1  0
 28 55  1  0
 29 56  1  0
 31 57  1  0
 31 58  1  0
 32 59  1  0
 32 60  1  0
M  END
>  <smiles>  (21) 
CN1CCN(c2cccc3c2CC(c2cccc(C(=O)NCc4ccccc4)c2)=N3)CC1

>  <score_type>  (21) 
oracle

>  <origin>  (21) 
autodockgpu

>  <m_score__min__energy>  (21) 
-9.5899999999999999

>  <m_primary>  (21) 
energy

>  <rmsd>  (21) 
7.807061183322288

>  <m_score__min__rmsd>  (21) 
7.807061183322288

>  <meeko>  (21) 
{"free_energy": -9.46, "intermolecular_energy": -10.95, "internal_energy": -1.36, "cluster_size": 30, "cluster_id": 1, "rank_in_cluster": 25}

>  <energy>  (21) 
-9.48

>  <cluster_rmsd>  (21) 
0.35

>  <cluster>  (21) 
1

$$$$

     RDKit          3D

 60 64  0  0  0  0  0  0  0  0999 V2000
  140.5530   85.2010  220.8890 C   0  0  0  0  0  0  0  0  0  0  0  0
  139.5090   84.5350  220.1490 N   0  0  0  0  0  0  0  0  0  0  0  0
  138.4970   83.9770  220.9930 C   0  0  0  0  0  0  0  0  0  0  0  0
  138.8090   82.6350  221.5670 C   0  0  0  0  0  0  0  0  0  0  0  0
  140.1140   82.1250  221.2410 N   0  0  0  0  0  0  0  0  0  0  0  0
  140.8900   81.3350  222.1540 C   0  0  0  0  0  0  0  0  0  0  0  0
  141.8350   81.9130  222.9790 C   0  0  0  0  0  0  0  0  0  0  0  0
  142.5810   81.1460  223.8590 C   0  0  0  0  0  0  0  0  0  0  0  0
  142.3790   79.7680  223.9150 C   0  0  0  0  0  0  0  0  0  0  0  0
  141.4280   79.2040  223.0810 C   0  0  0  0  0  0  0  0  0  0  0  0
  140.6800   79.9720  222.2000 C   0  0  0  0  0  0  0  0  0  0  0  0
  139.7870   79.0530  221.4880 C   0  0  0  0  0  0  0  0  0  0  0  0
  140.1190   77.7080  222.0660 C   0  0  0  0  0  0  0  0  0  0  0  0
  139.4620   76.4540  221.6470 C   0  0  0  0  0  0  0  0  0  0  0  0
  138.3750   76.4670  220.7950 C   0  0  0  0  0  0  0  0  0  0  0  0
  137.8240   75.2360  220.4560 C   0  0  0  0  0  0  0  0  0  0  0  0
  138.3260   74.0510  220.9410 C   0  0  0  0  0  0  0  0  0  0  0  0
  139.4120   74.0370  221.7930 C   0  0  0  0  0  0  0  0  0  0  0  0
  139.9830   72.8080  222.3360 C   0  0  0  0  0  0  0  0  0  0  0  0
  141.1310   72.4560  221.9680 O   0  0  0  0  0  0  0  0  0  0  0  0
  139.3100   71.9770  223.2670 N   0  0  0  0  0  0  0  0  0  0  0  0
  139.8410   70.7640  223.8220 C   0  0  0  0  0  0  0  0  0  0  0  0
  140.1770   70.8160  225.2450 C   0  0  0  0  0  0  0  0  0  0  0  0
  139.8500   69.7240  226.0430 C   0  0  0  0  0  0  0  0  0  0  0  0
  140.1310   69.6810  227.3930 C   0  0  0  0  0  0  0  0  0  0  0  0
  140.7580   70.7440  228.0090 C   0  0  0  0  0  0  0  0  0  0  0  0
  141.0820   71.8230  227.2250 C   0  0  0  0  0  0  0  0  0  0  0  0
  140.8020   71.8670  225.8780 C   0  0  0  0  0  0  0  0  0  0  0  0
  139.9540   75.2580  222.1250 C   0  0  0  0  0  0  0  0  0  0  0  0
  141.0480   77.8430  222.9580 N   0  0  0  0  0  0  0  0  0  0  0  0
  140.7130   82.3940  219.9460 C   0  0  0  0  0  0  0  0  0  0  0  0
  139.9820   83.5320  219.2400 C   0  0  0  0  0  0  0  0  0  0  0  0
  140.3698   85.0842  221.9673 H   0  0  0  0  0  0  0  0  0  0  0  0
  141.5256   84.7561  220.6320 H   0  0  0  0  0  0  0  0  0  0  0  0
  140.5596   86.2705  220.6320 H   0  0  0  0  0  0  0  0  0  0  0  0
  138.3305   84.6729  221.8285 H   0  0  0  0  0  0  0  0  0  0  0  0
  137.6138   83.8345  220.3529 H   0  0  0  0  0  0  0  0  0  0  0  0
  138.7337   82.7059  222.6621 H   0  0  0  0  0  0  0  0  0  0  0  0
  138.0850   81.9347  221.1250 H   0  0  0  0  0  0  0  0  0  0  0  0
  141.9979   83.0000  222.9366 H   0  0  0  0  0  0  0  0  0  0  0  0
  143.3289   81.6220  224.5102 H   0  0  0  0  0  0  0  0  0  0  0  0
  142.9622   79.1421  224.6065 H   0  0  0  0  0  0  0  0  0  0  0  0
  138.7333   79.3092  221.6727 H   0  0  0  0  0  0  0  0  0  0  0  0
  139.9210   79.0910  220.3969 H   0  0  0  0  0  0  0  0  0  0  0  0
  137.9637   77.4086  220.4023 H   0  0  0  0  0  0  0  0  0  0  0  0
  136.9584   75.2092  219.7778 H   0  0  0  0  0  0  0  0  0  0  0  0
  137.8557   73.1014  220.6459 H   0  0  0  0  0  0  0  0  0  0  0  0
  138.3550   72.2690  223.5730 H   0  0  0  0  0  0  0  0  0  0  0  0
  139.0929   69.9703  223.6793 H   0  0  0  0  0  0  0  0  0  0  0  0
  140.7888   70.5805  223.2947 H   0  0  0  0  0  0  0  0  0  0  0  0
  139.3481   68.8618  225.5796 H   0  0  0  0  0  0  0  0  0  0  0  0
  139.8535   68.7940  227.9814 H   0  0  0  0  0  0  0  0  0  0  0  0
  140.9889   70.7277  229.0844 H   0  0  0  0  0  0  0  0  0  0  0  0
  141.5839   72.6842  227.6902 H   0  0  0  0  0  0  0  0  0  0  0  0
  141.0826   72.7578  225.2968 H   0  0  0  0  0  0  0  0  0  0  0  0
  140.8198   75.2806  222.8031 H   0  0  0  0  0  0  0  0  0  0  0  0
  141.7673   82.6745  220.0870 H   0  0  0  0  0  0  0  0  0  0  0  0
  140.6388   81.4879  219.3268 H   0  0  0  0  0  0  0  0  0  0  0  0
  140.6721   84.0030  218.5245 H   0  0  0  0  0  0  0  0  0  0  0  0
  139.1046   83.1006  218.7359 H   0  0  0  0  0  0  0  0  0  0  0  0
  1  2  1  0
  2  3  1  0
  3  4  1  0
  4  5  1  0
  5  6  1  0
  6  7  2  0
  7  8  1  0
  8  9  2  0
  9 10  1  0
 10 11  2  0
 11 12  1  0
 12 13  1  0
 13 14  1  0
 14 15  2  0
 15 16  1  0
 16 17  2  0
 17 18  1  0
 18 19  1  0
 19 20  2  0
 19 21  1  0
 21 22  1  0
 22 23  1  0
 23 24  2  0
 24 25  1  0
 25 26  2  0
 26 27  1  0
 27 28  2  0
 18 29  2  0
 13 30  2  0
  5 31  1  0
 31 32  1  0
 32  2  1  0
 11  6  1  0
 29 14  1  0
 30 10  1  0
 28 23  1  0
  1 33  1  0
  1 34  1  0
  1 35  1  0
  3 36  1  0
  3 37  1  0
  4 38  1  0
  4 39  1  0
  7 40  1  0
  8 41  1  0
  9 42  1  0
 12 43  1  0
 12 44  1  0
 15 45  1  0
 16 46  1  0
 17 47  1  0
 21 48  1  0
 22 49  1  0
 22 50  1  0
 24 51  1  0
 25 52  1  0
 26 53  1  0
 27 54  1  0
 28 55  1  0
 29 56  1  0
 31 57  1  0
 31 58  1  0
 32 59  1  0
 32 60  1  0
M  END
>  <smiles>  (22) 
CN1CCN(c2cccc3c2CC(c2cccc(C(=O)NCc4ccccc4)c2)=N3)CC1

>  <score_type>  (22) 
oracle

>  <origin>  (22) 
autodockgpu

>  <m_score__min__energy>  (22) 
-9.5899999999999999

>  <m_primary>  (22) 
energy

>  <rmsd>  (22) 
8.773236208790378

>  <m_score__min__rmsd>  (22) 
8.773236208790378

>  <meeko>  (22) 
{"free_energy": -8.94, "intermolecular_energy": -10.43, "internal_energy": -1.18, "cluster_size": 4, "cluster_id": 3, "rank_in_cluster": 3}

>  <energy>  (22) 
-9.47

>  <cluster_rmsd>  (22) 
0.38

>  <cluster>  (22) 
1

$$$$

     RDKit          3D

 60 64  0  0  0  0  0  0  0  0999 V2000
  141.7930   78.7820  223.8160 C   0  0  0  0  0  0  0  0  0  0  0  0
  141.0160   79.9960  223.8670 N   0  0  0  0  0  0  0  0  0  0  0  0
  139.7870   79.9020  223.1380 C   0  0  0  0  0  0  0  0  0  0  0  0
  139.8930   80.1500  221.6700 C   0  0  0  0  0  0  0  0  0  0  0  0
  141.2280   80.3820  221.1900 N   0  0  0  0  0  0  0  0  0  0  0  0
  141.6800   79.9350  219.9020 C   0  0  0  0  0  0  0  0  0  0  0  0
  141.8400   80.8170  218.8510 C   0  0  0  0  0  0  0  0  0  0  0  0
  142.2760   80.3800  217.6110 C   0  0  0  0  0  0  0  0  0  0  0  0
  142.5590   79.0300  217.4160 C   0  0  0  0  0  0  0  0  0  0  0  0
  142.3940   78.1580  218.4790 C   0  0  0  0  0  0  0  0  0  0  0  0
  141.9570   78.5960  219.7220 C   0  0  0  0  0  0  0  0  0  0  0  0
  141.9010   77.4160  220.5910 C   0  0  0  0  0  0  0  0  0  0  0  0
  142.3490   76.2930  219.7030 C   0  0  0  0  0  0  0  0  0  0  0  0
  142.4520   74.8880  220.1500 C   0  0  0  0  0  0  0  0  0  0  0  0
  143.4760   74.0720  219.7110 C   0  0  0  0  0  0  0  0  0  0  0  0
  143.4890   72.7660  220.1880 C   0  0  0  0  0  0  0  0  0  0  0  0
  142.5330   72.2930  221.0560 C   0  0  0  0  0  0  0  0  0  0  0  0
  141.5100   73.1090  221.4950 C   0  0  0  0  0  0  0  0  0  0  0  0
  140.4700   72.6580  222.4150 C   0  0  0  0  0  0  0  0  0  0  0  0
  139.3140   73.1350  222.3080 O   0  0  0  0  0  0  0  0  0  0  0  0
  140.6910   71.7000  223.4370 N   0  0  0  0  0  0  0  0  0  0  0  0
  139.6940   71.2330  224.3580 C   0  0  0  0  0  0  0  0  0  0  0  0
  140.1680   70.9580  225.7150 C   0  0  0  0  0  0  0  0  0  0  0  0
  140.0570   69.6600  226.2050 C   0  0  0  0  0  0  0  0  0  0  0  0
  140.4800   69.3060  227.4690 C   0  0  0  0  0  0  0  0  0  0  0  0
  141.0380   70.2480  228.3070 C   0  0  0  0  0  0  0  0  0  0  0  0
  141.1490   71.5300  227.8270 C   0  0  0  0  0  0  0  0  0  0  0  0
  140.7270   71.8840  226.5660 C   0  0  0  0  0  0  0  0  0  0  0  0
  141.5000   74.4010  221.0200 C   0  0  0  0  0  0  0  0  0  0  0  0
  142.6160   76.7580  218.5240 N   0  0  0  0  0  0  0  0  0  0  0  0
  142.1970   81.0940  222.0040 C   0  0  0  0  0  0  0  0  0  0  0  0
  141.7290   81.1680  223.4540 C   0  0  0  0  0  0  0  0  0  0  0  0
  142.0103   78.4425  224.8395 H   0  0  0  0  0  0  0  0  0  0  0  0
  141.2242   78.0046  223.2848 H   0  0  0  0  0  0  0  0  0  0  0  0
  142.7371   78.9730  223.2848 H   0  0  0  0  0  0  0  0  0  0  0  0
  139.3831   78.8891  223.2828 H   0  0  0  0  0  0  0  0  0  0  0  0
  139.1382   80.6973  223.5337 H   0  0  0  0  0  0  0  0  0  0  0  0
  139.4890   79.2718  221.1451 H   0  0  0  0  0  0  0  0  0  0  0  0
  139.3292   81.0735  221.4717 H   0  0  0  0  0  0  0  0  0  0  0  0
  141.6175   81.8837  219.0012 H   0  0  0  0  0  0  0  0  0  0  0  0
  142.3982   81.0954  216.7844 H   0  0  0  0  0  0  0  0  0  0  0  0
  142.9062   78.6644  216.4383 H   0  0  0  0  0  0  0  0  0  0  0  0
  142.5786   77.5300  221.4500 H   0  0  0  0  0  0  0  0  0  0  0  0
  140.9000   77.2483  221.0150 H   0  0  0  0  0  0  0  0  0  0  0  0
  144.2459   74.4384  219.0160 H   0  0  0  0  0  0  0  0  0  0  0  0
  144.2910   72.0883  219.8600 H   0  0  0  0  0  0  0  0  0  0  0  0
  142.5842   71.2511  221.4049 H   0  0  0  0  0  0  0  0  0  0  0  0
  141.6530   71.3030  223.5280 H   0  0  0  0  0  0  0  0  0  0  0  0
  138.9073   71.9991  224.4228 H   0  0  0  0  0  0  0  0  0  0  0  0
  139.3435   70.2693  223.9599 H   0  0  0  0  0  0  0  0  0  0  0  0
  139.6150   68.8869  225.5593 H   0  0  0  0  0  0  0  0  0  0  0  0
  140.3716   68.2660  227.8106 H   0  0  0  0  0  0  0  0  0  0  0  0
  141.3802   69.9836  229.3184 H   0  0  0  0  0  0  0  0  0  0  0  0
  141.5913   72.3018  228.4741 H   0  0  0  0  0  0  0  0  0  0  0  0
  140.8385   72.9261  226.2320 H   0  0  0  0  0  0  0  0  0  0  0  0
  140.6959   75.0754  221.3496 H   0  0  0  0  0  0  0  0  0  0  0  0
  143.1615   80.5668  221.9619 H   0  0  0  0  0  0  0  0  0  0  0  0
  142.3050   82.1167  221.6135 H   0  0  0  0  0  0  0  0  0  0  0  0
  142.6095   81.2904  224.1018 H   0  0  0  0  0  0  0  0  0  0  0  0
  141.0401   82.0215  223.5368 H   0  0  0  0  0  0  0  0  0  0  0  0
  1  2  1  0
  2  3  1  0
  3  4  1  0
  4  5  1  0
  5  6  1  0
  6  7  2  0
  7  8  1  0
  8  9  2  0
  9 10  1  0
 10 11  2  0
 11 12  1  0
 12 13  1  0
 13 14  1  0
 14 15  2  0
 15 16  1  0
 16 17  2  0
 17 18  1  0
 18 19  1  0
 19 20  2  0
 19 21  1  0
 21 22  1  0
 22 23  1  0
 23 24  2  0
 24 25  1  0
 25 26  2  0
 26 27  1  0
 27 28  2  0
 18 29  2  0
 13 30  2  0
  5 31  1  0
 31 32  1  0
 32  2  1  0
 11  6  1  0
 29 14  1  0
 30 10  1  0
 28 23  1  0
  1 33  1  0
  1 34  1  0
  1 35  1  0
  3 36  1  0
  3 37  1  0
  4 38  1  0
  4 39  1  0
  7 40  1  0
  8 41  1  0
  9 42  1  0
 12 43  1  0
 12 44  1  0
 15 45  1  0
 16 46  1  0
 17 47  1  0
 21 48  1  0
 22 49  1  0
 22 50  1  0
 24 51  1  0
 25 52  1  0
 26 53  1  0
 27 54  1  0
 28 55  1  0
 29 56  1  0
 31 57  1  0
 31 58  1  0
 32 59  1  0
 32 60  1  0
M  END
>  <smiles>  (23) 
CN1CCN(c2cccc3c2CC(c2cccc(C(=O)NCc4ccccc4)c2)=N3)CC1

>  <score_type>  (23) 
oracle

>  <origin>  (23) 
autodockgpu

>  <m_score__min__energy>  (23) 
-9.5899999999999999

>  <m_primary>  (23) 
energy

>  <rmsd>  (23) 
7.530739540187109

>  <m_score__min__rmsd>  (23) 
7.530739540187109

>  <meeko>  (23) 
{"free_energy": -9.41, "intermolecular_energy": -10.9, "internal_energy": -1.26, "cluster_size": 30, "cluster_id": 1, "rank_in_cluster": 27}

>  <energy>  (23) 
-9.46

>  <cluster_rmsd>  (23) 
0.38

>  <cluster>  (23) 
1

$$$$

     RDKit          3D

 60 64  0  0  0  0  0  0  0  0999 V2000
  141.5280   78.8500  223.7390 C   0  0  0  0  0  0  0  0  0  0  0  0
  140.8670   80.1260  223.8660 N   0  0  0  0  0  0  0  0  0  0  0  0
  139.6620   80.2090  223.0980 C   0  0  0  0  0  0  0  0  0  0  0  0
  139.8430   80.5580  221.6580 C   0  0  0  0  0  0  0  0  0  0  0  0
  141.2110   80.6970  221.2360 N   0  0  0  0  0  0  0  0  0  0  0  0
  141.6640   80.3100  219.9290 C   0  0  0  0  0  0  0  0  0  0  0  0
  141.7730   81.2300  218.9050 C   0  0  0  0  0  0  0  0  0  0  0  0
  142.2100   80.8510  217.6470 C   0  0  0  0  0  0  0  0  0  0  0  0
  142.5480   79.5200  217.4060 C   0  0  0  0  0  0  0  0  0  0  0  0
  142.4350   78.6100  218.4430 C   0  0  0  0  0  0  0  0  0  0  0  0
  141.9960   78.9900  219.7040 C   0  0  0  0  0  0  0  0  0  0  0  0
  142.0010   77.7830  220.5360 C   0  0  0  0  0  0  0  0  0  0  0  0
  142.4850   76.7070  219.6080 C   0  0  0  0  0  0  0  0  0  0  0  0
  142.6530   75.2960  220.0090 C   0  0  0  0  0  0  0  0  0  0  0  0
  143.7470   74.5610  219.5950 C   0  0  0  0  0  0  0  0  0  0  0  0
  143.8180   73.2400  220.0260 C   0  0  0  0  0  0  0  0  0  0  0  0
  142.8520   72.6770  220.8250 C   0  0  0  0  0  0  0  0  0  0  0  0
  141.7590   73.4120  221.2400 C   0  0  0  0  0  0  0  0  0  0  0  0
  140.7050   72.8630  222.0880 C   0  0  0  0  0  0  0  0  0  0  0  0
  139.7520   73.6040  222.4320 O   0  0  0  0  0  0  0  0  0  0  0  0
  140.6930   71.5230  222.5530 N   0  0  0  0  0  0  0  0  0  0  0  0
  139.6740   70.9500  223.3870 C   0  0  0  0  0  0  0  0  0  0  0  0
  139.9970   70.8710  224.8120 C   0  0  0  0  0  0  0  0  0  0  0  0
  140.7890   71.8710  225.3680 C   0  0  0  0  0  0  0  0  0  0  0  0
  141.1410   71.8820  226.7020 C   0  0  0  0  0  0  0  0  0  0  0  0
  140.7090   70.8810  227.5460 C   0  0  0  0  0  0  0  0  0  0  0  0
  139.9280   69.8920  227.0000 C   0  0  0  0  0  0  0  0  0  0  0  0
  139.5760   69.8800  225.6700 C   0  0  0  0  0  0  0  0  0  0  0  0
  141.6920   74.7180  220.8110 C   0  0  0  0  0  0  0  0  0  0  0  0
  142.7160   77.2200  218.4410 N   0  0  0  0  0  0  0  0  0  0  0  0
  142.2120   81.2470  222.1320 C   0  0  0  0  0  0  0  0  0  0  0  0
  141.7020   81.2530  223.5700 C   0  0  0  0  0  0  0  0  0  0  0  0
  141.7380   78.4446  224.7398 H   0  0  0  0  0  0  0  0  0  0  0  0
  140.8775   78.1531  223.1902 H   0  0  0  0  0  0  0  0  0  0  0  0
  142.4725   78.9793  223.1902 H   0  0  0  0  0  0  0  0  0  0  0  0
  139.1587   79.2323  223.1498 H   0  0  0  0  0  0  0  0  0  0  0  0
  139.0784   81.0311  223.5379 H   0  0  0  0  0  0  0  0  0  0  0  0
  139.3777   79.7657  221.0533 H   0  0  0  0  0  0  0  0  0  0  0  0
  139.3753   81.5438  221.5183 H   0  0  0  0  0  0  0  0  0  0  0  0
  141.5083   82.2812  219.0918 H   0  0  0  0  0  0  0  0  0  0  0  0
  142.2901   81.5962  216.8419 H   0  0  0  0  0  0  0  0  0  0  0  0
  142.8970   79.1999  216.4132 H   0  0  0  0  0  0  0  0  0  0  0  0
  142.6840   77.8994  221.3904 H   0  0  0  0  0  0  0  0  0  0  0  0
  141.0133   77.5599  220.9658 H   0  0  0  0  0  0  0  0  0  0  0  0
  144.5260   74.9999  218.9542 H   0  0  0  0  0  0  0  0  0  0  0  0
  144.6763   72.6255  219.7167 H   0  0  0  0  0  0  0  0  0  0  0  0
  142.9507   71.6271  221.1381 H   0  0  0  0  0  0  0  0  0  0  0  0
  141.4860   70.9050  222.2690 H   0  0  0  0  0  0  0  0  0  0  0  0
  138.7649   71.5598  223.2788 H   0  0  0  0  0  0  0  0  0  0  0  0
  139.5540   69.9109  223.0465 H   0  0  0  0  0  0  0  0  0  0  0  0
  141.1481   72.6836  224.7193 H   0  0  0  0  0  0  0  0  0  0  0  0
  141.7702   72.6944  227.0946 H   0  0  0  0  0  0  0  0  0  0  0  0
  140.9787   70.8748  228.6124 H   0  0  0  0  0  0  0  0  0  0  0  0
  139.5707   69.0796  227.6499 H   0  0  0  0  0  0  0  0  0  0  0  0
  138.9468   69.0639  225.2852 H   0  0  0  0  0  0  0  0  0  0  0  0
  140.8319   75.3289  221.1224 H   0  0  0  0  0  0  0  0  0  0  0  0
  143.1239   80.6345  222.0746 H   0  0  0  0  0  0  0  0  0  0  0  0
  142.4284   82.2820  221.8287 H   0  0  0  0  0  0  0  0  0  0  0  0
  142.5665   81.2386  224.2500 H   0  0  0  0  0  0  0  0  0  0  0  0
  141.0946   82.1604  223.7031 H   0  0  0  0  0  0  0  0  0  0  0  0
  1  2  1  0
  2  3  1  0
  3  4  1  0
  4  5  1  0
  5  6  1  0
  6  7  2  0
  7  8  1  0
  8  9  2  0
  9 10  1  0
 10 11  2  0
 11 12  1  0
 12 13  1  0
 13 14  1  0
 14 15  2  0
 15 16  1  0
 16 17  2  0
 17 18  1  0
 18 19  1  0
 19 20  2  0
 19 21  1  0
 21 22  1  0
 22 23  1  0
 23 24  2  0
 24 25  1  0
 25 26  2  0
 26 27  1  0
 27 28  2  0
 18 29  2  0
 13 30  2  0
  5 31  1  0
 31 32  1  0
 32  2  1  0
 11  6  1  0
 29 14  1  0
 30 10  1  0
 28 23  1  0
  1 33  1  0
  1 34  1  0
  1 35  1  0
  3 36  1  0
  3 37  1  0
  4 38  1  0
  4 39  1  0
  7 40  1  0
  8 41  1  0
  9 42  1  0
 12 43  1  0
 12 44  1  0
 15 45  1  0
 16 46  1  0
 17 47  1  0
 21 48  1  0
 22 49  1  0
 22 50  1  0
 24 51  1  0
 25 52  1  0
 26 53  1  0
 27 54  1  0
 28 55  1  0
 29 56  1  0
 31 57  1  0
 31 58  1  0
 32 59  1  0
 32 60  1  0
M  END
>  <smiles>  (24) 
CN1CCN(c2cccc3c2CC(c2cccc(C(=O)NCc4ccccc4)c2)=N3)CC1

>  <score_type>  (24) 
oracle

>  <origin>  (24) 
autodockgpu

>  <m_score__min__energy>  (24) 
-9.5899999999999999

>  <m_primary>  (24) 
energy

>  <rmsd>  (24) 
7.814698047536

>  <m_score__min__rmsd>  (24) 
7.814698047536

>  <meeko>  (24) 
{"free_energy": -9.48, "intermolecular_energy": -10.97, "internal_energy": -1.37, "cluster_size": 30, "cluster_id": 1, "rank_in_cluster": 18}

>  <energy>  (24) 
-9.46

>  <cluster_rmsd>  (24) 
0.36

>  <cluster>  (24) 
1

$$$$

     RDKit          3D

 60 64  0  0  0  0  0  0  0  0999 V2000
  139.2250   69.6420  228.7420 C   0  0  0  0  0  0  0  0  0  0  0  0
  140.6320   69.6940  228.4280 N   0  0  0  0  0  0  0  0  0  0  0  0
  141.0270   70.9400  227.8430 C   0  0  0  0  0  0  0  0  0  0  0  0
  140.7960   71.0590  226.3730 C   0  0  0  0  0  0  0  0  0  0  0  0
  140.1490   69.9260  225.7680 N   0  0  0  0  0  0  0  0  0  0  0  0
  139.2190   70.0510  224.6810 C   0  0  0  0  0  0  0  0  0  0  0  0
  138.0210   69.3650  224.6780 C   0  0  0  0  0  0  0  0  0  0  0  0
  137.1280   69.4890  223.6260 C   0  0  0  0  0  0  0  0  0  0  0  0
  137.4390   70.3190  222.5510 C   0  0  0  0  0  0  0  0  0  0  0  0
  138.6450   71.0010  222.5690 C   0  0  0  0  0  0  0  0  0  0  0  0
  139.5400   70.8770  223.6230 C   0  0  0  0  0  0  0  0  0  0  0  0
  140.6900   71.7290  223.3050 C   0  0  0  0  0  0  0  0  0  0  0  0
  140.3360   72.3310  221.9770 C   0  0  0  0  0  0  0  0  0  0  0  0
  141.2100   73.2720  221.2470 C   0  0  0  0  0  0  0  0  0  0  0  0
  142.3050   72.8240  220.5350 C   0  0  0  0  0  0  0  0  0  0  0  0
  143.0680   73.7860  219.8800 C   0  0  0  0  0  0  0  0  0  0  0  0
  142.7590   75.1250  219.9320 C   0  0  0  0  0  0  0  0  0  0  0  0
  141.6650   75.5730  220.6440 C   0  0  0  0  0  0  0  0  0  0  0  0
  141.2940   76.9820  220.7320 C   0  0  0  0  0  0  0  0  0  0  0  0
  140.1660   77.2870  221.1920 O   0  0  0  0  0  0  0  0  0  0  0  0
  142.1430   78.0420  220.3220 N   0  0  0  0  0  0  0  0  0  0  0  0
  141.8120   79.4370  220.3940 C   0  0  0  0  0  0  0  0  0  0  0  0
  141.9660   80.0530  221.7130 C   0  0  0  0  0  0  0  0  0  0  0  0
  141.0160   80.9840  222.1240 C   0  0  0  0  0  0  0  0  0  0  0  0
  141.0770   81.6130  223.3500 C   0  0  0  0  0  0  0  0  0  0  0  0
  142.1040   81.3340  224.2270 C   0  0  0  0  0  0  0  0  0  0  0  0
  143.0430   80.4170  223.8250 C   0  0  0  0  0  0  0  0  0  0  0  0
  142.9830   79.7880  222.6020 C   0  0  0  0  0  0  0  0  0  0  0  0
  140.9130   74.6180  221.2900 C   0  0  0  0  0  0  0  0  0  0  0  0
  139.1770   71.8920  221.6020 N   0  0  0  0  0  0  0  0  0  0  0  0
  140.4130   68.5790  226.2410 C   0  0  0  0  0  0  0  0  0  0  0  0
  141.0920   68.6130  227.6070 C   0  0  0  0  0  0  0  0  0  0  0  0
  139.0930   69.6371  229.8340 H   0  0  0  0  0  0  0  0  0  0  0  0
  138.7214   70.5221  228.3157 H   0  0  0  0  0  0  0  0  0  0  0  0
  138.7877   68.7271  228.3157 H   0  0  0  0  0  0  0  0  0  0  0  0
  140.4633   71.7426  228.3412 H   0  0  0  0  0  0  0  0  0  0  0  0
  142.1155   71.0101  227.9854 H   0  0  0  0  0  0  0  0  0  0  0  0
  140.1688   71.9452  226.1963 H   0  0  0  0  0  0  0  0  0  0  0  0
  141.7909   71.1301  225.9092 H   0  0  0  0  0  0  0  0  0  0  0  0
  137.7713   68.7090  225.5249 H   0  0  0  0  0  0  0  0  0  0  0  0
  136.1779   68.9348  223.6394 H   0  0  0  0  0  0  0  0  0  0  0  0
  136.7426   70.4304  221.7068 H   0  0  0  0  0  0  0  0  0  0  0  0
  140.8203   72.5113  224.0672 H   0  0  0  0  0  0  0  0  0  0  0  0
  141.6375   71.1708  223.2790 H   0  0  0  0  0  0  0  0  0  0  0  0
  142.5624   71.7556  220.4877 H   0  0  0  0  0  0  0  0  0  0  0  0
  143.9469   73.4649  219.3018 H   0  0  0  0  0  0  0  0  0  0  0  0
  143.3926   75.8490  219.3987 H   0  0  0  0  0  0  0  0  0  0  0  0
  143.0810   77.7890  219.9370 H   0  0  0  0  0  0  0  0  0  0  0  0
  142.4623   79.9766  219.6897 H   0  0  0  0  0  0  0  0  0  0  0  0
  140.7415   79.5068  220.1507 H   0  0  0  0  0  0  0  0  0  0  0  0
  140.1853   81.2272  221.4452 H   0  0  0  0  0  0  0  0  0  0  0  0
  140.3018   82.3415  223.6299 H   0  0  0  0  0  0  0  0  0  0  0  0
  142.1681   81.8262  225.2086 H   0  0  0  0  0  0  0  0  0  0  0  0
  143.8736   80.1760  224.5048 H   0  0  0  0  0  0  0  0  0  0  0  0
  143.7619   79.0604  222.3302 H   0  0  0  0  0  0  0  0  0  0  0  0
  140.0348   74.9434  221.8670 H   0  0  0  0  0  0  0  0  0  0  0  0
  139.4622   68.0319  226.3234 H   0  0  0  0  0  0  0  0  0  0  0  0
  141.0804   68.0763  225.5256 H   0  0  0  0  0  0  0  0  0  0  0  0
  140.8860   67.6651  228.1258 H   0  0  0  0  0  0  0  0  0  0  0  0
  142.1691   68.7596  227.4384 H   0  0  0  0  0  0  0  0  0  0  0  0
  1  2  1  0
  2  3  1  0
  3  4  1  0
  4  5  1  0
  5  6  1  0
  6  7  2  0
  7  8  1  0
  8  9  2  0
  9 10  1  0
 10 11  2  0
 11 12  1  0
 12 13  1  0
 13 14  1  0
 14 15  2  0
 15 16  1  0
 16 17  2  0
 17 18  1  0
 18 19  1  0
 19 20  2  0
 19 21  1  0
 21 22  1  0
 22 23  1  0
 23 24  2  0
 24 25  1  0
 25 26  2  0
 26 27  1  0
 27 28  2  0
 18 29  2  0
 13 30  2  0
  5 31  1  0
 31 32  1  0
 32  2  1  0
 11  6  1  0
 29 14  1  0
 30 10  1  0
 28 23  1  0
  1 33  1  0
  1 34  1  0
  1 35  1  0
  3 36  1  0
  3 37  1  0
  4 38  1  0
  4 39  1  0
  7 40  1  0
  8 41  1  0
  9 42  1  0
 12 43  1  0
 12 44  1  0
 15 45  1  0
 16 46  1  0
 17 47  1  0
 21 48  1  0
 22 49  1  0
 22 50  1  0
 24 51  1  0
 25 52  1  0
 26 53  1  0
 27 54  1  0
 28 55  1  0
 29 56  1  0
 31 57  1  0
 31 58  1  0
 32 59  1  0
 32 60  1  0
M  END
>  <smiles>  (25) 
CN1CCN(c2cccc3c2CC(c2cccc(C(=O)NCc4ccccc4)c2)=N3)CC1

>  <score_type>  (25) 
oracle

>  <origin>  (25) 
autodockgpu

>  <m_score__min__energy>  (25) 
-9.5899999999999999

>  <m_primary>  (25) 
energy

>  <rmsd>  (25) 
8.682515959412088

>  <m_score__min__rmsd>  (25) 
8.682515959412088

>  <meeko>  (25) 
{"free_energy": -9.28, "intermolecular_energy": -10.78, "internal_energy": -1.18, "cluster_size": 6, "cluster_id": 2, "rank_in_cluster": 6}

>  <energy>  (25) 
-9.46

>  <cluster_rmsd>  (25) 
0.32

>  <cluster>  (25) 
1

$$$$

     RDKit          3D

 60 64  0  0  0  0  0  0  0  0999 V2000
  135.9960   79.6320  223.2780 C   0  0  0  0  0  0  0  0  0  0  0  0
  135.9840   81.0260  223.6490 N   0  0  0  0  0  0  0  0  0  0  0  0
  136.5690   81.8730  222.6540 C   0  0  0  0  0  0  0  0  0  0  0  0
  138.0580   81.9760  222.6950 C   0  0  0  0  0  0  0  0  0  0  0  0
  138.6940   81.1570  223.6910 N   0  0  0  0  0  0  0  0  0  0  0  0
  139.9710   80.5330  223.4840 C   0  0  0  0  0  0  0  0  0  0  0  0
  141.1490   81.2080  223.7400 C   0  0  0  0  0  0  0  0  0  0  0  0
  142.3790   80.6020  223.5380 C   0  0  0  0  0  0  0  0  0  0  0  0
  142.4330   79.2900  223.0700 C   0  0  0  0  0  0  0  0  0  0  0  0
  141.2430   78.6280  222.8190 C   0  0  0  0  0  0  0  0  0  0  0  0
  140.0110   79.2340  223.0210 C   0  0  0  0  0  0  0  0  0  0  0  0
  138.9880   78.2490  222.6560 C   0  0  0  0  0  0  0  0  0  0  0  0
  139.7800   77.0460  222.2360 C   0  0  0  0  0  0  0  0  0  0  0  0
  139.1670   75.7840  221.7760 C   0  0  0  0  0  0  0  0  0  0  0  0
  138.1820   75.7800  220.8080 C   0  0  0  0  0  0  0  0  0  0  0  0
  137.6650   74.5420  220.4390 C   0  0  0  0  0  0  0  0  0  0  0  0
  138.1030   73.3680  221.0040 C   0  0  0  0  0  0  0  0  0  0  0  0
  139.0880   73.3710  221.9720 C   0  0  0  0  0  0  0  0  0  0  0  0
  139.5890   72.1540  222.6040 C   0  0  0  0  0  0  0  0  0  0  0  0
  140.6170   71.6050  222.1370 O   0  0  0  0  0  0  0  0  0  0  0  0
  138.9740   71.5460  223.7280 N   0  0  0  0  0  0  0  0  0  0  0  0
  139.4380   70.3520  224.3740 C   0  0  0  0  0  0  0  0  0  0  0  0
  139.9680   70.5320  225.7270 C   0  0  0  0  0  0  0  0  0  0  0  0
  140.7050   71.6810  226.0010 C   0  0  0  0  0  0  0  0  0  0  0  0
  141.2390   71.9380  227.2460 C   0  0  0  0  0  0  0  0  0  0  0  0
  141.0580   71.0460  228.2820 C   0  0  0  0  0  0  0  0  0  0  0  0
  140.3320   69.9110  228.0140 C   0  0  0  0  0  0  0  0  0  0  0  0
  139.7980   69.6530  226.7720 C   0  0  0  0  0  0  0  0  0  0  0  0
  139.5960   74.5980  222.3340 C   0  0  0  0  0  0  0  0  0  0  0  0
  141.0450   77.3060  222.3450 N   0  0  0  0  0  0  0  0  0  0  0  0
  138.0590   80.9200  224.9750 C   0  0  0  0  0  0  0  0  0  0  0  0
  136.5820   81.3000  224.9220 C   0  0  0  0  0  0  0  0  0  0  0  0
  136.0014   79.0110  224.1859 H   0  0  0  0  0  0  0  0  0  0  0  0
  135.0998   79.4033  222.6826 H   0  0  0  0  0  0  0  0  0  0  0  0
  136.8960   79.4188  222.6826 H   0  0  0  0  0  0  0  0  0  0  0  0
  136.2829   81.4833  221.6659 H   0  0  0  0  0  0  0  0  0  0  0  0
  136.1897   82.8854  222.8570 H   0  0  0  0  0  0  0  0  0  0  0  0
  138.4482   81.6809  221.7098 H   0  0  0  0  0  0  0  0  0  0  0  0
  138.2881   83.0186  222.9599 H   0  0  0  0  0  0  0  0  0  0  0  0
  141.1101   82.2431  224.1102 H   0  0  0  0  0  0  0  0  0  0  0  0
  143.3078   81.1535  223.7459 H   0  0  0  0  0  0  0  0  0  0  0  0
  143.3995   78.7917  222.9038 H   0  0  0  0  0  0  0  0  0  0  0  0
  138.3460   78.0137  223.5177 H   0  0  0  0  0  0  0  0  0  0  0  0
  138.3136   78.6104  221.8657 H   0  0  0  0  0  0  0  0  0  0  0  0
  137.8225   76.7131  220.3496 H   0  0  0  0  0  0  0  0  0  0  0  0
  136.8798   74.5015  219.6697 H   0  0  0  0  0  0  0  0  0  0  0  0
  137.6630   72.4131  220.6807 H   0  0  0  0  0  0  0  0  0  0  0  0
  138.1170   72.0020  224.1160 H   0  0  0  0  0  0  0  0  0  0  0  0
  138.5946   69.6482  224.4314 H   0  0  0  0  0  0  0  0  0  0  0  0
  140.2794   69.9876  223.7663 H   0  0  0  0  0  0  0  0  0  0  0  0
  140.8673   72.4109  225.1942 H   0  0  0  0  0  0  0  0  0  0  0  0
  141.8134   72.8610  227.4140 H   0  0  0  0  0  0  0  0  0  0  0  0
  141.4774   71.2354  229.2811 H   0  0  0  0  0  0  0  0  0  0  0  0
  140.1716   69.1816  228.8217 H   0  0  0  0  0  0  0  0  0  0  0  0
  139.2251   68.7277  226.6119 H   0  0  0  0  0  0  0  0  0  0  0  0
  140.3806   74.6343  223.1041 H   0  0  0  0  0  0  0  0  0  0  0  0
  138.1491   79.8541  225.2316 H   0  0  0  0  0  0  0  0  0  0  0  0
  138.5571   81.5381  225.7365 H   0  0  0  0  0  0  0  0  0  0  0  0
  136.0442   80.7291  225.6932 H   0  0  0  0  0  0  0  0  0  0  0  0
  136.5123   82.3842  225.0944 H   0  0  0  0  0  0  0  0  0  0  0  0
  1  2  1  0
  2  3  1  0
  3  4  1  0
  4  5  1  0
  5  6  1  0
  6  7  2  0
  7  8  1  0
  8  9  2  0
  9 10  1  0
 10 11  2  0
 11 12  1  0
 12 13  1  0
 13 14  1  0
 14 15  2  0
 15 16  1  0
 16 17  2  0
 17 18  1  0
 18 19  1  0
 19 20  2  0
 19 21  1  0
 21 22  1  0
 22 23  1  0
 23 24  2  0
 24 25  1  0
 25 26  2  0
 26 27  1  0
 27 28  2  0
 18 29  2  0
 13 30  2  0
  5 31  1  0
 31 32  1  0
 32  2  1  0
 11  6  1  0
 29 14  1  0
 30 10  1  0
 28 23  1  0
  1 33  1  0
  1 34  1  0
  1 35  1  0
  3 36  1  0
  3 37  1  0
  4 38  1  0
  4 39  1  0
  7 40  1  0
  8 41  1  0
  9 42  1  0
 12 43  1  0
 12 44  1  0
 15 45  1  0
 16 46  1  0
 17 47  1  0
 21 48  1  0
 22 49  1  0
 22 50  1  0
 24 51  1  0
 25 52  1  0
 26 53  1  0
 27 54  1  0
 28 55  1  0
 29 56  1  0
 31 57  1  0
 31 58  1  0
 32 59  1  0
 32 60  1  0
M  END
>  <smiles>  (26) 
CN1CCN(c2cccc3c2CC(c2cccc(C(=O)NCc4ccccc4)c2)=N3)CC1

>  <score_type>  (26) 
oracle

>  <origin>  (26) 
autodockgpu

>  <m_score__min__energy>  (26) 
-9.5899999999999999

>  <m_primary>  (26) 
energy

>  <rmsd>  (26) 
8.271571992594202

>  <m_score__min__rmsd>  (26) 
8.271571992594202

>  <meeko>  (26) 
{"free_energy": -9.18, "intermolecular_energy": -10.67, "internal_energy": -1.33, "cluster_size": 10, "cluster_id": 4, "rank_in_cluster": 1}

>  <energy>  (26) 
-9.46

>  <cluster_rmsd>  (26) 
0.35

>  <cluster>  (26) 
1

$$$$

     RDKit          3D

 60 64  0  0  0  0  0  0  0  0999 V2000
  141.6860   78.8560  223.7860 C   0  0  0  0  0  0  0  0  0  0  0  0
  140.9370   80.0860  223.8680 N   0  0  0  0  0  0  0  0  0  0  0  0
  139.7200   80.0490  223.1150 C   0  0  0  0  0  0  0  0  0  0  0  0
  139.8570   80.3460  221.6590 C   0  0  0  0  0  0  0  0  0  0  0  0
  141.2060   80.5620  221.2090 N   0  0  0  0  0  0  0  0  0  0  0  0
  141.6700   80.1500  219.9140 C   0  0  0  0  0  0  0  0  0  0  0  0
  141.8210   81.0570  218.8840 C   0  0  0  0  0  0  0  0  0  0  0  0
  142.2680   80.6540  217.6360 C   0  0  0  0  0  0  0  0  0  0  0  0
  142.5720   79.3130  217.4130 C   0  0  0  0  0  0  0  0  0  0  0  0
  142.4160   78.4160  218.4560 C   0  0  0  0  0  0  0  0  0  0  0  0
  141.9680   78.8190  219.7070 C   0  0  0  0  0  0  0  0  0  0  0  0
  141.9250   77.6200  220.5490 C   0  0  0  0  0  0  0  0  0  0  0  0
  142.3930   76.5230  219.6380 C   0  0  0  0  0  0  0  0  0  0  0  0
  142.5150   75.1110  220.0550 C   0  0  0  0  0  0  0  0  0  0  0  0
  143.5470   74.3170  219.5950 C   0  0  0  0  0  0  0  0  0  0  0  0
  143.5780   73.0010  220.0440 C   0  0  0  0  0  0  0  0  0  0  0  0
  142.6310   72.4990  220.9060 C   0  0  0  0  0  0  0  0  0  0  0  0
  141.6000   73.2920  221.3660 C   0  0  0  0  0  0  0  0  0  0  0  0
  140.5690   72.8090  222.2800 C   0  0  0  0  0  0  0  0  0  0  0  0
  139.4830   73.4340  222.3580 O   0  0  0  0  0  0  0  0  0  0  0  0
  140.7250   71.6600  223.0970 N   0  0  0  0  0  0  0  0  0  0  0  0
  139.7330   71.1560  224.0050 C   0  0  0  0  0  0  0  0  0  0  0  0
  140.2010   70.8980  225.3680 C   0  0  0  0  0  0  0  0  0  0  0  0
  140.1570   69.5920  225.8470 C   0  0  0  0  0  0  0  0  0  0  0  0
  140.5800   69.2530  227.1150 C   0  0  0  0  0  0  0  0  0  0  0  0
  141.0700   70.2190  227.9690 C   0  0  0  0  0  0  0  0  0  0  0  0
  141.1140   71.5080  227.5000 C   0  0  0  0  0  0  0  0  0  0  0  0
  140.6930   71.8480  226.2340 C   0  0  0  0  0  0  0  0  0  0  0  0
  141.5730   74.5940  220.9190 C   0  0  0  0  0  0  0  0  0  0  0  0
  142.6580   77.0180  218.4710 N   0  0  0  0  0  0  0  0  0  0  0  0
  142.1770   81.2200  222.0650 C   0  0  0  0  0  0  0  0  0  0  0  0
  141.6860   81.2540  223.5090 C   0  0  0  0  0  0  0  0  0  0  0  0
  141.9071   78.4930  224.8006 H   0  0  0  0  0  0  0  0  0  0  0  0
  141.0940   78.1014  223.2474 H   0  0  0  0  0  0  0  0  0  0  0  0
  142.6282   79.0356  223.2474 H   0  0  0  0  0  0  0  0  0  0  0  0
  139.2890   79.0421  223.2165 H   0  0  0  0  0  0  0  0  0  0  0  0
  139.0847   80.8465  223.5278 H   0  0  0  0  0  0  0  0  0  0  0  0
  139.4410   79.4971  221.0965 H   0  0  0  0  0  0  0  0  0  0  0  0
  139.3190   81.2895  221.4848 H   0  0  0  0  0  0  0  0  0  0  0  0
  141.5825   82.1168  219.0570 H   0  0  0  0  0  0  0  0  0  0  0  0
  142.3822   81.3890  216.8257 H   0  0  0  0  0  0  0  0  0  0  0  0
  142.9284   78.9740  216.4291 H   0  0  0  0  0  0  0  0  0  0  0  0
  142.5971   77.7244  221.4135 H   0  0  0  0  0  0  0  0  0  0  0  0
  140.9246   77.4288  220.9646 H   0  0  0  0  0  0  0  0  0  0  0  0
  144.3096   74.7075  218.9051 H   0  0  0  0  0  0  0  0  0  0  0  0
  144.3864   72.3399  219.6984 H   0  0  0  0  0  0  0  0  0  0  0  0
  142.6966   71.4508  221.2331 H   0  0  0  0  0  0  0  0  0  0  0  0
  141.6280   71.1400  223.0330 H   0  0  0  0  0  0  0  0  0  0  0  0
  138.9180   71.8927  224.0600 H   0  0  0  0  0  0  0  0  0  0  0  0
  139.4218   70.1808  223.6023 H   0  0  0  0  0  0  0  0  0  0  0  0
  139.7700   68.8000  225.1890 H   0  0  0  0  0  0  0  0  0  0  0  0
  140.5263   68.2058  227.4474 H   0  0  0  0  0  0  0  0  0  0  0  0
  141.4113   69.9667  228.9838 H   0  0  0  0  0  0  0  0  0  0  0  0
  141.4999   72.2988  228.1600 H   0  0  0  0  0  0  0  0  0  0  0  0
  140.7508   72.8973  225.9089 H   0  0  0  0  0  0  0  0  0  0  0  0
  140.7629   75.2518  221.2671 H   0  0  0  0  0  0  0  0  0  0  0  0
  143.1291   80.6709  222.0200 H   0  0  0  0  0  0  0  0  0  0  0  0
  142.3159   82.2532  221.7139 H   0  0  0  0  0  0  0  0  0  0  0  0
  142.5580   81.3309  224.1751 H   0  0  0  0  0  0  0  0  0  0  0  0
  141.0170   82.1212  223.6113 H   0  0  0  0  0  0  0  0  0  0  0  0
  1  2  1  0
  2  3  1  0
  3  4  1  0
  4  5  1  0
  5  6  1  0
  6  7  2  0
  7  8  1  0
  8  9  2  0
  9 10  1  0
 10 11  2  0
 11 12  1  0
 12 13  1  0
 13 14  1  0
 14 15  2  0
 15 16  1  0
 16 17  2  0
 17 18  1  0
 18 19  1  0
 19 20  2  0
 19 21  1  0
 21 22  1  0
 22 23  1  0
 23 24  2  0
 24 25  1  0
 25 26  2  0
 26 27  1  0
 27 28  2  0
 18 29  2  0
 13 30  2  0
  5 31  1  0
 31 32  1  0
 32  2  1  0
 11  6  1  0
 29 14  1  0
 30 10  1  0
 28 23  1  0
  1 33  1  0
  1 34  1  0
  1 35  1  0
  3 36  1  0
  3 37  1  0
  4 38  1  0
  4 39  1  0
  7 40  1  0
  8 41  1  0
  9 42  1  0
 12 43  1  0
 12 44  1  0
 15 45  1  0
 16 46  1  0
 17 47  1  0
 21 48  1  0
 22 49  1  0
 22 50  1  0
 24 51  1  0
 25 52  1  0
 26 53  1  0
 27 54  1  0
 28 55  1  0
 29 56  1  0
 31 57  1  0
 31 58  1  0
 32 59  1  0
 32 60  1  0
M  END
>  <smiles>  (27) 
CN1CCN(c2cccc3c2CC(c2cccc(C(=O)NCc4ccccc4)c2)=N3)CC1

>  <score_type>  (27) 
oracle

>  <origin>  (27) 
autodockgpu

>  <m_score__min__energy>  (27) 
-9.5899999999999999

>  <m_primary>  (27) 
energy

>  <rmsd>  (27) 
7.689287325819373

>  <m_score__min__rmsd>  (27) 
7.689287325819373

>  <meeko>  (27) 
{"free_energy": -9.59, "intermolecular_energy": -11.08, "internal_energy": -1.29, "cluster_size": 30, "cluster_id": 1, "rank_in_cluster": 3}

>  <energy>  (27) 
-9.41

>  <cluster_rmsd>  (27) 
0.37

>  <cluster>  (27) 
1

$$$$

     RDKit          3D

 60 64  0  0  0  0  0  0  0  0999 V2000
  141.7000   78.8040  223.8210 C   0  0  0  0  0  0  0  0  0  0  0  0
  140.9570   80.0350  223.9410 N   0  0  0  0  0  0  0  0  0  0  0  0
  139.7370   80.0250  223.1910 C   0  0  0  0  0  0  0  0  0  0  0  0
  139.8730   80.3650  221.7440 C   0  0  0  0  0  0  0  0  0  0  0  0
  141.2210   80.5890  221.2980 N   0  0  0  0  0  0  0  0  0  0  0  0
  141.6800   80.2140  219.9900 C   0  0  0  0  0  0  0  0  0  0  0  0
  141.8180   81.1480  218.9820 C   0  0  0  0  0  0  0  0  0  0  0  0
  142.2600   80.7810  217.7220 C   0  0  0  0  0  0  0  0  0  0  0  0
  142.5720   79.4470  217.4620 C   0  0  0  0  0  0  0  0  0  0  0  0
  142.4290   78.5230  218.4830 C   0  0  0  0  0  0  0  0  0  0  0  0
  141.9860   78.8900  219.7460 C   0  0  0  0  0  0  0  0  0  0  0  0
  141.9570   77.6700  220.5570 C   0  0  0  0  0  0  0  0  0  0  0  0
  142.4270   76.6000  219.6160 C   0  0  0  0  0  0  0  0  0  0  0  0
  142.5610   75.1790  219.9950 C   0  0  0  0  0  0  0  0  0  0  0  0
  143.5820   74.3980  219.4890 C   0  0  0  0  0  0  0  0  0  0  0  0
  143.6270   73.0720  219.9060 C   0  0  0  0  0  0  0  0  0  0  0  0
  142.7030   72.5470  220.7800 C   0  0  0  0  0  0  0  0  0  0  0  0
  141.6830   73.3270  221.2860 C   0  0  0  0  0  0  0  0  0  0  0  0
  140.6780   72.8200  222.2150 C   0  0  0  0  0  0  0  0  0  0  0  0
  139.7550   73.5850  222.5900 O   0  0  0  0  0  0  0  0  0  0  0  0
  140.6810   71.4980  222.7260 N   0  0  0  0  0  0  0  0  0  0  0  0
  139.7100   70.9660  223.6390 C   0  0  0  0  0  0  0  0  0  0  0  0
  140.0960   70.9830  225.0510 C   0  0  0  0  0  0  0  0  0  0  0  0
  139.5650   70.0120  225.8950 C   0  0  0  0  0  0  0  0  0  0  0  0
  139.8740   69.9460  227.2370 C   0  0  0  0  0  0  0  0  0  0  0  0
  140.7380   70.8620  227.7990 C   0  0  0  0  0  0  0  0  0  0  0  0
  141.2640   71.8220  226.9700 C   0  0  0  0  0  0  0  0  0  0  0  0
  140.9560   71.8880  225.6300 C   0  0  0  0  0  0  0  0  0  0  0  0
  141.6430   74.6390  220.8710 C   0  0  0  0  0  0  0  0  0  0  0  0
  142.6810   77.1270  218.4600 N   0  0  0  0  0  0  0  0  0  0  0  0
  142.1970   81.2170  222.1700 C   0  0  0  0  0  0  0  0  0  0  0  0
  141.7100   81.2100  223.6160 C   0  0  0  0  0  0  0  0  0  0  0  0
  141.9334   78.4173  224.8240 H   0  0  0  0  0  0  0  0  0  0  0  0
  141.0976   78.0640  223.2738 H   0  0  0  0  0  0  0  0  0  0  0  0
  142.6355   78.9922  223.2738 H   0  0  0  0  0  0  0  0  0  0  0  0
  139.3021   79.0172  223.2635 H   0  0  0  0  0  0  0  0  0  0  0  0
  139.1050   80.8114  223.6293 H   0  0  0  0  0  0  0  0  0  0  0  0
  139.4526   79.5350  221.1572 H   0  0  0  0  0  0  0  0  0  0  0  0
  139.3387   81.3156  221.5994 H   0  0  0  0  0  0  0  0  0  0  0  0
  141.5727   82.2012  219.1834 H   0  0  0  0  0  0  0  0  0  0  0  0
  142.3644   81.5377  216.9305 H   0  0  0  0  0  0  0  0  0  0  0  0
  142.9241   79.1357  216.4675 H   0  0  0  0  0  0  0  0  0  0  0  0
  142.6338   77.7574  221.4197 H   0  0  0  0  0  0  0  0  0  0  0  0
  140.9606   77.4610  220.9735 H   0  0  0  0  0  0  0  0  0  0  0  0
  144.3253   74.8062  218.7884 H   0  0  0  0  0  0  0  0  0  0  0  0
  144.4277   72.4214  219.5245 H   0  0  0  0  0  0  0  0  0  0  0  0
  142.7783   71.4912  221.0795 H   0  0  0  0  0  0  0  0  0  0  0  0
  141.4490   70.8610  222.4160 H   0  0  0  0  0  0  0  0  0  0  0  0
  138.7870   71.5549  223.5330 H   0  0  0  0  0  0  0  0  0  0  0  0
  139.5931   69.9056  223.3710 H   0  0  0  0  0  0  0  0  0  0  0  0
  138.8718   69.2683  225.4750 H   0  0  0  0  0  0  0  0  0  0  0  0
  139.4289   69.1584  227.8628 H   0  0  0  0  0  0  0  0  0  0  0  0
  140.9954   70.8252  228.8678 H   0  0  0  0  0  0  0  0  0  0  0  0
  141.9566   72.5652  227.3920 H   0  0  0  0  0  0  0  0  0  0  0  0
  141.4054   72.6784  225.0108 H   0  0  0  0  0  0  0  0  0  0  0  0
  140.8416   75.2867  221.2560 H   0  0  0  0  0  0  0  0  0  0  0  0
  143.1466   80.6655  222.1059 H   0  0  0  0  0  0  0  0  0  0  0  0
  142.3395   82.2595  221.8493 H   0  0  0  0  0  0  0  0  0  0  0  0
  142.5840   81.2630  224.2818 H   0  0  0  0  0  0  0  0  0  0  0  0
  141.0454   82.0768  223.7466 H   0  0  0  0  0  0  0  0  0  0  0  0
  1  2  1  0
  2  3  1  0
  3  4  1  0
  4  5  1  0
  5  6  1  0
  6  7  2  0
  7  8  1  0
  8  9  2  0
  9 10  1  0
 10 11  2  0
 11 12  1  0
 12 13  1  0
 13 14  1  0
 14 15  2  0
 15 16  1  0
 16 17  2  0
 17 18  1  0
 18 19  1  0
 19 20  2  0
 19 21  1  0
 21 22  1  0
 22 23  1  0
 23 24  2  0
 24 25  1  0
 25 26  2  0
 26 27  1  0
 27 28  2  0
 18 29  2  0
 13 30  2  0
  5 31  1  0
 31 32  1  0
 32  2  1  0
 11  6  1  0
 29 14  1  0
 30 10  1  0
 28 23  1  0
  1 33  1  0
  1 34  1  0
  1 35  1  0
  3 36  1  0
  3 37  1  0
  4 38  1  0
  4 39  1  0
  7 40  1  0
  8 41  1  0
  9 42  1  0
 12 43  1  0
 12 44  1  0
 15 45  1  0
 16 46  1  0
 17 47  1  0
 21 48  1  0
 22 49  1  0
 22 50  1  0
 24 51  1  0
 25 52  1  0
 26 53  1  0
 27 54  1  0
 28 55  1  0
 29 56  1  0
 31 57  1  0
 31 58  1  0
 32 59  1  0
 32 60  1  0
M  END
>  <smiles>  (28) 
CN1CCN(c2cccc3c2CC(c2cccc(C(=O)NCc4ccccc4)c2)=N3)CC1

>  <score_type>  (28) 
oracle

>  <origin>  (28) 
autodockgpu

>  <m_score__min__energy>  (28) 
-9.5899999999999999

>  <m_primary>  (28) 
energy

>  <rmsd>  (28) 
7.75379929055972

>  <m_score__min__rmsd>  (28) 
7.75379929055972

>  <meeko>  (28) 
{"free_energy": -9.49, "intermolecular_energy": -10.98, "internal_energy": -1.36, "cluster_size": 30, "cluster_id": 1, "rank_in_cluster": 16}

>  <energy>  (28) 
-8.92

>  <cluster_rmsd>  (28) 
0.76

>  <cluster>  (28) 
1

$$$$

     RDKit          3D

 60 64  0  0  0  0  0  0  0  0999 V2000
  141.5630   78.8300  223.7520 C   0  0  0  0  0  0  0  0  0  0  0  0
  140.8700   80.0910  223.8560 N   0  0  0  0  0  0  0  0  0  0  0  0
  139.6650   80.1300  223.0840 C   0  0  0  0  0  0  0  0  0  0  0  0
  139.8400   80.4580  221.6380 C   0  0  0  0  0  0  0  0  0  0  0  0
  141.2050   80.6230  221.2160 N   0  0  0  0  0  0  0  0  0  0  0  0
  141.6710   80.2240  219.9170 C   0  0  0  0  0  0  0  0  0  0  0  0
  141.8120   81.1380  218.8930 C   0  0  0  0  0  0  0  0  0  0  0  0
  142.2610   80.7480  217.6420 C   0  0  0  0  0  0  0  0  0  0  0  0
  142.5770   79.4110  217.4090 C   0  0  0  0  0  0  0  0  0  0  0  0
  142.4300   78.5050  218.4470 C   0  0  0  0  0  0  0  0  0  0  0  0
  141.9800   78.8970  219.7000 C   0  0  0  0  0  0  0  0  0  0  0  0
  141.9490   77.6920  220.5350 C   0  0  0  0  0  0  0  0  0  0  0  0
  142.4260   76.6050  219.6160 C   0  0  0  0  0  0  0  0  0  0  0  0
  142.5600   75.1910  220.0240 C   0  0  0  0  0  0  0  0  0  0  0  0
  143.6140   74.4170  219.5790 C   0  0  0  0  0  0  0  0  0  0  0  0
  143.6570   73.0980  220.0170 C   0  0  0  0  0  0  0  0  0  0  0  0
  142.6990   72.5740  220.8540 C   0  0  0  0  0  0  0  0  0  0  0  0
  141.6460   73.3470  221.2990 C   0  0  0  0  0  0  0  0  0  0  0  0
  140.6040   72.8400  222.1860 C   0  0  0  0  0  0  0  0  0  0  0  0
  139.5550   73.5120  222.3400 O   0  0  0  0  0  0  0  0  0  0  0  0
  140.7080   71.6160  222.8950 N   0  0  0  0  0  0  0  0  0  0  0  0
  139.7040   71.0870  223.7750 C   0  0  0  0  0  0  0  0  0  0  0  0
  140.1090   70.9310  225.1730 C   0  0  0  0  0  0  0  0  0  0  0  0
  140.9590   71.8840  225.7260 C   0  0  0  0  0  0  0  0  0  0  0  0
  141.3900   71.8230  227.0340 C   0  0  0  0  0  0  0  0  0  0  0  0
  140.9840   70.7920  227.8550 C   0  0  0  0  0  0  0  0  0  0  0  0
  140.1450   69.8500  227.3130 C   0  0  0  0  0  0  0  0  0  0  0  0
  139.7140   69.9100  226.0070 C   0  0  0  0  0  0  0  0  0  0  0  0
  141.6080   74.6520  220.8620 C   0  0  0  0  0  0  0  0  0  0  0  0
  142.6840   77.1100  218.4520 N   0  0  0  0  0  0  0  0  0  0  0  0
  142.1910   81.2130  222.1030 C   0  0  0  0  0  0  0  0  0  0  0  0
  141.6780   81.2320  223.5400 C   0  0  0  0  0  0  0  0  0  0  0  0
  141.7751   78.4440  224.7600 H   0  0  0  0  0  0  0  0  0  0  0  0
  140.9340   78.1097  223.2084 H   0  0  0  0  0  0  0  0  0  0  0  0
  142.5082   78.9748  223.2084 H   0  0  0  0  0  0  0  0  0  0  0  0
  139.1864   79.1419  223.1521 H   0  0  0  0  0  0  0  0  0  0  0  0
  139.0601   80.9450  223.5081 H   0  0  0  0  0  0  0  0  0  0  0  0
  139.3954   79.6440  221.0466 H   0  0  0  0  0  0  0  0  0  0  0  0
  139.3484   81.4293  221.4800 H   0  0  0  0  0  0  0  0  0  0  0  0
  141.5636   82.1943  219.0732 H   0  0  0  0  0  0  0  0  0  0  0  0
  142.3676   81.4898  216.8368 H   0  0  0  0  0  0  0  0  0  0  0  0
  142.9354   79.0820  216.4224 H   0  0  0  0  0  0  0  0  0  0  0  0
  142.6213   77.7971  221.3993 H   0  0  0  0  0  0  0  0  0  0  0  0
  140.9511   77.4890  220.9509 H   0  0  0  0  0  0  0  0  0  0  0  0
  144.3844   74.8256  218.9085 H   0  0  0  0  0  0  0  0  0  0  0  0
  144.4833   72.4529  219.6837 H   0  0  0  0  0  0  0  0  0  0  0  0
  142.7735   71.5239  221.1730 H   0  0  0  0  0  0  0  0  0  0  0  0
  141.5800   71.0560  222.7690 H   0  0  0  0  0  0  0  0  0  0  0  0
  138.8379   71.7645  223.7468 H   0  0  0  0  0  0  0  0  0  0  0  0
  139.4863   70.0727  223.4091 H   0  0  0  0  0  0  0  0  0  0  0  0
  141.3001   72.7181  225.0951 H   0  0  0  0  0  0  0  0  0  0  0  0
  142.0617   72.6013  227.4252 H   0  0  0  0  0  0  0  0  0  0  0  0
  141.3185   70.7270  228.9009 H   0  0  0  0  0  0  0  0  0  0  0  0
  139.8048   69.0168  227.9455 H   0  0  0  0  0  0  0  0  0  0  0  0
  139.0421   69.1282  225.6233 H   0  0  0  0  0  0  0  0  0  0  0  0
  140.7799   75.2938  221.1971 H   0  0  0  0  0  0  0  0  0  0  0  0
  143.1175   80.6219  222.0578 H   0  0  0  0  0  0  0  0  0  0  0  0
  142.3832   82.2473  221.7815 H   0  0  0  0  0  0  0  0  0  0  0  0
  142.5414   81.2509  224.2213 H   0  0  0  0  0  0  0  0  0  0  0  0
  141.0480   82.1263  223.6552 H   0  0  0  0  0  0  0  0  0  0  0  0
  1  2  1  0
  2  3  1  0
  3  4  1  0
  4  5  1  0
  5  6  1  0
  6  7  2  0
  7  8  1  0
  8  9  2  0
  9 10  1  0
 10 11  2  0
 11 12  1  0
 12 13  1  0
 13 14  1  0
 14 15  2  0
 15 16  1  0
 16 17  2  0
 17 18  1  0
 18 19  1  0
 19 20  2  0
 19 21  1  0
 21 22  1  0
 22 23  1  0
 23 24  2  0
 24 25  1  0
 25 26  2  0
 26 27  1  0
 27 28  2  0
 18 29  2  0
 13 30  2  0
  5 31  1  0
 31 32  1  0
 32  2  1  0
 11  6  1  0
 29 14  1  0
 30 10  1  0
 28 23  1  0
  1 33  1  0
  1 34  1  0
  1 35  1  0
  3 36  1  0
  3 37  1  0
  4 38  1  0
  4 39  1  0
  7 40  1  0
  8 41  1  0
  9 42  1  0
 12 43  1  0
 12 44  1  0
 15 45  1  0
 16 46  1  0
 17 47  1  0
 21 48  1  0
 22 49  1  0
 22 50  1  0
 24 51  1  0
 25 52  1  0
 26 53  1  0
 27 54  1  0
 28 55  1  0
 29 56  1  0
 31 57  1  0
 31 58  1  0
 32 59  1  0
 32 60  1  0
M  END
>  <smiles>  (29) 
CN1CCN(c2cccc3c2CC(c2cccc(C(=O)NCc4ccccc4)c2)=N3)CC1

>  <score_type>  (29) 
oracle

>  <origin>  (29) 
autodockgpu

>  <m_score__min__energy>  (29) 
-9.5899999999999999

>  <m_primary>  (29) 
energy

>  <rmsd>  (29) 
7.741356707602437

>  <m_score__min__rmsd>  (29) 
7.741356707602437

>  <meeko>  (29) 
{"free_energy": -9.57, "intermolecular_energy": -11.07, "internal_energy": -1.34, "cluster_size": 30, "cluster_id": 1, "rank_in_cluster": 6}

>  <energy>  (29) 
-8.86

>  <cluster_rmsd>  (29) 
0.83

>  <cluster>  (29) 
1

$$$$

     RDKit          3D

 60 64  0  0  0  0  0  0  0  0999 V2000
  141.8340   78.5920  223.6910 C   0  0  0  0  0  0  0  0  0  0  0  0
  140.9700   79.7430  223.7880 N   0  0  0  0  0  0  0  0  0  0  0  0
  139.7470   79.5850  223.0610 C   0  0  0  0  0  0  0  0  0  0  0  0
  139.8250   79.8920  221.6020 C   0  0  0  0  0  0  0  0  0  0  0  0
  141.1370   80.2390  221.1250 N   0  0  0  0  0  0  0  0  0  0  0  0
  141.6130   79.8720  219.8210 C   0  0  0  0  0  0  0  0  0  0  0  0
  141.6230   80.7790  218.7800 C   0  0  0  0  0  0  0  0  0  0  0  0
  142.0820   80.4200  217.5230 C   0  0  0  0  0  0  0  0  0  0  0  0
  142.5430   79.1230  217.3010 C   0  0  0  0  0  0  0  0  0  0  0  0
  142.5260   78.2250  218.3560 C   0  0  0  0  0  0  0  0  0  0  0  0
  142.0650   78.5850  219.6150 C   0  0  0  0  0  0  0  0  0  0  0  0
  142.1930   77.3990  220.4680 C   0  0  0  0  0  0  0  0  0  0  0  0
  142.7670   76.3580  219.5530 C   0  0  0  0  0  0  0  0  0  0  0  0
  143.0720   74.9760  219.9770 C   0  0  0  0  0  0  0  0  0  0  0  0
  144.3430   74.4520  219.8430 C   0  0  0  0  0  0  0  0  0  0  0  0
  144.5330   73.1420  220.2710 C   0  0  0  0  0  0  0  0  0  0  0  0
  143.5130   72.3910  220.8050 C   0  0  0  0  0  0  0  0  0  0  0  0
  142.2430   72.9150  220.9410 C   0  0  0  0  0  0  0  0  0  0  0  0
  141.1250   72.1610  221.5010 C   0  0  0  0  0  0  0  0  0  0  0  0
  140.4580   71.4120  220.7460 O   0  0  0  0  0  0  0  0  0  0  0  0
  140.7430   72.2260  222.8640 N   0  0  0  0  0  0  0  0  0  0  0  0
  139.6510   71.4990  223.4480 C   0  0  0  0  0  0  0  0  0  0  0  0
  139.9000   70.9530  224.7840 C   0  0  0  0  0  0  0  0  0  0  0  0
  139.2880   69.7530  225.1330 C   0  0  0  0  0  0  0  0  0  0  0  0
  139.4670   69.1610  226.3660 C   0  0  0  0  0  0  0  0  0  0  0  0
  140.2750   69.7530  227.3140 C   0  0  0  0  0  0  0  0  0  0  0  0
  140.8810   70.9370  226.9720 C   0  0  0  0  0  0  0  0  0  0  0  0
  140.7030   71.5290  225.7420 C   0  0  0  0  0  0  0  0  0  0  0  0
  142.0590   74.2110  220.5150 C   0  0  0  0  0  0  0  0  0  0  0  0
  142.9380   76.8680  218.3750 N   0  0  0  0  0  0  0  0  0  0  0  0
  142.0560   80.9910  221.9610 C   0  0  0  0  0  0  0  0  0  0  0  0
  141.5930   80.9790  223.4150 C   0  0  0  0  0  0  0  0  0  0  0  0
  142.0955   78.2437  224.7011 H   0  0  0  0  0  0  0  0  0  0  0  0
  141.3144   77.7881  223.1490 H   0  0  0  0  0  0  0  0  0  0  0  0
  142.7510   78.8665  223.1490 H   0  0  0  0  0  0  0  0  0  0  0  0
  139.4193   78.5407  223.1710 H   0  0  0  0  0  0  0  0  0  0  0  0
  139.0444   80.3161  223.4874 H   0  0  0  0  0  0  0  0  0  0  0  0
  139.4834   79.0055  221.0476 H   0  0  0  0  0  0  0  0  0  0  0  0
  139.1935   80.7778  221.4391 H   0  0  0  0  0  0  0  0  0  0  0  0
  141.2606   81.8033  218.9514 H   0  0  0  0  0  0  0  0  0  0  0  0
  142.0827   81.1546  216.7042 H   0  0  0  0  0  0  0  0  0  0  0  0
  142.9120   78.8194  216.3102 H   0  0  0  0  0  0  0  0  0  0  0  0
  142.8706   77.5950  221.3120 H   0  0  0  0  0  0  0  0  0  0  0  0
  141.2356   77.0912  220.9137 H   0  0  0  0  0  0  0  0  0  0  0  0
  145.1671   75.0434  219.4174 H   0  0  0  0  0  0  0  0  0  0  0  0
  145.5326   72.6922  220.1790 H   0  0  0  0  0  0  0  0  0  0  0  0
  143.7114   71.3585  221.1283 H   0  0  0  0  0  0  0  0  0  0  0  0
  141.2960   72.8500  223.4930 H   0  0  0  0  0  0  0  0  0  0  0  0
  138.7887   72.1786  223.5149 H   0  0  0  0  0  0  0  0  0  0  0  0
  139.4817   70.6311  222.7937 H   0  0  0  0  0  0  0  0  0  0  0  0
  138.6368   69.2577  224.3978 H   0  0  0  0  0  0  0  0  0  0  0  0
  138.9621   68.2108  226.5945 H   0  0  0  0  0  0  0  0  0  0  0  0
  140.4277   69.2959  228.3028 H   0  0  0  0  0  0  0  0  0  0  0  0
  141.5327   71.4305  227.7081 H   0  0  0  0  0  0  0  0  0  0  0  0
  141.2115   72.4790  225.5209 H   0  0  0  0  0  0  0  0  0  0  0  0
  141.0577   74.6568  220.6081 H   0  0  0  0  0  0  0  0  0  0  0  0
  143.0563   80.5380  221.8965 H   0  0  0  0  0  0  0  0  0  0  0  0
  142.0858   82.0321  221.6072 H   0  0  0  0  0  0  0  0  0  0  0  0
  142.4663   81.1425  224.0636 H   0  0  0  0  0  0  0  0  0  0  0  0
  140.8442   81.7764  223.5314 H   0  0  0  0  0  0  0  0  0  0  0  0
  1  2  1  0
  2  3  1  0
  3  4  1  0
  4  5  1  0
  5  6  1  0
  6  7  2  0
  7  8  1  0
  8  9  2  0
  9 10  1  0
 10 11  2  0
 11 12  1  0
 12 13  1  0
 13 14  1  0
 14 15  2  0
 15 16  1  0
 16 17  2  0
 17 18  1  0
 18 19  1  0
 19 20  2  0
 19 21  1  0
 21 22  1  0
 22 23  1  0
 23 24  2  0
 24 25  1  0
 25 26  2  0
 26 27  1  0
 27 28  2  0
 18 29  2  0
 13 30  2  0
  5 31  1  0
 31 32  1  0
 32  2  1  0
 11  6  1  0
 29 14  1  0
 30 10  1  0
 28 23  1  0
  1 33  1  0
  1 34  1  0
  1 35  1  0
  3 36  1  0
  3 37  1  0
  4 38  1  0
  4 39  1  0
  7 40  1  0
  8 41  1  0
  9 42  1  0
 12 43  1  0
 12 44  1  0
 15 45  1  0
 16 46  1  0
 17 47  1  0
 21 48  1  0
 22 49  1  0
 22 50  1  0
 24 51  1  0
 25 52  1  0
 26 53  1  0
 27 54  1  0
 28 55  1  0
 29 56  1  0
 31 57  1  0
 31 58  1  0
 32 59  1  0
 32 60  1  0
M  END
>  <smiles>  (30) 
CN1CCN(c2cccc3c2CC(c2cccc(C(=O)NCc4ccccc4)c2)=N3)CC1

>  <score_type>  (30) 
oracle

>  <origin>  (30) 
autodockgpu

>  <m_score__min__energy>  (30) 
-9.5899999999999999

>  <m_primary>  (30) 
energy

>  <rmsd>  (30) 
7.61695042707627

>  <m_score__min__rmsd>  (30) 
7.61695042707627

>  <meeko>  (30) 
{"free_energy": -8.86, "intermolecular_energy": -10.35, "internal_energy": -1.24, "cluster_size": 30, "cluster_id": 1, "rank_in_cluster": 29}

>  <energy>  (30) 
-8.85

>  <cluster_rmsd>  (30) 
0.9

>  <cluster>  (30) 
1

$$$$

     RDKit          3D

 60 64  0  0  0  0  0  0  0  0999 V2000
  141.0720   78.7910  223.6030 C   0  0  0  0  0  0  0  0  0  0  0  0
  140.9040   80.2070  223.8190 N   0  0  0  0  0  0  0  0  0  0  0  0
  139.8240   80.7620  223.0610 C   0  0  0  0  0  0  0  0  0  0  0  0
  140.1480   81.1170  221.6480 C   0  0  0  0  0  0  0  0  0  0  0  0
  141.4850   80.7880  221.2320 N   0  0  0  0  0  0  0  0  0  0  0  0
  141.8000   80.3510  219.9020 C   0  0  0  0  0  0  0  0  0  0  0  0
  141.8460   81.2400  218.8460 C   0  0  0  0  0  0  0  0  0  0  0  0
  142.1500   80.8130  217.5640 C   0  0  0  0  0  0  0  0  0  0  0  0
  142.4150   79.4650  217.3310 C   0  0  0  0  0  0  0  0  0  0  0  0
  142.3660   78.5860  218.4000 C   0  0  0  0  0  0  0  0  0  0  0  0
  142.0610   79.0140  219.6850 C   0  0  0  0  0  0  0  0  0  0  0  0
  142.1000   77.8290  220.5470 C   0  0  0  0  0  0  0  0  0  0  0  0
  142.4560   76.7120  219.6090 C   0  0  0  0  0  0  0  0  0  0  0  0
  142.6090   75.3060  220.0330 C   0  0  0  0  0  0  0  0  0  0  0  0
  143.6950   74.5530  219.6300 C   0  0  0  0  0  0  0  0  0  0  0  0
  143.7530   73.2390  220.0820 C   0  0  0  0  0  0  0  0  0  0  0  0
  142.7810   72.6990  220.8920 C   0  0  0  0  0  0  0  0  0  0  0  0
  141.6960   73.4520  221.2950 C   0  0  0  0  0  0  0  0  0  0  0  0
  140.6370   72.9280  222.1530 C   0  0  0  0  0  0  0  0  0  0  0  0
  139.5900   73.6030  222.3070 O   0  0  0  0  0  0  0  0  0  0  0  0
  140.7230   71.6860  222.8310 N   0  0  0  0  0  0  0  0  0  0  0  0
  139.7020   71.1400  223.6810 C   0  0  0  0  0  0  0  0  0  0  0  0
  140.0690   70.9900  225.0900 C   0  0  0  0  0  0  0  0  0  0  0  0
  140.9890   71.8820  225.6330 C   0  0  0  0  0  0  0  0  0  0  0  0
  141.3910   71.8210  226.9510 C   0  0  0  0  0  0  0  0  0  0  0  0
  140.8830   70.8520  227.7910 C   0  0  0  0  0  0  0  0  0  0  0  0
  139.9750   69.9700  227.2590 C   0  0  0  0  0  0  0  0  0  0  0  0
  139.5730   70.0310  225.9440 C   0  0  0  0  0  0  0  0  0  0  0  0
  141.6430   74.7520  220.8450 C   0  0  0  0  0  0  0  0  0  0  0  0
  142.5950   77.1860  218.4120 N   0  0  0  0  0  0  0  0  0  0  0  0
  142.5970   80.8870  222.1620 C   0  0  0  0  0  0  0  0  0  0  0  0
  142.0900   80.9800  223.5980 C   0  0  0  0  0  0  0  0  0  0  0  0
  141.1330   78.2768  224.5735 H   0  0  0  0  0  0  0  0  0  0  0  0
  140.2137   78.4023  223.0354 H   0  0  0  0  0  0  0  0  0  0  0  0
  141.9975   78.6139  223.0354 H   0  0  0  0  0  0  0  0  0  0  0  0
  139.0064   80.0263  223.0469 H   0  0  0  0  0  0  0  0  0  0  0  0
  139.5604   81.7075  223.5576 H   0  0  0  0  0  0  0  0  0  0  0  0
  139.4449   80.5831  220.9918 H   0  0  0  0  0  0  0  0  0  0  0  0
  140.0637   82.2115  221.5779 H   0  0  0  0  0  0  0  0  0  0  0  0
  141.6377   82.3050  219.0262 H   0  0  0  0  0  0  0  0  0  0  0  0
  142.1821   81.5343  216.7341 H   0  0  0  0  0  0  0  0  0  0  0  0
  142.6579   79.1068  216.3197 H   0  0  0  0  0  0  0  0  0  0  0  0
  142.8636   77.9402  221.3309 H   0  0  0  0  0  0  0  0  0  0  0  0
  141.1494   77.6551  221.0725 H   0  0  0  0  0  0  0  0  0  0  0  0
  144.4778   74.9734  218.9815 H   0  0  0  0  0  0  0  0  0  0  0  0
  144.6045   72.6106  219.7818 H   0  0  0  0  0  0  0  0  0  0  0  0
  142.8693   71.6537  221.2230 H   0  0  0  0  0  0  0  0  0  0  0  0
  141.5940   71.1240  222.7040 H   0  0  0  0  0  0  0  0  0  0  0  0
  138.8261   71.8033  223.6277 H   0  0  0  0  0  0  0  0  0  0  0  0
  139.5110   70.1227  223.3086 H   0  0  0  0  0  0  0  0  0  0  0  0
  141.4115   72.6653  224.9866 H   0  0  0  0  0  0  0  0  0  0  0  0
  142.1209   72.5492  227.3344 H   0  0  0  0  0  0  0  0  0  0  0  0
  141.1928   70.7884  228.8446 H   0  0  0  0  0  0  0  0  0  0  0  0
  139.5540   69.1869  227.9067 H   0  0  0  0  0  0  0  0  0  0  0  0
  138.8419   69.2999  225.5686 H   0  0  0  0  0  0  0  0  0  0  0  0
  140.7902   75.3775  221.1475 H   0  0  0  0  0  0  0  0  0  0  0  0
  143.2335   79.9956  222.0605 H   0  0  0  0  0  0  0  0  0  0  0  0
  143.1733   81.7948  221.9301 H   0  0  0  0  0  0  0  0  0  0  0  0
  142.8781   80.6155  224.2733 H   0  0  0  0  0  0  0  0  0  0  0  0
  141.8402   82.0333  223.7936 H   0  0  0  0  0  0  0  0  0  0  0  0
  1  2  1  0
  2  3  1  0
  3  4  1  0
  4  5  1  0
  5  6  1  0
  6  7  2  0
  7  8  1  0
  8  9  2  0
  9 10  1  0
 10 11  2  0
 11 12  1  0
 12 13  1  0
 13 14  1  0
 14 15  2  0
 15 16  1  0
 16 17  2  0
 17 18  1  0
 18 19  1  0
 19 20  2  0
 19 21  1  0
 21 22  1  0
 22 23  1  0
 23 24  2  0
 24 25  1  0
 25 26  2  0
 26 27  1  0
 27 28  2  0
 18 29  2  0
 13 30  2  0
  5 31  1  0
 31 32  1  0
 32  2  1  0
 11  6  1  0
 29 14  1  0
 30 10  1  0
 28 23  1  0
  1 33  1  0
  1 34  1  0
  1 35  1  0
  3 36  1  0
  3 37  1  0
  4 38  1  0
  4 39  1  0
  7 40  1  0
  8 41  1  0
  9 42  1  0
 12 43  1  0
 12 44  1  0
 15 45  1  0
 16 46  1  0
 17 47  1  0
 21 48  1  0
 22 49  1  0
 22 50  1  0
 24 51  1  0
 25 52  1  0
 26 53  1  0
 27 54  1  0
 28 55  1  0
 29 56  1  0
 31 57  1  0
 31 58  1  0
 32 59  1  0
 32 60  1  0
M  END
>  <smiles>  (31) 
CN1CCN(c2cccc3c2CC(c2cccc(C(=O)NCc4ccccc4)c2)=N3)CC1

>  <score_type>  (31) 
oracle

>  <origin>  (31) 
autodockgpu

>  <m_score__min__energy>  (31) 
-9.5899999999999999

>  <m_primary>  (31) 
energy

>  <rmsd>  (31) 
7.856058931940658

>  <m_score__min__rmsd>  (31) 
7.856058931940658

>  <meeko>  (31) 
{"free_energy": -9.46, "intermolecular_energy": -10.95, "internal_energy": -1.34, "cluster_size": 30, "cluster_id": 1, "rank_in_cluster": 24}

>  <energy>  (31) 
-9.44

>  <cluster_rmsd>  (31) 
0.0

>  <cluster>  (31) 
2

$$$$

     RDKit          3D

 60 64  0  0  0  0  0  0  0  0999 V2000
  139.1380   69.6620  228.7380 C   0  0  0  0  0  0  0  0  0  0  0  0
  140.5310   69.5190  228.3920 N   0  0  0  0  0  0  0  0  0  0  0  0
  141.0760   70.6920  227.7780 C   0  0  0  0  0  0  0  0  0  0  0  0
  140.8290   70.8210  226.3110 C   0  0  0  0  0  0  0  0  0  0  0  0
  140.0190   69.7780  225.7400 N   0  0  0  0  0  0  0  0  0  0  0  0
  139.0890   70.0140  224.6710 C   0  0  0  0  0  0  0  0  0  0  0  0
  137.8460   69.4130  224.6560 C   0  0  0  0  0  0  0  0  0  0  0  0
  136.9530   69.6430  223.6230 C   0  0  0  0  0  0  0  0  0  0  0  0
  137.3100   70.4950  222.5790 C   0  0  0  0  0  0  0  0  0  0  0  0
  138.5600   71.0900  222.6090 C   0  0  0  0  0  0  0  0  0  0  0  0
  139.4550   70.8590  223.6440 C   0  0  0  0  0  0  0  0  0  0  0  0
  140.6580   71.6430  223.3470 C   0  0  0  0  0  0  0  0  0  0  0  0
  140.3330   72.3240  222.0500 C   0  0  0  0  0  0  0  0  0  0  0  0
  141.2630   73.2330  221.3490 C   0  0  0  0  0  0  0  0  0  0  0  0
  142.4490   72.7690  220.8150 C   0  0  0  0  0  0  0  0  0  0  0  0
  143.2590   73.6990  220.1730 C   0  0  0  0  0  0  0  0  0  0  0  0
  142.9080   75.0250  220.0670 C   0  0  0  0  0  0  0  0  0  0  0  0
  141.7230   75.4890  220.6000 C   0  0  0  0  0  0  0  0  0  0  0  0
  141.3040   76.8850  220.5160 C   0  0  0  0  0  0  0  0  0  0  0  0
  140.1030   77.1750  220.7410 O   0  0  0  0  0  0  0  0  0  0  0  0
  142.1840   77.9480  220.1900 N   0  0  0  0  0  0  0  0  0  0  0  0
  141.8080   79.3310  220.0990 C   0  0  0  0  0  0  0  0  0  0  0  0
  141.8880   80.0890  221.3490 C   0  0  0  0  0  0  0  0  0  0  0  0
  142.4960   79.4910  222.4480 C   0  0  0  0  0  0  0  0  0  0  0  0
  142.6220   80.1300  223.6640 C   0  0  0  0  0  0  0  0  0  0  0  0
  142.1360   81.4100  223.8330 C   0  0  0  0  0  0  0  0  0  0  0  0
  141.5350   82.0020  222.7510 C   0  0  0  0  0  0  0  0  0  0  0  0
  141.4100   81.3660  221.5370 C   0  0  0  0  0  0  0  0  0  0  0  0
  140.9250   74.5650  221.2350 C   0  0  0  0  0  0  0  0  0  0  0  0
  139.1420   71.9830  221.6730 N   0  0  0  0  0  0  0  0  0  0  0  0
  140.1100   68.4150  226.2290 C   0  0  0  0  0  0  0  0  0  0  0  0
  140.8200   68.3740  227.5790 C   0  0  0  0  0  0  0  0  0  0  0  0
  139.0314   69.6729  229.8328 H   0  0  0  0  0  0  0  0  0  0  0  0
  138.7519   70.6045  228.3226 H   0  0  0  0  0  0  0  0  0  0  0  0
  138.5684   68.8176  228.3226 H   0  0  0  0  0  0  0  0  0  0  0  0
  140.6371   71.5700  228.2745 H   0  0  0  0  0  0  0  0  0  0  0  0
  142.1671   70.6166  227.8960 H   0  0  0  0  0  0  0  0  0  0  0  0
  140.3246   71.7821  226.1324 H   0  0  0  0  0  0  0  0  0  0  0  0
  141.8130   70.7493  225.8246 H   0  0  0  0  0  0  0  0  0  0  0  0
  137.5604   68.7404  225.4782 H   0  0  0  0  0  0  0  0  0  0  0  0
  135.9668   69.1558  223.6262 H   0  0  0  0  0  0  0  0  0  0  0  0
  136.6141   70.6903  221.7498 H   0  0  0  0  0  0  0  0  0  0  0  0
  140.8497   72.3813  224.1396 H   0  0  0  0  0  0  0  0  0  0  0  0
  141.5644   71.0228  223.2853 H   0  0  0  0  0  0  0  0  0  0  0  0
  142.7398   71.7111  220.8940 H   0  0  0  0  0  0  0  0  0  0  0  0
  144.2111   73.3638  219.7358 H   0  0  0  0  0  0  0  0  0  0  0  0
  143.5813   75.7248  219.5503 H   0  0  0  0  0  0  0  0  0  0  0  0
  143.1830   77.7080  220.0020 H   0  0  0  0  0  0  0  0  0  0  0  0
  142.4704   79.8149  219.3661 H   0  0  0  0  0  0  0  0  0  0  0  0
  140.7469   79.3373  219.8092 H   0  0  0  0  0  0  0  0  0  0  0  0
  142.8913   78.4698  222.3434 H   0  0  0  0  0  0  0  0  0  0  0  0
  143.1127   79.6160  224.5037 H   0  0  0  0  0  0  0  0  0  0  0  0
  142.2266   81.9344  224.7957 H   0  0  0  0  0  0  0  0  0  0  0  0
  141.1385   83.0225  222.8578 H   0  0  0  0  0  0  0  0  0  0  0  0
  140.9193   81.8875  220.7020 H   0  0  0  0  0  0  0  0  0  0  0  0
  139.9741   74.9045  221.6716 H   0  0  0  0  0  0  0  0  0  0  0  0
  139.0963   68.0029  226.3412 H   0  0  0  0  0  0  0  0  0  0  0  0
  140.6864   67.8175  225.5074 H   0  0  0  0  0  0  0  0  0  0  0  0
  140.4994   67.4701  228.1177 H   0  0  0  0  0  0  0  0  0  0  0  0
  141.9027   68.3697  227.3846 H   0  0  0  0  0  0  0  0  0  0  0  0
  1  2  1  0
  2  3  1  0
  3  4  1  0
  4  5  1  0
  5  6  1  0
  6  7  2  0
  7  8  1  0
  8  9  2  0
  9 10  1  0
 10 11  2  0
 11 12  1  0
 12 13  1  0
 13 14  1  0
 14 15  2  0
 15 16  1  0
 16 17  2  0
 17 18  1  0
 18 19  1  0
 19 20  2  0
 19 21  1  0
 21 22  1  0
 22 23  1  0
 23 24  2  0
 24 25  1  0
 25 26  2  0
 26 27  1  0
 27 28  2  0
 18 29  2  0
 13 30  2  0
  5 31  1  0
 31 32  1  0
 32  2  1  0
 11  6  1  0
 29 14  1  0
 30 10  1  0
 28 23  1  0
  1 33  1  0
  1 34  1  0
  1 35  1  0
  3 36  1  0
  3 37  1  0
  4 38  1  0
  4 39  1  0
  7 40  1  0
  8 41  1  0
  9 42  1  0
 12 43  1  0
 12 44  1  0
 15 45  1  0
 16 46  1  0
 17 47  1  0
 21 48  1  0
 22 49  1  0
 22 50  1  0
 24 51  1  0
 25 52  1  0
 26 53  1  0
 27 54  1  0
 28 55  1  0
 29 56  1  0
 31 57  1  0
 31 58  1  0
 32 59  1  0
 32 60  1  0
M  END
>  <smiles>  (32) 
CN1CCN(c2cccc3c2CC(c2cccc(C(=O)NCc4ccccc4)c2)=N3)CC1

>  <score_type>  (32) 
oracle

>  <origin>  (32) 
autodockgpu

>  <m_score__min__energy>  (32) 
-9.5899999999999999

>  <m_primary>  (32) 
energy

>  <rmsd>  (32) 
8.691661661620023

>  <m_score__min__rmsd>  (32) 
8.691661661620023

>  <meeko>  (32) 
{"free_energy": -9.43, "intermolecular_energy": -10.93, "internal_energy": -1.15, "cluster_size": 6, "cluster_id": 2, "rank_in_cluster": 2}

>  <energy>  (32) 
-9.43

>  <cluster_rmsd>  (32) 
0.13

>  <cluster>  (32) 
2

$$$$

     RDKit          3D

 60 64  0  0  0  0  0  0  0  0999 V2000
  141.4740   78.8640  223.7740 C   0  0  0  0  0  0  0  0  0  0  0  0
  140.8270   80.1450  223.9130 N   0  0  0  0  0  0  0  0  0  0  0  0
  139.6260   80.2500  223.1420 C   0  0  0  0  0  0  0  0  0  0  0  0
  139.8150   80.6130  221.7070 C   0  0  0  0  0  0  0  0  0  0  0  0
  141.1860   80.7410  221.2900 N   0  0  0  0  0  0  0  0  0  0  0  0
  141.6390   80.3640  219.9810 C   0  0  0  0  0  0  0  0  0  0  0  0
  141.7450   81.2900  218.9630 C   0  0  0  0  0  0  0  0  0  0  0  0
  142.1820   80.9210  217.7010 C   0  0  0  0  0  0  0  0  0  0  0  0
  142.5220   79.5920  217.4510 C   0  0  0  0  0  0  0  0  0  0  0  0
  142.4110   78.6750  218.4830 C   0  0  0  0  0  0  0  0  0  0  0  0
  141.9720   79.0450  219.7470 C   0  0  0  0  0  0  0  0  0  0  0  0
  141.9800   77.8330  220.5710 C   0  0  0  0  0  0  0  0  0  0  0  0
  142.4650   76.7640  219.6350 C   0  0  0  0  0  0  0  0  0  0  0  0
  142.6350   75.3500  220.0270 C   0  0  0  0  0  0  0  0  0  0  0  0
  143.7200   74.6150  219.5920 C   0  0  0  0  0  0  0  0  0  0  0  0
  143.7950   73.2920  220.0150 C   0  0  0  0  0  0  0  0  0  0  0  0
  142.8390   72.7280  220.8270 C   0  0  0  0  0  0  0  0  0  0  0  0
  141.7550   73.4630  221.2620 C   0  0  0  0  0  0  0  0  0  0  0  0
  140.7130   72.9120  222.1230 C   0  0  0  0  0  0  0  0  0  0  0  0
  139.7420   73.6400  222.4450 O   0  0  0  0  0  0  0  0  0  0  0  0
  140.7330   71.5870  222.6260 N   0  0  0  0  0  0  0  0  0  0  0  0
  139.7260   71.0130  223.4740 C   0  0  0  0  0  0  0  0  0  0  0  0
  140.0640   70.9450  224.8970 C   0  0  0  0  0  0  0  0  0  0  0  0
  139.5870   69.8700  225.6400 C   0  0  0  0  0  0  0  0  0  0  0  0
  139.8570   69.7200  226.9850 C   0  0  0  0  0  0  0  0  0  0  0  0
  140.6250   70.6520  227.6500 C   0  0  0  0  0  0  0  0  0  0  0  0
  141.0980   71.7150  226.9190 C   0  0  0  0  0  0  0  0  0  0  0  0
  140.8290   71.8650  225.5780 C   0  0  0  0  0  0  0  0  0  0  0  0
  141.6850   74.7710  220.8410 C   0  0  0  0  0  0  0  0  0  0  0  0
  142.6940   77.2850  218.4710 N   0  0  0  0  0  0  0  0  0  0  0  0
  142.1910   81.2700  222.1950 C   0  0  0  0  0  0  0  0  0  0  0  0
  141.6760   81.2650  223.6310 C   0  0  0  0  0  0  0  0  0  0  0  0
  141.6836   78.4490  224.7709 H   0  0  0  0  0  0  0  0  0  0  0  0
  140.8143   78.1779  223.2225 H   0  0  0  0  0  0  0  0  0  0  0  0
  142.4177   78.9878  223.2225 H   0  0  0  0  0  0  0  0  0  0  0  0
  139.1118   79.2784  223.1812 H   0  0  0  0  0  0  0  0  0  0  0  0
  139.0504   81.0738  223.5892 H   0  0  0  0  0  0  0  0  0  0  0  0
  139.3422   79.8330  221.0921 H   0  0  0  0  0  0  0  0  0  0  0  0
  139.3592   81.6057  221.5773 H   0  0  0  0  0  0  0  0  0  0  0  0
  141.4778   82.3393  219.1570 H   0  0  0  0  0  0  0  0  0  0  0  0
  142.2603   81.6720  216.9011 H   0  0  0  0  0  0  0  0  0  0  0  0
  142.8708   79.2787  216.4559 H   0  0  0  0  0  0  0  0  0  0  0  0
  142.6638   77.9450  221.4254 H   0  0  0  0  0  0  0  0  0  0  0  0
  140.9933   77.6053  221.0007 H   0  0  0  0  0  0  0  0  0  0  0  0
  144.4896   75.0554  218.9410 H   0  0  0  0  0  0  0  0  0  0  0  0
  144.6468   72.6768  219.6894 H   0  0  0  0  0  0  0  0  0  0  0  0
  142.9398   71.6765  221.1340 H   0  0  0  0  0  0  0  0  0  0  0  0
  141.5410   70.9800  222.3610 H   0  0  0  0  0  0  0  0  0  0  0  0
  138.8121   71.6165  223.3712 H   0  0  0  0  0  0  0  0  0  0  0  0
  139.6091   69.9711  223.1413 H   0  0  0  0  0  0  0  0  0  0  0  0
  138.9711   69.1105  225.1362 H   0  0  0  0  0  0  0  0  0  0  0  0
  139.4572   68.8519  227.5296 H   0  0  0  0  0  0  0  0  0  0  0  0
  140.8499   70.5489  228.7218 H   0  0  0  0  0  0  0  0  0  0  0  0
  141.7140   72.4735  227.4242 H   0  0  0  0  0  0  0  0  0  0  0  0
  141.2324   72.7357  225.0403 H   0  0  0  0  0  0  0  0  0  0  0  0
  140.8318   75.3829  221.1690 H   0  0  0  0  0  0  0  0  0  0  0  0
  143.0963   80.6481  222.1334 H   0  0  0  0  0  0  0  0  0  0  0  0
  142.4204   82.3057  221.9040 H   0  0  0  0  0  0  0  0  0  0  0  0
  142.5381   81.2330  224.3134 H   0  0  0  0  0  0  0  0  0  0  0  0
  141.0779   82.1774  223.7714 H   0  0  0  0  0  0  0  0  0  0  0  0
  1  2  1  0
  2  3  1  0
  3  4  1  0
  4  5  1  0
  5  6  1  0
  6  7  2  0
  7  8  1  0
  8  9  2  0
  9 10  1  0
 10 11  2  0
 11 12  1  0
 12 13  1  0
 13 14  1  0
 14 15  2  0
 15 16  1  0
 16 17  2  0
 17 18  1  0
 18 19  1  0
 19 20  2  0
 19 21  1  0
 21 22  1  0
 22 23  1  0
 23 24  2  0
 24 25  1  0
 25 26  2  0
 26 27  1  0
 27 28  2  0
 18 29  2  0
 13 30  2  0
  5 31  1  0
 31 32  1  0
 32  2  1  0
 11  6  1  0
 29 14  1  0
 30 10  1  0
 28 23  1  0
  1 33  1  0
  1 34  1  0
  1 35  1  0
  3 36  1  0
  3 37  1  0
  4 38  1  0
  4 39  1  0
  7 40  1  0
  8 41  1  0
  9 42  1  0
 12 43  1  0
 12 44  1  0
 15 45  1  0
 16 46  1  0
 17 47  1  0
 21 48  1  0
 22 49  1  0
 22 50  1  0
 24 51  1  0
 25 52  1  0
 26 53  1  0
 27 54  1  0
 28 55  1  0
 29 56  1  0
 31 57  1  0
 31 58  1  0
 32 59  1  0
 32 60  1  0
M  END
>  <smiles>  (33) 
CN1CCN(c2cccc3c2CC(c2cccc(C(=O)NCc4ccccc4)c2)=N3)CC1

>  <score_type>  (33) 
oracle

>  <origin>  (33) 
autodockgpu

>  <m_score__min__energy>  (33) 
-9.5899999999999999

>  <m_primary>  (33) 
energy

>  <rmsd>  (33) 
7.842679580695808

>  <m_score__min__rmsd>  (33) 
7.842679580695808

>  <meeko>  (33) 
{"free_energy": -9.49, "intermolecular_energy": -10.98, "internal_energy": -1.35, "cluster_size": 30, "cluster_id": 1, "rank_in_cluster": 15}

>  <energy>  (33) 
-9.43

>  <cluster_rmsd>  (33) 
0.15

>  <cluster>  (33) 
2

$$$$

     RDKit          3D

 60 64  0  0  0  0  0  0  0  0999 V2000
  135.9980   79.7450  223.2220 C   0  0  0  0  0  0  0  0  0  0  0  0
  136.0230   81.1390  223.5910 N   0  0  0  0  0  0  0  0  0  0  0  0
  136.6480   81.9650  222.6030 C   0  0  0  0  0  0  0  0  0  0  0  0
  138.1380   82.0240  222.6650 C   0  0  0  0  0  0  0  0  0  0  0  0
  138.7360   81.1870  223.6700 N   0  0  0  0  0  0  0  0  0  0  0  0
  139.9960   80.5250  223.4820 C   0  0  0  0  0  0  0  0  0  0  0  0
  141.1910   81.1720  223.7300 C   0  0  0  0  0  0  0  0  0  0  0  0
  142.4040   80.5290  223.5470 C   0  0  0  0  0  0  0  0  0  0  0  0
  142.4240   79.2070  223.1050 C   0  0  0  0  0  0  0  0  0  0  0  0
  141.2170   78.5720  222.8610 C   0  0  0  0  0  0  0  0  0  0  0  0
  140.0010   79.2170  223.0450 C   0  0  0  0  0  0  0  0  0  0  0  0
  138.9540   78.2530  222.6950 C   0  0  0  0  0  0  0  0  0  0  0  0
  139.7140   77.0200  222.3020 C   0  0  0  0  0  0  0  0  0  0  0  0
  139.0680   75.7660  221.8640 C   0  0  0  0  0  0  0  0  0  0  0  0
  137.9660   75.7840  221.0310 C   0  0  0  0  0  0  0  0  0  0  0  0
  137.4270   74.5530  220.6720 C   0  0  0  0  0  0  0  0  0  0  0  0
  137.9550   73.3640  221.1190 C   0  0  0  0  0  0  0  0  0  0  0  0
  139.0560   73.3460  221.9510 C   0  0  0  0  0  0  0  0  0  0  0  0
  139.6550   72.1130  222.4540 C   0  0  0  0  0  0  0  0  0  0  0  0
  140.4990   71.5130  221.7440 O   0  0  0  0  0  0  0  0  0  0  0  0
  139.3360   71.5460  223.7140 N   0  0  0  0  0  0  0  0  0  0  0  0
  139.9050   70.3370  224.2400 C   0  0  0  0  0  0  0  0  0  0  0  0
  140.2990   70.3870  225.6490 C   0  0  0  0  0  0  0  0  0  0  0  0
  140.7000   71.6080  226.1810 C   0  0  0  0  0  0  0  0  0  0  0  0
  141.0840   71.7520  227.4980 C   0  0  0  0  0  0  0  0  0  0  0  0
  141.0830   70.6660  228.3480 C   0  0  0  0  0  0  0  0  0  0  0  0
  140.6880   69.4600  227.8260 C   0  0  0  0  0  0  0  0  0  0  0  0
  140.3040   69.3150  226.5120 C   0  0  0  0  0  0  0  0  0  0  0  0
  139.5860   74.5670  222.3040 C   0  0  0  0  0  0  0  0  0  0  0  0
  140.9840   77.2470  222.4120 N   0  0  0  0  0  0  0  0  0  0  0  0
  138.0760   80.9720  224.9460 C   0  0  0  0  0  0  0  0  0  0  0  0
  136.6120   81.3970  224.8720 C   0  0  0  0  0  0  0  0  0  0  0  0
  135.9869   79.1253  224.1308 H   0  0  0  0  0  0  0  0  0  0  0  0
  135.0960   79.5393  222.6269 H   0  0  0  0  0  0  0  0  0  0  0  0
  136.8920   79.5071  222.6269 H   0  0  0  0  0  0  0  0  0  0  0  0
  136.3648   81.5812  221.6118 H   0  0  0  0  0  0  0  0  0  0  0  0
  136.2965   82.9888  222.7986 H   0  0  0  0  0  0  0  0  0  0  0  0
  138.5331   81.7171  221.6854 H   0  0  0  0  0  0  0  0  0  0  0  0
  138.3948   83.0594  222.9332 H   0  0  0  0  0  0  0  0  0  0  0  0
  141.1790   82.2152  224.0786 H   0  0  0  0  0  0  0  0  0  0  0  0
  143.3466   81.0587  223.7494 H   0  0  0  0  0  0  0  0  0  0  0  0
  143.3773   78.6795  222.9533 H   0  0  0  0  0  0  0  0  0  0  0  0
  138.3025   78.0524  223.5583 H   0  0  0  0  0  0  0  0  0  0  0  0
  138.2933   78.6169  221.8943 H   0  0  0  0  0  0  0  0  0  0  0  0
  137.5346   76.7286  220.6683 H   0  0  0  0  0  0  0  0  0  0  0  0
  136.5497   74.5295  220.0088 H   0  0  0  0  0  0  0  0  0  0  0  0
  137.4935   72.4148  220.8091 H   0  0  0  0  0  0  0  0  0  0  0  0
  138.6340   72.0440  224.3050 H   0  0  0  0  0  0  0  0  0  0  0  0
  139.1619   69.5343  224.1242 H   0  0  0  0  0  0  0  0  0  0  0  0
  140.8323   70.1679  223.6729 H   0  0  0  0  0  0  0  0  0  0  0  0
  140.7113   72.4922  225.5267 H   0  0  0  0  0  0  0  0  0  0  0  0
  141.3929   72.7391  227.8726 H   0  0  0  0  0  0  0  0  0  0  0  0
  141.3863   70.7626  229.4009 H   0  0  0  0  0  0  0  0  0  0  0  0
  140.6778   68.5767  228.4815 H   0  0  0  0  0  0  0  0  0  0  0  0
  139.9957   68.3248  226.1453 H   0  0  0  0  0  0  0  0  0  0  0  0
  140.4631   74.5863  222.9676 H   0  0  0  0  0  0  0  0  0  0  0  0
  138.1298   79.9044  225.2055 H   0  0  0  0  0  0  0  0  0  0  0  0
  138.5823   81.5761  225.7133 H   0  0  0  0  0  0  0  0  0  0  0  0
  136.0465   80.8443  225.6366 H   0  0  0  0  0  0  0  0  0  0  0  0
  136.5734   82.4832  225.0417 H   0  0  0  0  0  0  0  0  0  0  0  0
  1  2  1  0
  2  3  1  0
  3  4  1  0
  4  5  1  0
  5  6  1  0
  6  7  2  0
  7  8  1  0
  8  9  2  0
  9 10  1  0
 10 11  2  0
 11 12  1  0
 12 13  1  0
 13 14  1  0
 14 15  2  0
 15 16  1  0
 16 17  2  0
 17 18  1  0
 18 19  1  0
 19 20  2  0
 19 21  1  0
 21 22  1  0
 22 23  1  0
 23 24  2  0
 24 25  1  0
 25 26  2  0
 26 27  1  0
 27 28  2  0
 18 29  2  0
 13 30  2  0
  5 31  1  0
 31 32  1  0
 32  2  1  0
 11  6  1  0
 29 14  1  0
 30 10  1  0
 28 23  1  0
  1 33  1  0
  1 34  1  0
  1 35  1  0
  3 36  1  0
  3 37  1  0
  4 38  1  0
  4 39  1  0
  7 40  1  0
  8 41  1  0
  9 42  1  0
 12 43  1  0
 12 44  1  0
 15 45  1  0
 16 46  1  0
 17 47  1  0
 21 48  1  0
 22 49  1  0
 22 50  1  0
 24 51  1  0
 25 52  1  0
 26 53  1  0
 27 54  1  0
 28 55  1  0
 29 56  1  0
 31 57  1  0
 31 58  1  0
 32 59  1  0
 32 60  1  0
M  END
>  <smiles>  (34) 
CN1CCN(c2cccc3c2CC(c2cccc(C(=O)NCc4ccccc4)c2)=N3)CC1

>  <score_type>  (34) 
oracle

>  <origin>  (34) 
autodockgpu

>  <m_score__min__energy>  (34) 
-9.5899999999999999

>  <m_primary>  (34) 
energy

>  <rmsd>  (34) 
8.27094276688214

>  <m_score__min__rmsd>  (34) 
8.27094276688214

>  <meeko>  (34) 
{"free_energy": -9.1, "intermolecular_energy": -10.59, "internal_energy": -1.29, "cluster_size": 10, "cluster_id": 4, "rank_in_cluster": 10}

>  <energy>  (34) 
-9.39

>  <cluster_rmsd>  (34) 
0.82

>  <cluster>  (34) 
2

$$$$

     RDKit          3D

 60 64  0  0  0  0  0  0  0  0999 V2000
  141.5910   78.8360  223.7840 C   0  0  0  0  0  0  0  0  0  0  0  0
  140.8790   80.0860  223.8850 N   0  0  0  0  0  0  0  0  0  0  0  0
  139.6700   80.1020  223.1180 C   0  0  0  0  0  0  0  0  0  0  0  0
  139.8340   80.4270  221.6700 C   0  0  0  0  0  0  0  0  0  0  0  0
  141.1950   80.6130  221.2410 N   0  0  0  0  0  0  0  0  0  0  0  0
  141.6620   80.2160  219.9430 C   0  0  0  0  0  0  0  0  0  0  0  0
  141.8110   81.1340  218.9220 C   0  0  0  0  0  0  0  0  0  0  0  0
  142.2620   80.7460  217.6710 C   0  0  0  0  0  0  0  0  0  0  0  0
  142.5710   79.4080  217.4340 C   0  0  0  0  0  0  0  0  0  0  0  0
  142.4160   78.4990  218.4680 C   0  0  0  0  0  0  0  0  0  0  0  0
  141.9640   78.8880  219.7220 C   0  0  0  0  0  0  0  0  0  0  0  0
  141.9240   77.6800  220.5510 C   0  0  0  0  0  0  0  0  0  0  0  0
  142.3980   76.5940  219.6300 C   0  0  0  0  0  0  0  0  0  0  0  0
  142.5230   75.1780  220.0320 C   0  0  0  0  0  0  0  0  0  0  0  0
  143.5610   74.3940  219.5690 C   0  0  0  0  0  0  0  0  0  0  0  0
  143.5960   73.0730  220.0040 C   0  0  0  0  0  0  0  0  0  0  0  0
  142.6460   72.5570  220.8550 C   0  0  0  0  0  0  0  0  0  0  0  0
  141.6090   73.3410  221.3180 C   0  0  0  0  0  0  0  0  0  0  0  0
  140.5750   72.8430  222.2210 C   0  0  0  0  0  0  0  0  0  0  0  0
  139.5170   73.5040  222.3570 O   0  0  0  0  0  0  0  0  0  0  0  0
  140.6990   71.6420  222.9640 N   0  0  0  0  0  0  0  0  0  0  0  0
  139.7040   71.1230  223.8590 C   0  0  0  0  0  0  0  0  0  0  0  0
  140.1420   70.9240  225.2420 C   0  0  0  0  0  0  0  0  0  0  0  0
  139.9860   69.6640  225.8120 C   0  0  0  0  0  0  0  0  0  0  0  0
  140.3740   69.3820  227.1050 C   0  0  0  0  0  0  0  0  0  0  0  0
  140.9390   70.3620  227.8930 C   0  0  0  0  0  0  0  0  0  0  0  0
  141.0940   71.6070  227.3340 C   0  0  0  0  0  0  0  0  0  0  0  0
  140.7080   71.8890  226.0440 C   0  0  0  0  0  0  0  0  0  0  0  0
  141.5780   74.6480  220.8850 C   0  0  0  0  0  0  0  0  0  0  0  0
  142.6620   77.1020  218.4690 N   0  0  0  0  0  0  0  0  0  0  0  0
  142.1740   81.2220  222.1230 C   0  0  0  0  0  0  0  0  0  0  0  0
  141.6660   81.2390  223.5610 C   0  0  0  0  0  0  0  0  0  0  0  0
  141.8080   78.4551  224.7929 H   0  0  0  0  0  0  0  0  0  0  0  0
  140.9736   78.1052  223.2410 H   0  0  0  0  0  0  0  0  0  0  0  0
  142.5345   78.9943  223.2410 H   0  0  0  0  0  0  0  0  0  0  0  0
  139.2080   79.1065  223.1921 H   0  0  0  0  0  0  0  0  0  0  0  0
  139.0533   80.9084  223.5415 H   0  0  0  0  0  0  0  0  0  0  0  0
  139.4005   79.6034  221.0837 H   0  0  0  0  0  0  0  0  0  0  0  0
  139.3260   81.3896  221.5105 H   0  0  0  0  0  0  0  0  0  0  0  0
  141.5675   82.1909  219.1052 H   0  0  0  0  0  0  0  0  0  0  0  0
  142.3756   81.4902  216.8689 H   0  0  0  0  0  0  0  0  0  0  0  0
  142.9302   79.0806  216.4472 H   0  0  0  0  0  0  0  0  0  0  0  0
  142.5939   77.7780  221.4179 H   0  0  0  0  0  0  0  0  0  0  0  0
  140.9234   77.4807  220.9621 H   0  0  0  0  0  0  0  0  0  0  0  0
  144.3253   74.7955  218.8874 H   0  0  0  0  0  0  0  0  0  0  0  0
  144.4098   72.4197  219.6562 H   0  0  0  0  0  0  0  0  0  0  0  0
  142.7140   71.5054  221.1706 H   0  0  0  0  0  0  0  0  0  0  0  0
  141.5800   71.0920  222.8530 H   0  0  0  0  0  0  0  0  0  0  0  0
  138.8579   71.8258  223.8693 H   0  0  0  0  0  0  0  0  0  0  0  0
  139.4462   70.1241  223.4773 H   0  0  0  0  0  0  0  0  0  0  0  0
  139.5360   68.8623  225.2080 H   0  0  0  0  0  0  0  0  0  0  0  0
  140.2318   68.3692  227.5099 H   0  0  0  0  0  0  0  0  0  0  0  0
  141.2528   70.1554  228.9269 H   0  0  0  0  0  0  0  0  0  0  0  0
  141.5431   72.4078  227.9398 H   0  0  0  0  0  0  0  0  0  0  0  0
  140.8543   72.9041  225.6462 H   0  0  0  0  0  0  0  0  0  0  0  0
  140.7629   75.2983  221.2353 H   0  0  0  0  0  0  0  0  0  0  0  0
  143.1096   80.6454  222.0772 H   0  0  0  0  0  0  0  0  0  0  0  0
  142.3483   82.2580  221.7969 H   0  0  0  0  0  0  0  0  0  0  0  0
  142.5313   81.2759  224.2391 H   0  0  0  0  0  0  0  0  0  0  0  0
  141.0212   82.1230  223.6743 H   0  0  0  0  0  0  0  0  0  0  0  0
  1  2  1  0
  2  3  1  0
  3  4  1  0
  4  5  1  0
  5  6  1  0
  6  7  2  0
  7  8  1  0
  8  9  2  0
  9 10  1  0
 10 11  2  0
 11 12  1  0
 12 13  1  0
 13 14  1  0
 14 15  2  0
 15 16  1  0
 16 17  2  0
 17 18  1  0
 18 19  1  0
 19 20  2  0
 19 21  1  0
 21 22  1  0
 22 23  1  0
 23 24  2  0
 24 25  1  0
 25 26  2  0
 26 27  1  0
 27 28  2  0
 18 29  2  0
 13 30  2  0
  5 31  1  0
 31 32  1  0
 32  2  1  0
 11  6  1  0
 29 14  1  0
 30 10  1  0
 28 23  1  0
  1 33  1  0
  1 34  1  0
  1 35  1  0
  3 36  1  0
  3 37  1  0
  4 38  1  0
  4 39  1  0
  7 40  1  0
  8 41  1  0
  9 42  1  0
 12 43  1  0
 12 44  1  0
 15 45  1  0
 16 46  1  0
 17 47  1  0
 21 48  1  0
 22 49  1  0
 22 50  1  0
 24 51  1  0
 25 52  1  0
 26 53  1  0
 27 54  1  0
 28 55  1  0
 29 56  1  0
 31 57  1  0
 31 58  1  0
 32 59  1  0
 32 60  1  0
M  END
>  <smiles>  (35) 
CN1CCN(c2cccc3c2CC(c2cccc(C(=O)NCc4ccccc4)c2)=N3)CC1

>  <score_type>  (35) 
oracle

>  <origin>  (35) 
autodockgpu

>  <m_score__min__energy>  (35) 
-9.5899999999999999

>  <m_primary>  (35) 
energy

>  <rmsd>  (35) 
7.731954698165152

>  <m_score__min__rmsd>  (35) 
7.731954698165152

>  <meeko>  (35) 
{"free_energy": -9.59, "intermolecular_energy": -11.08, "internal_energy": -1.31, "cluster_size": 30, "cluster_id": 1, "rank_in_cluster": 1}

>  <energy>  (35) 
-9.33

>  <cluster_rmsd>  (35) 
0.96

>  <cluster>  (35) 
2

$$$$

     RDKit          3D

 60 64  0  0  0  0  0  0  0  0999 V2000
  141.5230   78.8490  223.7320 C   0  0  0  0  0  0  0  0  0  0  0  0
  140.8280   80.1080  223.8440 N   0  0  0  0  0  0  0  0  0  0  0  0
  139.6240   80.1500  223.0710 C   0  0  0  0  0  0  0  0  0  0  0  0
  139.8000   80.4880  221.6280 C   0  0  0  0  0  0  0  0  0  0  0  0
  141.1650   80.6580  221.2080 N   0  0  0  0  0  0  0  0  0  0  0  0
  141.6320   80.2690  219.9070 C   0  0  0  0  0  0  0  0  0  0  0  0
  141.7530   81.1870  218.8830 C   0  0  0  0  0  0  0  0  0  0  0  0
  142.2040   80.8060  217.6300 C   0  0  0  0  0  0  0  0  0  0  0  0
  142.5440   79.4740  217.3950 C   0  0  0  0  0  0  0  0  0  0  0  0
  142.4180   78.5660  218.4320 C   0  0  0  0  0  0  0  0  0  0  0  0
  141.9650   78.9480  219.6880 C   0  0  0  0  0  0  0  0  0  0  0  0
  141.9600   77.7420  220.5210 C   0  0  0  0  0  0  0  0  0  0  0  0
  142.4530   76.6650  219.6000 C   0  0  0  0  0  0  0  0  0  0  0  0
  142.6150   75.2540  220.0060 C   0  0  0  0  0  0  0  0  0  0  0  0
  143.7000   74.5100  219.5840 C   0  0  0  0  0  0  0  0  0  0  0  0
  143.7670   73.1900  220.0190 C   0  0  0  0  0  0  0  0  0  0  0  0
  142.8040   72.6370  220.8310 C   0  0  0  0  0  0  0  0  0  0  0  0
  141.7200   73.3810  221.2530 C   0  0  0  0  0  0  0  0  0  0  0  0
  140.6710   72.8430  222.1140 C   0  0  0  0  0  0  0  0  0  0  0  0
  139.7310   73.5950  222.4700 O   0  0  0  0  0  0  0  0  0  0  0  0
  140.6510   71.5030  222.5780 N   0  0  0  0  0  0  0  0  0  0  0  0
  139.6360   70.9400  223.4230 C   0  0  0  0  0  0  0  0  0  0  0  0
  139.9730   70.8630  224.8460 C   0  0  0  0  0  0  0  0  0  0  0  0
  140.7630   71.8690  225.3950 C   0  0  0  0  0  0  0  0  0  0  0  0
  141.1270   71.8830  226.7250 C   0  0  0  0  0  0  0  0  0  0  0  0
  140.7110   70.8780  227.5730 C   0  0  0  0  0  0  0  0  0  0  0  0
  139.9310   69.8840  227.0340 C   0  0  0  0  0  0  0  0  0  0  0  0
  139.5670   69.8690  225.7070 C   0  0  0  0  0  0  0  0  0  0  0  0
  141.6580   74.6860  220.8200 C   0  0  0  0  0  0  0  0  0  0  0  0
  142.6980   77.1760  218.4350 N   0  0  0  0  0  0  0  0  0  0  0  0
  142.1490   81.2440  222.1000 C   0  0  0  0  0  0  0  0  0  0  0  0
  141.6340   81.2530  223.5360 C   0  0  0  0  0  0  0  0  0  0  0  0
  141.7386   78.4585  224.7375 H   0  0  0  0  0  0  0  0  0  0  0  0
  140.8939   78.1302  223.1865 H   0  0  0  0  0  0  0  0  0  0  0  0
  142.4665   78.9983  223.1865 H   0  0  0  0  0  0  0  0  0  0  0  0
  139.1472   79.1606  223.1319 H   0  0  0  0  0  0  0  0  0  0  0  0
  139.0171   80.9610  223.4999 H   0  0  0  0  0  0  0  0  0  0  0  0
  139.3571   79.6774  221.0307 H   0  0  0  0  0  0  0  0  0  0  0  0
  139.3073   81.4597  221.4765 H   0  0  0  0  0  0  0  0  0  0  0  0
  141.4868   82.2386  219.0652 H   0  0  0  0  0  0  0  0  0  0  0  0
  142.2935   81.5499  216.8247 H   0  0  0  0  0  0  0  0  0  0  0  0
  142.9045   79.1520  216.4069 H   0  0  0  0  0  0  0  0  0  0  0  0
  142.6338   77.8587  221.3826 H   0  0  0  0  0  0  0  0  0  0  0  0
  140.9675   77.5201  220.9401 H   0  0  0  0  0  0  0  0  0  0  0  0
  144.4754   74.9414  218.9339 H   0  0  0  0  0  0  0  0  0  0  0  0
  144.6178   72.5683  219.7033 H   0  0  0  0  0  0  0  0  0  0  0  0
  142.8988   71.5880  221.1483 H   0  0  0  0  0  0  0  0  0  0  0  0
  141.4330   70.8770  222.2830 H   0  0  0  0  0  0  0  0  0  0  0  0
  138.7304   71.5562  223.3219 H   0  0  0  0  0  0  0  0  0  0  0  0
  139.5045   69.9010  223.0867 H   0  0  0  0  0  0  0  0  0  0  0  0
  141.1102   72.6840  224.7430 H   0  0  0  0  0  0  0  0  0  0  0  0
  141.7529   72.7006  227.1119 H   0  0  0  0  0  0  0  0  0  0  0  0
  140.9921   70.8726  228.6365 H   0  0  0  0  0  0  0  0  0  0  0  0
  139.5845   69.0698  227.6874 H   0  0  0  0  0  0  0  0  0  0  0  0
  138.9406   69.0482  225.3278 H   0  0  0  0  0  0  0  0  0  0  0  0
  140.8056   75.3043  221.1380 H   0  0  0  0  0  0  0  0  0  0  0  0
  143.0766   80.6546  222.0523 H   0  0  0  0  0  0  0  0  0  0  0  0
  142.3402   82.2805  221.7853 H   0  0  0  0  0  0  0  0  0  0  0  0
  142.4964   81.2697  224.2186 H   0  0  0  0  0  0  0  0  0  0  0  0
  141.0017   82.1451  223.6557 H   0  0  0  0  0  0  0  0  0  0  0  0
  1  2  1  0
  2  3  1  0
  3  4  1  0
  4  5  1  0
  5  6  1  0
  6  7  2  0
  7  8  1  0
  8  9  2  0
  9 10  1  0
 10 11  2  0
 11 12  1  0
 12 13  1  0
 13 14  1  0
 14 15  2  0
 15 16  1  0
 16 17  2  0
 17 18  1  0
 18 19  1  0
 19 20  2  0
 19 21  1  0
 21 22  1  0
 22 23  1  0
 23 24  2  0
 24 25  1  0
 25 26  2  0
 26 27  1  0
 27 28  2  0
 18 29  2  0
 13 30  2  0
  5 31  1  0
 31 32  1  0
 32  2  1  0
 11  6  1  0
 29 14  1  0
 30 10  1  0
 28 23  1  0
  1 33  1  0
  1 34  1  0
  1 35  1  0
  3 36  1  0
  3 37  1  0
  4 38  1  0
  4 39  1  0
  7 40  1  0
  8 41  1  0
  9 42  1  0
 12 43  1  0
 12 44  1  0
 15 45  1  0
 16 46  1  0
 17 47  1  0
 21 48  1  0
 22 49  1  0
 22 50  1  0
 24 51  1  0
 25 52  1  0
 26 53  1  0
 27 54  1  0
 28 55  1  0
 29 56  1  0
 31 57  1  0
 31 58  1  0
 32 59  1  0
 32 60  1  0
M  END
>  <smiles>  (36) 
CN1CCN(c2cccc3c2CC(c2cccc(C(=O)NCc4ccccc4)c2)=N3)CC1

>  <score_type>  (36) 
oracle

>  <origin>  (36) 
autodockgpu

>  <m_score__min__energy>  (36) 
-9.5899999999999999

>  <m_primary>  (36) 
energy

>  <rmsd>  (36) 
7.776605262080458

>  <m_score__min__rmsd>  (36) 
7.776605262080458

>  <meeko>  (36) 
{"free_energy": -9.49, "intermolecular_energy": -10.98, "internal_energy": -1.37, "cluster_size": 30, "cluster_id": 1, "rank_in_cluster": 17}

>  <energy>  (36) 
-9.28

>  <cluster_rmsd>  (36) 
0.31

>  <cluster>  (36) 
2

$$$$

     RDKit          3D

 60 64  0  0  0  0  0  0  0  0999 V2000
  141.6030   78.8430  223.7480 C   0  0  0  0  0  0  0  0  0  0  0  0
  140.8840   80.0890  223.8470 N   0  0  0  0  0  0  0  0  0  0  0  0
  139.6720   80.0950  223.0850 C   0  0  0  0  0  0  0  0  0  0  0  0
  139.8270   80.4150  221.6350 C   0  0  0  0  0  0  0  0  0  0  0  0
  141.1850   80.6060  221.1990 N   0  0  0  0  0  0  0  0  0  0  0  0
  141.6480   80.2060  219.9000 C   0  0  0  0  0  0  0  0  0  0  0  0
  141.7910   81.1210  218.8760 C   0  0  0  0  0  0  0  0  0  0  0  0
  142.2380   80.7300  217.6250 C   0  0  0  0  0  0  0  0  0  0  0  0
  142.5500   79.3920  217.3910 C   0  0  0  0  0  0  0  0  0  0  0  0
  142.4020   78.4860  218.4290 C   0  0  0  0  0  0  0  0  0  0  0  0
  141.9540   78.8780  219.6830 C   0  0  0  0  0  0  0  0  0  0  0  0
  141.9220   77.6730  220.5170 C   0  0  0  0  0  0  0  0  0  0  0  0
  142.3960   76.5860  219.5980 C   0  0  0  0  0  0  0  0  0  0  0  0
  142.5280   75.1720  220.0050 C   0  0  0  0  0  0  0  0  0  0  0  0
  143.5670   74.3900  219.5420 C   0  0  0  0  0  0  0  0  0  0  0  0
  143.6080   73.0710  219.9810 C   0  0  0  0  0  0  0  0  0  0  0  0
  142.6630   72.5540  220.8370 C   0  0  0  0  0  0  0  0  0  0  0  0
  141.6240   73.3360  221.3000 C   0  0  0  0  0  0  0  0  0  0  0  0
  140.5950   72.8370  222.2080 C   0  0  0  0  0  0  0  0  0  0  0  0
  139.5320   73.4920  222.3410 O   0  0  0  0  0  0  0  0  0  0  0  0
  140.7280   71.6420  222.9590 N   0  0  0  0  0  0  0  0  0  0  0  0
  139.7380   71.1220  223.8600 C   0  0  0  0  0  0  0  0  0  0  0  0
  140.1830   70.9230  225.2400 C   0  0  0  0  0  0  0  0  0  0  0  0
  140.0160   69.6670  225.8150 C   0  0  0  0  0  0  0  0  0  0  0  0
  140.4080   69.3850  227.1070 C   0  0  0  0  0  0  0  0  0  0  0  0
  140.9920   70.3610  227.8870 C   0  0  0  0  0  0  0  0  0  0  0  0
  141.1580   71.6010  227.3230 C   0  0  0  0  0  0  0  0  0  0  0  0
  140.7670   71.8840  226.0340 C   0  0  0  0  0  0  0  0  0  0  0  0
  141.5880   74.6400  220.8620 C   0  0  0  0  0  0  0  0  0  0  0  0
  142.6540   77.0910  218.4340 N   0  0  0  0  0  0  0  0  0  0  0  0
  142.1650   81.2250  222.0740 C   0  0  0  0  0  0  0  0  0  0  0  0
  141.6630   81.2450  223.5140 C   0  0  0  0  0  0  0  0  0  0  0  0
  141.8214   78.4645  224.7575 H   0  0  0  0  0  0  0  0  0  0  0  0
  140.9901   78.1081  223.2055 H   0  0  0  0  0  0  0  0  0  0  0  0
  142.5460   79.0059  223.2055 H   0  0  0  0  0  0  0  0  0  0  0  0
  139.2162   79.0971  223.1652 H   0  0  0  0  0  0  0  0  0  0  0  0
  139.0530   80.9000  223.5078 H   0  0  0  0  0  0  0  0  0  0  0  0
  139.3948   79.5869  221.0541 H   0  0  0  0  0  0  0  0  0  0  0  0
  139.3132   81.3742  221.4739 H   0  0  0  0  0  0  0  0  0  0  0  0
  141.5458   82.1780  219.0569 H   0  0  0  0  0  0  0  0  0  0  0  0
  142.3463   81.4718  216.8200 H   0  0  0  0  0  0  0  0  0  0  0  0
  142.9060   79.0623  216.4038 H   0  0  0  0  0  0  0  0  0  0  0  0
  142.5953   77.7767  221.3807 H   0  0  0  0  0  0  0  0  0  0  0  0
  140.9240   77.4715  220.9335 H   0  0  0  0  0  0  0  0  0  0  0  0
  144.3280   74.7919  218.8569 H   0  0  0  0  0  0  0  0  0  0  0  0
  144.4229   72.4195  219.6323 H   0  0  0  0  0  0  0  0  0  0  0  0
  142.7364   71.5040  221.1565 H   0  0  0  0  0  0  0  0  0  0  0  0
  141.6120   71.0970  222.8500 H   0  0  0  0  0  0  0  0  0  0  0  0
  138.8915   71.8243  223.8750 H   0  0  0  0  0  0  0  0  0  0  0  0
  139.4793   70.1228  223.4796 H   0  0  0  0  0  0  0  0  0  0  0  0
  139.5537   68.8684  225.2163 H   0  0  0  0  0  0  0  0  0  0  0  0
  140.2540   68.3762  227.5175 H   0  0  0  0  0  0  0  0  0  0  0  0
  141.3117   70.1540  228.9190 H   0  0  0  0  0  0  0  0  0  0  0  0
  141.6207   72.3983  227.9233 H   0  0  0  0  0  0  0  0  0  0  0  0
  140.9239   72.8956  225.6314 H   0  0  0  0  0  0  0  0  0  0  0  0
  140.7711   75.2883  221.2119 H   0  0  0  0  0  0  0  0  0  0  0  0
  143.1038   80.6538  222.0265 H   0  0  0  0  0  0  0  0  0  0  0  0
  142.3321   82.2605  221.7425 H   0  0  0  0  0  0  0  0  0  0  0  0
  142.5310   81.2899  224.1882 H   0  0  0  0  0  0  0  0  0  0  0  0
  141.0132   82.1255  223.6259 H   0  0  0  0  0  0  0  0  0  0  0  0
  1  2  1  0
  2  3  1  0
  3  4  1  0
  4  5  1  0
  5  6  1  0
  6  7  2  0
  7  8  1  0
  8  9  2  0
  9 10  1  0
 10 11  2  0
 11 12  1  0
 12 13  1  0
 13 14  1  0
 14 15  2  0
 15 16  1  0
 16 17  2  0
 17 18  1  0
 18 19  1  0
 19 20  2  0
 19 21  1  0
 21 22  1  0
 22 23  1  0
 23 24  2  0
 24 25  1  0
 25 26  2  0
 26 27  1  0
 27 28  2  0
 18 29  2  0
 13 30  2  0
  5 31  1  0
 31 32  1  0
 32  2  1  0
 11  6  1  0
 29 14  1  0
 30 10  1  0
 28 23  1  0
  1 33  1  0
  1 34  1  0
  1 35  1  0
  3 36  1  0
  3 37  1  0
  4 38  1  0
  4 39  1  0
  7 40  1  0
  8 41  1  0
  9 42  1  0
 12 43  1  0
 12 44  1  0
 15 45  1  0
 16 46  1  0
 17 47  1  0
 21 48  1  0
 22 49  1  0
 22 50  1  0
 24 51  1  0
 25 52  1  0
 26 53  1  0
 27 54  1  0
 28 55  1  0
 29 56  1  0
 31 57  1  0
 31 58  1  0
 32 59  1  0
 32 60  1  0
M  END
>  <smiles>  (37) 
CN1CCN(c2cccc3c2CC(c2cccc(C(=O)NCc4ccccc4)c2)=N3)CC1

>  <score_type>  (37) 
oracle

>  <origin>  (37) 
autodockgpu

>  <m_score__min__energy>  (37) 
-9.5899999999999999

>  <m_primary>  (37) 
energy

>  <rmsd>  (37) 
7.729337961863815

>  <m_score__min__rmsd>  (37) 
7.729337961863815

>  <meeko>  (37) 
{"free_energy": -9.58, "intermolecular_energy": -11.07, "internal_energy": -1.31, "cluster_size": 30, "cluster_id": 1, "rank_in_cluster": 5}

>  <energy>  (37) 
-9.21

>  <cluster_rmsd>  (37) 
0.0

>  <cluster>  (37) 
3

$$$$

     RDKit          3D

 60 64  0  0  0  0  0  0  0  0999 V2000
  141.8110   78.7910  223.8410 C   0  0  0  0  0  0  0  0  0  0  0  0
  141.0230   79.9960  223.9280 N   0  0  0  0  0  0  0  0  0  0  0  0
  139.7970   79.9150  223.1940 C   0  0  0  0  0  0  0  0  0  0  0  0
  139.9040   80.2100  221.7340 C   0  0  0  0  0  0  0  0  0  0  0  0
  141.2380   80.4680  221.2650 N   0  0  0  0  0  0  0  0  0  0  0  0
  141.6970   80.0660  219.9650 C   0  0  0  0  0  0  0  0  0  0  0  0
  141.8580   80.9820  218.9450 C   0  0  0  0  0  0  0  0  0  0  0  0
  142.3000   80.5890  217.6920 C   0  0  0  0  0  0  0  0  0  0  0  0
  142.5880   79.2460  217.4530 C   0  0  0  0  0  0  0  0  0  0  0  0
  142.4220   78.3390  218.4860 C   0  0  0  0  0  0  0  0  0  0  0  0
  141.9790   78.7340  219.7420 C   0  0  0  0  0  0  0  0  0  0  0  0
  141.9220   77.5260  220.5700 C   0  0  0  0  0  0  0  0  0  0  0  0
  142.3770   76.4340  219.6470 C   0  0  0  0  0  0  0  0  0  0  0  0
  142.4820   75.0160  220.0480 C   0  0  0  0  0  0  0  0  0  0  0  0
  143.4960   74.2110  219.5660 C   0  0  0  0  0  0  0  0  0  0  0  0
  143.5120   72.8900  220.0010 C   0  0  0  0  0  0  0  0  0  0  0  0
  142.5690   72.3930  220.8690 C   0  0  0  0  0  0  0  0  0  0  0  0
  141.5560   73.1970  221.3510 C   0  0  0  0  0  0  0  0  0  0  0  0
  140.5300   72.7200  222.2740 C   0  0  0  0  0  0  0  0  0  0  0  0
  139.4570   73.3640  222.3760 O   0  0  0  0  0  0  0  0  0  0  0  0
  140.6760   71.5580  223.0720 N   0  0  0  0  0  0  0  0  0  0  0  0
  139.6890   71.0590  223.9880 C   0  0  0  0  0  0  0  0  0  0  0  0
  140.1490   70.8580  225.3630 C   0  0  0  0  0  0  0  0  0  0  0  0
  140.9480   71.8380  225.9440 C   0  0  0  0  0  0  0  0  0  0  0  0
  141.4250   71.7380  227.2350 C   0  0  0  0  0  0  0  0  0  0  0  0
  141.1190   70.6370  228.0070 C   0  0  0  0  0  0  0  0  0  0  0  0
  140.3310   69.6680  227.4370 C   0  0  0  0  0  0  0  0  0  0  0  0
  139.8540   69.7680  226.1500 C   0  0  0  0  0  0  0  0  0  0  0  0
  141.5430   74.5040  220.9180 C   0  0  0  0  0  0  0  0  0  0  0  0
  142.6470   76.9390  218.4860 N   0  0  0  0  0  0  0  0  0  0  0  0
  142.1990   81.1620  222.1030 C   0  0  0  0  0  0  0  0  0  0  0  0
  141.7280   81.1870  223.5540 C   0  0  0  0  0  0  0  0  0  0  0  0
  142.0455   78.4323  224.8541 H   0  0  0  0  0  0  0  0  0  0  0  0
  141.2425   78.0193  223.3013 H   0  0  0  0  0  0  0  0  0  0  0  0
  142.7459   79.0024  223.3013 H   0  0  0  0  0  0  0  0  0  0  0  0
  139.4011   78.8948  223.3060 H   0  0  0  0  0  0  0  0  0  0  0  0
  139.1409   80.6922  223.6130 H   0  0  0  0  0  0  0  0  0  0  0  0
  139.5085   79.3454  221.1808 H   0  0  0  0  0  0  0  0  0  0  0  0
  139.3327   81.1344  221.5633 H   0  0  0  0  0  0  0  0  0  0  0  0
  141.6315   82.0424  219.1301 H   0  0  0  0  0  0  0  0  0  0  0  0
  142.4230   81.3323  216.8905 H   0  0  0  0  0  0  0  0  0  0  0  0
  142.9396   78.9140  216.4650 H   0  0  0  0  0  0  0  0  0  0  0  0
  142.5953   77.6127  221.4356 H   0  0  0  0  0  0  0  0  0  0  0  0
  140.9193   77.3419  220.9832 H   0  0  0  0  0  0  0  0  0  0  0  0
  144.2556   74.5969  218.8703 H   0  0  0  0  0  0  0  0  0  0  0  0
  144.3059   72.2205  219.6383 H   0  0  0  0  0  0  0  0  0  0  0  0
  142.6225   71.3403  221.1837 H   0  0  0  0  0  0  0  0  0  0  0  0
  141.5690   71.0220  222.9890 H   0  0  0  0  0  0  0  0  0  0  0  0
  138.8551   71.7760  224.0112 H   0  0  0  0  0  0  0  0  0  0  0  0
  139.4077   70.0630  223.6153 H   0  0  0  0  0  0  0  0  0  0  0  0
  141.2095   72.7269  225.3512 H   0  0  0  0  0  0  0  0  0  0  0  0
  142.0524   72.5404  227.6504 H   0  0  0  0  0  0  0  0  0  0  0  0
  141.4911   70.5392  229.0375 H   0  0  0  0  0  0  0  0  0  0  0  0
  140.0714   68.7791  228.0307 H   0  0  0  0  0  0  0  0  0  0  0  0
  139.2256   68.9622  225.7428 H   0  0  0  0  0  0  0  0  0  0  0  0
  140.7472   75.1700  221.2828 H   0  0  0  0  0  0  0  0  0  0  0  0
  143.1680   80.6444  222.0465 H   0  0  0  0  0  0  0  0  0  0  0  0
  142.2987   82.1973  221.7450 H   0  0  0  0  0  0  0  0  0  0  0  0
  142.6064   81.2956  224.2072 H   0  0  0  0  0  0  0  0  0  0  0  0
  141.0327   82.0324  223.6628 H   0  0  0  0  0  0  0  0  0  0  0  0
  1  2  1  0
  2  3  1  0
  3  4  1  0
  4  5  1  0
  5  6  1  0
  6  7  2  0
  7  8  1  0
  8  9  2  0
  9 10  1  0
 10 11  2  0
 11 12  1  0
 12 13  1  0
 13 14  1  0
 14 15  2  0
 15 16  1  0
 16 17  2  0
 17 18  1  0
 18 19  1  0
 19 20  2  0
 19 21  1  0
 21 22  1  0
 22 23  1  0
 23 24  2  0
 24 25  1  0
 25 26  2  0
 26 27  1  0
 27 28  2  0
 18 29  2  0
 13 30  2  0
  5 31  1  0
 31 32  1  0
 32  2  1  0
 11  6  1  0
 29 14  1  0
 30 10  1  0
 28 23  1  0
  1 33  1  0
  1 34  1  0
  1 35  1  0
  3 36  1  0
  3 37  1  0
  4 38  1  0
  4 39  1  0
  7 40  1  0
  8 41  1  0
  9 42  1  0
 12 43  1  0
 12 44  1  0
 15 45  1  0
 16 46  1  0
 17 47  1  0
 21 48  1  0
 22 49  1  0
 22 50  1  0
 24 51  1  0
 25 52  1  0
 26 53  1  0
 27 54  1  0
 28 55  1  0
 29 56  1  0
 31 57  1  0
 31 58  1  0
 32 59  1  0
 32 60  1  0
M  END
>  <smiles>  (38) 
CN1CCN(c2cccc3c2CC(c2cccc(C(=O)NCc4ccccc4)c2)=N3)CC1

>  <score_type>  (38) 
oracle

>  <origin>  (38) 
autodockgpu

>  <m_score__min__energy>  (38) 
-9.5899999999999999

>  <m_primary>  (38) 
energy

>  <rmsd>  (38) 
7.643946787218501

>  <m_score__min__rmsd>  (38) 
7.643946787218501

>  <meeko>  (38) 
{"free_energy": -9.48, "intermolecular_energy": -10.97, "internal_energy": -1.32, "cluster_size": 30, "cluster_id": 1, "rank_in_cluster": 20}

>  <energy>  (38) 
-8.95

>  <cluster_rmsd>  (38) 
0.94

>  <cluster>  (38) 
3

$$$$

     RDKit          3D

 60 64  0  0  0  0  0  0  0  0999 V2000
  141.4840   78.8510  223.7160 C   0  0  0  0  0  0  0  0  0  0  0  0
  140.8390   80.1360  223.8360 N   0  0  0  0  0  0  0  0  0  0  0  0
  139.6420   80.2330  223.0580 C   0  0  0  0  0  0  0  0  0  0  0  0
  139.8390   80.5790  221.6190 C   0  0  0  0  0  0  0  0  0  0  0  0
  141.2120   80.7000  221.2080 N   0  0  0  0  0  0  0  0  0  0  0  0
  141.6710   80.3050  219.9060 C   0  0  0  0  0  0  0  0  0  0  0  0
  141.8060   81.2240  218.8840 C   0  0  0  0  0  0  0  0  0  0  0  0
  142.2490   80.8380  217.6290 C   0  0  0  0  0  0  0  0  0  0  0  0
  142.5650   79.5010  217.3900 C   0  0  0  0  0  0  0  0  0  0  0  0
  142.4250   78.5930  218.4260 C   0  0  0  0  0  0  0  0  0  0  0  0
  141.9810   78.9790  219.6830 C   0  0  0  0  0  0  0  0  0  0  0  0
  141.9550   77.7710  220.5130 C   0  0  0  0  0  0  0  0  0  0  0  0
  142.4290   76.6880  219.5890 C   0  0  0  0  0  0  0  0  0  0  0  0
  142.5670   75.2730  219.9910 C   0  0  0  0  0  0  0  0  0  0  0  0
  143.6220   74.5030  219.5420 C   0  0  0  0  0  0  0  0  0  0  0  0
  143.6680   73.1830  219.9760 C   0  0  0  0  0  0  0  0  0  0  0  0
  142.7130   72.6530  220.8110 C   0  0  0  0  0  0  0  0  0  0  0  0
  141.6580   73.4220  221.2600 C   0  0  0  0  0  0  0  0  0  0  0  0
  140.6180   72.9090  222.1470 C   0  0  0  0  0  0  0  0  0  0  0  0
  139.5940   73.6070  222.3510 O   0  0  0  0  0  0  0  0  0  0  0  0
  140.6960   71.6530  222.8000 N   0  0  0  0  0  0  0  0  0  0  0  0
  139.6940   71.1170  223.6770 C   0  0  0  0  0  0  0  0  0  0  0  0
  140.0780   71.0140  225.0850 C   0  0  0  0  0  0  0  0  0  0  0  0
  139.5780   69.9520  225.8320 C   0  0  0  0  0  0  0  0  0  0  0  0
  139.8880   69.7710  227.1640 C   0  0  0  0  0  0  0  0  0  0  0  0
  140.7220   70.6570  227.8130 C   0  0  0  0  0  0  0  0  0  0  0  0
  141.2170   71.7070  227.0790 C   0  0  0  0  0  0  0  0  0  0  0  0
  140.9080   71.8880  225.7500 C   0  0  0  0  0  0  0  0  0  0  0  0
  141.6170   74.7290  220.8280 C   0  0  0  0  0  0  0  0  0  0  0  0
  142.6810   77.1970  218.4250 N   0  0  0  0  0  0  0  0  0  0  0  0
  142.2140   81.2370  222.1120 C   0  0  0  0  0  0  0  0  0  0  0  0
  141.6920   81.2510  223.5450 C   0  0  0  0  0  0  0  0  0  0  0  0
  141.6866   78.4473  224.7190 H   0  0  0  0  0  0  0  0  0  0  0  0
  140.8259   78.1601  223.1688 H   0  0  0  0  0  0  0  0  0  0  0  0
  142.4313   78.9659  223.1688 H   0  0  0  0  0  0  0  0  0  0  0  0
  139.1266   79.2624  223.1060 H   0  0  0  0  0  0  0  0  0  0  0  0
  139.0648   81.0624  223.4926 H   0  0  0  0  0  0  0  0  0  0  0  0
  139.3683   79.7925  221.0109 H   0  0  0  0  0  0  0  0  0  0  0  0
  139.3852   81.5707  221.4751 H   0  0  0  0  0  0  0  0  0  0  0  0
  141.5578   82.2795  219.0692 H   0  0  0  0  0  0  0  0  0  0  0  0
  142.3508   81.5823  216.8255 H   0  0  0  0  0  0  0  0  0  0  0  0
  142.9177   79.1749  216.4004 H   0  0  0  0  0  0  0  0  0  0  0  0
  142.6308   77.8737  221.3748 H   0  0  0  0  0  0  0  0  0  0  0  0
  140.9588   77.5654  220.9318 H   0  0  0  0  0  0  0  0  0  0  0  0
  144.3906   74.9152  218.8717 H   0  0  0  0  0  0  0  0  0  0  0  0
  144.4960   72.5414  219.6401 H   0  0  0  0  0  0  0  0  0  0  0  0
  142.7906   71.6018  221.1257 H   0  0  0  0  0  0  0  0  0  0  0  0
  141.5480   71.0720  222.6310 H   0  0  0  0  0  0  0  0  0  0  0  0
  138.8073   71.7649  223.6143 H   0  0  0  0  0  0  0  0  0  0  0  0
  139.5156   70.0862  223.3369 H   0  0  0  0  0  0  0  0  0  0  0  0
  138.9098   69.2289  225.3416 H   0  0  0  0  0  0  0  0  0  0  0  0
  139.4674   68.9148  227.7117 H   0  0  0  0  0  0  0  0  0  0  0  0
  140.9801   70.5281  228.8745 H   0  0  0  0  0  0  0  0  0  0  0  0
  141.8846   72.4296  227.5711 H   0  0  0  0  0  0  0  0  0  0  0  0
  141.3321   72.7469  225.2093 H   0  0  0  0  0  0  0  0  0  0  0  0
  140.7881   75.3679  221.1665 H   0  0  0  0  0  0  0  0  0  0  0  0
  143.1177   80.6118  222.0626 H   0  0  0  0  0  0  0  0  0  0  0  0
  142.4479   82.2685  221.8097 H   0  0  0  0  0  0  0  0  0  0  0  0
  142.5506   81.2255  224.2322 H   0  0  0  0  0  0  0  0  0  0  0  0
  141.0955   82.1665  223.6715 H   0  0  0  0  0  0  0  0  0  0  0  0
  1  2  1  0
  2  3  1  0
  3  4  1  0
  4  5  1  0
  5  6  1  0
  6  7  2  0
  7  8  1  0
  8  9  2  0
  9 10  1  0
 10 11  2  0
 11 12  1  0
 12 13  1  0
 13 14  1  0
 14 15  2  0
 15 16  1  0
 16 17  2  0
 17 18  1  0
 18 19  1  0
 19 20  2  0
 19 21  1  0
 21 22  1  0
 22 23  1  0
 23 24  2  0
 24 25  1  0
 25 26  2  0
 26 27  1  0
 27 28  2  0
 18 29  2  0
 13 30  2  0
  5 31  1  0
 31 32  1  0
 32  2  1  0
 11  6  1  0
 29 14  1  0
 30 10  1  0
 28 23  1  0
  1 33  1  0
  1 34  1  0
  1 35  1  0
  3 36  1  0
  3 37  1  0
  4 38  1  0
  4 39  1  0
  7 40  1  0
  8 41  1  0
  9 42  1  0
 12 43  1  0
 12 44  1  0
 15 45  1  0
 16 46  1  0
 17 47  1  0
 21 48  1  0
 22 49  1  0
 22 50  1  0
 24 51  1  0
 25 52  1  0
 26 53  1  0
 27 54  1  0
 28 55  1  0
 29 56  1  0
 31 57  1  0
 31 58  1  0
 32 59  1  0
 32 60  1  0
M  END
>  <smiles>  (39) 
CN1CCN(c2cccc3c2CC(c2cccc(C(=O)NCc4ccccc4)c2)=N3)CC1

>  <score_type>  (39) 
oracle

>  <origin>  (39) 
autodockgpu

>  <m_score__min__energy>  (39) 
-9.5899999999999999

>  <m_primary>  (39) 
energy

>  <rmsd>  (39) 
7.798336224315393

>  <m_score__min__rmsd>  (39) 
7.798336224315393

>  <meeko>  (39) 
{"free_energy": -9.59, "intermolecular_energy": -11.08, "internal_energy": -1.33, "cluster_size": 30, "cluster_id": 1, "rank_in_cluster": 2}

>  <energy>  (39) 
-8.94

>  <cluster_rmsd>  (39) 
1.36

>  <cluster>  (39) 
3

$$$$

     RDKit          3D

 60 64  0  0  0  0  0  0  0  0999 V2000
  141.7940   78.6030  223.7280 C   0  0  0  0  0  0  0  0  0  0  0  0
  140.8390   79.6830  223.7990 N   0  0  0  0  0  0  0  0  0  0  0  0
  139.6400   79.4150  223.0650 C   0  0  0  0  0  0  0  0  0  0  0  0
  139.7060   79.7020  221.6010 C   0  0  0  0  0  0  0  0  0  0  0  0
  140.9900   80.1450  221.1290 N   0  0  0  0  0  0  0  0  0  0  0  0
  141.5050   79.7960  219.8340 C   0  0  0  0  0  0  0  0  0  0  0  0
  141.5100   80.7050  218.7950 C   0  0  0  0  0  0  0  0  0  0  0  0
  142.0070   80.3630  217.5480 C   0  0  0  0  0  0  0  0  0  0  0  0
  142.5130   79.0810  217.3350 C   0  0  0  0  0  0  0  0  0  0  0  0
  142.5010   78.1820  218.3880 C   0  0  0  0  0  0  0  0  0  0  0  0
  142.0030   78.5250  219.6370 C   0  0  0  0  0  0  0  0  0  0  0  0
  142.1490   77.3420  220.4910 C   0  0  0  0  0  0  0  0  0  0  0  0
  142.7760   76.3210  219.5880 C   0  0  0  0  0  0  0  0  0  0  0  0
  143.1150   74.9480  220.0170 C   0  0  0  0  0  0  0  0  0  0  0  0
  144.4040   74.4630  219.9060 C   0  0  0  0  0  0  0  0  0  0  0  0
  144.6260   73.1600  220.3370 C   0  0  0  0  0  0  0  0  0  0  0  0
  143.6190   72.3770  220.8520 C   0  0  0  0  0  0  0  0  0  0  0  0
  142.3320   72.8620  220.9630 C   0  0  0  0  0  0  0  0  0  0  0  0
  141.2270   72.0730  221.5020 C   0  0  0  0  0  0  0  0  0  0  0  0
  140.7150   71.1770  220.7870 O   0  0  0  0  0  0  0  0  0  0  0  0
  140.6910   72.2630  222.8010 N   0  0  0  0  0  0  0  0  0  0  0  0
  139.6070   71.5060  223.3620 C   0  0  0  0  0  0  0  0  0  0  0  0
  139.8600   70.9280  224.6830 C   0  0  0  0  0  0  0  0  0  0  0  0
  140.7460   71.5820  225.5330 C   0  0  0  0  0  0  0  0  0  0  0  0
  141.0420   71.1150  226.7970 C   0  0  0  0  0  0  0  0  0  0  0  0
  140.4570   69.9590  227.2680 C   0  0  0  0  0  0  0  0  0  0  0  0
  139.5830   69.3110  226.4310 C   0  0  0  0  0  0  0  0  0  0  0  0
  139.2860   69.7760  225.1710 C   0  0  0  0  0  0  0  0  0  0  0  0
  142.1160   74.1520  220.5350 C   0  0  0  0  0  0  0  0  0  0  0  0
  142.9550   76.8380  218.4140 N   0  0  0  0  0  0  0  0  0  0  0  0
  141.8380   80.9820  221.9580 C   0  0  0  0  0  0  0  0  0  0  0  0
  141.3650   80.9580  223.4080 C   0  0  0  0  0  0  0  0  0  0  0  0
  142.0704   78.2904  224.7458 H   0  0  0  0  0  0  0  0  0  0  0  0
  141.3469   77.7528  223.1920 H   0  0  0  0  0  0  0  0  0  0  0  0
  142.6925   78.9427  223.1920 H   0  0  0  0  0  0  0  0  0  0  0  0
  139.3961   78.3498  223.1911 H   0  0  0  0  0  0  0  0  0  0  0  0
  138.8775   80.0951  223.4725 H   0  0  0  0  0  0  0  0  0  0  0  0
  139.4418   78.7814  221.0599 H   0  0  0  0  0  0  0  0  0  0  0  0
  139.0065   80.5307  221.4168 H   0  0  0  0  0  0  0  0  0  0  0  0
  141.1128   81.7174  218.9600 H   0  0  0  0  0  0  0  0  0  0  0  0
  142.0026   81.0987  216.7302 H   0  0  0  0  0  0  0  0  0  0  0  0
  142.9128   78.7905  216.3523 H   0  0  0  0  0  0  0  0  0  0  0  0
  142.8010   77.5576  221.3503 H   0  0  0  0  0  0  0  0  0  0  0  0
  141.1919   77.0035  220.9144 H   0  0  0  0  0  0  0  0  0  0  0  0
  145.2172   75.0795  219.4955 H   0  0  0  0  0  0  0  0  0  0  0  0
  145.6406   72.7413  220.2638 H   0  0  0  0  0  0  0  0  0  0  0  0
  143.8427   71.3510  221.1796 H   0  0  0  0  0  0  0  0  0  0  0  0
  141.1150   73.0090  223.3950 H   0  0  0  0  0  0  0  0  0  0  0  0
  138.7355   72.1720  223.4447 H   0  0  0  0  0  0  0  0  0  0  0  0
  139.4508   70.6539  222.6841 H   0  0  0  0  0  0  0  0  0  0  0  0
  141.2290   72.5067  225.1841 H   0  0  0  0  0  0  0  0  0  0  0  0
  141.7489   71.6683  227.4327 H   0  0  0  0  0  0  0  0  0  0  0  0
  140.6813   69.5719  228.2729 H   0  0  0  0  0  0  0  0  0  0  0  0
  139.1023   68.3855  226.7809 H   0  0  0  0  0  0  0  0  0  0  0  0
  138.5772   69.2173  224.5422 H   0  0  0  0  0  0  0  0  0  0  0  0
  141.0999   74.5667  220.6097 H   0  0  0  0  0  0  0  0  0  0  0  0
  142.8719   80.6096  221.9090 H   0  0  0  0  0  0  0  0  0  0  0  0
  141.7873   82.0160  221.5860 H   0  0  0  0  0  0  0  0  0  0  0  0
  142.2169   81.2018  224.0598 H   0  0  0  0  0  0  0  0  0  0  0  0
  140.5540   81.6949  223.5044 H   0  0  0  0  0  0  0  0  0  0  0  0
  1  2  1  0
  2  3  1  0
  3  4  1  0
  4  5  1  0
  5  6  1  0
  6  7  2  0
  7  8  1  0
  8  9  2  0
  9 10  1  0
 10 11  2  0
 11 12  1  0
 12 13  1  0
 13 14  1  0
 14 15  2  0
 15 16  1  0
 16 17  2  0
 17 18  1  0
 18 19  1  0
 19 20  2  0
 19 21  1  0
 21 22  1  0
 22 23  1  0
 23 24  2  0
 24 25  1  0
 25 26  2  0
 26 27  1  0
 27 28  2  0
 18 29  2  0
 13 30  2  0
  5 31  1  0
 31 32  1  0
 32  2  1  0
 11  6  1  0
 29 14  1  0
 30 10  1  0
 28 23  1  0
  1 33  1  0
  1 34  1  0
  1 35  1  0
  3 36  1  0
  3 37  1  0
  4 38  1  0
  4 39  1  0
  7 40  1  0
  8 41  1  0
  9 42  1  0
 12 43  1  0
 12 44  1  0
 15 45  1  0
 16 46  1  0
 17 47  1  0
 21 48  1  0
 22 49  1  0
 22 50  1  0
 24 51  1  0
 25 52  1  0
 26 53  1  0
 27 54  1  0
 28 55  1  0
 29 56  1  0
 31 57  1  0
 31 58  1  0
 32 59  1  0
 32 60  1  0
M  END
>  <smiles>  (40) 
CN1CCN(c2cccc3c2CC(c2cccc(C(=O)NCc4ccccc4)c2)=N3)CC1

>  <score_type>  (40) 
oracle

>  <origin>  (40) 
autodockgpu

>  <m_score__min__energy>  (40) 
-9.5899999999999999

>  <m_primary>  (40) 
energy

>  <rmsd>  (40) 
7.560867515959445

>  <m_score__min__rmsd>  (40) 
7.560867515959445

>  <meeko>  (40) 
{"free_energy": -8.85, "intermolecular_energy": -10.34, "internal_energy": -1.27, "cluster_size": 30, "cluster_id": 1, "rank_in_cluster": 30}

>  <energy>  (40) 
-8.94

>  <cluster_rmsd>  (40) 
0.6

>  <cluster>  (40) 
3

$$$$

     RDKit          3D

 60 64  0  0  0  0  0  0  0  0999 V2000
  136.1540   79.3580  223.1620 C   0  0  0  0  0  0  0  0  0  0  0  0
  136.0400   80.7620  223.4760 N   0  0  0  0  0  0  0  0  0  0  0  0
  136.6000   81.6060  222.4640 C   0  0  0  0  0  0  0  0  0  0  0  0
  138.0760   81.8100  222.5450 C   0  0  0  0  0  0  0  0  0  0  0  0
  138.7330   81.0740  223.5910 N   0  0  0  0  0  0  0  0  0  0  0  0
  140.0540   80.5290  223.4470 C   0  0  0  0  0  0  0  0  0  0  0  0
  141.1700   81.2370  223.8470 C   0  0  0  0  0  0  0  0  0  0  0  0
  142.4420   80.7080  223.7060 C   0  0  0  0  0  0  0  0  0  0  0  0
  142.6030   79.4390  223.1510 C   0  0  0  0  0  0  0  0  0  0  0  0
  141.4750   78.7420  222.7550 C   0  0  0  0  0  0  0  0  0  0  0  0
  140.2000   79.2730  222.8960 C   0  0  0  0  0  0  0  0  0  0  0  0
  139.2630   78.2710  222.3780 C   0  0  0  0  0  0  0  0  0  0  0  0
  140.1500   77.1410  221.9410 C   0  0  0  0  0  0  0  0  0  0  0  0
  139.6430   75.8900  221.3410 C   0  0  0  0  0  0  0  0  0  0  0  0
  138.7990   75.9120  220.2480 C   0  0  0  0  0  0  0  0  0  0  0  0
  138.3750   74.6830  219.7540 C   0  0  0  0  0  0  0  0  0  0  0  0
  138.7680   73.4920  220.3180 C   0  0  0  0  0  0  0  0  0  0  0  0
  139.6120   73.4700  221.4100 C   0  0  0  0  0  0  0  0  0  0  0  0
  140.0590   72.2340  222.0470 C   0  0  0  0  0  0  0  0  0  0  0  0
  140.6760   71.3840  221.3590 O   0  0  0  0  0  0  0  0  0  0  0  0
  139.8340   71.9320  223.4140 N   0  0  0  0  0  0  0  0  0  0  0  0
  140.2600   70.7300  224.0720 C   0  0  0  0  0  0  0  0  0  0  0  0
  140.4170   70.8270  225.5240 C   0  0  0  0  0  0  0  0  0  0  0  0
  139.9730   69.7690  226.3110 C   0  0  0  0  0  0  0  0  0  0  0  0
  140.0830   69.7700  227.6860 C   0  0  0  0  0  0  0  0  0  0  0  0
  140.6480   70.8440  228.3390 C   0  0  0  0  0  0  0  0  0  0  0  0
  141.0870   71.8910  227.5660 C   0  0  0  0  0  0  0  0  0  0  0  0
  140.9780   71.8910  226.1940 C   0  0  0  0  0  0  0  0  0  0  0  0
  140.0290   74.6880  221.8960 C   0  0  0  0  0  0  0  0  0  0  0  0
  141.3850   77.4520  222.1720 N   0  0  0  0  0  0  0  0  0  0  0  0
  138.0740   80.8450  224.8640 C   0  0  0  0  0  0  0  0  0  0  0  0
  136.5780   81.1240  224.7540 C   0  0  0  0  0  0  0  0  0  0  0  0
  136.2012   78.7764  224.0945 H   0  0  0  0  0  0  0  0  0  0  0  0
  135.2786   79.0410  222.5761 H   0  0  0  0  0  0  0  0  0  0  0  0
  137.0690   79.1864  222.5761 H   0  0  0  0  0  0  0  0  0  0  0  0
  136.3725   81.1588  221.4851 H   0  0  0  0  0  0  0  0  0  0  0  0
  136.1484   82.5980  222.6128 H   0  0  0  0  0  0  0  0  0  0  0  0
  138.5162   81.5048  221.5842 H   0  0  0  0  0  0  0  0  0  0  0  0
  138.2278   82.8749  222.7753 H   0  0  0  0  0  0  0  0  0  0  0  0
  141.0465   82.2384  224.2852 H   0  0  0  0  0  0  0  0  0  0  0  0
  143.3203   81.2856  224.0299 H   0  0  0  0  0  0  0  0  0  0  0  0
  143.6050   79.0014  223.0306 H   0  0  0  0  0  0  0  0  0  0  0  0
  138.5678   77.9416  223.1642 H   0  0  0  0  0  0  0  0  0  0  0  0
  138.6352   78.6583  221.5620 H   0  0  0  0  0  0  0  0  0  0  0  0
  138.4768   76.8584  219.7891 H   0  0  0  0  0  0  0  0  0  0  0  0
  137.7030   74.6630  218.8833 H   0  0  0  0  0  0  0  0  0  0  0  0
  138.4050   72.5444  219.8933 H   0  0  0  0  0  0  0  0  0  0  0  0
  139.3200   72.6380  223.9870 H   0  0  0  0  0  0  0  0  0  0  0  0
  139.5155   69.9476  223.8634 H   0  0  0  0  0  0  0  0  0  0  0  0
  141.2613   70.5074  223.6747 H   0  0  0  0  0  0  0  0  0  0  0  0
  139.5167   68.8981  225.8177 H   0  0  0  0  0  0  0  0  0  0  0  0
  139.7177   68.9087  228.2645 H   0  0  0  0  0  0  0  0  0  0  0  0
  140.7435   70.8620  229.4347 H   0  0  0  0  0  0  0  0  0  0  0  0
  141.5423   72.7612  228.0615 H   0  0  0  0  0  0  0  0  0  0  0  0
  141.3455   72.7562  225.6227 H   0  0  0  0  0  0  0  0  0  0  0  0
  140.7009   74.7036  222.7668 H   0  0  0  0  0  0  0  0  0  0  0  0
  138.2250   79.7980  225.1657 H   0  0  0  0  0  0  0  0  0  0  0  0
  138.5065   81.5240  225.6136 H   0  0  0  0  0  0  0  0  0  0  0  0
  136.0547   80.5486  225.5318 H   0  0  0  0  0  0  0  0  0  0  0  0
  136.4319   82.2068  224.8811 H   0  0  0  0  0  0  0  0  0  0  0  0
  1  2  1  0
  2  3  1  0
  3  4  1  0
  4  5  1  0
  5  6  1  0
  6  7  2  0
  7  8  1  0
  8  9  2  0
  9 10  1  0
 10 11  2  0
 11 12  1  0
 12 13  1  0
 13 14  1  0
 14 15  2  0
 15 16  1  0
 16 17  2  0
 17 18  1  0
 18 19  1  0
 19 20  2  0
 19 21  1  0
 21 22  1  0
 22 23  1  0
 23 24  2  0
 24 25  1  0
 25 26  2  0
 26 27  1  0
 27 28  2  0
 18 29  2  0
 13 30  2  0
  5 31  1  0
 31 32  1  0
 32  2  1  0
 11  6  1  0
 29 14  1  0
 30 10  1  0
 28 23  1  0
  1 33  1  0
  1 34  1  0
  1 35  1  0
  3 36  1  0
  3 37  1  0
  4 38  1  0
  4 39  1  0
  7 40  1  0
  8 41  1  0
  9 42  1  0
 12 43  1  0
 12 44  1  0
 15 45  1  0
 16 46  1  0
 17 47  1  0
 21 48  1  0
 22 49  1  0
 22 50  1  0
 24 51  1  0
 25 52  1  0
 26 53  1  0
 27 54  1  0
 28 55  1  0
 29 56  1  0
 31 57  1  0
 31 58  1  0
 32 59  1  0
 32 60  1  0
M  END
>  <smiles>  (41) 
CN1CCN(c2cccc3c2CC(c2cccc(C(=O)NCc4ccccc4)c2)=N3)CC1

>  <score_type>  (41) 
oracle

>  <origin>  (41) 
autodockgpu

>  <m_score__min__energy>  (41) 
-9.5899999999999999

>  <m_primary>  (41) 
energy

>  <rmsd>  (41) 
8.29216229572972

>  <m_score__min__rmsd>  (41) 
8.29216229572972

>  <meeko>  (41) 
{"free_energy": -9.11, "intermolecular_energy": -10.6, "internal_energy": -1.24, "cluster_size": 10, "cluster_id": 4, "rank_in_cluster": 9}

>  <energy>  (41) 
-9.18

>  <cluster_rmsd>  (41) 
0.0

>  <cluster>  (41) 
4

$$$$

     RDKit          3D

 60 64  0  0  0  0  0  0  0  0999 V2000
  141.5550   78.8580  223.7360 C   0  0  0  0  0  0  0  0  0  0  0  0
  140.8570   80.1160  223.8490 N   0  0  0  0  0  0  0  0  0  0  0  0
  139.6530   80.1570  223.0760 C   0  0  0  0  0  0  0  0  0  0  0  0
  139.8290   80.4980  221.6340 C   0  0  0  0  0  0  0  0  0  0  0  0
  141.1930   80.6710  221.2140 N   0  0  0  0  0  0  0  0  0  0  0  0
  141.6620   80.2850  219.9130 C   0  0  0  0  0  0  0  0  0  0  0  0
  141.7850   81.2060  218.8920 C   0  0  0  0  0  0  0  0  0  0  0  0
  142.2370   80.8280  217.6380 C   0  0  0  0  0  0  0  0  0  0  0  0
  142.5760   79.4970  217.4000 C   0  0  0  0  0  0  0  0  0  0  0  0
  142.4470   78.5850  218.4350 C   0  0  0  0  0  0  0  0  0  0  0  0
  141.9940   78.9640  219.6910 C   0  0  0  0  0  0  0  0  0  0  0  0
  141.9860   77.7560  220.5210 C   0  0  0  0  0  0  0  0  0  0  0  0
  142.4790   76.6810  219.5970 C   0  0  0  0  0  0  0  0  0  0  0  0
  142.6390   75.2680  219.9990 C   0  0  0  0  0  0  0  0  0  0  0  0
  143.7180   74.5210  219.5690 C   0  0  0  0  0  0  0  0  0  0  0  0
  143.7830   73.2010  220.0010 C   0  0  0  0  0  0  0  0  0  0  0  0
  142.8240   72.6500  220.8170 C   0  0  0  0  0  0  0  0  0  0  0  0
  141.7450   73.3960  221.2480 C   0  0  0  0  0  0  0  0  0  0  0  0
  140.7000   72.8600  222.1140 C   0  0  0  0  0  0  0  0  0  0  0  0
  139.8130   73.6350  222.5500 O   0  0  0  0  0  0  0  0  0  0  0  0
  140.6250   71.4970  222.4990 N   0  0  0  0  0  0  0  0  0  0  0  0
  139.6120   70.9350  223.3470 C   0  0  0  0  0  0  0  0  0  0  0  0
  139.9530   70.8580  224.7690 C   0  0  0  0  0  0  0  0  0  0  0  0
  140.7230   71.8770  225.3220 C   0  0  0  0  0  0  0  0  0  0  0  0
  141.0890   71.8910  226.6520 C   0  0  0  0  0  0  0  0  0  0  0  0
  140.6950   70.8740  227.4950 C   0  0  0  0  0  0  0  0  0  0  0  0
  139.9350   69.8670  226.9520 C   0  0  0  0  0  0  0  0  0  0  0  0
  139.5690   69.8510  225.6260 C   0  0  0  0  0  0  0  0  0  0  0  0
  141.6850   74.7020  220.8180 C   0  0  0  0  0  0  0  0  0  0  0  0
  142.7260   77.1950  218.4340 N   0  0  0  0  0  0  0  0  0  0  0  0
  142.1760   81.2580  222.1080 C   0  0  0  0  0  0  0  0  0  0  0  0
  141.6610   81.2630  223.5440 C   0  0  0  0  0  0  0  0  0  0  0  0
  141.7717   78.4674  224.7412 H   0  0  0  0  0  0  0  0  0  0  0  0
  140.9273   78.1381  223.1903 H   0  0  0  0  0  0  0  0  0  0  0  0
  142.4980   79.0096  223.1903 H   0  0  0  0  0  0  0  0  0  0  0  0
  139.1781   79.1665  223.1349 H   0  0  0  0  0  0  0  0  0  0  0  0
  139.0442   80.9658  223.5064 H   0  0  0  0  0  0  0  0  0  0  0  0
  139.3874   79.6878  221.0351 H   0  0  0  0  0  0  0  0  0  0  0  0
  139.3351   81.4695  221.4847 H   0  0  0  0  0  0  0  0  0  0  0  0
  141.5198   82.2574  219.0771 H   0  0  0  0  0  0  0  0  0  0  0  0
  142.3278   81.5740  216.8348 H   0  0  0  0  0  0  0  0  0  0  0  0
  142.9382   79.1776  216.4116 H   0  0  0  0  0  0  0  0  0  0  0  0
  142.6587   77.8694  221.3839 H   0  0  0  0  0  0  0  0  0  0  0  0
  140.9928   77.5343  220.9385 H   0  0  0  0  0  0  0  0  0  0  0  0
  144.4908   74.9507  218.9146 H   0  0  0  0  0  0  0  0  0  0  0  0
  144.6299   72.5771  219.6791 H   0  0  0  0  0  0  0  0  0  0  0  0
  142.9174   71.6000  221.1311 H   0  0  0  0  0  0  0  0  0  0  0  0
  141.3630   70.8510  222.1380 H   0  0  0  0  0  0  0  0  0  0  0  0
  138.7066   71.5519  223.2483 H   0  0  0  0  0  0  0  0  0  0  0  0
  139.4787   69.8960  223.0113 H   0  0  0  0  0  0  0  0  0  0  0  0
  141.0523   72.7026  224.6739 H   0  0  0  0  0  0  0  0  0  0  0  0
  141.6991   72.7189  227.0423 H   0  0  0  0  0  0  0  0  0  0  0  0
  140.9775   70.8691  228.5581 H   0  0  0  0  0  0  0  0  0  0  0  0
  139.6067   69.0424  227.6018 H   0  0  0  0  0  0  0  0  0  0  0  0
  138.9590   69.0193  225.2437 H   0  0  0  0  0  0  0  0  0  0  0  0
  140.8370   75.3229  221.1426 H   0  0  0  0  0  0  0  0  0  0  0  0
  143.1050   80.6710  222.0592 H   0  0  0  0  0  0  0  0  0  0  0  0
  142.3645   82.2957  221.7954 H   0  0  0  0  0  0  0  0  0  0  0  0
  142.5233   81.2795  224.2267 H   0  0  0  0  0  0  0  0  0  0  0  0
  141.0274   82.1539  223.6659 H   0  0  0  0  0  0  0  0  0  0  0  0
  1  2  1  0
  2  3  1  0
  3  4  1  0
  4  5  1  0
  5  6  1  0
  6  7  2  0
  7  8  1  0
  8  9  2  0
  9 10  1  0
 10 11  2  0
 11 12  1  0
 12 13  1  0
 13 14  1  0
 14 15  2  0
 15 16  1  0
 16 17  2  0
 17 18  1  0
 18 19  1  0
 19 20  2  0
 19 21  1  0
 21 22  1  0
 22 23  1  0
 23 24  2  0
 24 25  1  0
 25 26  2  0
 26 27  1  0
 27 28  2  0
 18 29  2  0
 13 30  2  0
  5 31  1  0
 31 32  1  0
 32  2  1  0
 11  6  1  0
 29 14  1  0
 30 10  1  0
 28 23  1  0
  1 33  1  0
  1 34  1  0
  1 35  1  0
  3 36  1  0
  3 37  1  0
  4 38  1  0
  4 39  1  0
  7 40  1  0
  8 41  1  0
  9 42  1  0
 12 43  1  0
 12 44  1  0
 15 45  1  0
 16 46  1  0
 17 47  1  0
 21 48  1  0
 22 49  1  0
 22 50  1  0
 24 51  1  0
 25 52  1  0
 26 53  1  0
 27 54  1  0
 28 55  1  0
 29 56  1  0
 31 57  1  0
 31 58  1  0
 32 59  1  0
 32 60  1  0
M  END
>  <smiles>  (42) 
CN1CCN(c2cccc3c2CC(c2cccc(C(=O)NCc4ccccc4)c2)=N3)CC1

>  <score_type>  (42) 
oracle

>  <origin>  (42) 
autodockgpu

>  <m_score__min__energy>  (42) 
-9.5899999999999999

>  <m_primary>  (42) 
energy

>  <rmsd>  (42) 
7.796031433196839

>  <m_score__min__rmsd>  (42) 
7.796031433196839

>  <meeko>  (42) 
{"free_energy": -9.46, "intermolecular_energy": -10.95, "internal_energy": -1.37, "cluster_size": 30, "cluster_id": 1, "rank_in_cluster": 26}

>  <energy>  (42) 
-9.18

>  <cluster_rmsd>  (42) 
0.47

>  <cluster>  (42) 
4

$$$$

     RDKit          3D

 60 64  0  0  0  0  0  0  0  0999 V2000
  141.5600   78.8450  223.7530 C   0  0  0  0  0  0  0  0  0  0  0  0
  140.8850   80.1150  223.8650 N   0  0  0  0  0  0  0  0  0  0  0  0
  139.6780   80.1740  223.0970 C   0  0  0  0  0  0  0  0  0  0  0  0
  139.8540   80.5080  221.6530 C   0  0  0  0  0  0  0  0  0  0  0  0
  141.2190   80.6560  221.2270 N   0  0  0  0  0  0  0  0  0  0  0  0
  141.6760   80.2580  219.9250 C   0  0  0  0  0  0  0  0  0  0  0  0
  141.8100   81.1730  218.9000 C   0  0  0  0  0  0  0  0  0  0  0  0
  142.2500   80.7840  217.6460 C   0  0  0  0  0  0  0  0  0  0  0  0
  142.5640   79.4460  217.4100 C   0  0  0  0  0  0  0  0  0  0  0  0
  142.4240   78.5410  218.4480 C   0  0  0  0  0  0  0  0  0  0  0  0
  141.9830   78.9310  219.7050 C   0  0  0  0  0  0  0  0  0  0  0  0
  141.9580   77.7260  220.5390 C   0  0  0  0  0  0  0  0  0  0  0  0
  142.4290   76.6390  219.6170 C   0  0  0  0  0  0  0  0  0  0  0  0
  142.5660   75.2260  220.0220 C   0  0  0  0  0  0  0  0  0  0  0  0
  143.6230   74.4550  219.5770 C   0  0  0  0  0  0  0  0  0  0  0  0
  143.6670   73.1350  220.0140 C   0  0  0  0  0  0  0  0  0  0  0  0
  142.7110   72.6070  220.8490 C   0  0  0  0  0  0  0  0  0  0  0  0
  141.6560   73.3770  221.2940 C   0  0  0  0  0  0  0  0  0  0  0  0
  140.6140   72.8660  222.1810 C   0  0  0  0  0  0  0  0  0  0  0  0
  139.5680   73.5410  222.3420 O   0  0  0  0  0  0  0  0  0  0  0  0
  140.7160   71.6370  222.8790 N   0  0  0  0  0  0  0  0  0  0  0  0
  139.7120   71.1040  223.7570 C   0  0  0  0  0  0  0  0  0  0  0  0
  140.1620   70.7960  225.1160 C   0  0  0  0  0  0  0  0  0  0  0  0
  140.7050   71.8230  225.8820 C   0  0  0  0  0  0  0  0  0  0  0  0
  141.1510   71.6290  227.1730 C   0  0  0  0  0  0  0  0  0  0  0  0
  141.0730   70.3820  227.7580 C   0  0  0  0  0  0  0  0  0  0  0  0
  140.5380   69.3670  227.0040 C   0  0  0  0  0  0  0  0  0  0  0  0
  140.0920   69.5590  225.7160 C   0  0  0  0  0  0  0  0  0  0  0  0
  141.6150   74.6830  220.8590 C   0  0  0  0  0  0  0  0  0  0  0  0
  142.6790   77.1450  218.4510 N   0  0  0  0  0  0  0  0  0  0  0  0
  142.2160   81.2280  222.1150 C   0  0  0  0  0  0  0  0  0  0  0  0
  141.7070   81.2460  223.5530 C   0  0  0  0  0  0  0  0  0  0  0  0
  141.7694   78.4511  224.7585 H   0  0  0  0  0  0  0  0  0  0  0  0
  140.9196   78.1362  223.2076 H   0  0  0  0  0  0  0  0  0  0  0  0
  142.5058   78.9793  223.2076 H   0  0  0  0  0  0  0  0  0  0  0  0
  139.1868   79.1919  223.1608 H   0  0  0  0  0  0  0  0  0  0  0  0
  139.0844   80.9938  223.5277 H   0  0  0  0  0  0  0  0  0  0  0  0
  139.3959   79.7040  221.0582 H   0  0  0  0  0  0  0  0  0  0  0  0
  139.3766   81.4876  221.5030 H   0  0  0  0  0  0  0  0  0  0  0  0
  141.5630   82.2292  219.0826 H   0  0  0  0  0  0  0  0  0  0  0  0
  142.3513   81.5263  216.8405 H   0  0  0  0  0  0  0  0  0  0  0  0
  142.9152   79.1170  216.4208 H   0  0  0  0  0  0  0  0  0  0  0  0
  142.6360   77.8310  221.3988 H   0  0  0  0  0  0  0  0  0  0  0  0
  140.9627   77.5227  220.9610 H   0  0  0  0  0  0  0  0  0  0  0  0
  144.3937   74.8659  218.9083 H   0  0  0  0  0  0  0  0  0  0  0  0
  144.4947   72.4920  219.6802 H   0  0  0  0  0  0  0  0  0  0  0  0
  142.7881   71.5567  221.1666 H   0  0  0  0  0  0  0  0  0  0  0  0
  141.5860   71.0750  222.7460 H   0  0  0  0  0  0  0  0  0  0  0  0
  138.8984   71.8408  223.8283 H   0  0  0  0  0  0  0  0  0  0  0  0
  139.4040   70.1444  223.3162 H   0  0  0  0  0  0  0  0  0  0  0  0
  140.7816   72.8279  225.4413 H   0  0  0  0  0  0  0  0  0  0  0  0
  141.5712   72.4734  227.7391 H   0  0  0  0  0  0  0  0  0  0  0  0
  141.4248   70.2082  228.7856 H   0  0  0  0  0  0  0  0  0  0  0  0
  140.4629   68.3624  227.4459 H   0  0  0  0  0  0  0  0  0  0  0  0
  139.6726   68.7097  225.1567 H   0  0  0  0  0  0  0  0  0  0  0  0
  140.7852   75.3222  221.1949 H   0  0  0  0  0  0  0  0  0  0  0  0
  143.1343   80.6245  222.0641 H   0  0  0  0  0  0  0  0  0  0  0  0
  142.4217   82.2612  221.7986 H   0  0  0  0  0  0  0  0  0  0  0  0
  142.5723   81.2496  224.2321 H   0  0  0  0  0  0  0  0  0  0  0  0
  141.0893   82.1480  223.6744 H   0  0  0  0  0  0  0  0  0  0  0  0
  1  2  1  0
  2  3  1  0
  3  4  1  0
  4  5  1  0
  5  6  1  0
  6  7  2  0
  7  8  1  0
  8  9  2  0
  9 10  1  0
 10 11  2  0
 11 12  1  0
 12 13  1  0
 13 14  1  0
 14 15  2  0
 15 16  1  0
 16 17  2  0
 17 18  1  0
 18 19  1  0
 19 20  2  0
 19 21  1  0
 21 22  1  0
 22 23  1  0
 23 24  2  0
 24 25  1  0
 25 26  2  0
 26 27  1  0
 27 28  2  0
 18 29  2  0
 13 30  2  0
  5 31  1  0
 31 32  1  0
 32  2  1  0
 11  6  1  0
 29 14  1  0
 30 10  1  0
 28 23  1  0
  1 33  1  0
  1 34  1  0
  1 35  1  0
  3 36  1  0
  3 37  1  0
  4 38  1  0
  4 39  1  0
  7 40  1  0
  8 41  1  0
  9 42  1  0
 12 43  1  0
 12 44  1  0
 15 45  1  0
 16 46  1  0
 17 47  1  0
 21 48  1  0
 22 49  1  0
 22 50  1  0
 24 51  1  0
 25 52  1  0
 26 53  1  0
 27 54  1  0
 28 55  1  0
 29 56  1  0
 31 57  1  0
 31 58  1  0
 32 59  1  0
 32 60  1  0
M  END
>  <smiles>  (43) 
CN1CCN(c2cccc3c2CC(c2cccc(C(=O)NCc4ccccc4)c2)=N3)CC1

>  <score_type>  (43) 
oracle

>  <origin>  (43) 
autodockgpu

>  <m_score__min__energy>  (43) 
-9.5899999999999999

>  <m_primary>  (43) 
energy

>  <rmsd>  (43) 
7.767401330424933

>  <m_score__min__rmsd>  (43) 
7.767401330424933

>  <meeko>  (43) 
{"free_energy": -9.56, "intermolecular_energy": -11.05, "internal_energy": -1.32, "cluster_size": 30, "cluster_id": 1, "rank_in_cluster": 9}

>  <energy>  (43) 
-9.16

>  <cluster_rmsd>  (43) 
0.03

>  <cluster>  (43) 
4

$$$$

     RDKit          3D

 60 64  0  0  0  0  0  0  0  0999 V2000
  139.0540   80.8740  218.4960 C   0  0  0  0  0  0  0  0  0  0  0  0
  140.2030   81.5690  217.9690 N   0  0  0  0  0  0  0  0  0  0  0  0
  141.3430   80.7180  217.8080 C   0  0  0  0  0  0  0  0  0  0  0  0
  142.1610   80.5050  219.0380 C   0  0  0  0  0  0  0  0  0  0  0  0
  141.6470   81.1330  220.2250 N   0  0  0  0  0  0  0  0  0  0  0  0
  141.7650   80.5460  221.5300 C   0  0  0  0  0  0  0  0  0  0  0  0
  142.3060   81.2500  222.5880 C   0  0  0  0  0  0  0  0  0  0  0  0
  142.4180   80.6790  223.8450 C   0  0  0  0  0  0  0  0  0  0  0  0
  141.9800   79.3720  224.0500 C   0  0  0  0  0  0  0  0  0  0  0  0
  141.4400   78.6790  222.9790 C   0  0  0  0  0  0  0  0  0  0  0  0
  141.3280   79.2510  221.7190 C   0  0  0  0  0  0  0  0  0  0  0  0
  140.7210   78.2410  220.8470 C   0  0  0  0  0  0  0  0  0  0  0  0
  140.5130   77.0620  221.7520 C   0  0  0  0  0  0  0  0  0  0  0  0
  139.9180   75.7850  221.3060 C   0  0  0  0  0  0  0  0  0  0  0  0
  139.0150   75.7440  220.2620 C   0  0  0  0  0  0  0  0  0  0  0  0
  138.5110   74.4950  219.9140 C   0  0  0  0  0  0  0  0  0  0  0  0
  138.8830   73.3460  220.5710 C   0  0  0  0  0  0  0  0  0  0  0  0
  139.7850   73.3870  221.6150 C   0  0  0  0  0  0  0  0  0  0  0  0
  140.2130   72.1980  222.3460 C   0  0  0  0  0  0  0  0  0  0  0  0
  141.1970   71.5440  221.9210 O   0  0  0  0  0  0  0  0  0  0  0  0
  139.5740   71.7310  223.5220 N   0  0  0  0  0  0  0  0  0  0  0  0
  139.9680   70.5680  224.2660 C   0  0  0  0  0  0  0  0  0  0  0  0
  140.2880   70.7990  225.6760 C   0  0  0  0  0  0  0  0  0  0  0  0
  141.0870   71.8910  226.0020 C   0  0  0  0  0  0  0  0  0  0  0  0
  141.4370   72.1910  227.3020 C   0  0  0  0  0  0  0  0  0  0  0  0
  140.9980   71.3990  228.3430 C   0  0  0  0  0  0  0  0  0  0  0  0
  140.2110   70.3210  228.0240 C   0  0  0  0  0  0  0  0  0  0  0  0
  139.8600   70.0210  226.7270 C   0  0  0  0  0  0  0  0  0  0  0  0
  140.2820   74.6250  221.9560 C   0  0  0  0  0  0  0  0  0  0  0  0
  140.9330   77.3550  222.9410 N   0  0  0  0  0  0  0  0  0  0  0  0
  140.9710   82.4160  220.1520 C   0  0  0  0  0  0  0  0  0  0  0  0
  140.5770   82.7350  218.7130 C   0  0  0  0  0  0  0  0  0  0  0  0
  139.0861   80.8934  219.5954 H   0  0  0  0  0  0  0  0  0  0  0  0
  138.1350   81.3678  218.1473 H   0  0  0  0  0  0  0  0  0  0  0  0
  139.0647   79.8308  218.1473 H   0  0  0  0  0  0  0  0  0  0  0  0
  140.9875   79.7360  217.4625 H   0  0  0  0  0  0  0  0  0  0  0  0
  142.0024   81.2270  217.0896 H   0  0  0  0  0  0  0  0  0  0  0  0
  142.2226   79.4226  219.2238 H   0  0  0  0  0  0  0  0  0  0  0  0
  143.1383   80.9704  218.8421 H   0  0  0  0  0  0  0  0  0  0  0  0
  142.6538   82.2815  222.4297 H   0  0  0  0  0  0  0  0  0  0  0  0
  142.8504   81.2541  224.6770 H   0  0  0  0  0  0  0  0  0  0  0  0
  142.0613   78.9009  225.0407 H   0  0  0  0  0  0  0  0  0  0  0  0
  139.7624   78.5980  220.4426 H   0  0  0  0  0  0  0  0  0  0  0  0
  141.3471   78.0015  219.9748 H   0  0  0  0  0  0  0  0  0  0  0  0
  138.7084   76.6568  219.7302 H   0  0  0  0  0  0  0  0  0  0  0  0
  137.7908   74.4243  219.0855 H   0  0  0  0  0  0  0  0  0  0  0  0
  138.4560   72.3810  220.2605 H   0  0  0  0  0  0  0  0  0  0  0  0
  138.7540   72.2730  223.8760 H   0  0  0  0  0  0  0  0  0  0  0  0
  139.1434   69.8414  224.2205 H   0  0  0  0  0  0  0  0  0  0  0  0
  140.8989   70.2129  223.7998 H   0  0  0  0  0  0  0  0  0  0  0  0
  141.4532   72.5393  225.1923 H   0  0  0  0  0  0  0  0  0  0  0  0
  142.0696   73.0665  227.5100 H   0  0  0  0  0  0  0  0  0  0  0  0
  141.2677   71.6225  229.3857 H   0  0  0  0  0  0  0  0  0  0  0  0
  139.8471   69.6726  228.8346 H   0  0  0  0  0  0  0  0  0  0  0  0
  139.2264   69.1442  226.5275 H   0  0  0  0  0  0  0  0  0  0  0  0
  141.0022   74.6915  222.7847 H   0  0  0  0  0  0  0  0  0  0  0  0
  140.0656   82.3834  220.7758 H   0  0  0  0  0  0  0  0  0  0  0  0
  141.6549   83.1979  220.5138 H   0  0  0  0  0  0  0  0  0  0  0  0
  139.7252   83.4309  218.7277 H   0  0  0  0  0  0  0  0  0  0  0  0
  141.4552   83.1760  218.2188 H   0  0  0  0  0  0  0  0  0  0  0  0
  1  2  1  0
  2  3  1  0
  3  4  1  0
  4  5  1  0
  5  6  1  0
  6  7  2  0
  7  8  1  0
  8  9  2  0
  9 10  1  0
 10 11  2  0
 11 12  1  0
 12 13  1  0
 13 14  1  0
 14 15  2  0
 15 16  1  0
 16 17  2  0
 17 18  1  0
 18 19  1  0
 19 20  2  0
 19 21  1  0
 21 22  1  0
 22 23  1  0
 23 24  2  0
 24 25  1  0
 25 26  2  0
 26 27  1  0
 27 28  2  0
 18 29  2  0
 13 30  2  0
  5 31  1  0
 31 32  1  0
 32  2  1  0
 11  6  1  0
 29 14  1  0
 30 10  1  0
 28 23  1  0
  1 33  1  0
  1 34  1  0
  1 35  1  0
  3 36  1  0
  3 37  1  0
  4 38  1  0
  4 39  1  0
  7 40  1  0
  8 41  1  0
  9 42  1  0
 12 43  1  0
 12 44  1  0
 15 45  1  0
 16 46  1  0
 17 47  1  0
 21 48  1  0
 22 49  1  0
 22 50  1  0
 24 51  1  0
 25 52  1  0
 26 53  1  0
 27 54  1  0
 28 55  1  0
 29 56  1  0
 31 57  1  0
 31 58  1  0
 32 59  1  0
 32 60  1  0
M  END
>  <smiles>  (44) 
CN1CCN(c2cccc3c2CC(c2cccc(C(=O)NCc4ccccc4)c2)=N3)CC1

>  <score_type>  (44) 
oracle

>  <origin>  (44) 
autodockgpu

>  <m_score__min__energy>  (44) 
-9.5899999999999999

>  <m_primary>  (44) 
energy

>  <rmsd>  (44) 
7.83267347735422

>  <m_score__min__rmsd>  (44) 
7.83267347735422

>  <meeko>  (44) 
{"free_energy": -9.21, "intermolecular_energy": -10.7, "internal_energy": -1.26, "cluster_size": 4, "cluster_id": 3, "rank_in_cluster": 1}

>  <energy>  (44) 
-9.16

>  <cluster_rmsd>  (44) 
0.04

>  <cluster>  (44) 
4

$$$$

     RDKit          3D

 60 64  0  0  0  0  0  0  0  0999 V2000
  140.8830   78.8320  223.5580 C   0  0  0  0  0  0  0  0  0  0  0  0
  140.7790   80.2520  223.7910 N   0  0  0  0  0  0  0  0  0  0  0  0
  139.7480   80.8700  223.0140 C   0  0  0  0  0  0  0  0  0  0  0  0
  140.1270   81.2290  221.6160 C   0  0  0  0  0  0  0  0  0  0  0  0
  141.4570   80.8400  221.2300 N   0  0  0  0  0  0  0  0  0  0  0  0
  141.7860   80.4060  219.9020 C   0  0  0  0  0  0  0  0  0  0  0  0
  141.8370   81.2970  218.8480 C   0  0  0  0  0  0  0  0  0  0  0  0
  142.1540   80.8740  217.5680 C   0  0  0  0  0  0  0  0  0  0  0  0
  142.4270   79.5270  217.3350 C   0  0  0  0  0  0  0  0  0  0  0  0
  142.3720   78.6460  218.4020 C   0  0  0  0  0  0  0  0  0  0  0  0
  142.0540   79.0700  219.6850 C   0  0  0  0  0  0  0  0  0  0  0  0
  142.0900   77.8840  220.5450 C   0  0  0  0  0  0  0  0  0  0  0  0
  142.4590   76.7710  219.6080 C   0  0  0  0  0  0  0  0  0  0  0  0
  142.6140   75.3640  220.0320 C   0  0  0  0  0  0  0  0  0  0  0  0
  143.6990   74.6120  219.6260 C   0  0  0  0  0  0  0  0  0  0  0  0
  143.7590   73.2980  220.0770 C   0  0  0  0  0  0  0  0  0  0  0  0
  142.7890   72.7570  220.8880 C   0  0  0  0  0  0  0  0  0  0  0  0
  141.7050   73.5090  221.2940 C   0  0  0  0  0  0  0  0  0  0  0  0
  140.6480   72.9840  222.1540 C   0  0  0  0  0  0  0  0  0  0  0  0
  139.6190   73.6760  222.3450 O   0  0  0  0  0  0  0  0  0  0  0  0
  140.7170   71.7210  222.7960 N   0  0  0  0  0  0  0  0  0  0  0  0
  139.6980   71.1730  223.6460 C   0  0  0  0  0  0  0  0  0  0  0  0
  140.0870   70.9640  225.0420 C   0  0  0  0  0  0  0  0  0  0  0  0
  140.9510   71.8810  225.6330 C   0  0  0  0  0  0  0  0  0  0  0  0
  141.3690   71.7680  226.9430 C   0  0  0  0  0  0  0  0  0  0  0  0
  140.9340   70.7190  227.7250 C   0  0  0  0  0  0  0  0  0  0  0  0
  140.0810   69.8130  227.1450 C   0  0  0  0  0  0  0  0  0  0  0  0
  139.6640   69.9240  225.8390 C   0  0  0  0  0  0  0  0  0  0  0  0
  141.6500   74.8090  220.8460 C   0  0  0  0  0  0  0  0  0  0  0  0
  142.6070   77.2470  218.4130 N   0  0  0  0  0  0  0  0  0  0  0  0
  142.5470   80.8690  222.1900 C   0  0  0  0  0  0  0  0  0  0  0  0
  142.0080   80.9680  223.6130 C   0  0  0  0  0  0  0  0  0  0  0  0
  140.9217   78.3041  224.5223 H   0  0  0  0  0  0  0  0  0  0  0  0
  140.0076   78.4890  222.9870 H   0  0  0  0  0  0  0  0  0  0  0  0
  141.7991   78.6202  222.9870 H   0  0  0  0  0  0  0  0  0  0  0  0
  138.8963   80.1754  222.9668 H   0  0  0  0  0  0  0  0  0  0  0  0
  139.5170   81.8199  223.5184 H   0  0  0  0  0  0  0  0  0  0  0  0
  139.4164   80.7404  220.9332 H   0  0  0  0  0  0  0  0  0  0  0  0
  140.0987   82.3273  221.5611 H   0  0  0  0  0  0  0  0  0  0  0  0
  141.6222   82.3606  219.0283 H   0  0  0  0  0  0  0  0  0  0  0  0
  142.1902   81.5969  216.7397 H   0  0  0  0  0  0  0  0  0  0  0  0
  142.6806   79.1716  216.3254 H   0  0  0  0  0  0  0  0  0  0  0  0
  142.8460   77.9967  221.3360 H   0  0  0  0  0  0  0  0  0  0  0  0
  141.1356   77.7051  221.0618 H   0  0  0  0  0  0  0  0  0  0  0  0
  144.4799   75.0332  218.9757 H   0  0  0  0  0  0  0  0  0  0  0  0
  144.6105   72.6705  219.7751 H   0  0  0  0  0  0  0  0  0  0  0  0
  142.8781   71.7113  221.2175 H   0  0  0  0  0  0  0  0  0  0  0  0
  141.5740   71.1440  222.6390 H   0  0  0  0  0  0  0  0  0  0  0  0
  138.8396   71.8607  223.6327 H   0  0  0  0  0  0  0  0  0  0  0  0
  139.4727   70.1748  223.2425 H   0  0  0  0  0  0  0  0  0  0  0  0
  141.3145   72.7282  225.0329 H   0  0  0  0  0  0  0  0  0  0  0  0
  142.0529   72.5187  227.3658 H   0  0  0  0  0  0  0  0  0  0  0  0
  141.2573   70.6124  228.7710 H   0  0  0  0  0  0  0  0  0  0  0  0
  139.7176   68.9671  227.7470 H   0  0  0  0  0  0  0  0  0  0  0  0
  138.9805   69.1686  225.4240 H   0  0  0  0  0  0  0  0  0  0  0  0
  140.7977   75.4338  221.1514 H   0  0  0  0  0  0  0  0  0  0  0  0
  143.1398   79.9477  222.0915 H   0  0  0  0  0  0  0  0  0  0  0  0
  143.1744   81.7494  221.9869 H   0  0  0  0  0  0  0  0  0  0  0  0
  142.7587   80.5552  224.3030 H   0  0  0  0  0  0  0  0  0  0  0  0
  141.8063   82.0297  223.8184 H   0  0  0  0  0  0  0  0  0  0  0  0
  1  2  1  0
  2  3  1  0
  3  4  1  0
  4  5  1  0
  5  6  1  0
  6  7  2  0
  7  8  1  0
  8  9  2  0
  9 10  1  0
 10 11  2  0
 11 12  1  0
 12 13  1  0
 13 14  1  0
 14 15  2  0
 15 16  1  0
 16 17  2  0
 17 18  1  0
 18 19  1  0
 19 20  2  0
 19 21  1  0
 21 22  1  0
 22 23  1  0
 23 24  2  0
 24 25  1  0
 25 26  2  0
 26 27  1  0
 27 28  2  0
 18 29  2  0
 13 30  2  0
  5 31  1  0
 31 32  1  0
 32  2  1  0
 11  6  1  0
 29 14  1  0
 30 10  1  0
 28 23  1  0
  1 33  1  0
  1 34  1  0
  1 35  1  0
  3 36  1  0
  3 37  1  0
  4 38  1  0
  4 39  1  0
  7 40  1  0
  8 41  1  0
  9 42  1  0
 12 43  1  0
 12 44  1  0
 15 45  1  0
 16 46  1  0
 17 47  1  0
 21 48  1  0
 22 49  1  0
 22 50  1  0
 24 51  1  0
 25 52  1  0
 26 53  1  0
 27 54  1  0
 28 55  1  0
 29 56  1  0
 31 57  1  0
 31 58  1  0
 32 59  1  0
 32 60  1  0
M  END
>  <smiles>  (45) 
CN1CCN(c2cccc3c2CC(c2cccc(C(=O)NCc4ccccc4)c2)=N3)CC1

>  <score_type>  (45) 
oracle

>  <origin>  (45) 
autodockgpu

>  <m_score__min__energy>  (45) 
-9.5899999999999999

>  <m_primary>  (45) 
energy

>  <rmsd>  (45) 
7.885665889455214

>  <m_score__min__rmsd>  (45) 
7.885665889455214

>  <meeko>  (45) 
{"free_energy": -9.48, "intermolecular_energy": -10.97, "internal_energy": -1.34, "cluster_size": 30, "cluster_id": 1, "rank_in_cluster": 19}

>  <energy>  (45) 
-9.15

>  <cluster_rmsd>  (45) 
0.45

>  <cluster>  (45) 
4

$$$$

     RDKit          3D

 60 64  0  0  0  0  0  0  0  0999 V2000
  136.1310   79.3590  223.0620 C   0  0  0  0  0  0  0  0  0  0  0  0
  136.0140   80.7570  223.3970 N   0  0  0  0  0  0  0  0  0  0  0  0
  136.5650   81.6190  222.3960 C   0  0  0  0  0  0  0  0  0  0  0  0
  138.0410   81.8270  222.4720 C   0  0  0  0  0  0  0  0  0  0  0  0
  138.7070   81.0760  223.5020 N   0  0  0  0  0  0  0  0  0  0  0  0
  140.0280   80.5380  223.3430 C   0  0  0  0  0  0  0  0  0  0  0  0
  141.1470   81.2640  223.7020 C   0  0  0  0  0  0  0  0  0  0  0  0
  142.4200   80.7410  223.5450 C   0  0  0  0  0  0  0  0  0  0  0  0
  142.5790   79.4610  223.0170 C   0  0  0  0  0  0  0  0  0  0  0  0
  141.4480   78.7460  222.6620 C   0  0  0  0  0  0  0  0  0  0  0  0
  140.1720   79.2700  222.8190 C   0  0  0  0  0  0  0  0  0  0  0  0
  139.2330   78.2500  222.3450 C   0  0  0  0  0  0  0  0  0  0  0  0
  140.1190   77.1170  221.9140 C   0  0  0  0  0  0  0  0  0  0  0  0
  139.6090   75.8480  221.3550 C   0  0  0  0  0  0  0  0  0  0  0  0
  138.8030   75.8340  220.2340 C   0  0  0  0  0  0  0  0  0  0  0  0
  138.3730   74.5910  219.7820 C   0  0  0  0  0  0  0  0  0  0  0  0
  138.7250   73.4210  220.4130 C   0  0  0  0  0  0  0  0  0  0  0  0
  139.5310   73.4340  221.5330 C   0  0  0  0  0  0  0  0  0  0  0  0
  139.9330   72.2220  222.2410 C   0  0  0  0  0  0  0  0  0  0  0  0
  140.9180   71.5690  221.8170 O   0  0  0  0  0  0  0  0  0  0  0  0
  139.2680   71.7310  223.3930 N   0  0  0  0  0  0  0  0  0  0  0  0
  139.6360   70.5450  224.1130 C   0  0  0  0  0  0  0  0  0  0  0  0
  140.1390   70.7620  225.4700 C   0  0  0  0  0  0  0  0  0  0  0  0
  139.8600   69.8050  226.4410 C   0  0  0  0  0  0  0  0  0  0  0  0
  140.2960   69.9220  227.7440 C   0  0  0  0  0  0  0  0  0  0  0  0
  141.0380   71.0160  228.1360 C   0  0  0  0  0  0  0  0  0  0  0  0
  141.3150   71.9630  227.1810 C   0  0  0  0  0  0  0  0  0  0  0  0
  140.8800   71.8470  225.8800 C   0  0  0  0  0  0  0  0  0  0  0  0
  139.9530   74.6670  221.9770 C   0  0  0  0  0  0  0  0  0  0  0  0
  141.3570   77.4420  222.1110 N   0  0  0  0  0  0  0  0  0  0  0  0
  138.0550   80.8250  224.7760 C   0  0  0  0  0  0  0  0  0  0  0  0
  136.5580   81.1010  224.6780 C   0  0  0  0  0  0  0  0  0  0  0  0
  136.1808   78.7636  223.9856 H   0  0  0  0  0  0  0  0  0  0  0  0
  135.2557   79.0487  222.4725 H   0  0  0  0  0  0  0  0  0  0  0  0
  137.0457   79.1985  222.4725 H   0  0  0  0  0  0  0  0  0  0  0  0
  136.3335   81.1869  221.4113 H   0  0  0  0  0  0  0  0  0  0  0  0
  136.1108   82.6068  222.5633 H   0  0  0  0  0  0  0  0  0  0  0  0
  138.4767   81.5395  221.5038 H   0  0  0  0  0  0  0  0  0  0  0  0
  138.1902   82.8884  222.7192 H   0  0  0  0  0  0  0  0  0  0  0  0
  141.0251   82.2744  224.1195 H   0  0  0  0  0  0  0  0  0  0  0  0
  143.3006   81.3327  223.8355 H   0  0  0  0  0  0  0  0  0  0  0  0
  143.5816   79.0282  222.8852 H   0  0  0  0  0  0  0  0  0  0  0  0
  138.5579   77.9333  223.1537 H   0  0  0  0  0  0  0  0  0  0  0  0
  138.5846   78.6139  221.5344 H   0  0  0  0  0  0  0  0  0  0  0  0
  138.5141   76.7636  219.7218 H   0  0  0  0  0  0  0  0  0  0  0  0
  137.7303   74.5422  218.8906 H   0  0  0  0  0  0  0  0  0  0  0  0
  138.3590   72.4613  220.0194 H   0  0  0  0  0  0  0  0  0  0  0  0
  138.4470   72.2730  223.7450 H   0  0  0  0  0  0  0  0  0  0  0  0
  138.7475   69.9000  224.1801 H   0  0  0  0  0  0  0  0  0  0  0  0
  140.4683   70.0966  223.5507 H   0  0  0  0  0  0  0  0  0  0  0  0
  139.2690   68.9214  226.1583 H   0  0  0  0  0  0  0  0  0  0  0  0
  140.0503   69.1377  228.4751 H   0  0  0  0  0  0  0  0  0  0  0  0
  141.3934   71.1257  229.1712 H   0  0  0  0  0  0  0  0  0  0  0  0
  141.9058   72.8461  227.4658 H   0  0  0  0  0  0  0  0  0  0  0  0
  141.1292   72.6358  225.1550 H   0  0  0  0  0  0  0  0  0  0  0  0
  140.5944   74.7117  222.8695 H   0  0  0  0  0  0  0  0  0  0  0  0
  138.2107   79.7739  225.0606 H   0  0  0  0  0  0  0  0  0  0  0  0
  138.4894   81.4935  225.5339 H   0  0  0  0  0  0  0  0  0  0  0  0
  136.0405   80.5121  225.4496 H   0  0  0  0  0  0  0  0  0  0  0  0
  136.4095   82.1813  224.8224 H   0  0  0  0  0  0  0  0  0  0  0  0
  1  2  1  0
  2  3  1  0
  3  4  1  0
  4  5  1  0
  5  6  1  0
  6  7  2  0
  7  8  1  0
  8  9  2  0
  9 10  1  0
 10 11  2  0
 11 12  1  0
 12 13  1  0
 13 14  1  0
 14 15  2  0
 15 16  1  0
 16 17  2  0
 17 18  1  0
 18 19  1  0
 19 20  2  0
 19 21  1  0
 21 22  1  0
 22 23  1  0
 23 24  2  0
 24 25  1  0
 25 26  2  0
 26 27  1  0
 27 28  2  0
 18 29  2  0
 13 30  2  0
  5 31  1  0
 31 32  1  0
 32  2  1  0
 11  6  1  0
 29 14  1  0
 30 10  1  0
 28 23  1  0
  1 33  1  0
  1 34  1  0
  1 35  1  0
  3 36  1  0
  3 37  1  0
  4 38  1  0
  4 39  1  0
  7 40  1  0
  8 41  1  0
  9 42  1  0
 12 43  1  0
 12 44  1  0
 15 45  1  0
 16 46  1  0
 17 47  1  0
 21 48  1  0
 22 49  1  0
 22 50  1  0
 24 51  1  0
 25 52  1  0
 26 53  1  0
 27 54  1  0
 28 55  1  0
 29 56  1  0
 31 57  1  0
 31 58  1  0
 32 59  1  0
 32 60  1  0
M  END
>  <smiles>  (46) 
CN1CCN(c2cccc3c2CC(c2cccc(C(=O)NCc4ccccc4)c2)=N3)CC1

>  <score_type>  (46) 
oracle

>  <origin>  (46) 
autodockgpu

>  <m_score__min__energy>  (46) 
-9.5899999999999999

>  <m_primary>  (46) 
energy

>  <rmsd>  (46) 
8.248820745065986

>  <m_score__min__rmsd>  (46) 
8.248820745065986

>  <meeko>  (46) 
{"free_energy": -9.12, "intermolecular_energy": -10.61, "internal_energy": -1.31, "cluster_size": 10, "cluster_id": 4, "rank_in_cluster": 8}

>  <energy>  (46) 
-9.14

>  <cluster_rmsd>  (46) 
0.06

>  <cluster>  (46) 
4

$$$$

     RDKit          3D

 60 64  0  0  0  0  0  0  0  0999 V2000
  139.1950   69.6870  228.7060 C   0  0  0  0  0  0  0  0  0  0  0  0
  140.6010   69.6460  228.3860 N   0  0  0  0  0  0  0  0  0  0  0  0
  141.0740   70.8620  227.7960 C   0  0  0  0  0  0  0  0  0  0  0  0
  140.8450   70.9940  226.3270 C   0  0  0  0  0  0  0  0  0  0  0  0
  140.1210   69.9050  225.7270 N   0  0  0  0  0  0  0  0  0  0  0  0
  139.1970   70.0890  224.6440 C   0  0  0  0  0  0  0  0  0  0  0  0
  137.9710   69.4530  224.6300 C   0  0  0  0  0  0  0  0  0  0  0  0
  137.0830   69.6330  223.5820 C   0  0  0  0  0  0  0  0  0  0  0  0
  137.4280   70.4710  222.5230 C   0  0  0  0  0  0  0  0  0  0  0  0
  138.6600   71.1020  222.5520 C   0  0  0  0  0  0  0  0  0  0  0  0
  139.5500   70.9210  223.6020 C   0  0  0  0  0  0  0  0  0  0  0  0
  140.7340   71.7310  223.2990 C   0  0  0  0  0  0  0  0  0  0  0  0
  140.4040   72.3730  221.9820 C   0  0  0  0  0  0  0  0  0  0  0  0
  141.3160   73.2910  221.2700 C   0  0  0  0  0  0  0  0  0  0  0  0
  142.4840   72.8330  220.6930 C   0  0  0  0  0  0  0  0  0  0  0  0
  143.2770   73.7730  220.0430 C   0  0  0  0  0  0  0  0  0  0  0  0
  142.9280   75.1010  219.9720 C   0  0  0  0  0  0  0  0  0  0  0  0
  141.7610   75.5590  220.5490 C   0  0  0  0  0  0  0  0  0  0  0  0
  141.3450   76.9580  220.5020 C   0  0  0  0  0  0  0  0  0  0  0  0
  140.1710   77.2550  220.8340 O   0  0  0  0  0  0  0  0  0  0  0  0
  142.2000   78.0150  220.1000 N   0  0  0  0  0  0  0  0  0  0  0  0
  141.8250   79.4000  220.0430 C   0  0  0  0  0  0  0  0  0  0  0  0
  141.9090   80.1280  221.3100 C   0  0  0  0  0  0  0  0  0  0  0  0
  142.5180   79.5030  222.3940 C   0  0  0  0  0  0  0  0  0  0  0  0
  142.6470   80.1120  223.6250 C   0  0  0  0  0  0  0  0  0  0  0  0
  142.1650   81.3880  223.8260 C   0  0  0  0  0  0  0  0  0  0  0  0
  141.5640   82.0080  222.7590 C   0  0  0  0  0  0  0  0  0  0  0  0
  141.4350   81.4020  221.5300 C   0  0  0  0  0  0  0  0  0  0  0  0
  140.9790   74.6260  221.1910 C   0  0  0  0  0  0  0  0  0  0  0  0
  139.2270   71.9890  221.6010 N   0  0  0  0  0  0  0  0  0  0  0  0
  140.2990   68.5440  226.2020 C   0  0  0  0  0  0  0  0  0  0  0  0
  140.9850   68.5350  227.5650 C   0  0  0  0  0  0  0  0  0  0  0  0
  139.0676   69.6907  229.7986 H   0  0  0  0  0  0  0  0  0  0  0  0
  138.7488   70.5985  228.2817 H   0  0  0  0  0  0  0  0  0  0  0  0
  138.6965   68.8030  228.2817 H   0  0  0  0  0  0  0  0  0  0  0  0
  140.5666   71.7008  228.2950 H   0  0  0  0  0  0  0  0  0  0  0  0
  142.1654   70.8600  227.9329 H   0  0  0  0  0  0  0  0  0  0  0  0
  140.2774   71.9197  226.1514 H   0  0  0  0  0  0  0  0  0  0  0  0
  141.8403   70.9983  225.8585 H   0  0  0  0  0  0  0  0  0  0  0  0
  137.6950   68.7924  225.4651 H   0  0  0  0  0  0  0  0  0  0  0  0
  136.1112   69.1176  223.5856 H   0  0  0  0  0  0  0  0  0  0  0  0
  136.7362   70.6277  221.6822 H   0  0  0  0  0  0  0  0  0  0  0  0
  140.8967   72.4925  224.0759 H   0  0  0  0  0  0  0  0  0  0  0  0
  141.6578   71.1350  223.2611 H   0  0  0  0  0  0  0  0  0  0  0  0
  142.7741   71.7732  220.7450 H   0  0  0  0  0  0  0  0  0  0  0  0
  144.2139   73.4431  219.5704 H   0  0  0  0  0  0  0  0  0  0  0  0
  143.5880   75.8081  219.4481 H   0  0  0  0  0  0  0  0  0  0  0  0
  143.1760   77.7700  219.8230 H   0  0  0  0  0  0  0  0  0  0  0  0
  142.4858   79.9006  219.3200 H   0  0  0  0  0  0  0  0  0  0  0  0
  140.7631   79.4139  219.7564 H   0  0  0  0  0  0  0  0  0  0  0  0
  142.9117   78.4841  222.2642 H   0  0  0  0  0  0  0  0  0  0  0  0
  143.1374   79.5764  224.4512 H   0  0  0  0  0  0  0  0  0  0  0  0
  142.2582   81.8885  224.8011 H   0  0  0  0  0  0  0  0  0  0  0  0
  141.1709   83.0269  222.8910 H   0  0  0  0  0  0  0  0  0  0  0  0
  140.9445   81.9451  220.7088 H   0  0  0  0  0  0  0  0  0  0  0  0
  140.0430   74.9602  221.6624 H   0  0  0  0  0  0  0  0  0  0  0  0
  139.3149   68.0603  226.2896 H   0  0  0  0  0  0  0  0  0  0  0  0
  140.9294   67.9982  225.4846 H   0  0  0  0  0  0  0  0  0  0  0  0
  140.7190   67.6037  228.0865 H   0  0  0  0  0  0  0  0  0  0  0  0
  142.0687   68.6094  227.3916 H   0  0  0  0  0  0  0  0  0  0  0  0
  1  2  1  0
  2  3  1  0
  3  4  1  0
  4  5  1  0
  5  6  1  0
  6  7  2  0
  7  8  1  0
  8  9  2  0
  9 10  1  0
 10 11  2  0
 11 12  1  0
 12 13  1  0
 13 14  1  0
 14 15  2  0
 15 16  1  0
 16 17  2  0
 17 18  1  0
 18 19  1  0
 19 20  2  0
 19 21  1  0
 21 22  1  0
 22 23  1  0
 23 24  2  0
 24 25  1  0
 25 26  2  0
 26 27  1  0
 27 28  2  0
 18 29  2  0
 13 30  2  0
  5 31  1  0
 31 32  1  0
 32  2  1  0
 11  6  1  0
 29 14  1  0
 30 10  1  0
 28 23  1  0
  1 33  1  0
  1 34  1  0
  1 35  1  0
  3 36  1  0
  3 37  1  0
  4 38  1  0
  4 39  1  0
  7 40  1  0
  8 41  1  0
  9 42  1  0
 12 43  1  0
 12 44  1  0
 15 45  1  0
 16 46  1  0
 17 47  1  0
 21 48  1  0
 22 49  1  0
 22 50  1  0
 24 51  1  0
 25 52  1  0
 26 53  1  0
 27 54  1  0
 28 55  1  0
 29 56  1  0
 31 57  1  0
 31 58  1  0
 32 59  1  0
 32 60  1  0
M  END
>  <smiles>  (47) 
CN1CCN(c2cccc3c2CC(c2cccc(C(=O)NCc4ccccc4)c2)=N3)CC1

>  <score_type>  (47) 
oracle

>  <origin>  (47) 
autodockgpu

>  <m_score__min__energy>  (47) 
-9.5899999999999999

>  <m_primary>  (47) 
energy

>  <rmsd>  (47) 
8.68169683715119

>  <m_score__min__rmsd>  (47) 
8.68169683715119

>  <meeko>  (47) 
{"free_energy": -9.44, "intermolecular_energy": -10.93, "internal_energy": -1.18, "cluster_size": 6, "cluster_id": 2, "rank_in_cluster": 1}

>  <energy>  (47) 
-9.12

>  <cluster_rmsd>  (47) 
0.51

>  <cluster>  (47) 
4

$$$$

     RDKit          3D

 60 64  0  0  0  0  0  0  0  0999 V2000
  136.1670   79.4420  223.1050 C   0  0  0  0  0  0  0  0  0  0  0  0
  136.0640   80.8390  223.4470 N   0  0  0  0  0  0  0  0  0  0  0  0
  136.6200   81.7000  222.4480 C   0  0  0  0  0  0  0  0  0  0  0  0
  138.0980   81.8940  222.5200 C   0  0  0  0  0  0  0  0  0  0  0  0
  138.7600   81.1330  223.5450 N   0  0  0  0  0  0  0  0  0  0  0  0
  140.0760   80.5840  223.3790 C   0  0  0  0  0  0  0  0  0  0  0  0
  141.2030   81.3000  223.7300 C   0  0  0  0  0  0  0  0  0  0  0  0
  142.4700   80.7660  223.5670 C   0  0  0  0  0  0  0  0  0  0  0  0
  142.6160   79.4840  223.0410 C   0  0  0  0  0  0  0  0  0  0  0  0
  141.4760   78.7780  222.6930 C   0  0  0  0  0  0  0  0  0  0  0  0
  140.2060   79.3130  222.8560 C   0  0  0  0  0  0  0  0  0  0  0  0
  139.2550   78.3000  222.3900 C   0  0  0  0  0  0  0  0  0  0  0  0
  140.1290   77.1590  221.9560 C   0  0  0  0  0  0  0  0  0  0  0  0
  139.6050   75.8930  221.4030 C   0  0  0  0  0  0  0  0  0  0  0  0
  138.7360   75.8880  220.3300 C   0  0  0  0  0  0  0  0  0  0  0  0
  138.2980   74.6480  219.8790 C   0  0  0  0  0  0  0  0  0  0  0  0
  138.7020   73.4710  220.4650 C   0  0  0  0  0  0  0  0  0  0  0  0
  139.5710   73.4760  221.5380 C   0  0  0  0  0  0  0  0  0  0  0  0
  140.0300   72.2560  222.1960 C   0  0  0  0  0  0  0  0  0  0  0  0
  140.9060   71.5540  221.6340 O   0  0  0  0  0  0  0  0  0  0  0  0
  139.5380   71.8120  223.4500 N   0  0  0  0  0  0  0  0  0  0  0  0
  139.9670   70.6200  224.1260 C   0  0  0  0  0  0  0  0  0  0  0  0
  140.3160   70.7880  225.5380 C   0  0  0  0  0  0  0  0  0  0  0  0
  141.0550   71.9060  225.9090 C   0  0  0  0  0  0  0  0  0  0  0  0
  141.4260   72.1500  227.2150 C   0  0  0  0  0  0  0  0  0  0  0  0
  141.0690   71.2720  228.2170 C   0  0  0  0  0  0  0  0  0  0  0  0
  140.3400   70.1670  227.8540 C   0  0  0  0  0  0  0  0  0  0  0  0
  139.9690   69.9230  226.5520 C   0  0  0  0  0  0  0  0  0  0  0  0
  140.0020   74.7060  221.9810 C   0  0  0  0  0  0  0  0  0  0  0  0
  141.3710   77.4740  222.1460 N   0  0  0  0  0  0  0  0  0  0  0  0
  138.1100   80.8820  224.8190 C   0  0  0  0  0  0  0  0  0  0  0  0
  136.6150   81.1730  224.7270 C   0  0  0  0  0  0  0  0  0  0  0  0
  136.2113   78.8414  224.0255 H   0  0  0  0  0  0  0  0  0  0  0  0
  135.2884   79.1434  222.5143 H   0  0  0  0  0  0  0  0  0  0  0  0
  137.0799   79.2755  222.5143 H   0  0  0  0  0  0  0  0  0  0  0  0
  136.3813   81.2743  221.4622 H   0  0  0  0  0  0  0  0  0  0  0  0
  136.1756   82.6912  222.6211 H   0  0  0  0  0  0  0  0  0  0  0  0
  138.5280   81.6061  221.5493 H   0  0  0  0  0  0  0  0  0  0  0  0
  138.2580   82.9531  222.7706 H   0  0  0  0  0  0  0  0  0  0  0  0
  141.0925   82.3122  224.1463 H   0  0  0  0  0  0  0  0  0  0  0  0
  143.3571   81.3510  223.8514 H   0  0  0  0  0  0  0  0  0  0  0  0
  143.6142   79.0424  222.9051 H   0  0  0  0  0  0  0  0  0  0  0  0
  138.5824   77.9906  223.2035 H   0  0  0  0  0  0  0  0  0  0  0  0
  138.6043   78.6676  221.5829 H   0  0  0  0  0  0  0  0  0  0  0  0
  138.4052   76.8227  219.8536 H   0  0  0  0  0  0  0  0  0  0  0  0
  137.6055   74.6068  219.0253 H   0  0  0  0  0  0  0  0  0  0  0  0
  138.3279   72.5134  220.0738 H   0  0  0  0  0  0  0  0  0  0  0  0
  138.8090   72.3950  223.9180 H   0  0  0  0  0  0  0  0  0  0  0  0
  139.1528   69.8830  224.0634 H   0  0  0  0  0  0  0  0  0  0  0  0
  140.8916   70.3025  223.6217 H   0  0  0  0  0  0  0  0  0  0  0  0
  141.3553   72.6234  225.1311 H   0  0  0  0  0  0  0  0  0  0  0  0
  142.0098   73.0499  227.4587 H   0  0  0  0  0  0  0  0  0  0  0  0
  141.3566   71.4499  229.2637 H   0  0  0  0  0  0  0  0  0  0  0  0
  140.0414   69.4501  228.6330 H   0  0  0  0  0  0  0  0  0  0  0  0
  139.3849   69.0211  226.3166 H   0  0  0  0  0  0  0  0  0  0  0  0
  140.6945   74.7435  222.8348 H   0  0  0  0  0  0  0  0  0  0  0  0
  138.2564   79.8281  225.0979 H   0  0  0  0  0  0  0  0  0  0  0  0
  138.5532   81.5424  225.5789 H   0  0  0  0  0  0  0  0  0  0  0  0
  136.0943   80.5864  225.4982 H   0  0  0  0  0  0  0  0  0  0  0  0
  136.4773   82.2541  224.8760 H   0  0  0  0  0  0  0  0  0  0  0  0
  1  2  1  0
  2  3  1  0
  3  4  1  0
  4  5  1  0
  5  6  1  0
  6  7  2  0
  7  8  1  0
  8  9  2  0
  9 10  1  0
 10 11  2  0
 11 12  1  0
 12 13  1  0
 13 14  1  0
 14 15  2  0
 15 16  1  0
 16 17  2  0
 17 18  1  0
 18 19  1  0
 19 20  2  0
 19 21  1  0
 21 22  1  0
 22 23  1  0
 23 24  2  0
 24 25  1  0
 25 26  2  0
 26 27  1  0
 27 28  2  0
 18 29  2  0
 13 30  2  0
  5 31  1  0
 31 32  1  0
 32  2  1  0
 11  6  1  0
 29 14  1  0
 30 10  1  0
 28 23  1  0
  1 33  1  0
  1 34  1  0
  1 35  1  0
  3 36  1  0
  3 37  1  0
  4 38  1  0
  4 39  1  0
  7 40  1  0
  8 41  1  0
  9 42  1  0
 12 43  1  0
 12 44  1  0
 15 45  1  0
 16 46  1  0
 17 47  1  0
 21 48  1  0
 22 49  1  0
 22 50  1  0
 24 51  1  0
 25 52  1  0
 26 53  1  0
 27 54  1  0
 28 55  1  0
 29 56  1  0
 31 57  1  0
 31 58  1  0
 32 59  1  0
 32 60  1  0
M  END
>  <smiles>  (48) 
CN1CCN(c2cccc3c2CC(c2cccc(C(=O)NCc4ccccc4)c2)=N3)CC1

>  <score_type>  (48) 
oracle

>  <origin>  (48) 
autodockgpu

>  <m_score__min__energy>  (48) 
-9.5899999999999999

>  <m_primary>  (48) 
energy

>  <rmsd>  (48) 
8.283469102555632

>  <m_score__min__rmsd>  (48) 
8.283469102555632

>  <meeko>  (48) 
{"free_energy": -9.18, "intermolecular_energy": -10.67, "internal_energy": -1.29, "cluster_size": 10, "cluster_id": 4, "rank_in_cluster": 2}

>  <energy>  (48) 
-9.12

>  <cluster_rmsd>  (48) 
0.44

>  <cluster>  (48) 
4

$$$$

     RDKit          3D

 60 64  0  0  0  0  0  0  0  0999 V2000
  141.6910   78.8330  223.7840 C   0  0  0  0  0  0  0  0  0  0  0  0
  140.9380   80.0600  223.8640 N   0  0  0  0  0  0  0  0  0  0  0  0
  139.7220   80.0190  223.1090 C   0  0  0  0  0  0  0  0  0  0  0  0
  139.8620   80.3160  221.6530 C   0  0  0  0  0  0  0  0  0  0  0  0
  141.2110   80.5370  221.2070 N   0  0  0  0  0  0  0  0  0  0  0  0
  141.6790   80.1270  219.9120 C   0  0  0  0  0  0  0  0  0  0  0  0
  141.8390   81.0360  218.8860 C   0  0  0  0  0  0  0  0  0  0  0  0
  142.2900   80.6350  217.6390 C   0  0  0  0  0  0  0  0  0  0  0  0
  142.5890   79.2930  217.4130 C   0  0  0  0  0  0  0  0  0  0  0  0
  142.4230   78.3930  218.4530 C   0  0  0  0  0  0  0  0  0  0  0  0
  141.9710   78.7950  219.7020 C   0  0  0  0  0  0  0  0  0  0  0  0
  141.9190   77.5940  220.5400 C   0  0  0  0  0  0  0  0  0  0  0  0
  142.3860   76.4970  219.6290 C   0  0  0  0  0  0  0  0  0  0  0  0
  142.4990   75.0840  220.0420 C   0  0  0  0  0  0  0  0  0  0  0  0
  143.5250   74.2840  219.5780 C   0  0  0  0  0  0  0  0  0  0  0  0
  143.5480   72.9670  220.0240 C   0  0  0  0  0  0  0  0  0  0  0  0
  142.5990   72.4680  220.8850 C   0  0  0  0  0  0  0  0  0  0  0  0
  141.5740   73.2680  221.3490 C   0  0  0  0  0  0  0  0  0  0  0  0
  140.5410   72.7890  222.2640 C   0  0  0  0  0  0  0  0  0  0  0  0
  139.4550   73.4130  222.3350 O   0  0  0  0  0  0  0  0  0  0  0  0
  140.6960   71.6450  223.0880 N   0  0  0  0  0  0  0  0  0  0  0  0
  139.7030   71.1460  223.9970 C   0  0  0  0  0  0  0  0  0  0  0  0
  140.1710   70.8820  225.3590 C   0  0  0  0  0  0  0  0  0  0  0  0
  140.1510   69.5710  225.8240 C   0  0  0  0  0  0  0  0  0  0  0  0
  140.5760   69.2270  227.0900 C   0  0  0  0  0  0  0  0  0  0  0  0
  141.0440   70.1940  227.9560 C   0  0  0  0  0  0  0  0  0  0  0  0
  141.0640   71.4890  227.5000 C   0  0  0  0  0  0  0  0  0  0  0  0
  140.6400   71.8330  226.2370 C   0  0  0  0  0  0  0  0  0  0  0  0
  141.5550   74.5700  220.9050 C   0  0  0  0  0  0  0  0  0  0  0  0
  142.6590   76.9950  218.4640 N   0  0  0  0  0  0  0  0  0  0  0  0
  142.1780   81.1990  222.0640 C   0  0  0  0  0  0  0  0  0  0  0  0
  141.6830   81.2320  223.5070 C   0  0  0  0  0  0  0  0  0  0  0  0
  141.9126   78.4719  224.7991 H   0  0  0  0  0  0  0  0  0  0  0  0
  141.1019   78.0757  223.2459 H   0  0  0  0  0  0  0  0  0  0  0  0
  142.6329   79.0153  223.2459 H   0  0  0  0  0  0  0  0  0  0  0  0
  139.2937   79.0109  223.2100 H   0  0  0  0  0  0  0  0  0  0  0  0
  139.0829   80.8142  223.5204 H   0  0  0  0  0  0  0  0  0  0  0  0
  139.4510   79.4653  221.0897 H   0  0  0  0  0  0  0  0  0  0  0  0
  139.3208   81.2573  221.4768 H   0  0  0  0  0  0  0  0  0  0  0  0
  141.6046   82.0964  219.0612 H   0  0  0  0  0  0  0  0  0  0  0  0
  142.4114   81.3721  216.8316 H   0  0  0  0  0  0  0  0  0  0  0  0
  142.9491   78.9554  216.4299 H   0  0  0  0  0  0  0  0  0  0  0  0
  142.5877   77.6932  221.4078 H   0  0  0  0  0  0  0  0  0  0  0  0
  140.9157   77.4063  220.9500 H   0  0  0  0  0  0  0  0  0  0  0  0
  144.2888   74.6709  218.8874 H   0  0  0  0  0  0  0  0  0  0  0  0
  144.3524   72.3021  219.6764 H   0  0  0  0  0  0  0  0  0  0  0  0
  142.6573   71.4181  221.2081 H   0  0  0  0  0  0  0  0  0  0  0  0
  141.6000   71.1250  223.0300 H   0  0  0  0  0  0  0  0  0  0  0  0
  138.8931   71.8881  224.0548 H   0  0  0  0  0  0  0  0  0  0  0  0
  139.3853   70.1734  223.5930 H   0  0  0  0  0  0  0  0  0  0  0  0
  139.7821   68.7785  225.1563 H   0  0  0  0  0  0  0  0  0  0  0  0
  140.5417   68.1756  227.4114 H   0  0  0  0  0  0  0  0  0  0  0  0
  141.3868   69.9381  228.9694 H   0  0  0  0  0  0  0  0  0  0  0  0
  141.4325   72.2806  228.1690 H   0  0  0  0  0  0  0  0  0  0  0  0
  140.6764   72.8867  225.9233 H   0  0  0  0  0  0  0  0  0  0  0  0
  140.7489   75.2317  221.2550 H   0  0  0  0  0  0  0  0  0  0  0  0
  143.1321   80.6532  222.0215 H   0  0  0  0  0  0  0  0  0  0  0  0
  142.3147   82.2323  221.7123 H   0  0  0  0  0  0  0  0  0  0  0  0
  142.5528   81.3132  224.1755 H   0  0  0  0  0  0  0  0  0  0  0  0
  141.0102   82.0964  223.6075 H   0  0  0  0  0  0  0  0  0  0  0  0
  1  2  1  0
  2  3  1  0
  3  4  1  0
  4  5  1  0
  5  6  1  0
  6  7  2  0
  7  8  1  0
  8  9  2  0
  9 10  1  0
 10 11  2  0
 11 12  1  0
 12 13  1  0
 13 14  1  0
 14 15  2  0
 15 16  1  0
 16 17  2  0
 17 18  1  0
 18 19  1  0
 19 20  2  0
 19 21  1  0
 21 22  1  0
 22 23  1  0
 23 24  2  0
 24 25  1  0
 25 26  2  0
 26 27  1  0
 27 28  2  0
 18 29  2  0
 13 30  2  0
  5 31  1  0
 31 32  1  0
 32  2  1  0
 11  6  1  0
 29 14  1  0
 30 10  1  0
 28 23  1  0
  1 33  1  0
  1 34  1  0
  1 35  1  0
  3 36  1  0
  3 37  1  0
  4 38  1  0
  4 39  1  0
  7 40  1  0
  8 41  1  0
  9 42  1  0
 12 43  1  0
 12 44  1  0
 15 45  1  0
 16 46  1  0
 17 47  1  0
 21 48  1  0
 22 49  1  0
 22 50  1  0
 24 51  1  0
 25 52  1  0
 26 53  1  0
 27 54  1  0
 28 55  1  0
 29 56  1  0
 31 57  1  0
 31 58  1  0
 32 59  1  0
 32 60  1  0
M  END
>  <smiles>  (49) 
CN1CCN(c2cccc3c2CC(c2cccc(C(=O)NCc4ccccc4)c2)=N3)CC1

>  <score_type>  (49) 
oracle

>  <origin>  (49) 
autodockgpu

>  <m_score__min__energy>  (49) 
-9.5899999999999999

>  <m_primary>  (49) 
energy

>  <rmsd>  (49) 
7.6746247126922436

>  <m_score__min__rmsd>  (49) 
7.6746247126922436

>  <meeko>  (49) 
{"free_energy": -9.55, "intermolecular_energy": -11.04, "internal_energy": -1.29, "cluster_size": 30, "cluster_id": 1, "rank_in_cluster": 10}

>  <energy>  (49) 
-9.11

>  <cluster_rmsd>  (49) 
0.59

>  <cluster>  (49) 
4

$$$$

     RDKit          3D

 60 64  0  0  0  0  0  0  0  0999 V2000
  141.5200   78.8670  223.7320 C   0  0  0  0  0  0  0  0  0  0  0  0
  140.8500   80.1390  223.8540 N   0  0  0  0  0  0  0  0  0  0  0  0
  139.6460   80.2110  223.0820 C   0  0  0  0  0  0  0  0  0  0  0  0
  139.8280   80.5560  221.6420 C   0  0  0  0  0  0  0  0  0  0  0  0
  141.1960   80.7030  221.2220 N   0  0  0  0  0  0  0  0  0  0  0  0
  141.6540   80.3140  219.9180 C   0  0  0  0  0  0  0  0  0  0  0  0
  141.7790   81.2350  218.8970 C   0  0  0  0  0  0  0  0  0  0  0  0
  142.2220   80.8550  217.6400 C   0  0  0  0  0  0  0  0  0  0  0  0
  142.5480   79.5210  217.3990 C   0  0  0  0  0  0  0  0  0  0  0  0
  142.4180   78.6100  218.4330 C   0  0  0  0  0  0  0  0  0  0  0  0
  141.9740   78.9910  219.6920 C   0  0  0  0  0  0  0  0  0  0  0  0
  141.9610   77.7820  220.5210 C   0  0  0  0  0  0  0  0  0  0  0  0
  142.4410   76.7040  219.5930 C   0  0  0  0  0  0  0  0  0  0  0  0
  142.5920   75.2900  219.9930 C   0  0  0  0  0  0  0  0  0  0  0  0
  143.6560   74.5310  219.5460 C   0  0  0  0  0  0  0  0  0  0  0  0
  143.7140   73.2100  219.9770 C   0  0  0  0  0  0  0  0  0  0  0  0
  142.7610   72.6690  220.8090 C   0  0  0  0  0  0  0  0  0  0  0  0
  141.6980   73.4270  221.2560 C   0  0  0  0  0  0  0  0  0  0  0  0
  140.6600   72.9020  222.1390 C   0  0  0  0  0  0  0  0  0  0  0  0
  139.6350   73.5940  222.3510 O   0  0  0  0  0  0  0  0  0  0  0  0
  140.7440   71.6400  222.7800 N   0  0  0  0  0  0  0  0  0  0  0  0
  139.7440   71.0920  223.6520 C   0  0  0  0  0  0  0  0  0  0  0  0
  140.1190   71.0030  225.0640 C   0  0  0  0  0  0  0  0  0  0  0  0
  139.6290   69.9380  225.8140 C   0  0  0  0  0  0  0  0  0  0  0  0
  139.9320   69.7700  227.1490 C   0  0  0  0  0  0  0  0  0  0  0  0
  140.7490   70.6720  227.7980 C   0  0  0  0  0  0  0  0  0  0  0  0
  141.2340   71.7230  227.0610 C   0  0  0  0  0  0  0  0  0  0  0  0
  140.9330   71.8930  225.7290 C   0  0  0  0  0  0  0  0  0  0  0  0
  141.6450   74.7340  220.8270 C   0  0  0  0  0  0  0  0  0  0  0  0
  142.6850   77.2170  218.4300 N   0  0  0  0  0  0  0  0  0  0  0  0
  142.1920   81.2620  222.1180 C   0  0  0  0  0  0  0  0  0  0  0  0
  141.6780   81.2700  223.5550 C   0  0  0  0  0  0  0  0  0  0  0  0
  141.7311   78.4662  224.7344 H   0  0  0  0  0  0  0  0  0  0  0  0
  140.8752   78.1640  223.1843 H   0  0  0  0  0  0  0  0  0  0  0  0
  142.4645   79.0011  223.1843 H   0  0  0  0  0  0  0  0  0  0  0  0
  139.1494   79.2310  223.1359 H   0  0  0  0  0  0  0  0  0  0  0  0
  139.0557   81.0307  223.5175 H   0  0  0  0  0  0  0  0  0  0  0  0
  139.3694   79.7584  221.0391 H   0  0  0  0  0  0  0  0  0  0  0  0
  139.3542   81.5382  221.4981 H   0  0  0  0  0  0  0  0  0  0  0  0
  141.5227   82.2882  219.0844 H   0  0  0  0  0  0  0  0  0  0  0  0
  142.3158   81.6013  216.8374 H   0  0  0  0  0  0  0  0  0  0  0  0
  142.9011   79.1993  216.4081 H   0  0  0  0  0  0  0  0  0  0  0  0
  142.6391   77.8893  221.3805 H   0  0  0  0  0  0  0  0  0  0  0  0
  140.9683   77.5675  220.9436 H   0  0  0  0  0  0  0  0  0  0  0  0
  144.4228   74.9524  218.8793 H   0  0  0  0  0  0  0  0  0  0  0  0
  144.5489   72.5771  219.6418 H   0  0  0  0  0  0  0  0  0  0  0  0
  142.8476   71.6181  221.1221 H   0  0  0  0  0  0  0  0  0  0  0  0
  141.5970   71.0640  222.6050 H   0  0  0  0  0  0  0  0  0  0  0  0
  138.8471   71.7247  223.5788 H   0  0  0  0  0  0  0  0  0  0  0  0
  139.5851   70.0567  223.3161 H   0  0  0  0  0  0  0  0  0  0  0  0
  138.9750   69.2021  225.3233 H   0  0  0  0  0  0  0  0  0  0  0  0
  139.5196   68.9115  227.6994 H   0  0  0  0  0  0  0  0  0  0  0  0
  141.0013   70.5538  228.8621 H   0  0  0  0  0  0  0  0  0  0  0  0
  141.8882   72.4574  227.5536 H   0  0  0  0  0  0  0  0  0  0  0  0
  141.3496   72.7543  225.1862 H   0  0  0  0  0  0  0  0  0  0  0  0
  140.8088   75.3637  221.1650 H   0  0  0  0  0  0  0  0  0  0  0  0
  143.1075   80.6545  222.0649 H   0  0  0  0  0  0  0  0  0  0  0  0
  142.4037   82.2970  221.8114 H   0  0  0  0  0  0  0  0  0  0  0  0
  142.5409   81.2642  224.2371 H   0  0  0  0  0  0  0  0  0  0  0  0
  141.0638   82.1736  223.6825 H   0  0  0  0  0  0  0  0  0  0  0  0
  1  2  1  0
  2  3  1  0
  3  4  1  0
  4  5  1  0
  5  6  1  0
  6  7  2  0
  7  8  1  0
  8  9  2  0
  9 10  1  0
 10 11  2  0
 11 12  1  0
 12 13  1  0
 13 14  1  0
 14 15  2  0
 15 16  1  0
 16 17  2  0
 17 18  1  0
 18 19  1  0
 19 20  2  0
 19 21  1  0
 21 22  1  0
 22 23  1  0
 23 24  2  0
 24 25  1  0
 25 26  2  0
 26 27  1  0
 27 28  2  0
 18 29  2  0
 13 30  2  0
  5 31  1  0
 31 32  1  0
 32  2  1  0
 11  6  1  0
 29 14  1  0
 30 10  1  0
 28 23  1  0
  1 33  1  0
  1 34  1  0
  1 35  1  0
  3 36  1  0
  3 37  1  0
  4 38  1  0
  4 39  1  0
  7 40  1  0
  8 41  1  0
  9 42  1  0
 12 43  1  0
 12 44  1  0
 15 45  1  0
 16 46  1  0
 17 47  1  0
 21 48  1  0
 22 49  1  0
 22 50  1  0
 24 51  1  0
 25 52  1  0
 26 53  1  0
 27 54  1  0
 28 55  1  0
 29 56  1  0
 31 57  1  0
 31 58  1  0
 32 59  1  0
 32 60  1  0
M  END
>  <smiles>  (50) 
CN1CCN(c2cccc3c2CC(c2cccc(C(=O)NCc4ccccc4)c2)=N3)CC1

>  <score_type>  (50) 
oracle

>  <origin>  (50) 
autodockgpu

>  <m_score__min__energy>  (50) 
-9.5899999999999999

>  <m_primary>  (50) 
energy

>  <rmsd>  (50) 
7.809040341963146

>  <m_score__min__rmsd>  (50) 
7.809040341963146

>  <meeko>  (50) 
{"free_energy": -9.58, "intermolecular_energy": -11.07, "internal_energy": -1.33, "cluster_size": 30, "cluster_id": 1, "rank_in_cluster": 4}

>  <energy>  (50) 
-9.1

>  <cluster_rmsd>  (50) 
0.28

>  <cluster>  (50) 
4

$$$$
