
     RDKit          3D

 53 56  0  0  0  0  0  0  0  0999 V2000
  136.0050   71.7540  221.2700 O   0  0  0  0  0  0  0  0  0  0  0  0
  137.2090   71.9050  221.5660 C   0  0  0  0  0  0  0  0  0  0  0  0
  138.0940   72.6880  220.7760 N   0  0  0  0  0  0  0  0  0  0  0  0
  137.6410   73.3690  219.5550 C   0  0  0  0  0  0  0  0  0  0  0  0
  137.5900   74.8340  219.7610 C   0  0  0  0  0  0  0  0  0  0  0  0
  136.6910   75.5800  219.2840 O   0  0  0  0  0  0  0  0  0  0  0  0
  138.5950   75.4680  220.5360 N   0  0  0  0  0  0  0  0  0  0  0  0
  140.0390   75.2830  220.4970 C   0  0  0  0  0  0  0  0  0  0  0  0
  140.3480   75.0820  221.9560 C   0  0  2  0  0  0  0  0  0  0  0  0
  140.1740   73.7510  222.3470 O   0  0  0  0  0  0  0  0  0  0  0  0
  139.4160   76.0050  222.6730 C   0  0  0  0  0  0  0  0  0  0  0  0
  138.4260   76.4850  221.5920 C   0  0  1  0  0  0  0  0  0  0  0  0
  138.9620   77.8310  221.1670 C   0  0  0  0  0  0  0  0  0  0  0  0
  140.2450   78.0150  221.6420 O   0  0  0  0  0  0  0  0  0  0  0  0
  140.8230   78.9960  222.3700 C   0  0  0  0  0  0  0  0  0  0  0  0
  142.2240   79.0680  222.3510 C   0  0  0  0  0  0  0  0  0  0  0  0
  142.9200   80.0240  223.0500 C   0  0  0  0  0  0  0  0  0  0  0  0
  142.2640   80.9680  223.8110 C   0  0  0  0  0  0  0  0  0  0  0  0
  140.8920   80.9110  223.8390 C   0  0  0  0  0  0  0  0  0  0  0  0
  140.1930   79.9490  223.1350 C   0  0  0  0  0  0  0  0  0  0  0  0
  137.7600   71.2610  222.7760 C   0  0  0  0  0  0  0  0  0  0  0  0
  137.0250   70.2220  223.3600 C   0  0  0  0  0  0  0  0  0  0  0  0
  137.5660   69.6520  224.4750 C   0  0  0  0  0  0  0  0  0  0  0  0
  138.7500   70.0530  225.0090 C   0  0  0  0  0  0  0  0  0  0  0  0
  139.2320   69.4280  226.1360 C   0  0  0  0  0  0  0  0  0  0  0  0
  140.4310   69.8330  226.6780 C   0  0  0  0  0  0  0  0  0  0  0  0
  141.0360   69.0230  228.1270 Cl  0  0  0  0  0  0  0  0  0  0  0  0
  141.1590   70.8660  226.0950 C   0  0  0  0  0  0  0  0  0  0  0  0
  140.6820   71.5040  224.9560 C   0  0  0  0  0  0  0  0  0  0  0  0
  139.4600   71.0780  224.4200 C   0  0  0  0  0  0  0  0  0  0  0  0
  138.9260   71.6380  223.3230 N   0  0  0  0  0  0  0  0  0  0  0  0
  139.1060   72.7680  221.0950 H   0  0  0  0  0  0  0  0  0  0  0  0
  138.3395   73.1437  218.7356 H   0  0  0  0  0  0  0  0  0  0  0  0
  136.6312   73.0118  219.3048 H   0  0  0  0  0  0  0  0  0  0  0  0
  140.3164   74.4010  219.9011 H   0  0  0  0  0  0  0  0  0  0  0  0
  140.5879   76.1139  220.0298 H   0  0  0  0  0  0  0  0  0  0  0  0
  141.4001   75.3038  222.1880 H   0  0  0  0  0  0  0  0  0  0  0  0
  139.4140   73.7360  222.9780 H   0  0  0  0  0  0  0  0  0  0  0  0
  138.8848   75.4724  223.4756 H   0  0  0  0  0  0  0  0  0  0  0  0
  139.9468   76.8419  223.1504 H   0  0  0  0  0  0  0  0  0  0  0  0
  137.3678   76.5886  221.8740 H   0  0  0  0  0  0  0  0  0  0  0  0
  138.9719   77.8857  220.0684 H   0  0  0  0  0  0  0  0  0  0  0  0
  138.3142   78.6176  221.5813 H   0  0  0  0  0  0  0  0  0  0  0  0
  142.7850   78.3329  221.7553 H   0  0  0  0  0  0  0  0  0  0  0  0
  144.0189   80.0365  223.0018 H   0  0  0  0  0  0  0  0  0  0  0  0
  142.8168   81.7354  224.3728 H   0  0  0  0  0  0  0  0  0  0  0  0
  140.3362   81.6489  224.4362 H   0  0  0  0  0  0  0  0  0  0  0  0
  139.0943   79.9456  223.1885 H   0  0  0  0  0  0  0  0  0  0  0  0
  136.0648   69.8843  222.9429 H   0  0  0  0  0  0  0  0  0  0  0  0
  137.0200   68.8316  224.9636 H   0  0  0  0  0  0  0  0  0  0  0  0
  138.6628   68.6097  226.6012 H   0  0  0  0  0  0  0  0  0  0  0  0
  142.1162   71.1789  226.5376 H   0  0  0  0  0  0  0  0  0  0  0  0
  141.2492   72.3219  224.4878 H   0  0  0  0  0  0  0  0  0  0  0  0
  1  2  2  0
  2  3  1  0
  3  4  1  0
  4  5  1  0
  5  6  2  0
  5  7  1  0
  7  8  1  0
  8  9  1  0
  9 10  1  0
  9 11  1  0
 11 12  1  0
 12 13  1  0
 13 14  1  0
 14 15  1  0
 15 16  2  0
 16 17  1  0
 17 18  2  0
 18 19  1  0
 19 20  2  0
  2 21  1  0
 21 22  2  0
 22 23  1  0
 23 24  2  0
 24 25  1  0
 25 26  2  0
 26 27  1  0
 26 28  1  0
 28 29  2  0
 29 30  1  0
 30 31  2  0
 12  7  1  0
 20 15  1  0
 31 21  1  0
 30 24  1  0
  3 32  1  0
  4 33  1  0
  4 34  1  0
  8 35  1  0
  8 36  1  0
  9 37  1  6
 10 38  1  0
 11 39  1  0
 11 40  1  0
 12 41  1  1
 13 42  1  0
 13 43  1  0
 16 44  1  0
 17 45  1  0
 18 46  1  0
 19 47  1  0
 20 48  1  0
 22 49  1  0
 23 50  1  0
 25 51  1  0
 28 52  1  0
 29 53  1  0
M  END
>  <smiles>  (1) 
O=C(NCC(=O)N1C[C@H](O)C[C@H]1COc1ccccc1)c1ccc2cc(Cl)ccc2n1

>  <score_type>  (1) 
oracle

>  <origin>  (1) 
autodockgpu

>  <m_score__min__energy>  (1) 
-8.2599999999999998

>  <m_primary>  (1) 
energy

>  <rmsd>  (1) 
2.8647794105115203

>  <m_score__min__rmsd>  (1) 
2.8647794105115203

>  <meeko>  (1) 
{"free_energy": -7.04, "intermolecular_energy": -9.42, "internal_energy": -3.25, "cluster_size": 20, "cluster_id": 3, "rank_in_cluster": 14}

>  <energy>  (1) 
-8.26

>  <cluster_rmsd>  (1) 
0.0

>  <cluster>  (1) 
1

$$$$

     RDKit          3D

 53 56  0  0  0  0  0  0  0  0999 V2000
  139.3600   72.8110  220.6160 O   0  0  0  0  0  0  0  0  0  0  0  0
  140.3020   72.7680  221.4360 C   0  0  0  0  0  0  0  0  0  0  0  0
  141.4740   73.5580  221.2890 N   0  0  0  0  0  0  0  0  0  0  0  0
  141.6480   74.4770  220.1550 C   0  0  0  0  0  0  0  0  0  0  0  0
  143.0300   74.4050  219.6290 C   0  0  0  0  0  0  0  0  0  0  0  0
  143.6080   75.3580  219.0380 O   0  0  0  0  0  0  0  0  0  0  0  0
  143.7770   73.2070  219.7830 N   0  0  0  0  0  0  0  0  0  0  0  0
  144.7980   72.8820  220.7670 C   0  0  0  0  0  0  0  0  0  0  0  0
  145.8980   72.3570  219.8850 C   0  0  2  0  0  0  0  0  0  0  0  0
  146.6960   73.3870  219.3780 O   0  0  0  0  0  0  0  0  0  0  0  0
  145.1920   71.6070  218.8020 C   0  0  0  0  0  0  0  0  0  0  0  0
  143.7040   71.9780  218.9700 C   0  0  1  0  0  0  0  0  0  0  0  0
  143.1170   70.8240  219.7460 C   0  0  0  0  0  0  0  0  0  0  0  0
  144.1050   69.9300  220.1070 O   0  0  0  0  0  0  0  0  0  0  0  0
  144.3820   68.6620  219.7250 C   0  0  0  0  0  0  0  0  0  0  0  0
  145.7320   68.2850  219.6850 C   0  0  0  0  0  0  0  0  0  0  0  0
  146.1320   67.0250  219.3150 C   0  0  0  0  0  0  0  0  0  0  0  0
  145.2110   66.0610  218.9620 C   0  0  0  0  0  0  0  0  0  0  0  0
  143.8840   66.4150  218.9970 C   0  0  0  0  0  0  0  0  0  0  0  0
  143.4840   67.6840  219.3690 C   0  0  0  0  0  0  0  0  0  0  0  0
  140.2210   71.8760  222.6110 C   0  0  0  0  0  0  0  0  0  0  0  0
  139.6180   70.6230  222.4440 C   0  0  0  0  0  0  0  0  0  0  0  0
  139.5620   69.8290  223.5510 C   0  0  0  0  0  0  0  0  0  0  0  0
  140.0570   70.2080  224.7590 C   0  0  0  0  0  0  0  0  0  0  0  0
  139.9650   69.3490  225.8300 C   0  0  0  0  0  0  0  0  0  0  0  0
  140.4660   69.7320  227.0540 C   0  0  0  0  0  0  0  0  0  0  0  0
  140.3380   68.6190  228.4200 Cl  0  0  0  0  0  0  0  0  0  0  0  0
  141.0650   70.9780  227.2150 C   0  0  0  0  0  0  0  0  0  0  0  0
  141.1640   71.8530  226.1400 C   0  0  0  0  0  0  0  0  0  0  0  0
  140.6480   71.4450  224.9040 C   0  0  0  0  0  0  0  0  0  0  0  0
  140.7020   72.2270  223.8130 N   0  0  0  0  0  0  0  0  0  0  0  0
  142.2320   73.4660  222.0300 H   0  0  0  0  0  0  0  0  0  0  0  0
  140.9431   74.2023  219.3564 H   0  0  0  0  0  0  0  0  0  0  0  0
  141.4542   75.5036  220.4994 H   0  0  0  0  0  0  0  0  0  0  0  0
  145.1194   73.7744  221.3241 H   0  0  0  0  0  0  0  0  0  0  0  0
  144.4676   72.1772  221.5442 H   0  0  0  0  0  0  0  0  0  0  0  0
  146.5967   71.7123  220.4382 H   0  0  0  0  0  0  0  0  0  0  0  0
  146.0990   74.1580  219.2180 H   0  0  0  0  0  0  0  0  0  0  0  0
  145.5594   71.9177  217.8128 H   0  0  0  0  0  0  0  0  0  0  0  0
  145.3595   70.5221  218.8716 H   0  0  0  0  0  0  0  0  0  0  0  0
  143.1088   72.1417  218.0595 H   0  0  0  0  0  0  0  0  0  0  0  0
  142.6288   71.2093  220.6533 H   0  0  0  0  0  0  0  0  0  0  0  0
  142.3837   70.3055  219.1109 H   0  0  0  0  0  0  0  0  0  0  0  0
  146.4978   69.0253  219.9599 H   0  0  0  0  0  0  0  0  0  0  0  0
  147.2043   66.7803  219.2998 H   0  0  0  0  0  0  0  0  0  0  0  0
  145.5261   65.0499  218.6646 H   0  0  0  0  0  0  0  0  0  0  0  0
  143.1221   65.6706  218.7224 H   0  0  0  0  0  0  0  0  0  0  0  0
  142.4097   67.9199  219.3807 H   0  0  0  0  0  0  0  0  0  0  0  0
  139.2125   70.2978  221.4745 H   0  0  0  0  0  0  0  0  0  0  0  0
  139.0952   68.8369  223.4626 H   0  0  0  0  0  0  0  0  0  0  0  0
  139.4940   68.3623  225.7091 H   0  0  0  0  0  0  0  0  0  0  0  0
  141.4620   71.2715  228.1980 H   0  0  0  0  0  0  0  0  0  0  0  0
  141.6353   72.8400  226.2570 H   0  0  0  0  0  0  0  0  0  0  0  0
  1  2  2  0
  2  3  1  0
  3  4  1  0
  4  5  1  0
  5  6  2  0
  5  7  1  0
  7  8  1  0
  8  9  1  0
  9 10  1  0
  9 11  1  0
 11 12  1  0
 12 13  1  0
 13 14  1  0
 14 15  1  0
 15 16  2  0
 16 17  1  0
 17 18  2  0
 18 19  1  0
 19 20  2  0
  2 21  1  0
 21 22  2  0
 22 23  1  0
 23 24  2  0
 24 25  1  0
 25 26  2  0
 26 27  1  0
 26 28  1  0
 28 29  2  0
 29 30  1  0
 30 31  2  0
 12  7  1  0
 20 15  1  0
 31 21  1  0
 30 24  1  0
  3 32  1  0
  4 33  1  0
  4 34  1  0
  8 35  1  0
  8 36  1  0
  9 37  1  1
 10 38  1  0
 11 39  1  0
 11 40  1  0
 12 41  1  6
 13 42  1  0
 13 43  1  0
 16 44  1  0
 17 45  1  0
 18 46  1  0
 19 47  1  0
 20 48  1  0
 22 49  1  0
 23 50  1  0
 25 51  1  0
 28 52  1  0
 29 53  1  0
M  END
>  <smiles>  (2) 
O=C(NCC(=O)N1C[C@H](O)C[C@H]1COc1ccccc1)c1ccc2cc(Cl)ccc2n1

>  <score_type>  (2) 
oracle

>  <origin>  (2) 
autodockgpu

>  <m_score__min__energy>  (2) 
-8.2599999999999998

>  <m_primary>  (2) 
energy

>  <rmsd>  (2) 
4.3992238646918285

>  <m_score__min__rmsd>  (2) 
4.3992238646918285

>  <meeko>  (2) 
{"free_energy": -8.26, "intermolecular_energy": -10.65, "internal_energy": -1.93, "cluster_size": 2, "cluster_id": 1, "rank_in_cluster": 1}

>  <energy>  (2) 
-7.79

>  <cluster_rmsd>  (2) 
0.61

>  <cluster>  (2) 
1

$$$$

     RDKit          3D

 53 56  0  0  0  0  0  0  0  0999 V2000
  136.2500   70.9640  220.8260 O   0  0  0  0  0  0  0  0  0  0  0  0
  137.1290   71.5990  221.4460 C   0  0  0  0  0  0  0  0  0  0  0  0
  137.6120   72.8600  221.0020 N   0  0  0  0  0  0  0  0  0  0  0  0
  137.1010   73.4930  219.7780 C   0  0  0  0  0  0  0  0  0  0  0  0
  138.0360   74.5370  219.2990 C   0  0  0  0  0  0  0  0  0  0  0  0
  138.2060   74.8240  218.0820 O   0  0  0  0  0  0  0  0  0  0  0  0
  138.8010   75.2770  220.2390 N   0  0  0  0  0  0  0  0  0  0  0  0
  140.2370   75.2520  220.4770 C   0  0  0  0  0  0  0  0  0  0  0  0
  140.2830   75.0820  221.9720 C   0  0  2  0  0  0  0  0  0  0  0  0
  140.1840   73.7400  222.3470 O   0  0  0  0  0  0  0  0  0  0  0  0
  139.1380   75.8960  222.4820 C   0  0  0  0  0  0  0  0  0  0  0  0
  138.3250   76.2660  221.2240 C   0  0  1  0  0  0  0  0  0  0  0  0
  138.7820   77.6640  220.8840 C   0  0  0  0  0  0  0  0  0  0  0  0
  139.2670   78.3040  222.0070 O   0  0  0  0  0  0  0  0  0  0  0  0
  140.4050   78.9900  222.2530 C   0  0  0  0  0  0  0  0  0  0  0  0
  141.0330   78.7680  223.4880 C   0  0  0  0  0  0  0  0  0  0  0  0
  142.1950   79.4060  223.8460 C   0  0  0  0  0  0  0  0  0  0  0  0
  142.8040   80.3060  222.9980 C   0  0  0  0  0  0  0  0  0  0  0  0
  142.2020   80.5340  221.7840 C   0  0  0  0  0  0  0  0  0  0  0  0
  141.0330   79.8900  221.4250 C   0  0  0  0  0  0  0  0  0  0  0  0
  137.7040   71.0470  222.6900 C   0  0  0  0  0  0  0  0  0  0  0  0
  137.0610   69.9500  223.2790 C   0  0  0  0  0  0  0  0  0  0  0  0
  137.6210   69.4680  224.4250 C   0  0  0  0  0  0  0  0  0  0  0  0
  138.7400   70.0030  224.9840 C   0  0  0  0  0  0  0  0  0  0  0  0
  139.2460   69.4600  226.1420 C   0  0  0  0  0  0  0  0  0  0  0  0
  140.3790   70.0010  226.7080 C   0  0  0  0  0  0  0  0  0  0  0  0
  141.0160   69.2940  228.1970 Cl  0  0  0  0  0  0  0  0  0  0  0  0
  141.0140   71.0900  226.1190 C   0  0  0  0  0  0  0  0  0  0  0  0
  140.5120   71.6460  224.9490 C   0  0  0  0  0  0  0  0  0  0  0  0
  139.3590   71.0820  224.3890 C   0  0  0  0  0  0  0  0  0  0  0  0
  138.8050   71.5560  223.2600 N   0  0  0  0  0  0  0  0  0  0  0  0
  138.3620   73.3390  221.5850 H   0  0  0  0  0  0  0  0  0  0  0  0
  136.9841   72.7271  218.9971 H   0  0  0  0  0  0  0  0  0  0  0  0
  136.1312   73.9620  220.0007 H   0  0  0  0  0  0  0  0  0  0  0  0
  140.7165   74.4075  219.9604 H   0  0  0  0  0  0  0  0  0  0  0  0
  140.7713   76.1395  220.1070 H   0  0  0  0  0  0  0  0  0  0  0  0
  141.2414   75.4168  222.3956 H   0  0  0  0  0  0  0  0  0  0  0  0
  139.3780   73.6610  222.9140 H   0  0  0  0  0  0  0  0  0  0  0  0
  138.5248   75.3073  223.1801 H   0  0  0  0  0  0  0  0  0  0  0  0
  139.4750   76.7854  223.0346 H   0  0  0  0  0  0  0  0  0  0  0  0
  137.2276   76.2511  221.2981 H   0  0  0  0  0  0  0  0  0  0  0  0
  139.5781   77.6098  220.1268 H   0  0  0  0  0  0  0  0  0  0  0  0
  137.9243   78.2323  220.4950 H   0  0  0  0  0  0  0  0  0  0  0  0
  140.5784   78.0578  224.1943 H   0  0  0  0  0  0  0  0  0  0  0  0
  142.6476   79.1953  224.8262 H   0  0  0  0  0  0  0  0  0  0  0  0
  143.7339   80.8207  223.2815 H   0  0  0  0  0  0  0  0  0  0  0  0
  142.6610   81.2454  221.0817 H   0  0  0  0  0  0  0  0  0  0  0  0
  140.5893   80.1052  220.4417 H   0  0  0  0  0  0  0  0  0  0  0  0
  136.1560   69.5031  222.8417 H   0  0  0  0  0  0  0  0  0  0  0  0
  137.1466   68.6078  224.9199 H   0  0  0  0  0  0  0  0  0  0  0  0
  138.7489   68.5992  226.6130 H   0  0  0  0  0  0  0  0  0  0  0  0
  141.9179   71.5127  226.5820 H   0  0  0  0  0  0  0  0  0  0  0  0
  141.0070   72.5064  224.4751 H   0  0  0  0  0  0  0  0  0  0  0  0
  1  2  2  0
  2  3  1  0
  3  4  1  0
  4  5  1  0
  5  6  2  0
  5  7  1  0
  7  8  1  0
  8  9  1  0
  9 10  1  0
  9 11  1  0
 11 12  1  0
 12 13  1  0
 13 14  1  0
 14 15  1  0
 15 16  2  0
 16 17  1  0
 17 18  2  0
 18 19  1  0
 19 20  2  0
  2 21  1  0
 21 22  2  0
 22 23  1  0
 23 24  2  0
 24 25  1  0
 25 26  2  0
 26 27  1  0
 26 28  1  0
 28 29  2  0
 29 30  1  0
 30 31  2  0
 12  7  1  0
 20 15  1  0
 31 21  1  0
 30 24  1  0
  3 32  1  0
  4 33  1  0
  4 34  1  0
  8 35  1  0
  8 36  1  0
  9 37  1  1
 10 38  1  0
 11 39  1  0
 11 40  1  0
 12 41  1  1
 13 42  1  0
 13 43  1  0
 16 44  1  0
 17 45  1  0
 18 46  1  0
 19 47  1  0
 20 48  1  0
 22 49  1  0
 23 50  1  0
 25 51  1  0
 28 52  1  0
 29 53  1  0
M  END
>  <smiles>  (3) 
O=C(NCC(=O)N1C[C@H](O)C[C@H]1COc1ccccc1)c1ccc2cc(Cl)ccc2n1

>  <score_type>  (3) 
oracle

>  <origin>  (3) 
autodockgpu

>  <m_score__min__energy>  (3) 
-8.2599999999999998

>  <m_primary>  (3) 
energy

>  <rmsd>  (3) 
2.831846034579167

>  <m_score__min__rmsd>  (3) 
2.831846034579167

>  <meeko>  (3) 
{"free_energy": -6.84, "intermolecular_energy": -9.23, "internal_energy": -3.25, "cluster_size": 20, "cluster_id": 3, "rank_in_cluster": 19}

>  <energy>  (3) 
-8.22

>  <cluster_rmsd>  (3) 
0.0

>  <cluster>  (3) 
2

$$$$

     RDKit          3D

 53 56  0  0  0  0  0  0  0  0999 V2000
  133.7120   70.0940  226.5260 O   0  0  0  0  0  0  0  0  0  0  0  0
  134.0390   71.2200  226.0950 C   0  0  0  0  0  0  0  0  0  0  0  0
  135.0750   71.3950  225.1360 N   0  0  0  0  0  0  0  0  0  0  0  0
  135.8260   70.2540  224.5950 C   0  0  0  0  0  0  0  0  0  0  0  0
  136.8660   70.7150  223.6470 C   0  0  0  0  0  0  0  0  0  0  0  0
  136.8470   71.8390  223.0750 O   0  0  0  0  0  0  0  0  0  0  0  0
  137.9630   69.8660  223.3440 N   0  0  0  0  0  0  0  0  0  0  0  0
  139.2150   70.1870  222.6750 C   0  0  0  0  0  0  0  0  0  0  0  0
  139.2830   69.0950  221.6420 C   0  0  2  0  0  0  0  0  0  0  0  0
  138.5660   69.4250  220.4880 O   0  0  0  0  0  0  0  0  0  0  0  0
  138.7250   67.8890  222.3260 C   0  0  0  0  0  0  0  0  0  0  0  0
  138.1070   68.4260  223.6330 C   0  0  1  0  0  0  0  0  0  0  0  0
  139.1640   68.1650  224.6790 C   0  0  0  0  0  0  0  0  0  0  0  0
  138.9140   68.9050  225.8170 O   0  0  0  0  0  0  0  0  0  0  0  0
  139.6070   69.8770  226.4520 C   0  0  0  0  0  0  0  0  0  0  0  0
  140.3330   70.7720  225.6520 C   0  0  0  0  0  0  0  0  0  0  0  0
  141.0720   71.8000  226.1860 C   0  0  0  0  0  0  0  0  0  0  0  0
  141.1330   72.0010  227.5480 C   0  0  0  0  0  0  0  0  0  0  0  0
  140.4260   71.1330  228.3450 C   0  0  0  0  0  0  0  0  0  0  0  0
  139.6830   70.0990  227.8070 C   0  0  0  0  0  0  0  0  0  0  0  0
  133.3420   72.4290  226.5770 C   0  0  0  0  0  0  0  0  0  0  0  0
  132.1090   72.2630  227.2200 C   0  0  0  0  0  0  0  0  0  0  0  0
  131.4960   73.4030  227.6520 C   0  0  0  0  0  0  0  0  0  0  0  0
  132.0300   74.6410  227.4800 C   0  0  0  0  0  0  0  0  0  0  0  0
  131.3520   75.7440  227.9440 C   0  0  0  0  0  0  0  0  0  0  0  0
  131.8920   76.9980  227.7710 C   0  0  0  0  0  0  0  0  0  0  0  0
  131.0080   78.4050  228.3710 Cl  0  0  0  0  0  0  0  0  0  0  0  0
  133.1180   77.1580  227.1310 C   0  0  0  0  0  0  0  0  0  0  0  0
  133.8130   76.0520  226.6590 C   0  0  0  0  0  0  0  0  0  0  0  0
  133.2460   74.7840  226.8440 C   0  0  0  0  0  0  0  0  0  0  0  0
  133.8480   73.6620  226.4200 N   0  0  0  0  0  0  0  0  0  0  0  0
  135.2950   72.3870  224.8180 H   0  0  0  0  0  0  0  0  0  0  0  0
  136.3066   69.7125  225.4232 H   0  0  0  0  0  0  0  0  0  0  0  0
  135.1283   69.5923  224.0608 H   0  0  0  0  0  0  0  0  0  0  0  0
  139.1787   71.1822  222.2077 H   0  0  0  0  0  0  0  0  0  0  0  0
  140.0866   70.2297  223.3447 H   0  0  0  0  0  0  0  0  0  0  0  0
  140.3111   68.9241  221.2901 H   0  0  0  0  0  0  0  0  0  0  0  0
  139.2300   69.5630  219.7690 H   0  0  0  0  0  0  0  0  0  0  0  0
  137.9557   67.4110  221.7017 H   0  0  0  0  0  0  0  0  0  0  0  0
  139.4946   67.1259  222.5142 H   0  0  0  0  0  0  0  0  0  0  0  0
  137.1523   67.9933  223.9665 H   0  0  0  0  0  0  0  0  0  0  0  0
  139.1624   67.0954  224.9356 H   0  0  0  0  0  0  0  0  0  0  0  0
  140.1440   68.4574  224.2738 H   0  0  0  0  0  0  0  0  0  0  0  0
  140.3098   70.6465  224.5594 H   0  0  0  0  0  0  0  0  0  0  0  0
  141.6244   72.4741  225.5148 H   0  0  0  0  0  0  0  0  0  0  0  0
  141.7235   72.8226  227.9796 H   0  0  0  0  0  0  0  0  0  0  0  0
  140.4520   71.2642  229.4368 H   0  0  0  0  0  0  0  0  0  0  0  0
  139.1335   69.4306  228.4862 H   0  0  0  0  0  0  0  0  0  0  0  0
  131.6601   71.2698  227.3684 H   0  0  0  0  0  0  0  0  0  0  0  0
  130.5256   73.3161  228.1626 H   0  0  0  0  0  0  0  0  0  0  0  0
  130.3831   75.6245  228.4508 H   0  0  0  0  0  0  0  0  0  0  0  0
  133.5385   78.1658  226.9984 H   0  0  0  0  0  0  0  0  0  0  0  0
  134.7829   76.1684  226.1533 H   0  0  0  0  0  0  0  0  0  0  0  0
  1  2  2  0
  2  3  1  0
  3  4  1  0
  4  5  1  0
  5  6  2  0
  5  7  1  0
  7  8  1  0
  8  9  1  0
  9 10  1  0
  9 11  1  0
 11 12  1  0
 12 13  1  0
 13 14  1  0
 14 15  1  0
 15 16  2  0
 16 17  1  0
 17 18  2  0
 18 19  1  0
 19 20  2  0
  2 21  1  0
 21 22  2  0
 22 23  1  0
 23 24  2  0
 24 25  1  0
 25 26  2  0
 26 27  1  0
 26 28  1  0
 28 29  2  0
 29 30  1  0
 30 31  2  0
 12  7  1  0
 20 15  1  0
 31 21  1  0
 30 24  1  0
  3 32  1  0
  4 33  1  0
  4 34  1  0
  8 35  1  0
  8 36  1  0
  9 37  1  6
 10 38  1  0
 11 39  1  0
 11 40  1  0
 12 41  1  1
 13 42  1  0
 13 43  1  0
 16 44  1  0
 17 45  1  0
 18 46  1  0
 19 47  1  0
 20 48  1  0
 22 49  1  0
 23 50  1  0
 25 51  1  0
 28 52  1  0
 29 53  1  0
M  END
>  <smiles>  (4) 
O=C(NCC(=O)N1C[C@H](O)C[C@H]1COc1ccccc1)c1ccc2cc(Cl)ccc2n1

>  <score_type>  (4) 
oracle

>  <origin>  (4) 
autodockgpu

>  <m_score__min__energy>  (4) 
-8.2599999999999998

>  <m_primary>  (4) 
energy

>  <rmsd>  (4) 
8.547551369965745

>  <m_score__min__rmsd>  (4) 
8.547551369965745

>  <meeko>  (4) 
{"free_energy": -7.64, "intermolecular_energy": -10.03, "internal_energy": -2.13, "cluster_size": 1, "cluster_id": 7, "rank_in_cluster": 1}

>  <energy>  (4) 
-8.14

>  <cluster_rmsd>  (4) 
1.11

>  <cluster>  (4) 
2

$$$$

     RDKit          3D

 53 56  0  0  0  0  0  0  0  0999 V2000
  135.9150   71.3470  221.2780 O   0  0  0  0  0  0  0  0  0  0  0  0
  137.0500   71.6950  221.6680 C   0  0  0  0  0  0  0  0  0  0  0  0
  137.8150   72.6860  220.9940 N   0  0  0  0  0  0  0  0  0  0  0  0
  137.3110   73.3610  219.7890 C   0  0  0  0  0  0  0  0  0  0  0  0
  138.3220   74.3020  219.2560 C   0  0  0  0  0  0  0  0  0  0  0  0
  138.4690   74.5540  218.0280 O   0  0  0  0  0  0  0  0  0  0  0  0
  139.1930   74.9760  220.1510 N   0  0  0  0  0  0  0  0  0  0  0  0
  140.6030   74.7330  220.4190 C   0  0  0  0  0  0  0  0  0  0  0  0
  140.6090   74.6780  221.9230 C   0  0  2  0  0  0  0  0  0  0  0  0
  140.2840   73.4040  222.3990 O   0  0  0  0  0  0  0  0  0  0  0  0
  139.6110   75.7080  222.3460 C   0  0  0  0  0  0  0  0  0  0  0  0
  138.8810   76.1060  221.0470 C   0  0  1  0  0  0  0  0  0  0  0  0
  139.5670   77.3780  220.6090 C   0  0  0  0  0  0  0  0  0  0  0  0
  140.7730   77.5300  221.2640 O   0  0  0  0  0  0  0  0  0  0  0  0
  141.3300   78.5630  221.9350 C   0  0  0  0  0  0  0  0  0  0  0  0
  141.4500   78.4340  223.3270 C   0  0  0  0  0  0  0  0  0  0  0  0
  142.0020   79.4170  224.1100 C   0  0  0  0  0  0  0  0  0  0  0  0
  142.4680   80.5900  223.5570 C   0  0  0  0  0  0  0  0  0  0  0  0
  142.3590   80.7320  222.1950 C   0  0  0  0  0  0  0  0  0  0  0  0
  141.8030   79.7410  221.4080 C   0  0  0  0  0  0  0  0  0  0  0  0
  137.6420   71.0760  222.8710 C   0  0  0  0  0  0  0  0  0  0  0  0
  136.9840   69.9750  223.4340 C   0  0  0  0  0  0  0  0  0  0  0  0
  137.5610   69.4300  224.5440 C   0  0  0  0  0  0  0  0  0  0  0  0
  138.7100   69.9100  225.0910 C   0  0  0  0  0  0  0  0  0  0  0  0
  139.2320   69.3050  226.2110 C   0  0  0  0  0  0  0  0  0  0  0  0
  140.3950   69.7900  226.7660 C   0  0  0  0  0  0  0  0  0  0  0  0
  141.0520   69.0040  228.2060 Cl  0  0  0  0  0  0  0  0  0  0  0  0
  141.0450   70.8840  226.2040 C   0  0  0  0  0  0  0  0  0  0  0  0
  140.5280   71.5020  225.0720 C   0  0  0  0  0  0  0  0  0  0  0  0
  139.3440   70.9950  224.5220 C   0  0  0  0  0  0  0  0  0  0  0  0
  138.7740   71.5300  223.4310 N   0  0  0  0  0  0  0  0  0  0  0  0
  138.7730   72.9280  221.3880 H   0  0  0  0  0  0  0  0  0  0  0  0
  137.0798   72.6068  219.0224 H   0  0  0  0  0  0  0  0  0  0  0  0
  136.4051   73.9266  220.0527 H   0  0  0  0  0  0  0  0  0  0  0  0
  140.9389   73.7822  219.9794 H   0  0  0  0  0  0  0  0  0  0  0  0
  141.2804   75.4872  219.9919 H   0  0  0  0  0  0  0  0  0  0  0  0
  141.6068   74.8830  222.3381 H   0  0  0  0  0  0  0  0  0  0  0  0
  139.5780   73.5260  223.0790 H   0  0  0  0  0  0  0  0  0  0  0  0
  138.9032   75.2856  223.0744 H   0  0  0  0  0  0  0  0  0  0  0  0
  140.0866   76.5704  222.8360 H   0  0  0  0  0  0  0  0  0  0  0  0
  137.7959   76.2790  221.0994 H   0  0  0  0  0  0  0  0  0  0  0  0
  139.7472   77.3366  219.5246 H   0  0  0  0  0  0  0  0  0  0  0  0
  138.9197   78.2328  220.8547 H   0  0  0  0  0  0  0  0  0  0  0  0
  141.0890   77.5128  223.8077 H   0  0  0  0  0  0  0  0  0  0  0  0
  142.0736   79.2659  225.1972 H   0  0  0  0  0  0  0  0  0  0  0  0
  142.9096   81.3809  224.1811 H   0  0  0  0  0  0  0  0  0  0  0  0
  142.7224   81.6552  221.7200 H   0  0  0  0  0  0  0  0  0  0  0  0
  141.7367   79.9007  220.3217 H   0  0  0  0  0  0  0  0  0  0  0  0
  136.0544   69.5724  223.0054 H   0  0  0  0  0  0  0  0  0  0  0  0
  137.0753   68.5640  225.0174 H   0  0  0  0  0  0  0  0  0  0  0  0
  138.7234   68.4393  226.6602 H   0  0  0  0  0  0  0  0  0  0  0  0
  141.9730   71.2617  226.6581 H   0  0  0  0  0  0  0  0  0  0  0  0
  141.0354   72.3668  224.6197 H   0  0  0  0  0  0  0  0  0  0  0  0
  1  2  2  0
  2  3  1  0
  3  4  1  0
  4  5  1  0
  5  6  2  0
  5  7  1  0
  7  8  1  0
  8  9  1  0
  9 10  1  0
  9 11  1  0
 11 12  1  0
 12 13  1  0
 13 14  1  0
 14 15  1  0
 15 16  2  0
 16 17  1  0
 17 18  2  0
 18 19  1  0
 19 20  2  0
  2 21  1  0
 21 22  2  0
 22 23  1  0
 23 24  2  0
 24 25  1  0
 25 26  2  0
 26 27  1  0
 26 28  1  0
 28 29  2  0
 29 30  1  0
 30 31  2  0
 12  7  1  0
 20 15  1  0
 31 21  1  0
 30 24  1  0
  3 32  1  0
  4 33  1  0
  4 34  1  0
  8 35  1  0
  8 36  1  0
  9 37  1  1
 10 38  1  0
 11 39  1  0
 11 40  1  0
 12 41  1  1
 13 42  1  0
 13 43  1  0
 16 44  1  0
 17 45  1  0
 18 46  1  0
 19 47  1  0
 20 48  1  0
 22 49  1  0
 23 50  1  0
 25 51  1  0
 28 52  1  0
 29 53  1  0
M  END
>  <smiles>  (5) 
O=C(NCC(=O)N1C[C@H](O)C[C@H]1COc1ccccc1)c1ccc2cc(Cl)ccc2n1

>  <score_type>  (5) 
oracle

>  <origin>  (5) 
autodockgpu

>  <m_score__min__energy>  (5) 
-8.2599999999999998

>  <m_primary>  (5) 
energy

>  <rmsd>  (5) 
2.7529358497176353

>  <m_score__min__rmsd>  (5) 
2.7529358497176353

>  <meeko>  (5) 
{"free_energy": -6.98, "intermolecular_energy": -9.36, "internal_energy": -3.23, "cluster_size": 20, "cluster_id": 3, "rank_in_cluster": 17}

>  <energy>  (5) 
-8.08

>  <cluster_rmsd>  (5) 
0.62

>  <cluster>  (5) 
2

$$$$

     RDKit          3D

 53 56  0  0  0  0  0  0  0  0999 V2000
  135.7850   72.0020  221.4820 O   0  0  0  0  0  0  0  0  0  0  0  0
  137.0200   72.0370  221.6700 C   0  0  0  0  0  0  0  0  0  0  0  0
  137.9020   72.7340  220.8010 N   0  0  0  0  0  0  0  0  0  0  0  0
  137.4100   73.4580  219.6210 C   0  0  0  0  0  0  0  0  0  0  0  0
  137.3330   74.9120  219.8930 C   0  0  0  0  0  0  0  0  0  0  0  0
  136.3810   75.6480  219.5150 O   0  0  0  0  0  0  0  0  0  0  0  0
  138.3750   75.5440  220.6200 N   0  0  0  0  0  0  0  0  0  0  0  0
  139.8160   75.3830  220.4890 C   0  0  0  0  0  0  0  0  0  0  0  0
  140.2160   75.1550  221.9220 C   0  0  2  0  0  0  0  0  0  0  0  0
  140.0860   73.8130  222.2910 O   0  0  0  0  0  0  0  0  0  0  0  0
  139.3170   76.0470  222.7150 C   0  0  0  0  0  0  0  0  0  0  0  0
  138.2560   76.5350  221.7070 C   0  0  1  0  0  0  0  0  0  0  0  0
  138.7450   77.8990  221.2820 C   0  0  0  0  0  0  0  0  0  0  0  0
  139.0740   78.6610  222.3850 O   0  0  0  0  0  0  0  0  0  0  0  0
  140.1910   79.3430  222.7290 C   0  0  0  0  0  0  0  0  0  0  0  0
  141.3840   78.6120  222.8220 C   0  0  0  0  0  0  0  0  0  0  0  0
  142.5790   79.1980  223.1610 C   0  0  0  0  0  0  0  0  0  0  0  0
  142.6600   80.5480  223.4280 C   0  0  0  0  0  0  0  0  0  0  0  0
  141.4990   81.2770  223.3410 C   0  0  0  0  0  0  0  0  0  0  0  0
  140.2970   80.6860  223.0000 C   0  0  0  0  0  0  0  0  0  0  0  0
  137.6110   71.3400  222.8310 C   0  0  0  0  0  0  0  0  0  0  0  0
  136.8890   70.2850  223.4020 C   0  0  0  0  0  0  0  0  0  0  0  0
  137.4670   69.6670  224.4710 C   0  0  0  0  0  0  0  0  0  0  0  0
  138.6760   70.0340  224.9730 C   0  0  0  0  0  0  0  0  0  0  0  0
  139.1960   69.3610  226.0540 C   0  0  0  0  0  0  0  0  0  0  0  0
  140.4200   69.7330  226.5630 C   0  0  0  0  0  0  0  0  0  0  0  0
  141.0730   68.8600  227.9540 Cl  0  0  0  0  0  0  0  0  0  0  0  0
  141.1350   70.7810  225.9930 C   0  0  0  0  0  0  0  0  0  0  0  0
  140.6200   71.4690  224.9000 C   0  0  0  0  0  0  0  0  0  0  0  0
  139.3730   71.0760  224.3970 C   0  0  0  0  0  0  0  0  0  0  0  0
  138.8020   71.6840  223.3450 N   0  0  0  0  0  0  0  0  0  0  0  0
  138.9420   72.7170  221.0300 H   0  0  0  0  0  0  0  0  0  0  0  0
  138.0959   73.2841  218.7788 H   0  0  0  0  0  0  0  0  0  0  0  0
  136.4028   73.0905  219.3753 H   0  0  0  0  0  0  0  0  0  0  0  0
  140.0693   74.5188  219.8573 H   0  0  0  0  0  0  0  0  0  0  0  0
  140.3234   76.2324  220.0083 H   0  0  0  0  0  0  0  0  0  0  0  0
  141.2767   75.3887  222.0958 H   0  0  0  0  0  0  0  0  0  0  0  0
  139.2420   73.7380  222.8000 H   0  0  0  0  0  0  0  0  0  0  0  0
  138.8435   75.4887  223.5360 H   0  0  0  0  0  0  0  0  0  0  0  0
  139.8639   76.8814  223.1784 H   0  0  0  0  0  0  0  0  0  0  0  0
  137.2154   76.6156  222.0544 H   0  0  0  0  0  0  0  0  0  0  0  0
  139.6339   77.7823  220.6447 H   0  0  0  0  0  0  0  0  0  0  0  0
  137.9431   78.4066  220.7259 H   0  0  0  0  0  0  0  0  0  0  0  0
  141.3620   77.5316  222.6163 H   0  0  0  0  0  0  0  0  0  0  0  0
  143.4868   78.5796  223.2205 H   0  0  0  0  0  0  0  0  0  0  0  0
  143.6149   81.0219  223.6995 H   0  0  0  0  0  0  0  0  0  0  0  0
  141.5266   82.3571  223.5477 H   0  0  0  0  0  0  0  0  0  0  0  0
  139.3943   81.3121  222.9436 H   0  0  0  0  0  0  0  0  0  0  0  0
  135.9100   69.9722  223.0099 H   0  0  0  0  0  0  0  0  0  0  0  0
  136.9309   68.8338  224.9489 H   0  0  0  0  0  0  0  0  0  0  0  0
  138.6371   68.5302  226.5093 H   0  0  0  0  0  0  0  0  0  0  0  0
  142.1124   71.0669  226.4088 H   0  0  0  0  0  0  0  0  0  0  0  0
  141.1770   72.2999  224.4424 H   0  0  0  0  0  0  0  0  0  0  0  0
  1  2  2  0
  2  3  1  0
  3  4  1  0
  4  5  1  0
  5  6  2  0
  5  7  1  0
  7  8  1  0
  8  9  1  0
  9 10  1  0
  9 11  1  0
 11 12  1  0
 12 13  1  0
 13 14  1  0
 14 15  1  0
 15 16  2  0
 16 17  1  0
 17 18  2  0
 18 19  1  0
 19 20  2  0
  2 21  1  0
 21 22  2  0
 22 23  1  0
 23 24  2  0
 24 25  1  0
 25 26  2  0
 26 27  1  0
 26 28  1  0
 28 29  2  0
 29 30  1  0
 30 31  2  0
 12  7  1  0
 20 15  1  0
 31 21  1  0
 30 24  1  0
  3 32  1  0
  4 33  1  0
  4 34  1  0
  8 35  1  0
  8 36  1  0
  9 37  1  6
 10 38  1  0
 11 39  1  0
 11 40  1  0
 12 41  1  1
 13 42  1  0
 13 43  1  0
 16 44  1  0
 17 45  1  0
 18 46  1  0
 19 47  1  0
 20 48  1  0
 22 49  1  0
 23 50  1  0
 25 51  1  0
 28 52  1  0
 29 53  1  0
M  END
>  <smiles>  (6) 
O=C(NCC(=O)N1C[C@H](O)C[C@H]1COc1ccccc1)c1ccc2cc(Cl)ccc2n1

>  <score_type>  (6) 
oracle

>  <origin>  (6) 
autodockgpu

>  <m_score__min__energy>  (6) 
-8.2599999999999998

>  <m_primary>  (6) 
energy

>  <rmsd>  (6) 
2.928187110080773

>  <m_score__min__rmsd>  (6) 
2.928187110080773

>  <meeko>  (6) 
{"free_energy": -7.08, "intermolecular_energy": -9.46, "internal_energy": -3.24, "cluster_size": 20, "cluster_id": 3, "rank_in_cluster": 11}

>  <energy>  (6) 
-8.03

>  <cluster_rmsd>  (6) 
1.43

>  <cluster>  (6) 
2

$$$$

     RDKit          3D

 53 56  0  0  0  0  0  0  0  0999 V2000
  134.9290   75.2770  222.7910 O   0  0  0  0  0  0  0  0  0  0  0  0
  136.1680   75.1160  222.7600 C   0  0  0  0  0  0  0  0  0  0  0  0
  136.7670   73.8270  222.7390 N   0  0  0  0  0  0  0  0  0  0  0  0
  135.9570   72.6000  222.7550 C   0  0  0  0  0  0  0  0  0  0  0  0
  136.6900   71.4810  222.1200 C   0  0  0  0  0  0  0  0  0  0  0  0
  136.1480   70.6230  221.3700 O   0  0  0  0  0  0  0  0  0  0  0  0
  138.0830   71.3370  222.3470 N   0  0  0  0  0  0  0  0  0  0  0  0
  138.8930   71.8470  223.4430 C   0  0  0  0  0  0  0  0  0  0  0  0
  140.0250   72.4960  222.6940 C   0  0  2  0  0  0  0  0  0  0  0  0
  139.7110   73.8000  222.3010 O   0  0  0  0  0  0  0  0  0  0  0  0
  140.2700   71.5990  221.5230 C   0  0  0  0  0  0  0  0  0  0  0  0
  139.0730   70.6260  221.5140 C   0  0  1  0  0  0  0  0  0  0  0  0
  139.5960   69.3860  222.1980 C   0  0  0  0  0  0  0  0  0  0  0  0
  139.0180   69.2380  223.4430 O   0  0  0  0  0  0  0  0  0  0  0  0
  139.5340   69.0300  224.6760 C   0  0  0  0  0  0  0  0  0  0  0  0
  139.2430   67.8040  225.2930 C   0  0  0  0  0  0  0  0  0  0  0  0
  139.7150   67.4810  226.5420 C   0  0  0  0  0  0  0  0  0  0  0  0
  140.5040   68.3590  227.2540 C   0  0  0  0  0  0  0  0  0  0  0  0
  140.7980   69.5640  226.6620 C   0  0  0  0  0  0  0  0  0  0  0  0
  140.3230   69.8870  225.4050 C   0  0  0  0  0  0  0  0  0  0  0  0
  137.0670   76.2880  222.7390 C   0  0  0  0  0  0  0  0  0  0  0  0
  136.4850   77.5620  222.7600 C   0  0  0  0  0  0  0  0  0  0  0  0
  137.3470   78.6190  222.7400 C   0  0  0  0  0  0  0  0  0  0  0  0
  138.6980   78.4710  222.7030 C   0  0  0  0  0  0  0  0  0  0  0  0
  139.5030   79.5860  222.6870 C   0  0  0  0  0  0  0  0  0  0  0  0
  140.8710   79.4370  222.6490 C   0  0  0  0  0  0  0  0  0  0  0  0
  141.8920   80.8790  222.6260 Cl  0  0  0  0  0  0  0  0  0  0  0  0
  141.4450   78.1700  222.6290 C   0  0  0  0  0  0  0  0  0  0  0  0
  140.6420   77.0350  222.6460 C   0  0  0  0  0  0  0  0  0  0  0  0
  139.2530   77.2080  222.6840 C   0  0  0  0  0  0  0  0  0  0  0  0
  138.4020   76.1690  222.7030 N   0  0  0  0  0  0  0  0  0  0  0  0
  137.8290   73.7720  222.7120 H   0  0  0  0  0  0  0  0  0  0  0  0
  135.7244   72.3344  223.7968 H   0  0  0  0  0  0  0  0  0  0  0  0
  135.0299   72.7807  222.1913 H   0  0  0  0  0  0  0  0  0  0  0  0
  138.3377   72.5792  224.0476 H   0  0  0  0  0  0  0  0  0  0  0  0
  139.2107   71.0795  224.1641 H   0  0  0  0  0  0  0  0  0  0  0  0
  140.9232   72.6045  223.3197 H   0  0  0  0  0  0  0  0  0  0  0  0
  139.2190   74.2130  223.0520 H   0  0  0  0  0  0  0  0  0  0  0  0
  140.3036   72.1805  220.5899 H   0  0  0  0  0  0  0  0  0  0  0  0
  141.2326   71.0720  221.5981 H   0  0  0  0  0  0  0  0  0  0  0  0
  138.6430   70.3491  220.5402 H   0  0  0  0  0  0  0  0  0  0  0  0
  139.3586   68.5060  221.5822 H   0  0  0  0  0  0  0  0  0  0  0  0
  140.6849   69.4813  222.3213 H   0  0  0  0  0  0  0  0  0  0  0  0
  138.6151   67.0762  224.7581 H   0  0  0  0  0  0  0  0  0  0  0  0
  139.4591   66.5055  226.9813 H   0  0  0  0  0  0  0  0  0  0  0  0
  140.8828   68.1055  228.2551 H   0  0  0  0  0  0  0  0  0  0  0  0
  141.4261   70.2883  227.2013 H   0  0  0  0  0  0  0  0  0  0  0  0
  140.5856   70.8640  224.9731 H   0  0  0  0  0  0  0  0  0  0  0  0
  135.3944   77.7021  222.7909 H   0  0  0  0  0  0  0  0  0  0  0  0
  136.9303   79.6369  222.7545 H   0  0  0  0  0  0  0  0  0  0  0  0
  139.0563   80.5911  222.7045 H   0  0  0  0  0  0  0  0  0  0  0  0
  142.5396   78.0655  222.5996 H   0  0  0  0  0  0  0  0  0  0  0  0
  141.0858   76.0286  222.6300 H   0  0  0  0  0  0  0  0  0  0  0  0
  1  2  2  0
  2  3  1  0
  3  4  1  0
  4  5  1  0
  5  6  2  0
  5  7  1  0
  7  8  1  0
  8  9  1  0
  9 10  1  0
  9 11  1  0
 11 12  1  0
 12 13  1  0
 13 14  1  0
 14 15  1  0
 15 16  2  0
 16 17  1  0
 17 18  2  0
 18 19  1  0
 19 20  2  0
  2 21  1  0
 21 22  2  0
 22 23  1  0
 23 24  2  0
 24 25  1  0
 25 26  2  0
 26 27  1  0
 26 28  1  0
 28 29  2  0
 29 30  1  0
 30 31  2  0
 12  7  1  0
 20 15  1  0
 31 21  1  0
 30 24  1  0
  3 32  1  0
  4 33  1  0
  4 34  1  0
  8 35  1  0
  8 36  1  0
  9 37  1  1
 10 38  1  0
 11 39  1  0
 11 40  1  0
 12 41  1  6
 13 42  1  0
 13 43  1  0
 16 44  1  0
 17 45  1  0
 18 46  1  0
 19 47  1  0
 20 48  1  0
 22 49  1  0
 23 50  1  0
 25 51  1  0
 28 52  1  0
 29 53  1  0
M  END
>  <smiles>  (7) 
O=C(NCC(=O)N1C[C@H](O)C[C@H]1COc1ccccc1)c1ccc2cc(Cl)ccc2n1

>  <score_type>  (7) 
oracle

>  <origin>  (7) 
autodockgpu

>  <m_score__min__energy>  (7) 
-8.2599999999999998

>  <m_primary>  (7) 
energy

>  <rmsd>  (7) 
7.52978007650139

>  <m_score__min__rmsd>  (7) 
7.52978007650139

>  <meeko>  (7) 
{"free_energy": -7.08, "intermolecular_energy": -9.46, "internal_energy": -3.0, "cluster_size": 5, "cluster_id": 6, "rank_in_cluster": 4}

>  <energy>  (7) 
-8.02

>  <cluster_rmsd>  (7) 
1.95

>  <cluster>  (7) 
2

$$$$

     RDKit          3D

 53 56  0  0  0  0  0  0  0  0999 V2000
  139.6910   72.1470  220.3470 O   0  0  0  0  0  0  0  0  0  0  0  0
  140.3640   72.4360  221.3600 C   0  0  0  0  0  0  0  0  0  0  0  0
  141.2970   73.5090  221.3710 N   0  0  0  0  0  0  0  0  0  0  0  0
  141.5270   74.3440  220.1840 C   0  0  0  0  0  0  0  0  0  0  0  0
  142.9670   74.3870  219.8450 C   0  0  0  0  0  0  0  0  0  0  0  0
  143.5550   75.4120  219.4040 O   0  0  0  0  0  0  0  0  0  0  0  0
  143.7620   73.2230  220.0140 N   0  0  0  0  0  0  0  0  0  0  0  0
  144.9150   73.0160  220.8780 C   0  0  0  0  0  0  0  0  0  0  0  0
  145.9020   72.4190  219.9100 C   0  0  2  0  0  0  0  0  0  0  0  0
  146.5940   73.4040  219.1990 O   0  0  0  0  0  0  0  0  0  0  0  0
  145.0790   71.5510  219.0140 C   0  0  0  0  0  0  0  0  0  0  0  0
  143.6170   71.9160  219.3450 C   0  0  1  0  0  0  0  0  0  0  0  0
  143.1730   70.8380  220.3060 C   0  0  0  0  0  0  0  0  0  0  0  0
  142.9760   69.6450  219.6390 O   0  0  0  0  0  0  0  0  0  0  0  0
  143.8260   68.6980  219.1820 C   0  0  0  0  0  0  0  0  0  0  0  0
  144.8290   68.2600  220.0590 C   0  0  0  0  0  0  0  0  0  0  0  0
  145.7460   67.3000  219.7060 C   0  0  0  0  0  0  0  0  0  0  0  0
  145.7220   66.7190  218.4560 C   0  0  0  0  0  0  0  0  0  0  0  0
  144.7450   67.1370  217.5850 C   0  0  0  0  0  0  0  0  0  0  0  0
  143.8230   68.1030  217.9430 C   0  0  0  0  0  0  0  0  0  0  0  0
  140.2030   71.6560  222.6040 C   0  0  0  0  0  0  0  0  0  0  0  0
  139.5230   70.4340  222.5290 C   0  0  0  0  0  0  0  0  0  0  0  0
  139.3950   69.7430  223.6970 C   0  0  0  0  0  0  0  0  0  0  0  0
  139.8900   70.1920  224.8810 C   0  0  0  0  0  0  0  0  0  0  0  0
  139.7220   69.4370  226.0180 C   0  0  0  0  0  0  0  0  0  0  0  0
  140.2240   69.8910  227.2170 C   0  0  0  0  0  0  0  0  0  0  0  0
  139.9980   68.9110  228.6690 Cl  0  0  0  0  0  0  0  0  0  0  0  0
  140.8990   71.1060  227.2870 C   0  0  0  0  0  0  0  0  0  0  0  0
  141.0760   71.8770  226.1440 C   0  0  0  0  0  0  0  0  0  0  0  0
  140.5580   71.3980  224.9350 C   0  0  0  0  0  0  0  0  0  0  0  0
  140.6820   72.0780  223.7830 N   0  0  0  0  0  0  0  0  0  0  0  0
  141.8320   73.6930  222.2730 H   0  0  0  0  0  0  0  0  0  0  0  0
  140.9684   73.9249  219.3341 H   0  0  0  0  0  0  0  0  0  0  0  0
  141.1840   75.3667  220.3995 H   0  0  0  0  0  0  0  0  0  0  0  0
  145.2825   73.9655  221.2943 H   0  0  0  0  0  0  0  0  0  0  0  0
  144.7121   72.3902  221.7596 H   0  0  0  0  0  0  0  0  0  0  0  0
  146.6871   71.8447  220.4236 H   0  0  0  0  0  0  0  0  0  0  0  0
  145.9850   74.1780  219.1170 H   0  0  0  0  0  0  0  0  0  0  0  0
  145.3016   71.7631  217.9579 H   0  0  0  0  0  0  0  0  0  0  0  0
  145.2849   70.4816  219.1686 H   0  0  0  0  0  0  0  0  0  0  0  0
  142.9011   71.9771  218.5121 H   0  0  0  0  0  0  0  0  0  0  0  0
  143.9464   70.6987  221.0757 H   0  0  0  0  0  0  0  0  0  0  0  0
  142.2249   71.1455  220.7713 H   0  0  0  0  0  0  0  0  0  0  0  0
  144.8833   68.7009  221.0653 H   0  0  0  0  0  0  0  0  0  0  0  0
  146.5117   66.9899  220.4323 H   0  0  0  0  0  0  0  0  0  0  0  0
  146.4555   65.9517  218.1675 H   0  0  0  0  0  0  0  0  0  0  0  0
  144.6953   66.6929  216.5799 H   0  0  0  0  0  0  0  0  0  0  0  0
  143.0603   68.4060  217.2106 H   0  0  0  0  0  0  0  0  0  0  0  0
  139.1152   70.0533  221.5810 H   0  0  0  0  0  0  0  0  0  0  0  0
  138.8671   68.7781  223.6809 H   0  0  0  0  0  0  0  0  0  0  0  0
  139.1895   68.4757  225.9699 H   0  0  0  0  0  0  0  0  0  0  0  0
  141.2943   71.4579  228.2513 H   0  0  0  0  0  0  0  0  0  0  0  0
  141.6091   72.8382  226.1884 H   0  0  0  0  0  0  0  0  0  0  0  0
  1  2  2  0
  2  3  1  0
  3  4  1  0
  4  5  1  0
  5  6  2  0
  5  7  1  0
  7  8  1  0
  8  9  1  0
  9 10  1  0
  9 11  1  0
 11 12  1  0
 12 13  1  0
 13 14  1  0
 14 15  1  0
 15 16  2  0
 16 17  1  0
 17 18  2  0
 18 19  1  0
 19 20  2  0
  2 21  1  0
 21 22  2  0
 22 23  1  0
 23 24  2  0
 24 25  1  0
 25 26  2  0
 26 27  1  0
 26 28  1  0
 28 29  2  0
 29 30  1  0
 30 31  2  0
 12  7  1  0
 20 15  1  0
 31 21  1  0
 30 24  1  0
  3 32  1  0
  4 33  1  0
  4 34  1  0
  8 35  1  0
  8 36  1  0
  9 37  1  1
 10 38  1  0
 11 39  1  0
 11 40  1  0
 12 41  1  6
 13 42  1  0
 13 43  1  0
 16 44  1  0
 17 45  1  0
 18 46  1  0
 19 47  1  0
 20 48  1  0
 22 49  1  0
 23 50  1  0
 25 51  1  0
 28 52  1  0
 29 53  1  0
M  END
>  <smiles>  (8) 
O=C(NCC(=O)N1C[C@H](O)C[C@H]1COc1ccccc1)c1ccc2cc(Cl)ccc2n1

>  <score_type>  (8) 
oracle

>  <origin>  (8) 
autodockgpu

>  <m_score__min__energy>  (8) 
-8.2599999999999998

>  <m_primary>  (8) 
energy

>  <rmsd>  (8) 
4.352948779920859

>  <m_score__min__rmsd>  (8) 
4.352948779920859

>  <meeko>  (8) 
{"free_energy": -7.79, "intermolecular_energy": -10.18, "internal_energy": -2.13, "cluster_size": 2, "cluster_id": 1, "rank_in_cluster": 2}

>  <energy>  (8) 
-7.92

>  <cluster_rmsd>  (8) 
1.46

>  <cluster>  (8) 
2

$$$$

     RDKit          3D

 53 56  0  0  0  0  0  0  0  0999 V2000
  139.7200   71.9820  220.6410 O   0  0  0  0  0  0  0  0  0  0  0  0
  139.5900   72.4420  221.7960 C   0  0  0  0  0  0  0  0  0  0  0  0
  139.2810   73.8080  222.0400 N   0  0  0  0  0  0  0  0  0  0  0  0
  139.0970   74.7650  220.9410 C   0  0  0  0  0  0  0  0  0  0  0  0
  139.0220   76.1500  221.4600 C   0  0  0  0  0  0  0  0  0  0  0  0
  137.9480   76.7090  221.8170 O   0  0  0  0  0  0  0  0  0  0  0  0
  140.2080   76.9200  221.5760 N   0  0  0  0  0  0  0  0  0  0  0  0
  141.0750   77.1040  222.7310 C   0  0  0  0  0  0  0  0  0  0  0  0
  141.2060   78.6030  222.7620 C   0  0  2  0  0  0  0  0  0  0  0  0
  140.1460   79.2050  223.4450 O   0  0  0  0  0  0  0  0  0  0  0  0
  141.2540   79.0110  221.3240 C   0  0  0  0  0  0  0  0  0  0  0  0
  140.8660   77.7400  220.5410 C   0  0  1  0  0  0  0  0  0  0  0  0
  142.1880   77.1500  220.1110 C   0  0  0  0  0  0  0  0  0  0  0  0
  142.1110   75.7720  220.0620 O   0  0  0  0  0  0  0  0  0  0  0  0
  143.0160   74.7930  220.2870 C   0  0  0  0  0  0  0  0  0  0  0  0
  142.5180   73.5200  220.6000 C   0  0  0  0  0  0  0  0  0  0  0  0
  143.3420   72.4490  220.8450 C   0  0  0  0  0  0  0  0  0  0  0  0
  144.7130   72.5800  220.7950 C   0  0  0  0  0  0  0  0  0  0  0  0
  145.2170   73.8210  220.4900 C   0  0  0  0  0  0  0  0  0  0  0  0
  144.3860   74.8980  220.2430 C   0  0  0  0  0  0  0  0  0  0  0  0
  139.7540   71.5570  222.9670 C   0  0  0  0  0  0  0  0  0  0  0  0
  139.3560   70.2200  222.8420 C   0  0  0  0  0  0  0  0  0  0  0  0
  139.5230   69.4350  223.9440 C   0  0  0  0  0  0  0  0  0  0  0  0
  140.0450   69.8990  225.1110 C   0  0  0  0  0  0  0  0  0  0  0  0
  140.1840   69.0450  226.1800 C   0  0  0  0  0  0  0  0  0  0  0  0
  140.7120   69.5140  227.3620 C   0  0  0  0  0  0  0  0  0  0  0  0
  140.8820   68.4060  228.7260 Cl  0  0  0  0  0  0  0  0  0  0  0  0
  141.1070   70.8430  227.4820 C   0  0  0  0  0  0  0  0  0  0  0  0
  140.9720   71.7160  226.4080 C   0  0  0  0  0  0  0  0  0  0  0  0
  140.4320   71.2190  225.2150 C   0  0  0  0  0  0  0  0  0  0  0  0
  140.2660   71.9910  224.1290 N   0  0  0  0  0  0  0  0  0  0  0  0
  139.1860   74.1220  223.0520 H   0  0  0  0  0  0  0  0  0  0  0  0
  139.9464   74.6851  220.2466 H   0  0  0  0  0  0  0  0  0  0  0  0
  138.1561   74.5305  220.4217 H   0  0  0  0  0  0  0  0  0  0  0  0
  140.6083   76.7210  223.6505 H   0  0  0  0  0  0  0  0  0  0  0  0
  142.0335   76.5682  222.6661 H   0  0  0  0  0  0  0  0  0  0  0  0
  142.1051   78.9261  223.3072 H   0  0  0  0  0  0  0  0  0  0  0  0
  139.3210   78.7480  223.1510 H   0  0  0  0  0  0  0  0  0  0  0  0
  140.5370   79.8216  221.1270 H   0  0  0  0  0  0  0  0  0  0  0  0
  142.2441   79.3920  221.0332 H   0  0  0  0  0  0  0  0  0  0  0  0
  140.2173   77.8567  219.6603 H   0  0  0  0  0  0  0  0  0  0  0  0
  142.4479   77.5335  219.1133 H   0  0  0  0  0  0  0  0  0  0  0  0
  142.9592   77.4369  220.8410 H   0  0  0  0  0  0  0  0  0  0  0  0
  141.4289   73.3741  220.6511 H   0  0  0  0  0  0  0  0  0  0  0  0
  142.9005   71.4705  221.0851 H   0  0  0  0  0  0  0  0  0  0  0  0
  145.3770   71.7253  220.9914 H   0  0  0  0  0  0  0  0  0  0  0  0
  146.3069   73.9611  220.4412 H   0  0  0  0  0  0  0  0  0  0  0  0
  144.8365   75.8724  220.0030 H   0  0  0  0  0  0  0  0  0  0  0  0
  138.9323   69.8253  221.9067 H   0  0  0  0  0  0  0  0  0  0  0  0
  139.2219   68.3786  223.8867 H   0  0  0  0  0  0  0  0  0  0  0  0
  139.8751   67.9930  226.0912 H   0  0  0  0  0  0  0  0  0  0  0  0
  141.5283   71.2049  228.4315 H   0  0  0  0  0  0  0  0  0  0  0  0
  141.2809   72.7683  226.4931 H   0  0  0  0  0  0  0  0  0  0  0  0
  1  2  2  0
  2  3  1  0
  3  4  1  0
  4  5  1  0
  5  6  2  0
  5  7  1  0
  7  8  1  0
  8  9  1  0
  9 10  1  0
  9 11  1  0
 11 12  1  0
 12 13  1  0
 13 14  1  0
 14 15  1  0
 15 16  2  0
 16 17  1  0
 17 18  2  0
 18 19  1  0
 19 20  2  0
  2 21  1  0
 21 22  2  0
 22 23  1  0
 23 24  2  0
 24 25  1  0
 25 26  2  0
 26 27  1  0
 26 28  1  0
 28 29  2  0
 29 30  1  0
 30 31  2  0
 12  7  1  0
 20 15  1  0
 31 21  1  0
 30 24  1  0
  3 32  1  0
  4 33  1  0
  4 34  1  0
  8 35  1  0
  8 36  1  0
  9 37  1  1
 10 38  1  0
 11 39  1  0
 11 40  1  0
 12 41  1  6
 13 42  1  0
 13 43  1  0
 16 44  1  0
 17 45  1  0
 18 46  1  0
 19 47  1  0
 20 48  1  0
 22 49  1  0
 23 50  1  0
 25 51  1  0
 28 52  1  0
 29 53  1  0
M  END
>  <smiles>  (9) 
O=C(NCC(=O)N1C[C@H](O)C[C@H]1COc1ccccc1)c1ccc2cc(Cl)ccc2n1

>  <score_type>  (9) 
oracle

>  <origin>  (9) 
autodockgpu

>  <m_score__min__energy>  (9) 
-8.2599999999999998

>  <m_primary>  (9) 
energy

>  <rmsd>  (9) 
2.7749216423455274

>  <m_score__min__rmsd>  (9) 
2.7749216423455274

>  <meeko>  (9) 
{"free_energy": -7.99, "intermolecular_energy": -10.37, "internal_energy": -2.31, "cluster_size": 6, "cluster_id": 4, "rank_in_cluster": 1}

>  <energy>  (9) 
-7.86

>  <cluster_rmsd>  (9) 
0.67

>  <cluster>  (9) 
2

$$$$

     RDKit          3D

 53 56  0  0  0  0  0  0  0  0999 V2000
  139.9570   74.1620  222.0110 O   0  0  0  0  0  0  0  0  0  0  0  0
  140.2930   75.3500  221.8210 C   0  0  0  0  0  0  0  0  0  0  0  0
  141.5500   75.7030  221.2590 N   0  0  0  0  0  0  0  0  0  0  0  0
  142.5340   74.6840  220.8680 C   0  0  0  0  0  0  0  0  0  0  0  0
  143.2190   75.0710  219.6130 C   0  0  0  0  0  0  0  0  0  0  0  0
  144.3090   74.5690  219.2250 O   0  0  0  0  0  0  0  0  0  0  0  0
  142.6400   76.0600  218.7760 N   0  0  0  0  0  0  0  0  0  0  0  0
  141.6160   75.9130  217.7530 C   0  0  0  0  0  0  0  0  0  0  0  0
  142.2520   76.6330  216.5950 C   0  0  2  0  0  0  0  0  0  0  0  0
  143.1110   75.8000  215.8730 O   0  0  0  0  0  0  0  0  0  0  0  0
  142.9740   77.7860  217.2150 C   0  0  0  0  0  0  0  0  0  0  0  0
  142.9410   77.5040  218.7310 C   0  0  1  0  0  0  0  0  0  0  0  0
  141.7870   78.3350  219.2390 C   0  0  0  0  0  0  0  0  0  0  0  0
  141.7900   78.3770  220.6190 O   0  0  0  0  0  0  0  0  0  0  0  0
  141.8880   79.3930  221.5060 C   0  0  0  0  0  0  0  0  0  0  0  0
  142.5420   79.1240  222.7180 C   0  0  0  0  0  0  0  0  0  0  0  0
  142.7030   80.0780  223.6920 C   0  0  0  0  0  0  0  0  0  0  0  0
  142.2240   81.3590  223.5210 C   0  0  0  0  0  0  0  0  0  0  0  0
  141.5820   81.6380  222.3390 C   0  0  0  0  0  0  0  0  0  0  0  0
  141.4210   80.6770  221.3590 C   0  0  0  0  0  0  0  0  0  0  0  0
  139.3720   76.4470  222.1790 C   0  0  0  0  0  0  0  0  0  0  0  0
  138.0280   76.3250  221.8040 C   0  0  0  0  0  0  0  0  0  0  0  0
  137.2080   77.3580  222.1530 C   0  0  0  0  0  0  0  0  0  0  0  0
  137.6460   78.4550  222.8270 C   0  0  0  0  0  0  0  0  0  0  0  0
  136.7570   79.4560  223.1440 C   0  0  0  0  0  0  0  0  0  0  0  0
  137.2000   80.5670  223.8270 C   0  0  0  0  0  0  0  0  0  0  0  0
  136.0470   81.8450  224.2260 Cl  0  0  0  0  0  0  0  0  0  0  0  0
  138.5360   80.6840  224.1980 C   0  0  0  0  0  0  0  0  0  0  0  0
  139.4430   79.6790  223.8830 C   0  0  0  0  0  0  0  0  0  0  0  0
  138.9730   78.5570  223.1880 C   0  0  0  0  0  0  0  0  0  0  0  0
  139.7790   77.5390  222.8430 N   0  0  0  0  0  0  0  0  0  0  0  0
  141.7630   76.7380  221.1280 H   0  0  0  0  0  0  0  0  0  0  0  0
  143.2807   74.5773  221.6687 H   0  0  0  0  0  0  0  0  0  0  0  0
  142.0098   73.7308  220.7050 H   0  0  0  0  0  0  0  0  0  0  0  0
  141.4314   74.8546  217.5170 H   0  0  0  0  0  0  0  0  0  0  0  0
  140.6302   76.3064  218.0420 H   0  0  0  0  0  0  0  0  0  0  0  0
  141.5071   76.9678  215.8581 H   0  0  0  0  0  0  0  0  0  0  0  0
  143.6480   75.3000  216.5350 H   0  0  0  0  0  0  0  0  0  0  0  0
  144.0114   77.8335  216.8524 H   0  0  0  0  0  0  0  0  0  0  0  0
  142.5094   78.7505  216.9624 H   0  0  0  0  0  0  0  0  0  0  0  0
  143.8420   77.7375  219.3172 H   0  0  0  0  0  0  0  0  0  0  0  0
  141.8775   79.3583  218.8458 H   0  0  0  0  0  0  0  0  0  0  0  0
  140.8450   77.8795  218.8997 H   0  0  0  0  0  0  0  0  0  0  0  0
  142.9395   78.1135  222.8938 H   0  0  0  0  0  0  0  0  0  0  0  0
  143.2233   79.8155  224.6250 H   0  0  0  0  0  0  0  0  0  0  0  0
  142.3506   82.1263  224.2989 H   0  0  0  0  0  0  0  0  0  0  0  0
  141.1867   82.6503  222.1685 H   0  0  0  0  0  0  0  0  0  0  0  0
  140.9009   80.9494  220.4288 H   0  0  0  0  0  0  0  0  0  0  0  0
  137.6546   75.4457  221.2587 H   0  0  0  0  0  0  0  0  0  0  0  0
  136.1448   77.3010  221.8768 H   0  0  0  0  0  0  0  0  0  0  0  0
  135.6995   79.3696  222.8539 H   0  0  0  0  0  0  0  0  0  0  0  0
  138.8761   81.5766  224.7435 H   0  0  0  0  0  0  0  0  0  0  0  0
  140.5012   79.7623  224.1716 H   0  0  0  0  0  0  0  0  0  0  0  0
  1  2  2  0
  2  3  1  0
  3  4  1  0
  4  5  1  0
  5  6  2  0
  5  7  1  0
  7  8  1  0
  8  9  1  0
  9 10  1  0
  9 11  1  0
 11 12  1  0
 12 13  1  0
 13 14  1  0
 14 15  1  0
 15 16  2  0
 16 17  1  0
 17 18  2  0
 18 19  1  0
 19 20  2  0
  2 21  1  0
 21 22  2  0
 22 23  1  0
 23 24  2  0
 24 25  1  0
 25 26  2  0
 26 27  1  0
 26 28  1  0
 28 29  2  0
 29 30  1  0
 30 31  2  0
 12  7  1  0
 20 15  1  0
 31 21  1  0
 30 24  1  0
  3 32  1  0
  4 33  1  0
  4 34  1  0
  8 35  1  0
  8 36  1  0
  9 37  1  6
 10 38  1  0
 11 39  1  0
 11 40  1  0
 12 41  1  1
 13 42  1  0
 13 43  1  0
 16 44  1  0
 17 45  1  0
 18 46  1  0
 19 47  1  0
 20 48  1  0
 22 49  1  0
 23 50  1  0
 25 51  1  0
 28 52  1  0
 29 53  1  0
M  END
>  <smiles>  (10) 
O=C(NCC(=O)N1C[C@H](O)C[C@H]1COc1ccccc1)c1ccc2cc(Cl)ccc2n1

>  <score_type>  (10) 
oracle

>  <origin>  (10) 
autodockgpu

>  <m_score__min__energy>  (10) 
-8.2599999999999998

>  <m_primary>  (10) 
energy

>  <rmsd>  (10) 
6.833573567327666

>  <m_score__min__rmsd>  (10) 
6.833573567327666

>  <meeko>  (10) 
{"free_energy": -6.21, "intermolecular_energy": -8.6, "internal_energy": -3.57, "cluster_size": 2, "cluster_id": 10, "rank_in_cluster": 2}

>  <energy>  (10) 
-7.84

>  <cluster_rmsd>  (10) 
1.51

>  <cluster>  (10) 
2

$$$$

     RDKit          3D

 53 56  0  0  0  0  0  0  0  0999 V2000
  140.4890   71.8590  219.5640 O   0  0  0  0  0  0  0  0  0  0  0  0
  140.7720   72.3600  220.6730 C   0  0  0  0  0  0  0  0  0  0  0  0
  141.3900   73.6340  220.7950 N   0  0  0  0  0  0  0  0  0  0  0  0
  141.7360   74.4410  219.6170 C   0  0  0  0  0  0  0  0  0  0  0  0
  141.5870   75.8850  219.9080 C   0  0  0  0  0  0  0  0  0  0  0  0
  142.3180   76.7820  219.4050 O   0  0  0  0  0  0  0  0  0  0  0  0
  140.5720   76.3190  220.8000 N   0  0  0  0  0  0  0  0  0  0  0  0
  140.5320   76.2410  222.2530 C   0  0  0  0  0  0  0  0  0  0  0  0
  139.1740   75.6330  222.4760 C   0  0  2  0  0  0  0  0  0  0  0  0
  139.2060   74.2390  222.3900 O   0  0  0  0  0  0  0  0  0  0  0  0
  138.3060   76.2430  221.4220 C   0  0  0  0  0  0  0  0  0  0  0  0
  139.2850   76.9620  220.4720 C   0  0  1  0  0  0  0  0  0  0  0  0
  139.2470   78.4040  220.9190 C   0  0  0  0  0  0  0  0  0  0  0  0
  140.5260   78.9070  221.0440 O   0  0  0  0  0  0  0  0  0  0  0  0
  141.1480   79.6040  222.0220 C   0  0  0  0  0  0  0  0  0  0  0  0
  142.5230   79.3870  222.1880 C   0  0  0  0  0  0  0  0  0  0  0  0
  143.2590   80.0410  223.1460 C   0  0  0  0  0  0  0  0  0  0  0  0
  142.6710   80.9510  223.9980 C   0  0  0  0  0  0  0  0  0  0  0  0
  141.3240   81.1750  223.8470 C   0  0  0  0  0  0  0  0  0  0  0  0
  140.5850   80.5170  222.8830 C   0  0  0  0  0  0  0  0  0  0  0  0
  140.4620   71.6280  221.9170 C   0  0  0  0  0  0  0  0  0  0  0  0
  139.7030   70.4550  221.8170 C   0  0  0  0  0  0  0  0  0  0  0  0
  139.4370   69.8060  222.9870 C   0  0  0  0  0  0  0  0  0  0  0  0
  139.8740   70.2520  224.1960 C   0  0  0  0  0  0  0  0  0  0  0  0
  139.5660   69.5420  225.3330 C   0  0  0  0  0  0  0  0  0  0  0  0
  140.0080   69.9920  226.5560 C   0  0  0  0  0  0  0  0  0  0  0  0
  139.6040   69.0700  228.0080 Cl  0  0  0  0  0  0  0  0  0  0  0  0
  140.7630   71.1580  226.6510 C   0  0  0  0  0  0  0  0  0  0  0  0
  141.0800   71.8840  225.5090 C   0  0  0  0  0  0  0  0  0  0  0  0
  140.6210   71.4090  224.2740 C   0  0  0  0  0  0  0  0  0  0  0  0
  140.8810   72.0460  223.1210 N   0  0  0  0  0  0  0  0  0  0  0  0
  141.5990   73.9930  221.7750 H   0  0  0  0  0  0  0  0  0  0  0  0
  142.7786   74.2359  219.3327 H   0  0  0  0  0  0  0  0  0  0  0  0
  141.0559   74.1746  218.7945 H   0  0  0  0  0  0  0  0  0  0  0  0
  141.3319   75.5952  222.6442 H   0  0  0  0  0  0  0  0  0  0  0  0
  140.6840   77.2047  222.7611 H   0  0  0  0  0  0  0  0  0  0  0  0
  138.7925   75.8384  223.4871 H   0  0  0  0  0  0  0  0  0  0  0  0
  139.5910   73.9090  223.2380 H   0  0  0  0  0  0  0  0  0  0  0  0
  137.7452   75.4647  220.8838 H   0  0  0  0  0  0  0  0  0  0  0  0
  137.5591   76.9303  221.8461 H   0  0  0  0  0  0  0  0  0  0  0  0
  139.0830   76.9117  219.3919 H   0  0  0  0  0  0  0  0  0  0  0  0
  138.6956   78.9986  220.1758 H   0  0  0  0  0  0  0  0  0  0  0  0
  138.7467   78.4593  221.8971 H   0  0  0  0  0  0  0  0  0  0  0  0
  143.0303   78.6679  221.5281 H   0  0  0  0  0  0  0  0  0  0  0  0
  144.3359   79.8349  223.2346 H   0  0  0  0  0  0  0  0  0  0  0  0
  143.2562   81.4763  224.7672 H   0  0  0  0  0  0  0  0  0  0  0  0
  140.8220   81.8955  224.5095 H   0  0  0  0  0  0  0  0  0  0  0  0
  139.5091   80.7306  222.8011 H   0  0  0  0  0  0  0  0  0  0  0  0
  139.3415   70.0781  220.8488 H   0  0  0  0  0  0  0  0  0  0  0  0
  138.8428   68.8810  222.9515 H   0  0  0  0  0  0  0  0  0  0  0  0
  138.9699   68.6200  225.2651 H   0  0  0  0  0  0  0  0  0  0  0  0
  141.1104   71.5064  227.6349 H   0  0  0  0  0  0  0  0  0  0  0  0
  141.6753   72.8067  225.5734 H   0  0  0  0  0  0  0  0  0  0  0  0
  1  2  2  0
  2  3  1  0
  3  4  1  0
  4  5  1  0
  5  6  2  0
  5  7  1  0
  7  8  1  0
  8  9  1  0
  9 10  1  0
  9 11  1  0
 11 12  1  0
 12 13  1  0
 13 14  1  0
 14 15  1  0
 15 16  2  0
 16 17  1  0
 17 18  2  0
 18 19  1  0
 19 20  2  0
  2 21  1  0
 21 22  2  0
 22 23  1  0
 23 24  2  0
 24 25  1  0
 25 26  2  0
 26 27  1  0
 26 28  1  0
 28 29  2  0
 29 30  1  0
 30 31  2  0
 12  7  1  0
 20 15  1  0
 31 21  1  0
 30 24  1  0
  3 32  1  0
  4 33  1  0
  4 34  1  0
  8 35  1  0
  8 36  1  0
  9 37  1  1
 10 38  1  0
 11 39  1  0
 11 40  1  0
 12 41  1  6
 13 42  1  0
 13 43  1  0
 16 44  1  0
 17 45  1  0
 18 46  1  0
 19 47  1  0
 20 48  1  0
 22 49  1  0
 23 50  1  0
 25 51  1  0
 28 52  1  0
 29 53  1  0
M  END
>  <smiles>  (11) 
O=C(NCC(=O)N1C[C@H](O)C[C@H]1COc1ccccc1)c1ccc2cc(Cl)ccc2n1

>  <score_type>  (11) 
oracle

>  <origin>  (11) 
autodockgpu

>  <m_score__min__energy>  (11) 
-8.2599999999999998

>  <m_primary>  (11) 
energy

>  <rmsd>  (11) 
3.2175537519661455

>  <m_score__min__rmsd>  (11) 
3.2175537519661455

>  <meeko>  (11) 
{"free_energy": -7.11, "intermolecular_energy": -9.5, "internal_energy": -3.04, "cluster_size": 10, "cluster_id": 2, "rank_in_cluster": 10}

>  <energy>  (11) 
-7.55

>  <cluster_rmsd>  (11) 
1.95

>  <cluster>  (11) 
2

$$$$

     RDKit          3D

 53 56  0  0  0  0  0  0  0  0999 V2000
  138.0980   73.8160  220.6880 O   0  0  0  0  0  0  0  0  0  0  0  0
  137.9420   74.5240  221.7050 C   0  0  0  0  0  0  0  0  0  0  0  0
  136.8870   74.3030  222.6320 N   0  0  0  0  0  0  0  0  0  0  0  0
  135.9110   73.2210  222.4450 C   0  0  0  0  0  0  0  0  0  0  0  0
  135.9900   72.2460  223.5560 C   0  0  0  0  0  0  0  0  0  0  0  0
  135.4290   72.4100  224.6750 O   0  0  0  0  0  0  0  0  0  0  0  0
  136.7320   71.0480  223.3870 N   0  0  0  0  0  0  0  0  0  0  0  0
  136.6300   70.0460  222.3370 C   0  0  0  0  0  0  0  0  0  0  0  0
  136.5430   68.7800  223.1470 C   0  0  2  0  0  0  0  0  0  0  0  0
  135.2330   68.5090  223.5520 O   0  0  0  0  0  0  0  0  0  0  0  0
  137.4550   69.0100  224.3090 C   0  0  0  0  0  0  0  0  0  0  0  0
  137.8040   70.5110  224.2470 C   0  0  1  0  0  0  0  0  0  0  0  0
  139.1490   70.5530  223.5620 C   0  0  0  0  0  0  0  0  0  0  0  0
  140.1560   70.2350  224.4510 O   0  0  0  0  0  0  0  0  0  0  0  0
  140.4890   70.7130  225.6710 C   0  0  0  0  0  0  0  0  0  0  0  0
  140.1490   69.9270  226.7820 C   0  0  0  0  0  0  0  0  0  0  0  0
  140.4390   70.3090  228.0680 C   0  0  0  0  0  0  0  0  0  0  0  0
  141.0860   71.4980  228.3290 C   0  0  0  0  0  0  0  0  0  0  0  0
  141.4270   72.2790  227.2510 C   0  0  0  0  0  0  0  0  0  0  0  0
  141.1340   71.8930  225.9570 C   0  0  0  0  0  0  0  0  0  0  0  0
  138.8740   75.6370  221.9820 C   0  0  0  0  0  0  0  0  0  0  0  0
  140.2280   75.4520  221.6730 C   0  0  0  0  0  0  0  0  0  0  0  0
  141.0560   76.5010  221.9430 C   0  0  0  0  0  0  0  0  0  0  0  0
  140.6180   77.6710  222.4810 C   0  0  0  0  0  0  0  0  0  0  0  0
  141.5160   78.6850  222.7230 C   0  0  0  0  0  0  0  0  0  0  0  0
  141.0730   79.8690  223.2670 C   0  0  0  0  0  0  0  0  0  0  0  0
  142.2370   81.1610  223.5750 Cl  0  0  0  0  0  0  0  0  0  0  0  0
  139.7270   80.0490  223.5730 C   0  0  0  0  0  0  0  0  0  0  0  0
  138.8110   79.0320  223.3310 C   0  0  0  0  0  0  0  0  0  0  0  0
  139.2810   77.8340  222.7780 C   0  0  0  0  0  0  0  0  0  0  0  0
  138.4670   76.8000  222.5120 N   0  0  0  0  0  0  0  0  0  0  0  0
  136.8220   74.9490  223.4750 H   0  0  0  0  0  0  0  0  0  0  0  0
  134.8986   73.6498  222.4125 H   0  0  0  0  0  0  0  0  0  0  0  0
  136.1363   72.7011  221.5021 H   0  0  0  0  0  0  0  0  0  0  0  0
  135.7288   70.1949  221.7241 H   0  0  0  0  0  0  0  0  0  0  0  0
  137.4596   70.0633  221.6148 H   0  0  0  0  0  0  0  0  0  0  0  0
  136.8403   67.8963  222.5633 H   0  0  0  0  0  0  0  0  0  0  0  0
  134.8620   69.3560  223.9010 H   0  0  0  0  0  0  0  0  0  0  0  0
  136.9462   68.7695  225.2541 H   0  0  0  0  0  0  0  0  0  0  0  0
  138.3513   68.3738  224.2648 H   0  0  0  0  0  0  0  0  0  0  0  0
  137.8631   71.0647  225.1956 H   0  0  0  0  0  0  0  0  0  0  0  0
  139.1558   69.8292  222.7337 H   0  0  0  0  0  0  0  0  0  0  0  0
  139.3211   71.5699  223.1794 H   0  0  0  0  0  0  0  0  0  0  0  0
  139.6316   68.9705  226.6167 H   0  0  0  0  0  0  0  0  0  0  0  0
  140.1503   69.6555  228.9044 H   0  0  0  0  0  0  0  0  0  0  0  0
  141.3197   71.8088  229.3580 H   0  0  0  0  0  0  0  0  0  0  0  0
  141.9454   73.2339  227.4222 H   0  0  0  0  0  0  0  0  0  0  0  0
  141.4270   72.5527  225.1269 H   0  0  0  0  0  0  0  0  0  0  0  0
  140.6018   74.5137  221.2373 H   0  0  0  0  0  0  0  0  0  0  0  0
  142.1271   76.3964  221.7154 H   0  0  0  0  0  0  0  0  0  0  0  0
  142.5811   78.5502  222.4832 H   0  0  0  0  0  0  0  0  0  0  0  0
  139.3868   81.0002  224.0082 H   0  0  0  0  0  0  0  0  0  0  0  0
  137.7449   79.1645  223.5675 H   0  0  0  0  0  0  0  0  0  0  0  0
  1  2  2  0
  2  3  1  0
  3  4  1  0
  4  5  1  0
  5  6  2  0
  5  7  1  0
  7  8  1  0
  8  9  1  0
  9 10  1  0
  9 11  1  0
 11 12  1  0
 12 13  1  0
 13 14  1  0
 14 15  1  0
 15 16  2  0
 16 17  1  0
 17 18  2  0
 18 19  1  0
 19 20  2  0
  2 21  1  0
 21 22  2  0
 22 23  1  0
 23 24  2  0
 24 25  1  0
 25 26  2  0
 26 27  1  0
 26 28  1  0
 28 29  2  0
 29 30  1  0
 30 31  2  0
 12  7  1  0
 20 15  1  0
 31 21  1  0
 30 24  1  0
  3 32  1  0
  4 33  1  0
  4 34  1  0
  8 35  1  0
  8 36  1  0
  9 37  1  6
 10 38  1  0
 11 39  1  0
 11 40  1  0
 12 41  1  1
 13 42  1  0
 13 43  1  0
 16 44  1  0
 17 45  1  0
 18 46  1  0
 19 47  1  0
 20 48  1  0
 22 49  1  0
 23 50  1  0
 25 51  1  0
 28 52  1  0
 29 53  1  0
M  END
>  <smiles>  (12) 
O=C(NCC(=O)N1C[C@H](O)C[C@H]1COc1ccccc1)c1ccc2cc(Cl)ccc2n1

>  <score_type>  (12) 
oracle

>  <origin>  (12) 
autodockgpu

>  <m_score__min__energy>  (12) 
-8.2599999999999998

>  <m_primary>  (12) 
energy

>  <rmsd>  (12) 
8.001997154188867

>  <m_score__min__rmsd>  (12) 
8.001997154188867

>  <meeko>  (12) 
{"free_energy": -7.88, "intermolecular_energy": -10.27, "internal_energy": -1.69, "cluster_size": 5, "cluster_id": 6, "rank_in_cluster": 1}

>  <energy>  (12) 
-7.11

>  <cluster_rmsd>  (12) 
1.81

>  <cluster>  (12) 
2

$$$$

     RDKit          3D

 53 56  0  0  0  0  0  0  0  0999 V2000
  135.0370   75.2650  222.9040 O   0  0  0  0  0  0  0  0  0  0  0  0
  136.2760   75.1280  222.8120 C   0  0  0  0  0  0  0  0  0  0  0  0
  136.8960   73.8500  222.7390 N   0  0  0  0  0  0  0  0  0  0  0  0
  136.1100   72.6090  222.7690 C   0  0  0  0  0  0  0  0  0  0  0  0
  136.8680   71.5260  223.4360 C   0  0  0  0  0  0  0  0  0  0  0  0
  136.3660   70.7350  224.2810 O   0  0  0  0  0  0  0  0  0  0  0  0
  138.2410   71.3400  223.1300 N   0  0  0  0  0  0  0  0  0  0  0  0
  139.4140   71.8860  223.7970 C   0  0  0  0  0  0  0  0  0  0  0  0
  140.1850   72.4390  222.6290 C   0  0  2  0  0  0  0  0  0  0  0  0
  139.7620   73.7270  222.2890 O   0  0  0  0  0  0  0  0  0  0  0  0
  139.9540   71.4600  221.5240 C   0  0  0  0  0  0  0  0  0  0  0  0
  138.8310   70.5380  222.0400 C   0  0  1  0  0  0  0  0  0  0  0  0
  139.5580   69.3230  222.5650 C   0  0  0  0  0  0  0  0  0  0  0  0
  139.0110   68.9110  223.7640 O   0  0  0  0  0  0  0  0  0  0  0  0
  139.5280   68.7570  225.0040 C   0  0  0  0  0  0  0  0  0  0  0  0
  140.5640   69.6250  225.3790 C   0  0  0  0  0  0  0  0  0  0  0  0
  141.1620   69.5640  226.6140 C   0  0  0  0  0  0  0  0  0  0  0  0
  140.7670   68.6340  227.5510 C   0  0  0  0  0  0  0  0  0  0  0  0
  139.7530   67.7760  227.1990 C   0  0  0  0  0  0  0  0  0  0  0  0
  139.1520   67.8400  225.9570 C   0  0  0  0  0  0  0  0  0  0  0  0
  137.1520   76.3160  222.7730 C   0  0  0  0  0  0  0  0  0  0  0  0
  136.5450   77.5790  222.7690 C   0  0  0  0  0  0  0  0  0  0  0  0
  137.3860   78.6520  222.7320 C   0  0  0  0  0  0  0  0  0  0  0  0
  138.7400   78.5300  222.7010 C   0  0  0  0  0  0  0  0  0  0  0  0
  139.5230   79.6600  222.6660 C   0  0  0  0  0  0  0  0  0  0  0  0
  140.8940   79.5380  222.6350 C   0  0  0  0  0  0  0  0  0  0  0  0
  141.8860   80.9990  222.5880 Cl  0  0  0  0  0  0  0  0  0  0  0  0
  141.4930   78.2810  222.6390 C   0  0  0  0  0  0  0  0  0  0  0  0
  140.7120   77.1320  222.6750 C   0  0  0  0  0  0  0  0  0  0  0  0
  139.3190   77.2780  222.7060 C   0  0  0  0  0  0  0  0  0  0  0  0
  138.4890   76.2230  222.7410 N   0  0  0  0  0  0  0  0  0  0  0  0
  137.9570   73.8160  222.6620 H   0  0  0  0  0  0  0  0  0  0  0  0
  135.1745   72.7872  223.3196 H   0  0  0  0  0  0  0  0  0  0  0  0
  135.8917   72.3033  221.7351 H   0  0  0  0  0  0  0  0  0  0  0  0
  139.1401   72.6775  224.5100 H   0  0  0  0  0  0  0  0  0  0  0  0
  139.9717   71.1540  224.3996 H   0  0  0  0  0  0  0  0  0  0  0  0
  141.2553   72.5506  222.8570 H   0  0  0  0  0  0  0  0  0  0  0  0
  139.3180   74.1020  223.0880 H   0  0  0  0  0  0  0  0  0  0  0  0
  139.6382   71.9788  220.6069 H   0  0  0  0  0  0  0  0  0  0  0  0
  140.8658   70.8998  221.2694 H   0  0  0  0  0  0  0  0  0  0  0  0
  138.0595   70.2174  221.3244 H   0  0  0  0  0  0  0  0  0  0  0  0
  139.4766   68.5076  221.8311 H   0  0  0  0  0  0  0  0  0  0  0  0
  140.6142   69.5839  222.7276 H   0  0  0  0  0  0  0  0  0  0  0  0
  140.9097   70.3811  224.6587 H   0  0  0  0  0  0  0  0  0  0  0  0
  141.9697   70.2693  226.8592 H   0  0  0  0  0  0  0  0  0  0  0  0
  141.2441   68.5806  228.5407 H   0  0  0  0  0  0  0  0  0  0  0  0
  139.4122   67.0210  227.9228 H   0  0  0  0  0  0  0  0  0  0  0  0
  138.3436   67.1320  225.7219 H   0  0  0  0  0  0  0  0  0  0  0  0
  135.4518   77.6983  222.7943 H   0  0  0  0  0  0  0  0  0  0  0  0
  136.9494   79.6616  222.7270 H   0  0  0  0  0  0  0  0  0  0  0  0
  139.0563   80.6561  222.6628 H   0  0  0  0  0  0  0  0  0  0  0  0
  142.5895   78.1970  222.6136 H   0  0  0  0  0  0  0  0  0  0  0  0
  141.1753   76.1343  222.6791 H   0  0  0  0  0  0  0  0  0  0  0  0
  1  2  2  0
  2  3  1  0
  3  4  1  0
  4  5  1  0
  5  6  2  0
  5  7  1  0
  7  8  1  0
  8  9  1  0
  9 10  1  0
  9 11  1  0
 11 12  1  0
 12 13  1  0
 13 14  1  0
 14 15  1  0
 15 16  2  0
 16 17  1  0
 17 18  2  0
 18 19  1  0
 19 20  2  0
  2 21  1  0
 21 22  2  0
 22 23  1  0
 23 24  2  0
 24 25  1  0
 25 26  2  0
 26 27  1  0
 26 28  1  0
 28 29  2  0
 29 30  1  0
 30 31  2  0
 12  7  1  0
 20 15  1  0
 31 21  1  0
 30 24  1  0
  3 32  1  0
  4 33  1  0
  4 34  1  0
  8 35  1  0
  8 36  1  0
  9 37  1  1
 10 38  1  0
 11 39  1  0
 11 40  1  0
 12 41  1  6
 13 42  1  0
 13 43  1  0
 16 44  1  0
 17 45  1  0
 18 46  1  0
 19 47  1  0
 20 48  1  0
 22 49  1  0
 23 50  1  0
 25 51  1  0
 28 52  1  0
 29 53  1  0
M  END
>  <smiles>  (13) 
O=C(NCC(=O)N1C[C@H](O)C[C@H]1COc1ccccc1)c1ccc2cc(Cl)ccc2n1

>  <score_type>  (13) 
oracle

>  <origin>  (13) 
autodockgpu

>  <m_score__min__energy>  (13) 
-8.2599999999999998

>  <m_primary>  (13) 
energy

>  <rmsd>  (13) 
7.604379657415345

>  <m_score__min__rmsd>  (13) 
7.604379657415345

>  <meeko>  (13) 
{"free_energy": -7.28, "intermolecular_energy": -9.67, "internal_energy": -3.17, "cluster_size": 5, "cluster_id": 6, "rank_in_cluster": 3}

>  <energy>  (13) 
-8.13

>  <cluster_rmsd>  (13) 
0.0

>  <cluster>  (13) 
3

$$$$

     RDKit          3D

 53 56  0  0  0  0  0  0  0  0999 V2000
  140.1020   71.9440  220.6810 O   0  0  0  0  0  0  0  0  0  0  0  0
  139.9440   72.3960  221.8350 C   0  0  0  0  0  0  0  0  0  0  0  0
  139.7130   73.7760  222.0860 N   0  0  0  0  0  0  0  0  0  0  0  0
  139.6480   74.7580  220.9940 C   0  0  0  0  0  0  0  0  0  0  0  0
  140.7370   75.7530  221.1200 C   0  0  0  0  0  0  0  0  0  0  0  0
  141.1800   76.1740  222.2240 O   0  0  0  0  0  0  0  0  0  0  0  0
  141.3390   76.2850  219.9500 N   0  0  0  0  0  0  0  0  0  0  0  0
  141.3290   75.7610  218.5930 C   0  0  0  0  0  0  0  0  0  0  0  0
  142.7930   75.8150  218.2470 C   0  0  2  0  0  0  0  0  0  0  0  0
  143.4760   74.6810  218.6940 O   0  0  0  0  0  0  0  0  0  0  0  0
  143.2910   77.0660  218.8970 C   0  0  0  0  0  0  0  0  0  0  0  0
  142.1390   77.5180  219.8180 C   0  0  1  0  0  0  0  0  0  0  0  0
  141.4160   78.5750  219.0180 C   0  0  0  0  0  0  0  0  0  0  0  0
  140.9950   79.6020  219.8390 O   0  0  0  0  0  0  0  0  0  0  0  0
  141.1390   79.8370  221.1620 C   0  0  0  0  0  0  0  0  0  0  0  0
  142.2880   80.5310  221.5690 C   0  0  0  0  0  0  0  0  0  0  0  0
  142.5380   80.8290  222.8860 C   0  0  0  0  0  0  0  0  0  0  0  0
  141.6600   80.4540  223.8800 C   0  0  0  0  0  0  0  0  0  0  0  0
  140.5290   79.7730  223.4980 C   0  0  0  0  0  0  0  0  0  0  0  0
  140.2780   79.4740  222.1720 C   0  0  0  0  0  0  0  0  0  0  0  0
  139.9900   71.4880  222.9990 C   0  0  0  0  0  0  0  0  0  0  0  0
  139.5020   70.1850  222.8350 C   0  0  0  0  0  0  0  0  0  0  0  0
  139.5610   69.3760  223.9320 C   0  0  0  0  0  0  0  0  0  0  0  0
  140.0610   69.7870  225.1280 C   0  0  0  0  0  0  0  0  0  0  0  0
  140.0880   68.9120  226.1890 C   0  0  0  0  0  0  0  0  0  0  0  0
  140.5950   69.3270  227.4000 C   0  0  0  0  0  0  0  0  0  0  0  0
  140.6210   68.1930  228.7540 Cl  0  0  0  0  0  0  0  0  0  0  0  0
  141.0790   70.6220  227.5580 C   0  0  0  0  0  0  0  0  0  0  0  0
  141.0570   71.5150  226.4930 C   0  0  0  0  0  0  0  0  0  0  0  0
  140.5370   71.0740  225.2700 C   0  0  0  0  0  0  0  0  0  0  0  0
  140.4780   71.8690  224.1890 N   0  0  0  0  0  0  0  0  0  0  0  0
  139.5870   74.0830  223.0970 H   0  0  0  0  0  0  0  0  0  0  0  0
  139.7464   74.2348  220.0314 H   0  0  0  0  0  0  0  0  0  0  0  0
  138.6822   75.2820  221.0464 H   0  0  0  0  0  0  0  0  0  0  0  0
  140.9453   74.7306  218.5618 H   0  0  0  0  0  0  0  0  0  0  0  0
  140.6807   76.3168  217.8996 H   0  0  0  0  0  0  0  0  0  0  0  0
  142.9594   75.8269  217.1597 H   0  0  0  0  0  0  0  0  0  0  0  0
  144.4410   74.8720  218.5980 H   0  0  0  0  0  0  0  0  0  0  0  0
  144.1990   76.8627  219.4837 H   0  0  0  0  0  0  0  0  0  0  0  0
  143.5604   77.8373  218.1605 H   0  0  0  0  0  0  0  0  0  0  0  0
  142.4000   77.9260  220.8056 H   0  0  0  0  0  0  0  0  0  0  0  0
  142.0966   78.9787  218.2539 H   0  0  0  0  0  0  0  0  0  0  0  0
  140.5361   78.1188  218.5408 H   0  0  0  0  0  0  0  0  0  0  0  0
  143.0145   80.8478  220.8062 H   0  0  0  0  0  0  0  0  0  0  0  0
  143.4544   81.3762  223.1521 H   0  0  0  0  0  0  0  0  0  0  0  0
  141.8565   80.6902  224.9362 H   0  0  0  0  0  0  0  0  0  0  0  0
  139.8065   79.4585  224.2655 H   0  0  0  0  0  0  0  0  0  0  0  0
  139.3586   78.9272  221.9155 H   0  0  0  0  0  0  0  0  0  0  0  0
  139.0942   69.8339  221.8756 H   0  0  0  0  0  0  0  0  0  0  0  0
  139.1874   68.3450  223.8452 H   0  0  0  0  0  0  0  0  0  0  0  0
  139.7069   67.8869  226.0707 H   0  0  0  0  0  0  0  0  0  0  0  0
  141.4812   70.9408  228.5310 H   0  0  0  0  0  0  0  0  0  0  0  0
  141.4379   72.5405  226.6079 H   0  0  0  0  0  0  0  0  0  0  0  0
  1  2  2  0
  2  3  1  0
  3  4  1  0
  4  5  1  0
  5  6  2  0
  5  7  1  0
  7  8  1  0
  8  9  1  0
  9 10  1  0
  9 11  1  0
 11 12  1  0
 12 13  1  0
 13 14  1  0
 14 15  1  0
 15 16  2  0
 16 17  1  0
 17 18  2  0
 18 19  1  0
 19 20  2  0
  2 21  1  0
 21 22  2  0
 22 23  1  0
 23 24  2  0
 24 25  1  0
 25 26  2  0
 26 27  1  0
 26 28  1  0
 28 29  2  0
 29 30  1  0
 30 31  2  0
 12  7  1  0
 20 15  1  0
 31 21  1  0
 30 24  1  0
  3 32  1  0
  4 33  1  0
  4 34  1  0
  8 35  1  0
  8 36  1  0
  9 37  1  6
 10 38  1  0
 11 39  1  0
 11 40  1  0
 12 41  1  1
 13 42  1  0
 13 43  1  0
 16 44  1  0
 17 45  1  0
 18 46  1  0
 19 47  1  0
 20 48  1  0
 22 49  1  0
 23 50  1  0
 25 51  1  0
 28 52  1  0
 29 53  1  0
M  END
>  <smiles>  (14) 
O=C(NCC(=O)N1C[C@H](O)C[C@H]1COc1ccccc1)c1ccc2cc(Cl)ccc2n1

>  <score_type>  (14) 
oracle

>  <origin>  (14) 
autodockgpu

>  <m_score__min__energy>  (14) 
-8.2599999999999998

>  <m_primary>  (14) 
energy

>  <rmsd>  (14) 
1.7409749406745378

>  <m_score__min__rmsd>  (14) 
1.7409749406745378

>  <meeko>  (14) 
{"free_energy": -8.14, "intermolecular_energy": -10.52, "internal_energy": -1.8, "cluster_size": 10, "cluster_id": 2, "rank_in_cluster": 2}

>  <energy>  (14) 
-7.84

>  <cluster_rmsd>  (14) 
1.19

>  <cluster>  (14) 
3

$$$$

     RDKit          3D

 53 56  0  0  0  0  0  0  0  0999 V2000
  138.9110   71.9530  221.0490 O   0  0  0  0  0  0  0  0  0  0  0  0
  138.4660   72.1780  222.1950 C   0  0  0  0  0  0  0  0  0  0  0  0
  137.3370   73.0120  222.4220 N   0  0  0  0  0  0  0  0  0  0  0  0
  136.6250   73.6630  221.3140 C   0  0  0  0  0  0  0  0  0  0  0  0
  137.5800   74.2880  220.3720 C   0  0  0  0  0  0  0  0  0  0  0  0
  137.6010   74.0520  219.1320 O   0  0  0  0  0  0  0  0  0  0  0  0
  138.5430   75.2110  220.8580 N   0  0  0  0  0  0  0  0  0  0  0  0
  139.8920   75.4690  220.3780 C   0  0  0  0  0  0  0  0  0  0  0  0
  140.6780   75.3980  221.6600 C   0  0  2  0  0  0  0  0  0  0  0  0
  141.0300   74.0850  221.9840 O   0  0  0  0  0  0  0  0  0  0  0  0
  139.7830   76.0110  222.6880 C   0  0  0  0  0  0  0  0  0  0  0  0
  138.4140   76.1490  221.9900 C   0  0  1  0  0  0  0  0  0  0  0  0
  138.3750   77.5860  221.5280 C   0  0  0  0  0  0  0  0  0  0  0  0
  138.9860   78.4100  222.4520 O   0  0  0  0  0  0  0  0  0  0  0  0
  140.1950   79.0160  222.4850 C   0  0  0  0  0  0  0  0  0  0  0  0
  140.8130   79.1430  223.7370 C   0  0  0  0  0  0  0  0  0  0  0  0
  142.0410   79.7380  223.8920 C   0  0  0  0  0  0  0  0  0  0  0  0
  142.7300   80.2420  222.8100 C   0  0  0  0  0  0  0  0  0  0  0  0
  142.1370   80.1240  221.5760 C   0  0  0  0  0  0  0  0  0  0  0  0
  140.9010   79.5250  221.4220 C   0  0  0  0  0  0  0  0  0  0  0  0
  139.1140   71.5670  223.3740 C   0  0  0  0  0  0  0  0  0  0  0  0
  140.3160   72.1270  223.8260 C   0  0  0  0  0  0  0  0  0  0  0  0
  140.8830   71.5360  224.9160 C   0  0  0  0  0  0  0  0  0  0  0  0
  140.3330   70.4640  225.5470 C   0  0  0  0  0  0  0  0  0  0  0  0
  140.9650   69.9240  226.6430 C   0  0  0  0  0  0  0  0  0  0  0  0
  140.4080   68.8390  227.2830 C   0  0  0  0  0  0  0  0  0  0  0  0
  141.2320   68.1540  228.6870 Cl  0  0  0  0  0  0  0  0  0  0  0  0
  139.2140   68.2860  226.8300 C   0  0  0  0  0  0  0  0  0  0  0  0
  138.5660   68.8240  225.7240 C   0  0  0  0  0  0  0  0  0  0  0  0
  139.1480   69.9280  225.0870 C   0  0  0  0  0  0  0  0  0  0  0  0
  138.5920   70.5100  224.0130 N   0  0  0  0  0  0  0  0  0  0  0  0
  137.0190   73.1550  223.4270 H   0  0  0  0  0  0  0  0  0  0  0  0
  136.0284   72.9108  220.7770 H   0  0  0  0  0  0  0  0  0  0  0  0
  135.9717   74.4463  221.7259 H   0  0  0  0  0  0  0  0  0  0  0  0
  140.2188   74.7006  219.6619 H   0  0  0  0  0  0  0  0  0  0  0  0
  140.0031   76.4178  219.8327 H   0  0  0  0  0  0  0  0  0  0  0  0
  141.6376   75.9305  221.5848 H   0  0  0  0  0  0  0  0  0  0  0  0
  140.3760   73.4950  221.5350 H   0  0  0  0  0  0  0  0  0  0  0  0
  139.7037   75.3591  223.5705 H   0  0  0  0  0  0  0  0  0  0  0  0
  140.1650   76.9784  223.0460 H   0  0  0  0  0  0  0  0  0  0  0  0
  137.5113   75.9334  222.5804 H   0  0  0  0  0  0  0  0  0  0  0  0
  138.9001   77.6706  220.5651 H   0  0  0  0  0  0  0  0  0  0  0  0
  137.3250   77.8946  221.4171 H   0  0  0  0  0  0  0  0  0  0  0  0
  140.2963   78.7525  224.6261 H   0  0  0  0  0  0  0  0  0  0  0  0
  142.4822   79.8136  224.8968 H   0  0  0  0  0  0  0  0  0  0  0  0
  143.7140   80.7190  222.9293 H   0  0  0  0  0  0  0  0  0  0  0  0
  142.6583   80.5155  220.6900 H   0  0  0  0  0  0  0  0  0  0  0  0
  140.4676   79.4533  220.4135 H   0  0  0  0  0  0  0  0  0  0  0  0
  140.7761   72.9942  223.3297 H   0  0  0  0  0  0  0  0  0  0  0  0
  141.8282   71.9448  225.3026 H   0  0  0  0  0  0  0  0  0  0  0  0
  141.9092   70.3560  227.0060 H   0  0  0  0  0  0  0  0  0  0  0  0
  138.7807   67.4187  227.3497 H   0  0  0  0  0  0  0  0  0  0  0  0
  137.6215   68.3944  225.3587 H   0  0  0  0  0  0  0  0  0  0  0  0
  1  2  2  0
  2  3  1  0
  3  4  1  0
  4  5  1  0
  5  6  2  0
  5  7  1  0
  7  8  1  0
  8  9  1  0
  9 10  1  0
  9 11  1  0
 11 12  1  0
 12 13  1  0
 13 14  1  0
 14 15  1  0
 15 16  2  0
 16 17  1  0
 17 18  2  0
 18 19  1  0
 19 20  2  0
  2 21  1  0
 21 22  2  0
 22 23  1  0
 23 24  2  0
 24 25  1  0
 25 26  2  0
 26 27  1  0
 26 28  1  0
 28 29  2  0
 29 30  1  0
 30 31  2  0
 12  7  1  0
 20 15  1  0
 31 21  1  0
 30 24  1  0
  3 32  1  0
  4 33  1  0
  4 34  1  0
  8 35  1  0
  8 36  1  0
  9 37  1  6
 10 38  1  0
 11 39  1  0
 11 40  1  0
 12 41  1  1
 13 42  1  0
 13 43  1  0
 16 44  1  0
 17 45  1  0
 18 46  1  0
 19 47  1  0
 20 48  1  0
 22 49  1  0
 23 50  1  0
 25 51  1  0
 28 52  1  0
 29 53  1  0
M  END
>  <smiles>  (15) 
O=C(NCC(=O)N1C[C@H](O)C[C@H]1COc1ccccc1)c1ccc2cc(Cl)ccc2n1

>  <score_type>  (15) 
oracle

>  <origin>  (15) 
autodockgpu

>  <m_score__min__energy>  (15) 
-8.2599999999999998

>  <m_primary>  (15) 
energy

>  <rmsd>  (15) 
3.274254728393821

>  <m_score__min__rmsd>  (15) 
3.274254728393821

>  <meeko>  (15) 
{"free_energy": -7.3, "intermolecular_energy": -9.69, "internal_energy": -2.37, "cluster_size": 20, "cluster_id": 3, "rank_in_cluster": 9}

>  <energy>  (15) 
-7.54

>  <cluster_rmsd>  (15) 
1.3

>  <cluster>  (15) 
3

$$$$

     RDKit          3D

 53 56  0  0  0  0  0  0  0  0999 V2000
  136.9820   70.9860  221.2110 O   0  0  0  0  0  0  0  0  0  0  0  0
  137.6600   71.6010  222.0610 C   0  0  0  0  0  0  0  0  0  0  0  0
  137.9440   72.9890  221.9480 N   0  0  0  0  0  0  0  0  0  0  0  0
  137.4560   73.7860  220.8140 C   0  0  0  0  0  0  0  0  0  0  0  0
  136.8980   75.0750  221.2820 C   0  0  0  0  0  0  0  0  0  0  0  0
  135.6810   75.3930  221.1820 O   0  0  0  0  0  0  0  0  0  0  0  0
  137.7560   76.0320  221.8840 N   0  0  0  0  0  0  0  0  0  0  0  0
  137.5550   76.8120  223.0970 C   0  0  0  0  0  0  0  0  0  0  0  0
  137.8820   78.1980  222.6110 C   0  0  2  0  0  0  0  0  0  0  0  0
  136.7780   78.8150  222.0150 O   0  0  0  0  0  0  0  0  0  0  0  0
  139.0090   78.0080  221.6470 C   0  0  0  0  0  0  0  0  0  0  0  0
  139.0830   76.4840  221.4230 C   0  0  1  0  0  0  0  0  0  0  0  0
  140.1860   76.0250  222.3460 C   0  0  0  0  0  0  0  0  0  0  0  0
  140.3190   74.6520  222.2990 O   0  0  0  0  0  0  0  0  0  0  0  0
  141.1670   73.8340  221.6360 C   0  0  0  0  0  0  0  0  0  0  0  0
  140.9700   72.4520  221.7820 C   0  0  0  0  0  0  0  0  0  0  0  0
  141.7660   71.5270  221.1530 C   0  0  0  0  0  0  0  0  0  0  0  0
  142.8080   71.9190  220.3410 C   0  0  0  0  0  0  0  0  0  0  0  0
  143.0140   73.2680  220.1870 C   0  0  0  0  0  0  0  0  0  0  0  0
  142.2110   74.1990  220.8200 C   0  0  0  0  0  0  0  0  0  0  0  0
  138.1940   70.8870  223.2390 C   0  0  0  0  0  0  0  0  0  0  0  0
  137.7300   69.5890  223.4860 C   0  0  0  0  0  0  0  0  0  0  0  0
  138.2470   68.9620  224.5820 C   0  0  0  0  0  0  0  0  0  0  0  0
  139.1620   69.5430  225.4030 C   0  0  0  0  0  0  0  0  0  0  0  0
  139.6380   68.8460  226.4890 C   0  0  0  0  0  0  0  0  0  0  0  0
  140.5650   69.4330  227.3210 C   0  0  0  0  0  0  0  0  0  0  0  0
  141.1650   68.5260  228.7140 Cl  0  0  0  0  0  0  0  0  0  0  0  0
  141.0230   70.7230  227.0720 C   0  0  0  0  0  0  0  0  0  0  0  0
  140.5500   71.4360  225.9770 C   0  0  0  0  0  0  0  0  0  0  0  0
  139.6080   70.8220  225.1430 C   0  0  0  0  0  0  0  0  0  0  0  0
  139.0970   71.4370  224.0640 N   0  0  0  0  0  0  0  0  0  0  0  0
  138.5280   73.4410  222.7140 H   0  0  0  0  0  0  0  0  0  0  0  0
  138.2907   73.9827  220.1251 H   0  0  0  0  0  0  0  0  0  0  0  0
  136.6626   73.2225  220.3011 H   0  0  0  0  0  0  0  0  0  0  0  0
  136.5162   76.7441  223.4524 H   0  0  0  0  0  0  0  0  0  0  0  0
  138.1603   76.4793  223.9531 H   0  0  0  0  0  0  0  0  0  0  0  0
  138.1616   78.8683  223.4372 H   0  0  0  0  0  0  0  0  0  0  0  0
  136.2010   78.0920  221.6670 H   0  0  0  0  0  0  0  0  0  0  0  0
  138.8016   78.5291  220.7008 H   0  0  0  0  0  0  0  0  0  0  0  0
  139.9556   78.4180  222.0288 H   0  0  0  0  0  0  0  0  0  0  0  0
  139.2894   76.1239  220.4043 H   0  0  0  0  0  0  0  0  0  0  0  0
  141.1334   76.4907  222.0368 H   0  0  0  0  0  0  0  0  0  0  0  0
  139.9340   76.3218  223.3748 H   0  0  0  0  0  0  0  0  0  0  0  0
  140.1491   72.0977  222.4228 H   0  0  0  0  0  0  0  0  0  0  0  0
  141.5686   70.4548  221.2997 H   0  0  0  0  0  0  0  0  0  0  0  0
  143.4490   71.1811  219.8365 H   0  0  0  0  0  0  0  0  0  0  0  0
  143.8368   73.6160  219.5452 H   0  0  0  0  0  0  0  0  0  0  0  0
  142.4149   75.2688  220.6651 H   0  0  0  0  0  0  0  0  0  0  0  0
  136.9904   69.1023  222.8332 H   0  0  0  0  0  0  0  0  0  0  0  0
  137.9085   67.9409  224.8117 H   0  0  0  0  0  0  0  0  0  0  0  0
  139.2803   67.8257  226.6917 H   0  0  0  0  0  0  0  0  0  0  0  0
  141.7630   71.1806  227.7451 H   0  0  0  0  0  0  0  0  0  0  0  0
  140.9064   72.4561  225.7709 H   0  0  0  0  0  0  0  0  0  0  0  0
  1  2  2  0
  2  3  1  0
  3  4  1  0
  4  5  1  0
  5  6  2  0
  5  7  1  0
  7  8  1  0
  8  9  1  0
  9 10  1  0
  9 11  1  0
 11 12  1  0
 12 13  1  0
 13 14  1  0
 14 15  1  0
 15 16  2  0
 16 17  1  0
 17 18  2  0
 18 19  1  0
 19 20  2  0
  2 21  1  0
 21 22  2  0
 22 23  1  0
 23 24  2  0
 24 25  1  0
 25 26  2  0
 26 27  1  0
 26 28  1  0
 28 29  2  0
 29 30  1  0
 30 31  2  0
 12  7  1  0
 20 15  1  0
 31 21  1  0
 30 24  1  0
  3 32  1  0
  4 33  1  0
  4 34  1  0
  8 35  1  0
  8 36  1  0
  9 37  1  1
 10 38  1  0
 11 39  1  0
 11 40  1  0
 12 41  1  6
 13 42  1  0
 13 43  1  0
 16 44  1  0
 17 45  1  0
 18 46  1  0
 19 47  1  0
 20 48  1  0
 22 49  1  0
 23 50  1  0
 25 51  1  0
 28 52  1  0
 29 53  1  0
M  END
>  <smiles>  (16) 
O=C(NCC(=O)N1C[C@H](O)C[C@H]1COc1ccccc1)c1ccc2cc(Cl)ccc2n1

>  <score_type>  (16) 
oracle

>  <origin>  (16) 
autodockgpu

>  <m_score__min__energy>  (16) 
-8.2599999999999998

>  <m_primary>  (16) 
energy

>  <rmsd>  (16) 
2.9525410114183446

>  <m_score__min__rmsd>  (16) 
2.9525410114183446

>  <meeko>  (16) 
{"free_energy": -6.31, "intermolecular_energy": -8.7, "internal_energy": -3.22, "cluster_size": 6, "cluster_id": 4, "rank_in_cluster": 6}

>  <energy>  (16) 
-7.5

>  <cluster_rmsd>  (16) 
1.41

>  <cluster>  (16) 
3

$$$$

     RDKit          3D

 53 56  0  0  0  0  0  0  0  0999 V2000
  139.6970   74.1600  222.0070 O   0  0  0  0  0  0  0  0  0  0  0  0
  140.1200   75.3310  221.8970 C   0  0  0  0  0  0  0  0  0  0  0  0
  141.4190   75.6250  221.4010 N   0  0  0  0  0  0  0  0  0  0  0  0
  142.3470   74.5630  220.9880 C   0  0  0  0  0  0  0  0  0  0  0  0
  143.2950   75.0630  219.9670 C   0  0  0  0  0  0  0  0  0  0  0  0
  144.5330   74.8200  219.9800 O   0  0  0  0  0  0  0  0  0  0  0  0
  142.8170   75.8660  218.9000 N   0  0  0  0  0  0  0  0  0  0  0  0
  142.2980   75.4560  217.6030 C   0  0  0  0  0  0  0  0  0  0  0  0
  143.0930   76.3350  216.6770 C   0  0  2  0  0  0  0  0  0  0  0  0
  144.3380   75.7780  216.3700 O   0  0  0  0  0  0  0  0  0  0  0  0
  143.2220   77.6350  217.4050 C   0  0  0  0  0  0  0  0  0  0  0  0
  142.7280   77.3370  218.8350 C   0  0  1  0  0  0  0  0  0  0  0  0
  141.2960   77.8150  218.8410 C   0  0  0  0  0  0  0  0  0  0  0  0
  140.9170   78.1980  220.1120 O   0  0  0  0  0  0  0  0  0  0  0  0
  141.3840   79.1370  220.9650 C   0  0  0  0  0  0  0  0  0  0  0  0
  140.9580   80.4580  220.7590 C   0  0  0  0  0  0  0  0  0  0  0  0
  141.3640   81.4940  221.5650 C   0  0  0  0  0  0  0  0  0  0  0  0
  142.2190   81.2790  222.6240 C   0  0  0  0  0  0  0  0  0  0  0  0
  142.6440   79.9910  222.8390 C   0  0  0  0  0  0  0  0  0  0  0  0
  142.2340   78.9490  222.0290 C   0  0  0  0  0  0  0  0  0  0  0  0
  139.2620   76.4690  222.2840 C   0  0  0  0  0  0  0  0  0  0  0  0
  137.8890   76.3740  222.0230 C   0  0  0  0  0  0  0  0  0  0  0  0
  137.1290   77.4440  222.3950 C   0  0  0  0  0  0  0  0  0  0  0  0
  137.6500   78.5510  222.9870 C   0  0  0  0  0  0  0  0  0  0  0  0
  136.8180   79.5900  223.3350 C   0  0  0  0  0  0  0  0  0  0  0  0
  137.3450   80.7110  223.9350 C   0  0  0  0  0  0  0  0  0  0  0  0
  136.2650   82.0380  224.3740 Cl  0  0  0  0  0  0  0  0  0  0  0  0
  138.7100   80.8010  224.1930 C   0  0  0  0  0  0  0  0  0  0  0  0
  139.5600   79.7570  223.8470 C   0  0  0  0  0  0  0  0  0  0  0  0
  139.0050   78.6260  223.2370 C   0  0  0  0  0  0  0  0  0  0  0  0
  139.7510   77.5720  222.8700 N   0  0  0  0  0  0  0  0  0  0  0  0
  141.7070   76.6480  221.3360 H   0  0  0  0  0  0  0  0  0  0  0  0
  142.9119   74.2159  221.8657 H   0  0  0  0  0  0  0  0  0  0  0  0
  141.7662   73.7350  220.5554 H   0  0  0  0  0  0  0  0  0  0  0  0
  142.4905   74.3902  217.4107 H   0  0  0  0  0  0  0  0  0  0  0  0
  141.2080   75.5618  217.4997 H   0  0  0  0  0  0  0  0  0  0  0  0
  142.5983   76.4604  215.7026 H   0  0  0  0  0  0  0  0  0  0  0  0
  144.8180   75.6620  217.2270 H   0  0  0  0  0  0  0  0  0  0  0  0
  144.2700   77.9689  217.4189 H   0  0  0  0  0  0  0  0  0  0  0  0
  142.6439   78.4385  216.9252 H   0  0  0  0  0  0  0  0  0  0  0  0
  143.2690   77.8013  219.6727 H   0  0  0  0  0  0  0  0  0  0  0  0
  141.1987   78.6738  218.1605 H   0  0  0  0  0  0  0  0  0  0  0  0
  140.6459   76.9917  218.5100 H   0  0  0  0  0  0  0  0  0  0  0  0
  140.2753   80.6715  219.9233 H   0  0  0  0  0  0  0  0  0  0  0  0
  141.0004   82.5120  221.3615 H   0  0  0  0  0  0  0  0  0  0  0  0
  142.5478   82.1056  223.2710 H   0  0  0  0  0  0  0  0  0  0  0  0
  143.3271   79.7837  223.6759 H   0  0  0  0  0  0  0  0  0  0  0  0
  142.6004   77.9342  222.2431 H   0  0  0  0  0  0  0  0  0  0  0  0
  137.4485   75.4866  221.5450 H   0  0  0  0  0  0  0  0  0  0  0  0
  136.0457   77.4093  222.2074 H   0  0  0  0  0  0  0  0  0  0  0  0
  135.7383   79.5252  223.1350 H   0  0  0  0  0  0  0  0  0  0  0  0
  139.1180   81.7027  224.6730 H   0  0  0  0  0  0  0  0  0  0  0  0
  140.6399   79.8180  224.0472 H   0  0  0  0  0  0  0  0  0  0  0  0
  1  2  2  0
  2  3  1  0
  3  4  1  0
  4  5  1  0
  5  6  2  0
  5  7  1  0
  7  8  1  0
  8  9  1  0
  9 10  1  0
  9 11  1  0
 11 12  1  0
 12 13  1  0
 13 14  1  0
 14 15  1  0
 15 16  2  0
 16 17  1  0
 17 18  2  0
 18 19  1  0
 19 20  2  0
  2 21  1  0
 21 22  2  0
 22 23  1  0
 23 24  2  0
 24 25  1  0
 25 26  2  0
 26 27  1  0
 26 28  1  0
 28 29  2  0
 29 30  1  0
 30 31  2  0
 12  7  1  0
 20 15  1  0
 31 21  1  0
 30 24  1  0
  3 32  1  0
  4 33  1  0
  4 34  1  0
  8 35  1  0
  8 36  1  0
  9 37  1  6
 10 38  1  0
 11 39  1  0
 11 40  1  0
 12 41  1  1
 13 42  1  0
 13 43  1  0
 16 44  1  0
 17 45  1  0
 18 46  1  0
 19 47  1  0
 20 48  1  0
 22 49  1  0
 23 50  1  0
 25 51  1  0
 28 52  1  0
 29 53  1  0
M  END
>  <smiles>  (17) 
O=C(NCC(=O)N1C[C@H](O)C[C@H]1COc1ccccc1)c1ccc2cc(Cl)ccc2n1

>  <score_type>  (17) 
oracle

>  <origin>  (17) 
autodockgpu

>  <m_score__min__energy>  (17) 
-8.2599999999999998

>  <m_primary>  (17) 
energy

>  <rmsd>  (17) 
6.869239158586654

>  <m_score__min__rmsd>  (17) 
6.869239158586654

>  <meeko>  (17) 
{"free_energy": -6.45, "intermolecular_energy": -8.84, "internal_energy": -3.61, "cluster_size": 2, "cluster_id": 10, "rank_in_cluster": 1}

>  <energy>  (17) 
-7.49

>  <cluster_rmsd>  (17) 
1.34

>  <cluster>  (17) 
3

$$$$

     RDKit          3D

 53 56  0  0  0  0  0  0  0  0999 V2000
  135.5990   72.0210  221.3740 O   0  0  0  0  0  0  0  0  0  0  0  0
  136.5180   72.4590  222.0980 C   0  0  0  0  0  0  0  0  0  0  0  0
  136.9370   73.8170  222.0580 N   0  0  0  0  0  0  0  0  0  0  0  0
  136.3080   74.7910  221.1550 C   0  0  0  0  0  0  0  0  0  0  0  0
  137.2930   75.3120  220.1800 C   0  0  0  0  0  0  0  0  0  0  0  0
  137.0380   75.5080  218.9600 O   0  0  0  0  0  0  0  0  0  0  0  0
  138.6100   75.6200  220.6110 N   0  0  0  0  0  0  0  0  0  0  0  0
  139.8580   74.9300  220.3170 C   0  0  0  0  0  0  0  0  0  0  0  0
  140.4400   74.7780  221.6960 C   0  0  2  0  0  0  0  0  0  0  0  0
  139.9500   73.6410  222.3460 O   0  0  0  0  0  0  0  0  0  0  0  0
  140.0680   76.0380  222.4080 C   0  0  0  0  0  0  0  0  0  0  0  0
  139.0480   76.7290  221.4790 C   0  0  1  0  0  0  0  0  0  0  0  0
  139.8660   77.7480  220.7220 C   0  0  0  0  0  0  0  0  0  0  0  0
  139.9190   78.9410  221.4150 O   0  0  0  0  0  0  0  0  0  0  0  0
  140.8730   79.5160  222.1810 C   0  0  0  0  0  0  0  0  0  0  0  0
  140.4790   80.5820  223.0020 C   0  0  0  0  0  0  0  0  0  0  0  0
  141.3610   81.2410  223.8240 C   0  0  0  0  0  0  0  0  0  0  0  0
  142.6900   80.8780  223.8790 C   0  0  0  0  0  0  0  0  0  0  0  0
  143.0910   79.8350  223.0800 C   0  0  0  0  0  0  0  0  0  0  0  0
  142.2030   79.1730  222.2540 C   0  0  0  0  0  0  0  0  0  0  0  0
  137.2110   71.5570  223.0410 C   0  0  0  0  0  0  0  0  0  0  0  0
  136.5580   70.3780  223.4230 C   0  0  0  0  0  0  0  0  0  0  0  0
  137.2290   69.5720  224.2940 C   0  0  0  0  0  0  0  0  0  0  0  0
  138.4630   69.8720  224.7800 C   0  0  0  0  0  0  0  0  0  0  0  0
  139.0770   69.0070  225.6550 C   0  0  0  0  0  0  0  0  0  0  0  0
  140.3270   69.3100  226.1470 C   0  0  0  0  0  0  0  0  0  0  0  0
  141.1020   68.1900  227.2720 Cl  0  0  0  0  0  0  0  0  0  0  0  0
  140.9720   70.4820  225.7650 C   0  0  0  0  0  0  0  0  0  0  0  0
  140.3620   71.3640  224.8800 C   0  0  0  0  0  0  0  0  0  0  0  0
  139.0910   71.0380  224.3920 C   0  0  0  0  0  0  0  0  0  0  0  0
  138.4280   71.8310  223.5340 N   0  0  0  0  0  0  0  0  0  0  0  0
  137.7270   74.1130  222.7070 H   0  0  0  0  0  0  0  0  0  0  0  0
  135.4862   74.3016  220.6118 H   0  0  0  0  0  0  0  0  0  0  0  0
  135.9234   75.6306  221.7526 H   0  0  0  0  0  0  0  0  0  0  0  0
  139.6769   73.9526  219.8459 H   0  0  0  0  0  0  0  0  0  0  0  0
  140.5105   75.4600  219.6076 H   0  0  0  0  0  0  0  0  0  0  0  0
  141.5301   74.6331  221.6687 H   0  0  0  0  0  0  0  0  0  0  0  0
  139.1370   73.9210  222.8350 H   0  0  0  0  0  0  0  0  0  0  0  0
  139.6126   75.8119  223.3835 H   0  0  0  0  0  0  0  0  0  0  0  0
  140.9423   76.6740  222.6110 H   0  0  0  0  0  0  0  0  0  0  0  0
  138.1854   77.2290  221.9436 H   0  0  0  0  0  0  0  0  0  0  0  0
  140.8875   77.3630  220.5865 H   0  0  0  0  0  0  0  0  0  0  0  0
  139.3937   77.9265  219.7447 H   0  0  0  0  0  0  0  0  0  0  0  0
  139.4267   80.9021  222.9876 H   0  0  0  0  0  0  0  0  0  0  0  0
  141.0009   82.0719  224.4485 H   0  0  0  0  0  0  0  0  0  0  0  0
  143.4000   81.4021  224.5357 H   0  0  0  0  0  0  0  0  0  0  0  0
  144.1445   79.5192  223.0982 H   0  0  0  0  0  0  0  0  0  0  0  0
  142.5724   78.3432  221.6335 H   0  0  0  0  0  0  0  0  0  0  0  0
  135.5598   70.1172  223.0416 H   0  0  0  0  0  0  0  0  0  0  0  0
  136.7503   68.6363  224.6184 H   0  0  0  0  0  0  0  0  0  0  0  0
  138.5726   68.0783  225.9602 H   0  0  0  0  0  0  0  0  0  0  0  0
  141.9703   70.7122  226.1654 H   0  0  0  0  0  0  0  0  0  0  0  0
  140.8644   72.2927  224.5717 H   0  0  0  0  0  0  0  0  0  0  0  0
  1  2  2  0
  2  3  1  0
  3  4  1  0
  4  5  1  0
  5  6  2  0
  5  7  1  0
  7  8  1  0
  8  9  1  0
  9 10  1  0
  9 11  1  0
 11 12  1  0
 12 13  1  0
 13 14  1  0
 14 15  1  0
 15 16  2  0
 16 17  1  0
 17 18  2  0
 18 19  1  0
 19 20  2  0
  2 21  1  0
 21 22  2  0
 22 23  1  0
 23 24  2  0
 24 25  1  0
 25 26  2  0
 26 27  1  0
 26 28  1  0
 28 29  2  0
 29 30  1  0
 30 31  2  0
 12  7  1  0
 20 15  1  0
 31 21  1  0
 30 24  1  0
  3 32  1  0
  4 33  1  0
  4 34  1  0
  8 35  1  0
  8 36  1  0
  9 37  1  6
 10 38  1  0
 11 39  1  0
 11 40  1  0
 12 41  1  1
 13 42  1  0
 13 43  1  0
 16 44  1  0
 17 45  1  0
 18 46  1  0
 19 47  1  0
 20 48  1  0
 22 49  1  0
 23 50  1  0
 25 51  1  0
 28 52  1  0
 29 53  1  0
M  END
>  <smiles>  (18) 
O=C(NCC(=O)N1C[C@H](O)C[C@H]1COc1ccccc1)c1ccc2cc(Cl)ccc2n1

>  <score_type>  (18) 
oracle

>  <origin>  (18) 
autodockgpu

>  <m_score__min__energy>  (18) 
-8.2599999999999998

>  <m_primary>  (18) 
energy

>  <rmsd>  (18) 
2.8549950701196245

>  <m_score__min__rmsd>  (18) 
2.8549950701196245

>  <meeko>  (18) 
{"free_energy": -7.49, "intermolecular_energy": -9.88, "internal_energy": -2.78, "cluster_size": 20, "cluster_id": 3, "rank_in_cluster": 5}

>  <energy>  (18) 
-7.48

>  <cluster_rmsd>  (18) 
1.04

>  <cluster>  (18) 
3

$$$$

     RDKit          3D

 53 56  0  0  0  0  0  0  0  0999 V2000
  136.9790   70.7180  221.3340 O   0  0  0  0  0  0  0  0  0  0  0  0
  137.5640   71.3320  222.2520 C   0  0  0  0  0  0  0  0  0  0  0  0
  137.6850   72.7480  222.2630 N   0  0  0  0  0  0  0  0  0  0  0  0
  137.1260   73.5780  221.1870 C   0  0  0  0  0  0  0  0  0  0  0  0
  138.0800   73.6860  220.0590 C   0  0  0  0  0  0  0  0  0  0  0  0
  137.7310   73.7570  218.8490 O   0  0  0  0  0  0  0  0  0  0  0  0
  139.4740   73.7120  220.3210 N   0  0  0  0  0  0  0  0  0  0  0  0
  140.3700   72.6100  220.6400 C   0  0  0  0  0  0  0  0  0  0  0  0
  141.0740   73.1480  221.8570 C   0  0  2  0  0  0  0  0  0  0  0  0
  140.3460   72.9130  223.0260 O   0  0  0  0  0  0  0  0  0  0  0  0
  141.2440   74.6080  221.5830 C   0  0  0  0  0  0  0  0  0  0  0  0
  140.3760   74.8800  220.3380 C   0  0  1  0  0  0  0  0  0  0  0  0
  141.3540   74.8520  219.1880 C   0  0  0  0  0  0  0  0  0  0  0  0
  142.6470   75.0060  219.6470 O   0  0  0  0  0  0  0  0  0  0  0  0
  143.6780   74.1430  219.7940 C   0  0  0  0  0  0  0  0  0  0  0  0
  144.7990   74.5990  220.5040 C   0  0  0  0  0  0  0  0  0  0  0  0
  145.9030   73.8100  220.7180 C   0  0  0  0  0  0  0  0  0  0  0  0
  145.9590   72.5190  220.2380 C   0  0  0  0  0  0  0  0  0  0  0  0
  144.8680   72.0570  219.5420 C   0  0  0  0  0  0  0  0  0  0  0  0
  143.7580   72.8520  219.3270 C   0  0  0  0  0  0  0  0  0  0  0  0
  138.1590   70.5850  223.3800 C   0  0  0  0  0  0  0  0  0  0  0  0
  137.8540   69.2230  223.4990 C   0  0  0  0  0  0  0  0  0  0  0  0
  138.4210   68.5690  224.5520 C   0  0  0  0  0  0  0  0  0  0  0  0
  139.2400   69.1800  225.4490 C   0  0  0  0  0  0  0  0  0  0  0  0
  139.7750   68.4510  226.4860 C   0  0  0  0  0  0  0  0  0  0  0  0
  140.6040   69.0700  227.3950 C   0  0  0  0  0  0  0  0  0  0  0  0
  141.2830   68.1210  228.7220 Cl  0  0  0  0  0  0  0  0  0  0  0  0
  140.9040   70.4230  227.2730 C   0  0  0  0  0  0  0  0  0  0  0  0
  140.3700   71.1690  226.2290 C   0  0  0  0  0  0  0  0  0  0  0  0
  139.5280   70.5220  225.3150 C   0  0  0  0  0  0  0  0  0  0  0  0
  138.9680   71.1650  224.2780 N   0  0  0  0  0  0  0  0  0  0  0  0
  138.1980   73.1970  223.0810 H   0  0  0  0  0  0  0  0  0  0  0  0
  136.1919   73.1218  220.8274 H   0  0  0  0  0  0  0  0  0  0  0  0
  136.9312   74.5857  221.5828 H   0  0  0  0  0  0  0  0  0  0  0  0
  139.8119   71.6906  220.8707 H   0  0  0  0  0  0  0  0  0  0  0  0
  141.0434   72.3236  219.8187 H   0  0  0  0  0  0  0  0  0  0  0  0
  142.0400   72.6503  222.0280 H   0  0  0  0  0  0  0  0  0  0  0  0
  139.6320   73.5950  223.0600 H   0  0  0  0  0  0  0  0  0  0  0  0
  140.8938   75.2058  222.4374 H   0  0  0  0  0  0  0  0  0  0  0  0
  142.2976   74.8798  221.4215 H   0  0  0  0  0  0  0  0  0  0  0  0
  139.8049   75.8196  220.3053 H   0  0  0  0  0  0  0  0  0  0  0  0
  141.2686   73.8886  218.6639 H   0  0  0  0  0  0  0  0  0  0  0  0
  141.1197   75.6797  218.5024 H   0  0  0  0  0  0  0  0  0  0  0  0
  144.7936   75.6240  220.9032 H   0  0  0  0  0  0  0  0  0  0  0  0
  146.7564   74.2151  221.2817 H   0  0  0  0  0  0  0  0  0  0  0  0
  146.8416   71.8842  220.4054 H   0  0  0  0  0  0  0  0  0  0  0  0
  144.8783   71.0305  219.1467 H   0  0  0  0  0  0  0  0  0  0  0  0
  142.9093   72.4378  218.7629 H   0  0  0  0  0  0  0  0  0  0  0  0
  137.1944   68.7104  222.7833 H   0  0  0  0  0  0  0  0  0  0  0  0
  138.2062   67.4980  224.6820 H   0  0  0  0  0  0  0  0  0  0  0  0
  139.5421   67.3808  226.5883 H   0  0  0  0  0  0  0  0  0  0  0  0
  141.5672   70.9048  228.0065 H   0  0  0  0  0  0  0  0  0  0  0  0
  140.6022   72.2390  226.1231 H   0  0  0  0  0  0  0  0  0  0  0  0
  1  2  2  0
  2  3  1  0
  3  4  1  0
  4  5  1  0
  5  6  2  0
  5  7  1  0
  7  8  1  0
  8  9  1  0
  9 10  1  0
  9 11  1  0
 11 12  1  0
 12 13  1  0
 13 14  1  0
 14 15  1  0
 15 16  2  0
 16 17  1  0
 17 18  2  0
 18 19  1  0
 19 20  2  0
  2 21  1  0
 21 22  2  0
 22 23  1  0
 23 24  2  0
 24 25  1  0
 25 26  2  0
 26 27  1  0
 26 28  1  0
 28 29  2  0
 29 30  1  0
 30 31  2  0
 12  7  1  0
 20 15  1  0
 31 21  1  0
 30 24  1  0
  3 32  1  0
  4 33  1  0
  4 34  1  0
  8 35  1  0
  8 36  1  0
  9 37  1  1
 10 38  1  0
 11 39  1  0
 11 40  1  0
 12 41  1  1
 13 42  1  0
 13 43  1  0
 16 44  1  0
 17 45  1  0
 18 46  1  0
 19 47  1  0
 20 48  1  0
 22 49  1  0
 23 50  1  0
 25 51  1  0
 28 52  1  0
 29 53  1  0
M  END
>  <smiles>  (19) 
O=C(NCC(=O)N1C[C@H](O)C[C@H]1COc1ccccc1)c1ccc2cc(Cl)ccc2n1

>  <score_type>  (19) 
oracle

>  <origin>  (19) 
autodockgpu

>  <m_score__min__energy>  (19) 
-8.2599999999999998

>  <m_primary>  (19) 
energy

>  <rmsd>  (19) 
2.5640628074405925

>  <m_score__min__rmsd>  (19) 
2.5640628074405925

>  <meeko>  (19) 
{"free_energy": -7.24, "intermolecular_energy": -9.63, "internal_energy": -2.75, "cluster_size": 6, "cluster_id": 4, "rank_in_cluster": 4}

>  <energy>  (19) 
-7.47

>  <cluster_rmsd>  (19) 
1.32

>  <cluster>  (19) 
3

$$$$

     RDKit          3D

 53 56  0  0  0  0  0  0  0  0999 V2000
  140.1740   73.9140  220.5080 O   0  0  0  0  0  0  0  0  0  0  0  0
  139.6270   73.9000  221.6310 C   0  0  0  0  0  0  0  0  0  0  0  0
  139.0580   75.0650  222.2140 N   0  0  0  0  0  0  0  0  0  0  0  0
  139.0810   76.3620  221.5250 C   0  0  0  0  0  0  0  0  0  0  0  0
  140.4180   76.9890  221.6320 C   0  0  0  0  0  0  0  0  0  0  0  0
  141.5010   76.3730  221.4300 O   0  0  0  0  0  0  0  0  0  0  0  0
  140.5240   78.3600  221.9810 N   0  0  0  0  0  0  0  0  0  0  0  0
  141.2540   79.4250  221.3100 C   0  0  0  0  0  0  0  0  0  0  0  0
  142.0100   80.0320  222.4610 C   0  0  2  0  0  0  0  0  0  0  0  0
  143.2060   79.3540  222.7150 O   0  0  0  0  0  0  0  0  0  0  0  0
  141.0650   79.9600  223.6170 C   0  0  0  0  0  0  0  0  0  0  0  0
  139.9130   79.0570  223.1290 C   0  0  1  0  0  0  0  0  0  0  0  0
  138.8400   80.0260  222.6930 C   0  0  0  0  0  0  0  0  0  0  0  0
  137.8590   80.1300  223.6590 O   0  0  0  0  0  0  0  0  0  0  0  0
  137.3910   81.1700  224.3850 C   0  0  0  0  0  0  0  0  0  0  0  0
  137.3060   80.9950  225.7740 C   0  0  0  0  0  0  0  0  0  0  0  0
  136.8500   81.9820  226.6120 C   0  0  0  0  0  0  0  0  0  0  0  0
  136.4480   83.2050  226.1190 C   0  0  0  0  0  0  0  0  0  0  0  0
  136.5260   83.3920  224.7600 C   0  0  0  0  0  0  0  0  0  0  0  0
  136.9860   82.3980  223.9180 C   0  0  0  0  0  0  0  0  0  0  0  0
  139.5520   72.6430  222.4030 C   0  0  0  0  0  0  0  0  0  0  0  0
  138.6460   71.6640  221.9760 C   0  0  0  0  0  0  0  0  0  0  0  0
  138.6050   70.5170  222.7130 C   0  0  0  0  0  0  0  0  0  0  0  0
  139.3900   70.3110  223.8040 C   0  0  0  0  0  0  0  0  0  0  0  0
  139.2930   69.1260  224.4960 C   0  0  0  0  0  0  0  0  0  0  0  0
  140.0870   68.9170  225.6010 C   0  0  0  0  0  0  0  0  0  0  0  0
  139.9490   67.3910  226.4810 Cl  0  0  0  0  0  0  0  0  0  0  0  0
  140.9870   69.8920  226.0220 C   0  0  0  0  0  0  0  0  0  0  0  0
  141.0940   71.0930  225.3300 C   0  0  0  0  0  0  0  0  0  0  0  0
  140.2770   71.2870  224.2090 C   0  0  0  0  0  0  0  0  0  0  0  0
  140.3150   72.4150  223.4820 N   0  0  0  0  0  0  0  0  0  0  0  0
  138.6090   74.9720  223.1750 H   0  0  0  0  0  0  0  0  0  0  0  0
  138.8372   76.2109  220.4630 H   0  0  0  0  0  0  0  0  0  0  0  0
  138.3410   77.0255  221.9963 H   0  0  0  0  0  0  0  0  0  0  0  0
  141.9365   79.0260  220.5452 H   0  0  0  0  0  0  0  0  0  0  0  0
  140.6156   80.1356  220.7646 H   0  0  0  0  0  0  0  0  0  0  0  0
  142.3184   81.0668  222.2509 H   0  0  0  0  0  0  0  0  0  0  0  0
  143.1620   78.5020  222.2150 H   0  0  0  0  0  0  0  0  0  0  0  0
  141.5592   79.5174  224.4944 H   0  0  0  0  0  0  0  0  0  0  0  0
  140.7106   80.9544  223.9260 H   0  0  0  0  0  0  0  0  0  0  0  0
  139.4844   78.3387  223.8434 H   0  0  0  0  0  0  0  0  0  0  0  0
  139.2915   81.0154  222.5280 H   0  0  0  0  0  0  0  0  0  0  0  0
  138.3844   79.6563  221.7625 H   0  0  0  0  0  0  0  0  0  0  0  0
  137.6158   80.0326  226.2073 H   0  0  0  0  0  0  0  0  0  0  0  0
  136.8046   81.7939  227.6948 H   0  0  0  0  0  0  0  0  0  0  0  0
  136.0800   83.9984  226.7861 H   0  0  0  0  0  0  0  0  0  0  0  0
  136.2147   84.3564  224.3321 H   0  0  0  0  0  0  0  0  0  0  0  0
  137.0297   82.5959  222.8368 H   0  0  0  0  0  0  0  0  0  0  0  0
  138.0034   71.8118  221.0955 H   0  0  0  0  0  0  0  0  0  0  0  0
  137.9057   69.7233  222.4113 H   0  0  0  0  0  0  0  0  0  0  0  0
  138.5853   68.3502  224.1684 H   0  0  0  0  0  0  0  0  0  0  0  0
  141.6162   69.7114  226.9060 H   0  0  0  0  0  0  0  0  0  0  0  0
  141.8015   71.8703  225.6543 H   0  0  0  0  0  0  0  0  0  0  0  0
  1  2  2  0
  2  3  1  0
  3  4  1  0
  4  5  1  0
  5  6  2  0
  5  7  1  0
  7  8  1  0
  8  9  1  0
  9 10  1  0
  9 11  1  0
 11 12  1  0
 12 13  1  0
 13 14  1  0
 14 15  1  0
 15 16  2  0
 16 17  1  0
 17 18  2  0
 18 19  1  0
 19 20  2  0
  2 21  1  0
 21 22  2  0
 22 23  1  0
 23 24  2  0
 24 25  1  0
 25 26  2  0
 26 27  1  0
 26 28  1  0
 28 29  2  0
 29 30  1  0
 30 31  2  0
 12  7  1  0
 20 15  1  0
 31 21  1  0
 30 24  1  0
  3 32  1  0
  4 33  1  0
  4 34  1  0
  8 35  1  0
  8 36  1  0
  9 37  1  6
 10 38  1  0
 11 39  1  0
 11 40  1  0
 12 41  1  1
 13 42  1  0
 13 43  1  0
 16 44  1  0
 17 45  1  0
 18 46  1  0
 19 47  1  0
 20 48  1  0
 22 49  1  0
 23 50  1  0
 25 51  1  0
 28 52  1  0
 29 53  1  0
M  END
>  <smiles>  (20) 
O=C(NCC(=O)N1C[C@H](O)C[C@H]1COc1ccccc1)c1ccc2cc(Cl)ccc2n1

>  <score_type>  (20) 
oracle

>  <origin>  (20) 
autodockgpu

>  <m_score__min__energy>  (20) 
-8.2599999999999998

>  <m_primary>  (20) 
energy

>  <rmsd>  (20) 
3.8944382609258468

>  <m_score__min__rmsd>  (20) 
3.8944382609258468

>  <meeko>  (20) 
{"free_energy": -7.95, "intermolecular_energy": -10.33, "internal_energy": -1.31, "cluster_size": 1, "cluster_id": 5, "rank_in_cluster": 1}

>  <energy>  (20) 
-7.33

>  <cluster_rmsd>  (20) 
1.0

>  <cluster>  (20) 
3

$$$$

     RDKit          3D

 53 56  0  0  0  0  0  0  0  0999 V2000
  138.6270   72.6820  221.3100 O   0  0  0  0  0  0  0  0  0  0  0  0
  139.5970   72.7440  222.0950 C   0  0  0  0  0  0  0  0  0  0  0  0
  140.6120   73.7310  221.9720 N   0  0  0  0  0  0  0  0  0  0  0  0
  140.5800   74.7420  220.9050 C   0  0  0  0  0  0  0  0  0  0  0  0
  140.4150   76.0990  221.4740 C   0  0  0  0  0  0  0  0  0  0  0  0
  141.3720   76.8930  221.6870 O   0  0  0  0  0  0  0  0  0  0  0  0
  139.1170   76.5640  221.8120 N   0  0  0  0  0  0  0  0  0  0  0  0
  138.3650   76.3730  223.0430 C   0  0  0  0  0  0  0  0  0  0  0  0
  137.0420   75.8960  222.5080 C   0  0  2  0  0  0  0  0  0  0  0  0
  137.0390   74.5180  222.2770 O   0  0  0  0  0  0  0  0  0  0  0  0
  136.8370   76.6780  221.2500 C   0  0  0  0  0  0  0  0  0  0  0  0
  138.1930   77.3640  220.9860 C   0  0  1  0  0  0  0  0  0  0  0  0
  138.0160   78.7610  221.5320 C   0  0  0  0  0  0  0  0  0  0  0  0
  138.8930   78.9890  222.5730 O   0  0  0  0  0  0  0  0  0  0  0  0
  140.1500   79.4850  222.6220 C   0  0  0  0  0  0  0  0  0  0  0  0
  140.9110   79.1900  223.7640 C   0  0  0  0  0  0  0  0  0  0  0  0
  142.2000   79.6360  223.9220 C   0  0  0  0  0  0  0  0  0  0  0  0
  142.8120   80.4030  222.9550 C   0  0  0  0  0  0  0  0  0  0  0  0
  142.0800   80.7000  221.8300 C   0  0  0  0  0  0  0  0  0  0  0  0
  140.7830   80.2500  221.6720 C   0  0  0  0  0  0  0  0  0  0  0  0
  139.7170   71.7730  223.2010 C   0  0  0  0  0  0  0  0  0  0  0  0
  139.2040   70.4850  223.0030 C   0  0  0  0  0  0  0  0  0  0  0  0
  139.3350   69.6170  224.0470 C   0  0  0  0  0  0  0  0  0  0  0  0
  139.9250   69.9580  225.2240 C   0  0  0  0  0  0  0  0  0  0  0  0
  140.0200   69.0250  226.2300 C   0  0  0  0  0  0  0  0  0  0  0  0
  140.6180   69.3700  227.4220 C   0  0  0  0  0  0  0  0  0  0  0  0
  140.7310   68.1620  228.7070 Cl  0  0  0  0  0  0  0  0  0  0  0  0
  141.1260   70.6510  227.6150 C   0  0  0  0  0  0  0  0  0  0  0  0
  141.0370   71.6010  226.6040 C   0  0  0  0  0  0  0  0  0  0  0  0
  140.4250   71.2310  225.4000 C   0  0  0  0  0  0  0  0  0  0  0  0
  140.2950   72.0850  224.3710 N   0  0  0  0  0  0  0  0  0  0  0  0
  141.4060   73.7190  222.6810 H   0  0  0  0  0  0  0  0  0  0  0  0
  141.5225   74.6999  220.3394 H   0  0  0  0  0  0  0  0  0  0  0  0
  139.7275   74.5303  220.2429 H   0  0  0  0  0  0  0  0  0  0  0  0
  138.8348   75.6165  223.6888 H   0  0  0  0  0  0  0  0  0  0  0  0
  138.2986   77.2710  223.6747 H   0  0  0  0  0  0  0  0  0  0  0  0
  136.2251   76.0575  223.2267 H   0  0  0  0  0  0  0  0  0  0  0  0
  137.8410   74.1520  222.7260 H   0  0  0  0  0  0  0  0  0  0  0  0
  136.5724   76.0097  220.4173 H   0  0  0  0  0  0  0  0  0  0  0  0
  136.0158   77.4040  221.3420 H   0  0  0  0  0  0  0  0  0  0  0  0
  138.5453   77.4231  219.9456 H   0  0  0  0  0  0  0  0  0  0  0  0
  138.2084   79.4897  220.7307 H   0  0  0  0  0  0  0  0  0  0  0  0
  136.9867   78.8690  221.9045 H   0  0  0  0  0  0  0  0  0  0  0  0
  140.4589   78.5803  224.5602 H   0  0  0  0  0  0  0  0  0  0  0  0
  142.7535   79.3764  224.8364 H   0  0  0  0  0  0  0  0  0  0  0  0
  143.8441   80.7630  223.0781 H   0  0  0  0  0  0  0  0  0  0  0  0
  142.5373   81.3100  221.0371 H   0  0  0  0  0  0  0  0  0  0  0  0
  140.2381   80.5134  220.7535 H   0  0  0  0  0  0  0  0  0  0  0  0
  138.7226   70.1900  222.0589 H   0  0  0  0  0  0  0  0  0  0  0  0
  138.9458   68.5947  223.9317 H   0  0  0  0  0  0  0  0  0  0  0  0
  139.6212   68.0103  226.0837 H   0  0  0  0  0  0  0  0  0  0  0  0
  141.6003   70.9132  228.5722 H   0  0  0  0  0  0  0  0  0  0  0  0
  141.4365   72.6160  226.7459 H   0  0  0  0  0  0  0  0  0  0  0  0
  1  2  2  0
  2  3  1  0
  3  4  1  0
  4  5  1  0
  5  6  2  0
  5  7  1  0
  7  8  1  0
  8  9  1  0
  9 10  1  0
  9 11  1  0
 11 12  1  0
 12 13  1  0
 13 14  1  0
 14 15  1  0
 15 16  2  0
 16 17  1  0
 17 18  2  0
 18 19  1  0
 19 20  2  0
  2 21  1  0
 21 22  2  0
 22 23  1  0
 23 24  2  0
 24 25  1  0
 25 26  2  0
 26 27  1  0
 26 28  1  0
 28 29  2  0
 29 30  1  0
 30 31  2  0
 12  7  1  0
 20 15  1  0
 31 21  1  0
 30 24  1  0
  3 32  1  0
  4 33  1  0
  4 34  1  0
  8 35  1  0
  8 36  1  0
  9 37  1  1
 10 38  1  0
 11 39  1  0
 11 40  1  0
 12 41  1  6
 13 42  1  0
 13 43  1  0
 16 44  1  0
 17 45  1  0
 18 46  1  0
 19 47  1  0
 20 48  1  0
 22 49  1  0
 23 50  1  0
 25 51  1  0
 28 52  1  0
 29 53  1  0
M  END
>  <smiles>  (21) 
O=C(NCC(=O)N1C[C@H](O)C[C@H]1COc1ccccc1)c1ccc2cc(Cl)ccc2n1

>  <score_type>  (21) 
oracle

>  <origin>  (21) 
autodockgpu

>  <m_score__min__energy>  (21) 
-8.2599999999999998

>  <m_primary>  (21) 
energy

>  <rmsd>  (21) 
3.1652688838555716

>  <m_score__min__rmsd>  (21) 
3.1652688838555716

>  <meeko>  (21) 
{"free_energy": -7.54, "intermolecular_energy": -9.93, "internal_energy": -2.64, "cluster_size": 20, "cluster_id": 3, "rank_in_cluster": 3}

>  <energy>  (21) 
-7.3

>  <cluster_rmsd>  (21) 
1.14

>  <cluster>  (21) 
3

$$$$

     RDKit          3D

 53 56  0  0  0  0  0  0  0  0999 V2000
  139.0220   73.4260  222.1800 O   0  0  0  0  0  0  0  0  0  0  0  0
  139.9570   72.6010  222.2500 C   0  0  0  0  0  0  0  0  0  0  0  0
  140.9880   72.5350  221.2730 N   0  0  0  0  0  0  0  0  0  0  0  0
  141.0110   73.4390  220.1150 C   0  0  0  0  0  0  0  0  0  0  0  0
  141.3480   74.8180  220.5350 C   0  0  0  0  0  0  0  0  0  0  0  0
  141.4180   75.1890  221.7390 O   0  0  0  0  0  0  0  0  0  0  0  0
  141.6140   75.8050  219.5500 N   0  0  0  0  0  0  0  0  0  0  0  0
  141.4460   75.7310  218.1060 C   0  0  0  0  0  0  0  0  0  0  0  0
  142.7850   76.2260  217.6300 C   0  0  2  0  0  0  0  0  0  0  0  0
  143.7340   75.2020  217.5860 O   0  0  0  0  0  0  0  0  0  0  0  0
  143.1590   77.3010  218.5990 C   0  0  0  0  0  0  0  0  0  0  0  0
  142.1370   77.1710  219.7470 C   0  0  1  0  0  0  0  0  0  0  0  0
  141.0970   78.2220  219.4390 C   0  0  0  0  0  0  0  0  0  0  0  0
  140.6460   78.8130  220.6020 O   0  0  0  0  0  0  0  0  0  0  0  0
  141.2820   79.2950  221.6940 C   0  0  0  0  0  0  0  0  0  0  0  0
  141.2270   78.5200  222.8610 C   0  0  0  0  0  0  0  0  0  0  0  0
  141.8380   78.9070  224.0290 C   0  0  0  0  0  0  0  0  0  0  0  0
  142.5410   80.0900  224.1060 C   0  0  0  0  0  0  0  0  0  0  0  0
  142.6040   80.8610  222.9710 C   0  0  0  0  0  0  0  0  0  0  0  0
  141.9890   80.4700  221.7960 C   0  0  0  0  0  0  0  0  0  0  0  0
  140.0230   71.6490  223.3790 C   0  0  0  0  0  0  0  0  0  0  0  0
  139.5540   70.3470  223.1670 C   0  0  0  0  0  0  0  0  0  0  0  0
  139.6310   69.4980  224.2320 C   0  0  0  0  0  0  0  0  0  0  0  0
  140.1310   69.8700  225.4400 C   0  0  0  0  0  0  0  0  0  0  0  0
  140.1780   68.9550  226.4660 C   0  0  0  0  0  0  0  0  0  0  0  0
  140.6840   69.3310  227.6900 C   0  0  0  0  0  0  0  0  0  0  0  0
  140.7350   68.1460  228.9990 Cl  0  0  0  0  0  0  0  0  0  0  0  0
  141.1490   70.6270  227.8960 C   0  0  0  0  0  0  0  0  0  0  0  0
  141.1080   71.5590  226.8660 C   0  0  0  0  0  0  0  0  0  0  0  0
  140.5890   71.1570  225.6290 C   0  0  0  0  0  0  0  0  0  0  0  0
  140.5120   71.9920  224.5800 N   0  0  0  0  0  0  0  0  0  0  0  0
  141.7500   71.8040  221.4030 H   0  0  0  0  0  0  0  0  0  0  0  0
  141.7650   73.0859  219.3961 H   0  0  0  0  0  0  0  0  0  0  0  0
  140.0140   73.4443  219.6503 H   0  0  0  0  0  0  0  0  0  0  0  0
  141.2566   74.6994  217.7746 H   0  0  0  0  0  0  0  0  0  0  0  0
  140.5899   76.3046  217.7212 H   0  0  0  0  0  0  0  0  0  0  0  0
  142.7410   76.6051  216.5983 H   0  0  0  0  0  0  0  0  0  0  0  0
  144.5390   75.5390  218.0490 H   0  0  0  0  0  0  0  0  0  0  0  0
  144.1823   77.1473  218.9721 H   0  0  0  0  0  0  0  0  0  0  0  0
  143.1405   78.2997  218.1382 H   0  0  0  0  0  0  0  0  0  0  0  0
  142.4990   77.3094  220.7765 H   0  0  0  0  0  0  0  0  0  0  0  0
  141.5414   78.9917  218.7909 H   0  0  0  0  0  0  0  0  0  0  0  0
  140.2470   77.7425  218.9315 H   0  0  0  0  0  0  0  0  0  0  0  0
  140.6752   77.5686  222.8407 H   0  0  0  0  0  0  0  0  0  0  0  0
  141.7650   78.2622  224.9172 H   0  0  0  0  0  0  0  0  0  0  0  0
  143.0319   80.4041  225.0389 H   0  0  0  0  0  0  0  0  0  0  0  0
  143.1567   81.8117  222.9974 H   0  0  0  0  0  0  0  0  0  0  0  0
  142.0680   81.1210  220.9128 H   0  0  0  0  0  0  0  0  0  0  0  0
  139.1465   70.0268  222.1967 H   0  0  0  0  0  0  0  0  0  0  0  0
  139.2722   68.4656  224.1075 H   0  0  0  0  0  0  0  0  0  0  0  0
  139.8135   67.9290  226.3095 H   0  0  0  0  0  0  0  0  0  0  0  0
  141.5508   70.9146  228.8788 H   0  0  0  0  0  0  0  0  0  0  0  0
  141.4735   72.5853  227.0183 H   0  0  0  0  0  0  0  0  0  0  0  0
  1  2  2  0
  2  3  1  0
  3  4  1  0
  4  5  1  0
  5  6  2  0
  5  7  1  0
  7  8  1  0
  8  9  1  0
  9 10  1  0
  9 11  1  0
 11 12  1  0
 12 13  1  0
 13 14  1  0
 14 15  1  0
 15 16  2  0
 16 17  1  0
 17 18  2  0
 18 19  1  0
 19 20  2  0
  2 21  1  0
 21 22  2  0
 22 23  1  0
 23 24  2  0
 24 25  1  0
 25 26  2  0
 26 27  1  0
 26 28  1  0
 28 29  2  0
 29 30  1  0
 30 31  2  0
 12  7  1  0
 20 15  1  0
 31 21  1  0
 30 24  1  0
  3 32  1  0
  4 33  1  0
  4 34  1  0
  8 35  1  0
  8 36  1  0
  9 37  1  6
 10 38  1  0
 11 39  1  0
 11 40  1  0
 12 41  1  1
 13 42  1  0
 13 43  1  0
 16 44  1  0
 17 45  1  0
 18 46  1  0
 19 47  1  0
 20 48  1  0
 22 49  1  0
 23 50  1  0
 25 51  1  0
 28 52  1  0
 29 53  1  0
M  END
>  <smiles>  (22) 
O=C(NCC(=O)N1C[C@H](O)C[C@H]1COc1ccccc1)c1ccc2cc(Cl)ccc2n1

>  <score_type>  (22) 
oracle

>  <origin>  (22) 
autodockgpu

>  <m_score__min__energy>  (22) 
-8.2599999999999998

>  <m_primary>  (22) 
energy

>  <rmsd>  (22) 
2.0192637411819105

>  <m_score__min__rmsd>  (22) 
2.0192637411819105

>  <meeko>  (22) 
{"free_energy": -8.22, "intermolecular_energy": -10.6, "internal_energy": -1.39, "cluster_size": 10, "cluster_id": 2, "rank_in_cluster": 1}

>  <energy>  (22) 
-7.15

>  <cluster_rmsd>  (22) 
1.37

>  <cluster>  (22) 
3

$$$$

     RDKit          3D

 53 56  0  0  0  0  0  0  0  0999 V2000
  138.8490   71.5440  221.2130 O   0  0  0  0  0  0  0  0  0  0  0  0
  138.4070   71.7600  222.3610 C   0  0  0  0  0  0  0  0  0  0  0  0
  137.4550   72.7810  222.6300 N   0  0  0  0  0  0  0  0  0  0  0  0
  136.9320   73.6480  221.5650 C   0  0  0  0  0  0  0  0  0  0  0  0
  137.6850   74.9220  221.5100 C   0  0  0  0  0  0  0  0  0  0  0  0
  137.2140   76.0320  221.8800 O   0  0  0  0  0  0  0  0  0  0  0  0
  139.0160   74.9290  221.0190 N   0  0  0  0  0  0  0  0  0  0  0  0
  139.4920   75.1230  219.6570 C   0  0  0  0  0  0  0  0  0  0  0  0
  140.4280   73.9550  219.5040 C   0  0  2  0  0  0  0  0  0  0  0  0
  139.7540   72.7940  219.1160 O   0  0  0  0  0  0  0  0  0  0  0  0
  141.0770   73.8100  220.8420 C   0  0  0  0  0  0  0  0  0  0  0  0
  140.2680   74.7340  221.7760 C   0  0  1  0  0  0  0  0  0  0  0  0
  141.0860   76.0010  221.8460 C   0  0  0  0  0  0  0  0  0  0  0  0
  140.3660   77.0110  222.4520 O   0  0  0  0  0  0  0  0  0  0  0  0
  140.7000   78.2500  222.8760 C   0  0  0  0  0  0  0  0  0  0  0  0
  139.6510   79.1450  223.1310 C   0  0  0  0  0  0  0  0  0  0  0  0
  139.8700   80.4290  223.5690 C   0  0  0  0  0  0  0  0  0  0  0  0
  141.1480   80.9000  223.7800 C   0  0  0  0  0  0  0  0  0  0  0  0
  142.1870   80.0350  223.5350 C   0  0  0  0  0  0  0  0  0  0  0  0
  141.9650   78.7440  223.0950 C   0  0  0  0  0  0  0  0  0  0  0  0
  138.8700   70.9400  223.4990 C   0  0  0  0  0  0  0  0  0  0  0  0
  138.6090   69.5640  223.4660 C   0  0  0  0  0  0  0  0  0  0  0  0
  139.0520   68.8410  224.5340 C   0  0  0  0  0  0  0  0  0  0  0  0
  139.7110   69.3990  225.5840 C   0  0  0  0  0  0  0  0  0  0  0  0
  140.1280   68.6020  226.6250 C   0  0  0  0  0  0  0  0  0  0  0  0
  140.7960   69.1670  227.6880 C   0  0  0  0  0  0  0  0  0  0  0  0
  141.3230   68.1310  229.0190 Cl  0  0  0  0  0  0  0  0  0  0  0  0
  141.0530   70.5340  227.7170 C   0  0  0  0  0  0  0  0  0  0  0  0
  140.6380   71.3490  226.6700 C   0  0  0  0  0  0  0  0  0  0  0  0
  139.9590   70.7560  225.5990 C   0  0  0  0  0  0  0  0  0  0  0  0
  139.5220   71.4670  224.5460 N   0  0  0  0  0  0  0  0  0  0  0  0
  137.1260   72.9030  223.6350 H   0  0  0  0  0  0  0  0  0  0  0  0
  137.0268   73.1305  220.5990 H   0  0  0  0  0  0  0  0  0  0  0  0
  135.8758   73.8704  221.7768 H   0  0  0  0  0  0  0  0  0  0  0  0
  138.6668   75.0757  218.9312 H   0  0  0  0  0  0  0  0  0  0  0  0
  139.9599   76.1023  219.4780 H   0  0  0  0  0  0  0  0  0  0  0  0
  141.1689   74.1226  218.7084 H   0  0  0  0  0  0  0  0  0  0  0  0
  139.2730   72.4640  219.9140 H   0  0  0  0  0  0  0  0  0  0  0  0
  141.0233   72.7670  221.1875 H   0  0  0  0  0  0  0  0  0  0  0  0
  142.1438   74.0771  220.8166 H   0  0  0  0  0  0  0  0  0  0  0  0
  140.0606   74.3794  222.7964 H   0  0  0  0  0  0  0  0  0  0  0  0
  142.0000   75.8096  222.4273 H   0  0  0  0  0  0  0  0  0  0  0  0
  141.3440   76.3136  220.8234 H   0  0  0  0  0  0  0  0  0  0  0  0
  138.6159   78.8072  222.9748 H   0  0  0  0  0  0  0  0  0  0  0  0
  139.0116   81.0915  223.7542 H   0  0  0  0  0  0  0  0  0  0  0  0
  141.3288   81.9269  224.1304 H   0  0  0  0  0  0  0  0  0  0  0  0
  143.2201   80.3783  223.6929 H   0  0  0  0  0  0  0  0  0  0  0  0
  142.8297   78.0887  222.9136 H   0  0  0  0  0  0  0  0  0  0  0  0
  138.0768   69.0934  222.6262 H   0  0  0  0  0  0  0  0  0  0  0  0
  138.8677   67.7566  224.5465 H   0  0  0  0  0  0  0  0  0  0  0  0
  139.9290   67.5203  226.6081 H   0  0  0  0  0  0  0  0  0  0  0  0
  141.5873   70.9722  228.5728 H   0  0  0  0  0  0  0  0  0  0  0  0
  140.8378   72.4306  226.6828 H   0  0  0  0  0  0  0  0  0  0  0  0
  1  2  2  0
  2  3  1  0
  3  4  1  0
  4  5  1  0
  5  6  2  0
  5  7  1  0
  7  8  1  0
  8  9  1  0
  9 10  1  0
  9 11  1  0
 11 12  1  0
 12 13  1  0
 13 14  1  0
 14 15  1  0
 15 16  2  0
 16 17  1  0
 17 18  2  0
 18 19  1  0
 19 20  2  0
  2 21  1  0
 21 22  2  0
 22 23  1  0
 23 24  2  0
 24 25  1  0
 25 26  2  0
 26 27  1  0
 26 28  1  0
 28 29  2  0
 29 30  1  0
 30 31  2  0
 12  7  1  0
 20 15  1  0
 31 21  1  0
 30 24  1  0
  3 32  1  0
  4 33  1  0
  4 34  1  0
  8 35  1  0
  8 36  1  0
  9 37  1  6
 10 38  1  0
 11 39  1  0
 11 40  1  0
 12 41  1  1
 13 42  1  0
 13 43  1  0
 16 44  1  0
 17 45  1  0
 18 46  1  0
 19 47  1  0
 20 48  1  0
 22 49  1  0
 23 50  1  0
 25 51  1  0
 28 52  1  0
 29 53  1  0
M  END
>  <smiles>  (23) 
O=C(NCC(=O)N1C[C@H](O)C[C@H]1COc1ccccc1)c1ccc2cc(Cl)ccc2n1

>  <score_type>  (23) 
oracle

>  <origin>  (23) 
autodockgpu

>  <m_score__min__energy>  (23) 
-8.2599999999999998

>  <m_primary>  (23) 
energy

>  <rmsd>  (23) 
2.052173381536962

>  <m_score__min__rmsd>  (23) 
2.052173381536962

>  <meeko>  (23) 
{"free_energy": -7.33, "intermolecular_energy": -9.72, "internal_energy": -2.47, "cluster_size": 20, "cluster_id": 3, "rank_in_cluster": 8}

>  <energy>  (23) 
-7.08

>  <cluster_rmsd>  (23) 
1.35

>  <cluster>  (23) 
3

$$$$

     RDKit          3D

 53 56  0  0  0  0  0  0  0  0999 V2000
  135.9050   71.7210  221.2480 O   0  0  0  0  0  0  0  0  0  0  0  0
  137.1010   71.9030  221.5570 C   0  0  0  0  0  0  0  0  0  0  0  0
  137.9680   72.7260  220.7870 N   0  0  0  0  0  0  0  0  0  0  0  0
  137.5030   73.4130  219.5740 C   0  0  0  0  0  0  0  0  0  0  0  0
  137.4860   74.8790  219.7770 C   0  0  0  0  0  0  0  0  0  0  0  0
  136.6000   75.6430  219.3030 O   0  0  0  0  0  0  0  0  0  0  0  0
  138.5100   75.4930  220.5440 N   0  0  0  0  0  0  0  0  0  0  0  0
  139.9490   75.2780  220.4940 C   0  0  0  0  0  0  0  0  0  0  0  0
  140.2650   75.0710  221.9500 C   0  0  2  0  0  0  0  0  0  0  0  0
  140.0680   73.7440  222.3430 O   0  0  0  0  0  0  0  0  0  0  0  0
  139.3580   76.0130  222.6740 C   0  0  0  0  0  0  0  0  0  0  0  0
  138.3690   76.5130  221.6010 C   0  0  1  0  0  0  0  0  0  0  0  0
  138.9290   77.8480  221.1720 C   0  0  0  0  0  0  0  0  0  0  0  0
  140.2100   78.0170  221.6580 O   0  0  0  0  0  0  0  0  0  0  0  0
  140.8050   79.0130  222.3520 C   0  0  0  0  0  0  0  0  0  0  0  0
  142.1960   79.1400  222.2250 C   0  0  0  0  0  0  0  0  0  0  0  0
  142.9070   80.1160  222.8790 C   0  0  0  0  0  0  0  0  0  0  0  0
  142.2770   81.0250  223.7020 C   0  0  0  0  0  0  0  0  0  0  0  0
  140.9150   80.9140  223.8360 C   0  0  0  0  0  0  0  0  0  0  0  0
  140.2000   79.9320  223.1770 C   0  0  0  0  0  0  0  0  0  0  0  0
  137.6630   71.2570  222.7610 C   0  0  0  0  0  0  0  0  0  0  0  0
  136.9350   70.2110  223.3440 C   0  0  0  0  0  0  0  0  0  0  0  0
  137.4860   69.6400  224.4530 C   0  0  0  0  0  0  0  0  0  0  0  0
  138.6720   70.0430  224.9830 C   0  0  0  0  0  0  0  0  0  0  0  0
  139.1630   69.4150  226.1040 C   0  0  0  0  0  0  0  0  0  0  0  0
  140.3640   69.8230  226.6400 C   0  0  0  0  0  0  0  0  0  0  0  0
  140.9800   69.0090  228.0820 Cl  0  0  0  0  0  0  0  0  0  0  0  0
  141.0830   70.8620  226.0580 C   0  0  0  0  0  0  0  0  0  0  0  0
  140.5970   71.5030  224.9240 C   0  0  0  0  0  0  0  0  0  0  0  0
  139.3730   71.0740  224.3940 C   0  0  0  0  0  0  0  0  0  0  0  0
  138.8300   71.6360  223.3020 N   0  0  0  0  0  0  0  0  0  0  0  0
  138.9750   72.8320  221.1160 H   0  0  0  0  0  0  0  0  0  0  0  0
  138.1792   73.1717  218.7406 H   0  0  0  0  0  0  0  0  0  0  0  0
  136.4811   73.0756  219.3462 H   0  0  0  0  0  0  0  0  0  0  0  0
  140.2033   74.3903  219.8963 H   0  0  0  0  0  0  0  0  0  0  0  0
  140.5115   76.0972  220.0223 H   0  0  0  0  0  0  0  0  0  0  0  0
  141.3232   75.2714  222.1737 H   0  0  0  0  0  0  0  0  0  0  0  0
  139.2100   73.7160  222.8330 H   0  0  0  0  0  0  0  0  0  0  0  0
  138.8227   75.4916  223.4812 H   0  0  0  0  0  0  0  0  0  0  0  0
  139.9097   76.8390  223.1465 H   0  0  0  0  0  0  0  0  0  0  0  0
  137.3153   76.6378  221.8910 H   0  0  0  0  0  0  0  0  0  0  0  0
  138.9503   77.8947  220.0732 H   0  0  0  0  0  0  0  0  0  0  0  0
  138.2889   78.6468  221.5748 H   0  0  0  0  0  0  0  0  0  0  0  0
  142.7365   78.4328  221.5787 H   0  0  0  0  0  0  0  0  0  0  0  0
  143.9972   80.1734  222.7440 H   0  0  0  0  0  0  0  0  0  0  0  0
  142.8423   81.8072  224.2297 H   0  0  0  0  0  0  0  0  0  0  0  0
  140.3799   81.6241  224.4837 H   0  0  0  0  0  0  0  0  0  0  0  0
  139.1100   79.8838  223.3171 H   0  0  0  0  0  0  0  0  0  0  0  0
  135.9743   69.8701  222.9307 H   0  0  0  0  0  0  0  0  0  0  0  0
  136.9463   68.8153  224.9415 H   0  0  0  0  0  0  0  0  0  0  0  0
  138.6000   68.5924  226.5692 H   0  0  0  0  0  0  0  0  0  0  0  0
  142.0407   71.1780  226.4972 H   0  0  0  0  0  0  0  0  0  0  0  0
  141.1583   72.3248  224.4555 H   0  0  0  0  0  0  0  0  0  0  0  0
  1  2  2  0
  2  3  1  0
  3  4  1  0
  4  5  1  0
  5  6  2  0
  5  7  1  0
  7  8  1  0
  8  9  1  0
  9 10  1  0
  9 11  1  0
 11 12  1  0
 12 13  1  0
 13 14  1  0
 14 15  1  0
 15 16  2  0
 16 17  1  0
 17 18  2  0
 18 19  1  0
 19 20  2  0
  2 21  1  0
 21 22  2  0
 22 23  1  0
 23 24  2  0
 24 25  1  0
 25 26  2  0
 26 27  1  0
 26 28  1  0
 28 29  2  0
 29 30  1  0
 30 31  2  0
 12  7  1  0
 20 15  1  0
 31 21  1  0
 30 24  1  0
  3 32  1  0
  4 33  1  0
  4 34  1  0
  8 35  1  0
  8 36  1  0
  9 37  1  6
 10 38  1  0
 11 39  1  0
 11 40  1  0
 12 41  1  1
 13 42  1  0
 13 43  1  0
 16 44  1  0
 17 45  1  0
 18 46  1  0
 19 47  1  0
 20 48  1  0
 22 49  1  0
 23 50  1  0
 25 51  1  0
 28 52  1  0
 29 53  1  0
M  END
>  <smiles>  (24) 
O=C(NCC(=O)N1C[C@H](O)C[C@H]1COc1ccccc1)c1ccc2cc(Cl)ccc2n1

>  <score_type>  (24) 
oracle

>  <origin>  (24) 
autodockgpu

>  <m_score__min__energy>  (24) 
-8.2599999999999998

>  <m_primary>  (24) 
energy

>  <rmsd>  (24) 
2.8897996416050975

>  <m_score__min__rmsd>  (24) 
2.8897996416050975

>  <meeko>  (24) 
{"free_energy": -7.03, "intermolecular_energy": -9.41, "internal_energy": -3.25, "cluster_size": 20, "cluster_id": 3, "rank_in_cluster": 15}

>  <energy>  (24) 
-7.07

>  <cluster_rmsd>  (24) 
1.39

>  <cluster>  (24) 
3

$$$$

     RDKit          3D

 53 56  0  0  0  0  0  0  0  0999 V2000
  139.3440   71.8720  220.5770 O   0  0  0  0  0  0  0  0  0  0  0  0
  139.4490   72.3790  221.7140 C   0  0  0  0  0  0  0  0  0  0  0  0
  139.3610   73.7810  221.9330 N   0  0  0  0  0  0  0  0  0  0  0  0
  139.1410   74.7220  220.8260 C   0  0  0  0  0  0  0  0  0  0  0  0
  139.0400   76.1100  221.3320 C   0  0  0  0  0  0  0  0  0  0  0  0
  137.9500   76.6720  221.6280 O   0  0  0  0  0  0  0  0  0  0  0  0
  140.2200   76.8800  221.5040 N   0  0  0  0  0  0  0  0  0  0  0  0
  141.0380   77.0540  222.6950 C   0  0  0  0  0  0  0  0  0  0  0  0
  141.1660   78.5530  222.7460 C   0  0  2  0  0  0  0  0  0  0  0  0
  140.0770   79.1460  223.3910 O   0  0  0  0  0  0  0  0  0  0  0  0
  141.2720   78.9750  221.3160 C   0  0  0  0  0  0  0  0  0  0  0  0
  140.9180   77.7120  220.5050 C   0  0  1  0  0  0  0  0  0  0  0  0
  142.2570   77.1270  220.1230 C   0  0  0  0  0  0  0  0  0  0  0  0
  142.1380   75.7790  219.8500 O   0  0  0  0  0  0  0  0  0  0  0  0
  142.9130   74.7110  220.1440 C   0  0  0  0  0  0  0  0  0  0  0  0
  144.3020   74.9040  220.1330 C   0  0  0  0  0  0  0  0  0  0  0  0
  145.1870   73.8930  220.4180 C   0  0  0  0  0  0  0  0  0  0  0  0
  144.7430   72.6260  220.7320 C   0  0  0  0  0  0  0  0  0  0  0  0
  143.3840   72.4210  220.7480 C   0  0  0  0  0  0  0  0  0  0  0  0
  142.4960   73.4400  220.4610 C   0  0  0  0  0  0  0  0  0  0  0  0
  139.6710   71.5150  222.8920 C   0  0  0  0  0  0  0  0  0  0  0  0
  139.3460   70.1570  222.7810 C   0  0  0  0  0  0  0  0  0  0  0  0
  139.5640   69.3920  223.8890 C   0  0  0  0  0  0  0  0  0  0  0  0
  140.0690   69.8950  225.0470 C   0  0  0  0  0  0  0  0  0  0  0  0
  140.2630   69.0590  226.1220 C   0  0  0  0  0  0  0  0  0  0  0  0
  140.7740   69.5670  227.2950 C   0  0  0  0  0  0  0  0  0  0  0  0
  141.0150   68.4820  228.6680 Cl  0  0  0  0  0  0  0  0  0  0  0  0
  141.0960   70.9170  227.4010 C   0  0  0  0  0  0  0  0  0  0  0  0
  140.9050   71.7710  226.3210 C   0  0  0  0  0  0  0  0  0  0  0  0
  140.3840   71.2350  225.1370 C   0  0  0  0  0  0  0  0  0  0  0  0
  140.1670   71.9870  224.0450 N   0  0  0  0  0  0  0  0  0  0  0  0
  139.4610   74.1350  222.9320 H   0  0  0  0  0  0  0  0  0  0  0  0
  139.9834   74.6546  220.1219 H   0  0  0  0  0  0  0  0  0  0  0  0
  138.1997   74.4601  220.3206 H   0  0  0  0  0  0  0  0  0  0  0  0
  140.5342   76.6618  223.5908 H   0  0  0  0  0  0  0  0  0  0  0  0
  141.9991   76.5198  222.6644 H   0  0  0  0  0  0  0  0  0  0  0  0
  142.0417   78.8723  223.3301 H   0  0  0  0  0  0  0  0  0  0  0  0
  139.2720   78.6460  223.1120 H   0  0  0  0  0  0  0  0  0  0  0  0
  140.5626   79.7869  221.0980 H   0  0  0  0  0  0  0  0  0  0  0  0
  142.2728   79.3595  221.0697 H   0  0  0  0  0  0  0  0  0  0  0  0
  140.3054   77.8379  219.6001 H   0  0  0  0  0  0  0  0  0  0  0  0
  142.6361   77.6447  219.2296 H   0  0  0  0  0  0  0  0  0  0  0  0
  142.9544   77.2585  220.9635 H   0  0  0  0  0  0  0  0  0  0  0  0
  144.6969   75.9008  219.8873 H   0  0  0  0  0  0  0  0  0  0  0  0
  146.2676   74.0975  220.3954 H   0  0  0  0  0  0  0  0  0  0  0  0
  145.4475   71.8126  220.9603 H   0  0  0  0  0  0  0  0  0  0  0  0
  142.9942   71.4225  220.9950 H   0  0  0  0  0  0  0  0  0  0  0  0
  141.4172   73.2266  220.4871 H   0  0  0  0  0  0  0  0  0  0  0  0
  138.9379   69.7314  221.8524 H   0  0  0  0  0  0  0  0  0  0  0  0
  139.3204   68.3203  223.8438 H   0  0  0  0  0  0  0  0  0  0  0  0
  140.0113   67.9910  226.0448 H   0  0  0  0  0  0  0  0  0  0  0  0
  141.5036   71.3100  228.3441 H   0  0  0  0  0  0  0  0  0  0  0  0
  141.1564   72.8394  226.3945 H   0  0  0  0  0  0  0  0  0  0  0  0
  1  2  2  0
  2  3  1  0
  3  4  1  0
  4  5  1  0
  5  6  2  0
  5  7  1  0
  7  8  1  0
  8  9  1  0
  9 10  1  0
  9 11  1  0
 11 12  1  0
 12 13  1  0
 13 14  1  0
 14 15  1  0
 15 16  2  0
 16 17  1  0
 17 18  2  0
 18 19  1  0
 19 20  2  0
  2 21  1  0
 21 22  2  0
 22 23  1  0
 23 24  2  0
 24 25  1  0
 25 26  2  0
 26 27  1  0
 26 28  1  0
 28 29  2  0
 29 30  1  0
 30 31  2  0
 12  7  1  0
 20 15  1  0
 31 21  1  0
 30 24  1  0
  3 32  1  0
  4 33  1  0
  4 34  1  0
  8 35  1  0
  8 36  1  0
  9 37  1  1
 10 38  1  0
 11 39  1  0
 11 40  1  0
 12 41  1  6
 13 42  1  0
 13 43  1  0
 16 44  1  0
 17 45  1  0
 18 46  1  0
 19 47  1  0
 20 48  1  0
 22 49  1  0
 23 50  1  0
 25 51  1  0
 28 52  1  0
 29 53  1  0
M  END
>  <smiles>  (25) 
O=C(NCC(=O)N1C[C@H](O)C[C@H]1COc1ccccc1)c1ccc2cc(Cl)ccc2n1

>  <score_type>  (25) 
oracle

>  <origin>  (25) 
autodockgpu

>  <m_score__min__energy>  (25) 
-8.2599999999999998

>  <m_primary>  (25) 
energy

>  <rmsd>  (25) 
2.756404884052211

>  <m_score__min__rmsd>  (25) 
2.756404884052211

>  <meeko>  (25) 
{"free_energy": -7.74, "intermolecular_energy": -10.12, "internal_energy": -2.37, "cluster_size": 6, "cluster_id": 4, "rank_in_cluster": 2}

>  <energy>  (25) 
-7.04

>  <cluster_rmsd>  (25) 
1.38

>  <cluster>  (25) 
3

$$$$

     RDKit          3D

 53 56  0  0  0  0  0  0  0  0999 V2000
  140.8670   72.7490  221.0180 O   0  0  0  0  0  0  0  0  0  0  0  0
  140.0770   72.8930  221.9760 C   0  0  0  0  0  0  0  0  0  0  0  0
  139.1520   73.9700  222.0430 N   0  0  0  0  0  0  0  0  0  0  0  0
  139.0710   74.9840  220.9830 C   0  0  0  0  0  0  0  0  0  0  0  0
  140.1140   76.0200  221.1680 C   0  0  0  0  0  0  0  0  0  0  0  0
  140.2070   76.7470  222.1950 O   0  0  0  0  0  0  0  0  0  0  0  0
  141.0800   76.2310  220.1500 N   0  0  0  0  0  0  0  0  0  0  0  0
  141.1810   75.6130  218.8360 C   0  0  0  0  0  0  0  0  0  0  0  0
  142.6230   75.1830  218.8250 C   0  0  2  0  0  0  0  0  0  0  0  0
  142.8010   73.9400  219.4390 O   0  0  0  0  0  0  0  0  0  0  0  0
  143.3510   76.2740  219.5420 C   0  0  0  0  0  0  0  0  0  0  0  0
  142.2410   77.1410  220.1720 C   0  0  1  0  0  0  0  0  0  0  0  0
  142.0730   78.2900  219.2060 C   0  0  0  0  0  0  0  0  0  0  0  0
  141.8870   79.4750  219.8900 O   0  0  0  0  0  0  0  0  0  0  0  0
  141.6330   79.7560  221.1880 C   0  0  0  0  0  0  0  0  0  0  0  0
  140.2870   79.8340  221.5760 C   0  0  0  0  0  0  0  0  0  0  0  0
  139.9100   80.1090  222.8670 C   0  0  0  0  0  0  0  0  0  0  0  0
  140.8490   80.3250  223.8530 C   0  0  0  0  0  0  0  0  0  0  0  0
  142.1720   80.2510  223.4890 C   0  0  0  0  0  0  0  0  0  0  0  0
  142.5500   79.9740  222.1890 C   0  0  0  0  0  0  0  0  0  0  0  0
  140.0810   71.9240  223.0900 C   0  0  0  0  0  0  0  0  0  0  0  0
  139.5600   70.6460  222.8510 C   0  0  0  0  0  0  0  0  0  0  0  0
  139.5800   69.7790  223.9040 C   0  0  0  0  0  0  0  0  0  0  0  0
  140.0730   70.1120  225.1270 C   0  0  0  0  0  0  0  0  0  0  0  0
  140.0600   69.1820  226.1400 C   0  0  0  0  0  0  0  0  0  0  0  0
  140.5590   69.5180  227.3780 C   0  0  0  0  0  0  0  0  0  0  0  0
  140.5330   68.3130  228.6700 Cl  0  0  0  0  0  0  0  0  0  0  0  0
  141.0750   70.7890  227.6120 C   0  0  0  0  0  0  0  0  0  0  0  0
  141.0940   71.7370  226.5960 C   0  0  0  0  0  0  0  0  0  0  0  0
  140.5820   71.3760  225.3430 C   0  0  0  0  0  0  0  0  0  0  0  0
  140.5600   72.2280  224.3060 N   0  0  0  0  0  0  0  0  0  0  0  0
  138.5120   74.0240  222.8920 H   0  0  0  0  0  0  0  0  0  0  0  0
  139.2141   74.4979  220.0067 H   0  0  0  0  0  0  0  0  0  0  0  0
  138.0828   75.4651  221.0288 H   0  0  0  0  0  0  0  0  0  0  0  0
  140.5029   74.7519  218.7424 H   0  0  0  0  0  0  0  0  0  0  0  0
  140.9010   76.2748  218.0032 H   0  0  0  0  0  0  0  0  0  0  0  0
  143.0028   75.0435  217.8021 H   0  0  0  0  0  0  0  0  0  0  0  0
  142.0070   73.7860  220.0070 H   0  0  0  0  0  0  0  0  0  0  0  0
  144.0054   75.8561  220.3212 H   0  0  0  0  0  0  0  0  0  0  0  0
  143.9983   76.8539  218.8677 H   0  0  0  0  0  0  0  0  0  0  0  0
  142.4111   77.5388  221.1833 H   0  0  0  0  0  0  0  0  0  0  0  0
  142.9739   78.3711  218.5801 H   0  0  0  0  0  0  0  0  0  0  0  0
  141.1901   78.1000  218.5780 H   0  0  0  0  0  0  0  0  0  0  0  0
  139.5062   79.6690  220.8190 H   0  0  0  0  0  0  0  0  0  0  0  0
  138.8404   80.1579  223.1191 H   0  0  0  0  0  0  0  0  0  0  0  0
  140.5515   80.5474  224.8884 H   0  0  0  0  0  0  0  0  0  0  0  0
  142.9485   80.4162  224.2504 H   0  0  0  0  0  0  0  0  0  0  0  0
  143.6219   79.9263  221.9466 H   0  0  0  0  0  0  0  0  0  0  0  0
  139.1571   70.3575  221.8689 H   0  0  0  0  0  0  0  0  0  0  0  0
  139.1794   68.7651  223.7574 H   0  0  0  0  0  0  0  0  0  0  0  0
  139.6532   68.1756  225.9620 H   0  0  0  0  0  0  0  0  0  0  0  0
  141.4699   71.0447  228.6063 H   0  0  0  0  0  0  0  0  0  0  0  0
  141.5003   72.7441  226.7710 H   0  0  0  0  0  0  0  0  0  0  0  0
  1  2  2  0
  2  3  1  0
  3  4  1  0
  4  5  1  0
  5  6  2  0
  5  7  1  0
  7  8  1  0
  8  9  1  0
  9 10  1  0
  9 11  1  0
 11 12  1  0
 12 13  1  0
 13 14  1  0
 14 15  1  0
 15 16  2  0
 16 17  1  0
 17 18  2  0
 18 19  1  0
 19 20  2  0
  2 21  1  0
 21 22  2  0
 22 23  1  0
 23 24  2  0
 24 25  1  0
 25 26  2  0
 26 27  1  0
 26 28  1  0
 28 29  2  0
 29 30  1  0
 30 31  2  0
 12  7  1  0
 20 15  1  0
 31 21  1  0
 30 24  1  0
  3 32  1  0
  4 33  1  0
  4 34  1  0
  8 35  1  0
  8 36  1  0
  9 37  1  6
 10 38  1  0
 11 39  1  0
 11 40  1  0
 12 41  1  1
 13 42  1  0
 13 43  1  0
 16 44  1  0
 17 45  1  0
 18 46  1  0
 19 47  1  0
 20 48  1  0
 22 49  1  0
 23 50  1  0
 25 51  1  0
 28 52  1  0
 29 53  1  0
M  END
>  <smiles>  (26) 
O=C(NCC(=O)N1C[C@H](O)C[C@H]1COc1ccccc1)c1ccc2cc(Cl)ccc2n1

>  <score_type>  (26) 
oracle

>  <origin>  (26) 
autodockgpu

>  <m_score__min__energy>  (26) 
-8.2599999999999998

>  <m_primary>  (26) 
energy

>  <rmsd>  (26) 
1.9082080003968036

>  <m_score__min__rmsd>  (26) 
1.9082080003968036

>  <meeko>  (26) 
{"free_energy": -7.84, "intermolecular_energy": -10.23, "internal_energy": -2.52, "cluster_size": 10, "cluster_id": 2, "rank_in_cluster": 8}

>  <energy>  (26) 
-7.04

>  <cluster_rmsd>  (26) 
1.27

>  <cluster>  (26) 
3

$$$$

     RDKit          3D

 53 56  0  0  0  0  0  0  0  0999 V2000
  138.4850   72.4120  221.6820 O   0  0  0  0  0  0  0  0  0  0  0  0
  139.5150   72.4990  222.3840 C   0  0  0  0  0  0  0  0  0  0  0  0
  140.5120   73.4860  222.1540 N   0  0  0  0  0  0  0  0  0  0  0  0
  140.3880   74.4670  221.0670 C   0  0  0  0  0  0  0  0  0  0  0  0
  140.2700   75.8390  221.6120 C   0  0  0  0  0  0  0  0  0  0  0  0
  141.2580   76.5830  221.8630 O   0  0  0  0  0  0  0  0  0  0  0  0
  138.9850   76.3790  221.8780 N   0  0  0  0  0  0  0  0  0  0  0  0
  138.1590   76.2400  223.0690 C   0  0  0  0  0  0  0  0  0  0  0  0
  136.8410   75.8350  222.4660 C   0  0  2  0  0  0  0  0  0  0  0  0
  136.7730   74.4570  222.2410 O   0  0  0  0  0  0  0  0  0  0  0  0
  136.7480   76.6180  221.1960 C   0  0  0  0  0  0  0  0  0  0  0  0
  138.1530   77.2250  221.0010 C   0  0  1  0  0  0  0  0  0  0  0  0
  138.0270   78.6330  221.5320 C   0  0  0  0  0  0  0  0  0  0  0  0
  138.9540   78.8600  222.5290 O   0  0  0  0  0  0  0  0  0  0  0  0
  140.2200   79.3370  222.5140 C   0  0  0  0  0  0  0  0  0  0  0  0
  140.9290   79.3090  223.7240 C   0  0  0  0  0  0  0  0  0  0  0  0
  142.2200   79.7640  223.8290 C   0  0  0  0  0  0  0  0  0  0  0  0
  142.8860   80.2750  222.7350 C   0  0  0  0  0  0  0  0  0  0  0  0
  142.2050   80.3080  221.5420 C   0  0  0  0  0  0  0  0  0  0  0  0
  140.9050   79.8500  221.4390 C   0  0  0  0  0  0  0  0  0  0  0  0
  139.7300   71.5580  223.5030 C   0  0  0  0  0  0  0  0  0  0  0  0
  139.3660   70.2180  223.3130 C   0  0  0  0  0  0  0  0  0  0  0  0
  139.5800   69.3800  224.3670 C   0  0  0  0  0  0  0  0  0  0  0  0
  140.1140   69.7960  225.5460 C   0  0  0  0  0  0  0  0  0  0  0  0
  140.3010   68.8900  226.5640 C   0  0  0  0  0  0  0  0  0  0  0  0
  140.8430   69.3110  227.7580 C   0  0  0  0  0  0  0  0  0  0  0  0
  141.0740   68.1350  229.0570 Cl  0  0  0  0  0  0  0  0  0  0  0  0
  141.2030   70.6420  227.9420 C   0  0  0  0  0  0  0  0  0  0  0  0
  141.0200   71.5660  226.9210 C   0  0  0  0  0  0  0  0  0  0  0  0
  140.4670   71.1190  225.7140 C   0  0  0  0  0  0  0  0  0  0  0  0
  140.2550   71.9430  224.6750 N   0  0  0  0  0  0  0  0  0  0  0  0
  141.3600   73.4950  222.7960 H   0  0  0  0  0  0  0  0  0  0  0  0
  141.2790   74.4089  220.4246 H   0  0  0  0  0  0  0  0  0  0  0  0
  139.4829   74.2382  220.4852 H   0  0  0  0  0  0  0  0  0  0  0  0
  138.5500   75.4628  223.7421 H   0  0  0  0  0  0  0  0  0  0  0  0
  138.1107   77.1448  223.6927 H   0  0  0  0  0  0  0  0  0  0  0  0
  135.9971   76.0478  223.1388 H   0  0  0  0  0  0  0  0  0  0  0  0
  137.5320   74.0510  222.7250 H   0  0  0  0  0  0  0  0  0  0  0  0
  136.4903   75.9596  220.3533 H   0  0  0  0  0  0  0  0  0  0  0  0
  135.9657   77.3900  221.2415 H   0  0  0  0  0  0  0  0  0  0  0  0
  138.5624   77.2577  219.9805 H   0  0  0  0  0  0  0  0  0  0  0  0
  138.1966   79.3456  220.7113 H   0  0  0  0  0  0  0  0  0  0  0  0
  137.0177   78.7664  221.9486 H   0  0  0  0  0  0  0  0  0  0  0  0
  140.4331   78.9083  224.6204 H   0  0  0  0  0  0  0  0  0  0  0  0
  142.7316   79.7202  224.8018 H   0  0  0  0  0  0  0  0  0  0  0  0
  143.9202   80.6413  222.8141 H   0  0  0  0  0  0  0  0  0  0  0  0
  142.7061   80.7082  220.6483 H   0  0  0  0  0  0  0  0  0  0  0  0
  140.4012   79.8978  220.4623 H   0  0  0  0  0  0  0  0  0  0  0  0
  138.9321   69.8624  222.3668 H   0  0  0  0  0  0  0  0  0  0  0  0
  139.3084   68.3196  224.2585 H   0  0  0  0  0  0  0  0  0  0  0  0
  140.0194   67.8358  226.4252 H   0  0  0  0  0  0  0  0  0  0  0  0
  141.6348   70.9645  228.9009 H   0  0  0  0  0  0  0  0  0  0  0  0
  141.3018   72.6206  227.0567 H   0  0  0  0  0  0  0  0  0  0  0  0
  1  2  2  0
  2  3  1  0
  3  4  1  0
  4  5  1  0
  5  6  2  0
  5  7  1  0
  7  8  1  0
  8  9  1  0
  9 10  1  0
  9 11  1  0
 11 12  1  0
 12 13  1  0
 13 14  1  0
 14 15  1  0
 15 16  2  0
 16 17  1  0
 17 18  2  0
 18 19  1  0
 19 20  2  0
  2 21  1  0
 21 22  2  0
 22 23  1  0
 23 24  2  0
 24 25  1  0
 25 26  2  0
 26 27  1  0
 26 28  1  0
 28 29  2  0
 29 30  1  0
 30 31  2  0
 12  7  1  0
 20 15  1  0
 31 21  1  0
 30 24  1  0
  3 32  1  0
  4 33  1  0
  4 34  1  0
  8 35  1  0
  8 36  1  0
  9 37  1  1
 10 38  1  0
 11 39  1  0
 11 40  1  0
 12 41  1  6
 13 42  1  0
 13 43  1  0
 16 44  1  0
 17 45  1  0
 18 46  1  0
 19 47  1  0
 20 48  1  0
 22 49  1  0
 23 50  1  0
 25 51  1  0
 28 52  1  0
 29 53  1  0
M  END
>  <smiles>  (27) 
O=C(NCC(=O)N1C[C@H](O)C[C@H]1COc1ccccc1)c1ccc2cc(Cl)ccc2n1

>  <score_type>  (27) 
oracle

>  <origin>  (27) 
autodockgpu

>  <m_score__min__energy>  (27) 
-8.2599999999999998

>  <m_primary>  (27) 
energy

>  <rmsd>  (27) 
3.1185138874107654

>  <m_score__min__rmsd>  (27) 
3.1185138874107654

>  <meeko>  (27) 
{"free_energy": -7.47, "intermolecular_energy": -9.86, "internal_energy": -2.62, "cluster_size": 20, "cluster_id": 3, "rank_in_cluster": 7}

>  <energy>  (27) 
-7.03

>  <cluster_rmsd>  (27) 
1.3

>  <cluster>  (27) 
3

$$$$

     RDKit          3D

 53 56  0  0  0  0  0  0  0  0999 V2000
  139.9220   72.0610  220.8460 O   0  0  0  0  0  0  0  0  0  0  0  0
  139.8340   72.4930  222.0150 C   0  0  0  0  0  0  0  0  0  0  0  0
  139.6440   73.8720  222.3040 N   0  0  0  0  0  0  0  0  0  0  0  0
  139.5390   74.8760  221.2360 C   0  0  0  0  0  0  0  0  0  0  0  0
  139.3240   76.2260  221.8060 C   0  0  0  0  0  0  0  0  0  0  0  0
  138.3260   76.5390  222.5120 O   0  0  0  0  0  0  0  0  0  0  0  0
  140.2750   77.2500  221.5610 N   0  0  0  0  0  0  0  0  0  0  0  0
  141.2850   77.7980  222.4550 C   0  0  0  0  0  0  0  0  0  0  0  0
  141.0380   79.2750  222.3050 C   0  0  2  0  0  0  0  0  0  0  0  0
  140.0230   79.7220  223.1560 O   0  0  0  0  0  0  0  0  0  0  0  0
  140.6860   79.4570  220.8640 C   0  0  0  0  0  0  0  0  0  0  0  0
  140.4790   78.0280  220.3240 C   0  0  1  0  0  0  0  0  0  0  0  0
  141.7900   77.6880  219.6550 C   0  0  0  0  0  0  0  0  0  0  0  0
  141.8760   76.3310  219.4170 O   0  0  0  0  0  0  0  0  0  0  0  0
  142.7440   75.3800  219.8300 C   0  0  0  0  0  0  0  0  0  0  0  0
  142.2390   74.0830  220.0000 C   0  0  0  0  0  0  0  0  0  0  0  0
  143.0280   73.0360  220.4120 C   0  0  0  0  0  0  0  0  0  0  0  0
  144.3680   73.2170  220.6800 C   0  0  0  0  0  0  0  0  0  0  0  0
  144.8780   74.4820  220.5170 C   0  0  0  0  0  0  0  0  0  0  0  0
  144.0830   75.5340  220.1020 C   0  0  0  0  0  0  0  0  0  0  0  0
  139.9250   71.5620  223.1580 C   0  0  0  0  0  0  0  0  0  0  0  0
  139.4850   70.2460  222.9680 C   0  0  0  0  0  0  0  0  0  0  0  0
  139.5850   69.4150  224.0460 C   0  0  0  0  0  0  0  0  0  0  0  0
  140.0800   69.8180  225.2470 C   0  0  0  0  0  0  0  0  0  0  0  0
  140.1510   68.9210  226.2870 C   0  0  0  0  0  0  0  0  0  0  0  0
  140.6530   69.3270  227.5030 C   0  0  0  0  0  0  0  0  0  0  0  0
  140.7340   68.1650  228.8300 Cl  0  0  0  0  0  0  0  0  0  0  0  0
  141.0890   70.6360  227.6870 C   0  0  0  0  0  0  0  0  0  0  0  0
  141.0240   71.5510  226.6420 C   0  0  0  0  0  0  0  0  0  0  0  0
  140.5100   71.1180  225.4140 C   0  0  0  0  0  0  0  0  0  0  0  0
  140.4100   71.9340  224.3520 N   0  0  0  0  0  0  0  0  0  0  0  0
  139.5780   74.1620  223.3260 H   0  0  0  0  0  0  0  0  0  0  0  0
  140.4686   74.8762  220.6479 H   0  0  0  0  0  0  0  0  0  0  0  0
  138.6819   74.6221  220.5949 H   0  0  0  0  0  0  0  0  0  0  0  0
  141.1281   77.4663  223.4920 H   0  0  0  0  0  0  0  0  0  0  0  0
  142.3133   77.4861  222.2196 H   0  0  0  0  0  0  0  0  0  0  0  0
  141.9184   79.8710  222.5874 H   0  0  0  0  0  0  0  0  0  0  0  0
  139.3170   79.0310  223.1460 H   0  0  0  0  0  0  0  0  0  0  0  0
  139.7631   80.0468  220.7623 H   0  0  0  0  0  0  0  0  0  0  0  0
  141.4673   79.9998  220.3117 H   0  0  0  0  0  0  0  0  0  0  0  0
  139.6559   77.8616  219.6135 H   0  0  0  0  0  0  0  0  0  0  0  0
  141.8588   78.2278  218.6990 H   0  0  0  0  0  0  0  0  0  0  0  0
  142.6149   77.9847  220.3195 H   0  0  0  0  0  0  0  0  0  0  0  0
  141.1741   73.8971  219.7965 H   0  0  0  0  0  0  0  0  0  0  0  0
  142.5829   72.0370  220.5299 H   0  0  0  0  0  0  0  0  0  0  0  0
  145.0032   72.3822  221.0110 H   0  0  0  0  0  0  0  0  0  0  0  0
  145.9437   74.6621  220.7214 H   0  0  0  0  0  0  0  0  0  0  0  0
  144.5374   76.5289  219.9853 H   0  0  0  0  0  0  0  0  0  0  0  0
  139.0816   69.9016  222.0043 H   0  0  0  0  0  0  0  0  0  0  0  0
  139.2503   68.3727  223.9387 H   0  0  0  0  0  0  0  0  0  0  0  0
  139.8086   67.8849  226.1481 H   0  0  0  0  0  0  0  0  0  0  0  0
  141.4869   70.9481  228.6638 H   0  0  0  0  0  0  0  0  0  0  0  0
  141.3673   72.5874  226.7766 H   0  0  0  0  0  0  0  0  0  0  0  0
  1  2  2  0
  2  3  1  0
  3  4  1  0
  4  5  1  0
  5  6  2  0
  5  7  1  0
  7  8  1  0
  8  9  1  0
  9 10  1  0
  9 11  1  0
 11 12  1  0
 12 13  1  0
 13 14  1  0
 14 15  1  0
 15 16  2  0
 16 17  1  0
 17 18  2  0
 18 19  1  0
 19 20  2  0
  2 21  1  0
 21 22  2  0
 22 23  1  0
 23 24  2  0
 24 25  1  0
 25 26  2  0
 26 27  1  0
 26 28  1  0
 28 29  2  0
 29 30  1  0
 30 31  2  0
 12  7  1  0
 20 15  1  0
 31 21  1  0
 30 24  1  0
  3 32  1  0
  4 33  1  0
  4 34  1  0
  8 35  1  0
  8 36  1  0
  9 37  1  1
 10 38  1  0
 11 39  1  0
 11 40  1  0
 12 41  1  6
 13 42  1  0
 13 43  1  0
 16 44  1  0
 17 45  1  0
 18 46  1  0
 19 47  1  0
 20 48  1  0
 22 49  1  0
 23 50  1  0
 25 51  1  0
 28 52  1  0
 29 53  1  0
M  END
>  <smiles>  (28) 
O=C(NCC(=O)N1C[C@H](O)C[C@H]1COc1ccccc1)c1ccc2cc(Cl)ccc2n1

>  <score_type>  (28) 
oracle

>  <origin>  (28) 
autodockgpu

>  <m_score__min__energy>  (28) 
-8.2599999999999998

>  <m_primary>  (28) 
energy

>  <rmsd>  (28) 
2.8198145754580106

>  <m_score__min__rmsd>  (28) 
2.8198145754580106

>  <meeko>  (28) 
{"free_energy": -7.54, "intermolecular_energy": -9.93, "internal_energy": -2.27, "cluster_size": 6, "cluster_id": 4, "rank_in_cluster": 3}

>  <energy>  (28) 
-6.98

>  <cluster_rmsd>  (28) 
1.43

>  <cluster>  (28) 
3

$$$$

     RDKit          3D

 53 56  0  0  0  0  0  0  0  0999 V2000
  141.0500   72.8050  221.2340 O   0  0  0  0  0  0  0  0  0  0  0  0
  140.1870   72.8670  222.1340 C   0  0  0  0  0  0  0  0  0  0  0  0
  139.1800   73.8710  222.1540 N   0  0  0  0  0  0  0  0  0  0  0  0
  139.0970   74.9010  221.1090 C   0  0  0  0  0  0  0  0  0  0  0  0
  140.1570   75.9190  221.2930 C   0  0  0  0  0  0  0  0  0  0  0  0
  140.2830   76.6210  222.3340 O   0  0  0  0  0  0  0  0  0  0  0  0
  141.1000   76.1430  220.2570 N   0  0  0  0  0  0  0  0  0  0  0  0
  141.2360   75.4670  218.9750 C   0  0  0  0  0  0  0  0  0  0  0  0
  142.7030   75.1350  218.9730 C   0  0  2  0  0  0  0  0  0  0  0  0
  142.9690   73.9390  219.6470 O   0  0  0  0  0  0  0  0  0  0  0  0
  143.3600   76.3080  219.6270 C   0  0  0  0  0  0  0  0  0  0  0  0
  142.1980   77.1290  220.2220 C   0  0  1  0  0  0  0  0  0  0  0  0
  141.9470   78.2140  219.2020 C   0  0  0  0  0  0  0  0  0  0  0  0
  141.5450   79.3800  219.8220 O   0  0  0  0  0  0  0  0  0  0  0  0
  141.4100   79.7290  221.1210 C   0  0  0  0  0  0  0  0  0  0  0  0
  142.5630   80.1620  221.7920 C   0  0  0  0  0  0  0  0  0  0  0  0
  142.5460   80.5450  223.1100 C   0  0  0  0  0  0  0  0  0  0  0  0
  141.3790   80.5210  223.8430 C   0  0  0  0  0  0  0  0  0  0  0  0
  140.2400   80.0990  223.2000 C   0  0  0  0  0  0  0  0  0  0  0  0
  140.2590   79.7150  221.8730 C   0  0  0  0  0  0  0  0  0  0  0  0
  140.1850   71.8750  223.2290 C   0  0  0  0  0  0  0  0  0  0  0  0
  139.7090   70.5880  222.9480 C   0  0  0  0  0  0  0  0  0  0  0  0
  139.7230   69.7010  223.9830 C   0  0  0  0  0  0  0  0  0  0  0  0
  140.1700   70.0220  225.2270 C   0  0  0  0  0  0  0  0  0  0  0  0
  140.1540   69.0700  226.2200 C   0  0  0  0  0  0  0  0  0  0  0  0
  140.6060   69.3940  227.4800 C   0  0  0  0  0  0  0  0  0  0  0  0
  140.5770   68.1630  228.7460 Cl  0  0  0  0  0  0  0  0  0  0  0  0
  141.0780   70.6740  227.7550 C   0  0  0  0  0  0  0  0  0  0  0  0
  141.1000   71.6440  226.7590 C   0  0  0  0  0  0  0  0  0  0  0  0
  140.6350   71.2940  225.4840 C   0  0  0  0  0  0  0  0  0  0  0  0
  140.6200   72.1670  224.4640 N   0  0  0  0  0  0  0  0  0  0  0  0
  138.4800   73.8570  222.9550 H   0  0  0  0  0  0  0  0  0  0  0  0
  139.2187   74.4268  220.1239 H   0  0  0  0  0  0  0  0  0  0  0  0
  138.1164   75.3949  221.1759 H   0  0  0  0  0  0  0  0  0  0  0  0
  140.6172   74.5586  218.9308 H   0  0  0  0  0  0  0  0  0  0  0  0
  140.9077   76.0654  218.1124 H   0  0  0  0  0  0  0  0  0  0  0  0
  143.0852   74.9691  217.9550 H   0  0  0  0  0  0  0  0  0  0  0  0
  142.1700   73.7360  220.1920 H   0  0  0  0  0  0  0  0  0  0  0  0
  144.0457   75.9756  220.4203 H   0  0  0  0  0  0  0  0  0  0  0  0
  143.9629   76.8948  218.9183 H   0  0  0  0  0  0  0  0  0  0  0  0
  142.3471   77.5881  221.2104 H   0  0  0  0  0  0  0  0  0  0  0  0
  142.8738   78.4040  218.6407 H   0  0  0  0  0  0  0  0  0  0  0  0
  141.1504   77.8821  218.5199 H   0  0  0  0  0  0  0  0  0  0  0  0
  143.5152   80.1959  221.2423 H   0  0  0  0  0  0  0  0  0  0  0  0
  143.4790   80.8765  223.5891 H   0  0  0  0  0  0  0  0  0  0  0  0
  141.3600   80.8271  224.8994 H   0  0  0  0  0  0  0  0  0  0  0  0
  139.2909   80.0662  223.7550 H   0  0  0  0  0  0  0  0  0  0  0  0
  139.3208   79.3867  221.4018 H   0  0  0  0  0  0  0  0  0  0  0  0
  139.3444   70.3088  221.9484 H   0  0  0  0  0  0  0  0  0  0  0  0
  139.3563   68.6795  223.8041 H   0  0  0  0  0  0  0  0  0  0  0  0
  139.7825   68.0564  226.0090 H   0  0  0  0  0  0  0  0  0  0  0  0
  141.4356   70.9197  228.7658 H   0  0  0  0  0  0  0  0  0  0  0  0
  141.4722   72.6582  226.9661 H   0  0  0  0  0  0  0  0  0  0  0  0
  1  2  2  0
  2  3  1  0
  3  4  1  0
  4  5  1  0
  5  6  2  0
  5  7  1  0
  7  8  1  0
  8  9  1  0
  9 10  1  0
  9 11  1  0
 11 12  1  0
 12 13  1  0
 13 14  1  0
 14 15  1  0
 15 16  2  0
 16 17  1  0
 17 18  2  0
 18 19  1  0
 19 20  2  0
  2 21  1  0
 21 22  2  0
 22 23  1  0
 23 24  2  0
 24 25  1  0
 25 26  2  0
 26 27  1  0
 26 28  1  0
 28 29  2  0
 29 30  1  0
 30 31  2  0
 12  7  1  0
 20 15  1  0
 31 21  1  0
 30 24  1  0
  3 32  1  0
  4 33  1  0
  4 34  1  0
  8 35  1  0
  8 36  1  0
  9 37  1  6
 10 38  1  0
 11 39  1  0
 11 40  1  0
 12 41  1  1
 13 42  1  0
 13 43  1  0
 16 44  1  0
 17 45  1  0
 18 46  1  0
 19 47  1  0
 20 48  1  0
 22 49  1  0
 23 50  1  0
 25 51  1  0
 28 52  1  0
 29 53  1  0
M  END
>  <smiles>  (29) 
O=C(NCC(=O)N1C[C@H](O)C[C@H]1COc1ccccc1)c1ccc2cc(Cl)ccc2n1

>  <score_type>  (29) 
oracle

>  <origin>  (29) 
autodockgpu

>  <m_score__min__energy>  (29) 
-8.2599999999999998

>  <m_primary>  (29) 
energy

>  <rmsd>  (29) 
1.9092945127948815

>  <m_score__min__rmsd>  (29) 
1.9092945127948815

>  <meeko>  (29) 
{"free_energy": -7.92, "intermolecular_energy": -10.31, "internal_energy": -2.49, "cluster_size": 10, "cluster_id": 2, "rank_in_cluster": 6}

>  <energy>  (29) 
-6.98

>  <cluster_rmsd>  (29) 
1.5

>  <cluster>  (29) 
3

$$$$

     RDKit          3D

 53 56  0  0  0  0  0  0  0  0999 V2000
  140.1770   72.6900  222.7240 O   0  0  0  0  0  0  0  0  0  0  0  0
  140.3530   73.5360  221.8220 C   0  0  0  0  0  0  0  0  0  0  0  0
  141.0080   73.2210  220.6000 N   0  0  0  0  0  0  0  0  0  0  0  0
  141.5210   71.8710  220.3270 C   0  0  0  0  0  0  0  0  0  0  0  0
  143.0000   71.8740  220.2720 C   0  0  0  0  0  0  0  0  0  0  0  0
  143.7200   70.9160  220.6670 O   0  0  0  0  0  0  0  0  0  0  0  0
  143.6800   73.0060  219.7520 N   0  0  0  0  0  0  0  0  0  0  0  0
  144.2990   74.1140  220.4640 C   0  0  0  0  0  0  0  0  0  0  0  0
  143.7110   75.2940  219.7380 C   0  0  2  0  0  0  0  0  0  0  0  0
  142.4590   75.6480  220.2460 O   0  0  0  0  0  0  0  0  0  0  0  0
  143.6370   74.8620  218.3090 C   0  0  0  0  0  0  0  0  0  0  0  0
  143.9300   73.3480  218.3380 C   0  0  1  0  0  0  0  0  0  0  0  0
  145.3950   73.2450  217.9850 C   0  0  0  0  0  0  0  0  0  0  0  0
  145.9480   72.1060  218.5340 O   0  0  0  0  0  0  0  0  0  0  0  0
  145.6290   70.7950  218.4440 C   0  0  0  0  0  0  0  0  0  0  0  0
  146.2850   69.9150  219.3180 C   0  0  0  0  0  0  0  0  0  0  0  0
  146.0400   68.5630  219.3190 C   0  0  0  0  0  0  0  0  0  0  0  0
  145.1270   68.0040  218.4500 C   0  0  0  0  0  0  0  0  0  0  0  0
  144.4770   68.8540  217.5880 C   0  0  0  0  0  0  0  0  0  0  0  0
  144.7240   70.2130  217.5880 C   0  0  0  0  0  0  0  0  0  0  0  0
  139.8720   74.9210  222.0020 C   0  0  0  0  0  0  0  0  0  0  0  0
  138.5000   75.1640  221.8540 C   0  0  0  0  0  0  0  0  0  0  0  0
  138.0940   76.4540  222.0270 C   0  0  0  0  0  0  0  0  0  0  0  0
  138.9520   77.4660  222.3280 C   0  0  0  0  0  0  0  0  0  0  0  0
  138.4650   78.7420  222.4890 C   0  0  0  0  0  0  0  0  0  0  0  0
  139.3330   79.7670  222.7940 C   0  0  0  0  0  0  0  0  0  0  0  0
  138.6940   81.4020  222.9960 Cl  0  0  0  0  0  0  0  0  0  0  0  0
  140.6950   79.5220  222.9410 C   0  0  0  0  0  0  0  0  0  0  0  0
  141.1970   78.2360  222.7810 C   0  0  0  0  0  0  0  0  0  0  0  0
  140.2990   77.2070  222.4700 C   0  0  0  0  0  0  0  0  0  0  0  0
  140.6970   75.9360  222.2980 N   0  0  0  0  0  0  0  0  0  0  0  0
  141.1190   73.9970  219.8810 H   0  0  0  0  0  0  0  0  0  0  0  0
  141.1909   71.1909  221.1261 H   0  0  0  0  0  0  0  0  0  0  0  0
  141.1319   71.5350  219.3545 H   0  0  0  0  0  0  0  0  0  0  0  0
  144.0198   74.1155  221.5280 H   0  0  0  0  0  0  0  0  0  0  0  0
  145.3987   74.0893  220.4685 H   0  0  0  0  0  0  0  0  0  0  0  0
  144.3242   76.1991  219.8595 H   0  0  0  0  0  0  0  0  0  0  0  0
  142.5730   75.7820  221.2190 H   0  0  0  0  0  0  0  0  0  0  0  0
  142.6352   75.0548  217.8975 H   0  0  0  0  0  0  0  0  0  0  0  0
  144.3478   75.4098  217.6728 H   0  0  0  0  0  0  0  0  0  0  0  0
  143.3487   72.6990  217.6665 H   0  0  0  0  0  0  0  0  0  0  0  0
  145.5014   73.2073  216.8908 H   0  0  0  0  0  0  0  0  0  0  0  0
  145.9196   74.1237  218.3883 H   0  0  0  0  0  0  0  0  0  0  0  0
  147.0211   70.3216  220.0271 H   0  0  0  0  0  0  0  0  0  0  0  0
  146.5812   67.9158  220.0248 H   0  0  0  0  0  0  0  0  0  0  0  0
  144.9272   66.9223  218.4469 H   0  0  0  0  0  0  0  0  0  0  0  0
  143.7421   68.4422  216.8807 H   0  0  0  0  0  0  0  0  0  0  0  0
  144.1777   70.8519  216.8785 H   0  0  0  0  0  0  0  0  0  0  0  0
  137.7903   74.3592  221.6118 H   0  0  0  0  0  0  0  0  0  0  0  0
  137.0245   76.6871  221.9183 H   0  0  0  0  0  0  0  0  0  0  0  0
  137.3895   78.9427  222.3750 H   0  0  0  0  0  0  0  0  0  0  0  0
  141.3772   80.3498  223.1849 H   0  0  0  0  0  0  0  0  0  0  0  0
  142.2717   78.0315  222.8956 H   0  0  0  0  0  0  0  0  0  0  0  0
  1  2  2  0
  2  3  1  0
  3  4  1  0
  4  5  1  0
  5  6  2  0
  5  7  1  0
  7  8  1  0
  8  9  1  0
  9 10  1  0
  9 11  1  0
 11 12  1  0
 12 13  1  0
 13 14  1  0
 14 15  1  0
 15 16  2  0
 16 17  1  0
 17 18  2  0
 18 19  1  0
 19 20  2  0
  2 21  1  0
 21 22  2  0
 22 23  1  0
 23 24  2  0
 24 25  1  0
 25 26  2  0
 26 27  1  0
 26 28  1  0
 28 29  2  0
 29 30  1  0
 30 31  2  0
 12  7  1  0
 20 15  1  0
 31 21  1  0
 30 24  1  0
  3 32  1  0
  4 33  1  0
  4 34  1  0
  8 35  1  0
  8 36  1  0
  9 37  1  6
 10 38  1  0
 11 39  1  0
 11 40  1  0
 12 41  1  6
 13 42  1  0
 13 43  1  0
 16 44  1  0
 17 45  1  0
 18 46  1  0
 19 47  1  0
 20 48  1  0
 22 49  1  0
 23 50  1  0
 25 51  1  0
 28 52  1  0
 29 53  1  0
M  END
>  <smiles>  (30) 
O=C(NCC(=O)N1C[C@H](O)C[C@H]1COc1ccccc1)c1ccc2cc(Cl)ccc2n1

>  <score_type>  (30) 
oracle

>  <origin>  (30) 
autodockgpu

>  <m_score__min__energy>  (30) 
-8.2599999999999998

>  <m_primary>  (30) 
energy

>  <rmsd>  (30) 
6.708076026060185

>  <m_score__min__rmsd>  (30) 
6.708076026060185

>  <meeko>  (30) 
{"free_energy": -6.57, "intermolecular_energy": -8.96, "internal_energy": -3.4, "cluster_size": 2, "cluster_id": 9, "rank_in_cluster": 1}

>  <energy>  (30) 
-6.91

>  <cluster_rmsd>  (30) 
1.48

>  <cluster>  (30) 
3

$$$$

     RDKit          3D

 53 56  0  0  0  0  0  0  0  0999 V2000
  138.9700   70.8730  221.0240 O   0  0  0  0  0  0  0  0  0  0  0  0
  138.6880   71.4570  222.0920 C   0  0  0  0  0  0  0  0  0  0  0  0
  137.7860   72.5550  222.1430 N   0  0  0  0  0  0  0  0  0  0  0  0
  137.1310   73.0720  220.9330 C   0  0  0  0  0  0  0  0  0  0  0  0
  137.4510   74.5040  220.7350 C   0  0  0  0  0  0  0  0  0  0  0  0
  136.5840   75.3930  220.5130 O   0  0  0  0  0  0  0  0  0  0  0  0
  138.8020   74.9340  220.7920 N   0  0  0  0  0  0  0  0  0  0  0  0
  139.8260   74.8850  219.7590 C   0  0  0  0  0  0  0  0  0  0  0  0
  140.9680   74.2540  220.5090 C   0  0  2  0  0  0  0  0  0  0  0  0
  140.8830   72.8590  220.5090 O   0  0  0  0  0  0  0  0  0  0  0  0
  140.8790   74.8240  221.8870 C   0  0  0  0  0  0  0  0  0  0  0  0
  139.5160   75.5440  221.9300 C   0  0  1  0  0  0  0  0  0  0  0  0
  139.8520   76.9930  221.6720 C   0  0  0  0  0  0  0  0  0  0  0  0
  140.3310   77.5930  222.8200 O   0  0  0  0  0  0  0  0  0  0  0  0
  140.8710   78.8080  223.0640 C   0  0  0  0  0  0  0  0  0  0  0  0
  142.2540   78.9440  222.8740 C   0  0  0  0  0  0  0  0  0  0  0  0
  142.9110   80.1310  223.0890 C   0  0  0  0  0  0  0  0  0  0  0  0
  142.2310   81.2560  223.5060 C   0  0  0  0  0  0  0  0  0  0  0  0
  140.8760   81.1380  223.6970 C   0  0  0  0  0  0  0  0  0  0  0  0
  140.2160   79.9430  223.4800 C   0  0  0  0  0  0  0  0  0  0  0  0
  139.2940   71.0110  223.3620 C   0  0  0  0  0  0  0  0  0  0  0  0
  140.2340   71.8520  223.9720 C   0  0  0  0  0  0  0  0  0  0  0  0
  140.7720   71.4060  225.1440 C   0  0  0  0  0  0  0  0  0  0  0  0
  140.4320   70.2170  225.7080 C   0  0  0  0  0  0  0  0  0  0  0  0
  141.0170   69.8360  226.8930 C   0  0  0  0  0  0  0  0  0  0  0  0
  140.6730   68.6320  227.4660 C   0  0  0  0  0  0  0  0  0  0  0  0
  141.4360   68.1560  228.9870 Cl  0  0  0  0  0  0  0  0  0  0  0  0
  139.7390   67.8000  226.8570 C   0  0  0  0  0  0  0  0  0  0  0  0
  139.1410   68.1740  225.6600 C   0  0  0  0  0  0  0  0  0  0  0  0
  139.5040   69.4020  225.0930 C   0  0  0  0  0  0  0  0  0  0  0  0
  138.9760   69.8430  223.9400 N   0  0  0  0  0  0  0  0  0  0  0  0
  137.5960   72.9990  223.0910 H   0  0  0  0  0  0  0  0  0  0  0  0
  137.4807   72.5001  220.0609 H   0  0  0  0  0  0  0  0  0  0  0  0
  136.0422   72.9659  221.0479 H   0  0  0  0  0  0  0  0  0  0  0  0
  139.5105   74.2637  218.9078 H   0  0  0  0  0  0  0  0  0  0  0  0
  140.0640   75.8618  219.3126 H   0  0  0  0  0  0  0  0  0  0  0  0
  141.9391   74.4719  220.0406 H   0  0  0  0  0  0  0  0  0  0  0  0
  139.9580   72.6290  220.2480 H   0  0  0  0  0  0  0  0  0  0  0  0
  140.9180   74.0235  222.6404 H   0  0  0  0  0  0  0  0  0  0  0  0
  141.7144   75.5043  222.1090 H   0  0  0  0  0  0  0  0  0  0  0  0
  138.9233   75.4683  222.8536 H   0  0  0  0  0  0  0  0  0  0  0  0
  140.6195   77.0517  220.8862 H   0  0  0  0  0  0  0  0  0  0  0  0
  138.9392   77.5171  221.3524 H   0  0  0  0  0  0  0  0  0  0  0  0
  142.8326   78.0697  222.5412 H   0  0  0  0  0  0  0  0  0  0  0  0
  143.9975   80.1851  222.9259 H   0  0  0  0  0  0  0  0  0  0  0  0
  142.7526   82.2090  223.6786 H   0  0  0  0  0  0  0  0  0  0  0  0
  140.3024   82.0153  224.0306 H   0  0  0  0  0  0  0  0  0  0  0  0
  139.1295   79.8986  223.6458 H   0  0  0  0  0  0  0  0  0  0  0  0
  140.5221   72.8176  223.5309 H   0  0  0  0  0  0  0  0  0  0  0  0
  141.5140   72.0369  225.6552 H   0  0  0  0  0  0  0  0  0  0  0  0
  141.7556   70.4894  227.3804 H   0  0  0  0  0  0  0  0  0  0  0  0
  139.4726   66.8411  227.3256 H   0  0  0  0  0  0  0  0  0  0  0  0
  138.4019   67.5227  225.1706 H   0  0  0  0  0  0  0  0  0  0  0  0
  1  2  2  0
  2  3  1  0
  3  4  1  0
  4  5  1  0
  5  6  2  0
  5  7  1  0
  7  8  1  0
  8  9  1  0
  9 10  1  0
  9 11  1  0
 11 12  1  0
 12 13  1  0
 13 14  1  0
 14 15  1  0
 15 16  2  0
 16 17  1  0
 17 18  2  0
 18 19  1  0
 19 20  2  0
  2 21  1  0
 21 22  2  0
 22 23  1  0
 23 24  2  0
 24 25  1  0
 25 26  2  0
 26 27  1  0
 26 28  1  0
 28 29  2  0
 29 30  1  0
 30 31  2  0
 12  7  1  0
 20 15  1  0
 31 21  1  0
 30 24  1  0
  3 32  1  0
  4 33  1  0
  4 34  1  0
  8 35  1  0
  8 36  1  0
  9 37  1  6
 10 38  1  0
 11 39  1  0
 11 40  1  0
 12 41  1  1
 13 42  1  0
 13 43  1  0
 16 44  1  0
 17 45  1  0
 18 46  1  0
 19 47  1  0
 20 48  1  0
 22 49  1  0
 23 50  1  0
 25 51  1  0
 28 52  1  0
 29 53  1  0
M  END
>  <smiles>  (31) 
O=C(NCC(=O)N1C[C@H](O)C[C@H]1COc1ccccc1)c1ccc2cc(Cl)ccc2n1

>  <score_type>  (31) 
oracle

>  <origin>  (31) 
autodockgpu

>  <m_score__min__energy>  (31) 
-8.2599999999999998

>  <m_primary>  (31) 
energy

>  <rmsd>  (31) 
3.0384848407759035

>  <m_score__min__rmsd>  (31) 
3.0384848407759035

>  <meeko>  (31) 
{"free_energy": -7.48, "intermolecular_energy": -9.87, "internal_energy": -2.3, "cluster_size": 20, "cluster_id": 3, "rank_in_cluster": 6}

>  <energy>  (31) 
-6.84

>  <cluster_rmsd>  (31) 
1.53

>  <cluster>  (31) 
3

$$$$

     RDKit          3D

 53 56  0  0  0  0  0  0  0  0999 V2000
  141.1210   72.9180  221.4640 O   0  0  0  0  0  0  0  0  0  0  0  0
  140.1920   72.8670  222.2980 C   0  0  0  0  0  0  0  0  0  0  0  0
  139.0740   73.7430  222.2470 N   0  0  0  0  0  0  0  0  0  0  0  0
  138.9460   74.7690  221.2020 C   0  0  0  0  0  0  0  0  0  0  0  0
  140.0190   75.7810  221.3280 C   0  0  0  0  0  0  0  0  0  0  0  0
  140.2300   76.4550  222.3740 O   0  0  0  0  0  0  0  0  0  0  0  0
  140.8780   76.0330  220.2270 N   0  0  0  0  0  0  0  0  0  0  0  0
  140.6820   75.7210  218.8190 C   0  0  0  0  0  0  0  0  0  0  0  0
  141.9830   75.0420  218.4850 C   0  0  2  0  0  0  0  0  0  0  0  0
  141.9580   73.6820  218.8040 O   0  0  0  0  0  0  0  0  0  0  0  0
  143.0130   75.7870  219.2730 C   0  0  0  0  0  0  0  0  0  0  0  0
  142.2040   76.6800  220.2350 C   0  0  1  0  0  0  0  0  0  0  0  0
  142.1770   78.0290  219.5570 C   0  0  0  0  0  0  0  0  0  0  0  0
  141.4480   78.9330  220.3030 O   0  0  0  0  0  0  0  0  0  0  0  0
  141.6760   79.5390  221.4900 C   0  0  0  0  0  0  0  0  0  0  0  0
  141.5790   80.9380  221.5230 C   0  0  0  0  0  0  0  0  0  0  0  0
  141.7860   81.6610  222.6720 C   0  0  0  0  0  0  0  0  0  0  0  0
  142.1030   81.0360  223.8590 C   0  0  0  0  0  0  0  0  0  0  0  0
  142.2010   79.6660  223.8430 C   0  0  0  0  0  0  0  0  0  0  0  0
  141.9920   78.9400  222.6860 C   0  0  0  0  0  0  0  0  0  0  0  0
  140.2280   71.8680  223.3870 C   0  0  0  0  0  0  0  0  0  0  0  0
  139.8250   70.5600  223.0900 C   0  0  0  0  0  0  0  0  0  0  0  0
  139.8730   69.6670  224.1200 C   0  0  0  0  0  0  0  0  0  0  0  0
  140.2840   70.0020  225.3720 C   0  0  0  0  0  0  0  0  0  0  0  0
  140.3050   69.0440  226.3590 C   0  0  0  0  0  0  0  0  0  0  0  0
  140.7210   69.3830  227.6270 C   0  0  0  0  0  0  0  0  0  0  0  0
  140.7410   68.1420  228.8840 Cl  0  0  0  0  0  0  0  0  0  0  0  0
  141.1210   70.6840  227.9170 C   0  0  0  0  0  0  0  0  0  0  0  0
  141.1040   71.6600  226.9270 C   0  0  0  0  0  0  0  0  0  0  0  0
  140.6770   71.2960  225.6440 C   0  0  0  0  0  0  0  0  0  0  0  0
  140.6290   72.1740  224.6290 N   0  0  0  0  0  0  0  0  0  0  0  0
  138.3240   73.6370  222.9930 H   0  0  0  0  0  0  0  0  0  0  0  0
  139.0162   74.2894  220.2146 H   0  0  0  0  0  0  0  0  0  0  0  0
  137.9729   75.2694  221.3150 H   0  0  0  0  0  0  0  0  0  0  0  0
  139.8258   75.0464  218.6712 H   0  0  0  0  0  0  0  0  0  0  0  0
  140.4551   76.5949  218.1907 H   0  0  0  0  0  0  0  0  0  0  0  0
  142.1968   75.0687  217.4063 H   0  0  0  0  0  0  0  0  0  0  0  0
  141.6780   73.6160  219.7500 H   0  0  0  0  0  0  0  0  0  0  0  0
  143.6499   75.0888  219.8359 H   0  0  0  0  0  0  0  0  0  0  0  0
  143.6846   76.3732  218.6285 H   0  0  0  0  0  0  0  0  0  0  0  0
  142.5775   76.7985  221.2628 H   0  0  0  0  0  0  0  0  0  0  0  0
  143.2071   78.3988  219.4466 H   0  0  0  0  0  0  0  0  0  0  0  0
  141.7039   77.9205  218.5699 H   0  0  0  0  0  0  0  0  0  0  0  0
  141.3284   81.4747  220.5961 H   0  0  0  0  0  0  0  0  0  0  0  0
  141.6974   82.7571  222.6447 H   0  0  0  0  0  0  0  0  0  0  0  0
  142.2707   81.6110  224.7816 H   0  0  0  0  0  0  0  0  0  0  0  0
  142.4517   79.1345  224.7729 H   0  0  0  0  0  0  0  0  0  0  0  0
  142.0817   77.8443  222.7235 H   0  0  0  0  0  0  0  0  0  0  0  0
  139.4890   70.2694  222.0837 H   0  0  0  0  0  0  0  0  0  0  0  0
  139.5651   68.6284  223.9290 H   0  0  0  0  0  0  0  0  0  0  0  0
  139.9913   68.0134  226.1366 H   0  0  0  0  0  0  0  0  0  0  0  0
  141.4521   70.9413  228.9340 H   0  0  0  0  0  0  0  0  0  0  0  0
  141.4178   72.6913  227.1459 H   0  0  0  0  0  0  0  0  0  0  0  0
  1  2  2  0
  2  3  1  0
  3  4  1  0
  4  5  1  0
  5  6  2  0
  5  7  1  0
  7  8  1  0
  8  9  1  0
  9 10  1  0
  9 11  1  0
 11 12  1  0
 12 13  1  0
 13 14  1  0
 14 15  1  0
 15 16  2  0
 16 17  1  0
 17 18  2  0
 18 19  1  0
 19 20  2  0
  2 21  1  0
 21 22  2  0
 22 23  1  0
 23 24  2  0
 24 25  1  0
 25 26  2  0
 26 27  1  0
 26 28  1  0
 28 29  2  0
 29 30  1  0
 30 31  2  0
 12  7  1  0
 20 15  1  0
 31 21  1  0
 30 24  1  0
  3 32  1  0
  4 33  1  0
  4 34  1  0
  8 35  1  0
  8 36  1  0
  9 37  1  6
 10 38  1  0
 11 39  1  0
 11 40  1  0
 12 41  1  1
 13 42  1  0
 13 43  1  0
 16 44  1  0
 17 45  1  0
 18 46  1  0
 19 47  1  0
 20 48  1  0
 22 49  1  0
 23 50  1  0
 25 51  1  0
 28 52  1  0
 29 53  1  0
M  END
>  <smiles>  (32) 
O=C(NCC(=O)N1C[C@H](O)C[C@H]1COc1ccccc1)c1ccc2cc(Cl)ccc2n1

>  <score_type>  (32) 
oracle

>  <origin>  (32) 
autodockgpu

>  <m_score__min__energy>  (32) 
-8.2599999999999998

>  <m_primary>  (32) 
energy

>  <rmsd>  (32) 
1.7534890504518408

>  <m_score__min__rmsd>  (32) 
1.7534890504518408

>  <meeko>  (32) 
{"free_energy": -8.03, "intermolecular_energy": -10.42, "internal_energy": -2.36, "cluster_size": 10, "cluster_id": 2, "rank_in_cluster": 4}

>  <energy>  (32) 
-6.74

>  <cluster_rmsd>  (32) 
1.63

>  <cluster>  (32) 
3

$$$$

     RDKit          3D

 53 56  0  0  0  0  0  0  0  0999 V2000
  139.5680   72.6090  220.3520 O   0  0  0  0  0  0  0  0  0  0  0  0
  140.1310   72.9050  221.4280 C   0  0  0  0  0  0  0  0  0  0  0  0
  140.9050   74.0880  221.5810 N   0  0  0  0  0  0  0  0  0  0  0  0
  141.0900   75.0360  220.4740 C   0  0  0  0  0  0  0  0  0  0  0  0
  140.5800   76.3760  220.8410 C   0  0  0  0  0  0  0  0  0  0  0  0
  141.1510   77.4560  220.5260 O   0  0  0  0  0  0  0  0  0  0  0  0
  139.3800   76.4880  221.5910 N   0  0  0  0  0  0  0  0  0  0  0  0
  138.8980   75.6540  222.6820 C   0  0  0  0  0  0  0  0  0  0  0  0
  137.4920   75.3630  222.2290 C   0  0  2  0  0  0  0  0  0  0  0  0
  137.4420   74.2730  221.3560 O   0  0  0  0  0  0  0  0  0  0  0  0
  137.0330   76.6280  221.5790 C   0  0  0  0  0  0  0  0  0  0  0  0
  138.3060   77.4890  221.4470 C   0  0  1  0  0  0  0  0  0  0  0  0
  138.2470   78.4250  222.6310 C   0  0  0  0  0  0  0  0  0  0  0  0
  139.4400   78.4070  223.3240 O   0  0  0  0  0  0  0  0  0  0  0  0
  140.5060   79.2400  223.3390 C   0  0  0  0  0  0  0  0  0  0  0  0
  141.7680   78.6690  223.1230 C   0  0  0  0  0  0  0  0  0  0  0  0
  142.9200   79.4170  223.1140 C   0  0  0  0  0  0  0  0  0  0  0  0
  142.8860   80.7790  223.3190 C   0  0  0  0  0  0  0  0  0  0  0  0
  141.6570   81.3530  223.5320 C   0  0  0  0  0  0  0  0  0  0  0  0
  140.4980   80.6000  223.5410 C   0  0  0  0  0  0  0  0  0  0  0  0
  140.0020   72.0160  222.6000 C   0  0  0  0  0  0  0  0  0  0  0  0
  139.1980   70.8760  222.4750 C   0  0  0  0  0  0  0  0  0  0  0  0
  139.1040   70.0800  223.5780 C   0  0  0  0  0  0  0  0  0  0  0  0
  139.7450   70.3540  224.7460 C   0  0  0  0  0  0  0  0  0  0  0  0
  139.6020   69.5010  225.8150 C   0  0  0  0  0  0  0  0  0  0  0  0
  140.2510   69.7780  226.9970 C   0  0  0  0  0  0  0  0  0  0  0  0
  140.0560   68.6750  228.3630 Cl  0  0  0  0  0  0  0  0  0  0  0  0
  141.0500   70.9120  227.1180 C   0  0  0  0  0  0  0  0  0  0  0  0
  141.2020   71.7800  226.0430 C   0  0  0  0  0  0  0  0  0  0  0  0
  140.5330   71.4810  224.8500 C   0  0  0  0  0  0  0  0  0  0  0  0
  140.6240   72.2640  223.7630 N   0  0  0  0  0  0  0  0  0  0  0  0
  141.3520   74.2700  222.5290 H   0  0  0  0  0  0  0  0  0  0  0  0
  142.1617   75.1100  220.2375 H   0  0  0  0  0  0  0  0  0  0  0  0
  140.5301   74.6721  219.5999 H   0  0  0  0  0  0  0  0  0  0  0  0
  139.4901   74.7318  222.7763 H   0  0  0  0  0  0  0  0  0  0  0  0
  138.9642   76.1254  223.6737 H   0  0  0  0  0  0  0  0  0  0  0  0
  136.8395   75.0762  223.0668 H   0  0  0  0  0  0  0  0  0  0  0  0
  138.2800   74.2870  220.8330 H   0  0  0  0  0  0  0  0  0  0  0  0
  136.6016   76.4202  220.5887 H   0  0  0  0  0  0  0  0  0  0  0  0
  136.2492   77.1333  222.1623 H   0  0  0  0  0  0  0  0  0  0  0  0
  138.4358   78.0766  220.5262 H   0  0  0  0  0  0  0  0  0  0  0  0
  138.0514   79.4471  222.2745 H   0  0  0  0  0  0  0  0  0  0  0  0
  137.4411   78.0959  223.3035 H   0  0  0  0  0  0  0  0  0  0  0  0
  141.8381   77.5842  222.9549 H   0  0  0  0  0  0  0  0  0  0  0  0
  143.8859   78.9203  222.9402 H   0  0  0  0  0  0  0  0  0  0  0  0
  143.8060   81.3820  223.3123 H   0  0  0  0  0  0  0  0  0  0  0  0
  141.5933   82.4383  223.6995 H   0  0  0  0  0  0  0  0  0  0  0  0
  139.5369   81.1058  223.7156 H   0  0  0  0  0  0  0  0  0  0  0  0
  138.6718   70.6362  221.5393 H   0  0  0  0  0  0  0  0  0  0  0  0
  138.4814   69.1750  223.5207 H   0  0  0  0  0  0  0  0  0  0  0  0
  138.9730   68.6030  225.7262 H   0  0  0  0  0  0  0  0  0  0  0  0
  141.5630   71.1218  228.0682 H   0  0  0  0  0  0  0  0  0  0  0  0
  141.8314   72.6782  226.1274 H   0  0  0  0  0  0  0  0  0  0  0  0
  1  2  2  0
  2  3  1  0
  3  4  1  0
  4  5  1  0
  5  6  2  0
  5  7  1  0
  7  8  1  0
  8  9  1  0
  9 10  1  0
  9 11  1  0
 11 12  1  0
 12 13  1  0
 13 14  1  0
 14 15  1  0
 15 16  2  0
 16 17  1  0
 17 18  2  0
 18 19  1  0
 19 20  2  0
  2 21  1  0
 21 22  2  0
 22 23  1  0
 23 24  2  0
 24 25  1  0
 25 26  2  0
 26 27  1  0
 26 28  1  0
 28 29  2  0
 29 30  1  0
 30 31  2  0
 12  7  1  0
 20 15  1  0
 31 21  1  0
 30 24  1  0
  3 32  1  0
  4 33  1  0
  4 34  1  0
  8 35  1  0
  8 36  1  0
  9 37  1  1
 10 38  1  0
 11 39  1  0
 11 40  1  0
 12 41  1  6
 13 42  1  0
 13 43  1  0
 16 44  1  0
 17 45  1  0
 18 46  1  0
 19 47  1  0
 20 48  1  0
 22 49  1  0
 23 50  1  0
 25 51  1  0
 28 52  1  0
 29 53  1  0
M  END
>  <smiles>  (33) 
O=C(NCC(=O)N1C[C@H](O)C[C@H]1COc1ccccc1)c1ccc2cc(Cl)ccc2n1

>  <score_type>  (33) 
oracle

>  <origin>  (33) 
autodockgpu

>  <m_score__min__energy>  (33) 
-8.2599999999999998

>  <m_primary>  (33) 
energy

>  <rmsd>  (33) 
3.2554333773229134

>  <m_score__min__rmsd>  (33) 
3.2554333773229134

>  <meeko>  (33) 
{"free_energy": -7.04, "intermolecular_energy": -9.43, "internal_energy": -2.77, "cluster_size": 20, "cluster_id": 3, "rank_in_cluster": 13}

>  <energy>  (33) 
-7.99

>  <cluster_rmsd>  (33) 
0.0

>  <cluster>  (33) 
4

$$$$

     RDKit          3D

 53 56  0  0  0  0  0  0  0  0999 V2000
  134.7920   75.0630  222.4200 O   0  0  0  0  0  0  0  0  0  0  0  0
  136.0120   74.8550  222.5910 C   0  0  0  0  0  0  0  0  0  0  0  0
  136.5480   73.5460  222.7360 N   0  0  0  0  0  0  0  0  0  0  0  0
  135.6910   72.3540  222.6940 C   0  0  0  0  0  0  0  0  0  0  0  0
  136.4540   71.1780  222.2170 C   0  0  0  0  0  0  0  0  0  0  0  0
  136.0280   70.3710  221.3450 O   0  0  0  0  0  0  0  0  0  0  0  0
  137.7420   70.9140  222.7510 N   0  0  0  0  0  0  0  0  0  0  0  0
  138.4070   71.5290  223.8900 C   0  0  0  0  0  0  0  0  0  0  0  0
  139.7450   71.8780  223.2960 C   0  0  2  0  0  0  0  0  0  0  0  0
  139.7150   73.1080  222.6330 O   0  0  0  0  0  0  0  0  0  0  0  0
  140.0560   70.7460  222.3700 C   0  0  0  0  0  0  0  0  0  0  0  0
  138.7440   69.9410  222.2740 C   0  0  1  0  0  0  0  0  0  0  0  0
  138.9330   68.8050  223.2500 C   0  0  0  0  0  0  0  0  0  0  0  0
  139.9690   69.0800  224.1210 O   0  0  0  0  0  0  0  0  0  0  0  0
  140.0590   69.0770  225.4700 C   0  0  0  0  0  0  0  0  0  0  0  0
  140.4870   70.2630  226.0850 C   0  0  0  0  0  0  0  0  0  0  0  0
  140.6140   70.3790  227.4480 C   0  0  0  0  0  0  0  0  0  0  0  0
  140.3230   69.3210  228.2820 C   0  0  0  0  0  0  0  0  0  0  0  0
  139.9020   68.1520  227.6950 C   0  0  0  0  0  0  0  0  0  0  0  0
  139.7750   68.0380  226.3230 C   0  0  0  0  0  0  0  0  0  0  0  0
  136.9560   75.9900  222.6470 C   0  0  0  0  0  0  0  0  0  0  0  0
  136.4230   77.2840  222.7210 C   0  0  0  0  0  0  0  0  0  0  0  0
  137.3260   78.3050  222.7700 C   0  0  0  0  0  0  0  0  0  0  0  0
  138.6710   78.1060  222.7510 C   0  0  0  0  0  0  0  0  0  0  0  0
  139.5180   79.1890  222.8060 C   0  0  0  0  0  0  0  0  0  0  0  0
  140.8800   78.9880  222.7870 C   0  0  0  0  0  0  0  0  0  0  0  0
  141.9550   80.3880  222.8550 Cl  0  0  0  0  0  0  0  0  0  0  0  0
  141.4050   77.7010  222.7130 C   0  0  0  0  0  0  0  0  0  0  0  0
  140.5580   76.6000  222.6580 C   0  0  0  0  0  0  0  0  0  0  0  0
  139.1760   76.8250  222.6790 C   0  0  0  0  0  0  0  0  0  0  0  0
  138.2860   75.8210  222.6290 N   0  0  0  0  0  0  0  0  0  0  0  0
  137.5980   73.4520  222.8790 H   0  0  0  0  0  0  0  0  0  0  0  0
  135.3067   72.1497  223.7042 H   0  0  0  0  0  0  0  0  0  0  0  0
  134.8584   72.5410  221.9998 H   0  0  0  0  0  0  0  0  0  0  0  0
  137.8717   72.4269  224.2324 H   0  0  0  0  0  0  0  0  0  0  0  0
  138.4631   70.8858  224.7806 H   0  0  0  0  0  0  0  0  0  0  0  0
  140.5201   71.9982  224.0672 H   0  0  0  0  0  0  0  0  0  0  0  0
  139.0290   73.6580  223.0840 H   0  0  0  0  0  0  0  0  0  0  0  0
  140.3509   71.1252  221.3804 H   0  0  0  0  0  0  0  0  0  0  0  0
  140.8934   70.1319  222.7328 H   0  0  0  0  0  0  0  0  0  0  0  0
  138.4615   69.5332  221.2922 H   0  0  0  0  0  0  0  0  0  0  0  0
  138.0056   68.6638  223.8244 H   0  0  0  0  0  0  0  0  0  0  0  0
  139.1753   67.8910  222.6879 H   0  0  0  0  0  0  0  0  0  0  0  0
  140.7294   71.1306  225.4537 H   0  0  0  0  0  0  0  0  0  0  0  0
  140.9534   71.3317  227.8807 H   0  0  0  0  0  0  0  0  0  0  0  0
  140.4237   69.4088  229.3738 H   0  0  0  0  0  0  0  0  0  0  0  0
  139.6606   67.2876  228.3310 H   0  0  0  0  0  0  0  0  0  0  0  0
  139.4345   67.0817  225.8993 H   0  0  0  0  0  0  0  0  0  0  0  0
  135.3383   77.4659  222.7385 H   0  0  0  0  0  0  0  0  0  0  0  0
  136.9489   79.3367  222.8275 H   0  0  0  0  0  0  0  0  0  0  0  0
  139.1097   80.2087  222.8648 H   0  0  0  0  0  0  0  0  0  0  0  0
  142.4951   77.5544  222.6980 H   0  0  0  0  0  0  0  0  0  0  0  0
  140.9628   75.5789  222.5995 H   0  0  0  0  0  0  0  0  0  0  0  0
  1  2  2  0
  2  3  1  0
  3  4  1  0
  4  5  1  0
  5  6  2  0
  5  7  1  0
  7  8  1  0
  8  9  1  0
  9 10  1  0
  9 11  1  0
 11 12  1  0
 12 13  1  0
 13 14  1  0
 14 15  1  0
 15 16  2  0
 16 17  1  0
 17 18  2  0
 18 19  1  0
 19 20  2  0
  2 21  1  0
 21 22  2  0
 22 23  1  0
 23 24  2  0
 24 25  1  0
 25 26  2  0
 26 27  1  0
 26 28  1  0
 28 29  2  0
 29 30  1  0
 30 31  2  0
 12  7  1  0
 20 15  1  0
 31 21  1  0
 30 24  1  0
  3 32  1  0
  4 33  1  0
  4 34  1  0
  8 35  1  0
  8 36  1  0
  9 37  1  1
 10 38  1  0
 11 39  1  0
 11 40  1  0
 12 41  1  6
 13 42  1  0
 13 43  1  0
 16 44  1  0
 17 45  1  0
 18 46  1  0
 19 47  1  0
 20 48  1  0
 22 49  1  0
 23 50  1  0
 25 51  1  0
 28 52  1  0
 29 53  1  0
M  END
>  <smiles>  (34) 
O=C(NCC(=O)N1C[C@H](O)C[C@H]1COc1ccccc1)c1ccc2cc(Cl)ccc2n1

>  <score_type>  (34) 
oracle

>  <origin>  (34) 
autodockgpu

>  <m_score__min__energy>  (34) 
-8.2599999999999998

>  <m_primary>  (34) 
energy

>  <rmsd>  (34) 
7.64645806969458

>  <m_score__min__rmsd>  (34) 
7.64645806969458

>  <meeko>  (34) 
{"free_energy": -7.04, "intermolecular_energy": -9.43, "internal_energy": -2.95, "cluster_size": 5, "cluster_id": 6, "rank_in_cluster": 5}

>  <energy>  (34) 
-7.74

>  <cluster_rmsd>  (34) 
0.15

>  <cluster>  (34) 
4

$$$$

     RDKit          3D

 53 56  0  0  0  0  0  0  0  0999 V2000
  139.2280   71.1470  221.1900 O   0  0  0  0  0  0  0  0  0  0  0  0
  138.8610   71.6370  222.2790 C   0  0  0  0  0  0  0  0  0  0  0  0
  137.8960   72.6770  222.3580 N   0  0  0  0  0  0  0  0  0  0  0  0
  137.2700   73.2410  221.1550 C   0  0  0  0  0  0  0  0  0  0  0  0
  137.4830   74.7050  221.0910 C   0  0  0  0  0  0  0  0  0  0  0  0
  136.5510   75.5540  221.1460 O   0  0  0  0  0  0  0  0  0  0  0  0
  138.8010   75.2160  220.9600 N   0  0  0  0  0  0  0  0  0  0  0  0
  139.9160   74.6940  220.1830 C   0  0  0  0  0  0  0  0  0  0  0  0
  141.0150   74.6950  221.2110 C   0  0  2  0  0  0  0  0  0  0  0  0
  140.9990   73.5360  221.9930 O   0  0  0  0  0  0  0  0  0  0  0  0
  140.7730   75.9260  222.0240 C   0  0  0  0  0  0  0  0  0  0  0  0
  139.3780   76.4190  221.5900 C   0  0  1  0  0  0  0  0  0  0  0  0
  139.6640   77.5020  220.5770 C   0  0  0  0  0  0  0  0  0  0  0  0
  139.8260   78.7220  221.2040 O   0  0  0  0  0  0  0  0  0  0  0  0
  140.8130   79.2350  221.9730 C   0  0  0  0  0  0  0  0  0  0  0  0
  140.8040   78.8980  223.3350 C   0  0  0  0  0  0  0  0  0  0  0  0
  141.7570   79.3580  224.2100 C   0  0  0  0  0  0  0  0  0  0  0  0
  142.7770   80.1820  223.7850 C   0  0  0  0  0  0  0  0  0  0  0  0
  142.7990   80.5200  222.4540 C   0  0  0  0  0  0  0  0  0  0  0  0
  141.8400   80.0570  221.5730 C   0  0  0  0  0  0  0  0  0  0  0  0
  139.4320   71.1350  223.5460 C   0  0  0  0  0  0  0  0  0  0  0  0
  140.3480   71.9510  224.2220 C   0  0  0  0  0  0  0  0  0  0  0  0
  140.8520   71.4540  225.3880 C   0  0  0  0  0  0  0  0  0  0  0  0
  140.5010   70.2390  225.8870 C   0  0  0  0  0  0  0  0  0  0  0  0
  141.0530   69.8070  227.0710 C   0  0  0  0  0  0  0  0  0  0  0  0
  140.6980   68.5760  227.5770 C   0  0  0  0  0  0  0  0  0  0  0  0
  141.4160   68.0340  229.0970 Cl  0  0  0  0  0  0  0  0  0  0  0  0
  139.7870   67.7690  226.9030 C   0  0  0  0  0  0  0  0  0  0  0  0
  139.2230   68.1960  225.7060 C   0  0  0  0  0  0  0  0  0  0  0  0
  139.5970   69.4500  225.2070 C   0  0  0  0  0  0  0  0  0  0  0  0
  139.1020   69.9410  224.0590 N   0  0  0  0  0  0  0  0  0  0  0  0
  137.6350   73.0410  223.3240 H   0  0  0  0  0  0  0  0  0  0  0  0
  137.7132   72.7724  220.2639 H   0  0  0  0  0  0  0  0  0  0  0  0
  136.1887   73.0424  221.1930 H   0  0  0  0  0  0  0  0  0  0  0  0
  139.7099   73.6783  219.8144 H   0  0  0  0  0  0  0  0  0  0  0  0
  140.1452   75.2738  219.2768 H   0  0  0  0  0  0  0  0  0  0  0  0
  142.0125   74.7018  220.7474 H   0  0  0  0  0  0  0  0  0  0  0  0
  140.5810   72.8280  221.4440 H   0  0  0  0  0  0  0  0  0  0  0  0
  140.7830   75.6888  223.0981 H   0  0  0  0  0  0  0  0  0  0  0  0
  141.5502   76.6878  221.8639 H   0  0  0  0  0  0  0  0  0  0  0  0
  138.7087   76.8169  222.3670 H   0  0  0  0  0  0  0  0  0  0  0  0
  140.5847   77.2514  220.0298 H   0  0  0  0  0  0  0  0  0  0  0  0
  138.8150   77.5704  219.8809 H   0  0  0  0  0  0  0  0  0  0  0  0
  140.0062   78.2429  223.7148 H   0  0  0  0  0  0  0  0  0  0  0  0
  141.7056   79.0638  225.2687 H   0  0  0  0  0  0  0  0  0  0  0  0
  143.5417   80.5535  224.4830 H   0  0  0  0  0  0  0  0  0  0  0  0
  143.5995   81.1752  222.0800 H   0  0  0  0  0  0  0  0  0  0  0  0
  141.9004   80.3562  220.5162 H   0  0  0  0  0  0  0  0  0  0  0  0
  140.6442   72.9369  223.8345 H   0  0  0  0  0  0  0  0  0  0  0  0
  141.5749   72.0637  225.9498 H   0  0  0  0  0  0  0  0  0  0  0  0
  141.7730   70.4404  227.6099 H   0  0  0  0  0  0  0  0  0  0  0  0
  139.5116   66.7886  227.3190 H   0  0  0  0  0  0  0  0  0  0  0  0
  138.5020   67.5654  225.1651 H   0  0  0  0  0  0  0  0  0  0  0  0
  1  2  2  0
  2  3  1  0
  3  4  1  0
  4  5  1  0
  5  6  2  0
  5  7  1  0
  7  8  1  0
  8  9  1  0
  9 10  1  0
  9 11  1  0
 11 12  1  0
 12 13  1  0
 13 14  1  0
 14 15  1  0
 15 16  2  0
 16 17  1  0
 17 18  2  0
 18 19  1  0
 19 20  2  0
  2 21  1  0
 21 22  2  0
 22 23  1  0
 23 24  2  0
 24 25  1  0
 25 26  2  0
 26 27  1  0
 26 28  1  0
 28 29  2  0
 29 30  1  0
 30 31  2  0
 12  7  1  0
 20 15  1  0
 31 21  1  0
 30 24  1  0
  3 32  1  0
  4 33  1  0
  4 34  1  0
  8 35  1  0
  8 36  1  0
  9 37  1  6
 10 38  1  0
 11 39  1  0
 11 40  1  0
 12 41  1  1
 13 42  1  0
 13 43  1  0
 16 44  1  0
 17 45  1  0
 18 46  1  0
 19 47  1  0
 20 48  1  0
 22 49  1  0
 23 50  1  0
 25 51  1  0
 28 52  1  0
 29 53  1  0
M  END
>  <smiles>  (35) 
O=C(NCC(=O)N1C[C@H](O)C[C@H]1COc1ccccc1)c1ccc2cc(Cl)ccc2n1

>  <score_type>  (35) 
oracle

>  <origin>  (35) 
autodockgpu

>  <m_score__min__energy>  (35) 
-8.2599999999999998

>  <m_primary>  (35) 
energy

>  <rmsd>  (35) 
3.017793458914805

>  <m_score__min__rmsd>  (35) 
3.017793458914805

>  <meeko>  (35) 
{"free_energy": -8.02, "intermolecular_energy": -10.41, "internal_energy": -2.16, "cluster_size": 10, "cluster_id": 2, "rank_in_cluster": 5}

>  <energy>  (35) 
-7.54

>  <cluster_rmsd>  (35) 
0.56

>  <cluster>  (35) 
4

$$$$

     RDKit          3D

 53 56  0  0  0  0  0  0  0  0999 V2000
  138.9730   71.7790  220.8910 O   0  0  0  0  0  0  0  0  0  0  0  0
  138.4600   71.9800  222.0120 C   0  0  0  0  0  0  0  0  0  0  0  0
  137.4960   73.0010  222.2350 N   0  0  0  0  0  0  0  0  0  0  0  0
  137.0450   73.8860  221.1520 C   0  0  0  0  0  0  0  0  0  0  0  0
  137.3410   75.3000  221.4740 C   0  0  0  0  0  0  0  0  0  0  0  0
  136.4720   76.1300  221.8580 O   0  0  0  0  0  0  0  0  0  0  0  0
  138.6710   75.7830  221.3550 N   0  0  0  0  0  0  0  0  0  0  0  0
  139.7250   75.3540  220.4480 C   0  0  0  0  0  0  0  0  0  0  0  0
  140.8710   75.1570  221.4040 C   0  0  2  0  0  0  0  0  0  0  0  0
  140.8450   73.8900  221.9940 O   0  0  0  0  0  0  0  0  0  0  0  0
  140.7180   76.2510  222.4110 C   0  0  0  0  0  0  0  0  0  0  0  0
  139.3250   76.8510  222.1340 C   0  0  1  0  0  0  0  0  0  0  0  0
  139.6070   78.0710  221.2890 C   0  0  0  0  0  0  0  0  0  0  0  0
  140.9160   78.4780  221.4460 O   0  0  0  0  0  0  0  0  0  0  0  0
  141.5090   79.3670  222.2760 C   0  0  0  0  0  0  0  0  0  0  0  0
  140.6790   80.3030  222.9100 C   0  0  0  0  0  0  0  0  0  0  0  0
  141.1680   81.2510  223.7750 C   0  0  0  0  0  0  0  0  0  0  0  0
  142.5140   81.3250  224.0630 C   0  0  0  0  0  0  0  0  0  0  0  0
  143.3400   80.4140  223.4500 C   0  0  0  0  0  0  0  0  0  0  0  0
  142.8460   79.4610  222.5800 C   0  0  0  0  0  0  0  0  0  0  0  0
  138.8470   71.1410  223.1650 C   0  0  0  0  0  0  0  0  0  0  0  0
  138.4320   69.8030  223.1710 C   0  0  0  0  0  0  0  0  0  0  0  0
  138.8090   69.0610  224.2520 C   0  0  0  0  0  0  0  0  0  0  0  0
  139.5450   69.5670  225.2770 C   0  0  0  0  0  0  0  0  0  0  0  0
  139.8870   68.7540  226.3330 C   0  0  0  0  0  0  0  0  0  0  0  0
  140.6320   69.2660  227.3710 C   0  0  0  0  0  0  0  0  0  0  0  0
  141.0620   68.2110  228.7210 Cl  0  0  0  0  0  0  0  0  0  0  0  0
  141.0420   70.5960  227.3610 C   0  0  0  0  0  0  0  0  0  0  0  0
  140.7020   71.4260  226.2990 C   0  0  0  0  0  0  0  0  0  0  0  0
  139.9440   70.8870  225.2530 C   0  0  0  0  0  0  0  0  0  0  0  0
  139.5720   71.6170  224.1880 N   0  0  0  0  0  0  0  0  0  0  0  0
  137.1050   73.1090  223.2190 H   0  0  0  0  0  0  0  0  0  0  0  0
  137.5637   73.6114  220.2217 H   0  0  0  0  0  0  0  0  0  0  0  0
  135.9577   73.7711  221.0311 H   0  0  0  0  0  0  0  0  0  0  0  0
  139.4604   74.4164  219.9372 H   0  0  0  0  0  0  0  0  0  0  0  0
  139.9342   76.0614  219.6321 H   0  0  0  0  0  0  0  0  0  0  0  0
  141.8451   75.2052  220.8953 H   0  0  0  0  0  0  0  0  0  0  0  0
  140.4260   73.2790  221.3400 H   0  0  0  0  0  0  0  0  0  0  0  0
  140.7694   75.8468  223.4328 H   0  0  0  0  0  0  0  0  0  0  0  0
  141.5168   77.0030  222.3310 H   0  0  0  0  0  0  0  0  0  0  0  0
  138.7095   77.1419  222.9980 H   0  0  0  0  0  0  0  0  0  0  0  0
  139.4285   77.8274  220.2313 H   0  0  0  0  0  0  0  0  0  0  0  0
  138.9412   78.8860  221.6092 H   0  0  0  0  0  0  0  0  0  0  0  0
  139.5982   80.2769  222.7073 H   0  0  0  0  0  0  0  0  0  0  0  0
  140.4741   81.9630  224.2458 H   0  0  0  0  0  0  0  0  0  0  0  0
  142.9106   82.0823  224.7552 H   0  0  0  0  0  0  0  0  0  0  0  0
  144.4200   80.4441  223.6567 H   0  0  0  0  0  0  0  0  0  0  0  0
  143.5473   78.7528  222.1145 H   0  0  0  0  0  0  0  0  0  0  0  0
  137.8363   69.3752  222.3512 H   0  0  0  0  0  0  0  0  0  0  0  0
  138.5036   68.0052  224.2963 H   0  0  0  0  0  0  0  0  0  0  0  0
  139.5671   67.7016  226.3476 H   0  0  0  0  0  0  0  0  0  0  0  0
  141.6375   70.9920  228.1968 H   0  0  0  0  0  0  0  0  0  0  0  0
  141.0203   72.4788  226.2811 H   0  0  0  0  0  0  0  0  0  0  0  0
  1  2  2  0
  2  3  1  0
  3  4  1  0
  4  5  1  0
  5  6  2  0
  5  7  1  0
  7  8  1  0
  8  9  1  0
  9 10  1  0
  9 11  1  0
 11 12  1  0
 12 13  1  0
 13 14  1  0
 14 15  1  0
 15 16  2  0
 16 17  1  0
 17 18  2  0
 18 19  1  0
 19 20  2  0
  2 21  1  0
 21 22  2  0
 22 23  1  0
 23 24  2  0
 24 25  1  0
 25 26  2  0
 26 27  1  0
 26 28  1  0
 28 29  2  0
 29 30  1  0
 30 31  2  0
 12  7  1  0
 20 15  1  0
 31 21  1  0
 30 24  1  0
  3 32  1  0
  4 33  1  0
  4 34  1  0
  8 35  1  0
  8 36  1  0
  9 37  1  6
 10 38  1  0
 11 39  1  0
 11 40  1  0
 12 41  1  1
 13 42  1  0
 13 43  1  0
 16 44  1  0
 17 45  1  0
 18 46  1  0
 19 47  1  0
 20 48  1  0
 22 49  1  0
 23 50  1  0
 25 51  1  0
 28 52  1  0
 29 53  1  0
M  END
>  <smiles>  (36) 
O=C(NCC(=O)N1C[C@H](O)C[C@H]1COc1ccccc1)c1ccc2cc(Cl)ccc2n1

>  <score_type>  (36) 
oracle

>  <origin>  (36) 
autodockgpu

>  <m_score__min__energy>  (36) 
-8.2599999999999998

>  <m_primary>  (36) 
energy

>  <rmsd>  (36) 
2.250705768243573

>  <m_score__min__rmsd>  (36) 
2.250705768243573

>  <meeko>  (36) 
{"free_energy": -8.13, "intermolecular_energy": -10.52, "internal_energy": -2.3, "cluster_size": 20, "cluster_id": 3, "rank_in_cluster": 1}

>  <energy>  (36) 
-7.24

>  <cluster_rmsd>  (36) 
1.66

>  <cluster>  (36) 
4

$$$$

     RDKit          3D

 53 56  0  0  0  0  0  0  0  0999 V2000
  136.9990   70.9730  221.1130 O   0  0  0  0  0  0  0  0  0  0  0  0
  137.6300   71.5960  221.9930 C   0  0  0  0  0  0  0  0  0  0  0  0
  137.8650   72.9960  221.9140 N   0  0  0  0  0  0  0  0  0  0  0  0
  137.3770   73.7970  220.7830 C   0  0  0  0  0  0  0  0  0  0  0  0
  138.3630   73.7960  219.6780 C   0  0  0  0  0  0  0  0  0  0  0  0
  138.0520   73.6950  218.4590 O   0  0  0  0  0  0  0  0  0  0  0  0
  139.7460   73.9160  219.9720 N   0  0  0  0  0  0  0  0  0  0  0  0
  140.7030   72.8770  220.3230 C   0  0  0  0  0  0  0  0  0  0  0  0
  141.3400   73.4690  221.5510 C   0  0  2  0  0  0  0  0  0  0  0  0
  140.6010   73.1960  222.7050 O   0  0  0  0  0  0  0  0  0  0  0  0
  141.4220   74.9350  221.2690 C   0  0  0  0  0  0  0  0  0  0  0  0
  140.5680   75.1400  220.0010 C   0  0  1  0  0  0  0  0  0  0  0  0
  141.5750   75.1680  218.8750 C   0  0  0  0  0  0  0  0  0  0  0  0
  142.8590   75.2560  219.3740 O   0  0  0  0  0  0  0  0  0  0  0  0
  143.8390   74.3420  219.5530 C   0  0  0  0  0  0  0  0  0  0  0  0
  144.8180   74.6330  220.5150 C   0  0  0  0  0  0  0  0  0  0  0  0
  145.8590   73.7780  220.7850 C   0  0  0  0  0  0  0  0  0  0  0  0
  145.9900   72.5810  220.1130 C   0  0  0  0  0  0  0  0  0  0  0  0
  145.0380   72.2820  219.1680 C   0  0  0  0  0  0  0  0  0  0  0  0
  143.9920   73.1430  218.8980 C   0  0  0  0  0  0  0  0  0  0  0  0
  138.1590   70.8800  223.1720 C   0  0  0  0  0  0  0  0  0  0  0  0
  137.6910   69.5820  223.4160 C   0  0  0  0  0  0  0  0  0  0  0  0
  138.2030   68.9530  224.5130 C   0  0  0  0  0  0  0  0  0  0  0  0
  139.1170   69.5310  225.3370 C   0  0  0  0  0  0  0  0  0  0  0  0
  139.5880   68.8310  226.4240 C   0  0  0  0  0  0  0  0  0  0  0  0
  140.5130   69.4150  227.2600 C   0  0  0  0  0  0  0  0  0  0  0  0
  141.1070   68.5050  228.6530 Cl  0  0  0  0  0  0  0  0  0  0  0  0
  140.9760   70.7040  227.0130 C   0  0  0  0  0  0  0  0  0  0  0  0
  140.5080   71.4200  225.9180 C   0  0  0  0  0  0  0  0  0  0  0  0
  139.5660   70.8090  225.0800 C   0  0  0  0  0  0  0  0  0  0  0  0
  139.0610   71.4270  224.0000 N   0  0  0  0  0  0  0  0  0  0  0  0
  138.4100   73.4540  222.7050 H   0  0  0  0  0  0  0  0  0  0  0  0
  136.4290   73.3719  220.4217 H   0  0  0  0  0  0  0  0  0  0  0  0
  137.2258   74.8326  221.1217 H   0  0  0  0  0  0  0  0  0  0  0  0
  140.1999   71.9252  220.5489 H   0  0  0  0  0  0  0  0  0  0  0  0
  141.4137   72.6283  219.5211 H   0  0  0  0  0  0  0  0  0  0  0  0
  142.3317   73.0361  221.7486 H   0  0  0  0  0  0  0  0  0  0  0  0
  140.0070   72.4360  222.4900 H   0  0  0  0  0  0  0  0  0  0  0  0
  141.0132   75.5149  222.1096 H   0  0  0  0  0  0  0  0  0  0  0  0
  142.4592   75.2741  221.1307 H   0  0  0  0  0  0  0  0  0  0  0  0
  139.9369   76.0393  219.9466 H   0  0  0  0  0  0  0  0  0  0  0  0
  141.4799   74.2465  218.2819 H   0  0  0  0  0  0  0  0  0  0  0  0
  141.3782   76.0479  218.2448 H   0  0  0  0  0  0  0  0  0  0  0  0
  144.7497   75.5788  221.0725 H   0  0  0  0  0  0  0  0  0  0  0  0
  146.6002   74.0528  221.5499 H   0  0  0  0  0  0  0  0  0  0  0  0
  146.8223   71.8937  220.3246 H   0  0  0  0  0  0  0  0  0  0  0  0
  145.1106   71.3347  218.6135 H   0  0  0  0  0  0  0  0  0  0  0  0
  143.2555   72.8592  218.1318 H   0  0  0  0  0  0  0  0  0  0  0  0
  136.9526   69.0976  222.7602 H   0  0  0  0  0  0  0  0  0  0  0  0
  137.8611   67.9327  224.7410 H   0  0  0  0  0  0  0  0  0  0  0  0
  139.2277   67.8111  226.6238 H   0  0  0  0  0  0  0  0  0  0  0  0
  141.7162   71.1583  227.6881 H   0  0  0  0  0  0  0  0  0  0  0  0
  140.8675   72.4395  225.7145 H   0  0  0  0  0  0  0  0  0  0  0  0
  1  2  2  0
  2  3  1  0
  3  4  1  0
  4  5  1  0
  5  6  2  0
  5  7  1  0
  7  8  1  0
  8  9  1  0
  9 10  1  0
  9 11  1  0
 11 12  1  0
 12 13  1  0
 13 14  1  0
 14 15  1  0
 15 16  2  0
 16 17  1  0
 17 18  2  0
 18 19  1  0
 19 20  2  0
  2 21  1  0
 21 22  2  0
 22 23  1  0
 23 24  2  0
 24 25  1  0
 25 26  2  0
 26 27  1  0
 26 28  1  0
 28 29  2  0
 29 30  1  0
 30 31  2  0
 12  7  1  0
 20 15  1  0
 31 21  1  0
 30 24  1  0
  3 32  1  0
  4 33  1  0
  4 34  1  0
  8 35  1  0
  8 36  1  0
  9 37  1  1
 10 38  1  0
 11 39  1  0
 11 40  1  0
 12 41  1  1
 13 42  1  0
 13 43  1  0
 16 44  1  0
 17 45  1  0
 18 46  1  0
 19 47  1  0
 20 48  1  0
 22 49  1  0
 23 50  1  0
 25 51  1  0
 28 52  1  0
 29 53  1  0
M  END
>  <smiles>  (37) 
O=C(NCC(=O)N1C[C@H](O)C[C@H]1COc1ccccc1)c1ccc2cc(Cl)ccc2n1

>  <score_type>  (37) 
oracle

>  <origin>  (37) 
autodockgpu

>  <m_score__min__energy>  (37) 
-8.2599999999999998

>  <m_primary>  (37) 
energy

>  <rmsd>  (37) 
2.4477681562411213

>  <m_score__min__rmsd>  (37) 
2.4477681562411213

>  <meeko>  (37) 
{"free_energy": -6.82, "intermolecular_energy": -9.2, "internal_energy": -3.35, "cluster_size": 6, "cluster_id": 4, "rank_in_cluster": 5}

>  <energy>  (37) 
-6.82

>  <cluster_rmsd>  (37) 
1.72

>  <cluster>  (37) 
4

$$$$

     RDKit          3D

 53 56  0  0  0  0  0  0  0  0999 V2000
  135.8690   71.8570  221.3400 O   0  0  0  0  0  0  0  0  0  0  0  0
  136.7720   72.3070  222.0780 C   0  0  0  0  0  0  0  0  0  0  0  0
  137.2140   73.6560  222.0020 N   0  0  0  0  0  0  0  0  0  0  0  0
  136.6310   74.6060  221.0430 C   0  0  0  0  0  0  0  0  0  0  0  0
  137.6310   75.0010  220.0250 C   0  0  0  0  0  0  0  0  0  0  0  0
  137.3620   75.1650  218.8030 O   0  0  0  0  0  0  0  0  0  0  0  0
  138.9790   75.2160  220.4120 N   0  0  0  0  0  0  0  0  0  0  0  0
  140.1410   74.3650  220.2060 C   0  0  0  0  0  0  0  0  0  0  0  0
  140.7240   74.3230  221.5930 C   0  0  2  0  0  0  0  0  0  0  0  0
  140.1240   73.3360  222.3810 O   0  0  0  0  0  0  0  0  0  0  0  0
  140.4990   75.6950  222.1410 C   0  0  0  0  0  0  0  0  0  0  0  0
  139.5460   76.3720  221.1340 C   0  0  1  0  0  0  0  0  0  0  0  0
  140.4570   77.1940  220.2540 C   0  0  0  0  0  0  0  0  0  0  0  0
  140.4890   78.5060  220.6810 O   0  0  0  0  0  0  0  0  0  0  0  0
  141.1940   79.1410  221.6440 C   0  0  0  0  0  0  0  0  0  0  0  0
  141.1510   78.5960  222.9350 C   0  0  0  0  0  0  0  0  0  0  0  0
  141.8300   79.1530  223.9910 C   0  0  0  0  0  0  0  0  0  0  0  0
  142.5940   80.2890  223.8260 C   0  0  0  0  0  0  0  0  0  0  0  0
  142.6470   80.8350  222.5670 C   0  0  0  0  0  0  0  0  0  0  0  0
  141.9630   80.2730  221.5050 C   0  0  0  0  0  0  0  0  0  0  0  0
  137.4190   71.4310  223.0760 C   0  0  0  0  0  0  0  0  0  0  0  0
  136.7590   70.2490  223.4370 C   0  0  0  0  0  0  0  0  0  0  0  0
  137.3880   69.4670  224.3610 C   0  0  0  0  0  0  0  0  0  0  0  0
  138.5860   69.7930  224.9140 C   0  0  0  0  0  0  0  0  0  0  0  0
  139.1580   68.9500  225.8390 C   0  0  0  0  0  0  0  0  0  0  0  0
  140.3720   69.2800  226.4000 C   0  0  0  0  0  0  0  0  0  0  0  0
  141.0920   68.1890  227.5890 Cl  0  0  0  0  0  0  0  0  0  0  0  0
  141.0230   70.4550  226.0380 C   0  0  0  0  0  0  0  0  0  0  0  0
  140.4550   71.3130  225.1040 C   0  0  0  0  0  0  0  0  0  0  0  0
  139.2200   70.9610  224.5460 C   0  0  0  0  0  0  0  0  0  0  0  0
  138.6000   71.7300  223.6370 N   0  0  0  0  0  0  0  0  0  0  0  0
  137.9870   73.9650  222.6650 H   0  0  0  0  0  0  0  0  0  0  0  0
  135.7732   74.1333  220.5423 H   0  0  0  0  0  0  0  0  0  0  0  0
  136.3066   75.5048  221.5879 H   0  0  0  0  0  0  0  0  0  0  0  0
  139.8497   73.3620  219.8609 H   0  0  0  0  0  0  0  0  0  0  0  0
  140.8362   74.7298  219.4355 H   0  0  0  0  0  0  0  0  0  0  0  0
  141.7915   74.0579  221.5834 H   0  0  0  0  0  0  0  0  0  0  0  0
  139.3900   73.7750  222.8770 H   0  0  0  0  0  0  0  0  0  0  0  0
  140.0360   75.6428  223.1374 H   0  0  0  0  0  0  0  0  0  0  0  0
  141.4394   76.2528  222.2612 H   0  0  0  0  0  0  0  0  0  0  0  0
  138.7493   77.0170  221.5331 H   0  0  0  0  0  0  0  0  0  0  0  0
  141.4735   76.7755  220.2946 H   0  0  0  0  0  0  0  0  0  0  0  0
  140.0753   77.1654  219.2227 H   0  0  0  0  0  0  0  0  0  0  0  0
  140.5520   77.6898  223.1084 H   0  0  0  0  0  0  0  0  0  0  0  0
  141.7633   78.6853  224.9844 H   0  0  0  0  0  0  0  0  0  0  0  0
  143.1389   80.7396  224.6686 H   0  0  0  0  0  0  0  0  0  0  0  0
  143.2479   81.7410  222.3995 H   0  0  0  0  0  0  0  0  0  0  0  0
  142.0362   80.7473  220.5152 H   0  0  0  0  0  0  0  0  0  0  0  0
  135.7893   69.9677  223.0004 H   0  0  0  0  0  0  0  0  0  0  0  0
  136.9036   68.5299  224.6727 H   0  0  0  0  0  0  0  0  0  0  0  0
  138.6492   68.0187  226.1285 H   0  0  0  0  0  0  0  0  0  0  0  0
  141.9923   70.7062  226.4934 H   0  0  0  0  0  0  0  0  0  0  0  0
  140.9622   72.2440  224.8108 H   0  0  0  0  0  0  0  0  0  0  0  0
  1  2  2  0
  2  3  1  0
  3  4  1  0
  4  5  1  0
  5  6  2  0
  5  7  1  0
  7  8  1  0
  8  9  1  0
  9 10  1  0
  9 11  1  0
 11 12  1  0
 12 13  1  0
 13 14  1  0
 14 15  1  0
 15 16  2  0
 16 17  1  0
 17 18  2  0
 18 19  1  0
 19 20  2  0
  2 21  1  0
 21 22  2  0
 22 23  1  0
 23 24  2  0
 24 25  1  0
 25 26  2  0
 26 27  1  0
 26 28  1  0
 28 29  2  0
 29 30  1  0
 30 31  2  0
 12  7  1  0
 20 15  1  0
 31 21  1  0
 30 24  1  0
  3 32  1  0
  4 33  1  0
  4 34  1  0
  8 35  1  0
  8 36  1  0
  9 37  1  6
 10 38  1  0
 11 39  1  0
 11 40  1  0
 12 41  1  1
 13 42  1  0
 13 43  1  0
 16 44  1  0
 17 45  1  0
 18 46  1  0
 19 47  1  0
 20 48  1  0
 22 49  1  0
 23 50  1  0
 25 51  1  0
 28 52  1  0
 29 53  1  0
M  END
>  <smiles>  (38) 
O=C(NCC(=O)N1C[C@H](O)C[C@H]1COc1ccccc1)c1ccc2cc(Cl)ccc2n1

>  <score_type>  (38) 
oracle

>  <origin>  (38) 
autodockgpu

>  <m_score__min__energy>  (38) 
-8.2599999999999998

>  <m_primary>  (38) 
energy

>  <rmsd>  (38) 
2.6677643943495917

>  <m_score__min__rmsd>  (38) 
2.6677643943495917

>  <meeko>  (38) 
{"free_energy": -7.5, "intermolecular_energy": -9.89, "internal_energy": -2.73, "cluster_size": 20, "cluster_id": 3, "rank_in_cluster": 4}

>  <energy>  (38) 
-6.31

>  <cluster_rmsd>  (38) 
1.82

>  <cluster>  (38) 
4

$$$$

     RDKit          3D

 53 56  0  0  0  0  0  0  0  0999 V2000
  135.7250   72.0970  221.6060 O   0  0  0  0  0  0  0  0  0  0  0  0
  136.9650   72.0730  221.7510 C   0  0  0  0  0  0  0  0  0  0  0  0
  137.8510   72.7070  220.8370 N   0  0  0  0  0  0  0  0  0  0  0  0
  137.3540   73.4310  219.6590 C   0  0  0  0  0  0  0  0  0  0  0  0
  137.2700   74.8830  219.9340 C   0  0  0  0  0  0  0  0  0  0  0  0
  136.3020   75.6110  219.5800 O   0  0  0  0  0  0  0  0  0  0  0  0
  138.3240   75.5260  220.6340 N   0  0  0  0  0  0  0  0  0  0  0  0
  139.7620   75.3430  220.5000 C   0  0  0  0  0  0  0  0  0  0  0  0
  140.1690   75.1540  221.9360 C   0  0  2  0  0  0  0  0  0  0  0  0
  140.0250   73.8260  222.3480 O   0  0  0  0  0  0  0  0  0  0  0  0
  139.2850   76.0820  222.7070 C   0  0  0  0  0  0  0  0  0  0  0  0
  138.2230   76.5500  221.6910 C   0  0  1  0  0  0  0  0  0  0  0  0
  138.7260   77.8950  221.2210 C   0  0  0  0  0  0  0  0  0  0  0  0
  139.0750   78.6860  222.2970 O   0  0  0  0  0  0  0  0  0  0  0  0
  140.2130   79.3370  222.6270 C   0  0  0  0  0  0  0  0  0  0  0  0
  140.5460   80.4700  221.8690 C   0  0  0  0  0  0  0  0  0  0  0  0
  141.6750   81.2120  222.1150 C   0  0  0  0  0  0  0  0  0  0  0  0
  142.5430   80.8720  223.1300 C   0  0  0  0  0  0  0  0  0  0  0  0
  142.2310   79.7650  223.8810 C   0  0  0  0  0  0  0  0  0  0  0  0
  141.0940   79.0200  223.6330 C   0  0  0  0  0  0  0  0  0  0  0  0
  137.5620   71.3710  222.9060 C   0  0  0  0  0  0  0  0  0  0  0  0
  136.8460   70.3070  223.4700 C   0  0  0  0  0  0  0  0  0  0  0  0
  137.4290   69.6850  224.5330 C   0  0  0  0  0  0  0  0  0  0  0  0
  138.6370   70.0550  225.0370 C   0  0  0  0  0  0  0  0  0  0  0  0
  139.1610   69.3770  226.1130 C   0  0  0  0  0  0  0  0  0  0  0  0
  140.3840   69.7510  226.6230 C   0  0  0  0  0  0  0  0  0  0  0  0
  141.0430   68.8720  228.0060 Cl  0  0  0  0  0  0  0  0  0  0  0  0
  141.0920   70.8080  226.0600 C   0  0  0  0  0  0  0  0  0  0  0  0
  140.5730   71.5010  224.9720 C   0  0  0  0  0  0  0  0  0  0  0  0
  139.3280   71.1050  224.4680 C   0  0  0  0  0  0  0  0  0  0  0  0
  138.7510   71.7170  223.4210 N   0  0  0  0  0  0  0  0  0  0  0  0
  138.8950   72.6420  221.0300 H   0  0  0  0  0  0  0  0  0  0  0  0
  138.0398   73.2623  218.8157 H   0  0  0  0  0  0  0  0  0  0  0  0
  136.3484   73.0589  219.4136 H   0  0  0  0  0  0  0  0  0  0  0  0
  140.0006   74.4568  219.8936 H   0  0  0  0  0  0  0  0  0  0  0  0
  140.2764   76.1713  219.9908 H   0  0  0  0  0  0  0  0  0  0  0  0
  141.2339   75.3791  222.0953 H   0  0  0  0  0  0  0  0  0  0  0  0
  139.1980   73.7830  222.8880 H   0  0  0  0  0  0  0  0  0  0  0  0
  138.8108   75.5556  223.5484 H   0  0  0  0  0  0  0  0  0  0  0  0
  139.8446   76.9242  223.1402 H   0  0  0  0  0  0  0  0  0  0  0  0
  137.1856   76.6522  222.0421 H   0  0  0  0  0  0  0  0  0  0  0  0
  139.6075   77.7474  220.5798 H   0  0  0  0  0  0  0  0  0  0  0  0
  137.9252   78.3960  220.6574 H   0  0  0  0  0  0  0  0  0  0  0  0
  139.8792   80.7745  221.0489 H   0  0  0  0  0  0  0  0  0  0  0  0
  141.8901   82.0924  221.4916 H   0  0  0  0  0  0  0  0  0  0  0  0
  143.4488   81.4630  223.3306 H   0  0  0  0  0  0  0  0  0  0  0  0
  142.9021   79.4645  224.6991 H   0  0  0  0  0  0  0  0  0  0  0  0
  140.8867   78.1424  224.2629 H   0  0  0  0  0  0  0  0  0  0  0  0
  135.8683   69.9915  223.0769 H   0  0  0  0  0  0  0  0  0  0  0  0
  136.8984   68.8451  225.0052 H   0  0  0  0  0  0  0  0  0  0  0  0
  138.6061   68.5408  226.5635 H   0  0  0  0  0  0  0  0  0  0  0  0
  142.0676   71.0971  226.4778 H   0  0  0  0  0  0  0  0  0  0  0  0
  141.1255   72.3377  224.5194 H   0  0  0  0  0  0  0  0  0  0  0  0
  1  2  2  0
  2  3  1  0
  3  4  1  0
  4  5  1  0
  5  6  2  0
  5  7  1  0
  7  8  1  0
  8  9  1  0
  9 10  1  0
  9 11  1  0
 11 12  1  0
 12 13  1  0
 13 14  1  0
 14 15  1  0
 15 16  2  0
 16 17  1  0
 17 18  2  0
 18 19  1  0
 19 20  2  0
  2 21  1  0
 21 22  2  0
 22 23  1  0
 23 24  2  0
 24 25  1  0
 25 26  2  0
 26 27  1  0
 26 28  1  0
 28 29  2  0
 29 30  1  0
 30 31  2  0
 12  7  1  0
 20 15  1  0
 31 21  1  0
 30 24  1  0
  3 32  1  0
  4 33  1  0
  4 34  1  0
  8 35  1  0
  8 36  1  0
  9 37  1  6
 10 38  1  0
 11 39  1  0
 11 40  1  0
 12 41  1  1
 13 42  1  0
 13 43  1  0
 16 44  1  0
 17 45  1  0
 18 46  1  0
 19 47  1  0
 20 48  1  0
 22 49  1  0
 23 50  1  0
 25 51  1  0
 28 52  1  0
 29 53  1  0
M  END
>  <smiles>  (39) 
O=C(NCC(=O)N1C[C@H](O)C[C@H]1COc1ccccc1)c1ccc2cc(Cl)ccc2n1

>  <score_type>  (39) 
oracle

>  <origin>  (39) 
autodockgpu

>  <m_score__min__energy>  (39) 
-8.2599999999999998

>  <m_primary>  (39) 
energy

>  <rmsd>  (39) 
2.933498840566566

>  <m_score__min__rmsd>  (39) 
2.933498840566566

>  <meeko>  (39) 
{"free_energy": -6.98, "intermolecular_energy": -9.36, "internal_energy": -3.21, "cluster_size": 20, "cluster_id": 3, "rank_in_cluster": 16}

>  <energy>  (39) 
-7.95

>  <cluster_rmsd>  (39) 
0.0

>  <cluster>  (39) 
5

$$$$

     RDKit          3D

 53 56  0  0  0  0  0  0  0  0999 V2000
  135.6890   71.6790  221.4080 O   0  0  0  0  0  0  0  0  0  0  0  0
  136.5860   72.1480  222.1400 C   0  0  0  0  0  0  0  0  0  0  0  0
  136.9870   73.5100  222.0730 N   0  0  0  0  0  0  0  0  0  0  0  0
  136.3660   74.4520  221.1310 C   0  0  0  0  0  0  0  0  0  0  0  0
  137.0320   75.7720  221.1950 C   0  0  0  0  0  0  0  0  0  0  0  0
  136.4140   76.8670  221.2980 O   0  0  0  0  0  0  0  0  0  0  0  0
  138.4490   75.8460  221.1380 N   0  0  0  0  0  0  0  0  0  0  0  0
  139.3900   74.9450  220.4880 C   0  0  0  0  0  0  0  0  0  0  0  0
  140.3750   74.7000  221.5990 C   0  0  2  0  0  0  0  0  0  0  0  0
  139.9570   73.6720  222.4490 O   0  0  0  0  0  0  0  0  0  0  0  0
  140.4800   76.0110  222.3100 C   0  0  0  0  0  0  0  0  0  0  0  0
  139.3320   76.8660  221.7350 C   0  0  1  0  0  0  0  0  0  0  0  0
  139.9970   77.7200  220.6820 C   0  0  0  0  0  0  0  0  0  0  0  0
  141.1800   78.2460  221.1600 O   0  0  0  0  0  0  0  0  0  0  0  0
  141.4610   79.3140  221.9410 C   0  0  0  0  0  0  0  0  0  0  0  0
  142.1670   79.0700  223.1290 C   0  0  0  0  0  0  0  0  0  0  0  0
  142.5100   80.0760  223.9980 C   0  0  0  0  0  0  0  0  0  0  0  0
  142.1720   81.3870  223.7390 C   0  0  0  0  0  0  0  0  0  0  0  0
  141.4810   81.6420  222.5790 C   0  0  0  0  0  0  0  0  0  0  0  0
  141.1370   80.6290  221.7050 C   0  0  0  0  0  0  0  0  0  0  0  0
  137.2700   71.2810  223.1210 C   0  0  0  0  0  0  0  0  0  0  0  0
  136.7000   70.0330  223.4050 C   0  0  0  0  0  0  0  0  0  0  0  0
  137.3600   69.2620  224.3150 C   0  0  0  0  0  0  0  0  0  0  0  0
  138.5080   69.6580  224.9270 C   0  0  0  0  0  0  0  0  0  0  0  0
  139.1170   68.8220  225.8340 C   0  0  0  0  0  0  0  0  0  0  0  0
  140.2800   69.2220  226.4530 C   0  0  0  0  0  0  0  0  0  0  0  0
  141.0490   68.1390  227.6180 Cl  0  0  0  0  0  0  0  0  0  0  0  0
  140.8430   70.4620  226.1680 C   0  0  0  0  0  0  0  0  0  0  0  0
  140.2370   71.3150  225.2530 C   0  0  0  0  0  0  0  0  0  0  0  0
  139.0550   70.8900  224.6340 C   0  0  0  0  0  0  0  0  0  0  0  0
  138.4030   71.6480  223.7380 N   0  0  0  0  0  0  0  0  0  0  0  0
  137.7590   73.8340  222.7310 H   0  0  0  0  0  0  0  0  0  0  0  0
  136.4541   74.0523  220.1100 H   0  0  0  0  0  0  0  0  0  0  0  0
  135.3073   74.5768  221.4022 H   0  0  0  0  0  0  0  0  0  0  0  0
  138.9010   74.0124  220.1699 H   0  0  0  0  0  0  0  0  0  0  0  0
  139.8384   75.3476  219.5677 H   0  0  0  0  0  0  0  0  0  0  0  0
  141.3505   74.3640  221.2176 H   0  0  0  0  0  0  0  0  0  0  0  0
  139.1250   73.9810  222.8830 H   0  0  0  0  0  0  0  0  0  0  0  0
  140.3555   75.8745  223.3944 H   0  0  0  0  0  0  0  0  0  0  0  0
  141.4623   76.4841  222.1644 H   0  0  0  0  0  0  0  0  0  0  0  0
  138.7746   77.5128  222.4285 H   0  0  0  0  0  0  0  0  0  0  0  0
  140.2074   77.1031  219.7959 H   0  0  0  0  0  0  0  0  0  0  0  0
  139.3219   78.5473  220.4176 H   0  0  0  0  0  0  0  0  0  0  0  0
  142.4556   78.0368  223.3724 H   0  0  0  0  0  0  0  0  0  0  0  0
  143.0639   79.8317  224.9164 H   0  0  0  0  0  0  0  0  0  0  0  0
  142.4443   82.1961  224.4327 H   0  0  0  0  0  0  0  0  0  0  0  0
  141.1950   82.6771  222.3407 H   0  0  0  0  0  0  0  0  0  0  0  0
  140.5846   80.8834  220.7884 H   0  0  0  0  0  0  0  0  0  0  0  0
  135.7721   69.6944  222.9209 H   0  0  0  0  0  0  0  0  0  0  0  0
  136.9451   68.2746  224.5657 H   0  0  0  0  0  0  0  0  0  0  0  0
  138.6775   67.8400  226.0633 H   0  0  0  0  0  0  0  0  0  0  0  0
  141.7727   70.7690  226.6695 H   0  0  0  0  0  0  0  0  0  0  0  0
  140.6742   72.2975  225.0214 H   0  0  0  0  0  0  0  0  0  0  0  0
  1  2  2  0
  2  3  1  0
  3  4  1  0
  4  5  1  0
  5  6  2  0
  5  7  1  0
  7  8  1  0
  8  9  1  0
  9 10  1  0
  9 11  1  0
 11 12  1  0
 12 13  1  0
 13 14  1  0
 14 15  1  0
 15 16  2  0
 16 17  1  0
 17 18  2  0
 18 19  1  0
 19 20  2  0
  2 21  1  0
 21 22  2  0
 22 23  1  0
 23 24  2  0
 24 25  1  0
 25 26  2  0
 26 27  1  0
 26 28  1  0
 28 29  2  0
 29 30  1  0
 30 31  2  0
 12  7  1  0
 20 15  1  0
 31 21  1  0
 30 24  1  0
  3 32  1  0
  4 33  1  0
  4 34  1  0
  8 35  1  0
  8 36  1  0
  9 37  1  6
 10 38  1  0
 11 39  1  0
 11 40  1  0
 12 41  1  1
 13 42  1  0
 13 43  1  0
 16 44  1  0
 17 45  1  0
 18 46  1  0
 19 47  1  0
 20 48  1  0
 22 49  1  0
 23 50  1  0
 25 51  1  0
 28 52  1  0
 29 53  1  0
M  END
>  <smiles>  (40) 
O=C(NCC(=O)N1C[C@H](O)C[C@H]1COc1ccccc1)c1ccc2cc(Cl)ccc2n1

>  <score_type>  (40) 
oracle

>  <origin>  (40) 
autodockgpu

>  <m_score__min__energy>  (40) 
-8.2599999999999998

>  <m_primary>  (40) 
energy

>  <rmsd>  (40) 
2.671388450855465

>  <m_score__min__rmsd>  (40) 
2.671388450855465

>  <meeko>  (40) 
{"free_energy": -7.84, "intermolecular_energy": -10.23, "internal_energy": -2.62, "cluster_size": 20, "cluster_id": 3, "rank_in_cluster": 2}

>  <energy>  (40) 
-7.88

>  <cluster_rmsd>  (40) 
0.0

>  <cluster>  (40) 
6

$$$$

     RDKit          3D

 53 56  0  0  0  0  0  0  0  0999 V2000
  138.3620   72.3080  221.2210 O   0  0  0  0  0  0  0  0  0  0  0  0
  139.3530   72.4230  221.9730 C   0  0  0  0  0  0  0  0  0  0  0  0
  140.3480   73.4180  221.7710 N   0  0  0  0  0  0  0  0  0  0  0  0
  140.2690   74.3730  220.6570 C   0  0  0  0  0  0  0  0  0  0  0  0
  141.5740   75.0400  220.4450 C   0  0  0  0  0  0  0  0  0  0  0  0
  142.6010   74.8110  221.1410 O   0  0  0  0  0  0  0  0  0  0  0  0
  141.7110   75.9970  219.4060 N   0  0  0  0  0  0  0  0  0  0  0  0
  141.4410   75.8530  217.9830 C   0  0  0  0  0  0  0  0  0  0  0  0
  142.7120   76.3980  217.3870 C   0  0  2  0  0  0  0  0  0  0  0  0
  143.7110   75.4230  217.3100 O   0  0  0  0  0  0  0  0  0  0  0  0
  143.0970   77.5300  218.2840 C   0  0  0  0  0  0  0  0  0  0  0  0
  142.1710   77.3950  219.5110 C   0  0  1  0  0  0  0  0  0  0  0  0
  141.0550   78.3760  219.2430 C   0  0  0  0  0  0  0  0  0  0  0  0
  140.6030   78.9310  220.4240 O   0  0  0  0  0  0  0  0  0  0  0  0
  141.2380   79.3700  221.5340 C   0  0  0  0  0  0  0  0  0  0  0  0
  141.1960   78.5430  222.6660 C   0  0  0  0  0  0  0  0  0  0  0  0
  141.8070   78.8840  223.8480 C   0  0  0  0  0  0  0  0  0  0  0  0
  142.4980   80.0700  223.9760 C   0  0  0  0  0  0  0  0  0  0  0  0
  142.5490   80.8900  222.8760 C   0  0  0  0  0  0  0  0  0  0  0  0
  141.9340   80.5460  221.6870 C   0  0  0  0  0  0  0  0  0  0  0  0
  139.5220   71.5100  223.1220 C   0  0  0  0  0  0  0  0  0  0  0  0
  139.0280   70.2050  223.0010 C   0  0  0  0  0  0  0  0  0  0  0  0
  139.2020   69.3920  224.0820 C   0  0  0  0  0  0  0  0  0  0  0  0
  139.8180   69.8010  225.2240 C   0  0  0  0  0  0  0  0  0  0  0  0
  139.9580   68.9220  226.2720 C   0  0  0  0  0  0  0  0  0  0  0  0
  140.5820   69.3350  227.4280 C   0  0  0  0  0  0  0  0  0  0  0  0
  140.7520   68.1950  228.7670 Cl  0  0  0  0  0  0  0  0  0  0  0  0
  141.0710   70.6320  227.5430 C   0  0  0  0  0  0  0  0  0  0  0  0
  140.9370   71.5300  226.4900 C   0  0  0  0  0  0  0  0  0  0  0  0
  140.2990   71.0900  225.3230 C   0  0  0  0  0  0  0  0  0  0  0  0
  140.1250   71.8890  224.2580 N   0  0  0  0  0  0  0  0  0  0  0  0
  141.1630   73.4530  222.4550 H   0  0  0  0  0  0  0  0  0  0  0  0
  139.9852   73.8355  219.7402 H   0  0  0  0  0  0  0  0  0  0  0  0
  139.5166   75.1378  220.8998 H   0  0  0  0  0  0  0  0  0  0  0  0
  141.2857   74.7996  217.7068 H   0  0  0  0  0  0  0  0  0  0  0  0
  140.5279   76.3636  217.6430 H   0  0  0  0  0  0  0  0  0  0  0  0
  142.5706   76.7314  216.3483 H   0  0  0  0  0  0  0  0  0  0  0  0
  144.4770   75.7580  217.8370 H   0  0  0  0  0  0  0  0  0  0  0  0
  144.1519   77.4450  218.5838 H   0  0  0  0  0  0  0  0  0  0  0  0
  142.9896   78.5064  217.7889 H   0  0  0  0  0  0  0  0  0  0  0  0
  142.5999   77.5950  220.5040 H   0  0  0  0  0  0  0  0  0  0  0  0
  141.4268   79.1763  218.5863 H   0  0  0  0  0  0  0  0  0  0  0  0
  140.2227   77.8436  218.7594 H   0  0  0  0  0  0  0  0  0  0  0  0
  140.6545   77.5874  222.6051 H   0  0  0  0  0  0  0  0  0  0  0  0
  141.7439   78.1994  224.7067 H   0  0  0  0  0  0  0  0  0  0  0  0
  142.9884   80.3479  224.9206 H   0  0  0  0  0  0  0  0  0  0  0  0
  143.0925   81.8440  222.9426 H   0  0  0  0  0  0  0  0  0  0  0  0
  142.0037   81.2367  220.8337 H   0  0  0  0  0  0  0  0  0  0  0  0
  138.5279   69.8556  222.0857 H   0  0  0  0  0  0  0  0  0  0  0  0
  138.8275   68.3591  224.0282 H   0  0  0  0  0  0  0  0  0  0  0  0
  139.5737   67.8948  226.1875 H   0  0  0  0  0  0  0  0  0  0  0  0
  141.5666   70.9491  228.4724 H   0  0  0  0  0  0  0  0  0  0  0  0
  141.3213   72.5575  226.5710 H   0  0  0  0  0  0  0  0  0  0  0  0
  1  2  2  0
  2  3  1  0
  3  4  1  0
  4  5  1  0
  5  6  2  0
  5  7  1  0
  7  8  1  0
  8  9  1  0
  9 10  1  0
  9 11  1  0
 11 12  1  0
 12 13  1  0
 13 14  1  0
 14 15  1  0
 15 16  2  0
 16 17  1  0
 17 18  2  0
 18 19  1  0
 19 20  2  0
  2 21  1  0
 21 22  2  0
 22 23  1  0
 23 24  2  0
 24 25  1  0
 25 26  2  0
 26 27  1  0
 26 28  1  0
 28 29  2  0
 29 30  1  0
 30 31  2  0
 12  7  1  0
 20 15  1  0
 31 21  1  0
 30 24  1  0
  3 32  1  0
  4 33  1  0
  4 34  1  0
  8 35  1  0
  8 36  1  0
  9 37  1  6
 10 38  1  0
 11 39  1  0
 11 40  1  0
 12 41  1  1
 13 42  1  0
 13 43  1  0
 16 44  1  0
 17 45  1  0
 18 46  1  0
 19 47  1  0
 20 48  1  0
 22 49  1  0
 23 50  1  0
 25 51  1  0
 28 52  1  0
 29 53  1  0
M  END
>  <smiles>  (41) 
O=C(NCC(=O)N1C[C@H](O)C[C@H]1COc1ccccc1)c1ccc2cc(Cl)ccc2n1

>  <score_type>  (41) 
oracle

>  <origin>  (41) 
autodockgpu

>  <m_score__min__energy>  (41) 
-8.2599999999999998

>  <m_primary>  (41) 
energy

>  <rmsd>  (41) 
1.7954929589721595

>  <m_score__min__rmsd>  (41) 
1.7954929589721595

>  <meeko>  (41) 
{"free_energy": -7.86, "intermolecular_energy": -10.25, "internal_energy": -1.95, "cluster_size": 10, "cluster_id": 2, "rank_in_cluster": 7}

>  <energy>  (41) 
-7.34

>  <cluster_rmsd>  (41) 
1.74

>  <cluster>  (41) 
6

$$$$

     RDKit          3D

 53 56  0  0  0  0  0  0  0  0999 V2000
  138.3250   72.5240  221.7910 O   0  0  0  0  0  0  0  0  0  0  0  0
  139.4630   72.3970  222.2900 C   0  0  0  0  0  0  0  0  0  0  0  0
  140.5900   73.1170  221.8080 N   0  0  0  0  0  0  0  0  0  0  0  0
  140.4810   74.0580  220.6850 C   0  0  0  0  0  0  0  0  0  0  0  0
  141.8160   74.5660  220.2960 C   0  0  0  0  0  0  0  0  0  0  0  0
  142.9020   74.0960  220.7350 O   0  0  0  0  0  0  0  0  0  0  0  0
  141.9160   75.6440  219.3780 N   0  0  0  0  0  0  0  0  0  0  0  0
  141.6800   75.6520  217.9420 C   0  0  0  0  0  0  0  0  0  0  0  0
  142.9270   76.3310  217.4440 C   0  0  2  0  0  0  0  0  0  0  0  0
  143.9820   75.4290  217.2790 O   0  0  0  0  0  0  0  0  0  0  0  0
  143.2300   77.3710  218.4740 C   0  0  0  0  0  0  0  0  0  0  0  0
  142.2930   77.0430  219.6540 C   0  0  1  0  0  0  0  0  0  0  0  0
  141.1260   77.9860  219.4750 C   0  0  0  0  0  0  0  0  0  0  0  0
  140.6190   78.3690  220.7000 O   0  0  0  0  0  0  0  0  0  0  0  0
  141.1880   78.9160  221.7990 C   0  0  0  0  0  0  0  0  0  0  0  0
  141.8960   80.1140  221.6240 C   0  0  0  0  0  0  0  0  0  0  0  0
  142.5120   80.7610  222.6670 C   0  0  0  0  0  0  0  0  0  0  0  0
  142.4610   80.2560  223.9480 C   0  0  0  0  0  0  0  0  0  0  0  0
  141.7690   79.0840  224.1360 C   0  0  0  0  0  0  0  0  0  0  0  0
  141.1500   78.4340  223.0860 C   0  0  0  0  0  0  0  0  0  0  0  0
  139.6750   71.4750  223.4250 C   0  0  0  0  0  0  0  0  0  0  0  0
  139.3050   70.1340  223.2590 C   0  0  0  0  0  0  0  0  0  0  0  0
  139.5160   69.3130  224.3280 C   0  0  0  0  0  0  0  0  0  0  0  0
  140.0530   69.7480  225.4990 C   0  0  0  0  0  0  0  0  0  0  0  0
  140.2370   68.8590  226.5320 C   0  0  0  0  0  0  0  0  0  0  0  0
  140.7810   69.2970  227.7180 C   0  0  0  0  0  0  0  0  0  0  0  0
  141.0080   68.1440  229.0370 Cl  0  0  0  0  0  0  0  0  0  0  0  0
  141.1470   70.6300  227.8790 C   0  0  0  0  0  0  0  0  0  0  0  0
  140.9670   71.5370  226.8410 C   0  0  0  0  0  0  0  0  0  0  0  0
  140.4120   71.0720  225.6430 C   0  0  0  0  0  0  0  0  0  0  0  0
  140.2030   71.8780  224.5900 N   0  0  0  0  0  0  0  0  0  0  0  0
  141.5260   72.9540  222.2870 H   0  0  0  0  0  0  0  0  0  0  0  0
  140.0261   73.5435  219.8257 H   0  0  0  0  0  0  0  0  0  0  0  0
  139.8560   74.9082  220.9957 H   0  0  0  0  0  0  0  0  0  0  0  0
  141.5902   74.6310  217.5427 H   0  0  0  0  0  0  0  0  0  0  0  0
  140.7454   76.1479  217.6411 H   0  0  0  0  0  0  0  0  0  0  0  0
  142.7848   76.7739  216.4472 H   0  0  0  0  0  0  0  0  0  0  0  0
  144.7320   75.7650  217.8280 H   0  0  0  0  0  0  0  0  0  0  0  0
  144.2828   77.3109  218.7871 H   0  0  0  0  0  0  0  0  0  0  0  0
  143.0746   78.3908  218.0920 H   0  0  0  0  0  0  0  0  0  0  0  0
  142.6930   77.1493  220.6732 H   0  0  0  0  0  0  0  0  0  0  0  0
  141.4632   78.8789  218.9281 H   0  0  0  0  0  0  0  0  0  0  0  0
  140.3361   77.4696  218.9099 H   0  0  0  0  0  0  0  0  0  0  0  0
  141.9601   80.5505  220.6163 H   0  0  0  0  0  0  0  0  0  0  0  0
  143.0553   81.6983  222.4766 H   0  0  0  0  0  0  0  0  0  0  0  0
  142.9542   80.7702  224.7860 H   0  0  0  0  0  0  0  0  0  0  0  0
  141.7064   78.6533  225.1462 H   0  0  0  0  0  0  0  0  0  0  0  0
  140.6078   77.4982  223.2866 H   0  0  0  0  0  0  0  0  0  0  0  0
  138.8688   69.7638  222.3195 H   0  0  0  0  0  0  0  0  0  0  0  0
  139.2395   68.2521  224.2386 H   0  0  0  0  0  0  0  0  0  0  0  0
  139.9510   67.8037  226.4111 H   0  0  0  0  0  0  0  0  0  0  0  0
  141.5807   70.9674  228.8319 H   0  0  0  0  0  0  0  0  0  0  0  0
  141.2532   72.5926  226.9580 H   0  0  0  0  0  0  0  0  0  0  0  0
  1  2  2  0
  2  3  1  0
  3  4  1  0
  4  5  1  0
  5  6  2  0
  5  7  1  0
  7  8  1  0
  8  9  1  0
  9 10  1  0
  9 11  1  0
 11 12  1  0
 12 13  1  0
 13 14  1  0
 14 15  1  0
 15 16  2  0
 16 17  1  0
 17 18  2  0
 18 19  1  0
 19 20  2  0
  2 21  1  0
 21 22  2  0
 22 23  1  0
 23 24  2  0
 24 25  1  0
 25 26  2  0
 26 27  1  0
 26 28  1  0
 28 29  2  0
 29 30  1  0
 30 31  2  0
 12  7  1  0
 20 15  1  0
 31 21  1  0
 30 24  1  0
  3 32  1  0
  4 33  1  0
  4 34  1  0
  8 35  1  0
  8 36  1  0
  9 37  1  6
 10 38  1  0
 11 39  1  0
 11 40  1  0
 12 41  1  1
 13 42  1  0
 13 43  1  0
 16 44  1  0
 17 45  1  0
 18 46  1  0
 19 47  1  0
 20 48  1  0
 22 49  1  0
 23 50  1  0
 25 51  1  0
 28 52  1  0
 29 53  1  0
M  END
>  <smiles>  (42) 
O=C(NCC(=O)N1C[C@H](O)C[C@H]1COc1ccccc1)c1ccc2cc(Cl)ccc2n1

>  <score_type>  (42) 
oracle

>  <origin>  (42) 
autodockgpu

>  <m_score__min__energy>  (42) 
-8.2599999999999998

>  <m_primary>  (42) 
energy

>  <rmsd>  (42) 
1.9035357006657703

>  <m_score__min__rmsd>  (42) 
1.9035357006657703

>  <meeko>  (42) 
{"free_energy": -8.08, "intermolecular_energy": -10.47, "internal_energy": -1.75, "cluster_size": 10, "cluster_id": 2, "rank_in_cluster": 3}

>  <energy>  (42) 
-7.28

>  <cluster_rmsd>  (42) 
1.75

>  <cluster>  (42) 
6

$$$$

     RDKit          3D

 53 56  0  0  0  0  0  0  0  0999 V2000
  136.1220   71.9310  220.4870 O   0  0  0  0  0  0  0  0  0  0  0  0
  137.1990   72.2960  221.0040 C   0  0  0  0  0  0  0  0  0  0  0  0
  137.9930   73.3370  220.4510 N   0  0  0  0  0  0  0  0  0  0  0  0
  137.5900   74.0490  219.2310 C   0  0  0  0  0  0  0  0  0  0  0  0
  138.2070   75.3940  219.1810 C   0  0  0  0  0  0  0  0  0  0  0  0
  138.3230   76.0760  218.1260 O   0  0  0  0  0  0  0  0  0  0  0  0
  138.7080   75.9800  220.3730 N   0  0  0  0  0  0  0  0  0  0  0  0
  140.0820   76.0730  220.8440 C   0  0  0  0  0  0  0  0  0  0  0  0
  139.9430   75.5660  222.2540 C   0  0  2  0  0  0  0  0  0  0  0  0
  140.0030   74.1700  222.3140 O   0  0  0  0  0  0  0  0  0  0  0  0
  138.6240   76.0930  222.7200 C   0  0  0  0  0  0  0  0  0  0  0  0
  137.9490   76.6470  221.4490 C   0  0  1  0  0  0  0  0  0  0  0  0
  138.2250   78.1300  221.4960 C   0  0  0  0  0  0  0  0  0  0  0  0
  138.8730   78.4660  222.6680 O   0  0  0  0  0  0  0  0  0  0  0  0
  139.9690   79.2140  222.9300 C   0  0  0  0  0  0  0  0  0  0  0  0
  141.1850   78.5330  223.0930 C   0  0  0  0  0  0  0  0  0  0  0  0
  142.3620   79.1880  223.3580 C   0  0  0  0  0  0  0  0  0  0  0  0
  142.4030   80.5610  223.4780 C   0  0  0  0  0  0  0  0  0  0  0  0
  141.2200   81.2410  223.3210 C   0  0  0  0  0  0  0  0  0  0  0  0
  140.0360   80.5810  223.0530 C   0  0  0  0  0  0  0  0  0  0  0  0
  137.6890   71.6420  222.2340 C   0  0  0  0  0  0  0  0  0  0  0  0
  136.8340   70.7420  222.8840 C   0  0  0  0  0  0  0  0  0  0  0  0
  137.3220   70.1580  224.0170 C   0  0  0  0  0  0  0  0  0  0  0  0
  138.5630   70.4180  224.5070 C   0  0  0  0  0  0  0  0  0  0  0  0
  138.9850   69.7880  225.6550 C   0  0  0  0  0  0  0  0  0  0  0  0
  140.2420   70.0500  226.1520 C   0  0  0  0  0  0  0  0  0  0  0  0
  140.7680   69.2360  227.6290 Cl  0  0  0  0  0  0  0  0  0  0  0  0
  141.0870   70.9450  225.5040 C   0  0  0  0  0  0  0  0  0  0  0  0
  140.6730   71.5860  224.3420 C   0  0  0  0  0  0  0  0  0  0  0  0
  139.3910   71.3070  223.8530 C   0  0  0  0  0  0  0  0  0  0  0  0
  138.9090   71.8810  222.7390 N   0  0  0  0  0  0  0  0  0  0  0  0
  138.8980   73.5910  220.9500 H   0  0  0  0  0  0  0  0  0  0  0  0
  137.9127   73.4710  218.3525 H   0  0  0  0  0  0  0  0  0  0  0  0
  136.4958   74.1621  219.2331 H   0  0  0  0  0  0  0  0  0  0  0  0
  140.7552   75.4363  220.2513 H   0  0  0  0  0  0  0  0  0  0  0  0
  140.5182   77.0799  220.7674 H   0  0  0  0  0  0  0  0  0  0  0  0
  140.7678   75.9068  222.8970 H   0  0  0  0  0  0  0  0  0  0  0  0
  139.2310   73.8750  222.8570 H   0  0  0  0  0  0  0  0  0  0  0  0
  138.0185   75.2870  223.1602 H   0  0  0  0  0  0  0  0  0  0  0  0
  138.7360   76.8616  223.4989 H   0  0  0  0  0  0  0  0  0  0  0  0
  136.8679   76.4836  221.3286 H   0  0  0  0  0  0  0  0  0  0  0  0
  138.8582   78.4073  220.6403 H   0  0  0  0  0  0  0  0  0  0  0  0
  137.2681   78.6708  221.4518 H   0  0  0  0  0  0  0  0  0  0  0  0
  141.1955   77.4365  223.0054 H   0  0  0  0  0  0  0  0  0  0  0  0
  143.2887   78.6073  223.4767 H   0  0  0  0  0  0  0  0  0  0  0  0
  143.3439   81.0897  223.6906 H   0  0  0  0  0  0  0  0  0  0  0  0
  141.2150   82.3373  223.4108 H   0  0  0  0  0  0  0  0  0  0  0  0
  139.1149   81.1704  222.9339 H   0  0  0  0  0  0  0  0  0  0  0  0
  135.8266   70.5188  222.5028 H   0  0  0  0  0  0  0  0  0  0  0  0
  136.6824   69.4450  224.5578 H   0  0  0  0  0  0  0  0  0  0  0  0
  138.3221   69.0792  226.1727 H   0  0  0  0  0  0  0  0  0  0  0  0
  142.0880   71.1466  225.9132 H   0  0  0  0  0  0  0  0  0  0  0  0
  141.3348   72.2934  223.8207 H   0  0  0  0  0  0  0  0  0  0  0  0
  1  2  2  0
  2  3  1  0
  3  4  1  0
  4  5  1  0
  5  6  2  0
  5  7  1  0
  7  8  1  0
  8  9  1  0
  9 10  1  0
  9 11  1  0
 11 12  1  0
 12 13  1  0
 13 14  1  0
 14 15  1  0
 15 16  2  0
 16 17  1  0
 17 18  2  0
 18 19  1  0
 19 20  2  0
  2 21  1  0
 21 22  2  0
 22 23  1  0
 23 24  2  0
 24 25  1  0
 25 26  2  0
 26 27  1  0
 26 28  1  0
 28 29  2  0
 29 30  1  0
 30 31  2  0
 12  7  1  0
 20 15  1  0
 31 21  1  0
 30 24  1  0
  3 32  1  0
  4 33  1  0
  4 34  1  0
  8 35  1  0
  8 36  1  0
  9 37  1  1
 10 38  1  0
 11 39  1  0
 11 40  1  0
 12 41  1  1
 13 42  1  0
 13 43  1  0
 16 44  1  0
 17 45  1  0
 18 46  1  0
 19 47  1  0
 20 48  1  0
 22 49  1  0
 23 50  1  0
 25 51  1  0
 28 52  1  0
 29 53  1  0
M  END
>  <smiles>  (43) 
O=C(NCC(=O)N1C[C@H](O)C[C@H]1COc1ccccc1)c1ccc2cc(Cl)ccc2n1

>  <score_type>  (43) 
oracle

>  <origin>  (43) 
autodockgpu

>  <m_score__min__energy>  (43) 
-8.2599999999999998

>  <m_primary>  (43) 
energy

>  <rmsd>  (43) 
3.2318450938095604

>  <m_score__min__rmsd>  (43) 
3.2318450938095604

>  <meeko>  (43) 
{"free_energy": -6.74, "intermolecular_energy": -9.13, "internal_energy": -3.42, "cluster_size": 20, "cluster_id": 3, "rank_in_cluster": 20}

>  <energy>  (43) 
-7.08

>  <cluster_rmsd>  (43) 
1.85

>  <cluster>  (43) 
6

$$$$

     RDKit          3D

 53 56  0  0  0  0  0  0  0  0999 V2000
  138.9570   70.9960  221.1690 O   0  0  0  0  0  0  0  0  0  0  0  0
  138.7210   71.5870  222.2440 C   0  0  0  0  0  0  0  0  0  0  0  0
  137.8810   72.7320  222.3140 N   0  0  0  0  0  0  0  0  0  0  0  0
  137.2390   73.2910  221.1160 C   0  0  0  0  0  0  0  0  0  0  0  0
  137.8440   74.5940  220.7580 C   0  0  0  0  0  0  0  0  0  0  0  0
  137.1860   75.6640  220.6350 O   0  0  0  0  0  0  0  0  0  0  0  0
  139.2420   74.6790  220.5330 N   0  0  0  0  0  0  0  0  0  0  0  0
  139.9860   74.5000  219.2950 C   0  0  0  0  0  0  0  0  0  0  0  0
  141.0550   73.5350  219.7320 C   0  0  2  0  0  0  0  0  0  0  0  0
  140.6140   72.2090  219.6750 O   0  0  0  0  0  0  0  0  0  0  0  0
  141.3990   73.9540  221.1250 C   0  0  0  0  0  0  0  0  0  0  0  0
  140.3060   74.9710  221.5130 C   0  0  1  0  0  0  0  0  0  0  0  0
  140.9450   76.3170  221.2650 C   0  0  0  0  0  0  0  0  0  0  0  0
  140.9720   77.0620  222.4270 O   0  0  0  0  0  0  0  0  0  0  0  0
  141.4460   78.2950  222.7160 C   0  0  0  0  0  0  0  0  0  0  0  0
  141.6400   79.1750  221.6420 C   0  0  0  0  0  0  0  0  0  0  0  0
  142.1130   80.4530  221.8150 C   0  0  0  0  0  0  0  0  0  0  0  0
  142.4240   80.9320  223.0700 C   0  0  0  0  0  0  0  0  0  0  0  0
  142.2400   80.0820  224.1330 C   0  0  0  0  0  0  0  0  0  0  0  0
  141.7630   78.7970  223.9570 C   0  0  0  0  0  0  0  0  0  0  0  0
  139.3200   71.1000  223.5040 C   0  0  0  0  0  0  0  0  0  0  0  0
  140.2980   71.8940  224.1150 C   0  0  0  0  0  0  0  0  0  0  0  0
  140.8270   71.4110  225.2760 C   0  0  0  0  0  0  0  0  0  0  0  0
  140.4430   70.2300  225.8290 C   0  0  0  0  0  0  0  0  0  0  0  0
  141.0220   69.8100  227.0040 C   0  0  0  0  0  0  0  0  0  0  0  0
  140.6330   68.6140  227.5650 C   0  0  0  0  0  0  0  0  0  0  0  0
  141.3880   68.0880  229.0730 Cl  0  0  0  0  0  0  0  0  0  0  0  0
  139.6600   67.8290  226.9540 C   0  0  0  0  0  0  0  0  0  0  0  0
  139.0680   68.2430  225.7670 C   0  0  0  0  0  0  0  0  0  0  0  0
  139.4770   69.4620  225.2120 C   0  0  0  0  0  0  0  0  0  0  0  0
  138.9580   69.9390  224.0690 N   0  0  0  0  0  0  0  0  0  0  0  0
  137.7280   73.1790  223.2670 H   0  0  0  0  0  0  0  0  0  0  0  0
  137.3673   72.5907  220.2775 H   0  0  0  0  0  0  0  0  0  0  0  0
  136.1700   73.4431  221.3259 H   0  0  0  0  0  0  0  0  0  0  0  0
  139.3542   74.0702  218.5038 H   0  0  0  0  0  0  0  0  0  0  0  0
  140.3718   75.4345  218.8615 H   0  0  0  0  0  0  0  0  0  0  0  0
  141.9325   73.5643  219.0693 H   0  0  0  0  0  0  0  0  0  0  0  0
  139.6820   72.2040  220.0040 H   0  0  0  0  0  0  0  0  0  0  0  0
  141.3824   73.0894  221.8048 H   0  0  0  0  0  0  0  0  0  0  0  0
  142.4089   74.3850  221.1911 H   0  0  0  0  0  0  0  0  0  0  0  0
  139.9152   74.9387  222.5407 H   0  0  0  0  0  0  0  0  0  0  0  0
  141.9743   76.1683  220.9066 H   0  0  0  0  0  0  0  0  0  0  0  0
  140.3544   76.8571  220.5103 H   0  0  0  0  0  0  0  0  0  0  0  0
  141.4050   78.8297  220.6244 H   0  0  0  0  0  0  0  0  0  0  0  0
  142.2458   81.1044  220.9386 H   0  0  0  0  0  0  0  0  0  0  0  0
  142.8043   81.9541  223.2141 H   0  0  0  0  0  0  0  0  0  0  0  0
  142.4779   80.4323  225.1482 H   0  0  0  0  0  0  0  0  0  0  0  0
  141.6323   78.1535  224.8395 H   0  0  0  0  0  0  0  0  0  0  0  0
  140.6214   72.8527  223.6835 H   0  0  0  0  0  0  0  0  0  0  0  0
  141.5992   72.0040  225.7879 H   0  0  0  0  0  0  0  0  0  0  0  0
  141.7913   70.4259  227.4927 H   0  0  0  0  0  0  0  0  0  0  0  0
  139.3580   66.8760  227.4129 H   0  0  0  0  0  0  0  0  0  0  0  0
  138.2983   67.6293  225.2761 H   0  0  0  0  0  0  0  0  0  0  0  0
  1  2  2  0
  2  3  1  0
  3  4  1  0
  4  5  1  0
  5  6  2  0
  5  7  1  0
  7  8  1  0
  8  9  1  0
  9 10  1  0
  9 11  1  0
 11 12  1  0
 12 13  1  0
 13 14  1  0
 14 15  1  0
 15 16  2  0
 16 17  1  0
 17 18  2  0
 18 19  1  0
 19 20  2  0
  2 21  1  0
 21 22  2  0
 22 23  1  0
 23 24  2  0
 24 25  1  0
 25 26  2  0
 26 27  1  0
 26 28  1  0
 28 29  2  0
 29 30  1  0
 30 31  2  0
 12  7  1  0
 20 15  1  0
 31 21  1  0
 30 24  1  0
  3 32  1  0
  4 33  1  0
  4 34  1  0
  8 35  1  0
  8 36  1  0
  9 37  1  6
 10 38  1  0
 11 39  1  0
 11 40  1  0
 12 41  1  1
 13 42  1  0
 13 43  1  0
 16 44  1  0
 17 45  1  0
 18 46  1  0
 19 47  1  0
 20 48  1  0
 22 49  1  0
 23 50  1  0
 25 51  1  0
 28 52  1  0
 29 53  1  0
M  END
>  <smiles>  (44) 
O=C(NCC(=O)N1C[C@H](O)C[C@H]1COc1ccccc1)c1ccc2cc(Cl)ccc2n1

>  <score_type>  (44) 
oracle

>  <origin>  (44) 
autodockgpu

>  <m_score__min__energy>  (44) 
-8.2599999999999998

>  <m_primary>  (44) 
energy

>  <rmsd>  (44) 
2.9709077779599893

>  <m_score__min__rmsd>  (44) 
2.9709077779599893

>  <meeko>  (44) 
{"free_energy": -7.55, "intermolecular_energy": -9.94, "internal_energy": -2.27, "cluster_size": 10, "cluster_id": 2, "rank_in_cluster": 9}

>  <energy>  (44) 
-7.04

>  <cluster_rmsd>  (44) 
1.68

>  <cluster>  (44) 
6

$$$$

     RDKit          3D

 53 56  0  0  0  0  0  0  0  0999 V2000
  135.4650   72.3980  221.9250 O   0  0  0  0  0  0  0  0  0  0  0  0
  136.7100   72.2990  221.9790 C   0  0  0  0  0  0  0  0  0  0  0  0
  137.5650   72.9470  221.0460 N   0  0  0  0  0  0  0  0  0  0  0  0
  137.0300   73.7760  219.9570 C   0  0  0  0  0  0  0  0  0  0  0  0
  137.4310   75.1910  220.1300 C   0  0  0  0  0  0  0  0  0  0  0  0
  136.6580   76.1690  219.9360 O   0  0  0  0  0  0  0  0  0  0  0  0
  138.7540   75.4990  220.5390 N   0  0  0  0  0  0  0  0  0  0  0  0
  139.9900   74.7770  220.2740 C   0  0  0  0  0  0  0  0  0  0  0  0
  140.5770   74.6840  221.6570 C   0  0  2  0  0  0  0  0  0  0  0  0
  140.0730   73.5900  222.3650 O   0  0  0  0  0  0  0  0  0  0  0  0
  140.2280   75.9840  222.3060 C   0  0  0  0  0  0  0  0  0  0  0  0
  139.2140   76.6440  221.3490 C   0  0  1  0  0  0  0  0  0  0  0  0
  140.0430   77.6110  220.5370 C   0  0  0  0  0  0  0  0  0  0  0  0
  141.2200   77.9100  221.1930 O   0  0  0  0  0  0  0  0  0  0  0  0
  141.5620   78.8830  222.0680 C   0  0  0  0  0  0  0  0  0  0  0  0
  141.5910   80.1990  221.5830 C   0  0  0  0  0  0  0  0  0  0  0  0
  141.9210   81.2680  222.3790 C   0  0  0  0  0  0  0  0  0  0  0  0
  142.2420   81.0930  223.7090 C   0  0  0  0  0  0  0  0  0  0  0  0
  142.2170   79.8100  224.1990 C   0  0  0  0  0  0  0  0  0  0  0  0
  141.8840   78.7350  223.3960 C   0  0  0  0  0  0  0  0  0  0  0  0
  137.3430   71.4890  223.0390 C   0  0  0  0  0  0  0  0  0  0  0  0
  136.6000   70.4420  223.5980 C   0  0  0  0  0  0  0  0  0  0  0  0
  137.2180   69.7170  224.5740 C   0  0  0  0  0  0  0  0  0  0  0  0
  138.4840   69.9750  224.9980 C   0  0  0  0  0  0  0  0  0  0  0  0
  139.0410   69.1980  225.9870 C   0  0  0  0  0  0  0  0  0  0  0  0
  140.3230   69.4590  226.4160 C   0  0  0  0  0  0  0  0  0  0  0  0
  141.0230   68.4540  227.6890 Cl  0  0  0  0  0  0  0  0  0  0  0  0
  141.0580   70.5000  225.8580 C   0  0  0  0  0  0  0  0  0  0  0  0
  140.5060   71.2920  224.8580 C   0  0  0  0  0  0  0  0  0  0  0  0
  139.2010   71.0110  224.4350 C   0  0  0  0  0  0  0  0  0  0  0  0
  138.5900   71.7240  223.4750 N   0  0  0  0  0  0  0  0  0  0  0  0
  138.6150   72.8140  221.1590 H   0  0  0  0  0  0  0  0  0  0  0  0
  137.4186   73.4055  218.9969 H   0  0  0  0  0  0  0  0  0  0  0  0
  135.9318   73.7154  219.9735 H   0  0  0  0  0  0  0  0  0  0  0  0
  139.7922   73.7805  219.8523 H   0  0  0  0  0  0  0  0  0  0  0  0
  140.6467   75.2618  219.5367 H   0  0  0  0  0  0  0  0  0  0  0  0
  141.6644   74.5197  221.6324 H   0  0  0  0  0  0  0  0  0  0  0  0
  139.2000   73.8670  222.7360 H   0  0  0  0  0  0  0  0  0  0  0  0
  139.7745   75.8143  223.2937 H   0  0  0  0  0  0  0  0  0  0  0  0
  141.1133   76.6155  222.4720 H   0  0  0  0  0  0  0  0  0  0  0  0
  138.3623   77.1804  221.7927 H   0  0  0  0  0  0  0  0  0  0  0  0
  140.2771   77.1572  219.5627 H   0  0  0  0  0  0  0  0  0  0  0  0
  139.4694   78.5390  220.3959 H   0  0  0  0  0  0  0  0  0  0  0  0
  141.3405   80.3810  220.5275 H   0  0  0  0  0  0  0  0  0  0  0  0
  141.9295   82.2805  221.9490 H   0  0  0  0  0  0  0  0  0  0  0  0
  142.5072   81.9460  224.3510 H   0  0  0  0  0  0  0  0  0  0  0  0
  142.4679   79.6337  225.2554 H   0  0  0  0  0  0  0  0  0  0  0  0
  141.8765   77.7264  223.8350 H   0  0  0  0  0  0  0  0  0  0  0  0
  135.5750   70.2168  223.2683 H   0  0  0  0  0  0  0  0  0  0  0  0
  136.6675   68.8860  225.0392 H   0  0  0  0  0  0  0  0  0  0  0  0
  138.4656   68.3731  226.4325 H   0  0  0  0  0  0  0  0  0  0  0  0
  142.0813   70.6974  226.2100 H   0  0  0  0  0  0  0  0  0  0  0  0
  141.0790   72.1176  224.4108 H   0  0  0  0  0  0  0  0  0  0  0  0
  1  2  2  0
  2  3  1  0
  3  4  1  0
  4  5  1  0
  5  6  2  0
  5  7  1  0
  7  8  1  0
  8  9  1  0
  9 10  1  0
  9 11  1  0
 11 12  1  0
 12 13  1  0
 13 14  1  0
 14 15  1  0
 15 16  2  0
 16 17  1  0
 17 18  2  0
 18 19  1  0
 19 20  2  0
  2 21  1  0
 21 22  2  0
 22 23  1  0
 23 24  2  0
 24 25  1  0
 25 26  2  0
 26 27  1  0
 26 28  1  0
 28 29  2  0
 29 30  1  0
 30 31  2  0
 12  7  1  0
 20 15  1  0
 31 21  1  0
 30 24  1  0
  3 32  1  0
  4 33  1  0
  4 34  1  0
  8 35  1  0
  8 36  1  0
  9 37  1  6
 10 38  1  0
 11 39  1  0
 11 40  1  0
 12 41  1  1
 13 42  1  0
 13 43  1  0
 16 44  1  0
 17 45  1  0
 18 46  1  0
 19 47  1  0
 20 48  1  0
 22 49  1  0
 23 50  1  0
 25 51  1  0
 28 52  1  0
 29 53  1  0
M  END
>  <smiles>  (45) 
O=C(NCC(=O)N1C[C@H](O)C[C@H]1COc1ccccc1)c1ccc2cc(Cl)ccc2n1

>  <score_type>  (45) 
oracle

>  <origin>  (45) 
autodockgpu

>  <m_score__min__energy>  (45) 
-8.2599999999999998

>  <m_primary>  (45) 
energy

>  <rmsd>  (45) 
2.770728037586066

>  <m_score__min__rmsd>  (45) 
2.770728037586066

>  <meeko>  (45) 
{"free_energy": -7.07, "intermolecular_energy": -9.45, "internal_energy": -2.92, "cluster_size": 20, "cluster_id": 3, "rank_in_cluster": 12}

>  <energy>  (45) 
-7.64

>  <cluster_rmsd>  (45) 
0.0

>  <cluster>  (45) 
7

$$$$

     RDKit          3D

 53 56  0  0  0  0  0  0  0  0999 V2000
  135.0110   75.2390  222.7570 O   0  0  0  0  0  0  0  0  0  0  0  0
  136.2520   75.0960  222.7360 C   0  0  0  0  0  0  0  0  0  0  0  0
  136.8700   73.8160  222.7150 N   0  0  0  0  0  0  0  0  0  0  0  0
  136.0780   72.5780  222.7180 C   0  0  0  0  0  0  0  0  0  0  0  0
  136.8320   71.4760  223.3590 C   0  0  0  0  0  0  0  0  0  0  0  0
  136.3210   70.6530  224.1680 O   0  0  0  0  0  0  0  0  0  0  0  0
  138.2100   71.3080  223.0670 N   0  0  0  0  0  0  0  0  0  0  0  0
  139.3690   71.8670  223.7480 C   0  0  0  0  0  0  0  0  0  0  0  0
  140.1450   72.4320  222.5900 C   0  0  2  0  0  0  0  0  0  0  0  0
  139.7110   73.7160  222.2470 O   0  0  0  0  0  0  0  0  0  0  0  0
  139.9390   71.4530  221.4800 C   0  0  0  0  0  0  0  0  0  0  0  0
  138.8220   70.5160  221.9820 C   0  0  1  0  0  0  0  0  0  0  0  0
  139.5580   69.3090  222.5130 C   0  0  0  0  0  0  0  0  0  0  0  0
  139.0750   68.9550  223.7570 O   0  0  0  0  0  0  0  0  0  0  0  0
  139.6430   68.9100  224.9830 C   0  0  0  0  0  0  0  0  0  0  0  0
  139.2000   67.9060  225.8580 C   0  0  0  0  0  0  0  0  0  0  0  0
  139.7060   67.7620  227.1260 C   0  0  0  0  0  0  0  0  0  0  0  0
  140.6840   68.6090  227.6030 C   0  0  0  0  0  0  0  0  0  0  0  0
  141.1280   69.5970  226.7580 C   0  0  0  0  0  0  0  0  0  0  0  0
  140.6180   69.7400  225.4820 C   0  0  0  0  0  0  0  0  0  0  0  0
  137.1340   76.2810  222.7290 C   0  0  0  0  0  0  0  0  0  0  0  0
  136.5340   77.5460  222.7670 C   0  0  0  0  0  0  0  0  0  0  0  0
  137.3810   78.6160  222.7600 C   0  0  0  0  0  0  0  0  0  0  0  0
  138.7340   78.4880  222.7190 C   0  0  0  0  0  0  0  0  0  0  0  0
  139.5220   79.6150  222.7150 C   0  0  0  0  0  0  0  0  0  0  0  0
  140.8930   79.4860  222.6740 C   0  0  0  0  0  0  0  0  0  0  0  0
  141.8920   80.9420  222.6680 Cl  0  0  0  0  0  0  0  0  0  0  0  0
  141.4850   78.2270  222.6360 C   0  0  0  0  0  0  0  0  0  0  0  0
  140.6980   77.0810  222.6400 C   0  0  0  0  0  0  0  0  0  0  0  0
  139.3060   77.2330  222.6820 C   0  0  0  0  0  0  0  0  0  0  0  0
  138.4710   76.1820  222.6890 N   0  0  0  0  0  0  0  0  0  0  0  0
  137.9330   73.7770  222.6970 H   0  0  0  0  0  0  0  0  0  0  0  0
  135.1443   72.7480  223.2741 H   0  0  0  0  0  0  0  0  0  0  0  0
  135.8568   72.2970  221.6778 H   0  0  0  0  0  0  0  0  0  0  0  0
  139.0776   72.6534  224.4598 H   0  0  0  0  0  0  0  0  0  0  0  0
  139.9293   71.1407  224.3551 H   0  0  0  0  0  0  0  0  0  0  0  0
  141.2110   72.5563  222.8313 H   0  0  0  0  0  0  0  0  0  0  0  0
  139.2880   74.0980  223.0540 H   0  0  0  0  0  0  0  0  0  0  0  0
  139.6268   71.9699  220.5606 H   0  0  0  0  0  0  0  0  0  0  0  0
  140.8605   70.9051  221.2338 H   0  0  0  0  0  0  0  0  0  0  0  0
  138.0627   70.1875  221.2571 H   0  0  0  0  0  0  0  0  0  0  0  0
  139.4204   68.4671  221.8186 H   0  0  0  0  0  0  0  0  0  0  0  0
  140.6261   69.5560  222.6039 H   0  0  0  0  0  0  0  0  0  0  0  0
  138.4199   67.2100  225.5157 H   0  0  0  0  0  0  0  0  0  0  0  0
  139.3249   66.9576  227.7723 H   0  0  0  0  0  0  0  0  0  0  0  0
  141.0920   68.4981  228.6185 H   0  0  0  0  0  0  0  0  0  0  0  0
  141.9079   70.2905  227.1055 H   0  0  0  0  0  0  0  0  0  0  0  0
  141.0061   70.5468  224.8429 H   0  0  0  0  0  0  0  0  0  0  0  0
  135.4415   77.6700  222.8006 H   0  0  0  0  0  0  0  0  0  0  0  0
  136.9497   79.6275  222.7888 H   0  0  0  0  0  0  0  0  0  0  0  0
  139.0606   80.6131  222.7443 H   0  0  0  0  0  0  0  0  0  0  0  0
  142.5809   78.1383  222.6026 H   0  0  0  0  0  0  0  0  0  0  0  0
  141.1562   76.0814  222.6109 H   0  0  0  0  0  0  0  0  0  0  0  0
  1  2  2  0
  2  3  1  0
  3  4  1  0
  4  5  1  0
  5  6  2  0
  5  7  1  0
  7  8  1  0
  8  9  1  0
  9 10  1  0
  9 11  1  0
 11 12  1  0
 12 13  1  0
 13 14  1  0
 14 15  1  0
 15 16  2  0
 16 17  1  0
 17 18  2  0
 18 19  1  0
 19 20  2  0
  2 21  1  0
 21 22  2  0
 22 23  1  0
 23 24  2  0
 24 25  1  0
 25 26  2  0
 26 27  1  0
 26 28  1  0
 28 29  2  0
 29 30  1  0
 30 31  2  0
 12  7  1  0
 20 15  1  0
 31 21  1  0
 30 24  1  0
  3 32  1  0
  4 33  1  0
  4 34  1  0
  8 35  1  0
  8 36  1  0
  9 37  1  1
 10 38  1  0
 11 39  1  0
 11 40  1  0
 12 41  1  6
 13 42  1  0
 13 43  1  0
 16 44  1  0
 17 45  1  0
 18 46  1  0
 19 47  1  0
 20 48  1  0
 22 49  1  0
 23 50  1  0
 25 51  1  0
 28 52  1  0
 29 53  1  0
M  END
>  <smiles>  (46) 
O=C(NCC(=O)N1C[C@H](O)C[C@H]1COc1ccccc1)c1ccc2cc(Cl)ccc2n1

>  <score_type>  (46) 
oracle

>  <origin>  (46) 
autodockgpu

>  <m_score__min__energy>  (46) 
-8.2599999999999998

>  <m_primary>  (46) 
energy

>  <rmsd>  (46) 
7.579223940064181

>  <m_score__min__rmsd>  (46) 
7.579223940064181

>  <meeko>  (46) 
{"free_energy": -7.34, "intermolecular_energy": -9.73, "internal_energy": -3.19, "cluster_size": 5, "cluster_id": 6, "rank_in_cluster": 2}

>  <energy>  (46) 
-6.92

>  <cluster_rmsd>  (46) 
0.0

>  <cluster>  (46) 
8

$$$$

     RDKit          3D

 53 56  0  0  0  0  0  0  0  0999 V2000
  138.9570   72.6270  220.9490 O   0  0  0  0  0  0  0  0  0  0  0  0
  139.7780   72.8220  221.8710 C   0  0  0  0  0  0  0  0  0  0  0  0
  140.6710   73.9280  221.8710 N   0  0  0  0  0  0  0  0  0  0  0  0
  140.6830   74.9110  220.7790 C   0  0  0  0  0  0  0  0  0  0  0  0
  140.4150   76.2720  221.2970 C   0  0  0  0  0  0  0  0  0  0  0  0
  141.2990   77.1630  221.4190 O   0  0  0  0  0  0  0  0  0  0  0  0
  139.0970   76.6260  221.6870 N   0  0  0  0  0  0  0  0  0  0  0  0
  138.2550   76.0400  222.7190 C   0  0  0  0  0  0  0  0  0  0  0  0
  136.9740   75.8180  221.9610 C   0  0  2  0  0  0  0  0  0  0  0  0
  136.9850   74.6070  221.2630 O   0  0  0  0  0  0  0  0  0  0  0  0
  136.8650   76.9950  221.0460 C   0  0  0  0  0  0  0  0  0  0  0  0
  138.2390   77.6910  221.1330 C   0  0  1  0  0  0  0  0  0  0  0  0
  138.0260   78.8130  222.1210 C   0  0  0  0  0  0  0  0  0  0  0  0
  139.0300   78.8220  223.0680 O   0  0  0  0  0  0  0  0  0  0  0  0
  140.2380   79.4280  223.1210 C   0  0  0  0  0  0  0  0  0  0  0  0
  140.4150   80.5740  222.3320 C   0  0  0  0  0  0  0  0  0  0  0  0
  141.5970   81.2730  222.3070 C   0  0  0  0  0  0  0  0  0  0  0  0
  142.6760   80.8740  223.0670 C   0  0  0  0  0  0  0  0  0  0  0  0
  142.5180   79.7540  223.8460 C   0  0  0  0  0  0  0  0  0  0  0  0
  141.3280   79.0520  223.8700 C   0  0  0  0  0  0  0  0  0  0  0  0
  139.8420   71.8900  223.0150 C   0  0  0  0  0  0  0  0  0  0  0  0
  139.3230   70.6010  222.8410 C   0  0  0  0  0  0  0  0  0  0  0  0
  139.4010   69.7690  223.9200 C   0  0  0  0  0  0  0  0  0  0  0  0
  139.9470   70.1460  225.1070 C   0  0  0  0  0  0  0  0  0  0  0  0
  139.9900   69.2490  226.1490 C   0  0  0  0  0  0  0  0  0  0  0  0
  140.5430   69.6300  227.3510 C   0  0  0  0  0  0  0  0  0  0  0  0
  140.5900   68.4680  228.6810 Cl  0  0  0  0  0  0  0  0  0  0  0  0
  141.0580   70.9120  227.5190 C   0  0  0  0  0  0  0  0  0  0  0  0
  141.0200   71.8260  226.4730 C   0  0  0  0  0  0  0  0  0  0  0  0
  140.4530   71.4200  225.2580 C   0  0  0  0  0  0  0  0  0  0  0  0
  140.3750   72.2370  224.1960 N   0  0  0  0  0  0  0  0  0  0  0  0
  141.3400   74.0260  222.6930 H   0  0  0  0  0  0  0  0  0  0  0  0
  141.6692   74.8977  220.2920 H   0  0  0  0  0  0  0  0  0  0  0  0
  139.8969   74.6465  220.0564 H   0  0  0  0  0  0  0  0  0  0  0  0
  138.6729   75.0926  223.0902 H   0  0  0  0  0  0  0  0  0  0  0  0
  138.1446   76.6630  223.6188 H   0  0  0  0  0  0  0  0  0  0  0  0
  136.1058   75.7423  222.6322 H   0  0  0  0  0  0  0  0  0  0  0  0
  137.9270   74.4190  221.0330 H   0  0  0  0  0  0  0  0  0  0  0  0
  136.6612   76.6673  220.0159 H   0  0  0  0  0  0  0  0  0  0  0  0
  136.0410   77.6663  221.3297 H   0  0  0  0  0  0  0  0  0  0  0  0
  138.6677   78.1003  220.2063 H   0  0  0  0  0  0  0  0  0  0  0  0
  138.0267   79.7730  221.5839 H   0  0  0  0  0  0  0  0  0  0  0  0
  137.0613   78.6618  222.6275 H   0  0  0  0  0  0  0  0  0  0  0  0
  139.5776   80.9254  221.7113 H   0  0  0  0  0  0  0  0  0  0  0  0
  141.6843   82.1657  221.6703 H   0  0  0  0  0  0  0  0  0  0  0  0
  143.6249   81.4302  223.0501 H   0  0  0  0  0  0  0  0  0  0  0  0
  143.3585   79.4076  224.4654 H   0  0  0  0  0  0  0  0  0  0  0  0
  141.2500   78.1613  224.5107 H   0  0  0  0  0  0  0  0  0  0  0  0
  138.8777   70.2774  221.8886 H   0  0  0  0  0  0  0  0  0  0  0  0
  139.0043   68.7474  223.8252 H   0  0  0  0  0  0  0  0  0  0  0  0
  139.5853   68.2340  226.0228 H   0  0  0  0  0  0  0  0  0  0  0  0
  141.4973   71.2032  228.4845 H   0  0  0  0  0  0  0  0  0  0  0  0
  141.4245   72.8415  226.5958 H   0  0  0  0  0  0  0  0  0  0  0  0
  1  2  2  0
  2  3  1  0
  3  4  1  0
  4  5  1  0
  5  6  2  0
  5  7  1  0
  7  8  1  0
  8  9  1  0
  9 10  1  0
  9 11  1  0
 11 12  1  0
 12 13  1  0
 13 14  1  0
 14 15  1  0
 15 16  2  0
 16 17  1  0
 17 18  2  0
 18 19  1  0
 19 20  2  0
  2 21  1  0
 21 22  2  0
 22 23  1  0
 23 24  2  0
 24 25  1  0
 25 26  2  0
 26 27  1  0
 26 28  1  0
 28 29  2  0
 29 30  1  0
 30 31  2  0
 12  7  1  0
 20 15  1  0
 31 21  1  0
 30 24  1  0
  3 32  1  0
  4 33  1  0
  4 34  1  0
  8 35  1  0
  8 36  1  0
  9 37  1  1
 10 38  1  0
 11 39  1  0
 11 40  1  0
 12 41  1  6
 13 42  1  0
 13 43  1  0
 16 44  1  0
 17 45  1  0
 18 46  1  0
 19 47  1  0
 20 48  1  0
 22 49  1  0
 23 50  1  0
 25 51  1  0
 28 52  1  0
 29 53  1  0
M  END
>  <smiles>  (47) 
O=C(NCC(=O)N1C[C@H](O)C[C@H]1COc1ccccc1)c1ccc2cc(Cl)ccc2n1

>  <score_type>  (47) 
oracle

>  <origin>  (47) 
autodockgpu

>  <m_score__min__energy>  (47) 
-8.2599999999999998

>  <m_primary>  (47) 
energy

>  <rmsd>  (47) 
3.0951496645525127

>  <m_score__min__rmsd>  (47) 
3.0951496645525127

>  <meeko>  (47) 
{"free_energy": -7.15, "intermolecular_energy": -9.54, "internal_energy": -2.8, "cluster_size": 20, "cluster_id": 3, "rank_in_cluster": 10}

>  <energy>  (47) 
-6.57

>  <cluster_rmsd>  (47) 
0.0

>  <cluster>  (47) 
9

$$$$

     RDKit          3D

 53 56  0  0  0  0  0  0  0  0999 V2000
  135.9040   71.9010  221.1110 O   0  0  0  0  0  0  0  0  0  0  0  0
  137.0810   72.1320  221.4620 C   0  0  0  0  0  0  0  0  0  0  0  0
  137.9130   73.0550  220.7720 N   0  0  0  0  0  0  0  0  0  0  0  0
  137.4340   73.7950  219.5960 C   0  0  0  0  0  0  0  0  0  0  0  0
  138.4280   74.8090  219.1750 C   0  0  0  0  0  0  0  0  0  0  0  0
  138.6330   75.1350  217.9730 O   0  0  0  0  0  0  0  0  0  0  0  0
  139.2100   75.4730  220.1560 N   0  0  0  0  0  0  0  0  0  0  0  0
  140.6250   75.3180  220.4600 C   0  0  0  0  0  0  0  0  0  0  0  0
  140.5850   75.1380  221.9540 C   0  0  2  0  0  0  0  0  0  0  0  0
  140.3490   73.8080  222.3120 O   0  0  0  0  0  0  0  0  0  0  0  0
  139.4940   76.0490  222.4170 C   0  0  0  0  0  0  0  0  0  0  0  0
  138.7780   76.4960  221.1270 C   0  0  1  0  0  0  0  0  0  0  0  0
  139.3740   77.8490  220.8200 C   0  0  0  0  0  0  0  0  0  0  0  0
  139.5030   78.5950  221.9750 O   0  0  0  0  0  0  0  0  0  0  0  0
  140.5390   79.2710  222.5200 C   0  0  0  0  0  0  0  0  0  0  0  0
  141.8300   78.7970  222.2430 C   0  0  0  0  0  0  0  0  0  0  0  0
  142.9570   79.4050  222.7390 C   0  0  0  0  0  0  0  0  0  0  0  0
  142.8690   80.5220  223.5420 C   0  0  0  0  0  0  0  0  0  0  0  0
  141.6120   80.9980  223.8230 C   0  0  0  0  0  0  0  0  0  0  0  0
  140.4780   80.3860  223.3220 C   0  0  0  0  0  0  0  0  0  0  0  0
  137.6540   71.4390  222.6340 C   0  0  0  0  0  0  0  0  0  0  0  0
  136.8980   70.4190  223.2270 C   0  0  0  0  0  0  0  0  0  0  0  0
  137.4600   69.8030  224.3060 C   0  0  0  0  0  0  0  0  0  0  0  0
  138.6830   70.1390  224.7970 C   0  0  0  0  0  0  0  0  0  0  0  0
  139.1840   69.4700  225.8890 C   0  0  0  0  0  0  0  0  0  0  0  0
  140.4220   69.8090  226.3860 C   0  0  0  0  0  0  0  0  0  0  0  0
  141.0510   68.9420  227.7910 Cl  0  0  0  0  0  0  0  0  0  0  0  0
  141.1690   70.8220  225.7930 C   0  0  0  0  0  0  0  0  0  0  0  0
  140.6740   71.5060  224.6890 C   0  0  0  0  0  0  0  0  0  0  0  0
  139.4120   71.1450  224.1980 C   0  0  0  0  0  0  0  0  0  0  0  0
  138.8570   71.7520  223.1360 N   0  0  0  0  0  0  0  0  0  0  0  0
  138.9040   73.1980  221.1320 H   0  0  0  0  0  0  0  0  0  0  0  0
  137.2657   73.0893  218.7692 H   0  0  0  0  0  0  0  0  0  0  0  0
  136.4961   74.3066  219.8579 H   0  0  0  0  0  0  0  0  0  0  0  0
  141.0507   74.4361  219.9590 H   0  0  0  0  0  0  0  0  0  0  0  0
  141.2536   76.1553  220.1228 H   0  0  0  0  0  0  0  0  0  0  0  0
  141.5481   75.3840  222.4250 H   0  0  0  0  0  0  0  0  0  0  0  0
  139.5690   73.8100  222.9200 H   0  0  0  0  0  0  0  0  0  0  0  0
  138.7985   75.5142  223.0805 H   0  0  0  0  0  0  0  0  0  0  0  0
  139.8826   76.9022  222.9924 H   0  0  0  0  0  0  0  0  0  0  0  0
  137.6814   76.5792  221.1506 H   0  0  0  0  0  0  0  0  0  0  0  0
  140.3660   77.7125  220.3647 H   0  0  0  0  0  0  0  0  0  0  0  0
  138.7076   78.3816  220.1256 H   0  0  0  0  0  0  0  0  0  0  0  0
  141.9435   77.9072  221.6063 H   0  0  0  0  0  0  0  0  0  0  0  0
  143.9467   78.9937  222.4913 H   0  0  0  0  0  0  0  0  0  0  0  0
  143.7691   81.0121  223.9415 H   0  0  0  0  0  0  0  0  0  0  0  0
  141.5048   81.8871  224.4617 H   0  0  0  0  0  0  0  0  0  0  0  0
  139.4929   80.8057  223.5738 H   0  0  0  0  0  0  0  0  0  0  0  0
  135.9077   70.1316  222.8440 H   0  0  0  0  0  0  0  0  0  0  0  0
  136.8985   68.9975  224.8019 H   0  0  0  0  0  0  0  0  0  0  0  0
  138.5986   68.6683  226.3628 H   0  0  0  0  0  0  0  0  0  0  0  0
  142.1570   71.0830  226.2002 H   0  0  0  0  0  0  0  0  0  0  0  0
  141.2568   72.3087  224.2136 H   0  0  0  0  0  0  0  0  0  0  0  0
  1  2  2  0
  2  3  1  0
  3  4  1  0
  4  5  1  0
  5  6  2  0
  5  7  1  0
  7  8  1  0
  8  9  1  0
  9 10  1  0
  9 11  1  0
 11 12  1  0
 12 13  1  0
 13 14  1  0
 14 15  1  0
 15 16  2  0
 16 17  1  0
 17 18  2  0
 18 19  1  0
 19 20  2  0
  2 21  1  0
 21 22  2  0
 22 23  1  0
 23 24  2  0
 24 25  1  0
 25 26  2  0
 26 27  1  0
 26 28  1  0
 28 29  2  0
 29 30  1  0
 30 31  2  0
 12  7  1  0
 20 15  1  0
 31 21  1  0
 30 24  1  0
  3 32  1  0
  4 33  1  0
  4 34  1  0
  8 35  1  0
  8 36  1  0
  9 37  1  1
 10 38  1  0
 11 39  1  0
 11 40  1  0
 12 41  1  1
 13 42  1  0
 13 43  1  0
 16 44  1  0
 17 45  1  0
 18 46  1  0
 19 47  1  0
 20 48  1  0
 22 49  1  0
 23 50  1  0
 25 51  1  0
 28 52  1  0
 29 53  1  0
M  END
>  <smiles>  (48) 
O=C(NCC(=O)N1C[C@H](O)C[C@H]1COc1ccccc1)c1ccc2cc(Cl)ccc2n1

>  <score_type>  (48) 
oracle

>  <origin>  (48) 
autodockgpu

>  <m_score__min__energy>  (48) 
-8.2599999999999998

>  <m_primary>  (48) 
energy

>  <rmsd>  (48) 
2.872981739897432

>  <m_score__min__rmsd>  (48) 
2.872981739897432

>  <meeko>  (48) 
{"free_energy": -6.91, "intermolecular_energy": -9.3, "internal_energy": -3.29, "cluster_size": 20, "cluster_id": 3, "rank_in_cluster": 18}

>  <energy>  (48) 
-6.09

>  <cluster_rmsd>  (48) 
1.84

>  <cluster>  (48) 
9

$$$$

     RDKit          3D

 53 56  0  0  0  0  0  0  0  0999 V2000
  142.5420   71.5830  220.7150 O   0  0  0  0  0  0  0  0  0  0  0  0
  141.4140   72.1190  220.7490 C   0  0  0  0  0  0  0  0  0  0  0  0
  140.2140   71.3770  220.5740 N   0  0  0  0  0  0  0  0  0  0  0  0
  140.2310   69.9270  220.3390 C   0  0  0  0  0  0  0  0  0  0  0  0
  139.0000   69.2960  220.8670 C   0  0  0  0  0  0  0  0  0  0  0  0
  138.4310   68.3060  220.3290 O   0  0  0  0  0  0  0  0  0  0  0  0
  138.3990   69.8090  222.0460 N   0  0  0  0  0  0  0  0  0  0  0  0
  137.1470   70.5350  222.1970 C   0  0  0  0  0  0  0  0  0  0  0  0
  137.5890   71.7120  223.0240 C   0  0  2  0  0  0  0  0  0  0  0  0
  138.1050   72.7410  222.2320 O   0  0  0  0  0  0  0  0  0  0  0  0
  138.6120   71.1560  223.9620 C   0  0  0  0  0  0  0  0  0  0  0  0
  138.9040   69.7370  223.4310 C   0  0  1  0  0  0  0  0  0  0  0  0
  138.0540   68.8350  224.2930 C   0  0  0  0  0  0  0  0  0  0  0  0
  138.8480   68.0370  225.0910 O   0  0  0  0  0  0  0  0  0  0  0  0
  139.6150   68.2950  226.1740 C   0  0  0  0  0  0  0  0  0  0  0  0
  139.3880   69.5060  226.8450 C   0  0  0  0  0  0  0  0  0  0  0  0
  140.1040   69.8730  227.9590 C   0  0  0  0  0  0  0  0  0  0  0  0
  141.0890   69.0570  228.4730 C   0  0  0  0  0  0  0  0  0  0  0  0
  141.3220   67.8680  227.8270 C   0  0  0  0  0  0  0  0  0  0  0  0
  140.6010   67.4990  226.7070 C   0  0  0  0  0  0  0  0  0  0  0  0
  141.2910   73.5730  220.9820 C   0  0  0  0  0  0  0  0  0  0  0  0
  142.3100   74.4030  220.4980 C   0  0  0  0  0  0  0  0  0  0  0  0
  142.1620   75.7380  220.7320 C   0  0  0  0  0  0  0  0  0  0  0  0
  141.0940   76.2590  221.3940 C   0  0  0  0  0  0  0  0  0  0  0  0
  141.0150   77.6190  221.5890 C   0  0  0  0  0  0  0  0  0  0  0  0
  139.9340   78.1470  222.2590 C   0  0  0  0  0  0  0  0  0  0  0  0
  139.8470   79.8940  222.5050 Cl  0  0  0  0  0  0  0  0  0  0  0  0
  138.9240   77.3180  222.7380 C   0  0  0  0  0  0  0  0  0  0  0  0
  138.9930   75.9440  222.5460 C   0  0  0  0  0  0  0  0  0  0  0  0
  140.1000   75.4260  221.8620 C   0  0  0  0  0  0  0  0  0  0  0  0
  140.2490   74.1110  221.6320 N   0  0  0  0  0  0  0  0  0  0  0  0
  139.2910   71.9060  220.6180 H   0  0  0  0  0  0  0  0  0  0  0  0
  140.2985   69.7374  219.2576 H   0  0  0  0  0  0  0  0  0  0  0  0
  141.0997   69.4952  220.8575 H   0  0  0  0  0  0  0  0  0  0  0  0
  136.7462   70.8542  221.2236 H   0  0  0  0  0  0  0  0  0  0  0  0
  136.3352   69.9457  222.6484 H   0  0  0  0  0  0  0  0  0  0  0  0
  136.7494   72.1735  223.5644 H   0  0  0  0  0  0  0  0  0  0  0  0
  138.6100   73.3400  222.8350 H   0  0  0  0  0  0  0  0  0  0  0  0
  139.5245   71.7702  223.9485 H   0  0  0  0  0  0  0  0  0  0  0  0
  138.2578   71.1448  225.0034 H   0  0  0  0  0  0  0  0  0  0  0  0
  139.9456   69.3840  223.4531 H   0  0  0  0  0  0  0  0  0  0  0  0
  137.4043   69.4520  224.9312 H   0  0  0  0  0  0  0  0  0  0  0  0
  137.4458   68.1910  223.6408 H   0  0  0  0  0  0  0  0  0  0  0  0
  138.6100   70.1852  226.4663 H   0  0  0  0  0  0  0  0  0  0  0  0
  139.8876   70.8339  228.4487 H   0  0  0  0  0  0  0  0  0  0  0  0
  141.6649   69.3466  229.3644 H   0  0  0  0  0  0  0  0  0  0  0  0
  142.1013   67.1928  228.2101 H   0  0  0  0  0  0  0  0  0  0  0  0
  140.8238   66.5353  226.2256 H   0  0  0  0  0  0  0  0  0  0  0  0
  143.1806   74.0005  219.9595 H   0  0  0  0  0  0  0  0  0  0  0  0
  142.9412   76.4245  220.3692 H   0  0  0  0  0  0  0  0  0  0  0  0
  141.8098   78.2796  221.2123 H   0  0  0  0  0  0  0  0  0  0  0  0
  138.0662   77.7533  223.2717 H   0  0  0  0  0  0  0  0  0  0  0  0
  138.1997   75.2807  222.9210 H   0  0  0  0  0  0  0  0  0  0  0  0
  1  2  2  0
  2  3  1  0
  3  4  1  0
  4  5  1  0
  5  6  2  0
  5  7  1  0
  7  8  1  0
  8  9  1  0
  9 10  1  0
  9 11  1  0
 11 12  1  0
 12 13  1  0
 13 14  1  0
 14 15  1  0
 15 16  2  0
 16 17  1  0
 17 18  2  0
 18 19  1  0
 19 20  2  0
  2 21  1  0
 21 22  2  0
 22 23  1  0
 23 24  2  0
 24 25  1  0
 25 26  2  0
 26 27  1  0
 26 28  1  0
 28 29  2  0
 29 30  1  0
 30 31  2  0
 12  7  1  0
 20 15  1  0
 31 21  1  0
 30 24  1  0
  3 32  1  0
  4 33  1  0
  4 34  1  0
  8 35  1  0
  8 36  1  0
  9 37  1  1
 10 38  1  0
 11 39  1  0
 11 40  1  0
 12 41  1  6
 13 42  1  0
 13 43  1  0
 16 44  1  0
 17 45  1  0
 18 46  1  0
 19 47  1  0
 20 48  1  0
 22 49  1  0
 23 50  1  0
 25 51  1  0
 28 52  1  0
 29 53  1  0
M  END
>  <smiles>  (49) 
O=C(NCC(=O)N1C[C@H](O)C[C@H]1COc1ccccc1)c1ccc2cc(Cl)ccc2n1

>  <score_type>  (49) 
oracle

>  <origin>  (49) 
autodockgpu

>  <m_score__min__energy>  (49) 
-8.2599999999999998

>  <m_primary>  (49) 
energy

>  <rmsd>  (49) 
7.349184359902605

>  <m_score__min__rmsd>  (49) 
7.349184359902605

>  <meeko>  (49) 
{"free_energy": -6.92, "intermolecular_energy": -9.31, "internal_energy": -3.16, "cluster_size": 1, "cluster_id": 8, "rank_in_cluster": 1}

>  <energy>  (49) 
-6.45

>  <cluster_rmsd>  (49) 
0.0

>  <cluster>  (49) 
10

$$$$

     RDKit          3D

 53 56  0  0  0  0  0  0  0  0999 V2000
  140.6780   72.9560  222.3650 O   0  0  0  0  0  0  0  0  0  0  0  0
  140.4280   73.8260  221.5040 C   0  0  0  0  0  0  0  0  0  0  0  0
  140.6680   73.6160  220.1190 N   0  0  0  0  0  0  0  0  0  0  0  0
  141.2280   72.3540  219.6160 C   0  0  0  0  0  0  0  0  0  0  0  0
  142.5740   72.1160  220.1850 C   0  0  0  0  0  0  0  0  0  0  0  0
  142.8520   71.1550  220.9550 O   0  0  0  0  0  0  0  0  0  0  0  0
  143.6370   73.0010  219.8660 N   0  0  0  0  0  0  0  0  0  0  0  0
  144.5790   72.9440  218.7580 C   0  0  0  0  0  0  0  0  0  0  0  0
  145.8890   73.1160  219.4790 C   0  0  2  0  0  0  0  0  0  0  0  0
  146.3750   71.9030  219.9730 O   0  0  0  0  0  0  0  0  0  0  0  0
  145.5960   74.0930  220.5720 C   0  0  0  0  0  0  0  0  0  0  0  0
  144.0590   74.2160  220.5900 C   0  0  1  0  0  0  0  0  0  0  0  0
  143.7770   75.4700  219.7980 C   0  0  0  0  0  0  0  0  0  0  0  0
  142.4230   75.5980  219.5570 O   0  0  0  0  0  0  0  0  0  0  0  0
  141.6110   76.6710  219.4260 C   0  0  0  0  0  0  0  0  0  0  0  0
  142.1070   77.9070  219.8670 C   0  0  0  0  0  0  0  0  0  0  0  0
  141.3730   79.0640  219.7820 C   0  0  0  0  0  0  0  0  0  0  0  0
  140.1000   79.0630  219.2520 C   0  0  0  0  0  0  0  0  0  0  0  0
  139.6010   77.8600  218.8150 C   0  0  0  0  0  0  0  0  0  0  0  0
  140.3400   76.6960  218.9010 C   0  0  0  0  0  0  0  0  0  0  0  0
  139.8600   75.1280  221.9100 C   0  0  0  0  0  0  0  0  0  0  0  0
  138.4700   75.2880  221.8430 C   0  0  0  0  0  0  0  0  0  0  0  0
  137.9840   76.5030  222.2260 C   0  0  0  0  0  0  0  0  0  0  0  0
  138.7810   77.5190  222.6520 C   0  0  0  0  0  0  0  0  0  0  0  0
  138.2160   78.7160  223.0230 C   0  0  0  0  0  0  0  0  0  0  0  0
  139.0230   79.7450  223.4550 C   0  0  0  0  0  0  0  0  0  0  0  0
  138.2810   81.2780  223.9250 Cl  0  0  0  0  0  0  0  0  0  0  0  0
  140.4030   79.5820  223.5190 C   0  0  0  0  0  0  0  0  0  0  0  0
  140.9860   78.3760  223.1470 C   0  0  0  0  0  0  0  0  0  0  0  0
  140.1480   77.3430  222.7110 C   0  0  0  0  0  0  0  0  0  0  0  0
  140.6250   76.1460  222.3330 N   0  0  0  0  0  0  0  0  0  0  0  0
  140.4280   74.4060  219.4470 H   0  0  0  0  0  0  0  0  0  0  0  0
  140.5636   71.5250  219.9010 H   0  0  0  0  0  0  0  0  0  0  0  0
  141.3124   72.4157  218.5210 H   0  0  0  0  0  0  0  0  0  0  0  0
  144.5299   71.9768  218.2364 H   0  0  0  0  0  0  0  0  0  0  0  0
  144.3956   73.6900  217.9706 H   0  0  0  0  0  0  0  0  0  0  0  0
  146.6828   73.4795  218.8098 H   0  0  0  0  0  0  0  0  0  0  0  0
  145.9370   71.7540  220.8470 H   0  0  0  0  0  0  0  0  0  0  0  0
  145.9658   73.7168  221.5373 H   0  0  0  0  0  0  0  0  0  0  0  0
  146.0879   75.0626  220.4047 H   0  0  0  0  0  0  0  0  0  0  0  0
  143.5599   74.2849  221.5678 H   0  0  0  0  0  0  0  0  0  0  0  0
  144.1271   76.3437  220.3673 H   0  0  0  0  0  0  0  0  0  0  0  0
  144.3045   75.4075  218.8348 H   0  0  0  0  0  0  0  0  0  0  0  0
  143.1191   77.9505  220.2957 H   0  0  0  0  0  0  0  0  0  0  0  0
  141.8077   80.0078  220.1428 H   0  0  0  0  0  0  0  0  0  0  0  0
  139.5083   79.9876  219.1820 H   0  0  0  0  0  0  0  0  0  0  0  0
  138.5887   77.8227  218.3863 H   0  0  0  0  0  0  0  0  0  0  0  0
  139.8969   75.7572  218.5372 H   0  0  0  0  0  0  0  0  0  0  0  0
  137.8079   74.4790  221.5007 H   0  0  0  0  0  0  0  0  0  0  0  0
  136.8972   76.6689  222.1887 H   0  0  0  0  0  0  0  0  0  0  0  0
  137.1254   78.8512  222.9751 H   0  0  0  0  0  0  0  0  0  0  0  0
  141.0364   80.4118  223.8658 H   0  0  0  0  0  0  0  0  0  0  0  0
  142.0762   78.2373  223.1940 H   0  0  0  0  0  0  0  0  0  0  0  0
  1  2  2  0
  2  3  1  0
  3  4  1  0
  4  5  1  0
  5  6  2  0
  5  7  1  0
  7  8  1  0
  8  9  1  0
  9 10  1  0
  9 11  1  0
 11 12  1  0
 12 13  1  0
 13 14  1  0
 14 15  1  0
 15 16  2  0
 16 17  1  0
 17 18  2  0
 18 19  1  0
 19 20  2  0
  2 21  1  0
 21 22  2  0
 22 23  1  0
 23 24  2  0
 24 25  1  0
 25 26  2  0
 26 27  1  0
 26 28  1  0
 28 29  2  0
 29 30  1  0
 30 31  2  0
 12  7  1  0
 20 15  1  0
 31 21  1  0
 30 24  1  0
  3 32  1  0
  4 33  1  0
  4 34  1  0
  8 35  1  0
  8 36  1  0
  9 37  1  6
 10 38  1  0
 11 39  1  0
 11 40  1  0
 12 41  1  1
 13 42  1  0
 13 43  1  0
 16 44  1  0
 17 45  1  0
 18 46  1  0
 19 47  1  0
 20 48  1  0
 22 49  1  0
 23 50  1  0
 25 51  1  0
 28 52  1  0
 29 53  1  0
M  END
>  <smiles>  (50) 
O=C(NCC(=O)N1C[C@H](O)C[C@H]1COc1ccccc1)c1ccc2cc(Cl)ccc2n1

>  <score_type>  (50) 
oracle

>  <origin>  (50) 
autodockgpu

>  <m_score__min__energy>  (50) 
-8.2599999999999998

>  <m_primary>  (50) 
energy

>  <rmsd>  (50) 
6.800021370460944

>  <m_score__min__rmsd>  (50) 
6.800021370460944

>  <meeko>  (50) 
{"free_energy": -6.09, "intermolecular_energy": -8.48, "internal_energy": -3.62, "cluster_size": 2, "cluster_id": 9, "rank_in_cluster": 2}

>  <energy>  (50) 
-6.21

>  <cluster_rmsd>  (50) 
0.62

>  <cluster>  (50) 
10

$$$$
