
     RDKit          3D

 52 56  0  0  0  0  0  0  0  0999 V2000
  142.8570   75.0170  220.5570 O   0  0  0  0  0  0  0  0  0  0  0  0
  141.7950   74.5960  221.1180 C   0  0  0  0  0  0  0  0  0  0  0  0
  141.5760   73.1310  221.2120 C   0  0  0  0  0  0  0  0  0  0  0  0
  140.2900   72.8620  221.8950 C   0  0  0  0  0  0  0  0  0  0  0  0
  139.8990   71.4480  222.0840 C   0  0  0  0  0  0  0  0  0  0  0  0
  139.5470   70.6480  221.0120 C   0  0  0  0  0  0  0  0  0  0  0  0
  139.1780   69.3310  221.1370 C   0  0  0  0  0  0  0  0  0  0  0  0
  139.1650   68.7930  222.4210 C   0  0  0  0  0  0  0  0  0  0  0  0
  139.5070   69.5400  223.5340 C   0  0  0  0  0  0  0  0  0  0  0  0
  139.4880   68.9630  224.8640 C   0  0  0  0  0  0  0  0  0  0  0  0
  139.2080   67.7220  224.9480 O   0  0  0  0  0  0  0  0  0  0  0  0
  139.7650   69.7310  226.0230 N   0  0  0  0  0  0  0  0  0  0  0  0
  140.1020   71.1340  226.1580 C   0  0  0  0  0  0  0  0  0  0  0  0
  141.0740   71.2070  227.2980 C   0  0  0  0  0  0  0  0  0  0  0  0
  140.8850   69.9530  228.0660 C   0  0  0  0  0  0  0  0  0  0  0  0
  139.7670   69.2310  227.3950 C   0  0  0  0  0  0  0  0  0  0  0  0
  139.8710   70.8700  223.3270 C   0  0  0  0  0  0  0  0  0  0  0  0
  139.4950   73.7610  222.3330 N   0  0  0  0  0  0  0  0  0  0  0  0
  139.7150   75.1620  222.2380 C   0  0  0  0  0  0  0  0  0  0  0  0
  138.8330   76.1040  222.7240 C   0  0  0  0  0  0  0  0  0  0  0  0
  139.0870   77.4540  222.6100 C   0  0  0  0  0  0  0  0  0  0  0  0
  140.2560   77.8660  221.9910 C   0  0  0  0  0  0  0  0  0  0  0  0
  140.5960   79.2780  221.8320 C   0  0  0  0  0  0  0  0  0  0  0  0
  141.4970   79.9110  222.6640 C   0  0  0  0  0  0  0  0  0  0  0  0
  141.8150   81.2600  222.5040 C   0  0  0  0  0  0  0  0  0  0  0  0
  141.1980   81.9590  221.4770 C   0  0  0  0  0  0  0  0  0  0  0  0
  141.4660   83.2780  221.2700 F   0  0  0  0  0  0  0  0  0  0  0  0
  140.2930   81.3410  220.6320 C   0  0  0  0  0  0  0  0  0  0  0  0
  139.9780   79.9890  220.7970 C   0  0  0  0  0  0  0  0  0  0  0  0
  141.1350   76.9130  221.5070 C   0  0  0  0  0  0  0  0  0  0  0  0
  140.8610   75.5860  221.6320 C   0  0  0  0  0  0  0  0  0  0  0  0
  141.5502   72.6994  220.2005 H   0  0  0  0  0  0  0  0  0  0  0  0
  142.3962   72.6760  221.7867 H   0  0  0  0  0  0  0  0  0  0  0  0
  139.5635   71.0904  220.0050 H   0  0  0  0  0  0  0  0  0  0  0  0
  138.9042   68.7267  220.2596 H   0  0  0  0  0  0  0  0  0  0  0  0
  138.8736   67.7408  222.5547 H   0  0  0  0  0  0  0  0  0  0  0  0
  140.5657   71.5083  225.2334 H   0  0  0  0  0  0  0  0  0  0  0  0
  139.2103   71.7510  226.3430 H   0  0  0  0  0  0  0  0  0  0  0  0
  142.1048   71.2736  226.9197 H   0  0  0  0  0  0  0  0  0  0  0  0
  140.9018   72.0960  227.9226 H   0  0  0  0  0  0  0  0  0  0  0  0
  141.8024   69.3465  228.0411 H   0  0  0  0  0  0  0  0  0  0  0  0
  140.6595   70.1557  229.1234 H   0  0  0  0  0  0  0  0  0  0  0  0
  139.9430   68.1453  227.4108 H   0  0  0  0  0  0  0  0  0  0  0  0
  138.8038   69.4008  227.8985 H   0  0  0  0  0  0  0  0  0  0  0  0
  140.1476   71.4818  224.1983 H   0  0  0  0  0  0  0  0  0  0  0  0
  137.9060   75.7707  223.2136 H   0  0  0  0  0  0  0  0  0  0  0  0
  138.3731   78.1923  223.0041 H   0  0  0  0  0  0  0  0  0  0  0  0
  141.9756   79.3385  223.4722 H   0  0  0  0  0  0  0  0  0  0  0  0
  142.5343   81.7550  223.1730 H   0  0  0  0  0  0  0  0  0  0  0  0
  139.8180   81.9177  219.8247 H   0  0  0  0  0  0  0  0  0  0  0  0
  139.2593   79.4942  220.1272 H   0  0  0  0  0  0  0  0  0  0  0  0
  142.0660   77.2319  221.0155 H   0  0  0  0  0  0  0  0  0  0  0  0
  1  2  2  0
  2  3  1  0
  3  4  1  0
  4  5  1  0
  5  6  2  0
  6  7  1  0
  7  8  2  0
  8  9  1  0
  9 10  1  0
 10 11  2  0
 10 12  1  0
 12 13  1  0
 13 14  1  0
 14 15  1  0
 15 16  1  0
  9 17  2  0
  4 18  2  0
 18 19  1  0
 19 20  2  0
 20 21  1  0
 21 22  2  0
 22 23  1  0
 23 24  2  0
 24 25  1  0
 25 26  2  0
 26 27  1  0
 26 28  1  0
 28 29  2  0
 22 30  1  0
 30 31  2  0
 31  2  1  0
 17  5  1  0
 31 19  1  0
 16 12  1  0
 29 23  1  0
  3 32  1  0
  3 33  1  0
  6 34  1  0
  7 35  1  0
  8 36  1  0
 13 37  1  0
 13 38  1  0
 14 39  1  0
 14 40  1  0
 15 41  1  0
 15 42  1  0
 16 43  1  0
 16 44  1  0
 17 45  1  0
 20 46  1  0
 21 47  1  0
 24 48  1  0
 25 49  1  0
 28 50  1  0
 29 51  1  0
 30 52  1  0
M  END
>  <smiles>  (1) 
O=C1CC(c2cccc(C(=O)N3CCCC3)c2)=Nc2ccc(-c3ccc(F)cc3)cc21

>  <score_type>  (1) 
oracle

>  <origin>  (1) 
autodockgpu

>  <m_score__min__energy>  (1) 
-9.1199999999999992

>  <m_primary>  (1) 
energy

>  <rmsd>  (1) 
6.199095782548505

>  <m_score__min__rmsd>  (1) 
6.199095782548505

>  <meeko>  (1) 
{"free_energy": -9.08, "intermolecular_energy": -9.98, "internal_energy": -0.77, "cluster_size": 40, "cluster_id": 1, "rank_in_cluster": 21}

>  <energy>  (1) 
-9.12

>  <cluster_rmsd>  (1) 
0.0

>  <cluster>  (1) 
1

$$$$

     RDKit          3D

 52 56  0  0  0  0  0  0  0  0999 V2000
  142.9070   74.9970  220.5690 O   0  0  0  0  0  0  0  0  0  0  0  0
  141.8360   74.5970  221.1290 C   0  0  0  0  0  0  0  0  0  0  0  0
  141.5870   73.1370  221.2210 C   0  0  0  0  0  0  0  0  0  0  0  0
  140.2950   72.8930  221.9030 C   0  0  0  0  0  0  0  0  0  0  0  0
  139.8750   71.4880  222.0900 C   0  0  0  0  0  0  0  0  0  0  0  0
  139.4870   70.7030  221.0190 C   0  0  0  0  0  0  0  0  0  0  0  0
  139.0910   69.3930  221.1430 C   0  0  0  0  0  0  0  0  0  0  0  0
  139.0880   68.8470  222.4240 C   0  0  0  0  0  0  0  0  0  0  0  0
  139.4650   69.5790  223.5350 C   0  0  0  0  0  0  0  0  0  0  0  0
  139.4560   68.9940  224.8610 C   0  0  0  0  0  0  0  0  0  0  0  0
  139.1740   67.7540  224.9400 O   0  0  0  0  0  0  0  0  0  0  0  0
  139.7450   69.7540  226.0230 N   0  0  0  0  0  0  0  0  0  0  0  0
  140.0870   71.1550  226.1640 C   0  0  0  0  0  0  0  0  0  0  0  0
  141.0680   71.2190  227.2960 C   0  0  0  0  0  0  0  0  0  0  0  0
  140.8830   69.9610  228.0580 C   0  0  0  0  0  0  0  0  0  0  0  0
  139.7570   69.2460  227.3920 C   0  0  0  0  0  0  0  0  0  0  0  0
  139.8550   70.9020  223.3300 C   0  0  0  0  0  0  0  0  0  0  0  0
  139.5180   73.8080  222.3420 N   0  0  0  0  0  0  0  0  0  0  0  0
  139.7660   75.2040  222.2480 C   0  0  0  0  0  0  0  0  0  0  0  0
  138.9040   76.1630  222.7340 C   0  0  0  0  0  0  0  0  0  0  0  0
  139.1850   77.5080  222.6220 C   0  0  0  0  0  0  0  0  0  0  0  0
  140.3630   77.8960  222.0050 C   0  0  0  0  0  0  0  0  0  0  0  0
  140.7310   79.3020  221.8470 C   0  0  0  0  0  0  0  0  0  0  0  0
  140.5330   79.9800  220.6620 C   0  0  0  0  0  0  0  0  0  0  0  0
  140.8890   81.3220  220.5210 C   0  0  0  0  0  0  0  0  0  0  0  0
  141.4510   81.9670  221.6130 C   0  0  0  0  0  0  0  0  0  0  0  0
  141.8180   83.2760  221.5390 F   0  0  0  0  0  0  0  0  0  0  0  0
  141.6550   81.3040  222.8100 C   0  0  0  0  0  0  0  0  0  0  0  0
  141.2980   79.9590  222.9450 C   0  0  0  0  0  0  0  0  0  0  0  0
  141.2220   76.9270  221.5200 C   0  0  0  0  0  0  0  0  0  0  0  0
  140.9210   75.6050  221.6440 C   0  0  0  0  0  0  0  0  0  0  0  0
  141.5531   72.7074  220.2089 H   0  0  0  0  0  0  0  0  0  0  0  0
  142.3973   72.6647  221.7958 H   0  0  0  0  0  0  0  0  0  0  0  0
  139.4960   71.1514  220.0146 H   0  0  0  0  0  0  0  0  0  0  0  0
  138.7890   68.8004  220.2669 H   0  0  0  0  0  0  0  0  0  0  0  0
  138.7759   67.8005  222.5563 H   0  0  0  0  0  0  0  0  0  0  0  0
  140.5442   71.5337  225.2379 H   0  0  0  0  0  0  0  0  0  0  0  0
  139.1984   71.7730  226.3602 H   0  0  0  0  0  0  0  0  0  0  0  0
  142.0957   71.2859  226.9097 H   0  0  0  0  0  0  0  0  0  0  0  0
  140.9025   72.1044  227.9274 H   0  0  0  0  0  0  0  0  0  0  0  0
  141.7986   69.3525  228.0212 H   0  0  0  0  0  0  0  0  0  0  0  0
  140.6676   70.1575  229.1187 H   0  0  0  0  0  0  0  0  0  0  0  0
  139.9300   68.1597  227.4000 H   0  0  0  0  0  0  0  0  0  0  0  0
  138.7986   69.4157  227.9045 H   0  0  0  0  0  0  0  0  0  0  0  0
  140.1598   71.5016  224.2004 H   0  0  0  0  0  0  0  0  0  0  0  0
  137.9701   75.8481  223.2226 H   0  0  0  0  0  0  0  0  0  0  0  0
  138.4857   78.2603  223.0158 H   0  0  0  0  0  0  0  0  0  0  0  0
  140.0842   79.4506  219.8086 H   0  0  0  0  0  0  0  0  0  0  0  0
  140.7286   81.8531  219.5712 H   0  0  0  0  0  0  0  0  0  0  0  0
  142.1012   81.8388  223.6614 H   0  0  0  0  0  0  0  0  0  0  0  0
  141.4595   79.4280  223.8948 H   0  0  0  0  0  0  0  0  0  0  0  0
  142.1590   77.2276  221.0285 H   0  0  0  0  0  0  0  0  0  0  0  0
  1  2  2  0
  2  3  1  0
  3  4  1  0
  4  5  1  0
  5  6  2  0
  6  7  1  0
  7  8  2  0
  8  9  1  0
  9 10  1  0
 10 11  2  0
 10 12  1  0
 12 13  1  0
 13 14  1  0
 14 15  1  0
 15 16  1  0
  9 17  2  0
  4 18  2  0
 18 19  1  0
 19 20  2  0
 20 21  1  0
 21 22  2  0
 22 23  1  0
 23 24  2  0
 24 25  1  0
 25 26  2  0
 26 27  1  0
 26 28  1  0
 28 29  2  0
 22 30  1  0
 30 31  2  0
 31  2  1  0
 17  5  1  0
 31 19  1  0
 16 12  1  0
 29 23  1  0
  3 32  1  0
  3 33  1  0
  6 34  1  0
  7 35  1  0
  8 36  1  0
 13 37  1  0
 13 38  1  0
 14 39  1  0
 14 40  1  0
 15 41  1  0
 15 42  1  0
 16 43  1  0
 16 44  1  0
 17 45  1  0
 20 46  1  0
 21 47  1  0
 24 48  1  0
 25 49  1  0
 28 50  1  0
 29 51  1  0
 30 52  1  0
M  END
>  <smiles>  (2) 
O=C1CC(c2cccc(C(=O)N3CCCC3)c2)=Nc2ccc(-c3ccc(F)cc3)cc21

>  <score_type>  (2) 
oracle

>  <origin>  (2) 
autodockgpu

>  <m_score__min__energy>  (2) 
-9.1199999999999992

>  <m_primary>  (2) 
energy

>  <rmsd>  (2) 
6.199442675056223

>  <m_score__min__rmsd>  (2) 
6.199442675056223

>  <meeko>  (2) 
{"free_energy": -9.12, "intermolecular_energy": -10.01, "internal_energy": -0.77, "cluster_size": 40, "cluster_id": 1, "rank_in_cluster": 3}

>  <energy>  (2) 
-9.12

>  <cluster_rmsd>  (2) 
0.09

>  <cluster>  (2) 
1

$$$$

     RDKit          3D

 52 56  0  0  0  0  0  0  0  0999 V2000
  142.3110   74.7840  218.6410 O   0  0  0  0  0  0  0  0  0  0  0  0
  141.7000   74.7560  219.7570 C   0  0  0  0  0  0  0  0  0  0  0  0
  141.4030   73.4370  220.3680 C   0  0  0  0  0  0  0  0  0  0  0  0
  140.6920   73.6310  221.6530 C   0  0  0  0  0  0  0  0  0  0  0  0
  140.3120   72.4210  222.4140 C   0  0  0  0  0  0  0  0  0  0  0  0
  139.5990   71.3930  221.8240 C   0  0  0  0  0  0  0  0  0  0  0  0
  139.2240   70.2500  222.4880 C   0  0  0  0  0  0  0  0  0  0  0  0
  139.5930   70.1420  223.8260 C   0  0  0  0  0  0  0  0  0  0  0  0
  140.3070   71.1350  224.4740 C   0  0  0  0  0  0  0  0  0  0  0  0
  140.6820   71.0060  225.8680 C   0  0  0  0  0  0  0  0  0  0  0  0
  141.0450   72.0710  226.4670 O   0  0  0  0  0  0  0  0  0  0  0  0
  140.6520   69.7600  226.5450 N   0  0  0  0  0  0  0  0  0  0  0  0
  140.2780   68.4440  226.0670 C   0  0  0  0  0  0  0  0  0  0  0  0
  139.6110   67.7680  227.2280 C   0  0  0  0  0  0  0  0  0  0  0  0
  140.0520   68.5120  228.4320 C   0  0  0  0  0  0  0  0  0  0  0  0
  141.0140   69.5410  227.9430 C   0  0  0  0  0  0  0  0  0  0  0  0
  140.6510   72.2650  223.7330 C   0  0  0  0  0  0  0  0  0  0  0  0
  140.3850   74.7660  222.1520 N   0  0  0  0  0  0  0  0  0  0  0  0
  140.6750   76.0240  221.5580 C   0  0  0  0  0  0  0  0  0  0  0  0
  140.3280   77.2310  222.1270 C   0  0  0  0  0  0  0  0  0  0  0  0
  140.6290   78.4280  221.5160 C   0  0  0  0  0  0  0  0  0  0  0  0
  141.2960   78.4110  220.3010 C   0  0  0  0  0  0  0  0  0  0  0  0
  141.6500   79.6390  219.5900 C   0  0  0  0  0  0  0  0  0  0  0  0
  141.3680   80.8870  220.1050 C   0  0  0  0  0  0  0  0  0  0  0  0
  141.7090   82.0540  219.4190 C   0  0  0  0  0  0  0  0  0  0  0  0
  142.3480   81.9270  218.1940 C   0  0  0  0  0  0  0  0  0  0  0  0
  142.7070   83.0270  217.4770 F   0  0  0  0  0  0  0  0  0  0  0  0
  142.6400   80.6840  217.6630 C   0  0  0  0  0  0  0  0  0  0  0  0
  142.2950   79.5180  218.3540 C   0  0  0  0  0  0  0  0  0  0  0  0
  141.6400   77.1950  219.7370 C   0  0  0  0  0  0  0  0  0  0  0  0
  141.3310   76.0270  220.3620 C   0  0  0  0  0  0  0  0  0  0  0  0
  140.7702   72.8516  219.6847 H   0  0  0  0  0  0  0  0  0  0  0  0
  142.3452   72.8995  220.5504 H   0  0  0  0  0  0  0  0  0  0  0  0
  139.3169   71.4961  220.7658 H   0  0  0  0  0  0  0  0  0  0  0  0
  138.6563   69.4541  221.9838 H   0  0  0  0  0  0  0  0  0  0  0  0
  139.3081   69.2390  224.3859 H   0  0  0  0  0  0  0  0  0  0  0  0
  139.5820   68.5268  225.2192 H   0  0  0  0  0  0  0  0  0  0  0  0
  141.1509   67.8765  225.7121 H   0  0  0  0  0  0  0  0  0  0  0  0
  138.5170   67.8190  227.1248 H   0  0  0  0  0  0  0  0  0  0  0  0
  139.8800   66.7031  227.2873 H   0  0  0  0  0  0  0  0  0  0  0  0
  139.1923   68.9930  228.9214 H   0  0  0  0  0  0  0  0  0  0  0  0
  140.5149   67.8446  229.1738 H   0  0  0  0  0  0  0  0  0  0  0  0
  140.9112   70.4720  228.5198 H   0  0  0  0  0  0  0  0  0  0  0  0
  142.0592   69.2166  228.0541 H   0  0  0  0  0  0  0  0  0  0  0  0
  141.2191   73.0661  224.2285 H   0  0  0  0  0  0  0  0  0  0  0  0
  139.7986   77.2381  223.0912 H   0  0  0  0  0  0  0  0  0  0  0  0
  140.3448   79.3818  221.9845 H   0  0  0  0  0  0  0  0  0  0  0  0
  140.8626   80.9646  221.0789 H   0  0  0  0  0  0  0  0  0  0  0  0
  141.4780   83.0448  219.8372 H   0  0  0  0  0  0  0  0  0  0  0  0
  143.1475   80.6118  216.6897 H   0  0  0  0  0  0  0  0  0  0  0  0
  142.5256   78.5274  217.9351 H   0  0  0  0  0  0  0  0  0  0  0  0
  142.1690   77.1727  218.7728 H   0  0  0  0  0  0  0  0  0  0  0  0
  1  2  2  0
  2  3  1  0
  3  4  1  0
  4  5  1  0
  5  6  2  0
  6  7  1  0
  7  8  2  0
  8  9  1  0
  9 10  1  0
 10 11  2  0
 10 12  1  0
 12 13  1  0
 13 14  1  0
 14 15  1  0
 15 16  1  0
  9 17  2  0
  4 18  2  0
 18 19  1  0
 19 20  2  0
 20 21  1  0
 21 22  2  0
 22 23  1  0
 23 24  2  0
 24 25  1  0
 25 26  2  0
 26 27  1  0
 26 28  1  0
 28 29  2  0
 22 30  1  0
 30 31  2  0
 31  2  1  0
 17  5  1  0
 31 19  1  0
 16 12  1  0
 29 23  1  0
  3 32  1  0
  3 33  1  0
  6 34  1  0
  7 35  1  0
  8 36  1  0
 13 37  1  0
 13 38  1  0
 14 39  1  0
 14 40  1  0
 15 41  1  0
 15 42  1  0
 16 43  1  0
 16 44  1  0
 17 45  1  0
 20 46  1  0
 21 47  1  0
 24 48  1  0
 25 49  1  0
 28 50  1  0
 29 51  1  0
 30 52  1  0
M  END
>  <smiles>  (3) 
O=C1CC(c2cccc(C(=O)N3CCCC3)c2)=Nc2ccc(-c3ccc(F)cc3)cc21

>  <score_type>  (3) 
oracle

>  <origin>  (3) 
autodockgpu

>  <m_score__min__energy>  (3) 
-9.1199999999999992

>  <m_primary>  (3) 
energy

>  <rmsd>  (3) 
7.394948092053366

>  <m_score__min__rmsd>  (3) 
7.394948092053366

>  <meeko>  (3) 
{"free_energy": -8.63, "intermolecular_energy": -9.53, "internal_energy": -0.73, "cluster_size": 40, "cluster_id": 1, "rank_in_cluster": 35}

>  <energy>  (3) 
-9.12

>  <cluster_rmsd>  (3) 
0.1

>  <cluster>  (3) 
1

$$$$

     RDKit          3D

 52 56  0  0  0  0  0  0  0  0999 V2000
  142.9060   74.9410  220.5590 O   0  0  0  0  0  0  0  0  0  0  0  0
  141.8340   74.5470  221.1210 C   0  0  0  0  0  0  0  0  0  0  0  0
  141.5770   73.0890  221.2120 C   0  0  0  0  0  0  0  0  0  0  0  0
  140.2850   72.8520  221.8970 C   0  0  0  0  0  0  0  0  0  0  0  0
  139.8570   71.4480  222.0830 C   0  0  0  0  0  0  0  0  0  0  0  0
  139.4460   70.6720  221.0150 C   0  0  0  0  0  0  0  0  0  0  0  0
  139.0410   69.3650  221.1380 C   0  0  0  0  0  0  0  0  0  0  0  0
  139.0550   68.8120  222.4160 C   0  0  0  0  0  0  0  0  0  0  0  0
  139.4560   69.5360  223.5250 C   0  0  0  0  0  0  0  0  0  0  0  0
  139.4640   68.9440  224.8480 C   0  0  0  0  0  0  0  0  0  0  0  0
  139.1940   67.7000  224.9230 O   0  0  0  0  0  0  0  0  0  0  0  0
  139.7570   69.7000  226.0110 N   0  0  0  0  0  0  0  0  0  0  0  0
  140.0870   71.1030  226.1560 C   0  0  0  0  0  0  0  0  0  0  0  0
  141.0780   71.1700  227.2800 C   0  0  0  0  0  0  0  0  0  0  0  0
  140.9110   69.9060  228.0370 C   0  0  0  0  0  0  0  0  0  0  0  0
  139.7850   69.1840  227.3780 C   0  0  0  0  0  0  0  0  0  0  0  0
  139.8530   70.8570  223.3210 C   0  0  0  0  0  0  0  0  0  0  0  0
  139.5150   73.7700  222.3380 N   0  0  0  0  0  0  0  0  0  0  0  0
  139.7710   75.1650  222.2460 C   0  0  0  0  0  0  0  0  0  0  0  0
  138.9150   76.1280  222.7350 C   0  0  0  0  0  0  0  0  0  0  0  0
  139.2040   77.4720  222.6240 C   0  0  0  0  0  0  0  0  0  0  0  0
  140.3830   77.8540  222.0040 C   0  0  0  0  0  0  0  0  0  0  0  0
  140.7590   79.2580  221.8470 C   0  0  0  0  0  0  0  0  0  0  0  0
  140.9980   79.8150  220.6080 C   0  0  0  0  0  0  0  0  0  0  0  0
  141.3580   81.1560  220.4680 C   0  0  0  0  0  0  0  0  0  0  0  0
  141.4690   81.9250  221.6170 C   0  0  0  0  0  0  0  0  0  0  0  0
  141.8160   83.2400  221.5460 F   0  0  0  0  0  0  0  0  0  0  0  0
  141.2310   81.3840  222.8680 C   0  0  0  0  0  0  0  0  0  0  0  0
  140.8720   80.0400  223.0020 C   0  0  0  0  0  0  0  0  0  0  0  0
  141.2350   76.8800  221.5160 C   0  0  0  0  0  0  0  0  0  0  0  0
  140.9270   75.5600  221.6390 C   0  0  0  0  0  0  0  0  0  0  0  0
  141.5382   72.6606  220.1996 H   0  0  0  0  0  0  0  0  0  0  0  0
  142.3859   72.6113  221.7842 H   0  0  0  0  0  0  0  0  0  0  0  0
  139.4431   71.1256  220.0129 H   0  0  0  0  0  0  0  0  0  0  0  0
  138.7192   68.7800  220.2638 H   0  0  0  0  0  0  0  0  0  0  0  0
  138.7374   67.7672  222.5480 H   0  0  0  0  0  0  0  0  0  0  0  0
  140.5323   71.4907  225.2279 H   0  0  0  0  0  0  0  0  0  0  0  0
  139.1946   71.7118  226.3633 H   0  0  0  0  0  0  0  0  0  0  0  0
  142.1016   71.2482  226.8849 H   0  0  0  0  0  0  0  0  0  0  0  0
  140.9104   72.0506  227.9175 H   0  0  0  0  0  0  0  0  0  0  0  0
  141.8316   69.3059  227.9884 H   0  0  0  0  0  0  0  0  0  0  0  0
  140.7036   70.0952  229.1006 H   0  0  0  0  0  0  0  0  0  0  0  0
  139.9675   68.0992  227.3787 H   0  0  0  0  0  0  0  0  0  0  0  0
  138.8297   69.3417  227.9000 H   0  0  0  0  0  0  0  0  0  0  0  0
  140.1765   71.4501  224.1891 H   0  0  0  0  0  0  0  0  0  0  0  0
  137.9802   75.8177  223.2249 H   0  0  0  0  0  0  0  0  0  0  0  0
  138.5104   78.2279  223.0209 H   0  0  0  0  0  0  0  0  0  0  0  0
  140.9026   79.1877  219.7095 H   0  0  0  0  0  0  0  0  0  0  0  0
  141.5482   81.5904  219.4755 H   0  0  0  0  0  0  0  0  0  0  0  0
  141.3250   82.0161  223.7633 H   0  0  0  0  0  0  0  0  0  0  0  0
  140.6822   79.6059  223.9947 H   0  0  0  0  0  0  0  0  0  0  0  0
  142.1726   77.1756  221.0226 H   0  0  0  0  0  0  0  0  0  0  0  0
  1  2  2  0
  2  3  1  0
  3  4  1  0
  4  5  1  0
  5  6  2  0
  6  7  1  0
  7  8  2  0
  8  9  1  0
  9 10  1  0
 10 11  2  0
 10 12  1  0
 12 13  1  0
 13 14  1  0
 14 15  1  0
 15 16  1  0
  9 17  2  0
  4 18  2  0
 18 19  1  0
 19 20  2  0
 20 21  1  0
 21 22  2  0
 22 23  1  0
 23 24  2  0
 24 25  1  0
 25 26  2  0
 26 27  1  0
 26 28  1  0
 28 29  2  0
 22 30  1  0
 30 31  2  0
 31  2  1  0
 17  5  1  0
 31 19  1  0
 16 12  1  0
 29 23  1  0
  3 32  1  0
  3 33  1  0
  6 34  1  0
  7 35  1  0
  8 36  1  0
 13 37  1  0
 13 38  1  0
 14 39  1  0
 14 40  1  0
 15 41  1  0
 15 42  1  0
 16 43  1  0
 16 44  1  0
 17 45  1  0
 20 46  1  0
 21 47  1  0
 24 48  1  0
 25 49  1  0
 28 50  1  0
 29 51  1  0
 30 52  1  0
M  END
>  <smiles>  (4) 
O=C1CC(c2cccc(C(=O)N3CCCC3)c2)=Nc2ccc(-c3ccc(F)cc3)cc21

>  <score_type>  (4) 
oracle

>  <origin>  (4) 
autodockgpu

>  <m_score__min__energy>  (4) 
-9.1199999999999992

>  <m_primary>  (4) 
energy

>  <rmsd>  (4) 
6.188091748428389

>  <m_score__min__rmsd>  (4) 
6.188091748428389

>  <meeko>  (4) 
{"free_energy": -9.11, "intermolecular_energy": -10.01, "internal_energy": -0.79, "cluster_size": 40, "cluster_id": 1, "rank_in_cluster": 10}

>  <energy>  (4) 
-9.12

>  <cluster_rmsd>  (4) 
0.04

>  <cluster>  (4) 
1

$$$$

     RDKit          3D

 52 56  0  0  0  0  0  0  0  0999 V2000
  142.9200   75.0060  220.5080 O   0  0  0  0  0  0  0  0  0  0  0  0
  141.8620   74.5960  221.0850 C   0  0  0  0  0  0  0  0  0  0  0  0
  141.6270   73.1340  221.1760 C   0  0  0  0  0  0  0  0  0  0  0  0
  140.3490   72.8770  221.8790 C   0  0  0  0  0  0  0  0  0  0  0  0
  139.9440   71.4670  222.0680 C   0  0  0  0  0  0  0  0  0  0  0  0
  139.5940   70.6680  220.9950 C   0  0  0  0  0  0  0  0  0  0  0  0
  139.2130   69.3540  221.1200 C   0  0  0  0  0  0  0  0  0  0  0  0
  139.1840   68.8190  222.4050 C   0  0  0  0  0  0  0  0  0  0  0  0
  139.5230   69.5660  223.5190 C   0  0  0  0  0  0  0  0  0  0  0  0
  139.4870   68.9930  224.8500 C   0  0  0  0  0  0  0  0  0  0  0  0
  139.1960   67.7550  224.9350 O   0  0  0  0  0  0  0  0  0  0  0  0
  139.7600   69.7610  226.0100 N   0  0  0  0  0  0  0  0  0  0  0  0
  140.1070   71.1620  226.1450 C   0  0  0  0  0  0  0  0  0  0  0  0
  141.0680   71.2300  227.2940 C   0  0  0  0  0  0  0  0  0  0  0  0
  140.8630   69.9800  228.0630 C   0  0  0  0  0  0  0  0  0  0  0  0
  139.7450   69.2650  227.3840 C   0  0  0  0  0  0  0  0  0  0  0  0
  139.9000   70.8930  223.3130 C   0  0  0  0  0  0  0  0  0  0  0  0
  139.5730   73.7840  222.3350 N   0  0  0  0  0  0  0  0  0  0  0  0
  139.8080   75.1820  222.2430 C   0  0  0  0  0  0  0  0  0  0  0  0
  138.9470   76.1320  222.7480 C   0  0  0  0  0  0  0  0  0  0  0  0
  139.2150   77.4800  222.6360 C   0  0  0  0  0  0  0  0  0  0  0  0
  140.3790   77.8800  221.9990 C   0  0  0  0  0  0  0  0  0  0  0  0
  140.7340   79.2890  221.8410 C   0  0  0  0  0  0  0  0  0  0  0  0
  140.8550   79.8760  220.5980 C   0  0  0  0  0  0  0  0  0  0  0  0
  141.1940   81.2220  220.4560 C   0  0  0  0  0  0  0  0  0  0  0  0
  141.4080   81.9660  221.6080 C   0  0  0  0  0  0  0  0  0  0  0  0
  141.7420   83.2840  221.5360 F   0  0  0  0  0  0  0  0  0  0  0  0
  141.2900   81.3950  222.8620 C   0  0  0  0  0  0  0  0  0  0  0  0
  140.9510   80.0450  222.9980 C   0  0  0  0  0  0  0  0  0  0  0  0
  141.2380   76.9190  221.4950 C   0  0  0  0  0  0  0  0  0  0  0  0
  140.9490   75.5950  221.6190 C   0  0  0  0  0  0  0  0  0  0  0  0
  141.5794   72.7075  220.1632 H   0  0  0  0  0  0  0  0  0  0  0  0
  142.4509   72.6666  221.7351 H   0  0  0  0  0  0  0  0  0  0  0  0
  139.6221   71.1081  219.9873 H   0  0  0  0  0  0  0  0  0  0  0  0
  138.9422   68.7499  220.2415 H   0  0  0  0  0  0  0  0  0  0  0  0
  138.8822   67.7697  222.5387 H   0  0  0  0  0  0  0  0  0  0  0  0
  140.5827   71.5303  225.2241 H   0  0  0  0  0  0  0  0  0  0  0  0
  139.2185   71.7866  226.3197 H   0  0  0  0  0  0  0  0  0  0  0  0
  142.1028   71.2882  226.9255 H   0  0  0  0  0  0  0  0  0  0  0  0
  140.8958   72.1215  227.9150 H   0  0  0  0  0  0  0  0  0  0  0  0
  141.7758   69.3664  228.0473 H   0  0  0  0  0  0  0  0  0  0  0  0
  140.6302   70.1869  229.1180 H   0  0  0  0  0  0  0  0  0  0  0  0
  139.9118   68.1779  227.4047 H   0  0  0  0  0  0  0  0  0  0  0  0
  138.7787   69.4442  227.8781 H   0  0  0  0  0  0  0  0  0  0  0  0
  140.1734   71.5047  224.1854 H   0  0  0  0  0  0  0  0  0  0  0  0
  138.0247   75.8076  223.2521 H   0  0  0  0  0  0  0  0  0  0  0  0
  138.5169   78.2251  223.0452 H   0  0  0  0  0  0  0  0  0  0  0  0
  140.6801   79.2684  219.6979 H   0  0  0  0  0  0  0  0  0  0  0  0
  141.2889   81.6800  219.4604 H   0  0  0  0  0  0  0  0  0  0  0  0
  141.4641   82.0072  223.7592 H   0  0  0  0  0  0  0  0  0  0  0  0
  140.8570   79.5872  223.9938 H   0  0  0  0  0  0  0  0  0  0  0  0
  142.1642   77.2287  220.9888 H   0  0  0  0  0  0  0  0  0  0  0  0
  1  2  2  0
  2  3  1  0
  3  4  1  0
  4  5  1  0
  5  6  2  0
  6  7  1  0
  7  8  2  0
  8  9  1  0
  9 10  1  0
 10 11  2  0
 10 12  1  0
 12 13  1  0
 13 14  1  0
 14 15  1  0
 15 16  1  0
  9 17  2  0
  4 18  2  0
 18 19  1  0
 19 20  2  0
 20 21  1  0
 21 22  2  0
 22 23  1  0
 23 24  2  0
 24 25  1  0
 25 26  2  0
 26 27  1  0
 26 28  1  0
 28 29  2  0
 22 30  1  0
 30 31  2  0
 31  2  1  0
 17  5  1  0
 31 19  1  0
 16 12  1  0
 29 23  1  0
  3 32  1  0
  3 33  1  0
  6 34  1  0
  7 35  1  0
  8 36  1  0
 13 37  1  0
 13 38  1  0
 14 39  1  0
 14 40  1  0
 15 41  1  0
 15 42  1  0
 16 43  1  0
 16 44  1  0
 17 45  1  0
 20 46  1  0
 21 47  1  0
 24 48  1  0
 25 49  1  0
 28 50  1  0
 29 51  1  0
 30 52  1  0
M  END
>  <smiles>  (5) 
O=C1CC(c2cccc(C(=O)N3CCCC3)c2)=Nc2ccc(-c3ccc(F)cc3)cc21

>  <score_type>  (5) 
oracle

>  <origin>  (5) 
autodockgpu

>  <m_score__min__energy>  (5) 
-9.1199999999999992

>  <m_primary>  (5) 
energy

>  <rmsd>  (5) 
6.208299051845768

>  <m_score__min__rmsd>  (5) 
6.208299051845768

>  <meeko>  (5) 
{"free_energy": -9.11, "intermolecular_energy": -10.01, "internal_energy": -0.77, "cluster_size": 40, "cluster_id": 1, "rank_in_cluster": 11}

>  <energy>  (5) 
-9.12

>  <cluster_rmsd>  (5) 
0.02

>  <cluster>  (5) 
1

$$$$

     RDKit          3D

 52 56  0  0  0  0  0  0  0  0999 V2000
  141.5420   81.3050  224.1760 O   0  0  0  0  0  0  0  0  0  0  0  0
  140.9480   80.4730  223.4180 C   0  0  0  0  0  0  0  0  0  0  0  0
  141.7570   79.7050  222.4390 C   0  0  0  0  0  0  0  0  0  0  0  0
  140.8760   78.8000  221.6640 C   0  0  0  0  0  0  0  0  0  0  0  0
  141.5080   77.9480  220.6340 C   0  0  0  0  0  0  0  0  0  0  0  0
  141.9540   78.4750  219.4360 C   0  0  0  0  0  0  0  0  0  0  0  0
  142.5470   77.7240  218.4510 C   0  0  0  0  0  0  0  0  0  0  0  0
  142.6980   76.3610  218.6930 C   0  0  0  0  0  0  0  0  0  0  0  0
  142.2740   75.7730  219.8710 C   0  0  0  0  0  0  0  0  0  0  0  0
  142.4400   74.3530  220.1060 C   0  0  0  0  0  0  0  0  0  0  0  0
  141.3870   73.6350  220.0590 O   0  0  0  0  0  0  0  0  0  0  0  0
  143.7060   73.7750  220.3780 N   0  0  0  0  0  0  0  0  0  0  0  0
  145.0130   74.3920  220.4780 C   0  0  0  0  0  0  0  0  0  0  0  0
  145.9770   73.3880  219.9200 C   0  0  0  0  0  0  0  0  0  0  0  0
  145.2720   72.0840  219.9750 C   0  0  0  0  0  0  0  0  0  0  0  0
  143.9610   72.3590  220.6270 C   0  0  0  0  0  0  0  0  0  0  0  0
  141.6810   76.6010  220.8240 C   0  0  0  0  0  0  0  0  0  0  0  0
  139.6120   78.7030  221.8210 N   0  0  0  0  0  0  0  0  0  0  0  0
  138.8470   79.4440  222.7630 C   0  0  0  0  0  0  0  0  0  0  0  0
  137.4820   79.3110  222.9040 C   0  0  0  0  0  0  0  0  0  0  0  0
  136.7800   80.0500  223.8310 C   0  0  0  0  0  0  0  0  0  0  0  0
  137.4670   80.9450  224.6350 C   0  0  0  0  0  0  0  0  0  0  0  0
  136.7930   81.7640  225.6410 C   0  0  0  0  0  0  0  0  0  0  0  0
  136.4610   81.2670  226.8840 C   0  0  0  0  0  0  0  0  0  0  0  0
  135.8160   82.0560  227.8380 C   0  0  0  0  0  0  0  0  0  0  0  0
  135.5170   83.3690  227.5030 C   0  0  0  0  0  0  0  0  0  0  0  0
  134.8890   84.1900  228.3910 F   0  0  0  0  0  0  0  0  0  0  0  0
  135.8440   83.8860  226.2620 C   0  0  0  0  0  0  0  0  0  0  0  0
  136.4880   83.0900  225.3110 C   0  0  0  0  0  0  0  0  0  0  0  0
  138.8370   81.0710  224.4860 C   0  0  0  0  0  0  0  0  0  0  0  0
  139.5070   80.3290  223.5630 C   0  0  0  0  0  0  0  0  0  0  0  0
  142.2594   80.4025  221.7526 H   0  0  0  0  0  0  0  0  0  0  0  0
  142.5096   79.1090  222.9761 H   0  0  0  0  0  0  0  0  0  0  0  0
  141.8270   79.5538  219.2626 H   0  0  0  0  0  0  0  0  0  0  0  0
  142.8885   78.1801  217.5101 H   0  0  0  0  0  0  0  0  0  0  0  0
  143.1692   75.7322  217.9232 H   0  0  0  0  0  0  0  0  0  0  0  0
  145.0445   75.3218  219.8911 H   0  0  0  0  0  0  0  0  0  0  0  0
  145.2588   74.6585  221.5165 H   0  0  0  0  0  0  0  0  0  0  0  0
  146.2362   73.6408  218.8813 H   0  0  0  0  0  0  0  0  0  0  0  0
  146.9174   73.3664  220.4902 H   0  0  0  0  0  0  0  0  0  0  0  0
  145.1196   71.6878  218.9602 H   0  0  0  0  0  0  0  0  0  0  0  0
  145.8518   71.3333  220.5320 H   0  0  0  0  0  0  0  0  0  0  0  0
  143.1695   71.7391  220.1807 H   0  0  0  0  0  0  0  0  0  0  0  0
  143.9761   72.1241  221.7015 H   0  0  0  0  0  0  0  0  0  0  0  0
  141.3373   76.1543  221.7686 H   0  0  0  0  0  0  0  0  0  0  0  0
  136.9416   78.5994  222.2624 H   0  0  0  0  0  0  0  0  0  0  0  0
  135.6910   79.9313  223.9312 H   0  0  0  0  0  0  0  0  0  0  0  0
  136.7104   80.2241  227.1294 H   0  0  0  0  0  0  0  0  0  0  0  0
  135.5527   81.6492  228.8255 H   0  0  0  0  0  0  0  0  0  0  0  0
  135.5954   84.9304  226.0224 H   0  0  0  0  0  0  0  0  0  0  0  0
  136.7500   83.4969  224.3232 H   0  0  0  0  0  0  0  0  0  0  0  0
  139.3904   81.7788  225.1207 H   0  0  0  0  0  0  0  0  0  0  0  0
  1  2  2  0
  2  3  1  0
  3  4  1  0
  4  5  1  0
  5  6  2  0
  6  7  1  0
  7  8  2  0
  8  9  1  0
  9 10  1  0
 10 11  2  0
 10 12  1  0
 12 13  1  0
 13 14  1  0
 14 15  1  0
 15 16  1  0
  9 17  2  0
  4 18  2  0
 18 19  1  0
 19 20  2  0
 20 21  1  0
 21 22  2  0
 22 23  1  0
 23 24  2  0
 24 25  1  0
 25 26  2  0
 26 27  1  0
 26 28  1  0
 28 29  2  0
 22 30  1  0
 30 31  2  0
 31  2  1  0
 17  5  1  0
 31 19  1  0
 16 12  1  0
 29 23  1  0
  3 32  1  0
  3 33  1  0
  6 34  1  0
  7 35  1  0
  8 36  1  0
 13 37  1  0
 13 38  1  0
 14 39  1  0
 14 40  1  0
 15 41  1  0
 15 42  1  0
 16 43  1  0
 16 44  1  0
 17 45  1  0
 20 46  1  0
 21 47  1  0
 24 48  1  0
 25 49  1  0
 28 50  1  0
 29 51  1  0
 30 52  1  0
M  END
>  <smiles>  (6) 
O=C1CC(c2cccc(C(=O)N3CCCC3)c2)=Nc2ccc(-c3ccc(F)cc3)cc21

>  <score_type>  (6) 
oracle

>  <origin>  (6) 
autodockgpu

>  <m_score__min__energy>  (6) 
-9.1199999999999992

>  <m_primary>  (6) 
energy

>  <rmsd>  (6) 
9.132505956931878

>  <m_score__min__rmsd>  (6) 
9.132505956931878

>  <meeko>  (6) 
{"free_energy": -8.11, "intermolecular_energy": -9.01, "internal_energy": -0.99, "cluster_size": 9, "cluster_id": 2, "rank_in_cluster": 5}

>  <energy>  (6) 
-9.12

>  <cluster_rmsd>  (6) 
0.07

>  <cluster>  (6) 
1

$$$$

     RDKit          3D

 52 56  0  0  0  0  0  0  0  0999 V2000
  141.5950   81.2510  224.1910 O   0  0  0  0  0  0  0  0  0  0  0  0
  140.9880   80.4440  223.4170 C   0  0  0  0  0  0  0  0  0  0  0  0
  141.7880   79.6570  222.4460 C   0  0  0  0  0  0  0  0  0  0  0  0
  140.8910   78.7880  221.6490 C   0  0  0  0  0  0  0  0  0  0  0  0
  141.5130   77.9230  220.6230 C   0  0  0  0  0  0  0  0  0  0  0  0
  141.9470   78.4350  219.4140 C   0  0  0  0  0  0  0  0  0  0  0  0
  142.5310   77.6730  218.4320 C   0  0  0  0  0  0  0  0  0  0  0  0
  142.6830   76.3120  218.6890 C   0  0  0  0  0  0  0  0  0  0  0  0
  142.2700   75.7390  219.8780 C   0  0  0  0  0  0  0  0  0  0  0  0
  142.4370   74.3210  220.1280 C   0  0  0  0  0  0  0  0  0  0  0  0
  141.3830   73.6030  220.0970 O   0  0  0  0  0  0  0  0  0  0  0  0
  143.7040   73.7460  220.3970 N   0  0  0  0  0  0  0  0  0  0  0  0
  145.0130   74.3630  220.4800 C   0  0  0  0  0  0  0  0  0  0  0  0
  145.9720   73.3520  219.9250 C   0  0  0  0  0  0  0  0  0  0  0  0
  145.2670   72.0500  220.0010 C   0  0  0  0  0  0  0  0  0  0  0  0
  143.9610   72.3320  220.6600 C   0  0  0  0  0  0  0  0  0  0  0  0
  141.6860   76.5770  220.8270 C   0  0  0  0  0  0  0  0  0  0  0  0
  139.6220   78.7300  221.7840 N   0  0  0  0  0  0  0  0  0  0  0  0
  138.8660   79.4890  222.7180 C   0  0  0  0  0  0  0  0  0  0  0  0
  137.4960   79.4000  222.8360 C   0  0  0  0  0  0  0  0  0  0  0  0
  136.8010   80.1540  223.7570 C   0  0  0  0  0  0  0  0  0  0  0  0
  137.5040   81.0200  224.5790 C   0  0  0  0  0  0  0  0  0  0  0  0
  136.8400   81.8540  225.5800 C   0  0  0  0  0  0  0  0  0  0  0  0
  136.5080   83.1690  225.3300 C   0  0  0  0  0  0  0  0  0  0  0  0
  135.8750   83.9580  226.2920 C   0  0  0  0  0  0  0  0  0  0  0  0
  135.5820   83.3800  227.5190 C   0  0  0  0  0  0  0  0  0  0  0  0
  134.9650   84.0970  228.4990 F   0  0  0  0  0  0  0  0  0  0  0  0
  135.9060   82.0620  227.7870 C   0  0  0  0  0  0  0  0  0  0  0  0
  136.5410   81.2780  226.8200 C   0  0  0  0  0  0  0  0  0  0  0  0
  138.8800   81.1030  224.4540 C   0  0  0  0  0  0  0  0  0  0  0  0
  139.5410   80.3460  223.5360 C   0  0  0  0  0  0  0  0  0  0  0  0
  142.3251   80.3425  221.7740 H   0  0  0  0  0  0  0  0  0  0  0  0
  142.5111   79.0323  222.9909 H   0  0  0  0  0  0  0  0  0  0  0  0
  141.8174   79.5115  219.2287 H   0  0  0  0  0  0  0  0  0  0  0  0
  142.8646   78.1181  217.4830 H   0  0  0  0  0  0  0  0  0  0  0  0
  143.1459   75.6734  217.9223 H   0  0  0  0  0  0  0  0  0  0  0  0
  145.0406   75.2865  219.8830 H   0  0  0  0  0  0  0  0  0  0  0  0
  145.2672   74.6402  221.5137 H   0  0  0  0  0  0  0  0  0  0  0  0
  146.2223   73.5927  218.8813 H   0  0  0  0  0  0  0  0  0  0  0  0
  146.9174   73.3364  220.4871 H   0  0  0  0  0  0  0  0  0  0  0  0
  145.1065   71.6421  218.9921 H   0  0  0  0  0  0  0  0  0  0  0  0
  145.8511   71.3061  220.5627 H   0  0  0  0  0  0  0  0  0  0  0  0
  143.1661   71.7072  220.2267 H   0  0  0  0  0  0  0  0  0  0  0  0
  143.9842   72.1089  221.7369 H   0  0  0  0  0  0  0  0  0  0  0  0
  141.3498   76.1409  221.7793 H   0  0  0  0  0  0  0  0  0  0  0  0
  136.9440   78.7110  222.1798 H   0  0  0  0  0  0  0  0  0  0  0  0
  135.7072   80.0697  223.8380 H   0  0  0  0  0  0  0  0  0  0  0  0
  136.7476   83.6064  224.3496 H   0  0  0  0  0  0  0  0  0  0  0  0
  135.6162   85.0066  226.0836 H   0  0  0  0  0  0  0  0  0  0  0  0
  135.6621   81.6282  228.7680 H   0  0  0  0  0  0  0  0  0  0  0  0
  136.8005   80.2297  227.0292 H   0  0  0  0  0  0  0  0  0  0  0  0
  139.4452   81.7878  225.1033 H   0  0  0  0  0  0  0  0  0  0  0  0
  1  2  2  0
  2  3  1  0
  3  4  1  0
  4  5  1  0
  5  6  2  0
  6  7  1  0
  7  8  2  0
  8  9  1  0
  9 10  1  0
 10 11  2  0
 10 12  1  0
 12 13  1  0
 13 14  1  0
 14 15  1  0
 15 16  1  0
  9 17  2  0
  4 18  2  0
 18 19  1  0
 19 20  2  0
 20 21  1  0
 21 22  2  0
 22 23  1  0
 23 24  2  0
 24 25  1  0
 25 26  2  0
 26 27  1  0
 26 28  1  0
 28 29  2  0
 22 30  1  0
 30 31  2  0
 31  2  1  0
 17  5  1  0
 31 19  1  0
 16 12  1  0
 29 23  1  0
  3 32  1  0
  3 33  1  0
  6 34  1  0
  7 35  1  0
  8 36  1  0
 13 37  1  0
 13 38  1  0
 14 39  1  0
 14 40  1  0
 15 41  1  0
 15 42  1  0
 16 43  1  0
 16 44  1  0
 17 45  1  0
 20 46  1  0
 21 47  1  0
 24 48  1  0
 25 49  1  0
 28 50  1  0
 29 51  1  0
 30 52  1  0
M  END
>  <smiles>  (7) 
O=C1CC(c2cccc(C(=O)N3CCCC3)c2)=Nc2ccc(-c3ccc(F)cc3)cc21

>  <score_type>  (7) 
oracle

>  <origin>  (7) 
autodockgpu

>  <m_score__min__energy>  (7) 
-9.1199999999999992

>  <m_primary>  (7) 
energy

>  <rmsd>  (7) 
9.124929422868036

>  <m_score__min__rmsd>  (7) 
9.124929422868036

>  <meeko>  (7) 
{"free_energy": -8.08, "intermolecular_energy": -8.98, "internal_energy": -0.99, "cluster_size": 9, "cluster_id": 2, "rank_in_cluster": 8}

>  <energy>  (7) 
-9.11

>  <cluster_rmsd>  (7) 
0.03

>  <cluster>  (7) 
1

$$$$

     RDKit          3D

 52 56  0  0  0  0  0  0  0  0999 V2000
  137.6860   75.1380  221.2340 O   0  0  0  0  0  0  0  0  0  0  0  0
  138.5910   74.2540  221.3740 C   0  0  0  0  0  0  0  0  0  0  0  0
  138.1960   72.9030  221.8410 C   0  0  0  0  0  0  0  0  0  0  0  0
  139.3950   72.0370  221.9330 C   0  0  0  0  0  0  0  0  0  0  0  0
  139.1970   70.6420  222.3840 C   0  0  0  0  0  0  0  0  0  0  0  0
  138.8620   69.6380  221.4940 C   0  0  0  0  0  0  0  0  0  0  0  0
  138.6690   68.3290  221.8650 C   0  0  0  0  0  0  0  0  0  0  0  0
  138.8250   68.0200  223.2140 C   0  0  0  0  0  0  0  0  0  0  0  0
  139.1600   68.9790  224.1530 C   0  0  0  0  0  0  0  0  0  0  0  0
  139.3180   68.6400  225.5530 C   0  0  0  0  0  0  0  0  0  0  0  0
  139.1000   67.4260  225.8790 O   0  0  0  0  0  0  0  0  0  0  0  0
  139.6960   69.6010  226.5250 N   0  0  0  0  0  0  0  0  0  0  0  0
  139.9890   71.0120  226.3800 C   0  0  0  0  0  0  0  0  0  0  0  0
  141.0820   71.3010  227.3660 C   0  0  0  0  0  0  0  0  0  0  0  0
  141.0340   70.1940  228.3510 C   0  0  0  0  0  0  0  0  0  0  0  0
  139.8760   69.3450  227.9520 C   0  0  0  0  0  0  0  0  0  0  0  0
  139.3400   70.2860  223.7010 C   0  0  0  0  0  0  0  0  0  0  0  0
  140.5850   72.4060  221.6510 N   0  0  0  0  0  0  0  0  0  0  0  0
  140.9520   73.7050  221.2040 C   0  0  0  0  0  0  0  0  0  0  0  0
  142.2480   74.0670  220.9080 C   0  0  0  0  0  0  0  0  0  0  0  0
  142.5600   75.3390  220.4770 C   0  0  0  0  0  0  0  0  0  0  0  0
  141.5410   76.2680  220.3400 C   0  0  0  0  0  0  0  0  0  0  0  0
  141.7910   77.6360  219.8880 C   0  0  0  0  0  0  0  0  0  0  0  0
  141.5300   78.7280  220.6900 C   0  0  0  0  0  0  0  0  0  0  0  0
  141.7710   80.0300  220.2500 C   0  0  0  0  0  0  0  0  0  0  0  0
  142.2870   80.2030  218.9730 C   0  0  0  0  0  0  0  0  0  0  0  0
  142.5440   81.4480  218.4870 F   0  0  0  0  0  0  0  0  0  0  0  0
  142.5560   79.1190  218.1560 C   0  0  0  0  0  0  0  0  0  0  0  0
  142.3110   77.8170  218.6020 C   0  0  0  0  0  0  0  0  0  0  0  0
  140.2430   75.8950  220.6390 C   0  0  0  0  0  0  0  0  0  0  0  0
  139.9620   74.6320  221.0630 C   0  0  0  0  0  0  0  0  0  0  0  0
  137.7247   72.9817  222.8318 H   0  0  0  0  0  0  0  0  0  0  0  0
  137.4832   72.4643  221.1272 H   0  0  0  0  0  0  0  0  0  0  0  0
  138.7437   69.9012  220.4325 H   0  0  0  0  0  0  0  0  0  0  0  0
  138.4025   67.5576  221.1275 H   0  0  0  0  0  0  0  0  0  0  0  0
  138.6772   66.9808  223.5431 H   0  0  0  0  0  0  0  0  0  0  0  0
  140.3276   71.2306  225.3565 H   0  0  0  0  0  0  0  0  0  0  0  0
  139.1001   71.6331  226.5644 H   0  0  0  0  0  0  0  0  0  0  0  0
  142.0588   71.3232  226.8607 H   0  0  0  0  0  0  0  0  0  0  0  0
  140.9466   72.2805  227.8479 H   0  0  0  0  0  0  0  0  0  0  0  0
  141.9661   69.6108  228.3174 H   0  0  0  0  0  0  0  0  0  0  0  0
  140.9244   70.5710  229.3785 H   0  0  0  0  0  0  0  0  0  0  0  0
  140.0961   68.2820  228.1297 H   0  0  0  0  0  0  0  0  0  0  0  0
  138.9713   69.5796  228.5321 H   0  0  0  0  0  0  0  0  0  0  0  0
  139.6078   71.0639  224.4311 H   0  0  0  0  0  0  0  0  0  0  0  0
  143.0520   73.3244  221.0180 H   0  0  0  0  0  0  0  0  0  0  0  0
  143.6003   75.6117  220.2458 H   0  0  0  0  0  0  0  0  0  0  0  0
  141.1226   78.5685  221.6993 H   0  0  0  0  0  0  0  0  0  0  0  0
  141.5583   80.8943  220.8963 H   0  0  0  0  0  0  0  0  0  0  0  0
  142.9656   79.2830  217.1484 H   0  0  0  0  0  0  0  0  0  0  0  0
  142.5227   76.9528  217.9552 H   0  0  0  0  0  0  0  0  0  0  0  0
  139.4287   76.6269  220.5331 H   0  0  0  0  0  0  0  0  0  0  0  0
  1  2  2  0
  2  3  1  0
  3  4  1  0
  4  5  1  0
  5  6  2  0
  6  7  1  0
  7  8  2  0
  8  9  1  0
  9 10  1  0
 10 11  2  0
 10 12  1  0
 12 13  1  0
 13 14  1  0
 14 15  1  0
 15 16  1  0
  9 17  2  0
  4 18  2  0
 18 19  1  0
 19 20  2  0
 20 21  1  0
 21 22  2  0
 22 23  1  0
 23 24  2  0
 24 25  1  0
 25 26  2  0
 26 27  1  0
 26 28  1  0
 28 29  2  0
 22 30  1  0
 30 31  2  0
 31  2  1  0
 17  5  1  0
 31 19  1  0
 16 12  1  0
 29 23  1  0
  3 32  1  0
  3 33  1  0
  6 34  1  0
  7 35  1  0
  8 36  1  0
 13 37  1  0
 13 38  1  0
 14 39  1  0
 14 40  1  0
 15 41  1  0
 15 42  1  0
 16 43  1  0
 16 44  1  0
 17 45  1  0
 20 46  1  0
 21 47  1  0
 24 48  1  0
 25 49  1  0
 28 50  1  0
 29 51  1  0
 30 52  1  0
M  END
>  <smiles>  (8) 
O=C1CC(c2cccc(C(=O)N3CCCC3)c2)=Nc2ccc(-c3ccc(F)cc3)cc21

>  <score_type>  (8) 
oracle

>  <origin>  (8) 
autodockgpu

>  <m_score__min__energy>  (8) 
-9.1199999999999992

>  <m_primary>  (8) 
energy

>  <rmsd>  (8) 
6.078103744051398

>  <m_score__min__rmsd>  (8) 
6.078103744051398

>  <meeko>  (8) 
{"free_energy": -8.19, "intermolecular_energy": -9.08, "internal_energy": -0.76, "cluster_size": 40, "cluster_id": 1, "rank_in_cluster": 39}

>  <energy>  (8) 
-9.11

>  <cluster_rmsd>  (8) 
0.14

>  <cluster>  (8) 
1

$$$$

     RDKit          3D

 52 56  0  0  0  0  0  0  0  0999 V2000
  142.8590   75.0150  220.5420 O   0  0  0  0  0  0  0  0  0  0  0  0
  141.7990   74.6010  221.1130 C   0  0  0  0  0  0  0  0  0  0  0  0
  141.5760   73.1380  221.2170 C   0  0  0  0  0  0  0  0  0  0  0  0
  140.2930   72.8770  221.9100 C   0  0  0  0  0  0  0  0  0  0  0  0
  139.8990   71.4660  222.1100 C   0  0  0  0  0  0  0  0  0  0  0  0
  139.5440   70.6590  221.0450 C   0  0  0  0  0  0  0  0  0  0  0  0
  139.1720   69.3430  221.1800 C   0  0  0  0  0  0  0  0  0  0  0  0
  139.1600   68.8150  222.4680 C   0  0  0  0  0  0  0  0  0  0  0  0
  139.5050   69.5690  223.5750 C   0  0  0  0  0  0  0  0  0  0  0  0
  139.4870   69.0020  224.9090 C   0  0  0  0  0  0  0  0  0  0  0  0
  139.2000   67.7640  225.0030 O   0  0  0  0  0  0  0  0  0  0  0  0
  139.7730   69.7770  226.0620 N   0  0  0  0  0  0  0  0  0  0  0  0
  140.1190   71.1780  226.1860 C   0  0  0  0  0  0  0  0  0  0  0  0
  141.0950   71.2540  227.3220 C   0  0  0  0  0  0  0  0  0  0  0  0
  140.9010   70.0070  228.0990 C   0  0  0  0  0  0  0  0  0  0  0  0
  139.7760   69.2870  227.4380 C   0  0  0  0  0  0  0  0  0  0  0  0
  139.8720   70.8970  223.3580 C   0  0  0  0  0  0  0  0  0  0  0  0
  139.5040   73.7810  222.3480 N   0  0  0  0  0  0  0  0  0  0  0  0
  139.7280   75.1810  222.2430 C   0  0  0  0  0  0  0  0  0  0  0  0
  138.8530   76.1280  222.7290 C   0  0  0  0  0  0  0  0  0  0  0  0
  139.1100   77.4770  222.6050 C   0  0  0  0  0  0  0  0  0  0  0  0
  140.2760   77.8810  221.9760 C   0  0  0  0  0  0  0  0  0  0  0  0
  140.6190   79.2920  221.8060 C   0  0  0  0  0  0  0  0  0  0  0  0
  140.5660   80.1870  222.8540 C   0  0  0  0  0  0  0  0  0  0  0  0
  140.8950   81.5330  222.6820 C   0  0  0  0  0  0  0  0  0  0  0  0
  141.2830   81.9530  221.4180 C   0  0  0  0  0  0  0  0  0  0  0  0
  141.6160   83.2530  221.1860 F   0  0  0  0  0  0  0  0  0  0  0  0
  141.3440   81.0690  220.3560 C   0  0  0  0  0  0  0  0  0  0  0  0
  141.0120   79.7230  220.5340 C   0  0  0  0  0  0  0  0  0  0  0  0
  141.1490   76.9230  221.4920 C   0  0  0  0  0  0  0  0  0  0  0  0
  140.8710   75.5980  221.6270 C   0  0  0  0  0  0  0  0  0  0  0  0
  141.5424   72.7005  220.2083 H   0  0  0  0  0  0  0  0  0  0  0  0
  142.3983   72.6837  221.7892 H   0  0  0  0  0  0  0  0  0  0  0  0
  139.5602   71.0939  220.0348 H   0  0  0  0  0  0  0  0  0  0  0  0
  138.8955   68.7328  220.3075 H   0  0  0  0  0  0  0  0  0  0  0  0
  138.8667   67.7644  222.6099 H   0  0  0  0  0  0  0  0  0  0  0  0
  140.5819   71.5427  225.2572 H   0  0  0  0  0  0  0  0  0  0  0  0
  139.2316   71.8014  226.3698 H   0  0  0  0  0  0  0  0  0  0  0  0
  142.1249   71.3120  226.9400 H   0  0  0  0  0  0  0  0  0  0  0  0
  140.9303   72.1485  227.9406 H   0  0  0  0  0  0  0  0  0  0  0  0
  141.8145   69.3946  228.0747 H   0  0  0  0  0  0  0  0  0  0  0  0
  140.6806   70.2188  229.1557 H   0  0  0  0  0  0  0  0  0  0  0  0
  139.9450   68.2003  227.4615 H   0  0  0  0  0  0  0  0  0  0  0  0
  138.8157   69.4664  227.9435 H   0  0  0  0  0  0  0  0  0  0  0  0
  140.1517   71.5144  224.2244 H   0  0  0  0  0  0  0  0  0  0  0  0
  137.9286   75.8004  223.2272 H   0  0  0  0  0  0  0  0  0  0  0  0
  138.4009   78.2199  222.9990 H   0  0  0  0  0  0  0  0  0  0  0  0
  140.2574   79.8322  223.8484 H   0  0  0  0  0  0  0  0  0  0  0  0
  140.8480   82.2395  223.5238 H   0  0  0  0  0  0  0  0  0  0  0  0
  141.6560   81.4279  219.3641 H   0  0  0  0  0  0  0  0  0  0  0  0
  141.0587   79.0171  219.6916 H   0  0  0  0  0  0  0  0  0  0  0  0
  142.0778   77.2359  220.9927 H   0  0  0  0  0  0  0  0  0  0  0  0
  1  2  2  0
  2  3  1  0
  3  4  1  0
  4  5  1  0
  5  6  2  0
  6  7  1  0
  7  8  2  0
  8  9  1  0
  9 10  1  0
 10 11  2  0
 10 12  1  0
 12 13  1  0
 13 14  1  0
 14 15  1  0
 15 16  1  0
  9 17  2  0
  4 18  2  0
 18 19  1  0
 19 20  2  0
 20 21  1  0
 21 22  2  0
 22 23  1  0
 23 24  2  0
 24 25  1  0
 25 26  2  0
 26 27  1  0
 26 28  1  0
 28 29  2  0
 22 30  1  0
 30 31  2  0
 31  2  1  0
 17  5  1  0
 31 19  1  0
 16 12  1  0
 29 23  1  0
  3 32  1  0
  3 33  1  0
  6 34  1  0
  7 35  1  0
  8 36  1  0
 13 37  1  0
 13 38  1  0
 14 39  1  0
 14 40  1  0
 15 41  1  0
 15 42  1  0
 16 43  1  0
 16 44  1  0
 17 45  1  0
 20 46  1  0
 21 47  1  0
 24 48  1  0
 25 49  1  0
 28 50  1  0
 29 51  1  0
 30 52  1  0
M  END
>  <smiles>  (9) 
O=C1CC(c2cccc(C(=O)N3CCCC3)c2)=Nc2ccc(-c3ccc(F)cc3)cc21

>  <score_type>  (9) 
oracle

>  <origin>  (9) 
autodockgpu

>  <m_score__min__energy>  (9) 
-9.1199999999999992

>  <m_primary>  (9) 
energy

>  <rmsd>  (9) 
6.2086867773383565

>  <m_score__min__rmsd>  (9) 
6.2086867773383565

>  <meeko>  (9) 
{"free_energy": -9.03, "intermolecular_energy": -9.93, "internal_energy": -0.78, "cluster_size": 40, "cluster_id": 1, "rank_in_cluster": 25}

>  <energy>  (9) 
-9.11

>  <cluster_rmsd>  (9) 
0.04

>  <cluster>  (9) 
1

$$$$

     RDKit          3D

 52 56  0  0  0  0  0  0  0  0999 V2000
  142.8280   75.2160  220.4550 O   0  0  0  0  0  0  0  0  0  0  0  0
  141.7860   74.7860  221.0460 C   0  0  0  0  0  0  0  0  0  0  0  0
  141.5780   73.3200  221.1390 C   0  0  0  0  0  0  0  0  0  0  0  0
  140.3140   73.0400  221.8590 C   0  0  0  0  0  0  0  0  0  0  0  0
  139.9370   71.6230  222.0530 C   0  0  0  0  0  0  0  0  0  0  0  0
  139.7060   70.7850  220.9770 C   0  0  0  0  0  0  0  0  0  0  0  0
  139.3550   69.4640  221.1060 C   0  0  0  0  0  0  0  0  0  0  0  0
  139.2300   68.9620  222.3990 C   0  0  0  0  0  0  0  0  0  0  0  0
  139.4480   69.7480  223.5170 C   0  0  0  0  0  0  0  0  0  0  0  0
  139.3140   69.2090  224.8550 C   0  0  0  0  0  0  0  0  0  0  0  0
  138.8710   68.0170  224.9530 O   0  0  0  0  0  0  0  0  0  0  0  0
  139.6560   69.9590  226.0090 N   0  0  0  0  0  0  0  0  0  0  0  0
  140.1710   71.3080  226.1290 C   0  0  0  0  0  0  0  0  0  0  0  0
  141.1090   71.2790  227.2980 C   0  0  0  0  0  0  0  0  0  0  0  0
  140.7350   70.0780  228.0820 C   0  0  0  0  0  0  0  0  0  0  0  0
  139.5510   69.4940  227.3890 C   0  0  0  0  0  0  0  0  0  0  0  0
  139.8020   71.0800  223.3050 C   0  0  0  0  0  0  0  0  0  0  0  0
  139.5280   73.9330  222.3260 N   0  0  0  0  0  0  0  0  0  0  0  0
  139.7370   75.3350  222.2300 C   0  0  0  0  0  0  0  0  0  0  0  0
  138.8650   76.2700  222.7470 C   0  0  0  0  0  0  0  0  0  0  0  0
  139.1080   77.6210  222.6320 C   0  0  0  0  0  0  0  0  0  0  0  0
  140.2560   78.0430  221.9800 C   0  0  0  0  0  0  0  0  0  0  0  0
  140.5830   79.4580  221.8180 C   0  0  0  0  0  0  0  0  0  0  0  0
  140.3940   80.1180  220.6210 C   0  0  0  0  0  0  0  0  0  0  0  0
  140.7100   81.4700  220.4750 C   0  0  0  0  0  0  0  0  0  0  0  0
  141.2220   82.1420  221.5740 C   0  0  0  0  0  0  0  0  0  0  0  0
  141.5500   83.4620  221.4950 F   0  0  0  0  0  0  0  0  0  0  0  0
  141.4170   81.4980  222.7830 C   0  0  0  0  0  0  0  0  0  0  0  0
  141.1000   80.1430  222.9230 C   0  0  0  0  0  0  0  0  0  0  0  0
  141.1250   77.0980  221.4650 C   0  0  0  0  0  0  0  0  0  0  0  0
  140.8620   75.7680  221.5920 C   0  0  0  0  0  0  0  0  0  0  0  0
  141.5244   72.8933  220.1266 H   0  0  0  0  0  0  0  0  0  0  0  0
  142.4174   72.8669  221.6867 H   0  0  0  0  0  0  0  0  0  0  0  0
  139.8091   71.1994  219.9633 H   0  0  0  0  0  0  0  0  0  0  0  0
  139.1799   68.8288  220.2251 H   0  0  0  0  0  0  0  0  0  0  0  0
  138.9491   67.9073  222.5360 H   0  0  0  0  0  0  0  0  0  0  0  0
  140.7076   71.5970  225.2133 H   0  0  0  0  0  0  0  0  0  0  0  0
  139.3633   72.0407  226.2734 H   0  0  0  0  0  0  0  0  0  0  0  0
  142.1505   71.2025  226.9524 H   0  0  0  0  0  0  0  0  0  0  0  0
  141.0357   72.1964  227.9005 H   0  0  0  0  0  0  0  0  0  0  0  0
  141.5650   69.3562  228.0967 H   0  0  0  0  0  0  0  0  0  0  0  0
  140.5080   70.3315  229.1281 H   0  0  0  0  0  0  0  0  0  0  0  0
  139.5814   68.3952  227.4305 H   0  0  0  0  0  0  0  0  0  0  0  0
  138.6042   69.7999  227.8581 H   0  0  0  0  0  0  0  0  0  0  0  0
  139.9806   71.7228  224.1796 H   0  0  0  0  0  0  0  0  0  0  0  0
  137.9551   75.9293  223.2627 H   0  0  0  0  0  0  0  0  0  0  0  0
  138.4022   78.3533  223.0510 H   0  0  0  0  0  0  0  0  0  0  0  0
  139.9849   79.5661  219.7619 H   0  0  0  0  0  0  0  0  0  0  0  0
  140.5572   81.9868  219.5161 H   0  0  0  0  0  0  0  0  0  0  0  0
  141.8240   82.0553  223.6396 H   0  0  0  0  0  0  0  0  0  0  0  0
  141.2540   79.6266  223.8820 H   0  0  0  0  0  0  0  0  0  0  0  0
  142.0388   77.4246  220.9470 H   0  0  0  0  0  0  0  0  0  0  0  0
  1  2  2  0
  2  3  1  0
  3  4  1  0
  4  5  1  0
  5  6  2  0
  6  7  1  0
  7  8  2  0
  8  9  1  0
  9 10  1  0
 10 11  2  0
 10 12  1  0
 12 13  1  0
 13 14  1  0
 14 15  1  0
 15 16  1  0
  9 17  2  0
  4 18  2  0
 18 19  1  0
 19 20  2  0
 20 21  1  0
 21 22  2  0
 22 23  1  0
 23 24  2  0
 24 25  1  0
 25 26  2  0
 26 27  1  0
 26 28  1  0
 28 29  2  0
 22 30  1  0
 30 31  2  0
 31  2  1  0
 17  5  1  0
 31 19  1  0
 16 12  1  0
 29 23  1  0
  3 32  1  0
  3 33  1  0
  6 34  1  0
  7 35  1  0
  8 36  1  0
 13 37  1  0
 13 38  1  0
 14 39  1  0
 14 40  1  0
 15 41  1  0
 15 42  1  0
 16 43  1  0
 16 44  1  0
 17 45  1  0
 20 46  1  0
 21 47  1  0
 24 48  1  0
 25 49  1  0
 28 50  1  0
 29 51  1  0
 30 52  1  0
M  END
>  <smiles>  (10) 
O=C1CC(c2cccc(C(=O)N3CCCC3)c2)=Nc2ccc(-c3ccc(F)cc3)cc21

>  <score_type>  (10) 
oracle

>  <origin>  (10) 
autodockgpu

>  <m_score__min__energy>  (10) 
-9.1199999999999992

>  <m_primary>  (10) 
energy

>  <rmsd>  (10) 
6.263942573299425

>  <m_score__min__rmsd>  (10) 
6.263942573299425

>  <meeko>  (10) 
{"free_energy": -9.01, "intermolecular_energy": -9.9, "internal_energy": -0.79, "cluster_size": 40, "cluster_id": 1, "rank_in_cluster": 27}

>  <energy>  (10) 
-9.11

>  <cluster_rmsd>  (10) 
0.1

>  <cluster>  (10) 
1

$$$$

     RDKit          3D

 52 56  0  0  0  0  0  0  0  0999 V2000
  142.4330   74.4430  218.9720 O   0  0  0  0  0  0  0  0  0  0  0  0
  141.7290   74.4620  220.0330 C   0  0  0  0  0  0  0  0  0  0  0  0
  141.3950   73.1710  220.6840 C   0  0  0  0  0  0  0  0  0  0  0  0
  140.5770   73.4200  221.8940 C   0  0  0  0  0  0  0  0  0  0  0  0
  140.1460   72.2450  222.6810 C   0  0  0  0  0  0  0  0  0  0  0  0
  139.4050   71.2260  222.1100 C   0  0  0  0  0  0  0  0  0  0  0  0
  138.9830   70.1160  222.7990 C   0  0  0  0  0  0  0  0  0  0  0  0
  139.3320   70.0320  224.1450 C   0  0  0  0  0  0  0  0  0  0  0  0
  140.0720   71.0170  224.7750 C   0  0  0  0  0  0  0  0  0  0  0  0
  140.4260   70.9120  226.1760 C   0  0  0  0  0  0  0  0  0  0  0  0
  140.3190   71.9720  226.8770 O   0  0  0  0  0  0  0  0  0  0  0  0
  140.8730   69.6960  226.7530 N   0  0  0  0  0  0  0  0  0  0  0  0
  141.0650   68.3910  226.1530 C   0  0  0  0  0  0  0  0  0  0  0  0
  140.6870   67.4000  227.2130 C   0  0  0  0  0  0  0  0  0  0  0  0
  140.7620   68.1390  228.4960 C   0  0  0  0  0  0  0  0  0  0  0  0
  141.2500   69.5040  228.1510 C   0  0  0  0  0  0  0  0  0  0  0  0
  140.4640   72.1140  224.0090 C   0  0  0  0  0  0  0  0  0  0  0  0
  140.2170   74.5750  222.3060 N   0  0  0  0  0  0  0  0  0  0  0  0
  140.5430   75.8050  221.6730 C   0  0  0  0  0  0  0  0  0  0  0  0
  140.1370   77.0340  222.1480 C   0  0  0  0  0  0  0  0  0  0  0  0
  140.4770   78.2030  221.5030 C   0  0  0  0  0  0  0  0  0  0  0  0
  141.2440   78.1340  220.3500 C   0  0  0  0  0  0  0  0  0  0  0  0
  141.6440   79.3290  219.6090 C   0  0  0  0  0  0  0  0  0  0  0  0
  142.2460   79.2510  218.3700 C   0  0  0  0  0  0  0  0  0  0  0  0
  142.6250   80.3980  217.6710 C   0  0  0  0  0  0  0  0  0  0  0  0
  142.3790   81.6310  218.2560 C   0  0  0  0  0  0  0  0  0  0  0  0
  142.7260   82.7860  217.6240 F   0  0  0  0  0  0  0  0  0  0  0  0
  141.7760   81.7280  219.4970 C   0  0  0  0  0  0  0  0  0  0  0  0
  141.3990   80.5760  220.1940 C   0  0  0  0  0  0  0  0  0  0  0  0
  141.6470   76.8960  219.8810 C   0  0  0  0  0  0  0  0  0  0  0  0
  141.2980   75.7560  220.5380 C   0  0  0  0  0  0  0  0  0  0  0  0
  140.8274   72.5431  219.9815 H   0  0  0  0  0  0  0  0  0  0  0  0
  142.3238   72.6563  220.9712 H   0  0  0  0  0  0  0  0  0  0  0  0
  139.1394   71.3096  221.0458 H   0  0  0  0  0  0  0  0  0  0  0  0
  138.3943   69.3265  222.3090 H   0  0  0  0  0  0  0  0  0  0  0  0
  139.0092   69.1551  224.7253 H   0  0  0  0  0  0  0  0  0  0  0  0
  140.4182   68.2751  225.2708 H   0  0  0  0  0  0  0  0  0  0  0  0
  142.1013   68.2479  225.8131 H   0  0  0  0  0  0  0  0  0  0  0  0
  139.6659   67.0276  227.0437 H   0  0  0  0  0  0  0  0  0  0  0  0
  141.3538   66.5251  227.2081 H   0  0  0  0  0  0  0  0  0  0  0  0
  139.7683   68.1946  228.9645 H   0  0  0  0  0  0  0  0  0  0  0  0
  141.4307   67.6393  229.2123 H   0  0  0  0  0  0  0  0  0  0  0  0
  140.7685   70.2598  228.7889 H   0  0  0  0  0  0  0  0  0  0  0  0
  142.3342   69.6073  228.3053 H   0  0  0  0  0  0  0  0  0  0  0  0
  141.0535   72.9084  224.4901 H   0  0  0  0  0  0  0  0  0  0  0  0
  139.5278   77.0823  223.0626 H   0  0  0  0  0  0  0  0  0  0  0  0
  140.1454   79.1753  221.8964 H   0  0  0  0  0  0  0  0  0  0  0  0
  142.4313   78.2630  217.9233 H   0  0  0  0  0  0  0  0  0  0  0  0
  143.1053   80.3260  216.6840 H   0  0  0  0  0  0  0  0  0  0  0  0
  141.5917   82.7184  219.9387 H   0  0  0  0  0  0  0  0  0  0  0  0
  140.9199   80.6486  221.1815 H   0  0  0  0  0  0  0  0  0  0  0  0
  142.2561   76.8324  218.9672 H   0  0  0  0  0  0  0  0  0  0  0  0
  1  2  2  0
  2  3  1  0
  3  4  1  0
  4  5  1  0
  5  6  2  0
  6  7  1  0
  7  8  2  0
  8  9  1  0
  9 10  1  0
 10 11  2  0
 10 12  1  0
 12 13  1  0
 13 14  1  0
 14 15  1  0
 15 16  1  0
  9 17  2  0
  4 18  2  0
 18 19  1  0
 19 20  2  0
 20 21  1  0
 21 22  2  0
 22 23  1  0
 23 24  2  0
 24 25  1  0
 25 26  2  0
 26 27  1  0
 26 28  1  0
 28 29  2  0
 22 30  1  0
 30 31  2  0
 31  2  1  0
 17  5  1  0
 31 19  1  0
 16 12  1  0
 29 23  1  0
  3 32  1  0
  3 33  1  0
  6 34  1  0
  7 35  1  0
  8 36  1  0
 13 37  1  0
 13 38  1  0
 14 39  1  0
 14 40  1  0
 15 41  1  0
 15 42  1  0
 16 43  1  0
 16 44  1  0
 17 45  1  0
 20 46  1  0
 21 47  1  0
 24 48  1  0
 25 49  1  0
 28 50  1  0
 29 51  1  0
 30 52  1  0
M  END
>  <smiles>  (11) 
O=C1CC(c2cccc(C(=O)N3CCCC3)c2)=Nc2ccc(-c3ccc(F)cc3)cc21

>  <score_type>  (11) 
oracle

>  <origin>  (11) 
autodockgpu

>  <m_score__min__energy>  (11) 
-9.1199999999999992

>  <m_primary>  (11) 
energy

>  <rmsd>  (11) 
7.310922244862033

>  <m_score__min__rmsd>  (11) 
7.310922244862033

>  <meeko>  (11) 
{"free_energy": -8.41, "intermolecular_energy": -9.31, "internal_energy": -0.92, "cluster_size": 40, "cluster_id": 1, "rank_in_cluster": 36}

>  <energy>  (11) 
-9.11

>  <cluster_rmsd>  (11) 
0.05

>  <cluster>  (11) 
1

$$$$

     RDKit          3D

 52 56  0  0  0  0  0  0  0  0999 V2000
  142.8410   75.0280  220.5410 O   0  0  0  0  0  0  0  0  0  0  0  0
  141.7800   74.6080  221.1060 C   0  0  0  0  0  0  0  0  0  0  0  0
  141.5610   73.1440  221.2010 C   0  0  0  0  0  0  0  0  0  0  0  0
  140.2760   72.8760  221.8900 C   0  0  0  0  0  0  0  0  0  0  0  0
  139.8850   71.4630  222.0790 C   0  0  0  0  0  0  0  0  0  0  0  0
  139.5300   70.6620  221.0090 C   0  0  0  0  0  0  0  0  0  0  0  0
  139.1600   69.3460  221.1350 C   0  0  0  0  0  0  0  0  0  0  0  0
  139.1510   68.8080  222.4200 C   0  0  0  0  0  0  0  0  0  0  0  0
  139.4960   69.5550  223.5310 C   0  0  0  0  0  0  0  0  0  0  0  0
  139.4800   68.9790  224.8610 C   0  0  0  0  0  0  0  0  0  0  0  0
  139.1950   67.7390  224.9470 O   0  0  0  0  0  0  0  0  0  0  0  0
  139.7660   69.7450  226.0190 N   0  0  0  0  0  0  0  0  0  0  0  0
  140.1100   71.1460  226.1530 C   0  0  0  0  0  0  0  0  0  0  0  0
  141.0870   71.2160  227.2880 C   0  0  0  0  0  0  0  0  0  0  0  0
  140.8960   69.9630  228.0570 C   0  0  0  0  0  0  0  0  0  0  0  0
  139.7720   69.2450  227.3920 C   0  0  0  0  0  0  0  0  0  0  0  0
  139.8600   70.8850  223.3230 C   0  0  0  0  0  0  0  0  0  0  0  0
  139.4840   73.7760  222.3310 N   0  0  0  0  0  0  0  0  0  0  0  0
  139.7050   75.1760  222.2340 C   0  0  0  0  0  0  0  0  0  0  0  0
  138.8260   76.1190  222.7240 C   0  0  0  0  0  0  0  0  0  0  0  0
  139.0800   77.4690  222.6090 C   0  0  0  0  0  0  0  0  0  0  0  0
  140.2480   77.8800  221.9850 C   0  0  0  0  0  0  0  0  0  0  0  0
  140.5880   79.2920  221.8250 C   0  0  0  0  0  0  0  0  0  0  0  0
  141.4930   79.9230  222.6520 C   0  0  0  0  0  0  0  0  0  0  0  0
  141.8120   81.2720  222.4920 C   0  0  0  0  0  0  0  0  0  0  0  0
  141.1900   81.9720  221.4680 C   0  0  0  0  0  0  0  0  0  0  0  0
  141.4590   83.2910  221.2590 F   0  0  0  0  0  0  0  0  0  0  0  0
  140.2800   81.3560  220.6270 C   0  0  0  0  0  0  0  0  0  0  0  0
  139.9650   80.0040  220.7930 C   0  0  0  0  0  0  0  0  0  0  0  0
  141.1240   76.9260  221.4980 C   0  0  0  0  0  0  0  0  0  0  0  0
  140.8490   75.5990  221.6240 C   0  0  0  0  0  0  0  0  0  0  0  0
  141.5310   72.7121  220.1898 H   0  0  0  0  0  0  0  0  0  0  0  0
  142.3833   72.6884  221.7723 H   0  0  0  0  0  0  0  0  0  0  0  0
  139.5449   71.1036  220.0016 H   0  0  0  0  0  0  0  0  0  0  0  0
  138.8824   68.7420  220.2586 H   0  0  0  0  0  0  0  0  0  0  0  0
  138.8602   67.7557  222.5549 H   0  0  0  0  0  0  0  0  0  0  0  0
  140.5711   71.5182  225.2263 H   0  0  0  0  0  0  0  0  0  0  0  0
  139.2216   71.7663  226.3426 H   0  0  0  0  0  0  0  0  0  0  0  0
  142.1164   71.2783  226.9052 H   0  0  0  0  0  0  0  0  0  0  0  0
  140.9216   72.1060  227.9129 H   0  0  0  0  0  0  0  0  0  0  0  0
  141.8107   69.3527  228.0280 H   0  0  0  0  0  0  0  0  0  0  0  0
  140.6759   70.1673  229.1152 H   0  0  0  0  0  0  0  0  0  0  0  0
  139.9438   68.1586  227.4074 H   0  0  0  0  0  0  0  0  0  0  0  0
  138.8118   69.4184  227.8999 H   0  0  0  0  0  0  0  0  0  0  0  0
  140.1390   71.4968  224.1935 H   0  0  0  0  0  0  0  0  0  0  0  0
  137.9011   75.7863  223.2179 H   0  0  0  0  0  0  0  0  0  0  0  0
  138.3680   78.2078  223.0056 H   0  0  0  0  0  0  0  0  0  0  0  0
  141.9751   79.3492  223.4572 H   0  0  0  0  0  0  0  0  0  0  0  0
  142.5350   81.7658  223.1578 H   0  0  0  0  0  0  0  0  0  0  0  0
  139.8013   81.9338  219.8226 H   0  0  0  0  0  0  0  0  0  0  0  0
  139.2426   79.5099  220.1266 H   0  0  0  0  0  0  0  0  0  0  0  0
  142.0536   77.2438  221.0032 H   0  0  0  0  0  0  0  0  0  0  0  0
  1  2  2  0
  2  3  1  0
  3  4  1  0
  4  5  1  0
  5  6  2  0
  6  7  1  0
  7  8  2  0
  8  9  1  0
  9 10  1  0
 10 11  2  0
 10 12  1  0
 12 13  1  0
 13 14  1  0
 14 15  1  0
 15 16  1  0
  9 17  2  0
  4 18  2  0
 18 19  1  0
 19 20  2  0
 20 21  1  0
 21 22  2  0
 22 23  1  0
 23 24  2  0
 24 25  1  0
 25 26  2  0
 26 27  1  0
 26 28  1  0
 28 29  2  0
 22 30  1  0
 30 31  2  0
 31  2  1  0
 17  5  1  0
 31 19  1  0
 16 12  1  0
 29 23  1  0
  3 32  1  0
  3 33  1  0
  6 34  1  0
  7 35  1  0
  8 36  1  0
 13 37  1  0
 13 38  1  0
 14 39  1  0
 14 40  1  0
 15 41  1  0
 15 42  1  0
 16 43  1  0
 16 44  1  0
 17 45  1  0
 20 46  1  0
 21 47  1  0
 24 48  1  0
 25 49  1  0
 28 50  1  0
 29 51  1  0
 30 52  1  0
M  END
>  <smiles>  (12) 
O=C1CC(c2cccc(C(=O)N3CCCC3)c2)=Nc2ccc(-c3ccc(F)cc3)cc21

>  <score_type>  (12) 
oracle

>  <origin>  (12) 
autodockgpu

>  <m_score__min__energy>  (12) 
-9.1199999999999992

>  <m_primary>  (12) 
energy

>  <rmsd>  (12) 
6.2038668999597135

>  <m_score__min__rmsd>  (12) 
6.2038668999597135

>  <meeko>  (12) 
{"free_energy": -9.09, "intermolecular_energy": -9.98, "internal_energy": -0.77, "cluster_size": 40, "cluster_id": 1, "rank_in_cluster": 20}

>  <energy>  (12) 
-9.11

>  <cluster_rmsd>  (12) 
0.04

>  <cluster>  (12) 
1

$$$$

     RDKit          3D

 52 56  0  0  0  0  0  0  0  0999 V2000
  142.8180   74.8470  220.6950 O   0  0  0  0  0  0  0  0  0  0  0  0
  141.7240   74.4740  221.2280 C   0  0  0  0  0  0  0  0  0  0  0  0
  141.4470   73.0200  221.3350 C   0  0  0  0  0  0  0  0  0  0  0  0
  140.1310   72.8090  221.9820 C   0  0  0  0  0  0  0  0  0  0  0  0
  139.6810   71.4140  222.1770 C   0  0  0  0  0  0  0  0  0  0  0  0
  139.1750   70.6660  221.1300 C   0  0  0  0  0  0  0  0  0  0  0  0
  138.7470   69.3680  221.2620 C   0  0  0  0  0  0  0  0  0  0  0  0
  138.8360   68.7940  222.5280 C   0  0  0  0  0  0  0  0  0  0  0  0
  139.3330   69.4890  223.6160 C   0  0  0  0  0  0  0  0  0  0  0  0
  139.4190   68.8750  224.9260 C   0  0  0  0  0  0  0  0  0  0  0  0
  139.2060   67.6190  224.9880 O   0  0  0  0  0  0  0  0  0  0  0  0
  139.7240   69.6230  226.0910 N   0  0  0  0  0  0  0  0  0  0  0  0
  139.9980   71.0370  226.2500 C   0  0  0  0  0  0  0  0  0  0  0  0
  141.0280   71.1290  227.3360 C   0  0  0  0  0  0  0  0  0  0  0  0
  140.9460   69.8460  228.0740 C   0  0  0  0  0  0  0  0  0  0  0  0
  139.8280   69.0860  227.4460 C   0  0  0  0  0  0  0  0  0  0  0  0
  139.7490   70.8020  223.4030 C   0  0  0  0  0  0  0  0  0  0  0  0
  139.3580   73.7440  222.3830 N   0  0  0  0  0  0  0  0  0  0  0  0
  139.6330   75.1340  222.2760 C   0  0  0  0  0  0  0  0  0  0  0  0
  138.7730   76.1150  222.7210 C   0  0  0  0  0  0  0  0  0  0  0  0
  139.0810   77.4530  222.5970 C   0  0  0  0  0  0  0  0  0  0  0  0
  140.2840   77.8120  222.0090 C   0  0  0  0  0  0  0  0  0  0  0  0
  140.6810   79.2080  221.8410 C   0  0  0  0  0  0  0  0  0  0  0  0
  141.3560   79.8980  222.8270 C   0  0  0  0  0  0  0  0  0  0  0  0
  141.7320   81.2320  222.6580 C   0  0  0  0  0  0  0  0  0  0  0  0
  141.4070   81.8540  221.4610 C   0  0  0  0  0  0  0  0  0  0  0  0
  141.7460   83.1540  221.2360 F   0  0  0  0  0  0  0  0  0  0  0  0
  140.7320   81.1780  220.4610 C   0  0  0  0  0  0  0  0  0  0  0  0
  140.3580   79.8420  220.6370 C   0  0  0  0  0  0  0  0  0  0  0  0
  141.1400   76.8200  221.5650 C   0  0  0  0  0  0  0  0  0  0  0  0
  140.8120   75.5060  221.7000 C   0  0  0  0  0  0  0  0  0  0  0  0
  141.4356   72.5749  220.3291 H   0  0  0  0  0  0  0  0  0  0  0  0
  142.2316   72.5432  221.9409 H   0  0  0  0  0  0  0  0  0  0  0  0
  139.1119   71.1362  220.1376 H   0  0  0  0  0  0  0  0  0  0  0  0
  138.3505   68.8052  220.4041 H   0  0  0  0  0  0  0  0  0  0  0  0
  138.5006   67.7556  222.6670 H   0  0  0  0  0  0  0  0  0  0  0  0
  140.3893   71.4600  225.3130 H   0  0  0  0  0  0  0  0  0  0  0  0
  139.0885   71.6017  226.5029 H   0  0  0  0  0  0  0  0  0  0  0  0
  142.0310   71.2597  226.9037 H   0  0  0  0  0  0  0  0  0  0  0  0
  140.8472   71.9902  227.9961 H   0  0  0  0  0  0  0  0  0  0  0  0
  141.8893   69.2883  227.9784 H   0  0  0  0  0  0  0  0  0  0  0  0
  140.7721   70.0076  229.1481 H   0  0  0  0  0  0  0  0  0  0  0  0
  140.0576   68.0106  227.4197 H   0  0  0  0  0  0  0  0  0  0  0  0
  138.8879   69.1922  228.0072 H   0  0  0  0  0  0  0  0  0  0  0  0
  140.1490   71.3721  224.2544 H   0  0  0  0  0  0  0  0  0  0  0  0
  137.8194   75.8237  223.1855 H   0  0  0  0  0  0  0  0  0  0  0  0
  138.3837   78.2231  222.9587 H   0  0  0  0  0  0  0  0  0  0  0  0
  141.6037   79.3852  223.7681 H   0  0  0  0  0  0  0  0  0  0  0  0
  142.2698   81.7737  223.4501 H   0  0  0  0  0  0  0  0  0  0  0  0
  140.4877   81.6945  219.5211 H   0  0  0  0  0  0  0  0  0  0  0  0
  139.8206   79.3007  219.8444 H   0  0  0  0  0  0  0  0  0  0  0  0
  142.0966   77.0964  221.0975 H   0  0  0  0  0  0  0  0  0  0  0  0
  1  2  2  0
  2  3  1  0
  3  4  1  0
  4  5  1  0
  5  6  2  0
  6  7  1  0
  7  8  2  0
  8  9  1  0
  9 10  1  0
 10 11  2  0
 10 12  1  0
 12 13  1  0
 13 14  1  0
 14 15  1  0
 15 16  1  0
  9 17  2  0
  4 18  2  0
 18 19  1  0
 19 20  2  0
 20 21  1  0
 21 22  2  0
 22 23  1  0
 23 24  2  0
 24 25  1  0
 25 26  2  0
 26 27  1  0
 26 28  1  0
 28 29  2  0
 22 30  1  0
 30 31  2  0
 31  2  1  0
 17  5  1  0
 31 19  1  0
 16 12  1  0
 29 23  1  0
  3 32  1  0
  3 33  1  0
  6 34  1  0
  7 35  1  0
  8 36  1  0
 13 37  1  0
 13 38  1  0
 14 39  1  0
 14 40  1  0
 15 41  1  0
 15 42  1  0
 16 43  1  0
 16 44  1  0
 17 45  1  0
 20 46  1  0
 21 47  1  0
 24 48  1  0
 25 49  1  0
 28 50  1  0
 29 51  1  0
 30 52  1  0
M  END
>  <smiles>  (13) 
O=C1CC(c2cccc(C(=O)N3CCCC3)c2)=Nc2ccc(-c3ccc(F)cc3)cc21

>  <score_type>  (13) 
oracle

>  <origin>  (13) 
autodockgpu

>  <m_score__min__energy>  (13) 
-9.1199999999999992

>  <m_primary>  (13) 
energy

>  <rmsd>  (13) 
6.152274082422234

>  <m_score__min__rmsd>  (13) 
6.152274082422234

>  <meeko>  (13) 
{"free_energy": -8.98, "intermolecular_energy": -9.88, "internal_energy": -0.8, "cluster_size": 40, "cluster_id": 1, "rank_in_cluster": 29}

>  <energy>  (13) 
-9.11

>  <cluster_rmsd>  (13) 
0.18

>  <cluster>  (13) 
1

$$$$

     RDKit          3D

 52 56  0  0  0  0  0  0  0  0999 V2000
  142.9180   74.8630  220.5060 O   0  0  0  0  0  0  0  0  0  0  0  0
  141.8520   74.4730  221.0820 C   0  0  0  0  0  0  0  0  0  0  0  0
  141.5980   73.0150  221.1920 C   0  0  0  0  0  0  0  0  0  0  0  0
  140.3130   72.7840  221.8920 C   0  0  0  0  0  0  0  0  0  0  0  0
  139.8890   71.3820  222.0970 C   0  0  0  0  0  0  0  0  0  0  0  0
  139.4920   70.5860  221.0380 C   0  0  0  0  0  0  0  0  0  0  0  0
  139.0910   69.2800  221.1790 C   0  0  0  0  0  0  0  0  0  0  0  0
  139.0930   68.7490  222.4660 C   0  0  0  0  0  0  0  0  0  0  0  0
  139.4800   69.4930  223.5670 C   0  0  0  0  0  0  0  0  0  0  0  0
  139.4760   68.9230  224.9000 C   0  0  0  0  0  0  0  0  0  0  0  0
  139.2010   67.6820  224.9940 O   0  0  0  0  0  0  0  0  0  0  0  0
  139.7620   69.6980  226.0520 N   0  0  0  0  0  0  0  0  0  0  0  0
  140.0960   71.1030  226.1760 C   0  0  0  0  0  0  0  0  0  0  0  0
  141.0780   71.1860  227.3060 C   0  0  0  0  0  0  0  0  0  0  0  0
  140.9010   69.9350  228.0830 C   0  0  0  0  0  0  0  0  0  0  0  0
  139.7780   69.2060  227.4270 C   0  0  0  0  0  0  0  0  0  0  0  0
  139.8740   70.8120  223.3450 C   0  0  0  0  0  0  0  0  0  0  0  0
  139.5460   73.7060  222.3310 N   0  0  0  0  0  0  0  0  0  0  0  0
  139.7990   75.1010  222.2210 C   0  0  0  0  0  0  0  0  0  0  0  0
  138.9470   76.0680  222.7090 C   0  0  0  0  0  0  0  0  0  0  0  0
  139.2330   77.4100  222.5800 C   0  0  0  0  0  0  0  0  0  0  0  0
  140.4050   77.7880  221.9450 C   0  0  0  0  0  0  0  0  0  0  0  0
  140.7780   79.1900  221.7690 C   0  0  0  0  0  0  0  0  0  0  0  0
  141.4680   79.8880  222.7380 C   0  0  0  0  0  0  0  0  0  0  0  0
  141.8200   81.2280  222.5620 C   0  0  0  0  0  0  0  0  0  0  0  0
  141.4560   81.8470  221.3750 C   0  0  0  0  0  0  0  0  0  0  0  0
  141.7700   83.1510  221.1430 F   0  0  0  0  0  0  0  0  0  0  0  0
  140.7650   81.1620  220.3910 C   0  0  0  0  0  0  0  0  0  0  0  0
  140.4150   79.8210  220.5740 C   0  0  0  0  0  0  0  0  0  0  0  0
  141.2540   76.8090  221.4590 C   0  0  0  0  0  0  0  0  0  0  0  0
  140.9490   75.4910  221.5990 C   0  0  0  0  0  0  0  0  0  0  0  0
  141.5501   72.5751  220.1849 H   0  0  0  0  0  0  0  0  0  0  0  0
  142.4131   72.5450  221.7618 H   0  0  0  0  0  0  0  0  0  0  0  0
  139.4977   71.0224  220.0283 H   0  0  0  0  0  0  0  0  0  0  0  0
  138.7813   68.6788  220.3115 H   0  0  0  0  0  0  0  0  0  0  0  0
  138.7771   67.7055  222.6124 H   0  0  0  0  0  0  0  0  0  0  0  0
  140.5498   71.4734  225.2449 H   0  0  0  0  0  0  0  0  0  0  0  0
  139.2040   71.7181  226.3660 H   0  0  0  0  0  0  0  0  0  0  0  0
  142.1049   71.2545  226.9177 H   0  0  0  0  0  0  0  0  0  0  0  0
  140.9082   72.0777  227.9273 H   0  0  0  0  0  0  0  0  0  0  0  0
  141.8200   69.3312  228.0518 H   0  0  0  0  0  0  0  0  0  0  0  0
  140.6860   70.1424  229.1416 H   0  0  0  0  0  0  0  0  0  0  0  0
  139.9568   68.1208  227.4476 H   0  0  0  0  0  0  0  0  0  0  0  0
  138.8192   69.3763  227.9386 H   0  0  0  0  0  0  0  0  0  0  0  0
  140.1858   71.4210  224.2063 H   0  0  0  0  0  0  0  0  0  0  0  0
  138.0182   75.7620  223.2126 H   0  0  0  0  0  0  0  0  0  0  0  0
  138.5417   78.1690  222.9749 H   0  0  0  0  0  0  0  0  0  0  0  0
  141.7476   79.3773  223.6713 H   0  0  0  0  0  0  0  0  0  0  0  0
  142.3695   81.7763  223.3413 H   0  0  0  0  0  0  0  0  0  0  0  0
  140.4893   81.6762  219.4585 H   0  0  0  0  0  0  0  0  0  0  0  0
  139.8654   79.2730  219.7945 H   0  0  0  0  0  0  0  0  0  0  0  0
  142.1865   77.1003  220.9535 H   0  0  0  0  0  0  0  0  0  0  0  0
  1  2  2  0
  2  3  1  0
  3  4  1  0
  4  5  1  0
  5  6  2  0
  6  7  1  0
  7  8  2  0
  8  9  1  0
  9 10  1  0
 10 11  2  0
 10 12  1  0
 12 13  1  0
 13 14  1  0
 14 15  1  0
 15 16  1  0
  9 17  2  0
  4 18  2  0
 18 19  1  0
 19 20  2  0
 20 21  1  0
 21 22  2  0
 22 23  1  0
 23 24  2  0
 24 25  1  0
 25 26  2  0
 26 27  1  0
 26 28  1  0
 28 29  2  0
 22 30  1  0
 30 31  2  0
 31  2  1  0
 17  5  1  0
 31 19  1  0
 16 12  1  0
 29 23  1  0
  3 32  1  0
  3 33  1  0
  6 34  1  0
  7 35  1  0
  8 36  1  0
 13 37  1  0
 13 38  1  0
 14 39  1  0
 14 40  1  0
 15 41  1  0
 15 42  1  0
 16 43  1  0
 16 44  1  0
 17 45  1  0
 20 46  1  0
 21 47  1  0
 24 48  1  0
 25 49  1  0
 28 50  1  0
 29 51  1  0
 30 52  1  0
M  END
>  <smiles>  (14) 
O=C1CC(c2cccc(C(=O)N3CCCC3)c2)=Nc2ccc(-c3ccc(F)cc3)cc21

>  <score_type>  (14) 
oracle

>  <origin>  (14) 
autodockgpu

>  <m_score__min__energy>  (14) 
-9.1199999999999992

>  <m_primary>  (14) 
energy

>  <rmsd>  (14) 
6.184804016734173

>  <m_score__min__rmsd>  (14) 
6.184804016734173

>  <meeko>  (14) 
{"free_energy": -9.05, "intermolecular_energy": -9.94, "internal_energy": -0.79, "cluster_size": 40, "cluster_id": 1, "rank_in_cluster": 24}

>  <energy>  (14) 
-9.1

>  <cluster_rmsd>  (14) 
0.17

>  <cluster>  (14) 
1

$$$$

     RDKit          3D

 52 56  0  0  0  0  0  0  0  0999 V2000
  141.5410   81.3920  224.1440 O   0  0  0  0  0  0  0  0  0  0  0  0
  140.9440   80.5470  223.4020 C   0  0  0  0  0  0  0  0  0  0  0  0
  141.7470   79.7710  222.4250 C   0  0  0  0  0  0  0  0  0  0  0  0
  140.8630   78.8530  221.6690 C   0  0  0  0  0  0  0  0  0  0  0  0
  141.4900   77.9910  220.6440 C   0  0  0  0  0  0  0  0  0  0  0  0
  141.9350   78.5080  219.4420 C   0  0  0  0  0  0  0  0  0  0  0  0
  142.5240   77.7480  218.4600 C   0  0  0  0  0  0  0  0  0  0  0  0
  142.6690   76.3860  218.7120 C   0  0  0  0  0  0  0  0  0  0  0  0
  142.2440   75.8080  219.8950 C   0  0  0  0  0  0  0  0  0  0  0  0
  142.4040   74.3880  220.1390 C   0  0  0  0  0  0  0  0  0  0  0  0
  141.3450   73.6780  220.1180 O   0  0  0  0  0  0  0  0  0  0  0  0
  143.6710   73.8040  220.3920 N   0  0  0  0  0  0  0  0  0  0  0  0
  144.9850   74.4110  220.4610 C   0  0  0  0  0  0  0  0  0  0  0  0
  145.9290   73.3950  219.8930 C   0  0  0  0  0  0  0  0  0  0  0  0
  145.2170   72.0980  219.9730 C   0  0  0  0  0  0  0  0  0  0  0  0
  143.9200   72.3880  220.6480 C   0  0  0  0  0  0  0  0  0  0  0  0
  141.6570   76.6440  220.8430 C   0  0  0  0  0  0  0  0  0  0  0  0
  139.6010   78.7520  221.8400 N   0  0  0  0  0  0  0  0  0  0  0  0
  138.8410   79.5010  222.7790 C   0  0  0  0  0  0  0  0  0  0  0  0
  137.4790   79.3640  222.9350 C   0  0  0  0  0  0  0  0  0  0  0  0
  136.7810   80.1120  223.8590 C   0  0  0  0  0  0  0  0  0  0  0  0
  137.4730   81.0190  224.6460 C   0  0  0  0  0  0  0  0  0  0  0  0
  136.8040   81.8480  225.6480 C   0  0  0  0  0  0  0  0  0  0  0  0
  136.4790   83.1670  225.4050 C   0  0  0  0  0  0  0  0  0  0  0  0
  135.8420   83.9500  226.3680 C   0  0  0  0  0  0  0  0  0  0  0  0
  135.5370   83.3650  227.5880 C   0  0  0  0  0  0  0  0  0  0  0  0
  134.9150   84.0770  228.5680 F   0  0  0  0  0  0  0  0  0  0  0  0
  135.8540   82.0440  227.8490 C   0  0  0  0  0  0  0  0  0  0  0  0
  136.4940   81.2640  226.8810 C   0  0  0  0  0  0  0  0  0  0  0  0
  138.8400   81.1500  224.4820 C   0  0  0  0  0  0  0  0  0  0  0  0
  139.5050   80.3990  223.5620 C   0  0  0  0  0  0  0  0  0  0  0  0
  142.2399   80.4624  221.7257 H   0  0  0  0  0  0  0  0  0  0  0  0
  142.5070   79.1847  222.9622 H   0  0  0  0  0  0  0  0  0  0  0  0
  141.8111   79.5860  219.2615 H   0  0  0  0  0  0  0  0  0  0  0  0
  142.8662   78.1962  217.5156 H   0  0  0  0  0  0  0  0  0  0  0  0
  143.1363   75.7495  217.9461 H   0  0  0  0  0  0  0  0  0  0  0  0
  145.0125   75.3356  219.8658 H   0  0  0  0  0  0  0  0  0  0  0  0
  145.2534   74.6841  221.4922 H   0  0  0  0  0  0  0  0  0  0  0  0
  146.1691   73.6369  218.8472 H   0  0  0  0  0  0  0  0  0  0  0  0
  146.8801   73.3710  220.4451 H   0  0  0  0  0  0  0  0  0  0  0  0
  145.0423   71.6941  218.9649 H   0  0  0  0  0  0  0  0  0  0  0  0
  145.8023   71.3481  220.5254 H   0  0  0  0  0  0  0  0  0  0  0  0
  143.1155   71.7705  220.2220 H   0  0  0  0  0  0  0  0  0  0  0  0
  143.9536   72.1616  221.7239 H   0  0  0  0  0  0  0  0  0  0  0  0
  141.3129   76.2051  221.7912 H   0  0  0  0  0  0  0  0  0  0  0  0
  136.9362   78.6413  222.3080 H   0  0  0  0  0  0  0  0  0  0  0  0
  135.6933   79.9910  223.9698 H   0  0  0  0  0  0  0  0  0  0  0  0
  136.7279   83.6111  224.4299 H   0  0  0  0  0  0  0  0  0  0  0  0
  135.5889   85.0012  226.1655 H   0  0  0  0  0  0  0  0  0  0  0  0
  135.6008   81.6041  228.8249 H   0  0  0  0  0  0  0  0  0  0  0  0
  136.7484   80.2134  227.0846 H   0  0  0  0  0  0  0  0  0  0  0  0
  139.3959   81.8689  225.1018 H   0  0  0  0  0  0  0  0  0  0  0  0
  1  2  2  0
  2  3  1  0
  3  4  1  0
  4  5  1  0
  5  6  2  0
  6  7  1  0
  7  8  2  0
  8  9  1  0
  9 10  1  0
 10 11  2  0
 10 12  1  0
 12 13  1  0
 13 14  1  0
 14 15  1  0
 15 16  1  0
  9 17  2  0
  4 18  2  0
 18 19  1  0
 19 20  2  0
 20 21  1  0
 21 22  2  0
 22 23  1  0
 23 24  2  0
 24 25  1  0
 25 26  2  0
 26 27  1  0
 26 28  1  0
 28 29  2  0
 22 30  1  0
 30 31  2  0
 31  2  1  0
 17  5  1  0
 31 19  1  0
 16 12  1  0
 29 23  1  0
  3 32  1  0
  3 33  1  0
  6 34  1  0
  7 35  1  0
  8 36  1  0
 13 37  1  0
 13 38  1  0
 14 39  1  0
 14 40  1  0
 15 41  1  0
 15 42  1  0
 16 43  1  0
 16 44  1  0
 17 45  1  0
 20 46  1  0
 21 47  1  0
 24 48  1  0
 25 49  1  0
 28 50  1  0
 29 51  1  0
 30 52  1  0
M  END
>  <smiles>  (15) 
O=C1CC(c2cccc(C(=O)N3CCCC3)c2)=Nc2ccc(-c3ccc(F)cc3)cc21

>  <score_type>  (15) 
oracle

>  <origin>  (15) 
autodockgpu

>  <m_score__min__energy>  (15) 
-9.1199999999999992

>  <m_primary>  (15) 
energy

>  <rmsd>  (15) 
9.167345161595877

>  <m_score__min__rmsd>  (15) 
9.167345161595877

>  <meeko>  (15) 
{"free_energy": -8.1, "intermolecular_energy": -8.99, "internal_energy": -0.98, "cluster_size": 9, "cluster_id": 2, "rank_in_cluster": 7}

>  <energy>  (15) 
-9.1

>  <cluster_rmsd>  (15) 
0.04

>  <cluster>  (15) 
1

$$$$

     RDKit          3D

 52 56  0  0  0  0  0  0  0  0999 V2000
  141.8830   80.7670  224.1990 O   0  0  0  0  0  0  0  0  0  0  0  0
  141.2740   80.1250  223.2830 C   0  0  0  0  0  0  0  0  0  0  0  0
  142.0790   79.3650  222.2950 C   0  0  0  0  0  0  0  0  0  0  0  0
  141.1790   78.6970  221.3260 C   0  0  0  0  0  0  0  0  0  0  0  0
  141.8050   77.8860  220.2600 C   0  0  0  0  0  0  0  0  0  0  0  0
  142.2080   78.4530  219.0650 C   0  0  0  0  0  0  0  0  0  0  0  0
  142.7940   77.7420  218.0460 C   0  0  0  0  0  0  0  0  0  0  0  0
  142.9820   76.3770  218.2500 C   0  0  0  0  0  0  0  0  0  0  0  0
  142.6020   75.7500  219.4220 C   0  0  0  0  0  0  0  0  0  0  0  0
  142.8060   74.3280  219.6170 C   0  0  0  0  0  0  0  0  0  0  0  0
  141.8570   73.5560  219.2580 O   0  0  0  0  0  0  0  0  0  0  0  0
  143.9990   73.8070  220.1780 N   0  0  0  0  0  0  0  0  0  0  0  0
  145.1880   74.4900  220.6470 C   0  0  0  0  0  0  0  0  0  0  0  0
  146.3340   73.5850  220.3070 C   0  0  0  0  0  0  0  0  0  0  0  0
  145.7380   72.2420  220.1070 C   0  0  0  0  0  0  0  0  0  0  0  0
  144.2860   72.3940  220.4090 C   0  0  0  0  0  0  0  0  0  0  0  0
  142.0140   76.5390  220.4110 C   0  0  0  0  0  0  0  0  0  0  0  0
  139.9040   78.7700  221.3460 N   0  0  0  0  0  0  0  0  0  0  0  0
  139.1420   79.5010  222.2970 C   0  0  0  0  0  0  0  0  0  0  0  0
  137.7650   79.5560  222.2870 C   0  0  0  0  0  0  0  0  0  0  0  0
  137.0670   80.2780  223.2310 C   0  0  0  0  0  0  0  0  0  0  0  0
  137.7720   80.9620  224.2080 C   0  0  0  0  0  0  0  0  0  0  0  0
  137.1030   81.7490  225.2430 C   0  0  0  0  0  0  0  0  0  0  0  0
  136.9230   81.2690  226.5230 C   0  0  0  0  0  0  0  0  0  0  0  0
  136.2830   82.0270  227.5040 C   0  0  0  0  0  0  0  0  0  0  0  0
  135.8280   83.2910  227.1580 C   0  0  0  0  0  0  0  0  0  0  0  0
  135.1960   84.0800  228.0700 F   0  0  0  0  0  0  0  0  0  0  0  0
  136.0000   83.7900  225.8790 C   0  0  0  0  0  0  0  0  0  0  0  0
  136.6420   83.0250  224.9000 C   0  0  0  0  0  0  0  0  0  0  0  0
  139.1540   80.9000  224.2110 C   0  0  0  0  0  0  0  0  0  0  0  0
  139.8200   80.1800  223.2670 C   0  0  0  0  0  0  0  0  0  0  0  0
  142.7463   80.0554  221.7584 H   0  0  0  0  0  0  0  0  0  0  0  0
  142.6777   78.6058  222.8195 H   0  0  0  0  0  0  0  0  0  0  0  0
  142.0508   79.5323  218.9225 H   0  0  0  0  0  0  0  0  0  0  0  0
  143.1016   78.2297  217.1092 H   0  0  0  0  0  0  0  0  0  0  0  0
  143.4477   75.7788  217.4530 H   0  0  0  0  0  0  0  0  0  0  0  0
  145.3000   75.4589  220.1384 H   0  0  0  0  0  0  0  0  0  0  0  0
  145.1393   74.6968  221.7263 H   0  0  0  0  0  0  0  0  0  0  0  0
  146.8314   73.9250  219.3867 H   0  0  0  0  0  0  0  0  0  0  0  0
  147.0953   73.5776  221.1010 H   0  0  0  0  0  0  0  0  0  0  0  0
  145.8806   71.9103  219.0679 H   0  0  0  0  0  0  0  0  0  0  0  0
  146.2100   71.4886  220.7548 H   0  0  0  0  0  0  0  0  0  0  0  0
  143.6835   71.7624  219.7396 H   0  0  0  0  0  0  0  0  0  0  0  0
  144.0426   72.0850  221.4363 H   0  0  0  0  0  0  0  0  0  0  0  0
  141.7049   76.0604  221.3519 H   0  0  0  0  0  0  0  0  0  0  0  0
  137.2107   79.0116  221.5083 H   0  0  0  0  0  0  0  0  0  0  0  0
  135.9677   80.3106  223.2090 H   0  0  0  0  0  0  0  0  0  0  0  0
  137.2928   80.2646  226.7767 H   0  0  0  0  0  0  0  0  0  0  0  0
  136.1433   81.6339  228.5218 H   0  0  0  0  0  0  0  0  0  0  0  0
  135.6292   84.7954  225.6305 H   0  0  0  0  0  0  0  0  0  0  0  0
  136.7816   83.4179  223.8821 H   0  0  0  0  0  0  0  0  0  0  0  0
  139.7210   81.4384  224.9847 H   0  0  0  0  0  0  0  0  0  0  0  0
  1  2  2  0
  2  3  1  0
  3  4  1  0
  4  5  1  0
  5  6  2  0
  6  7  1  0
  7  8  2  0
  8  9  1  0
  9 10  1  0
 10 11  2  0
 10 12  1  0
 12 13  1  0
 13 14  1  0
 14 15  1  0
 15 16  1  0
  9 17  2  0
  4 18  2  0
 18 19  1  0
 19 20  2  0
 20 21  1  0
 21 22  2  0
 22 23  1  0
 23 24  2  0
 24 25  1  0
 25 26  2  0
 26 27  1  0
 26 28  1  0
 28 29  2  0
 22 30  1  0
 30 31  2  0
 31  2  1  0
 17  5  1  0
 31 19  1  0
 16 12  1  0
 29 23  1  0
  3 32  1  0
  3 33  1  0
  6 34  1  0
  7 35  1  0
  8 36  1  0
 13 37  1  0
 13 38  1  0
 14 39  1  0
 14 40  1  0
 15 41  1  0
 15 42  1  0
 16 43  1  0
 16 44  1  0
 17 45  1  0
 20 46  1  0
 21 47  1  0
 24 48  1  0
 25 49  1  0
 28 50  1  0
 29 51  1  0
 30 52  1  0
M  END
>  <smiles>  (16) 
O=C1CC(c2cccc(C(=O)N3CCCC3)c2)=Nc2ccc(-c3ccc(F)cc3)cc21

>  <score_type>  (16) 
oracle

>  <origin>  (16) 
autodockgpu

>  <m_score__min__energy>  (16) 
-9.1199999999999992

>  <m_primary>  (16) 
energy

>  <rmsd>  (16) 
9.150248566688159

>  <m_score__min__rmsd>  (16) 
9.150248566688159

>  <meeko>  (16) 
{"free_energy": -8.14, "intermolecular_energy": -9.03, "internal_energy": -0.99, "cluster_size": 9, "cluster_id": 2, "rank_in_cluster": 2}

>  <energy>  (16) 
-9.1

>  <cluster_rmsd>  (16) 
0.2

>  <cluster>  (16) 
1

$$$$

     RDKit          3D

 52 56  0  0  0  0  0  0  0  0999 V2000
  142.8270   74.9970  220.5370 O   0  0  0  0  0  0  0  0  0  0  0  0
  141.7670   74.5800  221.1070 C   0  0  0  0  0  0  0  0  0  0  0  0
  141.5470   73.1170  221.2090 C   0  0  0  0  0  0  0  0  0  0  0  0
  140.2640   72.8530  221.9020 C   0  0  0  0  0  0  0  0  0  0  0  0
  139.8720   71.4410  222.1000 C   0  0  0  0  0  0  0  0  0  0  0  0
  139.5160   70.6350  221.0340 C   0  0  0  0  0  0  0  0  0  0  0  0
  139.1460   69.3190  221.1670 C   0  0  0  0  0  0  0  0  0  0  0  0
  139.1360   68.7880  222.4550 C   0  0  0  0  0  0  0  0  0  0  0  0
  139.4830   69.5410  223.5620 C   0  0  0  0  0  0  0  0  0  0  0  0
  139.4680   68.9720  224.8950 C   0  0  0  0  0  0  0  0  0  0  0  0
  139.1840   67.7320  224.9880 O   0  0  0  0  0  0  0  0  0  0  0  0
  139.7520   69.7450  226.0490 N   0  0  0  0  0  0  0  0  0  0  0  0
  140.0940   71.1470  226.1750 C   0  0  0  0  0  0  0  0  0  0  0  0
  141.0710   71.2240  227.3110 C   0  0  0  0  0  0  0  0  0  0  0  0
  140.8810   69.9750  228.0860 C   0  0  0  0  0  0  0  0  0  0  0  0
  139.7580   69.2520  227.4240 C   0  0  0  0  0  0  0  0  0  0  0  0
  139.8470   70.8700  223.3470 C   0  0  0  0  0  0  0  0  0  0  0  0
  139.4740   73.7550  222.3420 N   0  0  0  0  0  0  0  0  0  0  0  0
  139.6960   75.1550  222.2380 C   0  0  0  0  0  0  0  0  0  0  0  0
  138.8190   76.1010  222.7260 C   0  0  0  0  0  0  0  0  0  0  0  0
  139.0750   77.4500  222.6040 C   0  0  0  0  0  0  0  0  0  0  0  0
  140.2400   77.8570  221.9750 C   0  0  0  0  0  0  0  0  0  0  0  0
  140.5820   79.2680  221.8070 C   0  0  0  0  0  0  0  0  0  0  0  0
  140.0270   80.0390  220.8060 C   0  0  0  0  0  0  0  0  0  0  0  0
  140.3600   81.3850  220.6530 C   0  0  0  0  0  0  0  0  0  0  0  0
  141.2700   81.9380  221.5420 C   0  0  0  0  0  0  0  0  0  0  0  0
  141.6340   83.2470  221.4450 F   0  0  0  0  0  0  0  0  0  0  0  0
  141.8350   81.1810  222.5530 C   0  0  0  0  0  0  0  0  0  0  0  0
  141.4990   79.8320  222.7010 C   0  0  0  0  0  0  0  0  0  0  0  0
  141.1140   76.9010  221.4890 C   0  0  0  0  0  0  0  0  0  0  0  0
  140.8380   75.5740  221.6230 C   0  0  0  0  0  0  0  0  0  0  0  0
  141.5142   72.6807  220.1997 H   0  0  0  0  0  0  0  0  0  0  0  0
  142.3702   72.6633  221.7804 H   0  0  0  0  0  0  0  0  0  0  0  0
  139.5300   71.0717  220.0245 H   0  0  0  0  0  0  0  0  0  0  0  0
  138.8693   68.7101  220.2937 H   0  0  0  0  0  0  0  0  0  0  0  0
  138.8430   67.7371  222.5959 H   0  0  0  0  0  0  0  0  0  0  0  0
  140.5552   71.5146  225.2465 H   0  0  0  0  0  0  0  0  0  0  0  0
  139.2049   71.7676  226.3604 H   0  0  0  0  0  0  0  0  0  0  0  0
  142.1005   71.2856  226.9284 H   0  0  0  0  0  0  0  0  0  0  0  0
  140.9042   72.1170  227.9312 H   0  0  0  0  0  0  0  0  0  0  0  0
  141.7965   69.3657  228.0607 H   0  0  0  0  0  0  0  0  0  0  0  0
  140.6599   70.1845  229.1430 H   0  0  0  0  0  0  0  0  0  0  0  0
  139.9312   68.1659  227.4449 H   0  0  0  0  0  0  0  0  0  0  0  0
  138.7974   69.4266  227.9306 H   0  0  0  0  0  0  0  0  0  0  0  0
  140.1259   71.4865  224.2142 H   0  0  0  0  0  0  0  0  0  0  0  0
  137.8949   75.7718  223.2235 H   0  0  0  0  0  0  0  0  0  0  0  0
  138.3654   78.1914  222.9999 H   0  0  0  0  0  0  0  0  0  0  0  0
  139.3055   79.5817  220.1129 H   0  0  0  0  0  0  0  0  0  0  0  0
  139.9137   81.9905  219.8504 H   0  0  0  0  0  0  0  0  0  0  0  0
  142.5537   81.6439  223.2452 H   0  0  0  0  0  0  0  0  0  0  0  0
  141.9460   79.2267  223.5033 H   0  0  0  0  0  0  0  0  0  0  0  0
  142.0418   77.2160  220.9890 H   0  0  0  0  0  0  0  0  0  0  0  0
  1  2  2  0
  2  3  1  0
  3  4  1  0
  4  5  1  0
  5  6  2  0
  6  7  1  0
  7  8  2  0
  8  9  1  0
  9 10  1  0
 10 11  2  0
 10 12  1  0
 12 13  1  0
 13 14  1  0
 14 15  1  0
 15 16  1  0
  9 17  2  0
  4 18  2  0
 18 19  1  0
 19 20  2  0
 20 21  1  0
 21 22  2  0
 22 23  1  0
 23 24  2  0
 24 25  1  0
 25 26  2  0
 26 27  1  0
 26 28  1  0
 28 29  2  0
 22 30  1  0
 30 31  2  0
 31  2  1  0
 17  5  1  0
 31 19  1  0
 16 12  1  0
 29 23  1  0
  3 32  1  0
  3 33  1  0
  6 34  1  0
  7 35  1  0
  8 36  1  0
 13 37  1  0
 13 38  1  0
 14 39  1  0
 14 40  1  0
 15 41  1  0
 15 42  1  0
 16 43  1  0
 16 44  1  0
 17 45  1  0
 20 46  1  0
 21 47  1  0
 24 48  1  0
 25 49  1  0
 28 50  1  0
 29 51  1  0
 30 52  1  0
M  END
>  <smiles>  (17) 
O=C1CC(c2cccc(C(=O)N3CCCC3)c2)=Nc2ccc(-c3ccc(F)cc3)cc21

>  <score_type>  (17) 
oracle

>  <origin>  (17) 
autodockgpu

>  <m_score__min__energy>  (17) 
-9.1199999999999992

>  <m_primary>  (17) 
energy

>  <rmsd>  (17) 
6.198520013144794

>  <m_score__min__rmsd>  (17) 
6.198520013144794

>  <meeko>  (17) 
{"free_energy": -9.1, "intermolecular_energy": -9.99, "internal_energy": -0.77, "cluster_size": 40, "cluster_id": 1, "rank_in_cluster": 17}

>  <energy>  (17) 
-9.1

>  <cluster_rmsd>  (17) 
0.26

>  <cluster>  (17) 
1

$$$$

     RDKit          3D

 52 56  0  0  0  0  0  0  0  0999 V2000
  142.9280   74.9700  220.5780 O   0  0  0  0  0  0  0  0  0  0  0  0
  141.8550   74.5700  221.1330 C   0  0  0  0  0  0  0  0  0  0  0  0
  141.6050   73.1100  221.2220 C   0  0  0  0  0  0  0  0  0  0  0  0
  140.3090   72.8660  221.8990 C   0  0  0  0  0  0  0  0  0  0  0  0
  139.8880   71.4600  222.0810 C   0  0  0  0  0  0  0  0  0  0  0  0
  139.5050   70.6770  221.0080 C   0  0  0  0  0  0  0  0  0  0  0  0
  139.1080   69.3680  221.1280 C   0  0  0  0  0  0  0  0  0  0  0  0
  139.0970   68.8200  222.4080 C   0  0  0  0  0  0  0  0  0  0  0  0
  139.4690   69.5510  223.5220 C   0  0  0  0  0  0  0  0  0  0  0  0
  139.4520   68.9650  224.8480 C   0  0  0  0  0  0  0  0  0  0  0  0
  139.1780   67.7220  224.9230 O   0  0  0  0  0  0  0  0  0  0  0  0
  139.7240   69.7250  226.0130 N   0  0  0  0  0  0  0  0  0  0  0  0
  140.0540   71.1290  226.1580 C   0  0  0  0  0  0  0  0  0  0  0  0
  141.0240   71.2000  227.3000 C   0  0  0  0  0  0  0  0  0  0  0  0
  140.8410   69.9390  228.0580 C   0  0  0  0  0  0  0  0  0  0  0  0
  139.7270   69.2160  227.3820 C   0  0  0  0  0  0  0  0  0  0  0  0
  139.8610   70.8740  223.3210 C   0  0  0  0  0  0  0  0  0  0  0  0
  139.5320   73.7800  222.3360 N   0  0  0  0  0  0  0  0  0  0  0  0
  139.7810   75.1770  222.2450 C   0  0  0  0  0  0  0  0  0  0  0  0
  138.9180   76.1350  222.7290 C   0  0  0  0  0  0  0  0  0  0  0  0
  139.2000   77.4800  222.6200 C   0  0  0  0  0  0  0  0  0  0  0  0
  140.3810   77.8690  222.0080 C   0  0  0  0  0  0  0  0  0  0  0  0
  140.7510   79.2750  221.8540 C   0  0  0  0  0  0  0  0  0  0  0  0
  140.7520   79.8980  220.6240 C   0  0  0  0  0  0  0  0  0  0  0  0
  141.1080   81.2410  220.4860 C   0  0  0  0  0  0  0  0  0  0  0  0
  141.4620   81.9420  221.6300 C   0  0  0  0  0  0  0  0  0  0  0  0
  141.8190   83.2550  221.5620 F   0  0  0  0  0  0  0  0  0  0  0  0
  141.4660   81.3340  222.8720 C   0  0  0  0  0  0  0  0  0  0  0  0
  141.1100   79.9880  223.0030 C   0  0  0  0  0  0  0  0  0  0  0  0
  141.2420   76.9000  221.5250 C   0  0  0  0  0  0  0  0  0  0  0  0
  140.9390   75.5780  221.6460 C   0  0  0  0  0  0  0  0  0  0  0  0
  141.5750   72.6817  220.2093 H   0  0  0  0  0  0  0  0  0  0  0  0
  142.4127   72.6364  221.7993 H   0  0  0  0  0  0  0  0  0  0  0  0
  139.5190   71.1267  220.0042 H   0  0  0  0  0  0  0  0  0  0  0  0
  138.8109   68.7767  220.2493 H   0  0  0  0  0  0  0  0  0  0  0  0
  138.7829   67.7738  222.5374 H   0  0  0  0  0  0  0  0  0  0  0  0
  140.5172   71.5116  225.2366 H   0  0  0  0  0  0  0  0  0  0  0  0
  139.1588   71.7400  226.3460 H   0  0  0  0  0  0  0  0  0  0  0  0
  142.0549   71.2757  226.9239 H   0  0  0  0  0  0  0  0  0  0  0  0
  140.8459   72.0834  227.9308 H   0  0  0  0  0  0  0  0  0  0  0  0
  141.7615   69.3375  228.0285 H   0  0  0  0  0  0  0  0  0  0  0  0
  140.6139   70.1327  229.1167 H   0  0  0  0  0  0  0  0  0  0  0  0
  139.9081   68.1310  227.3910 H   0  0  0  0  0  0  0  0  0  0  0  0
  138.7626   69.3778  227.8858 H   0  0  0  0  0  0  0  0  0  0  0  0
  140.1612   71.4729  224.1934 H   0  0  0  0  0  0  0  0  0  0  0  0
  137.9822   75.8197  223.2137 H   0  0  0  0  0  0  0  0  0  0  0  0
  138.4994   78.2319  223.0122 H   0  0  0  0  0  0  0  0  0  0  0  0
  140.4657   79.3236  219.7306 H   0  0  0  0  0  0  0  0  0  0  0  0
  141.1079   81.7287  219.5000 H   0  0  0  0  0  0  0  0  0  0  0  0
  141.7511   81.9129  223.7628 H   0  0  0  0  0  0  0  0  0  0  0  0
  141.1122   79.5000  223.9888 H   0  0  0  0  0  0  0  0  0  0  0  0
  142.1814   77.2006  221.0380 H   0  0  0  0  0  0  0  0  0  0  0  0
  1  2  2  0
  2  3  1  0
  3  4  1  0
  4  5  1  0
  5  6  2  0
  6  7  1  0
  7  8  2  0
  8  9  1  0
  9 10  1  0
 10 11  2  0
 10 12  1  0
 12 13  1  0
 13 14  1  0
 14 15  1  0
 15 16  1  0
  9 17  2  0
  4 18  2  0
 18 19  1  0
 19 20  2  0
 20 21  1  0
 21 22  2  0
 22 23  1  0
 23 24  2  0
 24 25  1  0
 25 26  2  0
 26 27  1  0
 26 28  1  0
 28 29  2  0
 22 30  1  0
 30 31  2  0
 31  2  1  0
 17  5  1  0
 31 19  1  0
 16 12  1  0
 29 23  1  0
  3 32  1  0
  3 33  1  0
  6 34  1  0
  7 35  1  0
  8 36  1  0
 13 37  1  0
 13 38  1  0
 14 39  1  0
 14 40  1  0
 15 41  1  0
 15 42  1  0
 16 43  1  0
 16 44  1  0
 17 45  1  0
 20 46  1  0
 21 47  1  0
 24 48  1  0
 25 49  1  0
 28 50  1  0
 29 51  1  0
 30 52  1  0
M  END
>  <smiles>  (18) 
O=C1CC(c2cccc(C(=O)N3CCCC3)c2)=Nc2ccc(-c3ccc(F)cc3)cc21

>  <score_type>  (18) 
oracle

>  <origin>  (18) 
autodockgpu

>  <m_score__min__energy>  (18) 
-9.1199999999999992

>  <m_primary>  (18) 
energy

>  <rmsd>  (18) 
6.1888377027697015

>  <m_score__min__rmsd>  (18) 
6.1888377027697015

>  <meeko>  (18) 
{"free_energy": -9.11, "intermolecular_energy": -10.0, "internal_energy": -0.79, "cluster_size": 40, "cluster_id": 1, "rank_in_cluster": 12}

>  <energy>  (18) 
-9.09

>  <cluster_rmsd>  (18) 
0.27

>  <cluster>  (18) 
1

$$$$

     RDKit          3D

 52 56  0  0  0  0  0  0  0  0999 V2000
  142.8050   75.3090  220.4220 O   0  0  0  0  0  0  0  0  0  0  0  0
  141.7710   74.8750  221.0250 C   0  0  0  0  0  0  0  0  0  0  0  0
  141.5680   73.4080  221.1170 C   0  0  0  0  0  0  0  0  0  0  0  0
  140.3140   73.1230  221.8530 C   0  0  0  0  0  0  0  0  0  0  0  0
  139.9430   71.7050  222.0460 C   0  0  0  0  0  0  0  0  0  0  0  0
  139.7380   70.8600  220.9710 C   0  0  0  0  0  0  0  0  0  0  0  0
  139.3940   69.5360  221.1000 C   0  0  0  0  0  0  0  0  0  0  0  0
  139.2480   69.0400  222.3930 C   0  0  0  0  0  0  0  0  0  0  0  0
  139.4390   69.8340  223.5100 C   0  0  0  0  0  0  0  0  0  0  0  0
  139.2830   69.3010  224.8490 C   0  0  0  0  0  0  0  0  0  0  0  0
  138.8080   68.1210  224.9470 O   0  0  0  0  0  0  0  0  0  0  0  0
  139.6360   70.0440  226.0030 N   0  0  0  0  0  0  0  0  0  0  0  0
  140.1850   71.3800  226.1240 C   0  0  0  0  0  0  0  0  0  0  0  0
  141.1150   71.3290  227.2990 C   0  0  0  0  0  0  0  0  0  0  0  0
  140.7050   70.1400  228.0830 C   0  0  0  0  0  0  0  0  0  0  0  0
  139.5110   69.5850  227.3840 C   0  0  0  0  0  0  0  0  0  0  0  0
  139.7870   71.1670  223.2990 C   0  0  0  0  0  0  0  0  0  0  0  0
  139.5320   74.0120  222.3320 N   0  0  0  0  0  0  0  0  0  0  0  0
  139.7370   75.4160  222.2390 C   0  0  0  0  0  0  0  0  0  0  0  0
  138.8700   76.3460  222.7700 C   0  0  0  0  0  0  0  0  0  0  0  0
  139.1080   77.6990  222.6560 C   0  0  0  0  0  0  0  0  0  0  0  0
  140.2460   78.1250  221.9910 C   0  0  0  0  0  0  0  0  0  0  0  0
  140.5680   79.5420  221.8280 C   0  0  0  0  0  0  0  0  0  0  0  0
  141.1270   80.2850  222.8480 C   0  0  0  0  0  0  0  0  0  0  0  0
  141.4300   81.6370  222.6840 C   0  0  0  0  0  0  0  0  0  0  0  0
  141.1540   82.2240  221.4570 C   0  0  0  0  0  0  0  0  0  0  0  0
  141.4270   83.5390  221.2350 F   0  0  0  0  0  0  0  0  0  0  0  0
  140.5950   81.4940  220.4230 C   0  0  0  0  0  0  0  0  0  0  0  0
  140.2920   80.1400  220.5930 C   0  0  0  0  0  0  0  0  0  0  0  0
  141.1100   77.1840  221.4610 C   0  0  0  0  0  0  0  0  0  0  0  0
  140.8520   75.8540  221.5870 C   0  0  0  0  0  0  0  0  0  0  0  0
  141.5022   72.9837  220.1043 H   0  0  0  0  0  0  0  0  0  0  0  0
  142.4157   72.9556  221.6525 H   0  0  0  0  0  0  0  0  0  0  0  0
  139.8568   71.2700  219.9572 H   0  0  0  0  0  0  0  0  0  0  0  0
  139.2404   68.8951  220.2193 H   0  0  0  0  0  0  0  0  0  0  0  0
  138.9722   67.9841  222.5307 H   0  0  0  0  0  0  0  0  0  0  0  0
  140.7344   71.6535  225.2111 H   0  0  0  0  0  0  0  0  0  0  0  0
  139.3955   72.1334  226.2622 H   0  0  0  0  0  0  0  0  0  0  0  0
  142.1562   71.2245  226.9599 H   0  0  0  0  0  0  0  0  0  0  0  0
  141.0621   72.2493  227.8992 H   0  0  0  0  0  0  0  0  0  0  0  0
  141.5160   69.3971  228.1046 H   0  0  0  0  0  0  0  0  0  0  0  0
  140.4778   70.4019  229.1269 H   0  0  0  0  0  0  0  0  0  0  0  0
  139.5131   68.4859  227.4281 H   0  0  0  0  0  0  0  0  0  0  0  0
  138.5696   69.9163  227.8466 H   0  0  0  0  0  0  0  0  0  0  0  0
  139.9433   71.8154  224.1738 H   0  0  0  0  0  0  0  0  0  0  0  0
  137.9679   76.0011  223.2966 H   0  0  0  0  0  0  0  0  0  0  0  0
  138.4058   78.4283  223.0860 H   0  0  0  0  0  0  0  0  0  0  0  0
  141.3385   79.8001  223.8124 H   0  0  0  0  0  0  0  0  0  0  0  0
  141.8747   82.2208  223.5034 H   0  0  0  0  0  0  0  0  0  0  0  0
  140.3874   81.9829  219.4598 H   0  0  0  0  0  0  0  0  0  0  0  0
  139.8462   79.5569  219.7737 H   0  0  0  0  0  0  0  0  0  0  0  0
  142.0159   77.5145  220.9317 H   0  0  0  0  0  0  0  0  0  0  0  0
  1  2  2  0
  2  3  1  0
  3  4  1  0
  4  5  1  0
  5  6  2  0
  6  7  1  0
  7  8  2  0
  8  9  1  0
  9 10  1  0
 10 11  2  0
 10 12  1  0
 12 13  1  0
 13 14  1  0
 14 15  1  0
 15 16  1  0
  9 17  2  0
  4 18  2  0
 18 19  1  0
 19 20  2  0
 20 21  1  0
 21 22  2  0
 22 23  1  0
 23 24  2  0
 24 25  1  0
 25 26  2  0
 26 27  1  0
 26 28  1  0
 28 29  2  0
 22 30  1  0
 30 31  2  0
 31  2  1  0
 17  5  1  0
 31 19  1  0
 16 12  1  0
 29 23  1  0
  3 32  1  0
  3 33  1  0
  6 34  1  0
  7 35  1  0
  8 36  1  0
 13 37  1  0
 13 38  1  0
 14 39  1  0
 14 40  1  0
 15 41  1  0
 15 42  1  0
 16 43  1  0
 16 44  1  0
 17 45  1  0
 20 46  1  0
 21 47  1  0
 24 48  1  0
 25 49  1  0
 28 50  1  0
 29 51  1  0
 30 52  1  0
M  END
>  <smiles>  (19) 
O=C1CC(c2cccc(C(=O)N3CCCC3)c2)=Nc2ccc(-c3ccc(F)cc3)cc21

>  <score_type>  (19) 
oracle

>  <origin>  (19) 
autodockgpu

>  <m_score__min__energy>  (19) 
-9.1199999999999992

>  <m_primary>  (19) 
energy

>  <rmsd>  (19) 
6.292900718721613

>  <m_score__min__rmsd>  (19) 
6.292900718721613

>  <meeko>  (19) 
{"free_energy": -8.96, "intermolecular_energy": -9.85, "internal_energy": -0.79, "cluster_size": 40, "cluster_id": 1, "rank_in_cluster": 31}

>  <energy>  (19) 
-9.09

>  <cluster_rmsd>  (19) 
0.18

>  <cluster>  (19) 
1

$$$$

     RDKit          3D

 52 56  0  0  0  0  0  0  0  0999 V2000
  142.8540   75.1280  220.4630 O   0  0  0  0  0  0  0  0  0  0  0  0
  141.8120   74.7020  221.0570 C   0  0  0  0  0  0  0  0  0  0  0  0
  141.6030   73.2370  221.1560 C   0  0  0  0  0  0  0  0  0  0  0  0
  140.3400   72.9610  221.8800 C   0  0  0  0  0  0  0  0  0  0  0  0
  139.9610   71.5450  222.0790 C   0  0  0  0  0  0  0  0  0  0  0  0
  139.7180   70.7060  221.0070 C   0  0  0  0  0  0  0  0  0  0  0  0
  139.3650   69.3860  221.1420 C   0  0  0  0  0  0  0  0  0  0  0  0
  139.2520   68.8860  222.4360 C   0  0  0  0  0  0  0  0  0  0  0  0
  139.4830   69.6730  223.5500 C   0  0  0  0  0  0  0  0  0  0  0  0
  139.3620   69.1350  224.8910 C   0  0  0  0  0  0  0  0  0  0  0  0
  138.9560   67.9310  224.9930 O   0  0  0  0  0  0  0  0  0  0  0  0
  139.6750   69.9020  226.0420 N   0  0  0  0  0  0  0  0  0  0  0  0
  140.1450   71.2670  226.1580 C   0  0  0  0  0  0  0  0  0  0  0  0
  141.0800   71.2740  227.3310 C   0  0  0  0  0  0  0  0  0  0  0  0
  140.7410   70.0650  228.1190 C   0  0  0  0  0  0  0  0  0  0  0  0
  139.5790   69.4400  227.4250 C   0  0  0  0  0  0  0  0  0  0  0  0
  139.8380   71.0040  223.3340 C   0  0  0  0  0  0  0  0  0  0  0  0
  139.5560   73.8560  222.3450 N   0  0  0  0  0  0  0  0  0  0  0  0
  139.7670   75.2580  222.2450 C   0  0  0  0  0  0  0  0  0  0  0  0
  138.8980   76.1950  222.7600 C   0  0  0  0  0  0  0  0  0  0  0  0
  139.1420   77.5460  222.6400 C   0  0  0  0  0  0  0  0  0  0  0  0
  140.2890   77.9640  221.9840 C   0  0  0  0  0  0  0  0  0  0  0  0
  140.6170   79.3780  221.8160 C   0  0  0  0  0  0  0  0  0  0  0  0
  140.7400   80.2320  222.8930 C   0  0  0  0  0  0  0  0  0  0  0  0
  141.0540   81.5810  222.7230 C   0  0  0  0  0  0  0  0  0  0  0  0
  141.2420   82.0490  221.4300 C   0  0  0  0  0  0  0  0  0  0  0  0
  141.5500   83.3550  221.1990 F   0  0  0  0  0  0  0  0  0  0  0  0
  141.1240   81.2080  220.3390 C   0  0  0  0  0  0  0  0  0  0  0  0
  140.8090   79.8570  220.5150 C   0  0  0  0  0  0  0  0  0  0  0  0
  141.1550   77.0160  221.4700 C   0  0  0  0  0  0  0  0  0  0  0  0
  140.8910   75.6880  221.6030 C   0  0  0  0  0  0  0  0  0  0  0  0
  141.5468   72.8065  220.1453 H   0  0  0  0  0  0  0  0  0  0  0  0
  142.4432   72.7851  221.7036 H   0  0  0  0  0  0  0  0  0  0  0  0
  139.8126   71.1182  219.9916 H   0  0  0  0  0  0  0  0  0  0  0  0
  139.1792   68.7500  220.2639 H   0  0  0  0  0  0  0  0  0  0  0  0
  138.9702   67.8321  222.5773 H   0  0  0  0  0  0  0  0  0  0  0  0
  140.6750   71.5696  225.2428 H   0  0  0  0  0  0  0  0  0  0  0  0
  139.3131   71.9733  226.2967 H   0  0  0  0  0  0  0  0  0  0  0  0
  142.1247   71.2291  226.9895 H   0  0  0  0  0  0  0  0  0  0  0  0
  140.9759   72.1915  227.9287 H   0  0  0  0  0  0  0  0  0  0  0  0
  141.5935   69.3701  228.1401 H   0  0  0  0  0  0  0  0  0  0  0  0
  140.5017   70.3162  229.1628 H   0  0  0  0  0  0  0  0  0  0  0  0
  139.6442   68.3430  227.4721 H   0  0  0  0  0  0  0  0  0  0  0  0
  138.6210   69.7174  227.8890 H   0  0  0  0  0  0  0  0  0  0  0  0
  140.0273   71.6472  224.2061 H   0  0  0  0  0  0  0  0  0  0  0  0
  137.9888   75.8570  223.2787 H   0  0  0  0  0  0  0  0  0  0  0  0
  138.4379   78.2805  223.0580 H   0  0  0  0  0  0  0  0  0  0  0  0
  140.5869   79.8401  223.9094 H   0  0  0  0  0  0  0  0  0  0  0  0
  141.1497   82.2535  223.5882 H   0  0  0  0  0  0  0  0  0  0  0  0
  141.2791   81.6047  219.3248 H   0  0  0  0  0  0  0  0  0  0  0  0
  140.7141   79.1850  219.6493 H   0  0  0  0  0  0  0  0  0  0  0  0
  142.0675   77.3394  220.9478 H   0  0  0  0  0  0  0  0  0  0  0  0
  1  2  2  0
  2  3  1  0
  3  4  1  0
  4  5  1  0
  5  6  2  0
  6  7  1  0
  7  8  2  0
  8  9  1  0
  9 10  1  0
 10 11  2  0
 10 12  1  0
 12 13  1  0
 13 14  1  0
 14 15  1  0
 15 16  1  0
  9 17  2  0
  4 18  2  0
 18 19  1  0
 19 20  2  0
 20 21  1  0
 21 22  2  0
 22 23  1  0
 23 24  2  0
 24 25  1  0
 25 26  2  0
 26 27  1  0
 26 28  1  0
 28 29  2  0
 22 30  1  0
 30 31  2  0
 31  2  1  0
 17  5  1  0
 31 19  1  0
 16 12  1  0
 29 23  1  0
  3 32  1  0
  3 33  1  0
  6 34  1  0
  7 35  1  0
  8 36  1  0
 13 37  1  0
 13 38  1  0
 14 39  1  0
 14 40  1  0
 15 41  1  0
 15 42  1  0
 16 43  1  0
 16 44  1  0
 17 45  1  0
 20 46  1  0
 21 47  1  0
 24 48  1  0
 25 49  1  0
 28 50  1  0
 29 51  1  0
 30 52  1  0
M  END
>  <smiles>  (20) 
O=C1CC(c2cccc(C(=O)N3CCCC3)c2)=Nc2ccc(-c3ccc(F)cc3)cc21

>  <score_type>  (20) 
oracle

>  <origin>  (20) 
autodockgpu

>  <m_score__min__energy>  (20) 
-9.1199999999999992

>  <m_primary>  (20) 
energy

>  <rmsd>  (20) 
6.242180167771895

>  <m_score__min__rmsd>  (20) 
6.242180167771895

>  <meeko>  (20) 
{"free_energy": -8.96, "intermolecular_energy": -9.85, "internal_energy": -0.77, "cluster_size": 40, "cluster_id": 1, "rank_in_cluster": 30}

>  <energy>  (20) 
-9.09

>  <cluster_rmsd>  (20) 
0.28

>  <cluster>  (20) 
1

$$$$

     RDKit          3D

 52 56  0  0  0  0  0  0  0  0999 V2000
  142.8400   75.0330  220.5640 O   0  0  0  0  0  0  0  0  0  0  0  0
  141.7780   74.6120  221.1260 C   0  0  0  0  0  0  0  0  0  0  0  0
  141.5600   73.1470  221.2220 C   0  0  0  0  0  0  0  0  0  0  0  0
  140.2740   72.8780  221.9060 C   0  0  0  0  0  0  0  0  0  0  0  0
  139.8840   71.4640  222.0960 C   0  0  0  0  0  0  0  0  0  0  0  0
  139.5310   70.6630  221.0250 C   0  0  0  0  0  0  0  0  0  0  0  0
  139.1630   69.3460  221.1510 C   0  0  0  0  0  0  0  0  0  0  0  0
  139.1520   68.8080  222.4360 C   0  0  0  0  0  0  0  0  0  0  0  0
  139.4950   69.5570  223.5480 C   0  0  0  0  0  0  0  0  0  0  0  0
  139.4790   68.9800  224.8780 C   0  0  0  0  0  0  0  0  0  0  0  0
  139.2010   67.7390  224.9630 O   0  0  0  0  0  0  0  0  0  0  0  0
  139.7550   69.7490  226.0370 N   0  0  0  0  0  0  0  0  0  0  0  0
  140.0900   71.1530  226.1710 C   0  0  0  0  0  0  0  0  0  0  0  0
  141.0620   71.2290  227.3100 C   0  0  0  0  0  0  0  0  0  0  0  0
  140.8770   69.9750  228.0780 C   0  0  0  0  0  0  0  0  0  0  0  0
  139.7590   69.2500  227.4090 C   0  0  0  0  0  0  0  0  0  0  0  0
  139.8580   70.8870  223.3400 C   0  0  0  0  0  0  0  0  0  0  0  0
  139.4790   73.7770  222.3440 N   0  0  0  0  0  0  0  0  0  0  0  0
  139.6980   75.1780  222.2470 C   0  0  0  0  0  0  0  0  0  0  0  0
  138.8160   76.1190  222.7320 C   0  0  0  0  0  0  0  0  0  0  0  0
  139.0690   77.4690  222.6170 C   0  0  0  0  0  0  0  0  0  0  0  0
  140.2380   77.8810  221.9970 C   0  0  0  0  0  0  0  0  0  0  0  0
  140.5770   79.2940  221.8370 C   0  0  0  0  0  0  0  0  0  0  0  0
  141.4560   79.9350  222.6850 C   0  0  0  0  0  0  0  0  0  0  0  0
  141.7730   81.2840  222.5240 C   0  0  0  0  0  0  0  0  0  0  0  0
  141.1780   81.9740  221.4780 C   0  0  0  0  0  0  0  0  0  0  0  0
  141.4470   83.2930  221.2680 F   0  0  0  0  0  0  0  0  0  0  0  0
  140.2950   81.3480  220.6160 C   0  0  0  0  0  0  0  0  0  0  0  0
  139.9810   79.9960  220.7830 C   0  0  0  0  0  0  0  0  0  0  0  0
  141.1170   76.9290  221.5130 C   0  0  0  0  0  0  0  0  0  0  0  0
  140.8430   75.6020  221.6400 C   0  0  0  0  0  0  0  0  0  0  0  0
  141.5342   72.7140  220.2111 H   0  0  0  0  0  0  0  0  0  0  0  0
  142.3806   72.6932  221.7970 H   0  0  0  0  0  0  0  0  0  0  0  0
  139.5459   71.1049  220.0178 H   0  0  0  0  0  0  0  0  0  0  0  0
  138.8884   68.7413  220.2741 H   0  0  0  0  0  0  0  0  0  0  0  0
  138.8618   67.7556  222.5709 H   0  0  0  0  0  0  0  0  0  0  0  0
  140.5526   71.5273  225.2459 H   0  0  0  0  0  0  0  0  0  0  0  0
  139.1973   71.7684  226.3562 H   0  0  0  0  0  0  0  0  0  0  0  0
  142.0924   71.2985  226.9312 H   0  0  0  0  0  0  0  0  0  0  0  0
  140.8876   72.1176  227.9345 H   0  0  0  0  0  0  0  0  0  0  0  0
  141.7957   69.3705  228.0515 H   0  0  0  0  0  0  0  0  0  0  0  0
  140.6527   70.1774  229.1357 H   0  0  0  0  0  0  0  0  0  0  0  0
  139.9369   68.1646  227.4255 H   0  0  0  0  0  0  0  0  0  0  0  0
  138.7961   69.4181  227.9134 H   0  0  0  0  0  0  0  0  0  0  0  0
  140.1353   71.4996  224.2106 H   0  0  0  0  0  0  0  0  0  0  0  0
  137.8893   75.7854  223.2219 H   0  0  0  0  0  0  0  0  0  0  0  0
  138.3549   78.2072  223.0108 H   0  0  0  0  0  0  0  0  0  0  0  0
  141.9179   79.3692  223.5075 H   0  0  0  0  0  0  0  0  0  0  0  0
  142.4744   81.7859  223.2067 H   0  0  0  0  0  0  0  0  0  0  0  0
  139.8371   81.9178  219.7940 H   0  0  0  0  0  0  0  0  0  0  0  0
  139.2798   79.4942  220.1000 H   0  0  0  0  0  0  0  0  0  0  0  0
  142.0473   77.2478  221.0202 H   0  0  0  0  0  0  0  0  0  0  0  0
  1  2  2  0
  2  3  1  0
  3  4  1  0
  4  5  1  0
  5  6  2  0
  6  7  1  0
  7  8  2  0
  8  9  1  0
  9 10  1  0
 10 11  2  0
 10 12  1  0
 12 13  1  0
 13 14  1  0
 14 15  1  0
 15 16  1  0
  9 17  2  0
  4 18  2  0
 18 19  1  0
 19 20  2  0
 20 21  1  0
 21 22  2  0
 22 23  1  0
 23 24  2  0
 24 25  1  0
 25 26  2  0
 26 27  1  0
 26 28  1  0
 28 29  2  0
 22 30  1  0
 30 31  2  0
 31  2  1  0
 17  5  1  0
 31 19  1  0
 16 12  1  0
 29 23  1  0
  3 32  1  0
  3 33  1  0
  6 34  1  0
  7 35  1  0
  8 36  1  0
 13 37  1  0
 13 38  1  0
 14 39  1  0
 14 40  1  0
 15 41  1  0
 15 42  1  0
 16 43  1  0
 16 44  1  0
 17 45  1  0
 20 46  1  0
 21 47  1  0
 24 48  1  0
 25 49  1  0
 28 50  1  0
 29 51  1  0
 30 52  1  0
M  END
>  <smiles>  (21) 
O=C1CC(c2cccc(C(=O)N3CCCC3)c2)=Nc2ccc(-c3ccc(F)cc3)cc21

>  <score_type>  (21) 
oracle

>  <origin>  (21) 
autodockgpu

>  <m_score__min__energy>  (21) 
-9.1199999999999992

>  <m_primary>  (21) 
energy

>  <rmsd>  (21) 
6.201129490957589

>  <m_score__min__rmsd>  (21) 
6.201129490957589

>  <meeko>  (21) 
{"free_energy": -9.09, "intermolecular_energy": -9.98, "internal_energy": -0.77, "cluster_size": 40, "cluster_id": 1, "rank_in_cluster": 18}

>  <energy>  (21) 
-9.08

>  <cluster_rmsd>  (21) 
0.27

>  <cluster>  (21) 
1

$$$$

     RDKit          3D

 52 56  0  0  0  0  0  0  0  0999 V2000
  142.8290   75.0600  220.5340 O   0  0  0  0  0  0  0  0  0  0  0  0
  141.7740   74.6330  221.1050 C   0  0  0  0  0  0  0  0  0  0  0  0
  141.5580   73.1670  221.1890 C   0  0  0  0  0  0  0  0  0  0  0  0
  140.2800   72.8910  221.8860 C   0  0  0  0  0  0  0  0  0  0  0  0
  139.8930   71.4750  222.0670 C   0  0  0  0  0  0  0  0  0  0  0  0
  139.5450   70.6800  220.9910 C   0  0  0  0  0  0  0  0  0  0  0  0
  139.1800   69.3610  221.1090 C   0  0  0  0  0  0  0  0  0  0  0  0
  139.1660   68.8160  222.3910 C   0  0  0  0  0  0  0  0  0  0  0  0
  139.5030   69.5590  223.5080 C   0  0  0  0  0  0  0  0  0  0  0  0
  139.4830   68.9760  224.8350 C   0  0  0  0  0  0  0  0  0  0  0  0
  139.2010   67.7350  224.9130 O   0  0  0  0  0  0  0  0  0  0  0  0
  139.7600   69.7380  225.9980 N   0  0  0  0  0  0  0  0  0  0  0  0
  140.0990   71.1390  226.1400 C   0  0  0  0  0  0  0  0  0  0  0  0
  141.0700   71.2060  227.2810 C   0  0  0  0  0  0  0  0  0  0  0  0
  140.8800   69.9490  228.0420 C   0  0  0  0  0  0  0  0  0  0  0  0
  139.7610   69.2310  227.3680 C   0  0  0  0  0  0  0  0  0  0  0  0
  139.8630   70.8910  223.3080 C   0  0  0  0  0  0  0  0  0  0  0  0
  139.4900   73.7850  222.3430 N   0  0  0  0  0  0  0  0  0  0  0  0
  139.7080   75.1870  222.2570 C   0  0  0  0  0  0  0  0  0  0  0  0
  138.8320   76.1240  222.7630 C   0  0  0  0  0  0  0  0  0  0  0  0
  139.0840   77.4750  222.6570 C   0  0  0  0  0  0  0  0  0  0  0  0
  140.2450   77.8940  222.0270 C   0  0  0  0  0  0  0  0  0  0  0  0
  140.5810   79.3080  221.8760 C   0  0  0  0  0  0  0  0  0  0  0  0
  140.1770   80.0410  220.7800 C   0  0  0  0  0  0  0  0  0  0  0  0
  140.5030   81.3910  220.6440 C   0  0  0  0  0  0  0  0  0  0  0  0
  141.2520   81.9860  221.6490 C   0  0  0  0  0  0  0  0  0  0  0  0
  141.6030   83.3000  221.5750 F   0  0  0  0  0  0  0  0  0  0  0  0
  141.6660   81.2670  222.7560 C   0  0  0  0  0  0  0  0  0  0  0  0
  141.3360   79.9140  222.8860 C   0  0  0  0  0  0  0  0  0  0  0  0
  141.1180   76.9460  221.5230 C   0  0  0  0  0  0  0  0  0  0  0  0
  140.8460   75.6180  221.6400 C   0  0  0  0  0  0  0  0  0  0  0  0
  141.5201   72.7440  220.1743 H   0  0  0  0  0  0  0  0  0  0  0  0
  142.3857   72.7078  221.7493 H   0  0  0  0  0  0  0  0  0  0  0  0
  139.5612   71.1277  219.9863 H   0  0  0  0  0  0  0  0  0  0  0  0
  138.9100   68.7602  220.2280 H   0  0  0  0  0  0  0  0  0  0  0  0
  138.8780   67.7621  222.5190 H   0  0  0  0  0  0  0  0  0  0  0  0
  140.5640   71.5168  225.2175 H   0  0  0  0  0  0  0  0  0  0  0  0
  139.2079   71.7561  226.3274 H   0  0  0  0  0  0  0  0  0  0  0  0
  142.1011   71.2742  226.9039 H   0  0  0  0  0  0  0  0  0  0  0  0
  140.8977   72.0919  227.9099 H   0  0  0  0  0  0  0  0  0  0  0  0
  141.7968   69.3418  228.0137 H   0  0  0  0  0  0  0  0  0  0  0  0
  140.6548   70.1467  229.1004 H   0  0  0  0  0  0  0  0  0  0  0  0
  139.9359   68.1450  227.3786 H   0  0  0  0  0  0  0  0  0  0  0  0
  138.7980   69.3989  227.8723 H   0  0  0  0  0  0  0  0  0  0  0  0
  140.1347   71.4999  224.1829 H   0  0  0  0  0  0  0  0  0  0  0  0
  137.9119   75.7859  223.2622 H   0  0  0  0  0  0  0  0  0  0  0  0
  138.3745   78.2092  223.0662 H   0  0  0  0  0  0  0  0  0  0  0  0
  139.5838   79.5500  219.9945 H   0  0  0  0  0  0  0  0  0  0  0  0
  140.1757   81.9666  219.7656 H   0  0  0  0  0  0  0  0  0  0  0  0
  142.2586   81.7626  223.5391 H   0  0  0  0  0  0  0  0  0  0  0  0
  141.6634   79.3383  223.7643 H   0  0  0  0  0  0  0  0  0  0  0  0
  142.0423   77.2697  221.0221 H   0  0  0  0  0  0  0  0  0  0  0  0
  1  2  2  0
  2  3  1  0
  3  4  1  0
  4  5  1  0
  5  6  2  0
  6  7  1  0
  7  8  2  0
  8  9  1  0
  9 10  1  0
 10 11  2  0
 10 12  1  0
 12 13  1  0
 13 14  1  0
 14 15  1  0
 15 16  1  0
  9 17  2  0
  4 18  2  0
 18 19  1  0
 19 20  2  0
 20 21  1  0
 21 22  2  0
 22 23  1  0
 23 24  2  0
 24 25  1  0
 25 26  2  0
 26 27  1  0
 26 28  1  0
 28 29  2  0
 22 30  1  0
 30 31  2  0
 31  2  1  0
 17  5  1  0
 31 19  1  0
 16 12  1  0
 29 23  1  0
  3 32  1  0
  3 33  1  0
  6 34  1  0
  7 35  1  0
  8 36  1  0
 13 37  1  0
 13 38  1  0
 14 39  1  0
 14 40  1  0
 15 41  1  0
 15 42  1  0
 16 43  1  0
 16 44  1  0
 17 45  1  0
 20 46  1  0
 21 47  1  0
 24 48  1  0
 25 49  1  0
 28 50  1  0
 29 51  1  0
 30 52  1  0
M  END
>  <smiles>  (22) 
O=C1CC(c2cccc(C(=O)N3CCCC3)c2)=Nc2ccc(-c3ccc(F)cc3)cc21

>  <score_type>  (22) 
oracle

>  <origin>  (22) 
autodockgpu

>  <m_score__min__energy>  (22) 
-9.1199999999999992

>  <m_primary>  (22) 
energy

>  <rmsd>  (22) 
6.205136727036554

>  <m_score__min__rmsd>  (22) 
6.205136727036554

>  <meeko>  (22) 
{"free_energy": -9.1, "intermolecular_energy": -10.0, "internal_energy": -0.77, "cluster_size": 40, "cluster_id": 1, "rank_in_cluster": 16}

>  <energy>  (22) 
-9.08

>  <cluster_rmsd>  (22) 
0.28

>  <cluster>  (22) 
1

$$$$

     RDKit          3D

 52 56  0  0  0  0  0  0  0  0999 V2000
  142.9290   75.0170  220.5090 O   0  0  0  0  0  0  0  0  0  0  0  0
  141.8700   74.6050  221.0830 C   0  0  0  0  0  0  0  0  0  0  0  0
  141.6340   73.1420  221.1700 C   0  0  0  0  0  0  0  0  0  0  0  0
  140.3550   72.8840  221.8710 C   0  0  0  0  0  0  0  0  0  0  0  0
  139.9500   71.4740  222.0550 C   0  0  0  0  0  0  0  0  0  0  0  0
  139.6020   70.6770  220.9800 C   0  0  0  0  0  0  0  0  0  0  0  0
  139.2200   69.3630  221.1000 C   0  0  0  0  0  0  0  0  0  0  0  0
  139.1880   68.8250  222.3840 C   0  0  0  0  0  0  0  0  0  0  0  0
  139.5260   69.5690  223.5010 C   0  0  0  0  0  0  0  0  0  0  0  0
  139.4880   68.9920  224.8300 C   0  0  0  0  0  0  0  0  0  0  0  0
  139.1920   67.7540  224.9110 O   0  0  0  0  0  0  0  0  0  0  0  0
  139.7630   69.7560  225.9920 N   0  0  0  0  0  0  0  0  0  0  0  0
  140.1160   71.1540  226.1310 C   0  0  0  0  0  0  0  0  0  0  0  0
  141.0780   71.2160  227.2800 C   0  0  0  0  0  0  0  0  0  0  0  0
  140.8670   69.9640  228.0450 C   0  0  0  0  0  0  0  0  0  0  0  0
  139.7460   69.2550  227.3640 C   0  0  0  0  0  0  0  0  0  0  0  0
  139.9030   70.8960  223.2980 C   0  0  0  0  0  0  0  0  0  0  0  0
  139.5790   73.7890  222.3290 N   0  0  0  0  0  0  0  0  0  0  0  0
  139.8150   75.1880  222.2400 C   0  0  0  0  0  0  0  0  0  0  0  0
  138.9530   76.1370  222.7470 C   0  0  0  0  0  0  0  0  0  0  0  0
  139.2220   77.4850  222.6400 C   0  0  0  0  0  0  0  0  0  0  0  0
  140.3870   77.8870  222.0050 C   0  0  0  0  0  0  0  0  0  0  0  0
  140.7420   79.2960  221.8510 C   0  0  0  0  0  0  0  0  0  0  0  0
  140.7380   79.9190  220.6210 C   0  0  0  0  0  0  0  0  0  0  0  0
  141.0790   81.2660  220.4830 C   0  0  0  0  0  0  0  0  0  0  0  0
  141.4240   81.9710  221.6270 C   0  0  0  0  0  0  0  0  0  0  0  0
  141.7670   83.2870  221.5580 F   0  0  0  0  0  0  0  0  0  0  0  0
  141.4330   81.3630  222.8690 C   0  0  0  0  0  0  0  0  0  0  0  0
  141.0910   80.0140  223.0010 C   0  0  0  0  0  0  0  0  0  0  0  0
  141.2460   76.9270  221.5000 C   0  0  0  0  0  0  0  0  0  0  0  0
  140.9570   75.6020  221.6200 C   0  0  0  0  0  0  0  0  0  0  0  0
  141.5873   72.7181  220.1560 H   0  0  0  0  0  0  0  0  0  0  0  0
  142.4571   72.6726  221.7288 H   0  0  0  0  0  0  0  0  0  0  0  0
  139.6328   71.1195  219.9734 H   0  0  0  0  0  0  0  0  0  0  0  0
  138.9508   68.7614  220.2193 H   0  0  0  0  0  0  0  0  0  0  0  0
  138.8846   67.7758  222.5146 H   0  0  0  0  0  0  0  0  0  0  0  0
  140.5929   71.5227  225.2109 H   0  0  0  0  0  0  0  0  0  0  0  0
  139.2300   71.7813  226.3083 H   0  0  0  0  0  0  0  0  0  0  0  0
  142.1130   71.2710  226.9116 H   0  0  0  0  0  0  0  0  0  0  0  0
  140.9105   72.1068  227.9033 H   0  0  0  0  0  0  0  0  0  0  0  0
  141.7773   69.3467  228.0277 H   0  0  0  0  0  0  0  0  0  0  0  0
  140.6343   70.1691  229.1004 H   0  0  0  0  0  0  0  0  0  0  0  0
  139.9089   68.1673  227.3809 H   0  0  0  0  0  0  0  0  0  0  0  0
  138.7803   69.4355  227.8589 H   0  0  0  0  0  0  0  0  0  0  0  0
  140.1744   71.5056  224.1725 H   0  0  0  0  0  0  0  0  0  0  0  0
  138.0296   75.8113  223.2483 H   0  0  0  0  0  0  0  0  0  0  0  0
  138.5240   78.2290  223.0515 H   0  0  0  0  0  0  0  0  0  0  0  0
  140.4596   79.3412  219.7273 H   0  0  0  0  0  0  0  0  0  0  0  0
  141.0742   81.7535  219.4969 H   0  0  0  0  0  0  0  0  0  0  0  0
  141.7114   81.9453  223.7598 H   0  0  0  0  0  0  0  0  0  0  0  0
  141.0960   79.5271  223.9874 H   0  0  0  0  0  0  0  0  0  0  0  0
  142.1729   77.2379  220.9959 H   0  0  0  0  0  0  0  0  0  0  0  0
  1  2  2  0
  2  3  1  0
  3  4  1  0
  4  5  1  0
  5  6  2  0
  6  7  1  0
  7  8  2  0
  8  9  1  0
  9 10  1  0
 10 11  2  0
 10 12  1  0
 12 13  1  0
 13 14  1  0
 14 15  1  0
 15 16  1  0
  9 17  2  0
  4 18  2  0
 18 19  1  0
 19 20  2  0
 20 21  1  0
 21 22  2  0
 22 23  1  0
 23 24  2  0
 24 25  1  0
 25 26  2  0
 26 27  1  0
 26 28  1  0
 28 29  2  0
 22 30  1  0
 30 31  2  0
 31  2  1  0
 17  5  1  0
 31 19  1  0
 16 12  1  0
 29 23  1  0
  3 32  1  0
  3 33  1  0
  6 34  1  0
  7 35  1  0
  8 36  1  0
 13 37  1  0
 13 38  1  0
 14 39  1  0
 14 40  1  0
 15 41  1  0
 15 42  1  0
 16 43  1  0
 16 44  1  0
 17 45  1  0
 20 46  1  0
 21 47  1  0
 24 48  1  0
 25 49  1  0
 28 50  1  0
 29 51  1  0
 30 52  1  0
M  END
>  <smiles>  (23) 
O=C1CC(c2cccc(C(=O)N3CCCC3)c2)=Nc2ccc(-c3ccc(F)cc3)cc21

>  <score_type>  (23) 
oracle

>  <origin>  (23) 
autodockgpu

>  <m_score__min__energy>  (23) 
-9.1199999999999992

>  <m_primary>  (23) 
energy

>  <rmsd>  (23) 
6.209612750206941

>  <m_score__min__rmsd>  (23) 
6.209612750206941

>  <meeko>  (23) 
{"free_energy": -9.11, "intermolecular_energy": -10.01, "internal_energy": -0.77, "cluster_size": 40, "cluster_id": 1, "rank_in_cluster": 9}

>  <energy>  (23) 
-9.08

>  <cluster_rmsd>  (23) 
0.18

>  <cluster>  (23) 
1

$$$$

     RDKit          3D

 52 56  0  0  0  0  0  0  0  0999 V2000
  142.8060   74.8160  220.7550 O   0  0  0  0  0  0  0  0  0  0  0  0
  141.6970   74.4490  221.2610 C   0  0  0  0  0  0  0  0  0  0  0  0
  141.4110   72.9970  221.3630 C   0  0  0  0  0  0  0  0  0  0  0  0
  140.0780   72.7930  221.9760 C   0  0  0  0  0  0  0  0  0  0  0  0
  139.6180   71.4000  222.1630 C   0  0  0  0  0  0  0  0  0  0  0  0
  139.0500   70.6830  221.1250 C   0  0  0  0  0  0  0  0  0  0  0  0
  138.6090   69.3880  221.2500 C   0  0  0  0  0  0  0  0  0  0  0  0
  138.7510   68.7840  222.4960 C   0  0  0  0  0  0  0  0  0  0  0  0
  139.3120   69.4470  223.5740 C   0  0  0  0  0  0  0  0  0  0  0  0
  139.4530   68.8030  224.8650 C   0  0  0  0  0  0  0  0  0  0  0  0
  139.2950   67.5380  224.8960 O   0  0  0  0  0  0  0  0  0  0  0  0
  139.7500   69.5320  226.0430 N   0  0  0  0  0  0  0  0  0  0  0  0
  139.9670   70.9520  226.2360 C   0  0  0  0  0  0  0  0  0  0  0  0
  141.0160   71.0590  227.3020 C   0  0  0  0  0  0  0  0  0  0  0  0
  141.0050   69.7540  228.0060 C   0  0  0  0  0  0  0  0  0  0  0  0
  139.9080   68.9640  227.3800 C   0  0  0  0  0  0  0  0  0  0  0  0
  139.7360   70.7600  223.3700 C   0  0  0  0  0  0  0  0  0  0  0  0
  139.2990   73.7310  222.3560 N   0  0  0  0  0  0  0  0  0  0  0  0
  139.5830   75.1200  222.2530 C   0  0  0  0  0  0  0  0  0  0  0  0
  138.7160   76.1060  222.6740 C   0  0  0  0  0  0  0  0  0  0  0  0
  139.0330   77.4420  222.5550 C   0  0  0  0  0  0  0  0  0  0  0  0
  140.2510   77.7950  221.9980 C   0  0  0  0  0  0  0  0  0  0  0  0
  140.6590   79.1890  221.8380 C   0  0  0  0  0  0  0  0  0  0  0  0
  141.4700   79.8220  222.7570 C   0  0  0  0  0  0  0  0  0  0  0  0
  141.8540   81.1550  222.5960 C   0  0  0  0  0  0  0  0  0  0  0  0
  141.3960   81.8340  221.4760 C   0  0  0  0  0  0  0  0  0  0  0  0
  141.7360   83.1360  221.2620 F   0  0  0  0  0  0  0  0  0  0  0  0
  140.5840   81.2150  220.5430 C   0  0  0  0  0  0  0  0  0  0  0  0
  140.2020   79.8810  220.7100 C   0  0  0  0  0  0  0  0  0  0  0  0
  141.1150   76.7980  221.5780 C   0  0  0  0  0  0  0  0  0  0  0  0
  140.7780   75.4860  221.7070 C   0  0  0  0  0  0  0  0  0  0  0  0
  141.4236   72.5503  220.3579 H   0  0  0  0  0  0  0  0  0  0  0  0
  142.1775   72.5177  221.9896 H   0  0  0  0  0  0  0  0  0  0  0  0
  138.9460   71.1763  220.1473 H   0  0  0  0  0  0  0  0  0  0  0  0
  138.1621   68.8506  220.4006 H   0  0  0  0  0  0  0  0  0  0  0  0
  138.4068   67.7476  222.6282 H   0  0  0  0  0  0  0  0  0  0  0  0
  140.3188   71.4168  225.3032 H   0  0  0  0  0  0  0  0  0  0  0  0
  139.0401   71.4697  226.5240 H   0  0  0  0  0  0  0  0  0  0  0  0
  142.0027   71.2442  226.8523 H   0  0  0  0  0  0  0  0  0  0  0  0
  140.8136   71.8936  227.9894 H   0  0  0  0  0  0  0  0  0  0  0  0
  141.9691   69.2405  227.8760 H   0  0  0  0  0  0  0  0  0  0  0  0
  140.8476   69.8789  229.0875 H   0  0  0  0  0  0  0  0  0  0  0  0
  140.1834   67.9008  227.3186 H   0  0  0  0  0  0  0  0  0  0  0  0
  138.9769   69.0144  227.9636 H   0  0  0  0  0  0  0  0  0  0  0  0
  140.1843   71.3055  224.2135 H   0  0  0  0  0  0  0  0  0  0  0  0
  137.7496   75.8199  223.1147 H   0  0  0  0  0  0  0  0  0  0  0  0
  138.3298   78.2157  222.8970 H   0  0  0  0  0  0  0  0  0  0  0  0
  141.8224   79.2639  223.6370 H   0  0  0  0  0  0  0  0  0  0  0  0
  142.5001   81.6517  223.3348 H   0  0  0  0  0  0  0  0  0  0  0  0
  140.2364   81.7766  219.6633 H   0  0  0  0  0  0  0  0  0  0  0  0
  139.5558   79.3852  219.9707 H   0  0  0  0  0  0  0  0  0  0  0  0
  142.0846   77.0695  221.1351 H   0  0  0  0  0  0  0  0  0  0  0  0
  1  2  2  0
  2  3  1  0
  3  4  1  0
  4  5  1  0
  5  6  2  0
  6  7  1  0
  7  8  2  0
  8  9  1  0
  9 10  1  0
 10 11  2  0
 10 12  1  0
 12 13  1  0
 13 14  1  0
 14 15  1  0
 15 16  1  0
  9 17  2  0
  4 18  2  0
 18 19  1  0
 19 20  2  0
 20 21  1  0
 21 22  2  0
 22 23  1  0
 23 24  2  0
 24 25  1  0
 25 26  2  0
 26 27  1  0
 26 28  1  0
 28 29  2  0
 22 30  1  0
 30 31  2  0
 31  2  1  0
 17  5  1  0
 31 19  1  0
 16 12  1  0
 29 23  1  0
  3 32  1  0
  3 33  1  0
  6 34  1  0
  7 35  1  0
  8 36  1  0
 13 37  1  0
 13 38  1  0
 14 39  1  0
 14 40  1  0
 15 41  1  0
 15 42  1  0
 16 43  1  0
 16 44  1  0
 17 45  1  0
 20 46  1  0
 21 47  1  0
 24 48  1  0
 25 49  1  0
 28 50  1  0
 29 51  1  0
 30 52  1  0
M  END
>  <smiles>  (24) 
O=C1CC(c2cccc(C(=O)N3CCCC3)c2)=Nc2ccc(-c3ccc(F)cc3)cc21

>  <score_type>  (24) 
oracle

>  <origin>  (24) 
autodockgpu

>  <m_score__min__energy>  (24) 
-9.1199999999999992

>  <m_primary>  (24) 
energy

>  <rmsd>  (24) 
6.137864900362865

>  <m_score__min__rmsd>  (24) 
6.137864900362865

>  <meeko>  (24) 
{"free_energy": -8.92, "intermolecular_energy": -9.81, "internal_energy": -0.81, "cluster_size": 40, "cluster_id": 1, "rank_in_cluster": 33}

>  <energy>  (24) 
-9.05

>  <cluster_rmsd>  (24) 
0.19

>  <cluster>  (24) 
1

$$$$

     RDKit          3D

 52 56  0  0  0  0  0  0  0  0999 V2000
  142.8440   74.8780  220.6550 O   0  0  0  0  0  0  0  0  0  0  0  0
  141.7540   74.5010  221.1940 C   0  0  0  0  0  0  0  0  0  0  0  0
  141.4820   73.0470  221.2990 C   0  0  0  0  0  0  0  0  0  0  0  0
  140.1700   72.8300  221.9530 C   0  0  0  0  0  0  0  0  0  0  0  0
  139.7250   71.4330  222.1470 C   0  0  0  0  0  0  0  0  0  0  0  0
  139.2480   70.6750  221.0930 C   0  0  0  0  0  0  0  0  0  0  0  0
  138.8250   69.3750  221.2240 C   0  0  0  0  0  0  0  0  0  0  0  0
  138.8890   68.8100  222.4950 C   0  0  0  0  0  0  0  0  0  0  0  0
  139.3570   69.5150  223.5900 C   0  0  0  0  0  0  0  0  0  0  0  0
  139.4170   68.9100  224.9060 C   0  0  0  0  0  0  0  0  0  0  0  0
  139.1860   67.6580  224.9740 O   0  0  0  0  0  0  0  0  0  0  0  0
  139.7160   69.6630  226.0690 N   0  0  0  0  0  0  0  0  0  0  0  0
  140.0070   71.0740  226.2210 C   0  0  0  0  0  0  0  0  0  0  0  0
  141.0240   71.1600  227.3200 C   0  0  0  0  0  0  0  0  0  0  0  0
  140.9150   69.8840  228.0670 C   0  0  0  0  0  0  0  0  0  0  0  0
  139.7950   69.1350  227.4290 C   0  0  0  0  0  0  0  0  0  0  0  0
  139.7690   70.8300  223.3780 C   0  0  0  0  0  0  0  0  0  0  0  0
  139.3970   73.7610  222.3620 N   0  0  0  0  0  0  0  0  0  0  0  0
  139.6680   75.1530  222.2560 C   0  0  0  0  0  0  0  0  0  0  0  0
  138.8090   76.1300  222.7100 C   0  0  0  0  0  0  0  0  0  0  0  0
  139.1120   77.4690  222.5880 C   0  0  0  0  0  0  0  0  0  0  0  0
  140.3100   77.8330  221.9940 C   0  0  0  0  0  0  0  0  0  0  0  0
  140.7030   79.2310  221.8270 C   0  0  0  0  0  0  0  0  0  0  0  0
  140.9370   79.7800  220.5840 C   0  0  0  0  0  0  0  0  0  0  0  0
  141.3130   81.1160  220.4350 C   0  0  0  0  0  0  0  0  0  0  0  0
  141.4450   81.8880  221.5800 C   0  0  0  0  0  0  0  0  0  0  0  0
  141.8080   83.1980  221.5010 F   0  0  0  0  0  0  0  0  0  0  0  0
  141.2130   81.3550  222.8350 C   0  0  0  0  0  0  0  0  0  0  0  0
  140.8380   80.0160  222.9780 C   0  0  0  0  0  0  0  0  0  0  0  0
  141.1660   76.8450  221.5410 C   0  0  0  0  0  0  0  0  0  0  0  0
  140.8430   75.5290  221.6750 C   0  0  0  0  0  0  0  0  0  0  0  0
  141.4662   72.6044  220.2921 H   0  0  0  0  0  0  0  0  0  0  0  0
  142.2714   72.5713  221.8995 H   0  0  0  0  0  0  0  0  0  0  0  0
  139.2051   71.1383  220.0963 H   0  0  0  0  0  0  0  0  0  0  0  0
  138.4513   68.8041  220.3612 H   0  0  0  0  0  0  0  0  0  0  0  0
  138.5571   67.7704  222.6331 H   0  0  0  0  0  0  0  0  0  0  0  0
  140.4163   71.4845  225.2861 H   0  0  0  0  0  0  0  0  0  0  0  0
  139.1021   71.6530  226.4576 H   0  0  0  0  0  0  0  0  0  0  0  0
  142.0343   71.2736  226.8999 H   0  0  0  0  0  0  0  0  0  0  0  0
  140.8462   72.0286  227.9712 H   0  0  0  0  0  0  0  0  0  0  0  0
  141.8518   69.3128  227.9884 H   0  0  0  0  0  0  0  0  0  0  0  0
  140.7295   70.0559  229.1375 H   0  0  0  0  0  0  0  0  0  0  0  0
  140.0101   68.0564  227.4135 H   0  0  0  0  0  0  0  0  0  0  0  0
  138.8491   69.2587  227.9768 H   0  0  0  0  0  0  0  0  0  0  0  0
  140.1454   71.4085  224.2346 H   0  0  0  0  0  0  0  0  0  0  0  0
  137.8597   75.8345  223.1806 H   0  0  0  0  0  0  0  0  0  0  0  0
  138.4146   78.2359  222.9560 H   0  0  0  0  0  0  0  0  0  0  0  0
  140.8247   79.1505  219.6889 H   0  0  0  0  0  0  0  0  0  0  0  0
  141.4992   81.5441  219.4390 H   0  0  0  0  0  0  0  0  0  0  0  0
  141.3243   81.9892  223.7268 H   0  0  0  0  0  0  0  0  0  0  0  0
  140.6528   79.5881  223.9743 H   0  0  0  0  0  0  0  0  0  0  0  0
  142.1182   77.1257  221.0672 H   0  0  0  0  0  0  0  0  0  0  0  0
  1  2  2  0
  2  3  1  0
  3  4  1  0
  4  5  1  0
  5  6  2  0
  6  7  1  0
  7  8  2  0
  8  9  1  0
  9 10  1  0
 10 11  2  0
 10 12  1  0
 12 13  1  0
 13 14  1  0
 14 15  1  0
 15 16  1  0
  9 17  2  0
  4 18  2  0
 18 19  1  0
 19 20  2  0
 20 21  1  0
 21 22  2  0
 22 23  1  0
 23 24  2  0
 24 25  1  0
 25 26  2  0
 26 27  1  0
 26 28  1  0
 28 29  2  0
 22 30  1  0
 30 31  2  0
 31  2  1  0
 17  5  1  0
 31 19  1  0
 16 12  1  0
 29 23  1  0
  3 32  1  0
  3 33  1  0
  6 34  1  0
  7 35  1  0
  8 36  1  0
 13 37  1  0
 13 38  1  0
 14 39  1  0
 14 40  1  0
 15 41  1  0
 15 42  1  0
 16 43  1  0
 16 44  1  0
 17 45  1  0
 20 46  1  0
 21 47  1  0
 24 48  1  0
 25 49  1  0
 28 50  1  0
 29 51  1  0
 30 52  1  0
M  END
>  <smiles>  (25) 
O=C1CC(c2cccc(C(=O)N3CCCC3)c2)=Nc2ccc(-c3ccc(F)cc3)cc21

>  <score_type>  (25) 
oracle

>  <origin>  (25) 
autodockgpu

>  <m_score__min__energy>  (25) 
-9.1199999999999992

>  <m_primary>  (25) 
energy

>  <rmsd>  (25) 
6.162813972395106

>  <m_score__min__rmsd>  (25) 
6.162813972395106

>  <meeko>  (25) 
{"free_energy": -9.08, "intermolecular_energy": -9.97, "internal_energy": -0.79, "cluster_size": 40, "cluster_id": 1, "rank_in_cluster": 23}

>  <energy>  (25) 
-9.03

>  <cluster_rmsd>  (25) 
0.2

>  <cluster>  (25) 
1

$$$$

     RDKit          3D

 52 56  0  0  0  0  0  0  0  0999 V2000
  142.8050   74.3690  220.7290 O   0  0  0  0  0  0  0  0  0  0  0  0
  141.6830   74.0530  221.2410 C   0  0  0  0  0  0  0  0  0  0  0  0
  141.3870   72.6170  221.4680 C   0  0  0  0  0  0  0  0  0  0  0  0
  140.0390   72.4730  222.0670 C   0  0  0  0  0  0  0  0  0  0  0  0
  139.5670   71.1050  222.3680 C   0  0  0  0  0  0  0  0  0  0  0  0
  138.9320   70.3340  221.4110 C   0  0  0  0  0  0  0  0  0  0  0  0
  138.4780   69.0590  221.6430 C   0  0  0  0  0  0  0  0  0  0  0  0
  138.6780   68.5340  222.9170 C   0  0  0  0  0  0  0  0  0  0  0  0
  139.3070   69.2530  223.9180 C   0  0  0  0  0  0  0  0  0  0  0  0
  139.5070   68.6900  225.2380 C   0  0  0  0  0  0  0  0  0  0  0  0
  139.4140   67.4230  225.3430 O   0  0  0  0  0  0  0  0  0  0  0  0
  139.7930   69.4980  226.3670 N   0  0  0  0  0  0  0  0  0  0  0  0
  139.9430   70.9360  226.4760 C   0  0  0  0  0  0  0  0  0  0  0  0
  141.0080   71.1540  227.5090 C   0  0  0  0  0  0  0  0  0  0  0  0
  141.0770   69.8920  228.2840 C   0  0  0  0  0  0  0  0  0  0  0  0
  140.0080   69.0150  227.7290 C   0  0  0  0  0  0  0  0  0  0  0  0
  139.7410   70.5410  223.6060 C   0  0  0  0  0  0  0  0  0  0  0  0
  139.2570   73.4450  222.3420 N   0  0  0  0  0  0  0  0  0  0  0  0
  139.5510   74.8180  222.1200 C   0  0  0  0  0  0  0  0  0  0  0  0
  138.6800   75.8400  222.4310 C   0  0  0  0  0  0  0  0  0  0  0  0
  139.0070   77.1590  222.1990 C   0  0  0  0  0  0  0  0  0  0  0  0
  140.2400   77.4560  221.6400 C   0  0  0  0  0  0  0  0  0  0  0  0
  140.6580   78.8290  221.3630 C   0  0  0  0  0  0  0  0  0  0  0  0
  140.7460   79.7790  222.3590 C   0  0  0  0  0  0  0  0  0  0  0  0
  141.1460   81.0880  222.0860 C   0  0  0  0  0  0  0  0  0  0  0  0
  141.4590   81.4140  220.7740 C   0  0  0  0  0  0  0  0  0  0  0  0
  141.8570   82.6740  220.4430 F   0  0  0  0  0  0  0  0  0  0  0  0
  141.3790   80.4740  219.7630 C   0  0  0  0  0  0  0  0  0  0  0  0
  140.9760   79.1640  220.0420 C   0  0  0  0  0  0  0  0  0  0  0  0
  141.1070   76.4230  221.3310 C   0  0  0  0  0  0  0  0  0  0  0  0
  140.7600   75.1290  221.5710 C   0  0  0  0  0  0  0  0  0  0  0  0
  141.4197   72.0808  220.5081 H   0  0  0  0  0  0  0  0  0  0  0  0
  142.1368   72.1945  222.1530 H   0  0  0  0  0  0  0  0  0  0  0  0
  138.7827   70.7655  220.4102 H   0  0  0  0  0  0  0  0  0  0  0  0
  137.9773   68.4768  220.8554 H   0  0  0  0  0  0  0  0  0  0  0  0
  138.3247   67.5153  223.1346 H   0  0  0  0  0  0  0  0  0  0  0  0
  140.2512   71.3640  225.5107 H   0  0  0  0  0  0  0  0  0  0  0  0
  138.9978   71.4233  226.7572 H   0  0  0  0  0  0  0  0  0  0  0  0
  141.9744   71.3613  227.0262 H   0  0  0  0  0  0  0  0  0  0  0  0
  140.7790   72.0153  228.1538 H   0  0  0  0  0  0  0  0  0  0  0  0
  142.0627   69.4197  228.1597 H   0  0  0  0  0  0  0  0  0  0  0  0
  140.9360   70.0700  229.3603 H   0  0  0  0  0  0  0  0  0  0  0  0
  140.3352   67.9648  227.7198 H   0  0  0  0  0  0  0  0  0  0  0  0
  139.0882   69.0526  228.3311 H   0  0  0  0  0  0  0  0  0  0  0  0
  140.2447   71.1301  224.3866 H   0  0  0  0  0  0  0  0  0  0  0  0
  137.7027   75.5979  222.8740 H   0  0  0  0  0  0  0  0  0  0  0  0
  138.3006   77.9629  222.4535 H   0  0  0  0  0  0  0  0  0  0  0  0
  140.4951   79.4985  223.3926 H   0  0  0  0  0  0  0  0  0  0  0  0
  141.2112   81.8390  222.8871 H   0  0  0  0  0  0  0  0  0  0  0  0
  141.6342   80.7586  218.7316 H   0  0  0  0  0  0  0  0  0  0  0  0
  140.9104   78.4134  219.2405 H   0  0  0  0  0  0  0  0  0  0  0  0
  142.0873   76.6500  220.8866 H   0  0  0  0  0  0  0  0  0  0  0  0
  1  2  2  0
  2  3  1  0
  3  4  1  0
  4  5  1  0
  5  6  2  0
  6  7  1  0
  7  8  2  0
  8  9  1  0
  9 10  1  0
 10 11  2  0
 10 12  1  0
 12 13  1  0
 13 14  1  0
 14 15  1  0
 15 16  1  0
  9 17  2  0
  4 18  2  0
 18 19  1  0
 19 20  2  0
 20 21  1  0
 21 22  2  0
 22 23  1  0
 23 24  2  0
 24 25  1  0
 25 26  2  0
 26 27  1  0
 26 28  1  0
 28 29  2  0
 22 30  1  0
 30 31  2  0
 31  2  1  0
 17  5  1  0
 31 19  1  0
 16 12  1  0
 29 23  1  0
  3 32  1  0
  3 33  1  0
  6 34  1  0
  7 35  1  0
  8 36  1  0
 13 37  1  0
 13 38  1  0
 14 39  1  0
 14 40  1  0
 15 41  1  0
 15 42  1  0
 16 43  1  0
 16 44  1  0
 17 45  1  0
 20 46  1  0
 21 47  1  0
 24 48  1  0
 25 49  1  0
 28 50  1  0
 29 51  1  0
 30 52  1  0
M  END
>  <smiles>  (26) 
O=C1CC(c2cccc(C(=O)N3CCCC3)c2)=Nc2ccc(-c3ccc(F)cc3)cc21

>  <score_type>  (26) 
oracle

>  <origin>  (26) 
autodockgpu

>  <m_score__min__energy>  (26) 
-9.1199999999999992

>  <m_primary>  (26) 
energy

>  <rmsd>  (26) 
6.10907364867006

>  <m_score__min__rmsd>  (26) 
6.10907364867006

>  <meeko>  (26) 
{"free_energy": -8.73, "intermolecular_energy": -9.63, "internal_energy": -0.83, "cluster_size": 40, "cluster_id": 1, "rank_in_cluster": 34}

>  <energy>  (26) 
-9.03

>  <cluster_rmsd>  (26) 
0.27

>  <cluster>  (26) 
1

$$$$

     RDKit          3D

 52 56  0  0  0  0  0  0  0  0999 V2000
  141.7750   81.3130  223.8470 O   0  0  0  0  0  0  0  0  0  0  0  0
  141.1780   80.4630  223.1110 C   0  0  0  0  0  0  0  0  0  0  0  0
  141.9780   79.6940  222.1260 C   0  0  0  0  0  0  0  0  0  0  0  0
  141.0940   78.7680  221.3800 C   0  0  0  0  0  0  0  0  0  0  0  0
  141.7170   77.9120  220.3480 C   0  0  0  0  0  0  0  0  0  0  0  0
  142.1720   78.4380  219.1520 C   0  0  0  0  0  0  0  0  0  0  0  0
  142.7580   77.6840  218.1650 C   0  0  0  0  0  0  0  0  0  0  0  0
  142.8900   76.3180  218.4020 C   0  0  0  0  0  0  0  0  0  0  0  0
  142.4560   75.7300  219.5770 C   0  0  0  0  0  0  0  0  0  0  0  0
  142.6020   74.3070  219.8060 C   0  0  0  0  0  0  0  0  0  0  0  0
  141.5780   73.5800  219.5830 O   0  0  0  0  0  0  0  0  0  0  0  0
  143.8190   73.7360  220.2580 N   0  0  0  0  0  0  0  0  0  0  0  0
  145.0870   74.3630  220.5700 C   0  0  0  0  0  0  0  0  0  0  0  0
  146.1380   73.3810  220.1460 C   0  0  0  0  0  0  0  0  0  0  0  0
  145.4510   72.0700  220.0660 C   0  0  0  0  0  0  0  0  0  0  0  0
  144.0510   72.3170  220.5150 C   0  0  0  0  0  0  0  0  0  0  0  0
  141.8710   76.5610  220.5320 C   0  0  0  0  0  0  0  0  0  0  0  0
  139.8350   78.6550  221.5640 N   0  0  0  0  0  0  0  0  0  0  0  0
  139.0790   79.3970  222.5110 C   0  0  0  0  0  0  0  0  0  0  0  0
  137.7190   79.2470  222.6820 C   0  0  0  0  0  0  0  0  0  0  0  0
  137.0250   79.9880  223.6150 C   0  0  0  0  0  0  0  0  0  0  0  0
  137.7160   80.9020  224.3940 C   0  0  0  0  0  0  0  0  0  0  0  0
  137.0510   81.7240  225.4030 C   0  0  0  0  0  0  0  0  0  0  0  0
  136.8290   81.2670  226.6850 C   0  0  0  0  0  0  0  0  0  0  0  0
  136.1930   82.0600  227.6420 C   0  0  0  0  0  0  0  0  0  0  0  0
  135.7860   83.3320  227.2700 C   0  0  0  0  0  0  0  0  0  0  0  0
  135.1600   84.1530  228.1580 F   0  0  0  0  0  0  0  0  0  0  0  0
  136.0010   83.8080  225.9890 C   0  0  0  0  0  0  0  0  0  0  0  0
  136.6380   83.0090  225.0340 C   0  0  0  0  0  0  0  0  0  0  0  0
  139.0810   81.0450  224.2150 C   0  0  0  0  0  0  0  0  0  0  0  0
  139.7430   80.3010  223.2870 C   0  0  0  0  0  0  0  0  0  0  0  0
  142.4573   80.3895  221.4213 H   0  0  0  0  0  0  0  0  0  0  0  0
  142.7492   79.1150  222.6551 H   0  0  0  0  0  0  0  0  0  0  0  0
  142.0582   79.5189  218.9824 H   0  0  0  0  0  0  0  0  0  0  0  0
  143.1082   78.1397  217.2271 H   0  0  0  0  0  0  0  0  0  0  0  0
  143.3542   75.6862  217.6304 H   0  0  0  0  0  0  0  0  0  0  0  0
  145.1961   75.3060  220.0142 H   0  0  0  0  0  0  0  0  0  0  0  0
  145.1673   74.6086  221.6392 H   0  0  0  0  0  0  0  0  0  0  0  0
  146.5495   73.6592  219.1645 H   0  0  0  0  0  0  0  0  0  0  0  0
  146.9802   73.3562  220.8531 H   0  0  0  0  0  0  0  0  0  0  0  0
  145.4611   71.6947  219.0320 H   0  0  0  0  0  0  0  0  0  0  0  0
  145.9488   71.3133  220.6902 H   0  0  0  0  0  0  0  0  0  0  0  0
  143.3454   71.6991  219.9402 H   0  0  0  0  0  0  0  0  0  0  0  0
  143.9039   72.0584  221.5740 H   0  0  0  0  0  0  0  0  0  0  0  0
  141.5179   76.1143  221.4731 H   0  0  0  0  0  0  0  0  0  0  0  0
  137.1757   78.5201  222.0604 H   0  0  0  0  0  0  0  0  0  0  0  0
  135.9400   79.8556  223.7389 H   0  0  0  0  0  0  0  0  0  0  0  0
  137.1605   80.2548  226.9598 H   0  0  0  0  0  0  0  0  0  0  0  0
  136.0198   81.6862  228.6620 H   0  0  0  0  0  0  0  0  0  0  0  0
  135.6688   84.8215  225.7197 H   0  0  0  0  0  0  0  0  0  0  0  0
  136.8107   83.3830  224.0140 H   0  0  0  0  0  0  0  0  0  0  0  0
  139.6372   81.7681  224.8296 H   0  0  0  0  0  0  0  0  0  0  0  0
  1  2  2  0
  2  3  1  0
  3  4  1  0
  4  5  1  0
  5  6  2  0
  6  7  1  0
  7  8  2  0
  8  9  1  0
  9 10  1  0
 10 11  2  0
 10 12  1  0
 12 13  1  0
 13 14  1  0
 14 15  1  0
 15 16  1  0
  9 17  2  0
  4 18  2  0
 18 19  1  0
 19 20  2  0
 20 21  1  0
 21 22  2  0
 22 23  1  0
 23 24  2  0
 24 25  1  0
 25 26  2  0
 26 27  1  0
 26 28  1  0
 28 29  2  0
 22 30  1  0
 30 31  2  0
 31  2  1  0
 17  5  1  0
 31 19  1  0
 16 12  1  0
 29 23  1  0
  3 32  1  0
  3 33  1  0
  6 34  1  0
  7 35  1  0
  8 36  1  0
 13 37  1  0
 13 38  1  0
 14 39  1  0
 14 40  1  0
 15 41  1  0
 15 42  1  0
 16 43  1  0
 16 44  1  0
 17 45  1  0
 20 46  1  0
 21 47  1  0
 24 48  1  0
 25 49  1  0
 28 50  1  0
 29 51  1  0
 30 52  1  0
M  END
>  <smiles>  (27) 
O=C1CC(c2cccc(C(=O)N3CCCC3)c2)=Nc2ccc(-c3ccc(F)cc3)cc21

>  <score_type>  (27) 
oracle

>  <origin>  (27) 
autodockgpu

>  <m_score__min__energy>  (27) 
-9.1199999999999992

>  <m_primary>  (27) 
energy

>  <rmsd>  (27) 
9.213785930213716

>  <m_score__min__rmsd>  (27) 
9.213785930213716

>  <meeko>  (27) 
{"free_energy": -8.12, "intermolecular_energy": -9.02, "internal_energy": -0.99, "cluster_size": 9, "cluster_id": 2, "rank_in_cluster": 3}

>  <energy>  (27) 
-9.01

>  <cluster_rmsd>  (27) 
0.25

>  <cluster>  (27) 
1

$$$$

     RDKit          3D

 52 56  0  0  0  0  0  0  0  0999 V2000
  139.7820   71.5070  221.8020 O   0  0  0  0  0  0  0  0  0  0  0  0
  140.1420   72.7110  221.5940 C   0  0  0  0  0  0  0  0  0  0  0  0
  139.2140   73.8030  221.9760 C   0  0  0  0  0  0  0  0  0  0  0  0
  139.8250   75.1130  221.6500 C   0  0  0  0  0  0  0  0  0  0  0  0
  139.0430   76.3290  221.9620 C   0  0  0  0  0  0  0  0  0  0  0  0
  137.7010   76.4250  221.6420 C   0  0  0  0  0  0  0  0  0  0  0  0
  136.9330   77.5310  221.9130 C   0  0  0  0  0  0  0  0  0  0  0  0
  137.5610   78.6020  222.5430 C   0  0  0  0  0  0  0  0  0  0  0  0
  138.9000   78.5690  222.8900 C   0  0  0  0  0  0  0  0  0  0  0  0
  139.5360   79.6930  223.5460 C   0  0  0  0  0  0  0  0  0  0  0  0
  138.8770   80.2660  224.4750 O   0  0  0  0  0  0  0  0  0  0  0  0
  140.8300   80.1460  223.1830 N   0  0  0  0  0  0  0  0  0  0  0  0
  141.7440   79.6520  222.1730 C   0  0  0  0  0  0  0  0  0  0  0  0
  143.1170   79.8320  222.7490 C   0  0  0  0  0  0  0  0  0  0  0  0
  142.9700   80.8410  223.8240 C   0  0  0  0  0  0  0  0  0  0  0  0
  141.5420   81.2670  223.7890 C   0  0  0  0  0  0  0  0  0  0  0  0
  139.6130   77.4110  222.5830 C   0  0  0  0  0  0  0  0  0  0  0  0
  140.9770   75.2690  221.1210 N   0  0  0  0  0  0  0  0  0  0  0  0
  141.8580   74.2140  220.7600 C   0  0  0  0  0  0  0  0  0  0  0  0
  143.0970   74.4200  220.1900 C   0  0  0  0  0  0  0  0  0  0  0  0
  143.9200   73.3670  219.8560 C   0  0  0  0  0  0  0  0  0  0  0  0
  143.4860   72.0740  220.1000 C   0  0  0  0  0  0  0  0  0  0  0  0
  144.3010   70.9050  219.7730 C   0  0  0  0  0  0  0  0  0  0  0  0
  145.5780   71.0240  219.2670 C   0  0  0  0  0  0  0  0  0  0  0  0
  146.3490   69.9030  218.9570 C   0  0  0  0  0  0  0  0  0  0  0  0
  145.7940   68.6500  219.1740 C   0  0  0  0  0  0  0  0  0  0  0  0
  146.4950   67.5170  218.8930 F   0  0  0  0  0  0  0  0  0  0  0  0
  144.5150   68.5100  219.6830 C   0  0  0  0  0  0  0  0  0  0  0  0
  143.7470   69.6380  219.9900 C   0  0  0  0  0  0  0  0  0  0  0  0
  142.2420   71.8760  220.6720 C   0  0  0  0  0  0  0  0  0  0  0  0
  141.4480   72.9340  220.9930 C   0  0  0  0  0  0  0  0  0  0  0  0
  138.2702   73.6916  221.4222 H   0  0  0  0  0  0  0  0  0  0  0  0
  139.0157   73.7518  223.0568 H   0  0  0  0  0  0  0  0  0  0  0  0
  137.2227   75.5691  221.1433 H   0  0  0  0  0  0  0  0  0  0  0  0
  135.8671   77.5690  221.6437 H   0  0  0  0  0  0  0  0  0  0  0  0
  136.9738   79.5034  222.7723 H   0  0  0  0  0  0  0  0  0  0  0  0
  141.5504   78.5890  221.9669 H   0  0  0  0  0  0  0  0  0  0  0  0
  141.6282   80.1905  221.2208 H   0  0  0  0  0  0  0  0  0  0  0  0
  143.4875   78.8822  223.1621 H   0  0  0  0  0  0  0  0  0  0  0  0
  143.8395   80.1544  221.9848 H   0  0  0  0  0  0  0  0  0  0  0  0
  143.2137   80.3981  224.8009 H   0  0  0  0  0  0  0  0  0  0  0  0
  143.6502   81.6926  223.6755 H   0  0  0  0  0  0  0  0  0  0  0  0
  141.1699   81.4572  224.8065 H   0  0  0  0  0  0  0  0  0  0  0  0
  141.4022   82.2003  223.2239 H   0  0  0  0  0  0  0  0  0  0  0  0
  140.6789   77.3630  222.8504 H   0  0  0  0  0  0  0  0  0  0  0  0
  143.4357   75.4487  219.9977 H   0  0  0  0  0  0  0  0  0  0  0  0
  144.9056   73.5497  219.4030 H   0  0  0  0  0  0  0  0  0  0  0  0
  145.9993   72.0269  219.1037 H   0  0  0  0  0  0  0  0  0  0  0  0
  147.3664   70.0095  218.5527 H   0  0  0  0  0  0  0  0  0  0  0  0
  144.0994   67.5049  219.8473 H   0  0  0  0  0  0  0  0  0  0  0  0
  142.7292   69.5317  220.3934 H   0  0  0  0  0  0  0  0  0  0  0  0
  141.8907   70.8525  220.8695 H   0  0  0  0  0  0  0  0  0  0  0  0
  1  2  2  0
  2  3  1  0
  3  4  1  0
  4  5  1  0
  5  6  2  0
  6  7  1  0
  7  8  2  0
  8  9  1  0
  9 10  1  0
 10 11  2  0
 10 12  1  0
 12 13  1  0
 13 14  1  0
 14 15  1  0
 15 16  1  0
  9 17  2  0
  4 18  2  0
 18 19  1  0
 19 20  2  0
 20 21  1  0
 21 22  2  0
 22 23  1  0
 23 24  2  0
 24 25  1  0
 25 26  2  0
 26 27  1  0
 26 28  1  0
 28 29  2  0
 22 30  1  0
 30 31  2  0
 31  2  1  0
 17  5  1  0
 31 19  1  0
 16 12  1  0
 29 23  1  0
  3 32  1  0
  3 33  1  0
  6 34  1  0
  7 35  1  0
  8 36  1  0
 13 37  1  0
 13 38  1  0
 14 39  1  0
 14 40  1  0
 15 41  1  0
 15 42  1  0
 16 43  1  0
 16 44  1  0
 17 45  1  0
 20 46  1  0
 21 47  1  0
 24 48  1  0
 25 49  1  0
 28 50  1  0
 29 51  1  0
 30 52  1  0
M  END
>  <smiles>  (28) 
O=C1CC(c2cccc(C(=O)N3CCCC3)c2)=Nc2ccc(-c3ccc(F)cc3)cc21

>  <score_type>  (28) 
oracle

>  <origin>  (28) 
autodockgpu

>  <m_score__min__energy>  (28) 
-9.1199999999999992

>  <m_primary>  (28) 
energy

>  <rmsd>  (28) 
7.554852470418484

>  <m_score__min__rmsd>  (28) 
7.554852470418484

>  <meeko>  (28) 
{"free_energy": -7.76, "intermolecular_energy": -8.65, "internal_energy": -1.03, "cluster_size": 1, "cluster_id": 3, "rank_in_cluster": 1}

>  <energy>  (28) 
-9.0

>  <cluster_rmsd>  (28) 
0.28

>  <cluster>  (28) 
1

$$$$

     RDKit          3D

 52 56  0  0  0  0  0  0  0  0999 V2000
  141.5030   81.2230  223.9820 O   0  0  0  0  0  0  0  0  0  0  0  0
  140.9750   80.3630  223.2050 C   0  0  0  0  0  0  0  0  0  0  0  0
  141.8410   79.6770  222.2150 C   0  0  0  0  0  0  0  0  0  0  0  0
  141.0320   78.7250  221.4190 C   0  0  0  0  0  0  0  0  0  0  0  0
  141.7280   77.9420  220.3760 C   0  0  0  0  0  0  0  0  0  0  0  0
  142.2160   78.5420  219.2290 C   0  0  0  0  0  0  0  0  0  0  0  0
  142.8690   77.8580  218.2340 C   0  0  0  0  0  0  0  0  0  0  0  0
  143.0390   76.4870  218.4090 C   0  0  0  0  0  0  0  0  0  0  0  0
  142.5750   75.8270  219.5330 C   0  0  0  0  0  0  0  0  0  0  0  0
  142.7600   74.3990  219.6990 C   0  0  0  0  0  0  0  0  0  0  0  0
  141.7890   73.6490  219.3520 O   0  0  0  0  0  0  0  0  0  0  0  0
  143.9580   73.8500  220.2220 N   0  0  0  0  0  0  0  0  0  0  0  0
  145.1700   74.5050  220.6720 C   0  0  0  0  0  0  0  0  0  0  0  0
  146.2910   73.5870  220.2880 C   0  0  0  0  0  0  0  0  0  0  0  0
  145.6680   72.2580  220.0820 C   0  0  0  0  0  0  0  0  0  0  0  0
  144.2270   72.4280  220.4230 C   0  0  0  0  0  0  0  0  0  0  0  0
  141.9210   76.5900  220.5010 C   0  0  0  0  0  0  0  0  0  0  0  0
  139.7780   78.5300  221.5700 N   0  0  0  0  0  0  0  0  0  0  0  0
  138.9580   79.1930  222.5230 C   0  0  0  0  0  0  0  0  0  0  0  0
  137.6070   78.9570  222.6570 C   0  0  0  0  0  0  0  0  0  0  0  0
  136.8490   79.6230  223.5950 C   0  0  0  0  0  0  0  0  0  0  0  0
  137.4660   80.5510  224.4190 C   0  0  0  0  0  0  0  0  0  0  0  0
  136.7310   81.2980  225.4380 C   0  0  0  0  0  0  0  0  0  0  0  0
  137.3080   82.3340  226.1410 C   0  0  0  0  0  0  0  0  0  0  0  0
  136.5980   83.0410  227.1130 C   0  0  0  0  0  0  0  0  0  0  0  0
  135.2820   82.6740  227.3560 C   0  0  0  0  0  0  0  0  0  0  0  0
  134.5370   83.3260  228.2910 F   0  0  0  0  0  0  0  0  0  0  0  0
  134.6860   81.6380  226.6590 C   0  0  0  0  0  0  0  0  0  0  0  0
  135.4030   80.9330  225.6880 C   0  0  0  0  0  0  0  0  0  0  0  0
  138.8230   80.7810  224.2770 C   0  0  0  0  0  0  0  0  0  0  0  0
  139.5490   80.1100  223.3420 C   0  0  0  0  0  0  0  0  0  0  0  0
  142.2921   80.4233  221.5445 H   0  0  0  0  0  0  0  0  0  0  0  0
  142.6343   79.1279  222.7434 H   0  0  0  0  0  0  0  0  0  0  0  0
  142.0730   79.6259  219.1077 H   0  0  0  0  0  0  0  0  0  0  0  0
  143.2425   78.3715  217.3358 H   0  0  0  0  0  0  0  0  0  0  0  0
  143.5584   75.9107  217.6292 H   0  0  0  0  0  0  0  0  0  0  0  0
  145.2858   75.4804  220.1769 H   0  0  0  0  0  0  0  0  0  0  0  0
  145.1520   74.6943  221.7554 H   0  0  0  0  0  0  0  0  0  0  0  0
  146.7703   73.9339  219.3606 H   0  0  0  0  0  0  0  0  0  0  0  0
  147.0720   73.5538  221.0619 H   0  0  0  0  0  0  0  0  0  0  0  0
  145.7790   71.9411  219.0345 H   0  0  0  0  0  0  0  0  0  0  0  0
  146.1435   71.4868  220.7058 H   0  0  0  0  0  0  0  0  0  0  0  0
  143.5976   71.8175  219.7589 H   0  0  0  0  0  0  0  0  0  0  0  0
  144.0040   72.1058  221.4508 H   0  0  0  0  0  0  0  0  0  0  0  0
  141.5441   76.0855  221.4029 H   0  0  0  0  0  0  0  0  0  0  0  0
  137.1226   78.2198  221.9998 H   0  0  0  0  0  0  0  0  0  0  0  0
  135.7717   79.4215  223.6884 H   0  0  0  0  0  0  0  0  0  0  0  0
  138.3520   82.6099  225.9312 H   0  0  0  0  0  0  0  0  0  0  0  0
  137.0680   83.8649  227.6700 H   0  0  0  0  0  0  0  0  0  0  0  0
  133.6410   81.3673  226.8704 H   0  0  0  0  0  0  0  0  0  0  0  0
  134.9333   80.1084  225.1318 H   0  0  0  0  0  0  0  0  0  0  0  0
  139.3208   81.5150  224.9277 H   0  0  0  0  0  0  0  0  0  0  0  0
  1  2  2  0
  2  3  1  0
  3  4  1  0
  4  5  1  0
  5  6  2  0
  6  7  1  0
  7  8  2  0
  8  9  1  0
  9 10  1  0
 10 11  2  0
 10 12  1  0
 12 13  1  0
 13 14  1  0
 14 15  1  0
 15 16  1  0
  9 17  2  0
  4 18  2  0
 18 19  1  0
 19 20  2  0
 20 21  1  0
 21 22  2  0
 22 23  1  0
 23 24  2  0
 24 25  1  0
 25 26  2  0
 26 27  1  0
 26 28  1  0
 28 29  2  0
 22 30  1  0
 30 31  2  0
 31  2  1  0
 17  5  1  0
 31 19  1  0
 16 12  1  0
 29 23  1  0
  3 32  1  0
  3 33  1  0
  6 34  1  0
  7 35  1  0
  8 36  1  0
 13 37  1  0
 13 38  1  0
 14 39  1  0
 14 40  1  0
 15 41  1  0
 15 42  1  0
 16 43  1  0
 16 44  1  0
 17 45  1  0
 20 46  1  0
 21 47  1  0
 24 48  1  0
 25 49  1  0
 28 50  1  0
 29 51  1  0
 30 52  1  0
M  END
>  <smiles>  (29) 
O=C1CC(c2cccc(C(=O)N3CCCC3)c2)=Nc2ccc(-c3ccc(F)cc3)cc21

>  <score_type>  (29) 
oracle

>  <origin>  (29) 
autodockgpu

>  <m_score__min__energy>  (29) 
-9.1199999999999992

>  <m_primary>  (29) 
energy

>  <rmsd>  (29) 
9.179071934831356

>  <m_score__min__rmsd>  (29) 
9.179071934831356

>  <meeko>  (29) 
{"free_energy": -8.03, "intermolecular_energy": -8.93, "internal_energy": -1.0, "cluster_size": 9, "cluster_id": 2, "rank_in_cluster": 9}

>  <energy>  (29) 
-8.98

>  <cluster_rmsd>  (29) 
0.25

>  <cluster>  (29) 
1

$$$$

     RDKit          3D

 52 56  0  0  0  0  0  0  0  0999 V2000
  142.9170   74.9840  220.4960 O   0  0  0  0  0  0  0  0  0  0  0  0
  141.8560   74.5810  221.0730 C   0  0  0  0  0  0  0  0  0  0  0  0
  141.6120   73.1210  221.1660 C   0  0  0  0  0  0  0  0  0  0  0  0
  140.3320   72.8730  221.8690 C   0  0  0  0  0  0  0  0  0  0  0  0
  139.9180   71.4660  222.0590 C   0  0  0  0  0  0  0  0  0  0  0  0
  139.5570   70.6690  220.9880 C   0  0  0  0  0  0  0  0  0  0  0  0
  139.1670   69.3580  221.1150 C   0  0  0  0  0  0  0  0  0  0  0  0
  139.1410   68.8240  222.4000 C   0  0  0  0  0  0  0  0  0  0  0  0
  139.4900   69.5680  223.5130 C   0  0  0  0  0  0  0  0  0  0  0  0
  139.4580   68.9950  224.8440 C   0  0  0  0  0  0  0  0  0  0  0  0
  139.1600   67.7580  224.9300 O   0  0  0  0  0  0  0  0  0  0  0  0
  139.7400   69.7610  226.0020 N   0  0  0  0  0  0  0  0  0  0  0  0
  140.0970   71.1590  226.1360 C   0  0  0  0  0  0  0  0  0  0  0  0
  141.0640   71.2220  227.2800 C   0  0  0  0  0  0  0  0  0  0  0  0
  140.8540   69.9720  228.0500 C   0  0  0  0  0  0  0  0  0  0  0  0
  139.7290   69.2640  227.3760 C   0  0  0  0  0  0  0  0  0  0  0  0
  139.8760   70.8920  223.3040 C   0  0  0  0  0  0  0  0  0  0  0  0
  139.5610   73.7850  222.3230 N   0  0  0  0  0  0  0  0  0  0  0  0
  139.8050   75.1820  222.2280 C   0  0  0  0  0  0  0  0  0  0  0  0
  138.9490   76.1380  222.7310 C   0  0  0  0  0  0  0  0  0  0  0  0
  139.2260   77.4840  222.6170 C   0  0  0  0  0  0  0  0  0  0  0  0
  140.3930   77.8760  221.9810 C   0  0  0  0  0  0  0  0  0  0  0  0
  140.7560   79.2830  221.8200 C   0  0  0  0  0  0  0  0  0  0  0  0
  140.7680   79.8970  220.5850 C   0  0  0  0  0  0  0  0  0  0  0  0
  141.1170   81.2410  220.4420 C   0  0  0  0  0  0  0  0  0  0  0  0
  141.4540   81.9530  221.5840 C   0  0  0  0  0  0  0  0  0  0  0  0
  141.8040   83.2670  221.5090 F   0  0  0  0  0  0  0  0  0  0  0  0
  141.4470   81.3540  222.8310 C   0  0  0  0  0  0  0  0  0  0  0  0
  141.0980   80.0070  222.9680 C   0  0  0  0  0  0  0  0  0  0  0  0
  141.2460   76.9090  221.4790 C   0  0  0  0  0  0  0  0  0  0  0  0
  140.9490   75.5870  221.6050 C   0  0  0  0  0  0  0  0  0  0  0  0
  141.5622   72.6933  220.1538 H   0  0  0  0  0  0  0  0  0  0  0  0
  142.4328   72.6492  221.7261 H   0  0  0  0  0  0  0  0  0  0  0  0
  139.5836   71.1086  219.9800 H   0  0  0  0  0  0  0  0  0  0  0  0
  138.8871   68.7557  220.2382 H   0  0  0  0  0  0  0  0  0  0  0  0
  138.8331   67.7767  222.5350 H   0  0  0  0  0  0  0  0  0  0  0  0
  140.5705   71.5243  225.2128 H   0  0  0  0  0  0  0  0  0  0  0  0
  139.2132   71.7887  226.3159 H   0  0  0  0  0  0  0  0  0  0  0  0
  142.0974   71.2738  226.9067 H   0  0  0  0  0  0  0  0  0  0  0  0
  140.9011   72.1148  227.9016 H   0  0  0  0  0  0  0  0  0  0  0  0
  141.7629   69.3527  228.0304 H   0  0  0  0  0  0  0  0  0  0  0  0
  140.6266   70.1803  229.1059 H   0  0  0  0  0  0  0  0  0  0  0  0
  139.8898   68.1760  227.3951 H   0  0  0  0  0  0  0  0  0  0  0  0
  138.7661   69.4483  227.8749 H   0  0  0  0  0  0  0  0  0  0  0  0
  140.1588   71.5018  224.1748 H   0  0  0  0  0  0  0  0  0  0  0  0
  138.0242   75.8201  223.2347 H   0  0  0  0  0  0  0  0  0  0  0  0
  138.5321   78.2341  223.0242 H   0  0  0  0  0  0  0  0  0  0  0  0
  140.4964   79.3143  219.6924 H   0  0  0  0  0  0  0  0  0  0  0  0
  141.1246   81.7216  219.4526 H   0  0  0  0  0  0  0  0  0  0  0  0
  141.7178   81.9414  223.7207 H   0  0  0  0  0  0  0  0  0  0  0  0
  141.0923   79.5263  223.9574 H   0  0  0  0  0  0  0  0  0  0  0  0
  142.1742   77.2122  220.9726 H   0  0  0  0  0  0  0  0  0  0  0  0
  1  2  2  0
  2  3  1  0
  3  4  1  0
  4  5  1  0
  5  6  2  0
  6  7  1  0
  7  8  2  0
  8  9  1  0
  9 10  1  0
 10 11  2  0
 10 12  1  0
 12 13  1  0
 13 14  1  0
 14 15  1  0
 15 16  1  0
  9 17  2  0
  4 18  2  0
 18 19  1  0
 19 20  2  0
 20 21  1  0
 21 22  2  0
 22 23  1  0
 23 24  2  0
 24 25  1  0
 25 26  2  0
 26 27  1  0
 26 28  1  0
 28 29  2  0
 22 30  1  0
 30 31  2  0
 31  2  1  0
 17  5  1  0
 31 19  1  0
 16 12  1  0
 29 23  1  0
  3 32  1  0
  3 33  1  0
  6 34  1  0
  7 35  1  0
  8 36  1  0
 13 37  1  0
 13 38  1  0
 14 39  1  0
 14 40  1  0
 15 41  1  0
 15 42  1  0
 16 43  1  0
 16 44  1  0
 17 45  1  0
 20 46  1  0
 21 47  1  0
 24 48  1  0
 25 49  1  0
 28 50  1  0
 29 51  1  0
 30 52  1  0
M  END
>  <smiles>  (30) 
O=C1CC(c2cccc(C(=O)N3CCCC3)c2)=Nc2ccc(-c3ccc(F)cc3)cc21

>  <score_type>  (30) 
oracle

>  <origin>  (30) 
autodockgpu

>  <m_score__min__energy>  (30) 
-9.1199999999999992

>  <m_primary>  (30) 
energy

>  <rmsd>  (30) 
6.205005215714321

>  <m_score__min__rmsd>  (30) 
6.205005215714321

>  <meeko>  (30) 
{"free_energy": -9.12, "intermolecular_energy": -10.01, "internal_energy": -0.77, "cluster_size": 40, "cluster_id": 1, "rank_in_cluster": 5}

>  <energy>  (30) 
-8.96

>  <cluster_rmsd>  (30) 
0.2

>  <cluster>  (30) 
1

$$$$

     RDKit          3D

 52 56  0  0  0  0  0  0  0  0999 V2000
  142.8930   74.9680  220.5470 O   0  0  0  0  0  0  0  0  0  0  0  0
  141.8280   74.5620  221.1130 C   0  0  0  0  0  0  0  0  0  0  0  0
  141.5910   73.1010  221.2110 C   0  0  0  0  0  0  0  0  0  0  0  0
  140.3030   72.8500  221.9000 C   0  0  0  0  0  0  0  0  0  0  0  0
  139.8950   71.4420  222.0930 C   0  0  0  0  0  0  0  0  0  0  0  0
  139.5210   70.6460  221.0260 C   0  0  0  0  0  0  0  0  0  0  0  0
  139.1350   69.3340  221.1550 C   0  0  0  0  0  0  0  0  0  0  0  0
  139.1290   68.7970  222.4400 C   0  0  0  0  0  0  0  0  0  0  0  0
  139.4930   69.5400  223.5490 C   0  0  0  0  0  0  0  0  0  0  0  0
  139.4800   68.9630  224.8790 C   0  0  0  0  0  0  0  0  0  0  0  0
  139.1980   67.7230  224.9650 O   0  0  0  0  0  0  0  0  0  0  0  0
  139.7650   69.7310  226.0360 N   0  0  0  0  0  0  0  0  0  0  0  0
  140.1060   71.1330  226.1690 C   0  0  0  0  0  0  0  0  0  0  0  0
  141.0840   71.2050  227.3030 C   0  0  0  0  0  0  0  0  0  0  0  0
  140.8970   69.9520  228.0730 C   0  0  0  0  0  0  0  0  0  0  0  0
  139.7730   69.2310  227.4090 C   0  0  0  0  0  0  0  0  0  0  0  0
  139.8720   70.8650  223.3380 C   0  0  0  0  0  0  0  0  0  0  0  0
  139.5220   73.7600  222.3400 N   0  0  0  0  0  0  0  0  0  0  0  0
  139.7590   75.1580  222.2400 C   0  0  0  0  0  0  0  0  0  0  0  0
  138.8920   76.1120  222.7270 C   0  0  0  0  0  0  0  0  0  0  0  0
  139.1630   77.4580  222.6090 C   0  0  0  0  0  0  0  0  0  0  0  0
  140.3350   77.8540  221.9850 C   0  0  0  0  0  0  0  0  0  0  0  0
  140.6920   79.2620  221.8210 C   0  0  0  0  0  0  0  0  0  0  0  0
  140.5050   79.9270  220.6270 C   0  0  0  0  0  0  0  0  0  0  0  0
  140.8500   81.2720  220.4800 C   0  0  0  0  0  0  0  0  0  0  0  0
  141.3900   81.9310  221.5750 C   0  0  0  0  0  0  0  0  0  0  0  0
  141.7460   83.2430  221.4950 F   0  0  0  0  0  0  0  0  0  0  0  0
  141.5830   81.2800  222.7800 C   0  0  0  0  0  0  0  0  0  0  0  0
  141.2360   79.9330  222.9220 C   0  0  0  0  0  0  0  0  0  0  0  0
  141.1990   76.8890  221.4990 C   0  0  0  0  0  0  0  0  0  0  0  0
  140.9080   75.5660  221.6290 C   0  0  0  0  0  0  0  0  0  0  0  0
  141.5560   72.6675  220.2006 H   0  0  0  0  0  0  0  0  0  0  0  0
  142.4074   72.6367  221.7835 H   0  0  0  0  0  0  0  0  0  0  0  0
  139.5332   71.0876  220.0186 H   0  0  0  0  0  0  0  0  0  0  0  0
  138.8432   68.7333  220.2809 H   0  0  0  0  0  0  0  0  0  0  0  0
  138.8252   67.7488  222.5777 H   0  0  0  0  0  0  0  0  0  0  0  0
  140.5654   71.5060  225.2417 H   0  0  0  0  0  0  0  0  0  0  0  0
  139.2165   71.7516  226.3591 H   0  0  0  0  0  0  0  0  0  0  0  0
  142.1128   71.2694  226.9189 H   0  0  0  0  0  0  0  0  0  0  0  0
  140.9169   72.0947  227.9279 H   0  0  0  0  0  0  0  0  0  0  0  0
  141.8130   69.3437  228.0432 H   0  0  0  0  0  0  0  0  0  0  0  0
  140.6780   70.1561  229.1315 H   0  0  0  0  0  0  0  0  0  0  0  0
  139.9469   68.1450  227.4244 H   0  0  0  0  0  0  0  0  0  0  0  0
  138.8129   69.4023  227.9178 H   0  0  0  0  0  0  0  0  0  0  0  0
  140.1650   71.4737  224.2061 H   0  0  0  0  0  0  0  0  0  0  0  0
  137.9628   75.7919  223.2210 H   0  0  0  0  0  0  0  0  0  0  0  0
  138.4600   78.2062  223.0039 H   0  0  0  0  0  0  0  0  0  0  0  0
  140.0745   79.3857  219.7716 H   0  0  0  0  0  0  0  0  0  0  0  0
  140.6981   81.7940  219.5237 H   0  0  0  0  0  0  0  0  0  0  0  0
  142.0126   81.8260  223.6328 H   0  0  0  0  0  0  0  0  0  0  0  0
  141.3874   79.4118  223.8788 H   0  0  0  0  0  0  0  0  0  0  0  0
  142.1315   77.1945  221.0020 H   0  0  0  0  0  0  0  0  0  0  0  0
  1  2  2  0
  2  3  1  0
  3  4  1  0
  4  5  1  0
  5  6  2  0
  6  7  1  0
  7  8  2  0
  8  9  1  0
  9 10  1  0
 10 11  2  0
 10 12  1  0
 12 13  1  0
 13 14  1  0
 14 15  1  0
 15 16  1  0
  9 17  2  0
  4 18  2  0
 18 19  1  0
 19 20  2  0
 20 21  1  0
 21 22  2  0
 22 23  1  0
 23 24  2  0
 24 25  1  0
 25 26  2  0
 26 27  1  0
 26 28  1  0
 28 29  2  0
 22 30  1  0
 30 31  2  0
 31  2  1  0
 17  5  1  0
 31 19  1  0
 16 12  1  0
 29 23  1  0
  3 32  1  0
  3 33  1  0
  6 34  1  0
  7 35  1  0
  8 36  1  0
 13 37  1  0
 13 38  1  0
 14 39  1  0
 14 40  1  0
 15 41  1  0
 15 42  1  0
 16 43  1  0
 16 44  1  0
 17 45  1  0
 20 46  1  0
 21 47  1  0
 24 48  1  0
 25 49  1  0
 28 50  1  0
 29 51  1  0
 30 52  1  0
M  END
>  <smiles>  (31) 
O=C1CC(c2cccc(C(=O)N3CCCC3)c2)=Nc2ccc(-c3ccc(F)cc3)cc21

>  <score_type>  (31) 
oracle

>  <origin>  (31) 
autodockgpu

>  <m_score__min__energy>  (31) 
-9.1199999999999992

>  <m_primary>  (31) 
energy

>  <rmsd>  (31) 
6.196824387429613

>  <m_score__min__rmsd>  (31) 
6.196824387429613

>  <meeko>  (31) 
{"free_energy": -9.12, "intermolecular_energy": -10.02, "internal_energy": -0.77, "cluster_size": 40, "cluster_id": 1, "rank_in_cluster": 2}

>  <energy>  (31) 
-8.96

>  <cluster_rmsd>  (31) 
0.34

>  <cluster>  (31) 
1

$$$$

     RDKit          3D

 52 56  0  0  0  0  0  0  0  0999 V2000
  142.7650   74.8220  220.6990 O   0  0  0  0  0  0  0  0  0  0  0  0
  141.6670   74.4570  221.2290 C   0  0  0  0  0  0  0  0  0  0  0  0
  141.3840   73.0050  221.3430 C   0  0  0  0  0  0  0  0  0  0  0  0
  140.0640   72.8030  221.9840 C   0  0  0  0  0  0  0  0  0  0  0  0
  139.6080   71.4110  222.1850 C   0  0  0  0  0  0  0  0  0  0  0  0
  139.0620   70.6740  221.1490 C   0  0  0  0  0  0  0  0  0  0  0  0
  138.6250   69.3790  221.2870 C   0  0  0  0  0  0  0  0  0  0  0  0
  138.7490   68.7960  222.5450 C   0  0  0  0  0  0  0  0  0  0  0  0
  139.2870   69.4790  223.6210 C   0  0  0  0  0  0  0  0  0  0  0  0
  139.4090   68.8560  224.9250 C   0  0  0  0  0  0  0  0  0  0  0  0
  139.2070   67.5980  224.9810 O   0  0  0  0  0  0  0  0  0  0  0  0
  139.7350   69.5970  226.0880 N   0  0  0  0  0  0  0  0  0  0  0  0
  140.0020   71.0120  226.2520 C   0  0  0  0  0  0  0  0  0  0  0  0
  141.0570   71.1030  227.3130 C   0  0  0  0  0  0  0  0  0  0  0  0
  141.0020   69.8140  228.0430 C   0  0  0  0  0  0  0  0  0  0  0  0
  139.8760   69.0510  227.4350 C   0  0  0  0  0  0  0  0  0  0  0  0
  139.7080   70.7900  223.4040 C   0  0  0  0  0  0  0  0  0  0  0  0
  139.2930   73.7430  222.3770 N   0  0  0  0  0  0  0  0  0  0  0  0
  139.5750   75.1310  222.2640 C   0  0  0  0  0  0  0  0  0  0  0  0
  138.7170   76.1180  222.7000 C   0  0  0  0  0  0  0  0  0  0  0  0
  139.0310   77.4540  222.5710 C   0  0  0  0  0  0  0  0  0  0  0  0
  140.2380   77.8050  221.9860 C   0  0  0  0  0  0  0  0  0  0  0  0
  140.6420   79.1990  221.8130 C   0  0  0  0  0  0  0  0  0  0  0  0
  140.9480   79.7210  220.5730 C   0  0  0  0  0  0  0  0  0  0  0  0
  141.3340   81.0530  220.4180 C   0  0  0  0  0  0  0  0  0  0  0  0
  141.4010   81.8490  221.5510 C   0  0  0  0  0  0  0  0  0  0  0  0
  141.7710   83.1570  221.4650 F   0  0  0  0  0  0  0  0  0  0  0  0
  141.0970   81.3440  222.8020 C   0  0  0  0  0  0  0  0  0  0  0  0
  140.7120   80.0080  222.9520 C   0  0  0  0  0  0  0  0  0  0  0  0
  141.0920   76.8070  221.5510 C   0  0  0  0  0  0  0  0  0  0  0  0
  140.7580   75.4950  221.6910 C   0  0  0  0  0  0  0  0  0  0  0  0
  141.3763   72.5540  220.3397 H   0  0  0  0  0  0  0  0  0  0  0  0
  142.1635   72.5287  221.9558 H   0  0  0  0  0  0  0  0  0  0  0  0
  138.9731   71.1508  220.1617 H   0  0  0  0  0  0  0  0  0  0  0  0
  138.1951   68.8259  220.4389 H   0  0  0  0  0  0  0  0  0  0  0  0
  138.4085   67.7598  222.6879 H   0  0  0  0  0  0  0  0  0  0  0  0
  140.3671   71.4456  225.3093 H   0  0  0  0  0  0  0  0  0  0  0  0
  139.0947   71.5676  226.5315 H   0  0  0  0  0  0  0  0  0  0  0  0
  142.0483   71.2441  226.8575 H   0  0  0  0  0  0  0  0  0  0  0  0
  140.8862   71.9578  227.9839 H   0  0  0  0  0  0  0  0  0  0  0  0
  141.9470   69.2643  227.9214 H   0  0  0  0  0  0  0  0  0  0  0  0
  140.8521   69.9659  229.1221 H   0  0  0  0  0  0  0  0  0  0  0  0
  140.1133   67.9777  227.3945 H   0  0  0  0  0  0  0  0  0  0  0  0
  138.9488   69.1461  228.0191 H   0  0  0  0  0  0  0  0  0  0  0  0
  140.1389   71.3507  224.2466 H   0  0  0  0  0  0  0  0  0  0  0  0
  137.7600   75.8329  223.1613 H   0  0  0  0  0  0  0  0  0  0  0  0
  138.3356   78.2287  222.9263 H   0  0  0  0  0  0  0  0  0  0  0  0
  140.8863   79.0725  219.6866 H   0  0  0  0  0  0  0  0  0  0  0  0
  141.5781   81.4596  219.4255 H   0  0  0  0  0  0  0  0  0  0  0  0
  141.1584   81.9974  223.6848 H   0  0  0  0  0  0  0  0  0  0  0  0
  140.4693   79.6018  223.9450 H   0  0  0  0  0  0  0  0  0  0  0  0
  142.0519   77.0771  221.0867 H   0  0  0  0  0  0  0  0  0  0  0  0
  1  2  2  0
  2  3  1  0
  3  4  1  0
  4  5  1  0
  5  6  2  0
  6  7  1  0
  7  8  2  0
  8  9  1  0
  9 10  1  0
 10 11  2  0
 10 12  1  0
 12 13  1  0
 13 14  1  0
 14 15  1  0
 15 16  1  0
  9 17  2  0
  4 18  2  0
 18 19  1  0
 19 20  2  0
 20 21  1  0
 21 22  2  0
 22 23  1  0
 23 24  2  0
 24 25  1  0
 25 26  2  0
 26 27  1  0
 26 28  1  0
 28 29  2  0
 22 30  1  0
 30 31  2  0
 31  2  1  0
 17  5  1  0
 31 19  1  0
 16 12  1  0
 29 23  1  0
  3 32  1  0
  3 33  1  0
  6 34  1  0
  7 35  1  0
  8 36  1  0
 13 37  1  0
 13 38  1  0
 14 39  1  0
 14 40  1  0
 15 41  1  0
 15 42  1  0
 16 43  1  0
 16 44  1  0
 17 45  1  0
 20 46  1  0
 21 47  1  0
 24 48  1  0
 25 49  1  0
 28 50  1  0
 29 51  1  0
 30 52  1  0
M  END
>  <smiles>  (32) 
O=C1CC(c2cccc(C(=O)N3CCCC3)c2)=Nc2ccc(-c3ccc(F)cc3)cc21

>  <score_type>  (32) 
oracle

>  <origin>  (32) 
autodockgpu

>  <m_score__min__energy>  (32) 
-9.1199999999999992

>  <m_primary>  (32) 
energy

>  <rmsd>  (32) 
6.147697863229791

>  <m_score__min__rmsd>  (32) 
6.147697863229791

>  <meeko>  (32) 
{"free_energy": -9.03, "intermolecular_energy": -9.93, "internal_energy": -0.8, "cluster_size": 40, "cluster_id": 1, "rank_in_cluster": 26}

>  <energy>  (32) 
-8.94

>  <cluster_rmsd>  (32) 
0.37

>  <cluster>  (32) 
1

$$$$

     RDKit          3D

 52 56  0  0  0  0  0  0  0  0999 V2000
  136.4020   75.9850  221.8420 O   0  0  0  0  0  0  0  0  0  0  0  0
  137.5150   75.3730  221.9330 C   0  0  0  0  0  0  0  0  0  0  0  0
  137.5070   73.8900  221.9620 C   0  0  0  0  0  0  0  0  0  0  0  0
  138.8960   73.3850  222.0710 C   0  0  0  0  0  0  0  0  0  0  0  0
  139.0900   71.9200  222.1120 C   0  0  0  0  0  0  0  0  0  0  0  0
  139.2910   71.1860  220.9580 C   0  0  0  0  0  0  0  0  0  0  0  0
  139.4770   69.8250  220.9470 C   0  0  0  0  0  0  0  0  0  0  0  0
  139.4570   69.1700  222.1750 C   0  0  0  0  0  0  0  0  0  0  0  0
  139.2620   69.8470  223.3660 C   0  0  0  0  0  0  0  0  0  0  0  0
  139.2450   69.1480  224.6360 C   0  0  0  0  0  0  0  0  0  0  0  0
  138.8840   67.9260  224.6150 O   0  0  0  0  0  0  0  0  0  0  0  0
  139.6090   69.7820  225.8500 N   0  0  0  0  0  0  0  0  0  0  0  0
  140.0450   71.1410  226.1030 C   0  0  0  0  0  0  0  0  0  0  0  0
  141.0540   71.0430  227.2070 C   0  0  0  0  0  0  0  0  0  0  0  0
  140.8050   69.7360  227.8620 C   0  0  0  0  0  0  0  0  0  0  0  0
  139.6190   69.1550  227.1690 C   0  0  0  0  0  0  0  0  0  0  0  0
  139.0810   71.2280  223.2970 C   0  0  0  0  0  0  0  0  0  0  0  0
  139.9370   74.1240  222.1290 N   0  0  0  0  0  0  0  0  0  0  0  0
  139.9330   75.5450  222.1000 C   0  0  0  0  0  0  0  0  0  0  0  0
  141.0780   76.3090  222.1650 C   0  0  0  0  0  0  0  0  0  0  0  0
  141.0280   77.6860  222.1330 C   0  0  0  0  0  0  0  0  0  0  0  0
  139.7940   78.3090  222.0340 C   0  0  0  0  0  0  0  0  0  0  0  0
  139.6580   79.7640  221.9950 C   0  0  0  0  0  0  0  0  0  0  0  0
  138.4540   80.3910  222.2410 C   0  0  0  0  0  0  0  0  0  0  0  0
  138.3330   81.7810  222.2010 C   0  0  0  0  0  0  0  0  0  0  0  0
  139.4660   82.5250  221.9050 C   0  0  0  0  0  0  0  0  0  0  0  0
  139.4130   83.8850  221.8510 F   0  0  0  0  0  0  0  0  0  0  0  0
  140.6820   81.9140  221.6570 C   0  0  0  0  0  0  0  0  0  0  0  0
  140.7960   80.5210  221.6970 C   0  0  0  0  0  0  0  0  0  0  0  0
  138.6500   77.5330  221.9690 C   0  0  0  0  0  0  0  0  0  0  0  0
  138.7270   76.1750  222.0020 C   0  0  0  0  0  0  0  0  0  0  0  0
  136.9233   73.5444  222.8279 H   0  0  0  0  0  0  0  0  0  0  0  0
  137.0529   73.5100  221.0350 H   0  0  0  0  0  0  0  0  0  0  0  0
  139.3026   71.7206  219.9967 H   0  0  0  0  0  0  0  0  0  0  0  0
  139.6351   69.2758  220.0071 H   0  0  0  0  0  0  0  0  0  0  0  0
  139.6008   68.0797  222.1995 H   0  0  0  0  0  0  0  0  0  0  0  0
  140.5041   71.5710  225.2006 H   0  0  0  0  0  0  0  0  0  0  0  0
  139.2032   71.7934  226.3784 H   0  0  0  0  0  0  0  0  0  0  0  0
  142.0746   71.0791  226.7983 H   0  0  0  0  0  0  0  0  0  0  0  0
  140.9615   71.8778  227.9174 H   0  0  0  0  0  0  0  0  0  0  0  0
  141.6778   69.0767  227.7459 H   0  0  0  0  0  0  0  0  0  0  0  0
  140.6277   69.8508  228.9415 H   0  0  0  0  0  0  0  0  0  0  0  0
  139.7205   68.0635  227.0777 H   0  0  0  0  0  0  0  0  0  0  0  0
  138.6858   69.3387  227.7216 H   0  0  0  0  0  0  0  0  0  0  0  0
  138.9244   71.7862  224.2318 H   0  0  0  0  0  0  0  0  0  0  0  0
  142.0543   75.8084  222.2442 H   0  0  0  0  0  0  0  0  0  0  0  0
  141.9520   78.2805  222.1852 H   0  0  0  0  0  0  0  0  0  0  0  0
  137.5686   79.7813  222.4741 H   0  0  0  0  0  0  0  0  0  0  0  0
  137.3685   82.2717  222.3982 H   0  0  0  0  0  0  0  0  0  0  0  0
  141.5651   82.5281  221.4268 H   0  0  0  0  0  0  0  0  0  0  0  0
  141.7604   80.0306  221.4983 H   0  0  0  0  0  0  0  0  0  0  0  0
  137.6668   78.0198  221.8897 H   0  0  0  0  0  0  0  0  0  0  0  0
  1  2  2  0
  2  3  1  0
  3  4  1  0
  4  5  1  0
  5  6  2  0
  6  7  1  0
  7  8  2  0
  8  9  1  0
  9 10  1  0
 10 11  2  0
 10 12  1  0
 12 13  1  0
 13 14  1  0
 14 15  1  0
 15 16  1  0
  9 17  2  0
  4 18  2  0
 18 19  1  0
 19 20  2  0
 20 21  1  0
 21 22  2  0
 22 23  1  0
 23 24  2  0
 24 25  1  0
 25 26  2  0
 26 27  1  0
 26 28  1  0
 28 29  2  0
 22 30  1  0
 30 31  2  0
 31  2  1  0
 17  5  1  0
 31 19  1  0
 16 12  1  0
 29 23  1  0
  3 32  1  0
  3 33  1  0
  6 34  1  0
  7 35  1  0
  8 36  1  0
 13 37  1  0
 13 38  1  0
 14 39  1  0
 14 40  1  0
 15 41  1  0
 15 42  1  0
 16 43  1  0
 16 44  1  0
 17 45  1  0
 20 46  1  0
 21 47  1  0
 24 48  1  0
 25 49  1  0
 28 50  1  0
 29 51  1  0
 30 52  1  0
M  END
>  <smiles>  (33) 
O=C1CC(c2cccc(C(=O)N3CCCC3)c2)=Nc2ccc(-c3ccc(F)cc3)cc21

>  <score_type>  (33) 
oracle

>  <origin>  (33) 
autodockgpu

>  <m_score__min__energy>  (33) 
-9.1199999999999992

>  <m_primary>  (33) 
energy

>  <rmsd>  (33) 
6.2863840637676835

>  <m_score__min__rmsd>  (33) 
6.2863840637676835

>  <meeko>  (33) 
{"free_energy": -8.06, "intermolecular_energy": -8.95, "internal_energy": -0.89, "cluster_size": 40, "cluster_id": 1, "rank_in_cluster": 40}

>  <energy>  (33) 
-8.92

>  <cluster_rmsd>  (33) 
0.32

>  <cluster>  (33) 
1

$$$$

     RDKit          3D

 52 56  0  0  0  0  0  0  0  0999 V2000
  142.8880   75.0100  220.5240 O   0  0  0  0  0  0  0  0  0  0  0  0
  141.8270   74.5960  221.0930 C   0  0  0  0  0  0  0  0  0  0  0  0
  141.5980   73.1330  221.1860 C   0  0  0  0  0  0  0  0  0  0  0  0
  140.3140   72.8720  221.8790 C   0  0  0  0  0  0  0  0  0  0  0  0
  139.9150   71.4610  222.0670 C   0  0  0  0  0  0  0  0  0  0  0  0
  139.5650   70.6610  220.9950 C   0  0  0  0  0  0  0  0  0  0  0  0
  139.1880   69.3460  221.1200 C   0  0  0  0  0  0  0  0  0  0  0  0
  139.1640   68.8100  222.4060 C   0  0  0  0  0  0  0  0  0  0  0  0
  139.5040   69.5580  223.5190 C   0  0  0  0  0  0  0  0  0  0  0  0
  139.4740   68.9840  224.8500 C   0  0  0  0  0  0  0  0  0  0  0  0
  139.1770   67.7470  224.9350 O   0  0  0  0  0  0  0  0  0  0  0  0
  139.7580   69.7490  226.0090 N   0  0  0  0  0  0  0  0  0  0  0  0
  140.1130   71.1480  226.1420 C   0  0  0  0  0  0  0  0  0  0  0  0
  141.0820   71.2110  227.2850 C   0  0  0  0  0  0  0  0  0  0  0  0
  140.8750   69.9610  228.0540 C   0  0  0  0  0  0  0  0  0  0  0  0
  139.7490   69.2520  227.3820 C   0  0  0  0  0  0  0  0  0  0  0  0
  139.8760   70.8860  223.3120 C   0  0  0  0  0  0  0  0  0  0  0  0
  139.5300   73.7760  222.3250 N   0  0  0  0  0  0  0  0  0  0  0  0
  139.7600   75.1760  222.2310 C   0  0  0  0  0  0  0  0  0  0  0  0
  138.8890   76.1230  222.7260 C   0  0  0  0  0  0  0  0  0  0  0  0
  139.1520   77.4710  222.6120 C   0  0  0  0  0  0  0  0  0  0  0  0
  140.3200   77.8760  221.9850 C   0  0  0  0  0  0  0  0  0  0  0  0
  140.6690   79.2860  221.8250 C   0  0  0  0  0  0  0  0  0  0  0  0
  140.2470   80.0240  220.7380 C   0  0  0  0  0  0  0  0  0  0  0  0
  140.5860   81.3700  220.5950 C   0  0  0  0  0  0  0  0  0  0  0  0
  141.3640   81.9560  221.5820 C   0  0  0  0  0  0  0  0  0  0  0  0
  141.7280   83.2660  221.4990 F   0  0  0  0  0  0  0  0  0  0  0  0
  141.7950   81.2330  222.6800 C   0  0  0  0  0  0  0  0  0  0  0  0
  141.4530   79.8840  222.8180 C   0  0  0  0  0  0  0  0  0  0  0  0
  141.1870   76.9180  221.4910 C   0  0  0  0  0  0  0  0  0  0  0  0
  140.9040   75.5920  221.6160 C   0  0  0  0  0  0  0  0  0  0  0  0
  141.5614   72.7035  220.1740 H   0  0  0  0  0  0  0  0  0  0  0  0
  142.4191   72.6708  221.7536 H   0  0  0  0  0  0  0  0  0  0  0  0
  139.5898   71.1015  219.9873 H   0  0  0  0  0  0  0  0  0  0  0  0
  138.9165   68.7416  220.2419 H   0  0  0  0  0  0  0  0  0  0  0  0
  138.8655   67.7598  222.5404 H   0  0  0  0  0  0  0  0  0  0  0  0
  140.5846   71.5140  225.2181 H   0  0  0  0  0  0  0  0  0  0  0  0
  139.2289   71.7770  226.3226 H   0  0  0  0  0  0  0  0  0  0  0  0
  142.1148   71.2643  226.9101 H   0  0  0  0  0  0  0  0  0  0  0  0
  140.9188   72.1030  227.9076 H   0  0  0  0  0  0  0  0  0  0  0  0
  141.7845   69.3427  228.0319 H   0  0  0  0  0  0  0  0  0  0  0  0
  140.6496   70.1684  229.1105 H   0  0  0  0  0  0  0  0  0  0  0  0
  139.9104   68.1641  227.4008 H   0  0  0  0  0  0  0  0  0  0  0  0
  138.7867   69.4353  227.8824 H   0  0  0  0  0  0  0  0  0  0  0  0
  140.1498   71.4984  224.1838 H   0  0  0  0  0  0  0  0  0  0  0  0
  137.9639   75.7955  223.2228 H   0  0  0  0  0  0  0  0  0  0  0  0
  138.4462   78.2138  223.0122 H   0  0  0  0  0  0  0  0  0  0  0  0
  139.6294   79.5403  219.9669 H   0  0  0  0  0  0  0  0  0  0  0  0
  140.2458   81.9496  219.7242 H   0  0  0  0  0  0  0  0  0  0  0  0
  142.4105   81.7223  223.4492 H   0  0  0  0  0  0  0  0  0  0  0  0
  141.7933   79.3049  223.6891 H   0  0  0  0  0  0  0  0  0  0  0  0
  142.1157   77.2310  220.9915 H   0  0  0  0  0  0  0  0  0  0  0  0
  1  2  2  0
  2  3  1  0
  3  4  1  0
  4  5  1  0
  5  6  2  0
  6  7  1  0
  7  8  2  0
  8  9  1  0
  9 10  1  0
 10 11  2  0
 10 12  1  0
 12 13  1  0
 13 14  1  0
 14 15  1  0
 15 16  1  0
  9 17  2  0
  4 18  2  0
 18 19  1  0
 19 20  2  0
 20 21  1  0
 21 22  2  0
 22 23  1  0
 23 24  2  0
 24 25  1  0
 25 26  2  0
 26 27  1  0
 26 28  1  0
 28 29  2  0
 22 30  1  0
 30 31  2  0
 31  2  1  0
 17  5  1  0
 31 19  1  0
 16 12  1  0
 29 23  1  0
  3 32  1  0
  3 33  1  0
  6 34  1  0
  7 35  1  0
  8 36  1  0
 13 37  1  0
 13 38  1  0
 14 39  1  0
 14 40  1  0
 15 41  1  0
 15 42  1  0
 16 43  1  0
 16 44  1  0
 17 45  1  0
 20 46  1  0
 21 47  1  0
 24 48  1  0
 25 49  1  0
 28 50  1  0
 29 51  1  0
 30 52  1  0
M  END
>  <smiles>  (34) 
O=C1CC(c2cccc(C(=O)N3CCCC3)c2)=Nc2ccc(-c3ccc(F)cc3)cc21

>  <score_type>  (34) 
oracle

>  <origin>  (34) 
autodockgpu

>  <m_score__min__energy>  (34) 
-9.1199999999999992

>  <m_primary>  (34) 
energy

>  <rmsd>  (34) 
6.204906428141056

>  <m_score__min__rmsd>  (34) 
6.204906428141056

>  <meeko>  (34) 
{"free_energy": -9.11, "intermolecular_energy": -10.0, "internal_energy": -0.77, "cluster_size": 40, "cluster_id": 1, "rank_in_cluster": 13}

>  <energy>  (34) 
-8.73

>  <cluster_rmsd>  (34) 
0.64

>  <cluster>  (34) 
1

$$$$

     RDKit          3D

 52 56  0  0  0  0  0  0  0  0999 V2000
  142.9180   74.9450  220.5190 O   0  0  0  0  0  0  0  0  0  0  0  0
  141.8530   74.5470  221.0930 C   0  0  0  0  0  0  0  0  0  0  0  0
  141.6040   73.0870  221.1890 C   0  0  0  0  0  0  0  0  0  0  0  0
  140.3200   72.8460  221.8880 C   0  0  0  0  0  0  0  0  0  0  0  0
  139.9010   71.4400  222.0810 C   0  0  0  0  0  0  0  0  0  0  0  0
  139.5160   70.6500  221.0130 C   0  0  0  0  0  0  0  0  0  0  0  0
  139.1200   69.3410  221.1420 C   0  0  0  0  0  0  0  0  0  0  0  0
  139.1140   68.8010  222.4260 C   0  0  0  0  0  0  0  0  0  0  0  0
  139.4890   69.5390  223.5350 C   0  0  0  0  0  0  0  0  0  0  0  0
  139.4760   68.9610  224.8640 C   0  0  0  0  0  0  0  0  0  0  0  0
  139.1940   67.7210  224.9490 O   0  0  0  0  0  0  0  0  0  0  0  0
  139.7620   69.7270  226.0220 N   0  0  0  0  0  0  0  0  0  0  0  0
  140.1030   71.1290  226.1570 C   0  0  0  0  0  0  0  0  0  0  0  0
  141.0810   71.1990  227.2910 C   0  0  0  0  0  0  0  0  0  0  0  0
  140.8940   69.9450  228.0590 C   0  0  0  0  0  0  0  0  0  0  0  0
  139.7700   69.2260  227.3940 C   0  0  0  0  0  0  0  0  0  0  0  0
  139.8780   70.8620  223.3240 C   0  0  0  0  0  0  0  0  0  0  0  0
  139.5500   73.7610  222.3360 N   0  0  0  0  0  0  0  0  0  0  0  0
  139.7990   75.1570  222.2390 C   0  0  0  0  0  0  0  0  0  0  0  0
  138.9440   76.1170  222.7360 C   0  0  0  0  0  0  0  0  0  0  0  0
  139.2260   77.4620  222.6190 C   0  0  0  0  0  0  0  0  0  0  0  0
  140.3960   77.8490  221.9860 C   0  0  0  0  0  0  0  0  0  0  0  0
  140.7650   79.2540  221.8230 C   0  0  0  0  0  0  0  0  0  0  0  0
  140.9520   79.8200  220.5790 C   0  0  0  0  0  0  0  0  0  0  0  0
  141.3040   81.1620  220.4330 C   0  0  0  0  0  0  0  0  0  0  0  0
  141.4620   81.9240  221.5820 C   0  0  0  0  0  0  0  0  0  0  0  0
  141.8050   83.2390  221.5060 F   0  0  0  0  0  0  0  0  0  0  0  0
  141.2780   81.3740  222.8380 C   0  0  0  0  0  0  0  0  0  0  0  0
  140.9260   80.0280  222.9780 C   0  0  0  0  0  0  0  0  0  0  0  0
  141.2480   76.8780  221.4910 C   0  0  0  0  0  0  0  0  0  0  0  0
  140.9470   75.5570  221.6190 C   0  0  0  0  0  0  0  0  0  0  0  0
  141.5566   72.6566  220.1778 H   0  0  0  0  0  0  0  0  0  0  0  0
  142.4212   72.6137  221.7531 H   0  0  0  0  0  0  0  0  0  0  0  0
  139.5275   71.0936  220.0065 H   0  0  0  0  0  0  0  0  0  0  0  0
  138.8202   68.7442  220.2679 H   0  0  0  0  0  0  0  0  0  0  0  0
  138.8014   67.7553  222.5627 H   0  0  0  0  0  0  0  0  0  0  0  0
  140.5623   71.5033  225.2302 H   0  0  0  0  0  0  0  0  0  0  0  0
  139.2136   71.7475  226.3480 H   0  0  0  0  0  0  0  0  0  0  0  0
  142.1097   71.2639  226.9070 H   0  0  0  0  0  0  0  0  0  0  0  0
  140.9140   72.0877  227.9173 H   0  0  0  0  0  0  0  0  0  0  0  0
  141.8098   69.3365  228.0280 H   0  0  0  0  0  0  0  0  0  0  0  0
  140.6755   70.1472  229.1179 H   0  0  0  0  0  0  0  0  0  0  0  0
  139.9432   68.1398  227.4083 H   0  0  0  0  0  0  0  0  0  0  0  0
  138.8101   69.3978  227.9029 H   0  0  0  0  0  0  0  0  0  0  0  0
  140.1791   71.4672  224.1918 H   0  0  0  0  0  0  0  0  0  0  0  0
  138.0162   75.8035  223.2370 H   0  0  0  0  0  0  0  0  0  0  0  0
  138.5331   78.2154  223.0218 H   0  0  0  0  0  0  0  0  0  0  0  0
  140.8205   79.1985  219.6810 H   0  0  0  0  0  0  0  0  0  0  0  0
  141.4520   81.6032  219.4363 H   0  0  0  0  0  0  0  0  0  0  0  0
  141.4095   82.0000  223.7329 H   0  0  0  0  0  0  0  0  0  0  0  0
  140.7787   79.5868  223.9748 H   0  0  0  0  0  0  0  0  0  0  0  0
  142.1795   77.1771  220.9881 H   0  0  0  0  0  0  0  0  0  0  0  0
  1  2  2  0
  2  3  1  0
  3  4  1  0
  4  5  1  0
  5  6  2  0
  6  7  1  0
  7  8  2  0
  8  9  1  0
  9 10  1  0
 10 11  2  0
 10 12  1  0
 12 13  1  0
 13 14  1  0
 14 15  1  0
 15 16  1  0
  9 17  2  0
  4 18  2  0
 18 19  1  0
 19 20  2  0
 20 21  1  0
 21 22  2  0
 22 23  1  0
 23 24  2  0
 24 25  1  0
 25 26  2  0
 26 27  1  0
 26 28  1  0
 28 29  2  0
 22 30  1  0
 30 31  2  0
 31  2  1  0
 17  5  1  0
 31 19  1  0
 16 12  1  0
 29 23  1  0
  3 32  1  0
  3 33  1  0
  6 34  1  0
  7 35  1  0
  8 36  1  0
 13 37  1  0
 13 38  1  0
 14 39  1  0
 14 40  1  0
 15 41  1  0
 15 42  1  0
 16 43  1  0
 16 44  1  0
 17 45  1  0
 20 46  1  0
 21 47  1  0
 24 48  1  0
 25 49  1  0
 28 50  1  0
 29 51  1  0
 30 52  1  0
M  END
>  <smiles>  (35) 
O=C1CC(c2cccc(C(=O)N3CCCC3)c2)=Nc2ccc(-c3ccc(F)cc3)cc21

>  <score_type>  (35) 
oracle

>  <origin>  (35) 
autodockgpu

>  <m_score__min__energy>  (35) 
-9.1199999999999992

>  <m_primary>  (35) 
energy

>  <rmsd>  (35) 
6.196643769471135

>  <m_score__min__rmsd>  (35) 
6.196643769471135

>  <meeko>  (35) 
{"free_energy": -9.12, "intermolecular_energy": -10.01, "internal_energy": -0.77, "cluster_size": 40, "cluster_id": 1, "rank_in_cluster": 6}

>  <energy>  (35) 
-8.63

>  <cluster_rmsd>  (35) 
1.84

>  <cluster>  (35) 
1

$$$$

     RDKit          3D

 52 56  0  0  0  0  0  0  0  0999 V2000
  142.9010   74.8880  220.4690 O   0  0  0  0  0  0  0  0  0  0  0  0
  141.8410   74.4990  221.0570 C   0  0  0  0  0  0  0  0  0  0  0  0
  141.5850   73.0420  221.1670 C   0  0  0  0  0  0  0  0  0  0  0  0
  140.3070   72.8120  221.8810 C   0  0  0  0  0  0  0  0  0  0  0  0
  139.8830   71.4100  222.0880 C   0  0  0  0  0  0  0  0  0  0  0  0
  139.4820   70.6140  221.0310 C   0  0  0  0  0  0  0  0  0  0  0  0
  139.0810   69.3080  221.1730 C   0  0  0  0  0  0  0  0  0  0  0  0
  139.0870   68.7780  222.4610 C   0  0  0  0  0  0  0  0  0  0  0  0
  139.4780   69.5220  223.5600 C   0  0  0  0  0  0  0  0  0  0  0  0
  139.4780   68.9530  224.8930 C   0  0  0  0  0  0  0  0  0  0  0  0
  139.2070   67.7110  224.9890 O   0  0  0  0  0  0  0  0  0  0  0  0
  139.7630   69.7300  226.0450 N   0  0  0  0  0  0  0  0  0  0  0  0
  140.0920   71.1360  226.1670 C   0  0  0  0  0  0  0  0  0  0  0  0
  141.0750   71.2230  227.2960 C   0  0  0  0  0  0  0  0  0  0  0  0
  140.9040   69.9730  228.0730 C   0  0  0  0  0  0  0  0  0  0  0  0
  139.7830   69.2390  227.4200 C   0  0  0  0  0  0  0  0  0  0  0  0
  139.8720   70.8410  223.3360 C   0  0  0  0  0  0  0  0  0  0  0  0
  139.5470   73.7350  222.3300 N   0  0  0  0  0  0  0  0  0  0  0  0
  139.8020   75.1290  222.2190 C   0  0  0  0  0  0  0  0  0  0  0  0
  138.9570   76.0970  222.7180 C   0  0  0  0  0  0  0  0  0  0  0  0
  139.2450   77.4390  222.5890 C   0  0  0  0  0  0  0  0  0  0  0  0
  140.4100   77.8150  221.9410 C   0  0  0  0  0  0  0  0  0  0  0  0
  140.7840   79.2170  221.7630 C   0  0  0  0  0  0  0  0  0  0  0  0
  141.1120   79.7340  220.5270 C   0  0  0  0  0  0  0  0  0  0  0  0
  141.4680   81.0740  220.3680 C   0  0  0  0  0  0  0  0  0  0  0  0
  141.4830   81.8840  221.4940 C   0  0  0  0  0  0  0  0  0  0  0  0
  141.8220   83.2000  221.4040 F   0  0  0  0  0  0  0  0  0  0  0  0
  141.1570   81.3830  222.7420 C   0  0  0  0  0  0  0  0  0  0  0  0
  140.8010   80.0400  222.8960 C   0  0  0  0  0  0  0  0  0  0  0  0
  141.2520   76.8360  221.4440 C   0  0  0  0  0  0  0  0  0  0  0  0
  140.9450   75.5180  221.5850 C   0  0  0  0  0  0  0  0  0  0  0  0
  141.5250   72.6042  220.1597 H   0  0  0  0  0  0  0  0  0  0  0  0
  142.4053   72.5692  221.7270 H   0  0  0  0  0  0  0  0  0  0  0  0
  139.4842   71.0504  220.0213 H   0  0  0  0  0  0  0  0  0  0  0  0
  138.7685   68.7065  220.3067 H   0  0  0  0  0  0  0  0  0  0  0  0
  138.7709   67.7349  222.6092 H   0  0  0  0  0  0  0  0  0  0  0  0
  140.5436   71.5071  225.2351 H   0  0  0  0  0  0  0  0  0  0  0  0
  139.1982   71.7484  226.3571 H   0  0  0  0  0  0  0  0  0  0  0  0
  142.1012   71.2952  226.9065 H   0  0  0  0  0  0  0  0  0  0  0  0
  140.9023   72.1143  227.9172 H   0  0  0  0  0  0  0  0  0  0  0  0
  141.8252   69.3728  228.0405 H   0  0  0  0  0  0  0  0  0  0  0  0
  140.6897   70.1806  229.1318 H   0  0  0  0  0  0  0  0  0  0  0  0
  139.9662   68.1546  227.4411 H   0  0  0  0  0  0  0  0  0  0  0  0
  138.8244   69.4055  227.9332 H   0  0  0  0  0  0  0  0  0  0  0  0
  140.1870   71.4503  224.1959 H   0  0  0  0  0  0  0  0  0  0  0  0
  138.0326   75.7920  223.2304 H   0  0  0  0  0  0  0  0  0  0  0  0
  138.5606   78.1989  222.9942 H   0  0  0  0  0  0  0  0  0  0  0  0
  141.0925   79.0750  219.6465 H   0  0  0  0  0  0  0  0  0  0  0  0
  141.7292   81.4764  219.3781 H   0  0  0  0  0  0  0  0  0  0  0  0
  141.1781   82.0463  223.6192 H   0  0  0  0  0  0  0  0  0  0  0  0
  140.5398   79.6381  223.8861 H   0  0  0  0  0  0  0  0  0  0  0  0
  142.1797   77.1264  220.9293 H   0  0  0  0  0  0  0  0  0  0  0  0
  1  2  2  0
  2  3  1  0
  3  4  1  0
  4  5  1  0
  5  6  2  0
  6  7  1  0
  7  8  2  0
  8  9  1  0
  9 10  1  0
 10 11  2  0
 10 12  1  0
 12 13  1  0
 13 14  1  0
 14 15  1  0
 15 16  1  0
  9 17  2  0
  4 18  2  0
 18 19  1  0
 19 20  2  0
 20 21  1  0
 21 22  2  0
 22 23  1  0
 23 24  2  0
 24 25  1  0
 25 26  2  0
 26 27  1  0
 26 28  1  0
 28 29  2  0
 22 30  1  0
 30 31  2  0
 31  2  1  0
 17  5  1  0
 31 19  1  0
 16 12  1  0
 29 23  1  0
  3 32  1  0
  3 33  1  0
  6 34  1  0
  7 35  1  0
  8 36  1  0
 13 37  1  0
 13 38  1  0
 14 39  1  0
 14 40  1  0
 15 41  1  0
 15 42  1  0
 16 43  1  0
 16 44  1  0
 17 45  1  0
 20 46  1  0
 21 47  1  0
 24 48  1  0
 25 49  1  0
 28 50  1  0
 29 51  1  0
 30 52  1  0
M  END
>  <smiles>  (36) 
O=C1CC(c2cccc(C(=O)N3CCCC3)c2)=Nc2ccc(-c3ccc(F)cc3)cc21

>  <score_type>  (36) 
oracle

>  <origin>  (36) 
autodockgpu

>  <m_score__min__energy>  (36) 
-9.1199999999999992

>  <m_primary>  (36) 
energy

>  <rmsd>  (36) 
6.194227625637499

>  <m_score__min__rmsd>  (36) 
6.194227625637499

>  <meeko>  (36) 
{"free_energy": -9.11, "intermolecular_energy": -10.01, "internal_energy": -0.79, "cluster_size": 40, "cluster_id": 1, "rank_in_cluster": 8}

>  <energy>  (36) 
-8.41

>  <cluster_rmsd>  (36) 
1.83

>  <cluster>  (36) 
1

$$$$

     RDKit          3D

 52 56  0  0  0  0  0  0  0  0999 V2000
  141.5580   81.3100  224.2110 O   0  0  0  0  0  0  0  0  0  0  0  0
  140.9630   80.4820  223.4500 C   0  0  0  0  0  0  0  0  0  0  0  0
  141.7690   79.7150  222.4690 C   0  0  0  0  0  0  0  0  0  0  0  0
  140.8860   78.8160  221.6900 C   0  0  0  0  0  0  0  0  0  0  0  0
  141.5160   77.9650  220.6580 C   0  0  0  0  0  0  0  0  0  0  0  0
  141.9590   78.4940  219.4590 C   0  0  0  0  0  0  0  0  0  0  0  0
  142.5510   77.7450  218.4720 C   0  0  0  0  0  0  0  0  0  0  0  0
  142.7020   76.3820  218.7110 C   0  0  0  0  0  0  0  0  0  0  0  0
  142.2800   75.7920  219.8890 C   0  0  0  0  0  0  0  0  0  0  0  0
  142.4450   74.3710  220.1210 C   0  0  0  0  0  0  0  0  0  0  0  0
  141.3930   73.6530  220.0700 O   0  0  0  0  0  0  0  0  0  0  0  0
  143.7110   73.7930  220.3930 N   0  0  0  0  0  0  0  0  0  0  0  0
  145.0190   74.4100  220.4950 C   0  0  0  0  0  0  0  0  0  0  0  0
  145.9830   73.4070  219.9360 C   0  0  0  0  0  0  0  0  0  0  0  0
  145.2790   72.1030  219.9870 C   0  0  0  0  0  0  0  0  0  0  0  0
  143.9660   72.3760  220.6390 C   0  0  0  0  0  0  0  0  0  0  0  0
  141.6890   76.6170  220.8450 C   0  0  0  0  0  0  0  0  0  0  0  0
  139.6220   78.7220  221.8470 N   0  0  0  0  0  0  0  0  0  0  0  0
  138.8590   79.4610  222.7910 C   0  0  0  0  0  0  0  0  0  0  0  0
  137.4940   79.3320  222.9320 C   0  0  0  0  0  0  0  0  0  0  0  0
  136.7930   80.0700  223.8610 C   0  0  0  0  0  0  0  0  0  0  0  0
  137.4830   80.9600  224.6680 C   0  0  0  0  0  0  0  0  0  0  0  0
  136.8110   81.7770  225.6770 C   0  0  0  0  0  0  0  0  0  0  0  0
  136.4630   81.2720  226.9120 C   0  0  0  0  0  0  0  0  0  0  0  0
  135.8210   82.0600  227.8690 C   0  0  0  0  0  0  0  0  0  0  0  0
  135.5390   83.3790  227.5450 C   0  0  0  0  0  0  0  0  0  0  0  0
  134.9150   84.1990  228.4350 F   0  0  0  0  0  0  0  0  0  0  0  0
  135.8820   83.9040  226.3110 C   0  0  0  0  0  0  0  0  0  0  0  0
  136.5240   83.1090  225.3570 C   0  0  0  0  0  0  0  0  0  0  0  0
  138.8530   81.0820  224.5200 C   0  0  0  0  0  0  0  0  0  0  0  0
  139.5210   80.3420  223.5940 C   0  0  0  0  0  0  0  0  0  0  0  0
  142.2742   80.4133  221.7855 H   0  0  0  0  0  0  0  0  0  0  0  0
  142.5187   79.1141  223.0046 H   0  0  0  0  0  0  0  0  0  0  0  0
  141.8301   79.5728  219.2870 H   0  0  0  0  0  0  0  0  0  0  0  0
  142.8917   78.2030  217.5317 H   0  0  0  0  0  0  0  0  0  0  0  0
  143.1715   75.7545  217.9391 H   0  0  0  0  0  0  0  0  0  0  0  0
  145.0511   75.3408  219.9098 H   0  0  0  0  0  0  0  0  0  0  0  0
  145.2641   74.6746  221.5342 H   0  0  0  0  0  0  0  0  0  0  0  0
  146.2433   73.6621  218.8981 H   0  0  0  0  0  0  0  0  0  0  0  0
  146.9225   73.3841  220.5078 H   0  0  0  0  0  0  0  0  0  0  0  0
  145.1278   71.7092  218.9711 H   0  0  0  0  0  0  0  0  0  0  0  0
  145.8587   71.3512  220.5427 H   0  0  0  0  0  0  0  0  0  0  0  0
  143.1751   71.7570  220.1904 H   0  0  0  0  0  0  0  0  0  0  0  0
  143.9799   72.1383  221.7129 H   0  0  0  0  0  0  0  0  0  0  0  0
  141.3469   76.1680  221.7892 H   0  0  0  0  0  0  0  0  0  0  0  0
  136.9518   78.6238  222.2883 H   0  0  0  0  0  0  0  0  0  0  0  0
  135.7036   79.9544  223.9602 H   0  0  0  0  0  0  0  0  0  0  0  0
  136.6967   80.2235  227.1487 H   0  0  0  0  0  0  0  0  0  0  0  0
  135.5468   81.6471  228.8510 H   0  0  0  0  0  0  0  0  0  0  0  0
  135.6479   84.9536  226.0795 H   0  0  0  0  0  0  0  0  0  0  0  0
  136.7980   83.5218  224.3749 H   0  0  0  0  0  0  0  0  0  0  0  0
  139.4085   81.7851  225.1580 H   0  0  0  0  0  0  0  0  0  0  0  0
  1  2  2  0
  2  3  1  0
  3  4  1  0
  4  5  1  0
  5  6  2  0
  6  7  1  0
  7  8  2  0
  8  9  1  0
  9 10  1  0
 10 11  2  0
 10 12  1  0
 12 13  1  0
 13 14  1  0
 14 15  1  0
 15 16  1  0
  9 17  2  0
  4 18  2  0
 18 19  1  0
 19 20  2  0
 20 21  1  0
 21 22  2  0
 22 23  1  0
 23 24  2  0
 24 25  1  0
 25 26  2  0
 26 27  1  0
 26 28  1  0
 28 29  2  0
 22 30  1  0
 30 31  2  0
 31  2  1  0
 17  5  1  0
 31 19  1  0
 16 12  1  0
 29 23  1  0
  3 32  1  0
  3 33  1  0
  6 34  1  0
  7 35  1  0
  8 36  1  0
 13 37  1  0
 13 38  1  0
 14 39  1  0
 14 40  1  0
 15 41  1  0
 15 42  1  0
 16 43  1  0
 16 44  1  0
 17 45  1  0
 20 46  1  0
 21 47  1  0
 24 48  1  0
 25 49  1  0
 28 50  1  0
 29 51  1  0
 30 52  1  0
M  END
>  <smiles>  (37) 
O=C1CC(c2cccc(C(=O)N3CCCC3)c2)=Nc2ccc(-c3ccc(F)cc3)cc21

>  <score_type>  (37) 
oracle

>  <origin>  (37) 
autodockgpu

>  <m_score__min__energy>  (37) 
-9.1199999999999992

>  <m_primary>  (37) 
energy

>  <rmsd>  (37) 
9.136927984952766

>  <m_score__min__rmsd>  (37) 
9.136927984952766

>  <meeko>  (37) 
{"free_energy": -8.12, "intermolecular_energy": -9.01, "internal_energy": -0.99, "cluster_size": 9, "cluster_id": 2, "rank_in_cluster": 4}

>  <energy>  (37) 
-8.33

>  <cluster_rmsd>  (37) 
1.86

>  <cluster>  (37) 
1

$$$$

     RDKit          3D

 52 56  0  0  0  0  0  0  0  0999 V2000
  142.8160   75.3270  220.3640 O   0  0  0  0  0  0  0  0  0  0  0  0
  141.7950   74.8790  220.9790 C   0  0  0  0  0  0  0  0  0  0  0  0
  141.6160   73.4090  221.0770 C   0  0  0  0  0  0  0  0  0  0  0  0
  140.3750   73.1070  221.8270 C   0  0  0  0  0  0  0  0  0  0  0  0
  140.0280   71.6830  222.0280 C   0  0  0  0  0  0  0  0  0  0  0  0
  139.8730   70.8200  220.9590 C   0  0  0  0  0  0  0  0  0  0  0  0
  139.5530   69.4920  221.0960 C   0  0  0  0  0  0  0  0  0  0  0  0
  139.3790   69.0090  222.3900 C   0  0  0  0  0  0  0  0  0  0  0  0
  139.5200   69.8210  223.5020 C   0  0  0  0  0  0  0  0  0  0  0  0
  139.3350   69.3010  224.8420 C   0  0  0  0  0  0  0  0  0  0  0  0
  138.8210   68.1390  224.9430 O   0  0  0  0  0  0  0  0  0  0  0  0
  139.7040   70.0400  225.9950 N   0  0  0  0  0  0  0  0  0  0  0  0
  140.2970   71.3570  226.1130 C   0  0  0  0  0  0  0  0  0  0  0  0
  141.2150   71.2820  227.2960 C   0  0  0  0  0  0  0  0  0  0  0  0
  140.7590   70.1120  228.0830 C   0  0  0  0  0  0  0  0  0  0  0  0
  139.5530   69.5930  227.3780 C   0  0  0  0  0  0  0  0  0  0  0  0
  139.8460   71.1590  223.2830 C   0  0  0  0  0  0  0  0  0  0  0  0
  139.5840   73.9850  222.3120 N   0  0  0  0  0  0  0  0  0  0  0  0
  139.7650   75.3910  222.2120 C   0  0  0  0  0  0  0  0  0  0  0  0
  138.8890   76.3090  222.7500 C   0  0  0  0  0  0  0  0  0  0  0  0
  139.1050   77.6660  222.6300 C   0  0  0  0  0  0  0  0  0  0  0  0
  140.2290   78.1080  221.9510 C   0  0  0  0  0  0  0  0  0  0  0  0
  140.5270   79.5290  221.7820 C   0  0  0  0  0  0  0  0  0  0  0  0
  140.1000   80.2370  220.6770 C   0  0  0  0  0  0  0  0  0  0  0  0
  140.3900   81.5940  220.5240 C   0  0  0  0  0  0  0  0  0  0  0  0
  141.1240   82.2210  221.5200 C   0  0  0  0  0  0  0  0  0  0  0  0
  141.4380   83.5430  221.4280 F   0  0  0  0  0  0  0  0  0  0  0  0
  141.5590   81.5270  222.6350 C   0  0  0  0  0  0  0  0  0  0  0  0
  141.2670   80.1680  222.7830 C   0  0  0  0  0  0  0  0  0  0  0  0
  141.1030   77.1780  221.4160 C   0  0  0  0  0  0  0  0  0  0  0  0
  140.8670   75.8450  221.5480 C   0  0  0  0  0  0  0  0  0  0  0  0
  141.5459   72.9808  220.0662 H   0  0  0  0  0  0  0  0  0  0  0  0
  142.4764   72.9712  221.6043 H   0  0  0  0  0  0  0  0  0  0  0  0
  140.0137   71.2191  219.9437 H   0  0  0  0  0  0  0  0  0  0  0  0
  139.4388   68.8369  220.2198 H   0  0  0  0  0  0  0  0  0  0  0  0
  139.1215   67.9492  222.5332 H   0  0  0  0  0  0  0  0  0  0  0  0
  140.8629   71.6061  225.2032 H   0  0  0  0  0  0  0  0  0  0  0  0
  139.5324   72.1375  226.2403 H   0  0  0  0  0  0  0  0  0  0  0  0
  142.2549   71.1409  226.9663 H   0  0  0  0  0  0  0  0  0  0  0  0
  141.1879   72.2071  227.8906 H   0  0  0  0  0  0  0  0  0  0  0  0
  141.5444   69.3426  228.1153 H   0  0  0  0  0  0  0  0  0  0  0  0
  140.5322   70.3877  229.1235 H   0  0  0  0  0  0  0  0  0  0  0  0
  139.5182   68.4947  227.4281 H   0  0  0  0  0  0  0  0  0  0  0  0
  138.6195   69.9578  227.8313 H   0  0  0  0  0  0  0  0  0  0  0  0
  139.9621   71.8222  224.1529 H   0  0  0  0  0  0  0  0  0  0  0  0
  137.9980   75.9516  223.2869 H   0  0  0  0  0  0  0  0  0  0  0  0
  138.3965   78.3855  223.0662 H   0  0  0  0  0  0  0  0  0  0  0  0
  139.5181   79.7205  219.8994 H   0  0  0  0  0  0  0  0  0  0  0  0
  140.0464   82.1499  219.6392 H   0  0  0  0  0  0  0  0  0  0  0  0
  142.1389   82.0485  223.4107 H   0  0  0  0  0  0  0  0  0  0  0  0
  141.6117   79.6126  223.6677 H   0  0  0  0  0  0  0  0  0  0  0  0
  141.9990   77.5208  220.8777 H   0  0  0  0  0  0  0  0  0  0  0  0
  1  2  2  0
  2  3  1  0
  3  4  1  0
  4  5  1  0
  5  6  2  0
  6  7  1  0
  7  8  2  0
  8  9  1  0
  9 10  1  0
 10 11  2  0
 10 12  1  0
 12 13  1  0
 13 14  1  0
 14 15  1  0
 15 16  1  0
  9 17  2  0
  4 18  2  0
 18 19  1  0
 19 20  2  0
 20 21  1  0
 21 22  2  0
 22 23  1  0
 23 24  2  0
 24 25  1  0
 25 26  2  0
 26 27  1  0
 26 28  1  0
 28 29  2  0
 22 30  1  0
 30 31  2  0
 31  2  1  0
 17  5  1  0
 31 19  1  0
 16 12  1  0
 29 23  1  0
  3 32  1  0
  3 33  1  0
  6 34  1  0
  7 35  1  0
  8 36  1  0
 13 37  1  0
 13 38  1  0
 14 39  1  0
 14 40  1  0
 15 41  1  0
 15 42  1  0
 16 43  1  0
 16 44  1  0
 17 45  1  0
 20 46  1  0
 21 47  1  0
 24 48  1  0
 25 49  1  0
 28 50  1  0
 29 51  1  0
 30 52  1  0
M  END
>  <smiles>  (38) 
O=C1CC(c2cccc(C(=O)N3CCCC3)c2)=Nc2ccc(-c3ccc(F)cc3)cc21

>  <score_type>  (38) 
oracle

>  <origin>  (38) 
autodockgpu

>  <m_score__min__energy>  (38) 
-9.1199999999999992

>  <m_primary>  (38) 
energy

>  <rmsd>  (38) 
6.316552338367598

>  <m_score__min__rmsd>  (38) 
6.316552338367598

>  <meeko>  (38) 
{"free_energy": -8.94, "intermolecular_energy": -9.83, "internal_energy": -0.8, "cluster_size": 40, "cluster_id": 1, "rank_in_cluster": 32}

>  <energy>  (38) 
-8.33

>  <cluster_rmsd>  (38) 
1.83

>  <cluster>  (38) 
1

$$$$

     RDKit          3D

 52 56  0  0  0  0  0  0  0  0999 V2000
  142.9350   74.9950  220.5020 O   0  0  0  0  0  0  0  0  0  0  0  0
  141.8760   74.5850  221.0760 C   0  0  0  0  0  0  0  0  0  0  0  0
  141.6390   73.1230  221.1650 C   0  0  0  0  0  0  0  0  0  0  0  0
  140.3590   72.8660  221.8660 C   0  0  0  0  0  0  0  0  0  0  0  0
  139.9520   71.4570  222.0520 C   0  0  0  0  0  0  0  0  0  0  0  0
  139.6030   70.6590  220.9780 C   0  0  0  0  0  0  0  0  0  0  0  0
  139.2200   69.3460  221.1010 C   0  0  0  0  0  0  0  0  0  0  0  0
  139.1890   68.8090  222.3860 C   0  0  0  0  0  0  0  0  0  0  0  0
  139.5270   69.5550  223.5010 C   0  0  0  0  0  0  0  0  0  0  0  0
  139.4890   68.9800  224.8310 C   0  0  0  0  0  0  0  0  0  0  0  0
  139.1960   67.7420  224.9140 O   0  0  0  0  0  0  0  0  0  0  0  0
  139.7610   69.7460  225.9930 N   0  0  0  0  0  0  0  0  0  0  0  0
  140.1100   71.1460  226.1290 C   0  0  0  0  0  0  0  0  0  0  0  0
  141.0700   71.2110  227.2790 C   0  0  0  0  0  0  0  0  0  0  0  0
  140.8620   69.9600  228.0470 C   0  0  0  0  0  0  0  0  0  0  0  0
  139.7440   69.2480  227.3660 C   0  0  0  0  0  0  0  0  0  0  0  0
  139.9060   70.8810  223.2970 C   0  0  0  0  0  0  0  0  0  0  0  0
  139.5830   73.7730  222.3220 N   0  0  0  0  0  0  0  0  0  0  0  0
  139.8200   75.1720  222.2310 C   0  0  0  0  0  0  0  0  0  0  0  0
  138.9590   76.1220  222.7360 C   0  0  0  0  0  0  0  0  0  0  0  0
  139.2290   77.4690  222.6260 C   0  0  0  0  0  0  0  0  0  0  0  0
  140.3940   77.8690  221.9920 C   0  0  0  0  0  0  0  0  0  0  0  0
  140.7500   79.2780  221.8350 C   0  0  0  0  0  0  0  0  0  0  0  0
  140.7500   79.8990  220.6030 C   0  0  0  0  0  0  0  0  0  0  0  0
  141.0920   81.2450  220.4630 C   0  0  0  0  0  0  0  0  0  0  0  0
  141.4350   81.9530  221.6060 C   0  0  0  0  0  0  0  0  0  0  0  0
  141.7780   83.2680  221.5360 F   0  0  0  0  0  0  0  0  0  0  0  0
  141.4400   81.3480  222.8500 C   0  0  0  0  0  0  0  0  0  0  0  0
  141.0970   79.9990  222.9840 C   0  0  0  0  0  0  0  0  0  0  0  0
  141.2530   76.9080  221.4880 C   0  0  0  0  0  0  0  0  0  0  0  0
  140.9630   75.5840  221.6100 C   0  0  0  0  0  0  0  0  0  0  0  0
  141.5926   72.6978  220.1516 H   0  0  0  0  0  0  0  0  0  0  0  0
  142.4615   72.6542  221.7251 H   0  0  0  0  0  0  0  0  0  0  0  0
  139.6338   71.0998  219.9706 H   0  0  0  0  0  0  0  0  0  0  0  0
  138.9490   68.7434  220.2215 H   0  0  0  0  0  0  0  0  0  0  0  0
  138.8865   67.7597  222.5182 H   0  0  0  0  0  0  0  0  0  0  0  0
  140.5873   71.5141  225.2088 H   0  0  0  0  0  0  0  0  0  0  0  0
  139.2226   71.7722  226.3030 H   0  0  0  0  0  0  0  0  0  0  0  0
  142.1053   71.2677  226.9116 H   0  0  0  0  0  0  0  0  0  0  0  0
  140.8987   72.1021  227.9008 H   0  0  0  0  0  0  0  0  0  0  0  0
  141.7738   69.3449  228.0318 H   0  0  0  0  0  0  0  0  0  0  0  0
  140.6284   70.1661  229.1020 H   0  0  0  0  0  0  0  0  0  0  0  0
  139.9092   68.1606  227.3852 H   0  0  0  0  0  0  0  0  0  0  0  0
  138.7775   69.4279  227.8594 H   0  0  0  0  0  0  0  0  0  0  0  0
  140.1797   71.4912  224.1704 H   0  0  0  0  0  0  0  0  0  0  0  0
  138.0355   75.7980  223.2381 H   0  0  0  0  0  0  0  0  0  0  0  0
  138.5309   78.2143  223.0349 H   0  0  0  0  0  0  0  0  0  0  0  0
  140.4739   79.3195  219.7097 H   0  0  0  0  0  0  0  0  0  0  0  0
  141.0897   81.7301  219.4758 H   0  0  0  0  0  0  0  0  0  0  0  0
  141.7158   81.9323  223.7402 H   0  0  0  0  0  0  0  0  0  0  0  0
  141.0997   79.5144  223.9715 H   0  0  0  0  0  0  0  0  0  0  0  0
  142.1801   77.2177  220.9834 H   0  0  0  0  0  0  0  0  0  0  0  0
  1  2  2  0
  2  3  1  0
  3  4  1  0
  4  5  1  0
  5  6  2  0
  6  7  1  0
  7  8  2  0
  8  9  1  0
  9 10  1  0
 10 11  2  0
 10 12  1  0
 12 13  1  0
 13 14  1  0
 14 15  1  0
 15 16  1  0
  9 17  2  0
  4 18  2  0
 18 19  1  0
 19 20  2  0
 20 21  1  0
 21 22  2  0
 22 23  1  0
 23 24  2  0
 24 25  1  0
 25 26  2  0
 26 27  1  0
 26 28  1  0
 28 29  2  0
 22 30  1  0
 30 31  2  0
 31  2  1  0
 17  5  1  0
 31 19  1  0
 16 12  1  0
 29 23  1  0
  3 32  1  0
  3 33  1  0
  6 34  1  0
  7 35  1  0
  8 36  1  0
 13 37  1  0
 13 38  1  0
 14 39  1  0
 14 40  1  0
 15 41  1  0
 15 42  1  0
 16 43  1  0
 16 44  1  0
 17 45  1  0
 20 46  1  0
 21 47  1  0
 24 48  1  0
 25 49  1  0
 28 50  1  0
 29 51  1  0
 30 52  1  0
M  END
>  <smiles>  (39) 
O=C1CC(c2cccc(C(=O)N3CCCC3)c2)=Nc2ccc(-c3ccc(F)cc3)cc21

>  <score_type>  (39) 
oracle

>  <origin>  (39) 
autodockgpu

>  <m_score__min__energy>  (39) 
-9.1199999999999992

>  <m_primary>  (39) 
energy

>  <rmsd>  (39) 
6.206222255914053

>  <m_score__min__rmsd>  (39) 
6.206222255914053

>  <meeko>  (39) 
{"free_energy": -9.11, "intermolecular_energy": -10.01, "internal_energy": -0.77, "cluster_size": 40, "cluster_id": 1, "rank_in_cluster": 7}

>  <energy>  (39) 
-8.19

>  <cluster_rmsd>  (39) 
1.9

>  <cluster>  (39) 
1

$$$$

     RDKit          3D

 52 56  0  0  0  0  0  0  0  0999 V2000
  142.8250   75.1470  220.4670 O   0  0  0  0  0  0  0  0  0  0  0  0
  141.7780   74.7220  221.0550 C   0  0  0  0  0  0  0  0  0  0  0  0
  141.5620   73.2570  221.1450 C   0  0  0  0  0  0  0  0  0  0  0  0
  140.2950   72.9840  221.8630 C   0  0  0  0  0  0  0  0  0  0  0  0
  139.9090   71.5690  222.0530 C   0  0  0  0  0  0  0  0  0  0  0  0
  139.6500   70.7410  220.9750 C   0  0  0  0  0  0  0  0  0  0  0  0
  139.2890   69.4220  221.1010 C   0  0  0  0  0  0  0  0  0  0  0  0
  139.1850   68.9110  222.3930 C   0  0  0  0  0  0  0  0  0  0  0  0
  139.4320   69.6870  223.5110 C   0  0  0  0  0  0  0  0  0  0  0  0
  139.3190   69.1380  224.8480 C   0  0  0  0  0  0  0  0  0  0  0  0
  138.9080   67.9340  224.9430 O   0  0  0  0  0  0  0  0  0  0  0  0
  139.6450   69.8920  226.0040 N   0  0  0  0  0  0  0  0  0  0  0  0
  140.1230   71.2550  226.1270 C   0  0  0  0  0  0  0  0  0  0  0  0
  141.0670   71.2460  227.2920 C   0  0  0  0  0  0  0  0  0  0  0  0
  140.7290   70.0320  228.0730 C   0  0  0  0  0  0  0  0  0  0  0  0
  139.5590   69.4190  227.3830 C   0  0  0  0  0  0  0  0  0  0  0  0
  139.7930   71.0170  223.3030 C   0  0  0  0  0  0  0  0  0  0  0  0
  139.5140   73.8800  222.3300 N   0  0  0  0  0  0  0  0  0  0  0  0
  139.7310   75.2810  222.2380 C   0  0  0  0  0  0  0  0  0  0  0  0
  138.8650   76.2200  222.7560 C   0  0  0  0  0  0  0  0  0  0  0  0
  139.1160   77.5710  222.6450 C   0  0  0  0  0  0  0  0  0  0  0  0
  140.2670   77.9870  221.9950 C   0  0  0  0  0  0  0  0  0  0  0  0
  140.6030   79.4000  221.8360 C   0  0  0  0  0  0  0  0  0  0  0  0
  141.3980   80.0680  222.7450 C   0  0  0  0  0  0  0  0  0  0  0  0
  141.7130   81.4180  222.5850 C   0  0  0  0  0  0  0  0  0  0  0  0
  141.2040   82.0800  221.4770 C   0  0  0  0  0  0  0  0  0  0  0  0
  141.4750   83.3980  221.2650 F   0  0  0  0  0  0  0  0  0  0  0  0
  140.4060   81.4270  220.5550 C   0  0  0  0  0  0  0  0  0  0  0  0
  140.0930   80.0740  220.7210 C   0  0  0  0  0  0  0  0  0  0  0  0
  141.1310   77.0370  221.4790 C   0  0  0  0  0  0  0  0  0  0  0  0
  140.8600   75.7090  221.6030 C   0  0  0  0  0  0  0  0  0  0  0  0
  141.5073   72.8322  220.1318 H   0  0  0  0  0  0  0  0  0  0  0  0
  142.3982   72.7977  221.6926 H   0  0  0  0  0  0  0  0  0  0  0  0
  139.7380   71.1620  219.9626 H   0  0  0  0  0  0  0  0  0  0  0  0
  139.0903   68.7953  220.2190 H   0  0  0  0  0  0  0  0  0  0  0  0
  138.8976   67.8579  222.5281 H   0  0  0  0  0  0  0  0  0  0  0  0
  140.6471   71.5626  225.2101 H   0  0  0  0  0  0  0  0  0  0  0  0
  139.2963   71.9649  226.2776 H   0  0  0  0  0  0  0  0  0  0  0  0
  142.1085   71.1988  226.9413 H   0  0  0  0  0  0  0  0  0  0  0  0
  140.9718   72.1586  227.8987 H   0  0  0  0  0  0  0  0  0  0  0  0
  141.5783   69.3330  228.0814 H   0  0  0  0  0  0  0  0  0  0  0  0
  140.4996   70.2752  229.1210 H   0  0  0  0  0  0  0  0  0  0  0  0
  139.6195   68.3213  227.4200 H   0  0  0  0  0  0  0  0  0  0  0  0
  138.6064   69.6974  227.8573 H   0  0  0  0  0  0  0  0  0  0  0  0
  139.9935   71.6512  224.1791 H   0  0  0  0  0  0  0  0  0  0  0  0
  137.9525   75.8836  223.2699 H   0  0  0  0  0  0  0  0  0  0  0  0
  138.4143   78.3065  223.0654 H   0  0  0  0  0  0  0  0  0  0  0  0
  141.7925   79.5237  223.6157 H   0  0  0  0  0  0  0  0  0  0  0  0
  142.3463   81.9420  223.3160 H   0  0  0  0  0  0  0  0  0  0  0  0
  140.0150   81.9755  219.6854 H   0  0  0  0  0  0  0  0  0  0  0  0
  139.4590   79.5506  219.9901 H   0  0  0  0  0  0  0  0  0  0  0  0
  142.0474   77.3589  220.9627 H   0  0  0  0  0  0  0  0  0  0  0  0
  1  2  2  0
  2  3  1  0
  3  4  1  0
  4  5  1  0
  5  6  2  0
  6  7  1  0
  7  8  2  0
  8  9  1  0
  9 10  1  0
 10 11  2  0
 10 12  1  0
 12 13  1  0
 13 14  1  0
 14 15  1  0
 15 16  1  0
  9 17  2  0
  4 18  2  0
 18 19  1  0
 19 20  2  0
 20 21  1  0
 21 22  2  0
 22 23  1  0
 23 24  2  0
 24 25  1  0
 25 26  2  0
 26 27  1  0
 26 28  1  0
 28 29  2  0
 22 30  1  0
 30 31  2  0
 31  2  1  0
 17  5  1  0
 31 19  1  0
 16 12  1  0
 29 23  1  0
  3 32  1  0
  3 33  1  0
  6 34  1  0
  7 35  1  0
  8 36  1  0
 13 37  1  0
 13 38  1  0
 14 39  1  0
 14 40  1  0
 15 41  1  0
 15 42  1  0
 16 43  1  0
 16 44  1  0
 17 45  1  0
 20 46  1  0
 21 47  1  0
 24 48  1  0
 25 49  1  0
 28 50  1  0
 29 51  1  0
 30 52  1  0
M  END
>  <smiles>  (40) 
O=C1CC(c2cccc(C(=O)N3CCCC3)c2)=Nc2ccc(-c3ccc(F)cc3)cc21

>  <score_type>  (40) 
oracle

>  <origin>  (40) 
autodockgpu

>  <m_score__min__energy>  (40) 
-9.1199999999999992

>  <m_primary>  (40) 
energy

>  <rmsd>  (40) 
6.238178521496206

>  <m_score__min__rmsd>  (40) 
6.238178521496206

>  <meeko>  (40) 
{"free_energy": -9.0, "intermolecular_energy": -9.89, "internal_energy": -0.77, "cluster_size": 40, "cluster_id": 1, "rank_in_cluster": 28}

>  <energy>  (40) 
-8.06

>  <cluster_rmsd>  (40) 
1.88

>  <cluster>  (40) 
1

$$$$

     RDKit          3D

 52 56  0  0  0  0  0  0  0  0999 V2000
  141.6530   81.4360  223.8500 O   0  0  0  0  0  0  0  0  0  0  0  0
  141.0760   80.5500  223.1400 C   0  0  0  0  0  0  0  0  0  0  0  0
  141.8890   79.7830  222.1650 C   0  0  0  0  0  0  0  0  0  0  0  0
  141.0270   78.8130  221.4500 C   0  0  0  0  0  0  0  0  0  0  0  0
  141.6660   77.9520  220.4320 C   0  0  0  0  0  0  0  0  0  0  0  0
  142.1420   78.4730  219.2430 C   0  0  0  0  0  0  0  0  0  0  0  0
  142.7430   77.7140  218.2680 C   0  0  0  0  0  0  0  0  0  0  0  0
  142.8700   76.3490  218.5130 C   0  0  0  0  0  0  0  0  0  0  0  0
  142.4150   75.7660  219.6820 C   0  0  0  0  0  0  0  0  0  0  0  0
  142.5550   74.3430  219.9200 C   0  0  0  0  0  0  0  0  0  0  0  0
  141.5110   73.6290  219.7650 O   0  0  0  0  0  0  0  0  0  0  0  0
  143.7890   73.7610  220.3070 N   0  0  0  0  0  0  0  0  0  0  0  0
  145.0820   74.3740  220.5360 C   0  0  0  0  0  0  0  0  0  0  0  0
  146.0930   73.3730  220.0640 C   0  0  0  0  0  0  0  0  0  0  0  0
  145.3850   72.0700  220.0400 C   0  0  0  0  0  0  0  0  0  0  0  0
  144.0170   72.3420  220.5660 C   0  0  0  0  0  0  0  0  0  0  0  0
  141.8160   76.6020  220.6240 C   0  0  0  0  0  0  0  0  0  0  0  0
  139.7740   78.6660  221.6500 N   0  0  0  0  0  0  0  0  0  0  0  0
  139.0050   79.4060  222.5880 C   0  0  0  0  0  0  0  0  0  0  0  0
  137.6520   79.2190  222.7770 C   0  0  0  0  0  0  0  0  0  0  0  0
  136.9450   79.9600  223.6990 C   0  0  0  0  0  0  0  0  0  0  0  0
  137.6150   80.9130  224.4490 C   0  0  0  0  0  0  0  0  0  0  0  0
  136.9350   81.7390  225.4450 C   0  0  0  0  0  0  0  0  0  0  0  0
  136.6450   81.2670  226.7090 C   0  0  0  0  0  0  0  0  0  0  0  0
  135.9950   82.0620  227.6540 C   0  0  0  0  0  0  0  0  0  0  0  0
  135.6440   83.3530  227.2890 C   0  0  0  0  0  0  0  0  0  0  0  0
  135.0070   84.1780  228.1660 F   0  0  0  0  0  0  0  0  0  0  0  0
  135.9260   83.8440  226.0270 C   0  0  0  0  0  0  0  0  0  0  0  0
  136.5770   83.0420  225.0840 C   0  0  0  0  0  0  0  0  0  0  0  0
  138.9720   81.0940  224.2520 C   0  0  0  0  0  0  0  0  0  0  0  0
  139.6480   80.3490  223.3350 C   0  0  0  0  0  0  0  0  0  0  0  0
  142.3397   80.4760  221.4393 H   0  0  0  0  0  0  0  0  0  0  0  0
  142.6827   79.2403  222.6994 H   0  0  0  0  0  0  0  0  0  0  0  0
  142.0337   79.5536  219.0682 H   0  0  0  0  0  0  0  0  0  0  0  0
  143.1083   78.1653  217.3337 H   0  0  0  0  0  0  0  0  0  0  0  0
  143.3476   75.7139  217.7523 H   0  0  0  0  0  0  0  0  0  0  0  0
  145.1706   75.3086  219.9627 H   0  0  0  0  0  0  0  0  0  0  0  0
  145.2282   74.6310  221.5955 H   0  0  0  0  0  0  0  0  0  0  0  0
  146.4504   73.6341  219.0570 H   0  0  0  0  0  0  0  0  0  0  0  0
  146.9745   73.3446  220.7214 H   0  0  0  0  0  0  0  0  0  0  0  0
  145.3302   71.6826  219.0119 H   0  0  0  0  0  0  0  0  0  0  0  0
  145.9081   71.3136  220.6435 H   0  0  0  0  0  0  0  0  0  0  0  0
  143.2711   71.7280  220.0399 H   0  0  0  0  0  0  0  0  0  0  0  0
  143.9285   72.0971  221.6347 H   0  0  0  0  0  0  0  0  0  0  0  0
  141.4479   76.1597  221.5615 H   0  0  0  0  0  0  0  0  0  0  0  0
  137.1251   78.4613  222.1783 H   0  0  0  0  0  0  0  0  0  0  0  0
  135.8659   79.7975  223.8373 H   0  0  0  0  0  0  0  0  0  0  0  0
  136.9330   80.2400  226.9779 H   0  0  0  0  0  0  0  0  0  0  0  0
  135.7678   81.6760  228.6587 H   0  0  0  0  0  0  0  0  0  0  0  0
  135.6364   84.8719  225.7633 H   0  0  0  0  0  0  0  0  0  0  0  0
  136.8028   83.4281  224.0790 H   0  0  0  0  0  0  0  0  0  0  0  0
  139.5112   81.8488  224.8432 H   0  0  0  0  0  0  0  0  0  0  0  0
  1  2  2  0
  2  3  1  0
  3  4  1  0
  4  5  1  0
  5  6  2  0
  6  7  1  0
  7  8  2  0
  8  9  1  0
  9 10  1  0
 10 11  2  0
 10 12  1  0
 12 13  1  0
 13 14  1  0
 14 15  1  0
 15 16  1  0
  9 17  2  0
  4 18  2  0
 18 19  1  0
 19 20  2  0
 20 21  1  0
 21 22  2  0
 22 23  1  0
 23 24  2  0
 24 25  1  0
 25 26  2  0
 26 27  1  0
 26 28  1  0
 28 29  2  0
 22 30  1  0
 30 31  2  0
 31  2  1  0
 17  5  1  0
 31 19  1  0
 16 12  1  0
 29 23  1  0
  3 32  1  0
  3 33  1  0
  6 34  1  0
  7 35  1  0
  8 36  1  0
 13 37  1  0
 13 38  1  0
 14 39  1  0
 14 40  1  0
 15 41  1  0
 15 42  1  0
 16 43  1  0
 16 44  1  0
 17 45  1  0
 20 46  1  0
 21 47  1  0
 24 48  1  0
 25 49  1  0
 28 50  1  0
 29 51  1  0
 30 52  1  0
M  END
>  <smiles>  (41) 
O=C1CC(c2cccc(C(=O)N3CCCC3)c2)=Nc2ccc(-c3ccc(F)cc3)cc21

>  <score_type>  (41) 
oracle

>  <origin>  (41) 
autodockgpu

>  <m_score__min__energy>  (41) 
-9.1199999999999992

>  <m_primary>  (41) 
energy

>  <rmsd>  (41) 
9.232203813978686

>  <m_score__min__rmsd>  (41) 
9.232203813978686

>  <meeko>  (41) 
{"free_energy": -8.1, "intermolecular_energy": -8.99, "internal_energy": -0.99, "cluster_size": 9, "cluster_id": 2, "rank_in_cluster": 6}

>  <energy>  (41) 
-8.14

>  <cluster_rmsd>  (41) 
0.0

>  <cluster>  (41) 
2

$$$$

     RDKit          3D

 52 56  0  0  0  0  0  0  0  0999 V2000
  142.8430   75.0380  220.5160 O   0  0  0  0  0  0  0  0  0  0  0  0
  141.7900   74.6130  221.0910 C   0  0  0  0  0  0  0  0  0  0  0  0
  141.5800   73.1480  221.1920 C   0  0  0  0  0  0  0  0  0  0  0  0
  140.3030   72.8740  221.8920 C   0  0  0  0  0  0  0  0  0  0  0  0
  139.9210   71.4590  222.0900 C   0  0  0  0  0  0  0  0  0  0  0  0
  139.5940   70.6450  221.0210 C   0  0  0  0  0  0  0  0  0  0  0  0
  139.2350   69.3260  221.1540 C   0  0  0  0  0  0  0  0  0  0  0  0
  139.2060   68.8010  222.4440 C   0  0  0  0  0  0  0  0  0  0  0  0
  139.5220   69.5630  223.5540 C   0  0  0  0  0  0  0  0  0  0  0  0
  139.4870   69.0000  224.8890 C   0  0  0  0  0  0  0  0  0  0  0  0
  139.1880   67.7650  224.9840 O   0  0  0  0  0  0  0  0  0  0  0  0
  139.7670   69.7760  226.0430 N   0  0  0  0  0  0  0  0  0  0  0  0
  140.1240   71.1750  226.1660 C   0  0  0  0  0  0  0  0  0  0  0  0
  141.0890   71.2460  227.3110 C   0  0  0  0  0  0  0  0  0  0  0  0
  140.8770   70.0030  228.0900 C   0  0  0  0  0  0  0  0  0  0  0  0
  139.7530   69.2900  227.4200 C   0  0  0  0  0  0  0  0  0  0  0  0
  139.8780   70.8950  223.3390 C   0  0  0  0  0  0  0  0  0  0  0  0
  139.5090   73.7710  222.3380 N   0  0  0  0  0  0  0  0  0  0  0  0
  139.7210   75.1720  222.2360 C   0  0  0  0  0  0  0  0  0  0  0  0
  138.8410   76.1110  222.7300 C   0  0  0  0  0  0  0  0  0  0  0  0
  139.0870   77.4620  222.6090 C   0  0  0  0  0  0  0  0  0  0  0  0
  140.2460   77.8780  221.9750 C   0  0  0  0  0  0  0  0  0  0  0  0
  140.5770   79.2920  221.8070 C   0  0  0  0  0  0  0  0  0  0  0  0
  141.4530   79.9410  222.6520 C   0  0  0  0  0  0  0  0  0  0  0  0
  141.7620   81.2920  222.4850 C   0  0  0  0  0  0  0  0  0  0  0  0
  141.1630   81.9740  221.4360 C   0  0  0  0  0  0  0  0  0  0  0  0
  141.4240   83.2930  221.2200 F   0  0  0  0  0  0  0  0  0  0  0  0
  140.2820   81.3390  220.5780 C   0  0  0  0  0  0  0  0  0  0  0  0
  139.9760   79.9860  220.7510 C   0  0  0  0  0  0  0  0  0  0  0  0
  141.1230   76.9290  221.4820 C   0  0  0  0  0  0  0  0  0  0  0  0
  140.8570   75.6000  221.6150 C   0  0  0  0  0  0  0  0  0  0  0  0
  141.5442   72.7132  220.1822 H   0  0  0  0  0  0  0  0  0  0  0  0
  142.4095   72.6991  221.7580 H   0  0  0  0  0  0  0  0  0  0  0  0
  139.6229   71.0771  220.0098 H   0  0  0  0  0  0  0  0  0  0  0  0
  138.9811   68.7101  220.2787 H   0  0  0  0  0  0  0  0  0  0  0  0
  138.9229   67.7473  222.5841 H   0  0  0  0  0  0  0  0  0  0  0  0
  140.5992   71.5327  225.2407 H   0  0  0  0  0  0  0  0  0  0  0  0
  139.2403   71.8067  226.3389 H   0  0  0  0  0  0  0  0  0  0  0  0
  142.1231   71.2941  226.9390 H   0  0  0  0  0  0  0  0  0  0  0  0
  140.9256   72.1437  227.9254 H   0  0  0  0  0  0  0  0  0  0  0  0
  141.7857   69.3832  228.0769 H   0  0  0  0  0  0  0  0  0  0  0  0
  140.6477   70.2200  229.1437 H   0  0  0  0  0  0  0  0  0  0  0  0
  139.9134   68.2021  227.4480 H   0  0  0  0  0  0  0  0  0  0  0  0
  138.7892   69.4783  227.9157 H   0  0  0  0  0  0  0  0  0  0  0  0
  140.1349   71.5186  224.2079 H   0  0  0  0  0  0  0  0  0  0  0  0
  137.9218   75.7747  223.2320 H   0  0  0  0  0  0  0  0  0  0  0  0
  138.3742   78.1979  223.0096 H   0  0  0  0  0  0  0  0  0  0  0  0
  141.9188   79.3811  223.4764 H   0  0  0  0  0  0  0  0  0  0  0  0
  142.4603   81.8011  223.1656 H   0  0  0  0  0  0  0  0  0  0  0  0
  139.8195   81.9027  219.7544 H   0  0  0  0  0  0  0  0  0  0  0  0
  139.2770   79.4773  220.0709 H   0  0  0  0  0  0  0  0  0  0  0  0
  142.0455   77.2512  220.9769 H   0  0  0  0  0  0  0  0  0  0  0  0
  1  2  2  0
  2  3  1  0
  3  4  1  0
  4  5  1  0
  5  6  2  0
  6  7  1  0
  7  8  2  0
  8  9  1  0
  9 10  1  0
 10 11  2  0
 10 12  1  0
 12 13  1  0
 13 14  1  0
 14 15  1  0
 15 16  1  0
  9 17  2  0
  4 18  2  0
 18 19  1  0
 19 20  2  0
 20 21  1  0
 21 22  2  0
 22 23  1  0
 23 24  2  0
 24 25  1  0
 25 26  2  0
 26 27  1  0
 26 28  1  0
 28 29  2  0
 22 30  1  0
 30 31  2  0
 31  2  1  0
 17  5  1  0
 31 19  1  0
 16 12  1  0
 29 23  1  0
  3 32  1  0
  3 33  1  0
  6 34  1  0
  7 35  1  0
  8 36  1  0
 13 37  1  0
 13 38  1  0
 14 39  1  0
 14 40  1  0
 15 41  1  0
 15 42  1  0
 16 43  1  0
 16 44  1  0
 17 45  1  0
 20 46  1  0
 21 47  1  0
 24 48  1  0
 25 49  1  0
 28 50  1  0
 29 51  1  0
 30 52  1  0
M  END
>  <smiles>  (42) 
O=C1CC(c2cccc(C(=O)N3CCCC3)c2)=Nc2ccc(-c3ccc(F)cc3)cc21

>  <score_type>  (42) 
oracle

>  <origin>  (42) 
autodockgpu

>  <m_score__min__energy>  (42) 
-9.1199999999999992

>  <m_primary>  (42) 
energy

>  <rmsd>  (42) 
6.212113890880326

>  <m_score__min__rmsd>  (42) 
6.212113890880326

>  <meeko>  (42) 
{"free_energy": -9.08, "intermolecular_energy": -9.98, "internal_energy": -0.77, "cluster_size": 40, "cluster_id": 1, "rank_in_cluster": 22}

>  <energy>  (42) 
-8.14

>  <cluster_rmsd>  (42) 
0.06

>  <cluster>  (42) 
2

$$$$

     RDKit          3D

 52 56  0  0  0  0  0  0  0  0999 V2000
  142.8750   75.0420  220.5040 O   0  0  0  0  0  0  0  0  0  0  0  0
  141.8190   74.6230  221.0790 C   0  0  0  0  0  0  0  0  0  0  0  0
  141.5940   73.1590  221.1670 C   0  0  0  0  0  0  0  0  0  0  0  0
  140.3180   72.8910  221.8690 C   0  0  0  0  0  0  0  0  0  0  0  0
  139.9220   71.4780  222.0540 C   0  0  0  0  0  0  0  0  0  0  0  0
  139.5990   70.6730  220.9770 C   0  0  0  0  0  0  0  0  0  0  0  0
  139.2280   69.3560  221.0980 C   0  0  0  0  0  0  0  0  0  0  0  0
  139.1810   68.8240  222.3840 C   0  0  0  0  0  0  0  0  0  0  0  0
  139.4930   69.5770  223.5020 C   0  0  0  0  0  0  0  0  0  0  0  0
  139.4400   69.0060  224.8340 C   0  0  0  0  0  0  0  0  0  0  0  0
  139.1170   67.7760  224.9190 O   0  0  0  0  0  0  0  0  0  0  0  0
  139.7300   69.7680  225.9930 N   0  0  0  0  0  0  0  0  0  0  0  0
  140.1130   71.1600  226.1270 C   0  0  0  0  0  0  0  0  0  0  0  0
  141.0730   71.2050  227.2780 C   0  0  0  0  0  0  0  0  0  0  0  0
  140.8330   69.9610  228.0480 C   0  0  0  0  0  0  0  0  0  0  0  0
  139.6990   69.2740  227.3680 C   0  0  0  0  0  0  0  0  0  0  0  0
  139.8620   70.9060  223.2990 C   0  0  0  0  0  0  0  0  0  0  0  0
  139.5350   73.7910  222.3260 N   0  0  0  0  0  0  0  0  0  0  0  0
  139.7610   75.1920  222.2370 C   0  0  0  0  0  0  0  0  0  0  0  0
  138.8920   76.1350  222.7440 C   0  0  0  0  0  0  0  0  0  0  0  0
  139.1510   77.4840  222.6360 C   0  0  0  0  0  0  0  0  0  0  0  0
  140.3120   77.8940  222.0000 C   0  0  0  0  0  0  0  0  0  0  0  0
  140.6570   79.3060  221.8460 C   0  0  0  0  0  0  0  0  0  0  0  0
  140.2440   80.0430  220.7550 C   0  0  0  0  0  0  0  0  0  0  0  0
  140.5780   81.3910  220.6150 C   0  0  0  0  0  0  0  0  0  0  0  0
  141.3440   81.9800  221.6110 C   0  0  0  0  0  0  0  0  0  0  0  0
  141.7020   83.2910  221.5330 F   0  0  0  0  0  0  0  0  0  0  0  0
  141.7660   81.2570  222.7130 C   0  0  0  0  0  0  0  0  0  0  0  0
  141.4290   79.9070  222.8470 C   0  0  0  0  0  0  0  0  0  0  0  0
  141.1780   76.9410  221.4950 C   0  0  0  0  0  0  0  0  0  0  0  0
  140.8990   75.6140  221.6160 C   0  0  0  0  0  0  0  0  0  0  0  0
  141.5497   72.7344  220.1532 H   0  0  0  0  0  0  0  0  0  0  0  0
  142.4210   72.6965  221.7257 H   0  0  0  0  0  0  0  0  0  0  0  0
  139.6415   71.1110  219.9689 H   0  0  0  0  0  0  0  0  0  0  0  0
  138.9786   68.7473  220.2163 H   0  0  0  0  0  0  0  0  0  0  0  0
  138.8866   67.7723  222.5151 H   0  0  0  0  0  0  0  0  0  0  0  0
  140.6001   71.5145  225.2066 H   0  0  0  0  0  0  0  0  0  0  0  0
  139.2406   71.8075  226.2991 H   0  0  0  0  0  0  0  0  0  0  0  0
  142.1098   71.2357  226.9119 H   0  0  0  0  0  0  0  0  0  0  0  0
  140.9233   72.1017  227.8973 H   0  0  0  0  0  0  0  0  0  0  0  0
  141.7296   69.3239  228.0354 H   0  0  0  0  0  0  0  0  0  0  0  0
  140.6024   70.1757  229.1019 H   0  0  0  0  0  0  0  0  0  0  0  0
  139.8379   68.1830  227.3905 H   0  0  0  0  0  0  0  0  0  0  0  0
  138.7364   69.4782  227.8597 H   0  0  0  0  0  0  0  0  0  0  0  0
  140.1158   71.5218  224.1744 H   0  0  0  0  0  0  0  0  0  0  0  0
  137.9713   75.8028  223.2460 H   0  0  0  0  0  0  0  0  0  0  0  0
  138.4480   78.2231  223.0477 H   0  0  0  0  0  0  0  0  0  0  0  0
  139.6371   79.5566  219.9771 H   0  0  0  0  0  0  0  0  0  0  0  0
  140.2439   81.9693  219.7410 H   0  0  0  0  0  0  0  0  0  0  0  0
  142.3711   81.7483  223.4892 H   0  0  0  0  0  0  0  0  0  0  0  0
  141.7636   79.3289  223.7210 H   0  0  0  0  0  0  0  0  0  0  0  0
  142.1022   77.2588  220.9901 H   0  0  0  0  0  0  0  0  0  0  0  0
  1  2  2  0
  2  3  1  0
  3  4  1  0
  4  5  1  0
  5  6  2  0
  6  7  1  0
  7  8  2  0
  8  9  1  0
  9 10  1  0
 10 11  2  0
 10 12  1  0
 12 13  1  0
 13 14  1  0
 14 15  1  0
 15 16  1  0
  9 17  2  0
  4 18  2  0
 18 19  1  0
 19 20  2  0
 20 21  1  0
 21 22  2  0
 22 23  1  0
 23 24  2  0
 24 25  1  0
 25 26  2  0
 26 27  1  0
 26 28  1  0
 28 29  2  0
 22 30  1  0
 30 31  2  0
 31  2  1  0
 17  5  1  0
 31 19  1  0
 16 12  1  0
 29 23  1  0
  3 32  1  0
  3 33  1  0
  6 34  1  0
  7 35  1  0
  8 36  1  0
 13 37  1  0
 13 38  1  0
 14 39  1  0
 14 40  1  0
 15 41  1  0
 15 42  1  0
 16 43  1  0
 16 44  1  0
 17 45  1  0
 20 46  1  0
 21 47  1  0
 24 48  1  0
 25 49  1  0
 28 50  1  0
 29 51  1  0
 30 52  1  0
M  END
>  <smiles>  (43) 
O=C1CC(c2cccc(C(=O)N3CCCC3)c2)=Nc2ccc(-c3ccc(F)cc3)cc21

>  <score_type>  (43) 
oracle

>  <origin>  (43) 
autodockgpu

>  <m_score__min__energy>  (43) 
-9.1199999999999992

>  <m_primary>  (43) 
energy

>  <rmsd>  (43) 
6.209740433630383

>  <m_score__min__rmsd>  (43) 
6.209740433630383

>  <meeko>  (43) 
{"free_energy": -9.09, "intermolecular_energy": -9.98, "internal_energy": -0.77, "cluster_size": 40, "cluster_id": 1, "rank_in_cluster": 19}

>  <energy>  (43) 
-8.12

>  <cluster_rmsd>  (43) 
0.23

>  <cluster>  (43) 
2

$$$$

     RDKit          3D

 52 56  0  0  0  0  0  0  0  0999 V2000
  142.8760   75.0220  220.5430 O   0  0  0  0  0  0  0  0  0  0  0  0
  141.8090   74.6150  221.1050 C   0  0  0  0  0  0  0  0  0  0  0  0
  141.5700   73.1540  221.1980 C   0  0  0  0  0  0  0  0  0  0  0  0
  140.2810   72.9020  221.8830 C   0  0  0  0  0  0  0  0  0  0  0  0
  139.8710   71.4930  222.0700 C   0  0  0  0  0  0  0  0  0  0  0  0
  139.4970   70.7030  220.9990 C   0  0  0  0  0  0  0  0  0  0  0  0
  139.1090   69.3910  221.1220 C   0  0  0  0  0  0  0  0  0  0  0  0
  139.1000   68.8480  222.4050 C   0  0  0  0  0  0  0  0  0  0  0  0
  139.4640   69.5860  223.5170 C   0  0  0  0  0  0  0  0  0  0  0  0
  139.4490   69.0040  224.8450 C   0  0  0  0  0  0  0  0  0  0  0  0
  139.1630   67.7640  224.9260 O   0  0  0  0  0  0  0  0  0  0  0  0
  139.7350   69.7660  226.0060 N   0  0  0  0  0  0  0  0  0  0  0  0
  140.0790   71.1670  226.1440 C   0  0  0  0  0  0  0  0  0  0  0  0
  141.0570   71.2320  227.2800 C   0  0  0  0  0  0  0  0  0  0  0  0
  140.8660   69.9760  228.0440 C   0  0  0  0  0  0  0  0  0  0  0  0
  139.7410   69.2610  227.3760 C   0  0  0  0  0  0  0  0  0  0  0  0
  139.8460   70.9110  223.3120 C   0  0  0  0  0  0  0  0  0  0  0  0
  139.5000   73.8110  222.3250 N   0  0  0  0  0  0  0  0  0  0  0  0
  139.7400   75.2090  222.2310 C   0  0  0  0  0  0  0  0  0  0  0  0
  138.8730   76.1620  222.7200 C   0  0  0  0  0  0  0  0  0  0  0  0
  139.1450   77.5090  222.6080 C   0  0  0  0  0  0  0  0  0  0  0  0
  140.3190   77.9050  221.9870 C   0  0  0  0  0  0  0  0  0  0  0  0
  140.6780   79.3130  221.8300 C   0  0  0  0  0  0  0  0  0  0  0  0
  140.2940   80.0450  220.7250 C   0  0  0  0  0  0  0  0  0  0  0  0
  140.6430   81.3890  220.5830 C   0  0  0  0  0  0  0  0  0  0  0  0
  141.3910   81.9790  221.5910 C   0  0  0  0  0  0  0  0  0  0  0  0
  141.7620   83.2870  221.5100 F   0  0  0  0  0  0  0  0  0  0  0  0
  141.7850   81.2610  222.7060 C   0  0  0  0  0  0  0  0  0  0  0  0
  141.4330   79.9150  222.8430 C   0  0  0  0  0  0  0  0  0  0  0  0
  141.1830   76.9410  221.4990 C   0  0  0  0  0  0  0  0  0  0  0  0
  140.8900   75.6180  221.6230 C   0  0  0  0  0  0  0  0  0  0  0  0
  141.5367   72.7237  220.1862 H   0  0  0  0  0  0  0  0  0  0  0  0
  142.3847   72.6872  221.7711 H   0  0  0  0  0  0  0  0  0  0  0  0
  139.5108   71.1492  219.9937 H   0  0  0  0  0  0  0  0  0  0  0  0
  138.8178   68.7945  220.2448 H   0  0  0  0  0  0  0  0  0  0  0  0
  138.7939   67.7998  222.5379 H   0  0  0  0  0  0  0  0  0  0  0  0
  140.5400   71.5422  225.2184 H   0  0  0  0  0  0  0  0  0  0  0  0
  139.1910   71.7874  226.3353 H   0  0  0  0  0  0  0  0  0  0  0  0
  142.0863   71.2956  226.8972 H   0  0  0  0  0  0  0  0  0  0  0  0
  140.8918   72.1195  227.9086 H   0  0  0  0  0  0  0  0  0  0  0  0
  141.7805   69.3655  228.0122 H   0  0  0  0  0  0  0  0  0  0  0  0
  140.6465   70.1759  229.1032 H   0  0  0  0  0  0  0  0  0  0  0  0
  139.9121   68.1745  227.3871 H   0  0  0  0  0  0  0  0  0  0  0  0
  138.7810   69.4330  227.8848 H   0  0  0  0  0  0  0  0  0  0  0  0
  140.1397   71.5153  224.1829 H   0  0  0  0  0  0  0  0  0  0  0  0
  137.9426   75.8407  223.2110 H   0  0  0  0  0  0  0  0  0  0  0  0
  138.4423   78.2565  223.0047 H   0  0  0  0  0  0  0  0  0  0  0  0
  139.6993   79.5582  219.9381 H   0  0  0  0  0  0  0  0  0  0  0  0
  140.3338   81.9635  219.6974 H   0  0  0  0  0  0  0  0  0  0  0  0
  142.3794   81.7526  223.4902 H   0  0  0  0  0  0  0  0  0  0  0  0
  141.7430   79.3410  223.7287 H   0  0  0  0  0  0  0  0  0  0  0  0
  142.1170   77.2474  221.0053 H   0  0  0  0  0  0  0  0  0  0  0  0
  1  2  2  0
  2  3  1  0
  3  4  1  0
  4  5  1  0
  5  6  2  0
  6  7  1  0
  7  8  2  0
  8  9  1  0
  9 10  1  0
 10 11  2  0
 10 12  1  0
 12 13  1  0
 13 14  1  0
 14 15  1  0
 15 16  1  0
  9 17  2  0
  4 18  2  0
 18 19  1  0
 19 20  2  0
 20 21  1  0
 21 22  2  0
 22 23  1  0
 23 24  2  0
 24 25  1  0
 25 26  2  0
 26 27  1  0
 26 28  1  0
 28 29  2  0
 22 30  1  0
 30 31  2  0
 31  2  1  0
 17  5  1  0
 31 19  1  0
 16 12  1  0
 29 23  1  0
  3 32  1  0
  3 33  1  0
  6 34  1  0
  7 35  1  0
  8 36  1  0
 13 37  1  0
 13 38  1  0
 14 39  1  0
 14 40  1  0
 15 41  1  0
 15 42  1  0
 16 43  1  0
 16 44  1  0
 17 45  1  0
 20 46  1  0
 21 47  1  0
 24 48  1  0
 25 49  1  0
 28 50  1  0
 29 51  1  0
 30 52  1  0
M  END
>  <smiles>  (44) 
O=C1CC(c2cccc(C(=O)N3CCCC3)c2)=Nc2ccc(-c3ccc(F)cc3)cc21

>  <score_type>  (44) 
oracle

>  <origin>  (44) 
autodockgpu

>  <m_score__min__energy>  (44) 
-9.1199999999999992

>  <m_primary>  (44) 
energy

>  <rmsd>  (44) 
6.203588437937399

>  <m_score__min__rmsd>  (44) 
6.203588437937399

>  <meeko>  (44) 
{"free_energy": -9.1, "intermolecular_energy": -10.0, "internal_energy": -0.77, "cluster_size": 40, "cluster_id": 1, "rank_in_cluster": 14}

>  <energy>  (44) 
-8.12

>  <cluster_rmsd>  (44) 
0.51

>  <cluster>  (44) 
2

$$$$

     RDKit          3D

 52 56  0  0  0  0  0  0  0  0999 V2000
  141.8800   80.9120  224.1290 O   0  0  0  0  0  0  0  0  0  0  0  0
  141.2730   80.2190  223.2510 C   0  0  0  0  0  0  0  0  0  0  0  0
  142.0800   79.4610  222.2640 C   0  0  0  0  0  0  0  0  0  0  0  0
  141.1820   78.7280  221.3410 C   0  0  0  0  0  0  0  0  0  0  0  0
  141.8100   77.9090  220.2820 C   0  0  0  0  0  0  0  0  0  0  0  0
  142.2220   78.4690  219.0870 C   0  0  0  0  0  0  0  0  0  0  0  0
  142.8110   77.7500  218.0750 C   0  0  0  0  0  0  0  0  0  0  0  0
  142.9930   76.3860  218.2870 C   0  0  0  0  0  0  0  0  0  0  0  0
  142.6030   75.7660  219.4600 C   0  0  0  0  0  0  0  0  0  0  0  0
  142.8010   74.3440  219.6630 C   0  0  0  0  0  0  0  0  0  0  0  0
  141.8380   73.5770  219.3330 O   0  0  0  0  0  0  0  0  0  0  0  0
  144.0020   73.8190  220.2030 N   0  0  0  0  0  0  0  0  0  0  0  0
  145.2060   74.4960  220.6400 C   0  0  0  0  0  0  0  0  0  0  0  0
  146.3370   73.5790  220.2820 C   0  0  0  0  0  0  0  0  0  0  0  0
  145.7260   72.2400  220.1080 C   0  0  0  0  0  0  0  0  0  0  0  0
  144.2830   72.4060  220.4410 C   0  0  0  0  0  0  0  0  0  0  0  0
  142.0130   76.5620  220.4410 C   0  0  0  0  0  0  0  0  0  0  0  0
  139.9060   78.7520  221.3940 N   0  0  0  0  0  0  0  0  0  0  0  0
  139.1420   79.4830  222.3450 C   0  0  0  0  0  0  0  0  0  0  0  0
  137.7640   79.4840  222.3720 C   0  0  0  0  0  0  0  0  0  0  0  0
  137.0630   80.2070  223.3120 C   0  0  0  0  0  0  0  0  0  0  0  0
  137.7660   80.9480  224.2490 C   0  0  0  0  0  0  0  0  0  0  0  0
  137.0950   81.7410  225.2770 C   0  0  0  0  0  0  0  0  0  0  0  0
  136.9070   81.2650  226.5580 C   0  0  0  0  0  0  0  0  0  0  0  0
  136.2640   82.0290  227.5340 C   0  0  0  0  0  0  0  0  0  0  0  0
  135.8150   83.2930  227.1810 C   0  0  0  0  0  0  0  0  0  0  0  0
  135.1810   84.0870  228.0880 F   0  0  0  0  0  0  0  0  0  0  0  0
  135.9960   83.7870  225.9020 C   0  0  0  0  0  0  0  0  0  0  0  0
  136.6400   83.0170  224.9290 C   0  0  0  0  0  0  0  0  0  0  0  0
  139.1490   80.9400  224.2140 C   0  0  0  0  0  0  0  0  0  0  0  0
  139.8180   80.2170  223.2740 C   0  0  0  0  0  0  0  0  0  0  0  0
  142.7042   80.1601  221.6882 H   0  0  0  0  0  0  0  0  0  0  0  0
  142.7223   78.7423  222.7941 H   0  0  0  0  0  0  0  0  0  0  0  0
  142.0701   79.5483  218.9384 H   0  0  0  0  0  0  0  0  0  0  0  0
  143.1254   78.2315  217.1373 H   0  0  0  0  0  0  0  0  0  0  0  0
  143.4620   75.7822  217.4961 H   0  0  0  0  0  0  0  0  0  0  0  0
  145.3143   75.4599  220.1212 H   0  0  0  0  0  0  0  0  0  0  0  0
  145.1829   74.7119  221.7184 H   0  0  0  0  0  0  0  0  0  0  0  0
  146.8158   73.9068  219.3475 H   0  0  0  0  0  0  0  0  0  0  0  0
  147.1165   73.5725  221.0581 H   0  0  0  0  0  0  0  0  0  0  0  0
  145.8425   71.8978  219.0691 H   0  0  0  0  0  0  0  0  0  0  0  0
  146.2064   71.4889  220.7522 H   0  0  0  0  0  0  0  0  0  0  0  0
  143.6607   71.7730  219.7913 H   0  0  0  0  0  0  0  0  0  0  0  0
  144.0603   72.1084  221.4763 H   0  0  0  0  0  0  0  0  0  0  0  0
  141.6969   76.0894  221.3827 H   0  0  0  0  0  0  0  0  0  0  0  0
  137.2114   78.8941  221.6260 H   0  0  0  0  0  0  0  0  0  0  0  0
  135.9631   80.1964  223.3189 H   0  0  0  0  0  0  0  0  0  0  0  0
  137.2721   80.2601  226.8166 H   0  0  0  0  0  0  0  0  0  0  0  0
  136.1179   81.6400  228.5525 H   0  0  0  0  0  0  0  0  0  0  0  0
  135.6306   84.7931  225.6485 H   0  0  0  0  0  0  0  0  0  0  0  0
  136.7859   83.4066  223.9107 H   0  0  0  0  0  0  0  0  0  0  0  0
  139.7148   81.5246  224.9543 H   0  0  0  0  0  0  0  0  0  0  0  0
  1  2  2  0
  2  3  1  0
  3  4  1  0
  4  5  1  0
  5  6  2  0
  6  7  1  0
  7  8  2  0
  8  9  1  0
  9 10  1  0
 10 11  2  0
 10 12  1  0
 12 13  1  0
 13 14  1  0
 14 15  1  0
 15 16  1  0
  9 17  2  0
  4 18  2  0
 18 19  1  0
 19 20  2  0
 20 21  1  0
 21 22  2  0
 22 23  1  0
 23 24  2  0
 24 25  1  0
 25 26  2  0
 26 27  1  0
 26 28  1  0
 28 29  2  0
 22 30  1  0
 30 31  2  0
 31  2  1  0
 17  5  1  0
 31 19  1  0
 16 12  1  0
 29 23  1  0
  3 32  1  0
  3 33  1  0
  6 34  1  0
  7 35  1  0
  8 36  1  0
 13 37  1  0
 13 38  1  0
 14 39  1  0
 14 40  1  0
 15 41  1  0
 15 42  1  0
 16 43  1  0
 16 44  1  0
 17 45  1  0
 20 46  1  0
 21 47  1  0
 24 48  1  0
 25 49  1  0
 28 50  1  0
 29 51  1  0
 30 52  1  0
M  END
>  <smiles>  (45) 
O=C1CC(c2cccc(C(=O)N3CCCC3)c2)=Nc2ccc(-c3ccc(F)cc3)cc21

>  <score_type>  (45) 
oracle

>  <origin>  (45) 
autodockgpu

>  <m_score__min__energy>  (45) 
-9.1199999999999992

>  <m_primary>  (45) 
energy

>  <rmsd>  (45) 
9.186265922449826

>  <m_score__min__rmsd>  (45) 
9.186265922449826

>  <meeko>  (45) 
{"free_energy": -8.14, "intermolecular_energy": -9.04, "internal_energy": -0.99, "cluster_size": 9, "cluster_id": 2, "rank_in_cluster": 1}

>  <energy>  (45) 
-8.11

>  <cluster_rmsd>  (45) 
0.5

>  <cluster>  (45) 
2

$$$$

     RDKit          3D

 52 56  0  0  0  0  0  0  0  0999 V2000
  142.9130   75.0030  220.5070 O   0  0  0  0  0  0  0  0  0  0  0  0
  141.8580   74.5900  221.0870 C   0  0  0  0  0  0  0  0  0  0  0  0
  141.6230   73.1280  221.1740 C   0  0  0  0  0  0  0  0  0  0  0  0
  140.3470   72.8690  221.8820 C   0  0  0  0  0  0  0  0  0  0  0  0
  139.9430   71.4590  222.0670 C   0  0  0  0  0  0  0  0  0  0  0  0
  139.6000   70.6590  220.9920 C   0  0  0  0  0  0  0  0  0  0  0  0
  139.2190   69.3450  221.1150 C   0  0  0  0  0  0  0  0  0  0  0  0
  139.1850   68.8090  222.4000 C   0  0  0  0  0  0  0  0  0  0  0  0
  139.5180   69.5560  223.5160 C   0  0  0  0  0  0  0  0  0  0  0  0
  139.4760   68.9820  224.8460 C   0  0  0  0  0  0  0  0  0  0  0  0
  139.1720   67.7470  224.9300 O   0  0  0  0  0  0  0  0  0  0  0  0
  139.7580   69.7460  226.0070 N   0  0  0  0  0  0  0  0  0  0  0  0
  140.1210   71.1420  226.1430 C   0  0  0  0  0  0  0  0  0  0  0  0
  141.0840   71.1990  227.2910 C   0  0  0  0  0  0  0  0  0  0  0  0
  140.8650   69.9500  228.0590 C   0  0  0  0  0  0  0  0  0  0  0  0
  139.7390   69.2480  227.3800 C   0  0  0  0  0  0  0  0  0  0  0  0
  139.8940   70.8830  223.3120 C   0  0  0  0  0  0  0  0  0  0  0  0
  139.5730   73.7740  222.3430 N   0  0  0  0  0  0  0  0  0  0  0  0
  139.8080   75.1730  222.2540 C   0  0  0  0  0  0  0  0  0  0  0  0
  138.9480   76.1210  222.7660 C   0  0  0  0  0  0  0  0  0  0  0  0
  139.2160   77.4690  222.6570 C   0  0  0  0  0  0  0  0  0  0  0  0
  140.3780   77.8720  222.0170 C   0  0  0  0  0  0  0  0  0  0  0  0
  140.7310   79.2810  221.8610 C   0  0  0  0  0  0  0  0  0  0  0  0
  140.7120   79.9070  220.6320 C   0  0  0  0  0  0  0  0  0  0  0  0
  141.0520   81.2540  220.4930 C   0  0  0  0  0  0  0  0  0  0  0  0
  141.4120   81.9570  221.6340 C   0  0  0  0  0  0  0  0  0  0  0  0
  141.7540   83.2730  221.5640 F   0  0  0  0  0  0  0  0  0  0  0  0
  141.4360   81.3460  222.8750 C   0  0  0  0  0  0  0  0  0  0  0  0
  141.0960   79.9970  223.0080 C   0  0  0  0  0  0  0  0  0  0  0  0
  141.2340   76.9120  221.5070 C   0  0  0  0  0  0  0  0  0  0  0  0
  140.9470   75.5880  221.6280 C   0  0  0  0  0  0  0  0  0  0  0  0
  141.5710   72.7049  220.1599 H   0  0  0  0  0  0  0  0  0  0  0  0
  142.4491   72.6583  221.7280 H   0  0  0  0  0  0  0  0  0  0  0  0
  139.6342   71.0987  219.9843 H   0  0  0  0  0  0  0  0  0  0  0  0
  138.9518   68.7412  220.2352 H   0  0  0  0  0  0  0  0  0  0  0  0
  138.8841   67.7592  222.5317 H   0  0  0  0  0  0  0  0  0  0  0  0
  140.5999   71.5056  225.2219 H   0  0  0  0  0  0  0  0  0  0  0  0
  139.2397   71.7761  226.3196 H   0  0  0  0  0  0  0  0  0  0  0  0
  142.1191   71.2459  226.9217 H   0  0  0  0  0  0  0  0  0  0  0  0
  140.9230   72.0920  227.9127 H   0  0  0  0  0  0  0  0  0  0  0  0
  141.7709   69.3263  228.0424 H   0  0  0  0  0  0  0  0  0  0  0  0
  140.6346   70.1586  229.1142 H   0  0  0  0  0  0  0  0  0  0  0  0
  139.8943   68.1592  227.3988 H   0  0  0  0  0  0  0  0  0  0  0  0
  138.7751   69.4365  227.8753 H   0  0  0  0  0  0  0  0  0  0  0  0
  140.1628   71.4944  224.1860 H   0  0  0  0  0  0  0  0  0  0  0  0
  138.0277   75.7948  223.2727 H   0  0  0  0  0  0  0  0  0  0  0  0
  138.5192   78.2127  223.0711 H   0  0  0  0  0  0  0  0  0  0  0  0
  140.4222   79.3315  219.7405 H   0  0  0  0  0  0  0  0  0  0  0  0
  141.0350   81.7435  219.5081 H   0  0  0  0  0  0  0  0  0  0  0  0
  141.7249   81.9263  223.7637 H   0  0  0  0  0  0  0  0  0  0  0  0
  141.1146   79.5078  223.9930 H   0  0  0  0  0  0  0  0  0  0  0  0
  142.1578   77.2233  220.9975 H   0  0  0  0  0  0  0  0  0  0  0  0
  1  2  2  0
  2  3  1  0
  3  4  1  0
  4  5  1  0
  5  6  2  0
  6  7  1  0
  7  8  2  0
  8  9  1  0
  9 10  1  0
 10 11  2  0
 10 12  1  0
 12 13  1  0
 13 14  1  0
 14 15  1  0
 15 16  1  0
  9 17  2  0
  4 18  2  0
 18 19  1  0
 19 20  2  0
 20 21  1  0
 21 22  2  0
 22 23  1  0
 23 24  2  0
 24 25  1  0
 25 26  2  0
 26 27  1  0
 26 28  1  0
 28 29  2  0
 22 30  1  0
 30 31  2  0
 31  2  1  0
 17  5  1  0
 31 19  1  0
 16 12  1  0
 29 23  1  0
  3 32  1  0
  3 33  1  0
  6 34  1  0
  7 35  1  0
  8 36  1  0
 13 37  1  0
 13 38  1  0
 14 39  1  0
 14 40  1  0
 15 41  1  0
 15 42  1  0
 16 43  1  0
 16 44  1  0
 17 45  1  0
 20 46  1  0
 21 47  1  0
 24 48  1  0
 25 49  1  0
 28 50  1  0
 29 51  1  0
 30 52  1  0
M  END
>  <smiles>  (46) 
O=C1CC(c2cccc(C(=O)N3CCCC3)c2)=Nc2ccc(-c3ccc(F)cc3)cc21

>  <score_type>  (46) 
oracle

>  <origin>  (46) 
autodockgpu

>  <m_score__min__energy>  (46) 
-9.1199999999999992

>  <m_primary>  (46) 
energy

>  <rmsd>  (46) 
6.206138478558268

>  <m_score__min__rmsd>  (46) 
6.206138478558268

>  <meeko>  (46) 
{"free_energy": -9.1, "intermolecular_energy": -10.0, "internal_energy": -0.77, "cluster_size": 40, "cluster_id": 1, "rank_in_cluster": 15}

>  <energy>  (46) 
-8.1

>  <cluster_rmsd>  (46) 
0.32

>  <cluster>  (46) 
2

$$$$

     RDKit          3D

 52 56  0  0  0  0  0  0  0  0999 V2000
  137.6920   75.2990  221.5820 O   0  0  0  0  0  0  0  0  0  0  0  0
  138.5850   74.3930  221.6050 C   0  0  0  0  0  0  0  0  0  0  0  0
  138.2000   73.0300  222.0470 C   0  0  0  0  0  0  0  0  0  0  0  0
  139.3810   72.1370  221.9990 C   0  0  0  0  0  0  0  0  0  0  0  0
  139.1900   70.7280  222.4060 C   0  0  0  0  0  0  0  0  0  0  0  0
  138.8340   69.7550  221.4910 C   0  0  0  0  0  0  0  0  0  0  0  0
  138.6460   68.4350  221.8210 C   0  0  0  0  0  0  0  0  0  0  0  0
  138.8300   68.0800  223.1550 C   0  0  0  0  0  0  0  0  0  0  0  0
  139.1880   69.0060  224.1180 C   0  0  0  0  0  0  0  0  0  0  0  0
  139.3750   68.6180  225.5030 C   0  0  0  0  0  0  0  0  0  0  0  0
  139.2030   67.3870  225.7830 O   0  0  0  0  0  0  0  0  0  0  0  0
  139.7320   69.5540  226.5060 N   0  0  0  0  0  0  0  0  0  0  0  0
  139.9740   70.9800  226.4130 C   0  0  0  0  0  0  0  0  0  0  0  0
  141.0690   71.2680  227.3970 C   0  0  0  0  0  0  0  0  0  0  0  0
  141.0720   70.1230  228.3390 C   0  0  0  0  0  0  0  0  0  0  0  0
  139.9390   69.2500  227.9200 C   0  0  0  0  0  0  0  0  0  0  0  0
  139.3600   70.3270  223.7070 C   0  0  0  0  0  0  0  0  0  0  0  0
  140.5510   72.4950  221.6320 N   0  0  0  0  0  0  0  0  0  0  0  0
  140.9090   73.8040  221.2090 C   0  0  0  0  0  0  0  0  0  0  0  0
  142.1840   74.1540  220.8180 C   0  0  0  0  0  0  0  0  0  0  0  0
  142.4870   75.4370  220.4150 C   0  0  0  0  0  0  0  0  0  0  0  0
  141.4820   76.3910  220.4070 C   0  0  0  0  0  0  0  0  0  0  0  0
  141.7240   77.7720  219.9930 C   0  0  0  0  0  0  0  0  0  0  0  0
  141.5370   78.8350  220.8530 C   0  0  0  0  0  0  0  0  0  0  0  0
  141.7710   80.1500  220.4480 C   0  0  0  0  0  0  0  0  0  0  0  0
  142.2010   80.3660  219.1480 C   0  0  0  0  0  0  0  0  0  0  0  0
  142.4460   81.6270  218.6930 F   0  0  0  0  0  0  0  0  0  0  0  0
  142.3950   79.3130  218.2720 C   0  0  0  0  0  0  0  0  0  0  0  0
  142.1590   77.9980  218.6820 C   0  0  0  0  0  0  0  0  0  0  0  0
  140.2050   76.0310  220.8000 C   0  0  0  0  0  0  0  0  0  0  0  0
  139.9330   74.7570  221.1940 C   0  0  0  0  0  0  0  0  0  0  0  0
  137.8168   73.0743  223.0771 H   0  0  0  0  0  0  0  0  0  0  0  0
  137.4193   72.6375  221.3789 H   0  0  0  0  0  0  0  0  0  0  0  0
  138.6937   70.0540  220.4418 H   0  0  0  0  0  0  0  0  0  0  0  0
  138.3620   67.6897  221.0635 H   0  0  0  0  0  0  0  0  0  0  0  0
  138.6862   67.0307  223.4520 H   0  0  0  0  0  0  0  0  0  0  0  0
  140.2916   71.2500  225.3951 H   0  0  0  0  0  0  0  0  0  0  0  0
  139.0666   71.5621  226.6317 H   0  0  0  0  0  0  0  0  0  0  0  0
  142.0379   71.3434  226.8817 H   0  0  0  0  0  0  0  0  0  0  0  0
  140.9060   72.2228  227.9184 H   0  0  0  0  0  0  0  0  0  0  0  0
  142.0232   69.5746  228.2724 H   0  0  0  0  0  0  0  0  0  0  0  0
  140.9626   70.4560  229.3817 H   0  0  0  0  0  0  0  0  0  0  0  0
  140.1979   68.1893  228.0538 H   0  0  0  0  0  0  0  0  0  0  0  0
  139.0341   69.4306  228.5188 H   0  0  0  0  0  0  0  0  0  0  0  0
  139.6440   71.0795  224.4574 H   0  0  0  0  0  0  0  0  0  0  0  0
  142.9774   73.3922  220.8278 H   0  0  0  0  0  0  0  0  0  0  0  0
  143.5094   75.6991  220.1050 H   0  0  0  0  0  0  0  0  0  0  0  0
  141.1959   78.6416  221.8807 H   0  0  0  0  0  0  0  0  0  0  0  0
  141.6186   80.9909  221.1406 H   0  0  0  0  0  0  0  0  0  0  0  0
  142.7374   79.5121  217.2458 H   0  0  0  0  0  0  0  0  0  0  0  0
  142.3120   77.1578  217.9887 H   0  0  0  0  0  0  0  0  0  0  0  0
  139.4015   76.7822  220.7939 H   0  0  0  0  0  0  0  0  0  0  0  0
  1  2  2  0
  2  3  1  0
  3  4  1  0
  4  5  1  0
  5  6  2  0
  6  7  1  0
  7  8  2  0
  8  9  1  0
  9 10  1  0
 10 11  2  0
 10 12  1  0
 12 13  1  0
 13 14  1  0
 14 15  1  0
 15 16  1  0
  9 17  2  0
  4 18  2  0
 18 19  1  0
 19 20  2  0
 20 21  1  0
 21 22  2  0
 22 23  1  0
 23 24  2  0
 24 25  1  0
 25 26  2  0
 26 27  1  0
 26 28  1  0
 28 29  2  0
 22 30  1  0
 30 31  2  0
 31  2  1  0
 17  5  1  0
 31 19  1  0
 16 12  1  0
 29 23  1  0
  3 32  1  0
  3 33  1  0
  6 34  1  0
  7 35  1  0
  8 36  1  0
 13 37  1  0
 13 38  1  0
 14 39  1  0
 14 40  1  0
 15 41  1  0
 15 42  1  0
 16 43  1  0
 16 44  1  0
 17 45  1  0
 20 46  1  0
 21 47  1  0
 24 48  1  0
 25 49  1  0
 28 50  1  0
 29 51  1  0
 30 52  1  0
M  END
>  <smiles>  (47) 
O=C1CC(c2cccc(C(=O)N3CCCC3)c2)=Nc2ccc(-c3ccc(F)cc3)cc21

>  <score_type>  (47) 
oracle

>  <origin>  (47) 
autodockgpu

>  <m_score__min__energy>  (47) 
-9.1199999999999992

>  <m_primary>  (47) 
energy

>  <rmsd>  (47) 
6.0633872514687095

>  <m_score__min__rmsd>  (47) 
6.0633872514687095

>  <meeko>  (47) 
{"free_energy": -8.33, "intermolecular_energy": -9.22, "internal_energy": -0.76, "cluster_size": 40, "cluster_id": 1, "rank_in_cluster": 38}

>  <energy>  (47) 
-8.1

>  <cluster_rmsd>  (47) 
0.53

>  <cluster>  (47) 
2

$$$$

     RDKit          3D

 52 56  0  0  0  0  0  0  0  0999 V2000
  142.9310   74.9770  220.5220 O   0  0  0  0  0  0  0  0  0  0  0  0
  141.8650   74.5730  221.0890 C   0  0  0  0  0  0  0  0  0  0  0  0
  141.6220   73.1130  221.1820 C   0  0  0  0  0  0  0  0  0  0  0  0
  140.3350   72.8640  221.8720 C   0  0  0  0  0  0  0  0  0  0  0  0
  139.9210   71.4570  222.0610 C   0  0  0  0  0  0  0  0  0  0  0  0
  139.5540   70.6630  220.9890 C   0  0  0  0  0  0  0  0  0  0  0  0
  139.1640   69.3530  221.1140 C   0  0  0  0  0  0  0  0  0  0  0  0
  139.1440   68.8140  222.3980 C   0  0  0  0  0  0  0  0  0  0  0  0
  139.5000   69.5550  223.5110 C   0  0  0  0  0  0  0  0  0  0  0  0
  139.4730   68.9780  224.8400 C   0  0  0  0  0  0  0  0  0  0  0  0
  139.1810   67.7400  224.9240 O   0  0  0  0  0  0  0  0  0  0  0  0
  139.7560   69.7420  226.0010 N   0  0  0  0  0  0  0  0  0  0  0  0
  140.1070   71.1420  226.1370 C   0  0  0  0  0  0  0  0  0  0  0  0
  141.0770   71.2050  227.2780 C   0  0  0  0  0  0  0  0  0  0  0  0
  140.8750   69.9530  228.0450 C   0  0  0  0  0  0  0  0  0  0  0  0
  139.7510   69.2420  227.3730 C   0  0  0  0  0  0  0  0  0  0  0  0
  139.8850   70.8790  223.3040 C   0  0  0  0  0  0  0  0  0  0  0  0
  139.5580   73.7760  222.3170 N   0  0  0  0  0  0  0  0  0  0  0  0
  139.8010   75.1730  222.2220 C   0  0  0  0  0  0  0  0  0  0  0  0
  138.9390   76.1290  222.7150 C   0  0  0  0  0  0  0  0  0  0  0  0
  139.2150   77.4750  222.6020 C   0  0  0  0  0  0  0  0  0  0  0  0
  140.3880   77.8670  221.9760 C   0  0  0  0  0  0  0  0  0  0  0  0
  140.7510   79.2740  221.8170 C   0  0  0  0  0  0  0  0  0  0  0  0
  140.7700   79.8880  220.5820 C   0  0  0  0  0  0  0  0  0  0  0  0
  141.1180   81.2320  220.4400 C   0  0  0  0  0  0  0  0  0  0  0  0
  141.4480   81.9450  221.5830 C   0  0  0  0  0  0  0  0  0  0  0  0
  141.7960   83.2590  221.5100 F   0  0  0  0  0  0  0  0  0  0  0  0
  141.4330   81.3470  222.8300 C   0  0  0  0  0  0  0  0  0  0  0  0
  141.0840   80.0000  222.9670 C   0  0  0  0  0  0  0  0  0  0  0  0
  141.2470   76.9010  221.4850 C   0  0  0  0  0  0  0  0  0  0  0  0
  140.9510   75.5780  221.6100 C   0  0  0  0  0  0  0  0  0  0  0  0
  141.5834   72.6836  220.1700 H   0  0  0  0  0  0  0  0  0  0  0  0
  142.4375   72.6435  221.7517 H   0  0  0  0  0  0  0  0  0  0  0  0
  139.5760   71.1055  219.9822 H   0  0  0  0  0  0  0  0  0  0  0  0
  138.8791   68.7538  220.2366 H   0  0  0  0  0  0  0  0  0  0  0  0
  138.8356   67.7666  222.5315 H   0  0  0  0  0  0  0  0  0  0  0  0
  140.5761   71.5118  225.2133 H   0  0  0  0  0  0  0  0  0  0  0  0
  139.2212   71.7679  226.3206 H   0  0  0  0  0  0  0  0  0  0  0  0
  142.1090   71.2620  226.9015 H   0  0  0  0  0  0  0  0  0  0  0  0
  140.9120   72.0952  227.9027 H   0  0  0  0  0  0  0  0  0  0  0  0
  141.7865   69.3377  228.0208 H   0  0  0  0  0  0  0  0  0  0  0  0
  140.6502   70.1577  229.1022 H   0  0  0  0  0  0  0  0  0  0  0  0
  139.9163   68.1546  227.3891 H   0  0  0  0  0  0  0  0  0  0  0  0
  138.7889   69.4211  227.8752 H   0  0  0  0  0  0  0  0  0  0  0  0
  140.1722   71.4860  224.1752 H   0  0  0  0  0  0  0  0  0  0  0  0
  138.0096   75.8107  223.2099 H   0  0  0  0  0  0  0  0  0  0  0  0
  138.5165   78.2249  223.0017 H   0  0  0  0  0  0  0  0  0  0  0  0
  140.5046   79.3046  219.6880 H   0  0  0  0  0  0  0  0  0  0  0  0
  141.1302   81.7120  219.4503 H   0  0  0  0  0  0  0  0  0  0  0  0
  141.6977   81.9356  223.7208 H   0  0  0  0  0  0  0  0  0  0  0  0
  141.0713   79.5209  223.9571 H   0  0  0  0  0  0  0  0  0  0  0  0
  142.1800   77.2049  220.9878 H   0  0  0  0  0  0  0  0  0  0  0  0
  1  2  2  0
  2  3  1  0
  3  4  1  0
  4  5  1  0
  5  6  2  0
  6  7  1  0
  7  8  2  0
  8  9  1  0
  9 10  1  0
 10 11  2  0
 10 12  1  0
 12 13  1  0
 13 14  1  0
 14 15  1  0
 15 16  1  0
  9 17  2  0
  4 18  2  0
 18 19  1  0
 19 20  2  0
 20 21  1  0
 21 22  2  0
 22 23  1  0
 23 24  2  0
 24 25  1  0
 25 26  2  0
 26 27  1  0
 26 28  1  0
 28 29  2  0
 22 30  1  0
 30 31  2  0
 31  2  1  0
 17  5  1  0
 31 19  1  0
 16 12  1  0
 29 23  1  0
  3 32  1  0
  3 33  1  0
  6 34  1  0
  7 35  1  0
  8 36  1  0
 13 37  1  0
 13 38  1  0
 14 39  1  0
 14 40  1  0
 15 41  1  0
 15 42  1  0
 16 43  1  0
 16 44  1  0
 17 45  1  0
 20 46  1  0
 21 47  1  0
 24 48  1  0
 25 49  1  0
 28 50  1  0
 29 51  1  0
 30 52  1  0
M  END
>  <smiles>  (48) 
O=C1CC(c2cccc(C(=O)N3CCCC3)c2)=Nc2ccc(-c3ccc(F)cc3)cc21

>  <score_type>  (48) 
oracle

>  <origin>  (48) 
autodockgpu

>  <m_score__min__energy>  (48) 
-9.1199999999999992

>  <m_primary>  (48) 
energy

>  <rmsd>  (48) 
6.201814830968029

>  <m_score__min__rmsd>  (48) 
6.201814830968029

>  <meeko>  (48) 
{"free_energy": -9.12, "intermolecular_energy": -10.02, "internal_energy": -0.77, "cluster_size": 40, "cluster_id": 1, "rank_in_cluster": 1}

>  <energy>  (48) 
-8.08

>  <cluster_rmsd>  (48) 
0.48

>  <cluster>  (48) 
2

$$$$

     RDKit          3D

 52 56  0  0  0  0  0  0  0  0999 V2000
  137.7190   75.2870  221.5410 O   0  0  0  0  0  0  0  0  0  0  0  0
  138.6060   74.3750  221.5800 C   0  0  0  0  0  0  0  0  0  0  0  0
  138.2090   73.0190  222.0320 C   0  0  0  0  0  0  0  0  0  0  0  0
  139.3860   72.1190  222.0010 C   0  0  0  0  0  0  0  0  0  0  0  0
  139.1830   70.7150  222.4190 C   0  0  0  0  0  0  0  0  0  0  0  0
  138.8100   69.7390  221.5130 C   0  0  0  0  0  0  0  0  0  0  0  0
  138.6110   68.4230  221.8540 C   0  0  0  0  0  0  0  0  0  0  0  0
  138.8010   68.0760  223.1890 C   0  0  0  0  0  0  0  0  0  0  0  0
  139.1740   69.0040  224.1440 C   0  0  0  0  0  0  0  0  0  0  0  0
  139.3670   68.6240  225.5290 C   0  0  0  0  0  0  0  0  0  0  0  0
  139.1950   67.3950  225.8170 O   0  0  0  0  0  0  0  0  0  0  0  0
  139.7310   69.5650  226.5260 N   0  0  0  0  0  0  0  0  0  0  0  0
  139.9750   70.9900  226.4230 C   0  0  0  0  0  0  0  0  0  0  0  0
  141.0750   71.2820  227.4000 C   0  0  0  0  0  0  0  0  0  0  0  0
  141.0800   70.1420  228.3480 C   0  0  0  0  0  0  0  0  0  0  0  0
  139.9440   69.2690  227.9400 C   0  0  0  0  0  0  0  0  0  0  0  0
  139.3580   70.3210  223.7220 C   0  0  0  0  0  0  0  0  0  0  0  0
  140.5610   72.4660  221.6400 N   0  0  0  0  0  0  0  0  0  0  0  0
  140.9300   73.7690  221.2090 C   0  0  0  0  0  0  0  0  0  0  0  0
  142.2100   74.1080  220.8250 C   0  0  0  0  0  0  0  0  0  0  0  0
  142.5240   75.3850  220.4130 C   0  0  0  0  0  0  0  0  0  0  0  0
  141.5250   76.3450  220.3870 C   0  0  0  0  0  0  0  0  0  0  0  0
  141.7790   77.7210  219.9630 C   0  0  0  0  0  0  0  0  0  0  0  0
  141.5300   78.7970  220.7900 C   0  0  0  0  0  0  0  0  0  0  0  0
  141.7760   80.1070  220.3760 C   0  0  0  0  0  0  0  0  0  0  0  0
  142.2820   80.3040  219.0990 C   0  0  0  0  0  0  0  0  0  0  0  0
  142.5420   81.5580  218.6370 F   0  0  0  0  0  0  0  0  0  0  0  0
  142.5380   79.2370  218.2570 C   0  0  0  0  0  0  0  0  0  0  0  0
  142.2900   77.9270  218.6760 C   0  0  0  0  0  0  0  0  0  0  0  0
  140.2430   75.9960  220.7740 C   0  0  0  0  0  0  0  0  0  0  0  0
  139.9590   74.7270  221.1760 C   0  0  0  0  0  0  0  0  0  0  0  0
  137.8184   73.0753  223.0588 H   0  0  0  0  0  0  0  0  0  0  0  0
  137.4305   72.6246  221.3624 H   0  0  0  0  0  0  0  0  0  0  0  0
  138.6648   70.0321  220.4628 H   0  0  0  0  0  0  0  0  0  0  0  0
  138.3141   67.6751  221.1040 H   0  0  0  0  0  0  0  0  0  0  0  0
  138.6495   67.0300  223.4938 H   0  0  0  0  0  0  0  0  0  0  0  0
  140.2883   71.2532  225.4019 H   0  0  0  0  0  0  0  0  0  0  0  0
  139.0697   71.5751  226.6423 H   0  0  0  0  0  0  0  0  0  0  0  0
  142.0416   71.3529  226.8798 H   0  0  0  0  0  0  0  0  0  0  0  0
  140.9165   72.2401  227.9167 H   0  0  0  0  0  0  0  0  0  0  0  0
  142.0298   69.5914  228.2797 H   0  0  0  0  0  0  0  0  0  0  0  0
  140.9759   70.4812  229.3892 H   0  0  0  0  0  0  0  0  0  0  0  0
  140.2016   68.2086  228.0788 H   0  0  0  0  0  0  0  0  0  0  0  0
  139.0423   69.4547  228.5421 H   0  0  0  0  0  0  0  0  0  0  0  0
  139.6559   71.0755  224.4650 H   0  0  0  0  0  0  0  0  0  0  0  0
  142.9987   73.3416  220.8480 H   0  0  0  0  0  0  0  0  0  0  0  0
  143.5507   75.6381  220.1098 H   0  0  0  0  0  0  0  0  0  0  0  0
  141.1285   78.6183  221.7984 H   0  0  0  0  0  0  0  0  0  0  0  0
  141.5746   80.9585  221.0426 H   0  0  0  0  0  0  0  0  0  0  0  0
  142.9399   79.4209  217.2497 H   0  0  0  0  0  0  0  0  0  0  0  0
  142.4920   77.0760  218.0089 H   0  0  0  0  0  0  0  0  0  0  0  0
  139.4446   76.7525  220.7566 H   0  0  0  0  0  0  0  0  0  0  0  0
  1  2  2  0
  2  3  1  0
  3  4  1  0
  4  5  1  0
  5  6  2  0
  6  7  1  0
  7  8  2  0
  8  9  1  0
  9 10  1  0
 10 11  2  0
 10 12  1  0
 12 13  1  0
 13 14  1  0
 14 15  1  0
 15 16  1  0
  9 17  2  0
  4 18  2  0
 18 19  1  0
 19 20  2  0
 20 21  1  0
 21 22  2  0
 22 23  1  0
 23 24  2  0
 24 25  1  0
 25 26  2  0
 26 27  1  0
 26 28  1  0
 28 29  2  0
 22 30  1  0
 30 31  2  0
 31  2  1  0
 17  5  1  0
 31 19  1  0
 16 12  1  0
 29 23  1  0
  3 32  1  0
  3 33  1  0
  6 34  1  0
  7 35  1  0
  8 36  1  0
 13 37  1  0
 13 38  1  0
 14 39  1  0
 14 40  1  0
 15 41  1  0
 15 42  1  0
 16 43  1  0
 16 44  1  0
 17 45  1  0
 20 46  1  0
 21 47  1  0
 24 48  1  0
 25 49  1  0
 28 50  1  0
 29 51  1  0
 30 52  1  0
M  END
>  <smiles>  (49) 
O=C1CC(c2cccc(C(=O)N3CCCC3)c2)=Nc2ccc(-c3ccc(F)cc3)cc21

>  <score_type>  (49) 
oracle

>  <origin>  (49) 
autodockgpu

>  <m_score__min__energy>  (49) 
-9.1199999999999992

>  <m_primary>  (49) 
energy

>  <rmsd>  (49) 
6.0650601489012885

>  <m_score__min__rmsd>  (49) 
6.0650601489012885

>  <meeko>  (49) 
{"free_energy": -8.33, "intermolecular_energy": -9.22, "internal_energy": -0.76, "cluster_size": 40, "cluster_id": 1, "rank_in_cluster": 37}

>  <energy>  (49) 
-8.03

>  <cluster_rmsd>  (49) 
0.64

>  <cluster>  (49) 
2

$$$$

     RDKit          3D

 52 56  0  0  0  0  0  0  0  0999 V2000
  142.9320   74.9780  220.4900 O   0  0  0  0  0  0  0  0  0  0  0  0
  141.8700   74.5750  221.0650 C   0  0  0  0  0  0  0  0  0  0  0  0
  141.6250   73.1150  221.1590 C   0  0  0  0  0  0  0  0  0  0  0  0
  140.3440   72.8680  221.8610 C   0  0  0  0  0  0  0  0  0  0  0  0
  139.9290   71.4610  222.0510 C   0  0  0  0  0  0  0  0  0  0  0  0
  139.5670   70.6650  220.9810 C   0  0  0  0  0  0  0  0  0  0  0  0
  139.1770   69.3540  221.1080 C   0  0  0  0  0  0  0  0  0  0  0  0
  139.1520   68.8190  222.3930 C   0  0  0  0  0  0  0  0  0  0  0  0
  139.5030   69.5630  223.5050 C   0  0  0  0  0  0  0  0  0  0  0  0
  139.4720   68.9900  224.8360 C   0  0  0  0  0  0  0  0  0  0  0  0
  139.1800   67.7510  224.9220 O   0  0  0  0  0  0  0  0  0  0  0  0
  139.7490   69.7580  225.9950 N   0  0  0  0  0  0  0  0  0  0  0  0
  140.0970   71.1580  226.1290 C   0  0  0  0  0  0  0  0  0  0  0  0
  141.0620   71.2260  227.2740 C   0  0  0  0  0  0  0  0  0  0  0  0
  140.8590   69.9760  228.0440 C   0  0  0  0  0  0  0  0  0  0  0  0
  139.7380   69.2610  227.3690 C   0  0  0  0  0  0  0  0  0  0  0  0
  139.8890   70.8870  223.2960 C   0  0  0  0  0  0  0  0  0  0  0  0
  139.5720   73.7800  222.3130 N   0  0  0  0  0  0  0  0  0  0  0  0
  139.8170   75.1770  222.2170 C   0  0  0  0  0  0  0  0  0  0  0  0
  138.9600   76.1340  222.7180 C   0  0  0  0  0  0  0  0  0  0  0  0
  139.2380   77.4790  222.6040 C   0  0  0  0  0  0  0  0  0  0  0  0
  140.4050   77.8710  221.9690 C   0  0  0  0  0  0  0  0  0  0  0  0
  140.7690   79.2780  221.8080 C   0  0  0  0  0  0  0  0  0  0  0  0
  140.8920   79.8620  220.5640 C   0  0  0  0  0  0  0  0  0  0  0  0
  141.2400   81.2060  220.4200 C   0  0  0  0  0  0  0  0  0  0  0  0
  141.4610   81.9490  221.5710 C   0  0  0  0  0  0  0  0  0  0  0  0
  141.8030   83.2650  221.4960 F   0  0  0  0  0  0  0  0  0  0  0  0
  141.3420   81.3810  222.8260 C   0  0  0  0  0  0  0  0  0  0  0  0
  140.9930   80.0340  222.9640 C   0  0  0  0  0  0  0  0  0  0  0  0
  141.2590   76.9040  221.4690 C   0  0  0  0  0  0  0  0  0  0  0  0
  140.9620   75.5810  221.5960 C   0  0  0  0  0  0  0  0  0  0  0  0
  141.5760   72.6865  220.1471 H   0  0  0  0  0  0  0  0  0  0  0  0
  142.4450   72.6434  221.7204 H   0  0  0  0  0  0  0  0  0  0  0  0
  139.5925   71.1049  219.9731 H   0  0  0  0  0  0  0  0  0  0  0  0
  138.8962   68.7521  220.2311 H   0  0  0  0  0  0  0  0  0  0  0  0
  138.8434   67.7719  222.5283 H   0  0  0  0  0  0  0  0  0  0  0  0
  140.5694   71.5262  225.2064 H   0  0  0  0  0  0  0  0  0  0  0  0
  139.2093   71.7827  226.3074 H   0  0  0  0  0  0  0  0  0  0  0  0
  142.0955   71.2836  226.9017 H   0  0  0  0  0  0  0  0  0  0  0  0
  140.8927   72.1178  227.8954 H   0  0  0  0  0  0  0  0  0  0  0  0
  141.7715   69.3620  228.0253 H   0  0  0  0  0  0  0  0  0  0  0  0
  140.6298   70.1833  229.0997 H   0  0  0  0  0  0  0  0  0  0  0  0
  139.9046   68.1739  227.3888 H   0  0  0  0  0  0  0  0  0  0  0  0
  138.7734   69.4397  227.8665 H   0  0  0  0  0  0  0  0  0  0  0  0
  140.1733   71.4965  224.1665 H   0  0  0  0  0  0  0  0  0  0  0  0
  138.0339   75.8169  223.2198 H   0  0  0  0  0  0  0  0  0  0  0  0
  138.5442   78.2294  223.0108 H   0  0  0  0  0  0  0  0  0  0  0  0
  140.7116   79.2544  219.6650 H   0  0  0  0  0  0  0  0  0  0  0  0
  141.3362   81.6626  219.4239 H   0  0  0  0  0  0  0  0  0  0  0  0
  141.5231   81.9929  223.7220 H   0  0  0  0  0  0  0  0  0  0  0  0
  140.8966   79.5782  223.9605 H   0  0  0  0  0  0  0  0  0  0  0  0
  142.1878   77.2071  220.9635 H   0  0  0  0  0  0  0  0  0  0  0  0
  1  2  2  0
  2  3  1  0
  3  4  1  0
  4  5  1  0
  5  6  2  0
  6  7  1  0
  7  8  2  0
  8  9  1  0
  9 10  1  0
 10 11  2  0
 10 12  1  0
 12 13  1  0
 13 14  1  0
 14 15  1  0
 15 16  1  0
  9 17  2  0
  4 18  2  0
 18 19  1  0
 19 20  2  0
 20 21  1  0
 21 22  2  0
 22 23  1  0
 23 24  2  0
 24 25  1  0
 25 26  2  0
 26 27  1  0
 26 28  1  0
 28 29  2  0
 22 30  1  0
 30 31  2  0
 31  2  1  0
 17  5  1  0
 31 19  1  0
 16 12  1  0
 29 23  1  0
  3 32  1  0
  3 33  1  0
  6 34  1  0
  7 35  1  0
  8 36  1  0
 13 37  1  0
 13 38  1  0
 14 39  1  0
 14 40  1  0
 15 41  1  0
 15 42  1  0
 16 43  1  0
 16 44  1  0
 17 45  1  0
 20 46  1  0
 21 47  1  0
 24 48  1  0
 25 49  1  0
 28 50  1  0
 29 51  1  0
 30 52  1  0
M  END
>  <smiles>  (50) 
O=C1CC(c2cccc(C(=O)N3CCCC3)c2)=Nc2ccc(-c3ccc(F)cc3)cc21

>  <score_type>  (50) 
oracle

>  <origin>  (50) 
autodockgpu

>  <m_score__min__energy>  (50) 
-9.1199999999999992

>  <m_primary>  (50) 
energy

>  <rmsd>  (50) 
6.205559554621075

>  <m_score__min__rmsd>  (50) 
6.205559554621075

>  <meeko>  (50) 
{"free_energy": -9.12, "intermolecular_energy": -10.01, "internal_energy": -0.77, "cluster_size": 40, "cluster_id": 1, "rank_in_cluster": 4}

>  <energy>  (50) 
-7.76

>  <cluster_rmsd>  (50) 
0.0

>  <cluster>  (50) 
3

$$$$
