
     RDKit          3D

 49 52  0  0  0  0  0  0  0  0999 V2000
  138.9340   75.0620  221.9960 O   0  0  0  0  0  0  0  0  0  0  0  0
  140.0780   75.5600  222.0620 C   0  0  0  0  0  0  0  0  0  0  0  0
  141.2820   74.8210  221.9080 N   0  0  0  0  0  0  0  0  0  0  0  0
  141.1730   73.3610  221.6520 C   0  0  0  0  0  0  0  0  0  0  0  0
  141.7900   73.0320  220.3600 C   0  0  0  0  0  0  0  0  0  0  0  0
  141.1870   72.1240  219.6740 O   0  0  0  0  0  0  0  0  0  0  0  0
  142.9400   73.5710  219.7740 N   0  0  0  0  0  0  0  0  0  0  0  0
  144.1900   72.7340  219.7340 C   0  0  0  0  0  0  0  0  0  0  0  0
  144.5910   72.9310  218.2820 C   0  0  2  0  0  0  0  0  0  0  0  0
  145.9520   73.1570  218.2400 O   0  0  0  0  0  0  0  0  0  0  0  0
  143.8430   74.1750  217.7870 C   0  0  2  0  0  0  0  0  0  0  0  0
  144.7200   75.0370  217.1560 O   0  0  0  0  0  0  0  0  0  0  0  0
  143.3390   74.7530  219.1200 C   0  0  1  0  0  0  0  0  0  0  0  0
  142.4650   75.8840  218.9700 C   0  0  0  0  0  0  0  0  0  0  0  0
  142.9550   77.1520  219.3370 C   0  0  0  0  0  0  0  0  0  0  0  0
  142.1590   78.2750  219.2500 C   0  0  0  0  0  0  0  0  0  0  0  0
  140.8670   78.2110  218.8070 C   0  0  0  0  0  0  0  0  0  0  0  0
  140.4000   76.9890  218.4550 N   0  0  0  0  0  0  0  0  0  0  0  0
  141.1600   75.8820  218.5330 C   0  0  0  0  0  0  0  0  0  0  0  0
  140.1970   77.0100  222.3160 C   0  0  0  0  0  0  0  0  0  0  0  0
  139.1010   77.8410  222.2700 C   0  0  0  0  0  0  0  0  0  0  0  0
  139.1920   79.2040  222.5060 C   0  0  0  0  0  0  0  0  0  0  0  0
  140.4300   79.7600  222.7990 C   0  0  0  0  0  0  0  0  0  0  0  0
  140.6120   81.0990  223.0460 C   0  0  0  0  0  0  0  0  0  0  0  0
  141.8980   81.5640  223.3310 C   0  0  0  0  0  0  0  0  0  0  0  0
  142.9680   80.7130  223.3690 C   0  0  0  0  0  0  0  0  0  0  0  0
  142.7720   79.3700  223.1190 C   0  0  0  0  0  0  0  0  0  0  0  0
  141.4980   78.9020  222.8340 C   0  0  0  0  0  0  0  0  0  0  0  0
  141.3830   77.5840  222.6030 N   0  0  0  0  0  0  0  0  0  0  0  0
  142.2190   75.2810  221.9710 H   0  0  0  0  0  0  0  0  0  0  0  0
  141.6886   72.8109  222.4529 H   0  0  0  0  0  0  0  0  0  0  0  0
  140.1108   73.0759  221.6289 H   0  0  0  0  0  0  0  0  0  0  0  0
  144.9576   73.1129  220.4248 H   0  0  0  0  0  0  0  0  0  0  0  0
  144.0566   71.6860  220.0404 H   0  0  0  0  0  0  0  0  0  0  0  0
  144.3488   72.0573  217.6591 H   0  0  0  0  0  0  0  0  0  0  0  0
  146.1980   74.0940  218.4410 H   0  0  0  0  0  0  0  0  0  0  0  0
  143.0465   73.9862  217.0522 H   0  0  0  0  0  0  0  0  0  0  0  0
  145.6530   74.7250  217.2720 H   0  0  0  0  0  0  0  0  0  0  0  0
  144.0512   75.2939  219.7604 H   0  0  0  0  0  0  0  0  0  0  0  0
  143.9893   77.2485  219.6989 H   0  0  0  0  0  0  0  0  0  0  0  0
  142.5752   79.2495  219.5453 H   0  0  0  0  0  0  0  0  0  0  0  0
  140.2363   79.1097  218.7396 H   0  0  0  0  0  0  0  0  0  0  0  0
  140.7142   74.9228  218.2311 H   0  0  0  0  0  0  0  0  0  0  0  0
  138.1169   77.4079  222.0375 H   0  0  0  0  0  0  0  0  0  0  0  0
  138.2939   79.8376  222.4616 H   0  0  0  0  0  0  0  0  0  0  0  0
  139.7593   81.7934  223.0198 H   0  0  0  0  0  0  0  0  0  0  0  0
  142.0530   82.6349  223.5286 H   0  0  0  0  0  0  0  0  0  0  0  0
  143.9742   81.0950  223.5964 H   0  0  0  0  0  0  0  0  0  0  0  0
  143.6230   78.6735  223.1457 H   0  0  0  0  0  0  0  0  0  0  0  0
  1  2  2  0
  2  3  1  0
  3  4  1  0
  4  5  1  0
  5  6  2  0
  5  7  1  0
  7  8  1  0
  8  9  1  0
  9 10  1  0
  9 11  1  0
 11 12  1  0
 11 13  1  0
 13 14  1  0
 14 15  2  0
 15 16  1  0
 16 17  2  0
 17 18  1  0
 18 19  2  0
  2 20  1  0
 20 21  2  0
 21 22  1  0
 22 23  2  0
 23 24  1  0
 24 25  2  0
 25 26  1  0
 26 27  2  0
 27 28  1  0
 28 29  2  0
 13  7  1  0
 19 14  1  0
 29 20  1  0
 28 23  1  0
  3 30  1  0
  4 31  1  0
  4 32  1  0
  8 33  1  0
  8 34  1  0
  9 35  1  6
 10 36  1  0
 11 37  1  6
 12 38  1  0
 13 39  1  1
 15 40  1  0
 16 41  1  0
 17 42  1  0
 19 43  1  0
 21 44  1  0
 22 45  1  0
 24 46  1  0
 25 47  1  0
 26 48  1  0
 27 49  1  0
M  END
>  <smiles>  (1) 
O=C(NCC(=O)N1C[C@H](O)[C@H](O)[C@H]1c1cccnc1)c1ccc2ccccc2n1

>  <score_type>  (1) 
oracle

>  <origin>  (1) 
autodockgpu

>  <m_score__min__energy>  (1) 
-8.8499999999999996

>  <m_primary>  (1) 
energy

>  <rmsd>  (1) 
7.5717743302175835

>  <m_score__min__rmsd>  (1) 
7.5717743302175835

>  <meeko>  (1) 
{"free_energy": -6.94, "intermolecular_energy": -9.02, "internal_energy": -3.99, "cluster_size": 17, "cluster_id": 2, "rank_in_cluster": 16}

>  <energy>  (1) 
-8.85

>  <cluster_rmsd>  (1) 
0.0

>  <cluster>  (1) 
1

$$$$

     RDKit          3D

 49 52  0  0  0  0  0  0  0  0999 V2000
  138.9350   75.3630  221.5150 O   0  0  0  0  0  0  0  0  0  0  0  0
  140.0820   75.7560  221.8140 C   0  0  0  0  0  0  0  0  0  0  0  0
  141.2570   74.9650  221.6920 N   0  0  0  0  0  0  0  0  0  0  0  0
  141.1100   73.5790  221.1750 C   0  0  0  0  0  0  0  0  0  0  0  0
  142.4320   73.0120  220.8820 C   0  0  0  0  0  0  0  0  0  0  0  0
  142.6890   71.8830  221.4460 O   0  0  0  0  0  0  0  0  0  0  0  0
  143.4490   73.5290  220.0720 N   0  0  0  0  0  0  0  0  0  0  0  0
  144.7550   72.7860  219.9880 C   0  0  0  0  0  0  0  0  0  0  0  0
  144.9550   72.7770  218.4830 C   0  0  2  0  0  0  0  0  0  0  0  0
  146.2750   73.0880  218.2250 O   0  0  0  0  0  0  0  0  0  0  0  0
  144.0440   73.8720  217.9140 C   0  0  2  0  0  0  0  0  0  0  0  0
  144.7560   74.6810  217.0490 O   0  0  0  0  0  0  0  0  0  0  0  0
  143.6570   74.6170  219.2010 C   0  0  1  0  0  0  0  0  0  0  0  0
  142.6740   75.6460  219.0050 C   0  0  0  0  0  0  0  0  0  0  0  0
  142.9710   76.9440  219.4660 C   0  0  0  0  0  0  0  0  0  0  0  0
  142.0600   77.9710  219.3380 C   0  0  0  0  0  0  0  0  0  0  0  0
  140.8330   77.7800  218.7640 C   0  0  0  0  0  0  0  0  0  0  0  0
  140.5510   76.5310  218.3220 N   0  0  0  0  0  0  0  0  0  0  0  0
  141.4270   75.5160  218.4370 C   0  0  0  0  0  0  0  0  0  0  0  0
  140.2390   77.1320  222.3280 C   0  0  0  0  0  0  0  0  0  0  0  0
  139.1510   77.8940  222.6880 C   0  0  0  0  0  0  0  0  0  0  0  0
  139.2780   79.1870  223.1730 C   0  0  0  0  0  0  0  0  0  0  0  0
  140.5430   79.7410  223.3030 C   0  0  0  0  0  0  0  0  0  0  0  0
  140.7610   81.0130  223.7740 C   0  0  0  0  0  0  0  0  0  0  0  0
  142.0730   81.4820  223.8670 C   0  0  0  0  0  0  0  0  0  0  0  0
  143.1350   80.7010  223.5020 C   0  0  0  0  0  0  0  0  0  0  0  0
  142.9030   79.4250  223.0300 C   0  0  0  0  0  0  0  0  0  0  0  0
  141.6030   78.9530  222.9330 C   0  0  0  0  0  0  0  0  0  0  0  0
  141.4530   77.7020  222.4670 N   0  0  0  0  0  0  0  0  0  0  0  0
  142.1980   75.3370  221.9540 H   0  0  0  0  0  0  0  0  0  0  0  0
  140.6068   72.9590  221.9316 H   0  0  0  0  0  0  0  0  0  0  0  0
  140.5117   73.5984  220.2521 H   0  0  0  0  0  0  0  0  0  0  0  0
  145.5644   73.3229  220.5044 H   0  0  0  0  0  0  0  0  0  0  0  0
  144.7553   71.7934  220.4620 H   0  0  0  0  0  0  0  0  0  0  0  0
  144.7169   71.8008  218.0353 H   0  0  0  0  0  0  0  0  0  0  0  0
  146.4590   74.0600  218.2450 H   0  0  0  0  0  0  0  0  0  0  0  0
  143.1836   73.5144  217.3293 H   0  0  0  0  0  0  0  0  0  0  0  0
  145.6530   74.8780  217.4220 H   0  0  0  0  0  0  0  0  0  0  0  0
  144.3911   75.3012  219.6514 H   0  0  0  0  0  0  0  0  0  0  0  0
  143.9459   77.1412  219.9358 H   0  0  0  0  0  0  0  0  0  0  0  0
  142.3273   78.9719  219.7077 H   0  0  0  0  0  0  0  0  0  0  0  0
  140.1091   78.6024  218.6660 H   0  0  0  0  0  0  0  0  0  0  0  0
  141.1301   74.5277  218.0560 H   0  0  0  0  0  0  0  0  0  0  0  0
  138.1444   77.4619  222.5874 H   0  0  0  0  0  0  0  0  0  0  0  0
  138.3856   79.7667  223.4515 H   0  0  0  0  0  0  0  0  0  0  0  0
  139.9164   81.6512  224.0728 H   0  0  0  0  0  0  0  0  0  0  0  0
  142.2562   82.5000  224.2413 H   0  0  0  0  0  0  0  0  0  0  0  0
  144.1623   81.0856  223.5837 H   0  0  0  0  0  0  0  0  0  0  0  0
  143.7464   78.7849  222.7319 H   0  0  0  0  0  0  0  0  0  0  0  0
  1  2  2  0
  2  3  1  0
  3  4  1  0
  4  5  1  0
  5  6  2  0
  5  7  1  0
  7  8  1  0
  8  9  1  0
  9 10  1  0
  9 11  1  0
 11 12  1  0
 11 13  1  0
 13 14  1  0
 14 15  2  0
 15 16  1  0
 16 17  2  0
 17 18  1  0
 18 19  2  0
  2 20  1  0
 20 21  2  0
 21 22  1  0
 22 23  2  0
 23 24  1  0
 24 25  2  0
 25 26  1  0
 26 27  2  0
 27 28  1  0
 28 29  2  0
 13  7  1  0
 19 14  1  0
 29 20  1  0
 28 23  1  0
  3 30  1  0
  4 31  1  0
  4 32  1  0
  8 33  1  0
  8 34  1  0
  9 35  1  6
 10 36  1  0
 11 37  1  6
 12 38  1  0
 13 39  1  1
 15 40  1  0
 16 41  1  0
 17 42  1  0
 19 43  1  0
 21 44  1  0
 22 45  1  0
 24 46  1  0
 25 47  1  0
 26 48  1  0
 27 49  1  0
M  END
>  <smiles>  (2) 
O=C(NCC(=O)N1C[C@H](O)[C@H](O)[C@H]1c1cccnc1)c1ccc2ccccc2n1

>  <score_type>  (2) 
oracle

>  <origin>  (2) 
autodockgpu

>  <m_score__min__energy>  (2) 
-8.8499999999999996

>  <m_primary>  (2) 
energy

>  <rmsd>  (2) 
7.617227207410249

>  <m_score__min__rmsd>  (2) 
7.617227207410249

>  <meeko>  (2) 
{"free_energy": -7.79, "intermolecular_energy": -9.88, "internal_energy": -3.73, "cluster_size": 17, "cluster_id": 2, "rank_in_cluster": 6}

>  <energy>  (2) 
-8.71

>  <cluster_rmsd>  (2) 
0.24

>  <cluster>  (2) 
1

$$$$

     RDKit          3D

 49 52  0  0  0  0  0  0  0  0999 V2000
  139.1290   74.9450  221.8590 O   0  0  0  0  0  0  0  0  0  0  0  0
  140.2380   75.5120  221.9590 C   0  0  0  0  0  0  0  0  0  0  0  0
  141.4840   74.8890  221.6790 N   0  0  0  0  0  0  0  0  0  0  0  0
  141.4680   73.4700  221.2390 C   0  0  0  0  0  0  0  0  0  0  0  0
  141.8550   73.3790  219.8250 C   0  0  0  0  0  0  0  0  0  0  0  0
  141.0020   72.8010  219.0530 O   0  0  0  0  0  0  0  0  0  0  0  0
  143.0230   73.8360  219.2040 N   0  0  0  0  0  0  0  0  0  0  0  0
  144.2040   72.9080  219.1130 C   0  0  0  0  0  0  0  0  0  0  0  0
  144.5690   73.0900  217.6510 C   0  0  2  0  0  0  0  0  0  0  0  0
  145.9410   73.2140  217.5640 O   0  0  0  0  0  0  0  0  0  0  0  0
  143.9010   74.3930  217.1920 C   0  0  2  0  0  0  0  0  0  0  0  0
  144.8190   75.1930  216.5390 O   0  0  0  0  0  0  0  0  0  0  0  0
  143.4870   74.9920  218.5470 C   0  0  1  0  0  0  0  0  0  0  0  0
  142.6970   76.1870  218.4370 C   0  0  0  0  0  0  0  0  0  0  0  0
  142.6880   77.0770  219.5290 C   0  0  0  0  0  0  0  0  0  0  0  0
  141.9270   78.2270  219.5040 C   0  0  0  0  0  0  0  0  0  0  0  0
  141.1500   78.5540  218.4270 C   0  0  0  0  0  0  0  0  0  0  0  0
  141.1610   77.6950  217.3790 N   0  0  0  0  0  0  0  0  0  0  0  0
  141.8970   76.5690  217.3840 C   0  0  0  0  0  0  0  0  0  0  0  0
  140.2660   76.9220  222.3950 C   0  0  0  0  0  0  0  0  0  0  0  0
  139.1070   77.6170  222.6610 C   0  0  0  0  0  0  0  0  0  0  0  0
  139.1120   78.9410  223.0720 C   0  0  0  0  0  0  0  0  0  0  0  0
  140.3250   79.5990  223.2240 C   0  0  0  0  0  0  0  0  0  0  0  0
  140.4230   80.9090  223.6270 C   0  0  0  0  0  0  0  0  0  0  0  0
  141.6900   81.4830  223.7500 C   0  0  0  0  0  0  0  0  0  0  0  0
  142.8240   80.7670  223.4790 C   0  0  0  0  0  0  0  0  0  0  0  0
  142.7120   79.4530  223.0750 C   0  0  0  0  0  0  0  0  0  0  0  0
  141.4570   78.8760  222.9500 C   0  0  0  0  0  0  0  0  0  0  0  0
  141.4250   77.5930  222.5540 N   0  0  0  0  0  0  0  0  0  0  0  0
  142.3890   75.4040  221.7760 H   0  0  0  0  0  0  0  0  0  0  0  0
  142.1773   72.8913  221.8489 H   0  0  0  0  0  0  0  0  0  0  0  0
  140.4529   73.0646  221.3627 H   0  0  0  0  0  0  0  0  0  0  0  0
  145.0211   73.2204  219.7799 H   0  0  0  0  0  0  0  0  0  0  0  0
  144.0021   71.8696  219.4147 H   0  0  0  0  0  0  0  0  0  0  0  0
  144.2403   72.2437  217.0299 H   0  0  0  0  0  0  0  0  0  0  0  0
  146.2510   74.1530  217.5900 H   0  0  0  0  0  0  0  0  0  0  0  0
  143.0685   74.2735  216.4830 H   0  0  0  0  0  0  0  0  0  0  0  0
  145.6320   75.3090  217.0940 H   0  0  0  0  0  0  0  0  0  0  0  0
  144.2587   75.4707  219.1678 H   0  0  0  0  0  0  0  0  0  0  0  0
  143.2979   76.8511  220.4161 H   0  0  0  0  0  0  0  0  0  0  0  0
  141.9455   78.8997  220.3742 H   0  0  0  0  0  0  0  0  0  0  0  0
  140.5441   79.4720  218.4122 H   0  0  0  0  0  0  0  0  0  0  0  0
  141.8574   75.9180  216.4982 H   0  0  0  0  0  0  0  0  0  0  0  0
  138.1419   77.1026  222.5430 H   0  0  0  0  0  0  0  0  0  0  0  0
  138.1659   79.4641  223.2753 H   0  0  0  0  0  0  0  0  0  0  0  0
  139.5191   81.4953  223.8489 H   0  0  0  0  0  0  0  0  0  0  0  0
  141.7781   82.5314  224.0711 H   0  0  0  0  0  0  0  0  0  0  0  0
  143.8144   81.2343  223.5822 H   0  0  0  0  0  0  0  0  0  0  0  0
  143.6146   78.8649  222.8528 H   0  0  0  0  0  0  0  0  0  0  0  0
  1  2  2  0
  2  3  1  0
  3  4  1  0
  4  5  1  0
  5  6  2  0
  5  7  1  0
  7  8  1  0
  8  9  1  0
  9 10  1  0
  9 11  1  0
 11 12  1  0
 11 13  1  0
 13 14  1  0
 14 15  2  0
 15 16  1  0
 16 17  2  0
 17 18  1  0
 18 19  2  0
  2 20  1  0
 20 21  2  0
 21 22  1  0
 22 23  2  0
 23 24  1  0
 24 25  2  0
 25 26  1  0
 26 27  2  0
 27 28  1  0
 28 29  2  0
 13  7  1  0
 19 14  1  0
 29 20  1  0
 28 23  1  0
  3 30  1  0
  4 31  1  0
  4 32  1  0
  8 33  1  0
  8 34  1  0
  9 35  1  6
 10 36  1  0
 11 37  1  6
 12 38  1  0
 13 39  1  1
 15 40  1  0
 16 41  1  0
 17 42  1  0
 19 43  1  0
 21 44  1  0
 22 45  1  0
 24 46  1  0
 25 47  1  0
 26 48  1  0
 27 49  1  0
M  END
>  <smiles>  (3) 
O=C(NCC(=O)N1C[C@H](O)[C@H](O)[C@H]1c1cccnc1)c1ccc2ccccc2n1

>  <score_type>  (3) 
oracle

>  <origin>  (3) 
autodockgpu

>  <m_score__min__energy>  (3) 
-8.8499999999999996

>  <m_primary>  (3) 
energy

>  <rmsd>  (3) 
7.460187192345647

>  <m_score__min__rmsd>  (3) 
7.460187192345647

>  <meeko>  (3) 
{"free_energy": -7.1, "intermolecular_energy": -9.19, "internal_energy": -3.64, "cluster_size": 17, "cluster_id": 2, "rank_in_cluster": 14}

>  <energy>  (3) 
-8.68

>  <cluster_rmsd>  (3) 
0.23

>  <cluster>  (3) 
1

$$$$

     RDKit          3D

 49 52  0  0  0  0  0  0  0  0999 V2000
  140.8160   71.3040  221.4080 O   0  0  0  0  0  0  0  0  0  0  0  0
  140.3320   71.8710  222.4110 C   0  0  0  0  0  0  0  0  0  0  0  0
  139.9520   73.2400  222.4510 N   0  0  0  0  0  0  0  0  0  0  0  0
  140.1430   74.0500  221.2190 C   0  0  0  0  0  0  0  0  0  0  0  0
  140.4570   75.4390  221.5770 C   0  0  0  0  0  0  0  0  0  0  0  0
  139.8010   75.9150  222.5800 O   0  0  0  0  0  0  0  0  0  0  0  0
  141.3700   76.3150  220.9800 N   0  0  0  0  0  0  0  0  0  0  0  0
  142.3160   75.7740  219.9420 C   0  0  0  0  0  0  0  0  0  0  0  0
  142.1510   76.8280  218.8620 C   0  0  2  0  0  0  0  0  0  0  0  0
  143.4040   77.1480  218.3800 O   0  0  0  0  0  0  0  0  0  0  0  0
  141.5280   78.0550  219.5390 C   0  0  2  0  0  0  0  0  0  0  0  0
  142.2400   79.1930  219.2100 O   0  0  0  0  0  0  0  0  0  0  0  0
  141.7040   77.6830  221.0200 C   0  0  1  0  0  0  0  0  0  0  0  0
  141.0800   78.6030  221.9300 C   0  0  0  0  0  0  0  0  0  0  0  0
  141.8950   79.2570  222.8740 C   0  0  0  0  0  0  0  0  0  0  0  0
  141.3570   80.1280  223.7980 C   0  0  0  0  0  0  0  0  0  0  0  0
  140.0160   80.3950  223.8410 C   0  0  0  0  0  0  0  0  0  0  0  0
  139.2360   79.7640  222.9320 N   0  0  0  0  0  0  0  0  0  0  0  0
  139.7420   78.9110  222.0230 C   0  0  0  0  0  0  0  0  0  0  0  0
  140.1380   71.0760  223.6390 C   0  0  0  0  0  0  0  0  0  0  0  0
  139.5430   69.8350  223.6070 C   0  0  0  0  0  0  0  0  0  0  0  0
  139.3530   69.0720  224.7490 C   0  0  0  0  0  0  0  0  0  0  0  0
  139.7730   69.5700  225.9740 C   0  0  0  0  0  0  0  0  0  0  0  0
  139.6250   68.8830  227.1550 C   0  0  0  0  0  0  0  0  0  0  0  0
  140.0800   69.4690  228.3380 C   0  0  0  0  0  0  0  0  0  0  0  0
  140.6680   70.7040  228.3380 C   0  0  0  0  0  0  0  0  0  0  0  0
  140.8120   71.3840  227.1460 C   0  0  0  0  0  0  0  0  0  0  0  0
  140.3610   70.8090  225.9680 C   0  0  0  0  0  0  0  0  0  0  0  0
  140.5340   71.5270  224.8460 N   0  0  0  0  0  0  0  0  0  0  0  0
  139.5510   73.6720  223.3140 H   0  0  0  0  0  0  0  0  0  0  0  0
  140.9715   73.6289  220.6306 H   0  0  0  0  0  0  0  0  0  0  0  0
  139.2171   74.0298  220.6255 H   0  0  0  0  0  0  0  0  0  0  0  0
  143.3499   75.7298  220.3151 H   0  0  0  0  0  0  0  0  0  0  0  0
  142.1099   74.7429  219.6191 H   0  0  0  0  0  0  0  0  0  0  0  0
  141.5201   76.4790  218.0313 H   0  0  0  0  0  0  0  0  0  0  0  0
  143.8890   77.7950  218.9500 H   0  0  0  0  0  0  0  0  0  0  0  0
  140.4885   78.2745  219.2540 H   0  0  0  0  0  0  0  0  0  0  0  0
  143.2130   79.0270  219.2960 H   0  0  0  0  0  0  0  0  0  0  0  0
  142.6996   77.7953  221.4741 H   0  0  0  0  0  0  0  0  0  0  0  0
  142.9790   79.0700  222.8744 H   0  0  0  0  0  0  0  0  0  0  0  0
  142.0242   80.6214  224.5200 H   0  0  0  0  0  0  0  0  0  0  0  0
  139.5911   81.0902  224.5800 H   0  0  0  0  0  0  0  0  0  0  0  0
  139.0482   78.4336  221.3153 H   0  0  0  0  0  0  0  0  0  0  0  0
  139.2059   69.4339  222.6398 H   0  0  0  0  0  0  0  0  0  0  0  0
  138.8749   68.0834  224.6846 H   0  0  0  0  0  0  0  0  0  0  0  0
  139.1559   67.8881  227.1682 H   0  0  0  0  0  0  0  0  0  0  0  0
  139.9633   68.9271  229.2881 H   0  0  0  0  0  0  0  0  0  0  0  0
  141.0225   71.1506  229.2787 H   0  0  0  0  0  0  0  0  0  0  0  0
  141.2827   72.3781  227.1306 H   0  0  0  0  0  0  0  0  0  0  0  0
  1  2  2  0
  2  3  1  0
  3  4  1  0
  4  5  1  0
  5  6  2  0
  5  7  1  0
  7  8  1  0
  8  9  1  0
  9 10  1  0
  9 11  1  0
 11 12  1  0
 11 13  1  0
 13 14  1  0
 14 15  2  0
 15 16  1  0
 16 17  2  0
 17 18  1  0
 18 19  2  0
  2 20  1  0
 20 21  2  0
 21 22  1  0
 22 23  2  0
 23 24  1  0
 24 25  2  0
 25 26  1  0
 26 27  2  0
 27 28  1  0
 28 29  2  0
 13  7  1  0
 19 14  1  0
 29 20  1  0
 28 23  1  0
  3 30  1  0
  4 31  1  0
  4 32  1  0
  8 33  1  0
  8 34  1  0
  9 35  1  6
 10 36  1  0
 11 37  1  6
 12 38  1  0
 13 39  1  1
 15 40  1  0
 16 41  1  0
 17 42  1  0
 19 43  1  0
 21 44  1  0
 22 45  1  0
 24 46  1  0
 25 47  1  0
 26 48  1  0
 27 49  1  0
M  END
>  <smiles>  (4) 
O=C(NCC(=O)N1C[C@H](O)[C@H](O)[C@H]1c1cccnc1)c1ccc2ccccc2n1

>  <score_type>  (4) 
oracle

>  <origin>  (4) 
autodockgpu

>  <m_score__min__energy>  (4) 
-8.8499999999999996

>  <m_primary>  (4) 
energy

>  <rmsd>  (4) 
2.2401728116929838

>  <m_score__min__rmsd>  (4) 
2.2401728116929838

>  <meeko>  (4) 
{"free_energy": -8.59, "intermolecular_energy": -10.68, "internal_energy": -2.93, "cluster_size": 31, "cluster_id": 1, "rank_in_cluster": 5}

>  <energy>  (4) 
-8.63

>  <cluster_rmsd>  (4) 
0.47

>  <cluster>  (4) 
1

$$$$

     RDKit          3D

 49 52  0  0  0  0  0  0  0  0999 V2000
  140.8550   71.8360  221.2280 O   0  0  0  0  0  0  0  0  0  0  0  0
  140.3480   72.3500  222.2480 C   0  0  0  0  0  0  0  0  0  0  0  0
  139.9460   73.7100  222.3430 N   0  0  0  0  0  0  0  0  0  0  0  0
  140.1410   74.5770  221.1520 C   0  0  0  0  0  0  0  0  0  0  0  0
  140.6320   75.8970  221.5670 C   0  0  0  0  0  0  0  0  0  0  0  0
  140.2150   76.3070  222.7150 O   0  0  0  0  0  0  0  0  0  0  0  0
  141.4910   76.7680  220.8880 N   0  0  0  0  0  0  0  0  0  0  0  0
  142.3350   76.2220  219.7680 C   0  0  0  0  0  0  0  0  0  0  0  0
  142.0770   77.2780  218.7070 C   0  0  2  0  0  0  0  0  0  0  0  0
  143.2820   77.5910  218.1120 O   0  0  0  0  0  0  0  0  0  0  0  0
  141.5260   78.5080  219.4390 C   0  0  2  0  0  0  0  0  0  0  0  0
  142.2110   79.6420  219.0460 O   0  0  0  0  0  0  0  0  0  0  0  0
  141.8360   78.1330  220.8980 C   0  0  1  0  0  0  0  0  0  0  0  0
  141.3030   79.0560  221.8620 C   0  0  0  0  0  0  0  0  0  0  0  0
  142.2120   79.7980  222.6410 C   0  0  0  0  0  0  0  0  0  0  0  0
  141.7700   80.6780  223.6060 C   0  0  0  0  0  0  0  0  0  0  0  0
  140.4380   80.8690  223.8520 C   0  0  0  0  0  0  0  0  0  0  0  0
  139.5670   80.1540  223.1000 N   0  0  0  0  0  0  0  0  0  0  0  0
  139.9790   79.2920  222.1530 C   0  0  0  0  0  0  0  0  0  0  0  0
  140.1500   71.4980  223.4370 C   0  0  0  0  0  0  0  0  0  0  0  0
  139.5500   70.2620  223.3460 C   0  0  0  0  0  0  0  0  0  0  0  0
  139.3550   69.4470  224.4500 C   0  0  0  0  0  0  0  0  0  0  0  0
  139.7770   69.8840  225.6980 C   0  0  0  0  0  0  0  0  0  0  0  0
  139.6240   69.1430  226.8440 C   0  0  0  0  0  0  0  0  0  0  0  0
  140.0810   69.6700  228.0540 C   0  0  0  0  0  0  0  0  0  0  0  0
  140.6740   70.9020  228.1140 C   0  0  0  0  0  0  0  0  0  0  0  0
  140.8220   71.6370  226.9560 C   0  0  0  0  0  0  0  0  0  0  0  0
  140.3690   71.1200  225.7510 C   0  0  0  0  0  0  0  0  0  0  0  0
  140.5470   71.8900  224.6650 N   0  0  0  0  0  0  0  0  0  0  0  0
  139.5250   74.0970  223.2180 H   0  0  0  0  0  0  0  0  0  0  0  0
  140.8748   74.1107  220.4781 H   0  0  0  0  0  0  0  0  0  0  0  0
  139.1796   74.6967  220.6311 H   0  0  0  0  0  0  0  0  0  0  0  0
  143.3985   76.1722  220.0447 H   0  0  0  0  0  0  0  0  0  0  0  0
  142.0949   75.1920  219.4656 H   0  0  0  0  0  0  0  0  0  0  0  0
  141.3704   76.9333  217.9377 H   0  0  0  0  0  0  0  0  0  0  0  0
  143.8100   78.2530  218.6230 H   0  0  0  0  0  0  0  0  0  0  0  0
  140.4659   78.7339  219.2514 H   0  0  0  0  0  0  0  0  0  0  0  0
  142.7000   79.4730  218.2010 H   0  0  0  0  0  0  0  0  0  0  0  0
  142.8699   78.2385  221.2584 H   0  0  0  0  0  0  0  0  0  0  0  0
  143.2925   79.6733  222.4768 H   0  0  0  0  0  0  0  0  0  0  0  0
  142.5088   81.2420  224.1943 H   0  0  0  0  0  0  0  0  0  0  0  0
  140.0902   81.5706  224.6246 H   0  0  0  0  0  0  0  0  0  0  0  0
  139.2155   78.7458  221.5797 H   0  0  0  0  0  0  0  0  0  0  0  0
  139.2129   69.9083  222.3605 H   0  0  0  0  0  0  0  0  0  0  0  0
  138.8714   68.4653  224.3384 H   0  0  0  0  0  0  0  0  0  0  0  0
  139.1495   68.1512  226.8096 H   0  0  0  0  0  0  0  0  0  0  0  0
  139.9620   69.0833  228.9769 H   0  0  0  0  0  0  0  0  0  0  0  0
  141.0288   71.3019  229.0753 H   0  0  0  0  0  0  0  0  0  0  0  0
  141.2971   72.6286  226.9880 H   0  0  0  0  0  0  0  0  0  0  0  0
  1  2  2  0
  2  3  1  0
  3  4  1  0
  4  5  1  0
  5  6  2  0
  5  7  1  0
  7  8  1  0
  8  9  1  0
  9 10  1  0
  9 11  1  0
 11 12  1  0
 11 13  1  0
 13 14  1  0
 14 15  2  0
 15 16  1  0
 16 17  2  0
 17 18  1  0
 18 19  2  0
  2 20  1  0
 20 21  2  0
 21 22  1  0
 22 23  2  0
 23 24  1  0
 24 25  2  0
 25 26  1  0
 26 27  2  0
 27 28  1  0
 28 29  2  0
 13  7  1  0
 19 14  1  0
 29 20  1  0
 28 23  1  0
  3 30  1  0
  4 31  1  0
  4 32  1  0
  8 33  1  0
  8 34  1  0
  9 35  1  6
 10 36  1  0
 11 37  1  1
 12 38  1  0
 13 39  1  6
 15 40  1  0
 16 41  1  0
 17 42  1  0
 19 43  1  0
 21 44  1  0
 22 45  1  0
 24 46  1  0
 25 47  1  0
 26 48  1  0
 27 49  1  0
M  END
>  <smiles>  (5) 
O=C(NCC(=O)N1C[C@H](O)[C@H](O)[C@H]1c1cccnc1)c1ccc2ccccc2n1

>  <score_type>  (5) 
oracle

>  <origin>  (5) 
autodockgpu

>  <m_score__min__energy>  (5) 
-8.8499999999999996

>  <m_primary>  (5) 
energy

>  <rmsd>  (5) 
2.3281565720368604

>  <m_score__min__rmsd>  (5) 
2.3281565720368604

>  <meeko>  (5) 
{"free_energy": -8.39, "intermolecular_energy": -10.48, "internal_energy": -3.03, "cluster_size": 31, "cluster_id": 1, "rank_in_cluster": 17}

>  <energy>  (5) 
-8.59

>  <cluster_rmsd>  (5) 
0.4

>  <cluster>  (5) 
1

$$$$

     RDKit          3D

 49 52  0  0  0  0  0  0  0  0999 V2000
  141.6580   78.2550  217.1690 O   0  0  0  0  0  0  0  0  0  0  0  0
  142.3590   78.1630  218.1990 C   0  0  0  0  0  0  0  0  0  0  0  0
  143.4110   77.2230  218.3700 N   0  0  0  0  0  0  0  0  0  0  0  0
  143.6950   76.2880  217.2500 C   0  0  0  0  0  0  0  0  0  0  0  0
  143.1590   74.9570  217.5600 C   0  0  0  0  0  0  0  0  0  0  0  0
  142.1080   74.6150  216.8980 O   0  0  0  0  0  0  0  0  0  0  0  0
  143.6340   74.0100  218.4750 N   0  0  0  0  0  0  0  0  0  0  0  0
  144.8370   73.1860  218.1020 C   0  0  0  0  0  0  0  0  0  0  0  0
  145.6550   73.3270  219.3730 C   0  0  2  0  0  0  0  0  0  0  0  0
  146.1630   72.0850  219.6970 O   0  0  0  0  0  0  0  0  0  0  0  0
  144.6860   73.7920  220.4680 C   0  0  2  0  0  0  0  0  0  0  0  0
  144.8280   73.0040  221.5940 O   0  0  0  0  0  0  0  0  0  0  0  0
  143.3360   73.5520  219.7730 C   0  0  1  0  0  0  0  0  0  0  0  0
  142.2050   74.0300  220.5180 C   0  0  0  0  0  0  0  0  0  0  0  0
  141.9450   75.4150  220.5130 C   0  0  0  0  0  0  0  0  0  0  0  0
  140.8950   75.9450  221.2320 C   0  0  0  0  0  0  0  0  0  0  0  0
  140.0630   75.1580  221.9800 C   0  0  0  0  0  0  0  0  0  0  0  0
  140.3160   73.8280  221.9830 N   0  0  0  0  0  0  0  0  0  0  0  0
  141.3350   73.2910  221.2870 C   0  0  0  0  0  0  0  0  0  0  0  0
  142.0860   79.0870  219.3180 C   0  0  0  0  0  0  0  0  0  0  0  0
  141.7240   80.3970  219.0980 C   0  0  0  0  0  0  0  0  0  0  0  0
  141.4630   81.2800  220.1340 C   0  0  0  0  0  0  0  0  0  0  0  0
  141.5670   80.8370  221.4450 C   0  0  0  0  0  0  0  0  0  0  0  0
  141.3260   81.6420  222.5310 C   0  0  0  0  0  0  0  0  0  0  0  0
  141.4580   81.1030  223.8130 C   0  0  0  0  0  0  0  0  0  0  0  0
  141.8190   79.7970  224.0000 C   0  0  0  0  0  0  0  0  0  0  0  0
  142.0580   78.9980  222.9010 C   0  0  0  0  0  0  0  0  0  0  0  0
  141.9300   79.5270  221.6250 C   0  0  0  0  0  0  0  0  0  0  0  0
  142.1770   78.6910  220.6030 N   0  0  0  0  0  0  0  0  0  0  0  0
  143.9730   77.1820  219.2510 H   0  0  0  0  0  0  0  0  0  0  0  0
  143.2230   76.6660  216.3311 H   0  0  0  0  0  0  0  0  0  0  0  0
  144.7833   76.2151  217.1071 H   0  0  0  0  0  0  0  0  0  0  0  0
  144.5686   72.1380  217.9031 H   0  0  0  0  0  0  0  0  0  0  0  0
  145.3501   73.5037  217.1823 H   0  0  0  0  0  0  0  0  0  0  0  0
  146.4847   74.0400  219.2581 H   0  0  0  0  0  0  0  0  0  0  0  0
  146.1450   71.8960  220.6680 H   0  0  0  0  0  0  0  0  0  0  0  0
  144.8303   74.8242  220.8197 H   0  0  0  0  0  0  0  0  0  0  0  0
  144.8570   72.0460  221.3430 H   0  0  0  0  0  0  0  0  0  0  0  0
  142.9537   72.5224  219.7108 H   0  0  0  0  0  0  0  0  0  0  0  0
  142.5907   76.0844  219.9256 H   0  0  0  0  0  0  0  0  0  0  0  0
  140.7214   77.0308  221.2034 H   0  0  0  0  0  0  0  0  0  0  0  0
  139.2270   75.5860  222.5526 H   0  0  0  0  0  0  0  0  0  0  0  0
  141.4806   72.2017  221.3354 H   0  0  0  0  0  0  0  0  0  0  0  0
  141.6388   80.7561  218.0618 H   0  0  0  0  0  0  0  0  0  0  0  0
  141.1767   82.3202  219.9194 H   0  0  0  0  0  0  0  0  0  0  0  0
  141.0339   82.6936  222.3938 H   0  0  0  0  0  0  0  0  0  0  0  0
  141.2680   81.7410  224.6887 H   0  0  0  0  0  0  0  0  0  0  0  0
  141.9178   79.3879  225.0163 H   0  0  0  0  0  0  0  0  0  0  0  0
  142.3489   77.9458  223.0360 H   0  0  0  0  0  0  0  0  0  0  0  0
  1  2  2  0
  2  3  1  0
  3  4  1  0
  4  5  1  0
  5  6  2  0
  5  7  1  0
  7  8  1  0
  8  9  1  0
  9 10  1  0
  9 11  1  0
 11 12  1  0
 11 13  1  0
 13 14  1  0
 14 15  2  0
 15 16  1  0
 16 17  2  0
 17 18  1  0
 18 19  2  0
  2 20  1  0
 20 21  2  0
 21 22  1  0
 22 23  2  0
 23 24  1  0
 24 25  2  0
 25 26  1  0
 26 27  2  0
 27 28  1  0
 28 29  2  0
 13  7  1  0
 19 14  1  0
 29 20  1  0
 28 23  1  0
  3 30  1  0
  4 31  1  0
  4 32  1  0
  8 33  1  0
  8 34  1  0
  9 35  1  6
 10 36  1  0
 11 37  1  1
 12 38  1  0
 13 39  1  6
 15 40  1  0
 16 41  1  0
 17 42  1  0
 19 43  1  0
 21 44  1  0
 22 45  1  0
 24 46  1  0
 25 47  1  0
 26 48  1  0
 27 49  1  0
M  END
>  <smiles>  (6) 
O=C(NCC(=O)N1C[C@H](O)[C@H](O)[C@H]1c1cccnc1)c1ccc2ccccc2n1

>  <score_type>  (6) 
oracle

>  <origin>  (6) 
autodockgpu

>  <m_score__min__energy>  (6) 
-8.8499999999999996

>  <m_primary>  (6) 
energy

>  <rmsd>  (6) 
9.11269808059113

>  <m_score__min__rmsd>  (6) 
9.11269808059113

>  <meeko>  (6) 
{"free_energy": -7.4, "intermolecular_energy": -9.49, "internal_energy": -3.35, "cluster_size": 1, "cluster_id": 4, "rank_in_cluster": 1}

>  <energy>  (6) 
-8.56

>  <cluster_rmsd>  (6) 
0.34

>  <cluster>  (6) 
1

$$$$

     RDKit          3D

 49 52  0  0  0  0  0  0  0  0999 V2000
  140.1360   70.9430  221.3560 O   0  0  0  0  0  0  0  0  0  0  0  0
  139.9810   71.5280  222.4490 C   0  0  0  0  0  0  0  0  0  0  0  0
  139.8890   72.9380  222.5960 N   0  0  0  0  0  0  0  0  0  0  0  0
  139.9820   73.7720  221.3690 C   0  0  0  0  0  0  0  0  0  0  0  0
  140.2630   75.1670  221.7320 C   0  0  0  0  0  0  0  0  0  0  0  0
  139.5480   75.6440  222.6920 O   0  0  0  0  0  0  0  0  0  0  0  0
  141.2000   76.0460  221.1790 N   0  0  0  0  0  0  0  0  0  0  0  0
  142.2420   75.4960  220.2430 C   0  0  0  0  0  0  0  0  0  0  0  0
  142.1410   76.5070  219.1150 C   0  0  2  0  0  0  0  0  0  0  0  0
  143.4220   76.8440  218.7250 O   0  0  0  0  0  0  0  0  0  0  0  0
  141.4340   77.7390  219.6930 C   0  0  2  0  0  0  0  0  0  0  0  0
  142.1430   78.8840  219.3820 O   0  0  0  0  0  0  0  0  0  0  0  0
  141.4970   77.4230  221.1970 C   0  0  1  0  0  0  0  0  0  0  0  0
  140.7770   78.3560  222.0180 C   0  0  0  0  0  0  0  0  0  0  0  0
  141.4940   79.0570  223.0080 C   0  0  0  0  0  0  0  0  0  0  0  0
  140.8590   79.9440  223.8520 C   0  0  0  0  0  0  0  0  0  0  0  0
  139.5150   80.1830  223.7700 C   0  0  0  0  0  0  0  0  0  0  0  0
  138.8300   79.5070  222.8170 N   0  0  0  0  0  0  0  0  0  0  0  0
  139.4300   78.6380  221.9830 C   0  0  0  0  0  0  0  0  0  0  0  0
  139.8860   70.7090  223.6740 C   0  0  0  0  0  0  0  0  0  0  0  0
  139.3120   69.4580  223.6610 C   0  0  0  0  0  0  0  0  0  0  0  0
  139.2140   68.6730  224.8000 C   0  0  0  0  0  0  0  0  0  0  0  0
  139.7100   69.1590  226.0020 C   0  0  0  0  0  0  0  0  0  0  0  0
  139.6550   68.4500  227.1780 C   0  0  0  0  0  0  0  0  0  0  0  0
  140.1810   69.0250  228.3360 C   0  0  0  0  0  0  0  0  0  0  0  0
  140.7460   70.2710  228.3180 C   0  0  0  0  0  0  0  0  0  0  0  0
  140.7950   70.9720  227.1310 C   0  0  0  0  0  0  0  0  0  0  0  0
  140.2740   70.4080  225.9770 C   0  0  0  0  0  0  0  0  0  0  0  0
  140.3570   71.1480  224.8580 N   0  0  0  0  0  0  0  0  0  0  0  0
  139.7580   73.3840  223.5330 H   0  0  0  0  0  0  0  0  0  0  0  0
  140.7923   73.3913  220.7299 H   0  0  0  0  0  0  0  0  0  0  0  0
  139.0264   73.7248  220.8262 H   0  0  0  0  0  0  0  0  0  0  0  0
  143.2421   75.4936  220.7011 H   0  0  0  0  0  0  0  0  0  0  0  0
  142.0892   74.4489  219.9425 H   0  0  0  0  0  0  0  0  0  0  0  0
  141.5895   76.1125  218.2489 H   0  0  0  0  0  0  0  0  0  0  0  0
  143.8350   77.5370  219.2980 H   0  0  0  0  0  0  0  0  0  0  0  0
  140.4165   77.9199  219.3161 H   0  0  0  0  0  0  0  0  0  0  0  0
  143.1050   78.7590  219.5840 H   0  0  0  0  0  0  0  0  0  0  0  0
  142.4487   77.5777  221.7265 H   0  0  0  0  0  0  0  0  0  0  0  0
  142.5772   78.8943  223.1093 H   0  0  0  0  0  0  0  0  0  0  0  0
  141.4505   80.4743  224.6128 H   0  0  0  0  0  0  0  0  0  0  0  0
  139.0138   80.8911  224.4463 H   0  0  0  0  0  0  0  0  0  0  0  0
  138.8105   78.1251  221.2325 H   0  0  0  0  0  0  0  0  0  0  0  0
  138.9164   69.0665  222.7122 H   0  0  0  0  0  0  0  0  0  0  0  0
  138.7489   67.6773  224.7516 H   0  0  0  0  0  0  0  0  0  0  0  0
  139.2043   67.4469  227.2062 H   0  0  0  0  0  0  0  0  0  0  0  0
  140.1405   68.4652  229.2820 H   0  0  0  0  0  0  0  0  0  0  0  0
  141.1566   70.7088  229.2398 H   0  0  0  0  0  0  0  0  0  0  0  0
  141.2459   71.9749  227.1004 H   0  0  0  0  0  0  0  0  0  0  0  0
  1  2  2  0
  2  3  1  0
  3  4  1  0
  4  5  1  0
  5  6  2  0
  5  7  1  0
  7  8  1  0
  8  9  1  0
  9 10  1  0
  9 11  1  0
 11 12  1  0
 11 13  1  0
 13 14  1  0
 14 15  2  0
 15 16  1  0
 16 17  2  0
 17 18  1  0
 18 19  2  0
  2 20  1  0
 20 21  2  0
 21 22  1  0
 22 23  2  0
 23 24  1  0
 24 25  2  0
 25 26  1  0
 26 27  2  0
 27 28  1  0
 28 29  2  0
 13  7  1  0
 19 14  1  0
 29 20  1  0
 28 23  1  0
  3 30  1  0
  4 31  1  0
  4 32  1  0
  8 33  1  0
  8 34  1  0
  9 35  1  6
 10 36  1  0
 11 37  1  6
 12 38  1  0
 13 39  1  1
 15 40  1  0
 16 41  1  0
 17 42  1  0
 19 43  1  0
 21 44  1  0
 22 45  1  0
 24 46  1  0
 25 47  1  0
 26 48  1  0
 27 49  1  0
M  END
>  <smiles>  (7) 
O=C(NCC(=O)N1C[C@H](O)[C@H](O)[C@H]1c1cccnc1)c1ccc2ccccc2n1

>  <score_type>  (7) 
oracle

>  <origin>  (7) 
autodockgpu

>  <m_score__min__energy>  (7) 
-8.8499999999999996

>  <m_primary>  (7) 
energy

>  <rmsd>  (7) 
2.172579003864005

>  <m_score__min__rmsd>  (7) 
2.172579003864005

>  <meeko>  (7) 
{"free_energy": -8.5, "intermolecular_energy": -10.59, "internal_energy": -2.93, "cluster_size": 31, "cluster_id": 1, "rank_in_cluster": 12}

>  <energy>  (7) 
-8.54

>  <cluster_rmsd>  (7) 
0.48

>  <cluster>  (7) 
1

$$$$

     RDKit          3D

 49 52  0  0  0  0  0  0  0  0999 V2000
  138.5930   75.4880  222.0120 O   0  0  0  0  0  0  0  0  0  0  0  0
  139.7790   75.8570  222.1460 C   0  0  0  0  0  0  0  0  0  0  0  0
  140.9060   75.0130  221.9610 N   0  0  0  0  0  0  0  0  0  0  0  0
  140.6590   73.5970  221.5830 C   0  0  0  0  0  0  0  0  0  0  0  0
  141.9090   72.9730  221.1320 C   0  0  0  0  0  0  0  0  0  0  0  0
  142.0480   71.7290  221.4370 O   0  0  0  0  0  0  0  0  0  0  0  0
  142.9680   73.5440  220.4180 N   0  0  0  0  0  0  0  0  0  0  0  0
  144.2940   72.8320  220.3990 C   0  0  0  0  0  0  0  0  0  0  0  0
  144.6000   72.8890  218.9130 C   0  0  2  0  0  0  0  0  0  0  0  0
  145.9270   73.2380  218.7610 O   0  0  0  0  0  0  0  0  0  0  0  0
  143.7050   73.9860  218.3230 C   0  0  2  0  0  0  0  0  0  0  0  0
  144.4560   74.8450  217.5430 O   0  0  0  0  0  0  0  0  0  0  0  0
  143.2100   74.6700  219.6070 C   0  0  1  0  0  0  0  0  0  0  0  0
  142.2180   75.6850  219.3810 C   0  0  0  0  0  0  0  0  0  0  0  0
  142.5400   77.0130  219.7230 C   0  0  0  0  0  0  0  0  0  0  0  0
  141.6230   78.0310  219.5620 C   0  0  0  0  0  0  0  0  0  0  0  0
  140.3690   77.8010  219.0680 C   0  0  0  0  0  0  0  0  0  0  0  0
  140.0640   76.5230  218.7410 N   0  0  0  0  0  0  0  0  0  0  0  0
  140.9430   75.5160  218.8900 C   0  0  0  0  0  0  0  0  0  0  0  0
  140.0360   77.2620  222.5220 C   0  0  0  0  0  0  0  0  0  0  0  0
  139.0060   78.1490  222.7420 C   0  0  0  0  0  0  0  0  0  0  0  0
  139.2270   79.4710  223.0950 C   0  0  0  0  0  0  0  0  0  0  0  0
  140.5300   79.9270  223.2350 C   0  0  0  0  0  0  0  0  0  0  0  0
  140.8410   81.2190  223.5820 C   0  0  0  0  0  0  0  0  0  0  0  0
  142.1840   81.5820  223.6970 C   0  0  0  0  0  0  0  0  0  0  0  0
  143.1860   80.6780  223.4720 C   0  0  0  0  0  0  0  0  0  0  0  0
  142.8620   79.3830  223.1250 C   0  0  0  0  0  0  0  0  0  0  0  0
  141.5300   79.0160  223.0070 C   0  0  0  0  0  0  0  0  0  0  0  0
  141.2880   77.7390  222.6670 N   0  0  0  0  0  0  0  0  0  0  0  0
  141.8820   75.3660  222.0840 H   0  0  0  0  0  0  0  0  0  0  0  0
  140.2722   73.0492  222.4550 H   0  0  0  0  0  0  0  0  0  0  0  0
  139.9234   73.5642  220.7658 H   0  0  0  0  0  0  0  0  0  0  0  0
  145.0519   73.3638  220.9929 H   0  0  0  0  0  0  0  0  0  0  0  0
  144.2843   71.8210  220.8324 H   0  0  0  0  0  0  0  0  0  0  0  0
  144.4178   71.9266  218.4124 H   0  0  0  0  0  0  0  0  0  0  0  0
  146.0850   74.2120  218.8350 H   0  0  0  0  0  0  0  0  0  0  0  0
  142.8973   73.6333  217.6648 H   0  0  0  0  0  0  0  0  0  0  0  0
  145.4100   74.5770  217.5570 H   0  0  0  0  0  0  0  0  0  0  0  0
  143.8935   75.3513  220.1349 H   0  0  0  0  0  0  0  0  0  0  0  0
  143.5381   77.2419  220.1247 H   0  0  0  0  0  0  0  0  0  0  0  0
  141.9087   79.0565  219.8388 H   0  0  0  0  0  0  0  0  0  0  0  0
  139.6416   78.6165  218.9420 H   0  0  0  0  0  0  0  0  0  0  0  0
  140.6259   74.5023  218.6040 H   0  0  0  0  0  0  0  0  0  0  0  0
  137.9700   77.7955  222.6337 H   0  0  0  0  0  0  0  0  0  0  0  0
  138.3788   80.1511  223.2623 H   0  0  0  0  0  0  0  0  0  0  0  0
  140.0450   81.9555  223.7662 H   0  0  0  0  0  0  0  0  0  0  0  0
  142.4417   82.6149  223.9739 H   0  0  0  0  0  0  0  0  0  0  0  0
  144.2392   80.9809  223.5669 H   0  0  0  0  0  0  0  0  0  0  0  0
  143.6567   78.6446  222.9427 H   0  0  0  0  0  0  0  0  0  0  0  0
  1  2  2  0
  2  3  1  0
  3  4  1  0
  4  5  1  0
  5  6  2  0
  5  7  1  0
  7  8  1  0
  8  9  1  0
  9 10  1  0
  9 11  1  0
 11 12  1  0
 11 13  1  0
 13 14  1  0
 14 15  2  0
 15 16  1  0
 16 17  2  0
 17 18  1  0
 18 19  2  0
  2 20  1  0
 20 21  2  0
 21 22  1  0
 22 23  2  0
 23 24  1  0
 24 25  2  0
 25 26  1  0
 26 27  2  0
 27 28  1  0
 28 29  2  0
 13  7  1  0
 19 14  1  0
 29 20  1  0
 28 23  1  0
  3 30  1  0
  4 31  1  0
  4 32  1  0
  8 33  1  0
  8 34  1  0
  9 35  1  6
 10 36  1  0
 11 37  1  6
 12 38  1  0
 13 39  1  1
 15 40  1  0
 16 41  1  0
 17 42  1  0
 19 43  1  0
 21 44  1  0
 22 45  1  0
 24 46  1  0
 25 47  1  0
 26 48  1  0
 27 49  1  0
M  END
>  <smiles>  (8) 
O=C(NCC(=O)N1C[C@H](O)[C@H](O)[C@H]1c1cccnc1)c1ccc2ccccc2n1

>  <score_type>  (8) 
oracle

>  <origin>  (8) 
autodockgpu

>  <m_score__min__energy>  (8) 
-8.8499999999999996

>  <m_primary>  (8) 
energy

>  <rmsd>  (8) 
7.62522706725385

>  <m_score__min__rmsd>  (8) 
7.62522706725385

>  <meeko>  (8) 
{"free_energy": -7.44, "intermolecular_energy": -9.53, "internal_energy": -3.86, "cluster_size": 17, "cluster_id": 2, "rank_in_cluster": 13}

>  <energy>  (8) 
-8.53

>  <cluster_rmsd>  (8) 
0.48

>  <cluster>  (8) 
1

$$$$

     RDKit          3D

 49 52  0  0  0  0  0  0  0  0999 V2000
  141.1490   72.3300  222.0780 O   0  0  0  0  0  0  0  0  0  0  0  0
  140.0940   72.2110  222.7380 C   0  0  0  0  0  0  0  0  0  0  0  0
  138.9130   72.9660  222.5010 N   0  0  0  0  0  0  0  0  0  0  0  0
  138.9340   73.9600  221.3970 C   0  0  0  0  0  0  0  0  0  0  0  0
  139.2640   75.2900  221.9260 C   0  0  0  0  0  0  0  0  0  0  0  0
  138.3800   75.8110  222.7050 O   0  0  0  0  0  0  0  0  0  0  0  0
  140.4060   76.0650  221.7000 N   0  0  0  0  0  0  0  0  0  0  0  0
  141.5910   75.4270  221.0260 C   0  0  0  0  0  0  0  0  0  0  0  0
  141.9050   76.4910  219.9880 C   0  0  2  0  0  0  0  0  0  0  0  0
  143.2730   76.6780  219.9680 O   0  0  0  0  0  0  0  0  0  0  0  0
  141.2130   77.7770  220.4560 C   0  0  2  0  0  0  0  0  0  0  0  0
  142.1010   78.8340  220.4240 O   0  0  0  0  0  0  0  0  0  0  0  0
  140.8400   77.3910  221.8970 C   0  0  1  0  0  0  0  0  0  0  0  0
  140.0370   78.3720  222.5730 C   0  0  0  0  0  0  0  0  0  0  0  0
  138.7230   78.5850  222.1120 C   0  0  0  0  0  0  0  0  0  0  0  0
  137.9090   79.5340  222.6940 C   0  0  0  0  0  0  0  0  0  0  0  0
  138.3360   80.3070  223.7380 C   0  0  0  0  0  0  0  0  0  0  0  0
  139.6000   80.1000  224.1790 N   0  0  0  0  0  0  0  0  0  0  0  0
  140.4090   79.1790  223.6250 C   0  0  0  0  0  0  0  0  0  0  0  0
  140.0630   71.2260  223.8370 C   0  0  0  0  0  0  0  0  0  0  0  0
  139.5220   69.9720  223.6650 C   0  0  0  0  0  0  0  0  0  0  0  0
  139.4840   69.0330  224.6830 C   0  0  0  0  0  0  0  0  0  0  0  0
  140.0060   69.3600  225.9270 C   0  0  0  0  0  0  0  0  0  0  0  0
  140.0100   68.4920  226.9920 C   0  0  0  0  0  0  0  0  0  0  0  0
  140.5590   68.9150  228.2040 C   0  0  0  0  0  0  0  0  0  0  0  0
  141.0890   70.1680  228.3460 C   0  0  0  0  0  0  0  0  0  0  0  0
  141.0790   71.0310  227.2690 C   0  0  0  0  0  0  0  0  0  0  0  0
  140.5350   70.6180  226.0620 C   0  0  0  0  0  0  0  0  0  0  0  0
  140.5610   71.5090  225.0570 N   0  0  0  0  0  0  0  0  0  0  0  0
  138.0530   72.8320  223.0800 H   0  0  0  0  0  0  0  0  0  0  0  0
  139.6907   73.6648  220.6552 H   0  0  0  0  0  0  0  0  0  0  0  0
  137.9418   73.9953  220.9234 H   0  0  0  0  0  0  0  0  0  0  0  0
  142.4275   75.2783  221.7247 H   0  0  0  0  0  0  0  0  0  0  0  0
  141.4082   74.4214  220.6195 H   0  0  0  0  0  0  0  0  0  0  0  0
  141.5613   76.2083  218.9820 H   0  0  0  0  0  0  0  0  0  0  0  0
  143.5360   77.6000  219.7230 H   0  0  0  0  0  0  0  0  0  0  0  0
  140.3581   78.1024  219.8450 H   0  0  0  0  0  0  0  0  0  0  0  0
  142.9470   78.5870  220.8780 H   0  0  0  0  0  0  0  0  0  0  0  0
  141.6290   77.4001  222.6634 H   0  0  0  0  0  0  0  0  0  0  0  0
  138.3399   77.9844  221.2739 H   0  0  0  0  0  0  0  0  0  0  0  0
  136.8884   79.6729  222.3078 H   0  0  0  0  0  0  0  0  0  0  0  0
  137.6828   81.0626  224.1988 H   0  0  0  0  0  0  0  0  0  0  0  0
  141.4233   79.0642  224.0348 H   0  0  0  0  0  0  0  0  0  0  0  0
  139.1044   69.7056  222.6829 H   0  0  0  0  0  0  0  0  0  0  0  0
  139.0452   68.0397  224.5075 H   0  0  0  0  0  0  0  0  0  0  0  0
  139.5879   67.4812  226.8915 H   0  0  0  0  0  0  0  0  0  0  0  0
  140.5655   68.2267  229.0620 H   0  0  0  0  0  0  0  0  0  0  0  0
  141.5185   70.4843  229.3080 H   0  0  0  0  0  0  0  0  0  0  0  0
  141.5007   72.0422  227.3675 H   0  0  0  0  0  0  0  0  0  0  0  0
  1  2  2  0
  2  3  1  0
  3  4  1  0
  4  5  1  0
  5  6  2  0
  5  7  1  0
  7  8  1  0
  8  9  1  0
  9 10  1  0
  9 11  1  0
 11 12  1  0
 11 13  1  0
 13 14  1  0
 14 15  2  0
 15 16  1  0
 16 17  2  0
 17 18  1  0
 18 19  2  0
  2 20  1  0
 20 21  2  0
 21 22  1  0
 22 23  2  0
 23 24  1  0
 24 25  2  0
 25 26  1  0
 26 27  2  0
 27 28  1  0
 28 29  2  0
 13  7  1  0
 19 14  1  0
 29 20  1  0
 28 23  1  0
  3 30  1  0
  4 31  1  0
  4 32  1  0
  8 33  1  0
  8 34  1  0
  9 35  1  6
 10 36  1  0
 11 37  1  6
 12 38  1  0
 13 39  1  1
 15 40  1  0
 16 41  1  0
 17 42  1  0
 19 43  1  0
 21 44  1  0
 22 45  1  0
 24 46  1  0
 25 47  1  0
 26 48  1  0
 27 49  1  0
M  END
>  <smiles>  (9) 
O=C(NCC(=O)N1C[C@H](O)[C@H](O)[C@H]1c1cccnc1)c1ccc2ccccc2n1

>  <score_type>  (9) 
oracle

>  <origin>  (9) 
autodockgpu

>  <m_score__min__energy>  (9) 
-8.8499999999999996

>  <m_primary>  (9) 
energy

>  <rmsd>  (9) 
2.4004343934984274

>  <m_score__min__rmsd>  (9) 
2.4004343934984274

>  <meeko>  (9) 
{"free_energy": -8.34, "intermolecular_energy": -10.43, "internal_energy": -2.65, "cluster_size": 31, "cluster_id": 1, "rank_in_cluster": 23}

>  <energy>  (9) 
-8.53

>  <cluster_rmsd>  (9) 
0.46

>  <cluster>  (9) 
1

$$$$

     RDKit          3D

 49 52  0  0  0  0  0  0  0  0999 V2000
  141.1680   71.5630  221.4740 O   0  0  0  0  0  0  0  0  0  0  0  0
  140.5430   72.1270  222.3980 C   0  0  0  0  0  0  0  0  0  0  0  0
  140.0730   73.4660  222.3450 N   0  0  0  0  0  0  0  0  0  0  0  0
  140.3410   74.2490  221.1100 C   0  0  0  0  0  0  0  0  0  0  0  0
  140.6270   75.6470  221.4550 C   0  0  0  0  0  0  0  0  0  0  0  0
  140.0070   76.1000  222.4900 O   0  0  0  0  0  0  0  0  0  0  0  0
  141.4810   76.5520  220.8150 N   0  0  0  0  0  0  0  0  0  0  0  0
  142.3630   76.0510  219.7040 C   0  0  0  0  0  0  0  0  0  0  0  0
  142.1050   77.1230  218.6610 C   0  0  2  0  0  0  0  0  0  0  0  0
  143.3160   77.4770  218.1000 O   0  0  0  0  0  0  0  0  0  0  0  0
  141.5080   78.3240  219.4050 C   0  0  2  0  0  0  0  0  0  0  0  0
  142.1750   79.4820  219.0530 O   0  0  0  0  0  0  0  0  0  0  0  0
  141.7930   77.9250  220.8630 C   0  0  1  0  0  0  0  0  0  0  0  0
  141.2170   78.8140  221.8330 C   0  0  0  0  0  0  0  0  0  0  0  0
  142.0880   79.5050  222.6980 C   0  0  0  0  0  0  0  0  0  0  0  0
  141.6000   80.3490  223.6740 C   0  0  0  0  0  0  0  0  0  0  0  0
  140.2590   80.5530  223.8460 C   0  0  0  0  0  0  0  0  0  0  0  0
  139.4250   79.8880  223.0130 N   0  0  0  0  0  0  0  0  0  0  0  0
  139.8810   79.0600  222.0540 C   0  0  0  0  0  0  0  0  0  0  0  0
  140.2710   71.3590  223.6290 C   0  0  0  0  0  0  0  0  0  0  0  0
  139.6020   70.1560  223.5940 C   0  0  0  0  0  0  0  0  0  0  0  0
  139.3370   69.4190  224.7380 C   0  0  0  0  0  0  0  0  0  0  0  0
  139.7570   69.9040  225.9690 C   0  0  0  0  0  0  0  0  0  0  0  0
  139.5380   69.2410  227.1520 C   0  0  0  0  0  0  0  0  0  0  0  0
  140.0000   69.8120  228.3400 C   0  0  0  0  0  0  0  0  0  0  0  0
  140.6620   71.0090  228.3430 C   0  0  0  0  0  0  0  0  0  0  0  0
  140.8760   71.6650  227.1490 C   0  0  0  0  0  0  0  0  0  0  0  0
  140.4200   71.1050  225.9650 C   0  0  0  0  0  0  0  0  0  0  0  0
  140.6650   71.7990  224.8410 N   0  0  0  0  0  0  0  0  0  0  0  0
  139.5530   73.8970  223.1440 H   0  0  0  0  0  0  0  0  0  0  0  0
  141.2072   73.8184  220.5862 H   0  0  0  0  0  0  0  0  0  0  0  0
  139.4553   74.2113  220.4588 H   0  0  0  0  0  0  0  0  0  0  0  0
  143.4207   76.0197  220.0046 H   0  0  0  0  0  0  0  0  0  0  0  0
  142.1542   75.0227  219.3738 H   0  0  0  0  0  0  0  0  0  0  0  0
  141.4244   76.7783  217.8685 H   0  0  0  0  0  0  0  0  0  0  0  0
  143.8150   78.1420  218.6370 H   0  0  0  0  0  0  0  0  0  0  0  0
  140.4476   78.5291  219.1963 H   0  0  0  0  0  0  0  0  0  0  0  0
  142.6690   79.3500  218.2040 H   0  0  0  0  0  0  0  0  0  0  0  0
  142.8151   78.0468  221.2509 H   0  0  0  0  0  0  0  0  0  0  0  0
  143.1746   79.3694  222.5935 H   0  0  0  0  0  0  0  0  0  0  0  0
  142.3093   80.8723  224.3320 H   0  0  0  0  0  0  0  0  0  0  0  0
  139.8754   81.2271  224.6260 H   0  0  0  0  0  0  0  0  0  0  0  0
  139.1457   78.5526  221.4123 H   0  0  0  0  0  0  0  0  0  0  0  0
  139.2654   69.7652  222.6224 H   0  0  0  0  0  0  0  0  0  0  0  0
  138.8002   68.4612  224.6710 H   0  0  0  0  0  0  0  0  0  0  0  0
  139.0080   68.2772  227.1635 H   0  0  0  0  0  0  0  0  0  0  0  0
  139.8281   69.2887  229.2921 H   0  0  0  0  0  0  0  0  0  0  0  0
  141.0199   71.4438  229.2879 H   0  0  0  0  0  0  0  0  0  0  0  0
  141.4063   72.6286  227.1358 H   0  0  0  0  0  0  0  0  0  0  0  0
  1  2  2  0
  2  3  1  0
  3  4  1  0
  4  5  1  0
  5  6  2  0
  5  7  1  0
  7  8  1  0
  8  9  1  0
  9 10  1  0
  9 11  1  0
 11 12  1  0
 11 13  1  0
 13 14  1  0
 14 15  2  0
 15 16  1  0
 16 17  2  0
 17 18  1  0
 18 19  2  0
  2 20  1  0
 20 21  2  0
 21 22  1  0
 22 23  2  0
 23 24  1  0
 24 25  2  0
 25 26  1  0
 26 27  2  0
 27 28  1  0
 28 29  2  0
 13  7  1  0
 19 14  1  0
 29 20  1  0
 28 23  1  0
  3 30  1  0
  4 31  1  0
  4 32  1  0
  8 33  1  0
  8 34  1  0
  9 35  1  6
 10 36  1  0
 11 37  1  1
 12 38  1  0
 13 39  1  6
 15 40  1  0
 16 41  1  0
 17 42  1  0
 19 43  1  0
 21 44  1  0
 22 45  1  0
 24 46  1  0
 25 47  1  0
 26 48  1  0
 27 49  1  0
M  END
>  <smiles>  (10) 
O=C(NCC(=O)N1C[C@H](O)[C@H](O)[C@H]1c1cccnc1)c1ccc2ccccc2n1

>  <score_type>  (10) 
oracle

>  <origin>  (10) 
autodockgpu

>  <m_score__min__energy>  (10) 
-8.8499999999999996

>  <m_primary>  (10) 
energy

>  <rmsd>  (10) 
2.3117212824965323

>  <m_score__min__rmsd>  (10) 
2.3117212824965323

>  <meeko>  (10) 
{"free_energy": -8.49, "intermolecular_energy": -10.58, "internal_energy": -3.02, "cluster_size": 31, "cluster_id": 1, "rank_in_cluster": 13}

>  <energy>  (10) 
-8.52

>  <cluster_rmsd>  (10) 
0.48

>  <cluster>  (10) 
1

$$$$

     RDKit          3D

 49 52  0  0  0  0  0  0  0  0999 V2000
  138.9110   75.4470  221.6180 O   0  0  0  0  0  0  0  0  0  0  0  0
  140.0650   75.8630  221.8560 C   0  0  0  0  0  0  0  0  0  0  0  0
  141.2470   75.0960  221.6700 N   0  0  0  0  0  0  0  0  0  0  0  0
  141.1010   73.7090  221.1580 C   0  0  0  0  0  0  0  0  0  0  0  0
  142.4220   73.1490  220.8440 C   0  0  0  0  0  0  0  0  0  0  0  0
  142.6950   72.0240  221.4100 O   0  0  0  0  0  0  0  0  0  0  0  0
  143.4210   73.6690  220.0150 N   0  0  0  0  0  0  0  0  0  0  0  0
  144.6840   72.8750  219.8200 C   0  0  0  0  0  0  0  0  0  0  0  0
  144.8100   72.9500  218.3080 C   0  0  2  0  0  0  0  0  0  0  0  0
  146.1290   73.2170  218.0010 O   0  0  0  0  0  0  0  0  0  0  0  0
  143.9250   74.1170  217.8530 C   0  0  2  0  0  0  0  0  0  0  0  0
  144.6310   74.9460  217.0030 O   0  0  0  0  0  0  0  0  0  0  0  0
  143.6380   74.7990  219.2010 C   0  0  1  0  0  0  0  0  0  0  0  0
  142.6960   75.8800  219.1180 C   0  0  0  0  0  0  0  0  0  0  0  0
  141.5290   75.6850  218.3540 C   0  0  0  0  0  0  0  0  0  0  0  0
  140.5980   76.6920  218.2060 C   0  0  0  0  0  0  0  0  0  0  0  0
  140.7640   77.9190  218.7870 C   0  0  0  0  0  0  0  0  0  0  0  0
  141.8880   78.1030  219.5200 N   0  0  0  0  0  0  0  0  0  0  0  0
  142.8070   77.1330  219.6780 C   0  0  0  0  0  0  0  0  0  0  0  0
  140.2220   77.2400  222.3650 C   0  0  0  0  0  0  0  0  0  0  0  0
  139.1330   78.0100  222.7070 C   0  0  0  0  0  0  0  0  0  0  0  0
  139.2580   79.3040  223.1880 C   0  0  0  0  0  0  0  0  0  0  0  0
  140.5250   79.8540  223.3310 C   0  0  0  0  0  0  0  0  0  0  0  0
  140.7420   81.1270  223.7990 C   0  0  0  0  0  0  0  0  0  0  0  0
  142.0550   81.5900  223.9080 C   0  0  0  0  0  0  0  0  0  0  0  0
  143.1180   80.8020  223.5600 C   0  0  0  0  0  0  0  0  0  0  0  0
  142.8870   79.5250  223.0920 C   0  0  0  0  0  0  0  0  0  0  0  0
  141.5850   79.0580  222.9800 C   0  0  0  0  0  0  0  0  0  0  0  0
  141.4360   77.8060  222.5180 N   0  0  0  0  0  0  0  0  0  0  0  0
  142.1930   75.4860  221.8840 H   0  0  0  0  0  0  0  0  0  0  0  0
  140.6142   73.0872  221.9237 H   0  0  0  0  0  0  0  0  0  0  0  0
  140.4880   73.7233  220.2448 H   0  0  0  0  0  0  0  0  0  0  0  0
  145.5423   73.3422  220.3251 H   0  0  0  0  0  0  0  0  0  0  0  0
  144.6599   71.8560  220.2335 H   0  0  0  0  0  0  0  0  0  0  0  0
  144.5046   72.0148  217.8159 H   0  0  0  0  0  0  0  0  0  0  0  0
  146.2740   74.1390  217.6730 H   0  0  0  0  0  0  0  0  0  0  0  0
  143.0212   73.8336  217.2936 H   0  0  0  0  0  0  0  0  0  0  0  0
  145.4940   75.2080  217.4140 H   0  0  0  0  0  0  0  0  0  0  0  0
  144.4252   75.4212  219.6518 H   0  0  0  0  0  0  0  0  0  0  0  0
  141.3571   74.7136  217.8673 H   0  0  0  0  0  0  0  0  0  0  0  0
  139.6970   76.5030  217.6039 H   0  0  0  0  0  0  0  0  0  0  0  0
  140.0193   78.7192  218.6647 H   0  0  0  0  0  0  0  0  0  0  0  0
  143.6956   77.3530  220.2879 H   0  0  0  0  0  0  0  0  0  0  0  0
  138.1259   77.5822  222.5943 H   0  0  0  0  0  0  0  0  0  0  0  0
  138.3644   79.8881  223.4532 H   0  0  0  0  0  0  0  0  0  0  0  0
  139.8963   81.7706  224.0830 H   0  0  0  0  0  0  0  0  0  0  0  0
  142.2382   82.6084  224.2811 H   0  0  0  0  0  0  0  0  0  0  0  0
  144.1459   81.1827  223.6524 H   0  0  0  0  0  0  0  0  0  0  0  0
  143.7315   78.8795  222.8087 H   0  0  0  0  0  0  0  0  0  0  0  0
  1  2  2  0
  2  3  1  0
  3  4  1  0
  4  5  1  0
  5  6  2  0
  5  7  1  0
  7  8  1  0
  8  9  1  0
  9 10  1  0
  9 11  1  0
 11 12  1  0
 11 13  1  0
 13 14  1  0
 14 15  2  0
 15 16  1  0
 16 17  2  0
 17 18  1  0
 18 19  2  0
  2 20  1  0
 20 21  2  0
 21 22  1  0
 22 23  2  0
 23 24  1  0
 24 25  2  0
 25 26  1  0
 26 27  2  0
 27 28  1  0
 28 29  2  0
 13  7  1  0
 19 14  1  0
 29 20  1  0
 28 23  1  0
  3 30  1  0
  4 31  1  0
  4 32  1  0
  8 33  1  0
  8 34  1  0
  9 35  1  6
 10 36  1  0
 11 37  1  6
 12 38  1  0
 13 39  1  1
 15 40  1  0
 16 41  1  0
 17 42  1  0
 19 43  1  0
 21 44  1  0
 22 45  1  0
 24 46  1  0
 25 47  1  0
 26 48  1  0
 27 49  1  0
M  END
>  <smiles>  (11) 
O=C(NCC(=O)N1C[C@H](O)[C@H](O)[C@H]1c1cccnc1)c1ccc2ccccc2n1

>  <score_type>  (11) 
oracle

>  <origin>  (11) 
autodockgpu

>  <m_score__min__energy>  (11) 
-8.8499999999999996

>  <m_primary>  (11) 
energy

>  <rmsd>  (11) 
7.637644624283169

>  <m_score__min__rmsd>  (11) 
7.637644624283169

>  <meeko>  (11) 
{"free_energy": -7.5, "intermolecular_energy": -9.58, "internal_energy": -3.73, "cluster_size": 17, "cluster_id": 2, "rank_in_cluster": 11}

>  <energy>  (11) 
-8.52

>  <cluster_rmsd>  (11) 
0.39

>  <cluster>  (11) 
1

$$$$

     RDKit          3D

 49 52  0  0  0  0  0  0  0  0999 V2000
  141.0520   71.5920  221.4120 O   0  0  0  0  0  0  0  0  0  0  0  0
  140.4890   72.1760  222.3630 C   0  0  0  0  0  0  0  0  0  0  0  0
  140.0460   73.5250  222.3240 N   0  0  0  0  0  0  0  0  0  0  0  0
  140.2670   74.2930  221.0710 C   0  0  0  0  0  0  0  0  0  0  0  0
  140.6650   75.6700  221.3900 C   0  0  0  0  0  0  0  0  0  0  0  0
  140.1250   76.1720  222.4470 O   0  0  0  0  0  0  0  0  0  0  0  0
  141.5510   76.5090  220.7050 N   0  0  0  0  0  0  0  0  0  0  0  0
  142.3180   75.9510  219.5370 C   0  0  0  0  0  0  0  0  0  0  0  0
  142.0870   77.0540  218.5200 C   0  0  2  0  0  0  0  0  0  0  0  0
  143.2870   77.3130  217.8880 O   0  0  0  0  0  0  0  0  0  0  0  0
  141.6390   78.2900  219.3090 C   0  0  2  0  0  0  0  0  0  0  0  0
  142.3780   79.3930  218.9250 O   0  0  0  0  0  0  0  0  0  0  0  0
  141.9790   77.8510  220.7430 C   0  0  1  0  0  0  0  0  0  0  0  0
  141.5390   78.7720  221.7540 C   0  0  0  0  0  0  0  0  0  0  0  0
  142.5180   79.3970  222.5520 C   0  0  0  0  0  0  0  0  0  0  0  0
  142.1640   80.2670  223.5610 C   0  0  0  0  0  0  0  0  0  0  0  0
  140.8570   80.5630  223.8340 C   0  0  0  0  0  0  0  0  0  0  0  0
  139.9190   79.9600  223.0640 N   0  0  0  0  0  0  0  0  0  0  0  0
  140.2440   79.1080  222.0750 C   0  0  0  0  0  0  0  0  0  0  0  0
  140.2640   71.4220  223.6130 C   0  0  0  0  0  0  0  0  0  0  0  0
  139.5860   70.2240  223.6190 C   0  0  0  0  0  0  0  0  0  0  0  0
  139.3650   69.5010  224.7810 C   0  0  0  0  0  0  0  0  0  0  0  0
  139.8400   69.9960  225.9880 C   0  0  0  0  0  0  0  0  0  0  0  0
  139.6670   69.3470  227.1860 C   0  0  0  0  0  0  0  0  0  0  0  0
  140.1820   69.9270  228.3470 C   0  0  0  0  0  0  0  0  0  0  0  0
  140.8520   71.1190  228.3090 C   0  0  0  0  0  0  0  0  0  0  0  0
  141.0200   71.7610  227.1000 C   0  0  0  0  0  0  0  0  0  0  0  0
  140.5100   71.1920  225.9430 C   0  0  0  0  0  0  0  0  0  0  0  0
  140.7110   71.8720  224.8020 N   0  0  0  0  0  0  0  0  0  0  0  0
  139.5790   73.9730  223.1450 H   0  0  0  0  0  0  0  0  0  0  0  0
  141.0622   73.8107  220.4835 H   0  0  0  0  0  0  0  0  0  0  0  0
  139.3334   74.3123  220.4897 H   0  0  0  0  0  0  0  0  0  0  0  0
  143.3858   75.8282  219.7708 H   0  0  0  0  0  0  0  0  0  0  0  0
  142.0038   74.9480  219.2126 H   0  0  0  0  0  0  0  0  0  0  0  0
  141.3330   76.7778  217.7683 H   0  0  0  0  0  0  0  0  0  0  0  0
  143.2960   78.1780  217.4080 H   0  0  0  0  0  0  0  0  0  0  0  0
  140.5884   78.5843  219.1686 H   0  0  0  0  0  0  0  0  0  0  0  0
  143.3460   79.1830  218.9460 H   0  0  0  0  0  0  0  0  0  0  0  0
  143.0299   77.8836  221.0664 H   0  0  0  0  0  0  0  0  0  0  0  0
  143.5818   79.1873  222.3668 H   0  0  0  0  0  0  0  0  0  0  0  0
  142.9553   80.7365  224.1638 H   0  0  0  0  0  0  0  0  0  0  0  0
  140.5802   81.2578  224.6406 H   0  0  0  0  0  0  0  0  0  0  0  0
  139.4295   78.6550  221.4907 H   0  0  0  0  0  0  0  0  0  0  0  0
  139.2056   69.8258  222.6668 H   0  0  0  0  0  0  0  0  0  0  0  0
  138.8197   68.5463  224.7471 H   0  0  0  0  0  0  0  0  0  0  0  0
  139.1320   68.3869  227.2301 H   0  0  0  0  0  0  0  0  0  0  0  0
  140.0463   69.4153  229.3112 H   0  0  0  0  0  0  0  0  0  0  0  0
  141.2527   71.5609  229.2332 H   0  0  0  0  0  0  0  0  0  0  0  0
  141.5563   72.7203  227.0538 H   0  0  0  0  0  0  0  0  0  0  0  0
  1  2  2  0
  2  3  1  0
  3  4  1  0
  4  5  1  0
  5  6  2  0
  5  7  1  0
  7  8  1  0
  8  9  1  0
  9 10  1  0
  9 11  1  0
 11 12  1  0
 11 13  1  0
 13 14  1  0
 14 15  2  0
 15 16  1  0
 16 17  2  0
 17 18  1  0
 18 19  2  0
  2 20  1  0
 20 21  2  0
 21 22  1  0
 22 23  2  0
 23 24  1  0
 24 25  2  0
 25 26  1  0
 26 27  2  0
 27 28  1  0
 28 29  2  0
 13  7  1  0
 19 14  1  0
 29 20  1  0
 28 23  1  0
  3 30  1  0
  4 31  1  0
  4 32  1  0
  8 33  1  0
  8 34  1  0
  9 35  1  6
 10 36  1  0
 11 37  1  1
 12 38  1  0
 13 39  1  6
 15 40  1  0
 16 41  1  0
 17 42  1  0
 19 43  1  0
 21 44  1  0
 22 45  1  0
 24 46  1  0
 25 47  1  0
 26 48  1  0
 27 49  1  0
M  END
>  <smiles>  (12) 
O=C(NCC(=O)N1C[C@H](O)[C@H](O)[C@H]1c1cccnc1)c1ccc2ccccc2n1

>  <score_type>  (12) 
oracle

>  <origin>  (12) 
autodockgpu

>  <m_score__min__energy>  (12) 
-8.8499999999999996

>  <m_primary>  (12) 
energy

>  <rmsd>  (12) 
2.3009255678985223

>  <m_score__min__rmsd>  (12) 
2.3009255678985223

>  <meeko>  (12) 
{"free_energy": -8.54, "intermolecular_energy": -10.62, "internal_energy": -2.98, "cluster_size": 31, "cluster_id": 1, "rank_in_cluster": 7}

>  <energy>  (12) 
-8.5

>  <cluster_rmsd>  (12) 
0.76

>  <cluster>  (12) 
1

$$$$

     RDKit          3D

 49 52  0  0  0  0  0  0  0  0999 V2000
  141.0670   71.8520  221.3280 O   0  0  0  0  0  0  0  0  0  0  0  0
  140.4450   72.3490  222.2910 C   0  0  0  0  0  0  0  0  0  0  0  0
  139.9420   73.6780  222.3200 N   0  0  0  0  0  0  0  0  0  0  0  0
  140.1700   74.5320  221.1250 C   0  0  0  0  0  0  0  0  0  0  0  0
  140.6650   75.8510  221.5400 C   0  0  0  0  0  0  0  0  0  0  0  0
  140.2560   76.2590  222.6920 O   0  0  0  0  0  0  0  0  0  0  0  0
  141.5200   76.7230  220.8560 N   0  0  0  0  0  0  0  0  0  0  0  0
  142.3620   76.1770  219.7350 C   0  0  0  0  0  0  0  0  0  0  0  0
  142.0980   77.2290  218.6730 C   0  0  2  0  0  0  0  0  0  0  0  0
  143.3010   77.5440  218.0730 O   0  0  0  0  0  0  0  0  0  0  0  0
  141.5450   78.4590  219.4030 C   0  0  2  0  0  0  0  0  0  0  0  0
  142.2250   79.5940  219.0050 O   0  0  0  0  0  0  0  0  0  0  0  0
  141.8600   78.0900  220.8620 C   0  0  1  0  0  0  0  0  0  0  0  0
  141.3270   79.0130  221.8240 C   0  0  0  0  0  0  0  0  0  0  0  0
  142.2360   79.7660  222.5940 C   0  0  0  0  0  0  0  0  0  0  0  0
  141.7930   80.6470  223.5580 C   0  0  0  0  0  0  0  0  0  0  0  0
  140.4610   80.8300  223.8110 C   0  0  0  0  0  0  0  0  0  0  0  0
  139.5910   80.1050  223.0680 N   0  0  0  0  0  0  0  0  0  0  0  0
  140.0030   79.2410  222.1230 C   0  0  0  0  0  0  0  0  0  0  0  0
  140.2130   71.5090  223.4830 C   0  0  0  0  0  0  0  0  0  0  0  0
  139.5440   70.3080  223.3980 C   0  0  0  0  0  0  0  0  0  0  0  0
  139.3170   69.5040  224.5040 C   0  0  0  0  0  0  0  0  0  0  0  0
  139.7750   69.9170  225.7480 C   0  0  0  0  0  0  0  0  0  0  0  0
  139.5950   69.1850  226.8960 C   0  0  0  0  0  0  0  0  0  0  0  0
  140.0930   69.6860  228.1010 C   0  0  0  0  0  0  0  0  0  0  0  0
  140.7530   70.8820  228.1530 C   0  0  0  0  0  0  0  0  0  0  0  0
  140.9290   71.6080  226.9940 C   0  0  0  0  0  0  0  0  0  0  0  0
  140.4360   71.1180  225.7940 C   0  0  0  0  0  0  0  0  0  0  0  0
  140.6440   71.8770  224.7060 N   0  0  0  0  0  0  0  0  0  0  0  0
  139.4270   74.0510  223.1490 H   0  0  0  0  0  0  0  0  0  0  0  0
  140.9132   74.0528  220.4708 H   0  0  0  0  0  0  0  0  0  0  0  0
  139.2213   74.6557  220.5821 H   0  0  0  0  0  0  0  0  0  0  0  0
  143.4264   76.1309  220.0087 H   0  0  0  0  0  0  0  0  0  0  0  0
  142.1239   75.1456  219.4357 H   0  0  0  0  0  0  0  0  0  0  0  0
  141.3901   76.8803  217.9067 H   0  0  0  0  0  0  0  0  0  0  0  0
  143.8310   78.2040  218.5850 H   0  0  0  0  0  0  0  0  0  0  0  0
  140.4836   78.6804  219.2175 H   0  0  0  0  0  0  0  0  0  0  0  0
  142.7180   79.4230  218.1620 H   0  0  0  0  0  0  0  0  0  0  0  0
  142.8941   78.2008  221.2202 H   0  0  0  0  0  0  0  0  0  0  0  0
  143.3164   79.6491  222.4233 H   0  0  0  0  0  0  0  0  0  0  0  0
  142.5312   81.2185  224.1397 H   0  0  0  0  0  0  0  0  0  0  0  0
  140.1128   81.5332  224.5819 H   0  0  0  0  0  0  0  0  0  0  0  0
  139.2396   78.6860  221.5580 H   0  0  0  0  0  0  0  0  0  0  0  0
  139.1764   69.9747  222.4163 H   0  0  0  0  0  0  0  0  0  0  0  0
  138.7802   68.5498  224.3974 H   0  0  0  0  0  0  0  0  0  0  0  0
  139.0674   68.2202  226.8670 H   0  0  0  0  0  0  0  0  0  0  0  0
  139.9514   69.1072  229.0256 H   0  0  0  0  0  0  0  0  0  0  0  0
  141.1400   71.2616  229.1102 H   0  0  0  0  0  0  0  0  0  0  0  0
  141.4583   72.5719  227.0212 H   0  0  0  0  0  0  0  0  0  0  0  0
  1  2  2  0
  2  3  1  0
  3  4  1  0
  4  5  1  0
  5  6  2  0
  5  7  1  0
  7  8  1  0
  8  9  1  0
  9 10  1  0
  9 11  1  0
 11 12  1  0
 11 13  1  0
 13 14  1  0
 14 15  2  0
 15 16  1  0
 16 17  2  0
 17 18  1  0
 18 19  2  0
  2 20  1  0
 20 21  2  0
 21 22  1  0
 22 23  2  0
 23 24  1  0
 24 25  2  0
 25 26  1  0
 26 27  2  0
 27 28  1  0
 28 29  2  0
 13  7  1  0
 19 14  1  0
 29 20  1  0
 28 23  1  0
  3 30  1  0
  4 31  1  0
  4 32  1  0
  8 33  1  0
  8 34  1  0
  9 35  1  6
 10 36  1  0
 11 37  1  1
 12 38  1  0
 13 39  1  6
 15 40  1  0
 16 41  1  0
 17 42  1  0
 19 43  1  0
 21 44  1  0
 22 45  1  0
 24 46  1  0
 25 47  1  0
 26 48  1  0
 27 49  1  0
M  END
>  <smiles>  (13) 
O=C(NCC(=O)N1C[C@H](O)[C@H](O)[C@H]1c1cccnc1)c1ccc2ccccc2n1

>  <score_type>  (13) 
oracle

>  <origin>  (13) 
autodockgpu

>  <m_score__min__energy>  (13) 
-8.8499999999999996

>  <m_primary>  (13) 
energy

>  <rmsd>  (13) 
2.3274063548874424

>  <m_score__min__rmsd>  (13) 
2.3274063548874424

>  <meeko>  (13) 
{"free_energy": -8.46, "intermolecular_energy": -10.55, "internal_energy": -2.97, "cluster_size": 31, "cluster_id": 1, "rank_in_cluster": 16}

>  <energy>  (13) 
-8.49

>  <cluster_rmsd>  (13) 
0.39

>  <cluster>  (13) 
1

$$$$

     RDKit          3D

 49 52  0  0  0  0  0  0  0  0999 V2000
  141.0990   71.6230  221.4270 O   0  0  0  0  0  0  0  0  0  0  0  0
  140.5060   72.2020  222.3630 C   0  0  0  0  0  0  0  0  0  0  0  0
  140.0480   73.5460  222.3100 N   0  0  0  0  0  0  0  0  0  0  0  0
  140.2870   74.3130  221.0600 C   0  0  0  0  0  0  0  0  0  0  0  0
  140.6490   75.6990  221.3840 C   0  0  0  0  0  0  0  0  0  0  0  0
  140.0750   76.1920  222.4260 O   0  0  0  0  0  0  0  0  0  0  0  0
  141.5320   76.5550  220.7160 N   0  0  0  0  0  0  0  0  0  0  0  0
  142.2670   76.0370  219.5090 C   0  0  0  0  0  0  0  0  0  0  0  0
  142.0300   77.1860  218.5450 C   0  0  2  0  0  0  0  0  0  0  0  0
  143.2200   77.4550  217.8990 O   0  0  0  0  0  0  0  0  0  0  0  0
  141.6180   78.3930  219.3970 C   0  0  2  0  0  0  0  0  0  0  0  0
  142.3640   79.5010  219.0440 O   0  0  0  0  0  0  0  0  0  0  0  0
  141.9810   77.8870  220.8020 C   0  0  1  0  0  0  0  0  0  0  0  0
  141.5770   78.7700  221.8610 C   0  0  0  0  0  0  0  0  0  0  0  0
  140.2100   79.0970  221.9660 C   0  0  0  0  0  0  0  0  0  0  0  0
  139.7580   79.9630  222.9390 C   0  0  0  0  0  0  0  0  0  0  0  0
  140.6080   80.5420  223.8410 C   0  0  0  0  0  0  0  0  0  0  0  0
  141.9210   80.2260  223.7360 N   0  0  0  0  0  0  0  0  0  0  0  0
  142.3820   79.3820  222.7950 C   0  0  0  0  0  0  0  0  0  0  0  0
  140.2630   71.4500  223.6090 C   0  0  0  0  0  0  0  0  0  0  0  0
  139.5570   70.2670  223.6100 C   0  0  0  0  0  0  0  0  0  0  0  0
  139.3180   69.5450  224.7690 C   0  0  0  0  0  0  0  0  0  0  0  0
  139.8030   70.0250  225.9790 C   0  0  0  0  0  0  0  0  0  0  0  0
  139.6140   69.3750  227.1740 C   0  0  0  0  0  0  0  0  0  0  0  0
  140.1400   69.9380  228.3380 C   0  0  0  0  0  0  0  0  0  0  0  0
  140.8370   71.1150  228.3060 C   0  0  0  0  0  0  0  0  0  0  0  0
  141.0210   71.7580  227.0990 C   0  0  0  0  0  0  0  0  0  0  0  0
  140.5000   71.2050  225.9390 C   0  0  0  0  0  0  0  0  0  0  0  0
  140.7190   71.8840  224.8010 N   0  0  0  0  0  0  0  0  0  0  0  0
  139.5560   73.9900  223.1190 H   0  0  0  0  0  0  0  0  0  0  0  0
  141.1070   73.8444  220.4960 H   0  0  0  0  0  0  0  0  0  0  0  0
  139.3692   74.3113  220.4536 H   0  0  0  0  0  0  0  0  0  0  0  0
  143.3376   75.8904  219.7145 H   0  0  0  0  0  0  0  0  0  0  0  0
  141.9325   75.0529  219.1491 H   0  0  0  0  0  0  0  0  0  0  0  0
  141.2559   76.9535  217.7989 H   0  0  0  0  0  0  0  0  0  0  0  0
  143.2310   78.3390  217.4540 H   0  0  0  0  0  0  0  0  0  0  0  0
  140.5693   78.7084  219.2934 H   0  0  0  0  0  0  0  0  0  0  0  0
  143.3230   79.2610  218.9680 H   0  0  0  0  0  0  0  0  0  0  0  0
  143.0389   77.8896  221.1034 H   0  0  0  0  0  0  0  0  0  0  0  0
  139.4920   78.6540  221.2601 H   0  0  0  0  0  0  0  0  0  0  0  0
  138.6840   80.1948  222.9914 H   0  0  0  0  0  0  0  0  0  0  0  0
  140.2423   81.2321  224.6156 H   0  0  0  0  0  0  0  0  0  0  0  0
  143.4610   79.1695  222.7707 H   0  0  0  0  0  0  0  0  0  0  0  0
  139.1686   69.8811  222.6559 H   0  0  0  0  0  0  0  0  0  0  0  0
  138.7510   68.6032  224.7310 H   0  0  0  0  0  0  0  0  0  0  0  0
  139.0576   68.4269  227.2132 H   0  0  0  0  0  0  0  0  0  0  0  0
  139.9912   69.4254  229.2998 H   0  0  0  0  0  0  0  0  0  0  0  0
  141.2463   71.5440  229.2325 H   0  0  0  0  0  0  0  0  0  0  0  0
  141.5786   72.7053  227.0572 H   0  0  0  0  0  0  0  0  0  0  0  0
  1  2  2  0
  2  3  1  0
  3  4  1  0
  4  5  1  0
  5  6  2  0
  5  7  1  0
  7  8  1  0
  8  9  1  0
  9 10  1  0
  9 11  1  0
 11 12  1  0
 11 13  1  0
 13 14  1  0
 14 15  2  0
 15 16  1  0
 16 17  2  0
 17 18  1  0
 18 19  2  0
  2 20  1  0
 20 21  2  0
 21 22  1  0
 22 23  2  0
 23 24  1  0
 24 25  2  0
 25 26  1  0
 26 27  2  0
 27 28  1  0
 28 29  2  0
 13  7  1  0
 19 14  1  0
 29 20  1  0
 28 23  1  0
  3 30  1  0
  4 31  1  0
  4 32  1  0
  8 33  1  0
  8 34  1  0
  9 35  1  6
 10 36  1  0
 11 37  1  1
 12 38  1  0
 13 39  1  6
 15 40  1  0
 16 41  1  0
 17 42  1  0
 19 43  1  0
 21 44  1  0
 22 45  1  0
 24 46  1  0
 25 47  1  0
 26 48  1  0
 27 49  1  0
M  END
>  <smiles>  (14) 
O=C(NCC(=O)N1C[C@H](O)[C@H](O)[C@H]1c1cccnc1)c1ccc2ccccc2n1

>  <score_type>  (14) 
oracle

>  <origin>  (14) 
autodockgpu

>  <m_score__min__energy>  (14) 
-8.8499999999999996

>  <m_primary>  (14) 
energy

>  <rmsd>  (14) 
2.3299680623382852

>  <m_score__min__rmsd>  (14) 
2.3299680623382852

>  <meeko>  (14) 
{"free_energy": -8.38, "intermolecular_energy": -10.47, "internal_energy": -2.99, "cluster_size": 31, "cluster_id": 1, "rank_in_cluster": 19}

>  <energy>  (14) 
-8.49

>  <cluster_rmsd>  (14) 
0.4

>  <cluster>  (14) 
1

$$$$

     RDKit          3D

 49 52  0  0  0  0  0  0  0  0999 V2000
  141.3560   71.9830  221.6970 O   0  0  0  0  0  0  0  0  0  0  0  0
  140.4090   72.2890  222.4530 C   0  0  0  0  0  0  0  0  0  0  0  0
  139.5260   73.3790  222.2280 N   0  0  0  0  0  0  0  0  0  0  0  0
  139.7420   74.2100  221.0140 C   0  0  0  0  0  0  0  0  0  0  0  0
  140.8530   75.1440  221.2380 C   0  0  0  0  0  0  0  0  0  0  0  0
  140.7460   75.8930  222.2800 O   0  0  0  0  0  0  0  0  0  0  0  0
  142.0100   75.3290  220.4740 N   0  0  0  0  0  0  0  0  0  0  0  0
  142.8940   74.1420  220.2010 C   0  0  0  0  0  0  0  0  0  0  0  0
  143.1060   74.3110  218.7070 C   0  0  2  0  0  0  0  0  0  0  0  0
  144.4420   74.0930  218.4360 O   0  0  0  0  0  0  0  0  0  0  0  0
  142.7410   75.7630  218.3750 C   0  0  2  0  0  0  0  0  0  0  0  0
  143.7420   76.3450  217.6210 O   0  0  0  0  0  0  0  0  0  0  0  0
  142.6680   76.3680  219.7860 C   0  0  1  0  0  0  0  0  0  0  0  0
  142.2020   77.7270  219.8140 C   0  0  0  0  0  0  0  0  0  0  0  0
  141.8480   78.2810  221.0600 C   0  0  0  0  0  0  0  0  0  0  0  0
  141.3630   79.5680  221.1550 C   0  0  0  0  0  0  0  0  0  0  0  0
  141.2030   80.3620  220.0520 C   0  0  0  0  0  0  0  0  0  0  0  0
  141.5440   79.8250  218.8560 N   0  0  0  0  0  0  0  0  0  0  0  0
  142.0190   78.5720  218.7430 C   0  0  0  0  0  0  0  0  0  0  0  0
  140.1850   71.4710  223.6610 C   0  0  0  0  0  0  0  0  0  0  0  0
  139.4790   70.2900  223.6100 C   0  0  0  0  0  0  0  0  0  0  0  0
  139.2590   69.5070  224.7330 C   0  0  0  0  0  0  0  0  0  0  0  0
  139.7640   69.9210  225.9580 C   0  0  0  0  0  0  0  0  0  0  0  0
  139.5930   69.2080  227.1200 C   0  0  0  0  0  0  0  0  0  0  0  0
  140.1390   69.7090  228.3040 C   0  0  0  0  0  0  0  0  0  0  0  0
  140.8360   70.8850  228.3230 C   0  0  0  0  0  0  0  0  0  0  0  0
  141.0010   71.5920  227.1490 C   0  0  0  0  0  0  0  0  0  0  0  0
  140.4610   71.1020  225.9700 C   0  0  0  0  0  0  0  0  0  0  0  0
  140.6610   71.8410  224.8670 N   0  0  0  0  0  0  0  0  0  0  0  0
  138.7450   73.5980  222.8890 H   0  0  0  0  0  0  0  0  0  0  0  0
  139.9814   73.5561  220.1624 H   0  0  0  0  0  0  0  0  0  0  0  0
  138.8268   74.7812  220.7989 H   0  0  0  0  0  0  0  0  0  0  0  0
  143.8411   74.2015  220.7573 H   0  0  0  0  0  0  0  0  0  0  0  0
  142.4736   73.1714  220.5030 H   0  0  0  0  0  0  0  0  0  0  0  0
  142.4963   73.6109  218.1169 H   0  0  0  0  0  0  0  0  0  0  0  0
  145.0090   74.8860  218.6030 H   0  0  0  0  0  0  0  0  0  0  0  0
  141.8227   75.8955  217.7840 H   0  0  0  0  0  0  0  0  0  0  0  0
  144.5270   75.7420  217.5670 H   0  0  0  0  0  0  0  0  0  0  0  0
  143.6090   76.6023  220.3052 H   0  0  0  0  0  0  0  0  0  0  0  0
  141.9605   77.6767  221.9722 H   0  0  0  0  0  0  0  0  0  0  0  0
  141.0973   79.9677  222.1448 H   0  0  0  0  0  0  0  0  0  0  0  0
  140.8156   81.3883  220.1328 H   0  0  0  0  0  0  0  0  0  0  0  0
  142.2754   78.2020  217.7393 H   0  0  0  0  0  0  0  0  0  0  0  0
  139.0748   69.9555  222.6432 H   0  0  0  0  0  0  0  0  0  0  0  0
  138.6908   68.5685  224.6541 H   0  0  0  0  0  0  0  0  0  0  0  0
  139.0360   68.2595  227.1179 H   0  0  0  0  0  0  0  0  0  0  0  0
  140.0056   69.1462  229.2397 H   0  0  0  0  0  0  0  0  0  0  0  0
  141.2609   71.2639  229.2642 H   0  0  0  0  0  0  0  0  0  0  0  0
  141.5586   72.5402  227.1490 H   0  0  0  0  0  0  0  0  0  0  0  0
  1  2  2  0
  2  3  1  0
  3  4  1  0
  4  5  1  0
  5  6  2  0
  5  7  1  0
  7  8  1  0
  8  9  1  0
  9 10  1  0
  9 11  1  0
 11 12  1  0
 11 13  1  0
 13 14  1  0
 14 15  2  0
 15 16  1  0
 16 17  2  0
 17 18  1  0
 18 19  2  0
  2 20  1  0
 20 21  2  0
 21 22  1  0
 22 23  2  0
 23 24  1  0
 24 25  2  0
 25 26  1  0
 26 27  2  0
 27 28  1  0
 28 29  2  0
 13  7  1  0
 19 14  1  0
 29 20  1  0
 28 23  1  0
  3 30  1  0
  4 31  1  0
  4 32  1  0
  8 33  1  0
  8 34  1  0
  9 35  1  6
 10 36  1  0
 11 37  1  6
 12 38  1  0
 13 39  1  1
 15 40  1  0
 16 41  1  0
 17 42  1  0
 19 43  1  0
 21 44  1  0
 22 45  1  0
 24 46  1  0
 25 47  1  0
 26 48  1  0
 27 49  1  0
M  END
>  <smiles>  (15) 
O=C(NCC(=O)N1C[C@H](O)[C@H](O)[C@H]1c1cccnc1)c1ccc2ccccc2n1

>  <score_type>  (15) 
oracle

>  <origin>  (15) 
autodockgpu

>  <m_score__min__energy>  (15) 
-8.8499999999999996

>  <m_primary>  (15) 
energy

>  <rmsd>  (15) 
2.1895080388444415

>  <m_score__min__rmsd>  (15) 
2.1895080388444415

>  <meeko>  (15) 
{"free_energy": -8.35, "intermolecular_energy": -10.44, "internal_energy": -2.64, "cluster_size": 31, "cluster_id": 1, "rank_in_cluster": 21}

>  <energy>  (15) 
-8.48

>  <cluster_rmsd>  (15) 
0.6

>  <cluster>  (15) 
1

$$$$

     RDKit          3D

 49 52  0  0  0  0  0  0  0  0999 V2000
  138.9240   75.2760  221.7740 O   0  0  0  0  0  0  0  0  0  0  0  0
  140.0820   75.7230  221.9240 C   0  0  0  0  0  0  0  0  0  0  0  0
  141.2660   74.9820  221.6650 N   0  0  0  0  0  0  0  0  0  0  0  0
  141.1190   73.5830  221.1840 C   0  0  0  0  0  0  0  0  0  0  0  0
  142.4380   73.0230  220.8650 C   0  0  0  0  0  0  0  0  0  0  0  0
  142.7060   71.8890  221.4140 O   0  0  0  0  0  0  0  0  0  0  0  0
  143.4420   73.5510  220.0450 N   0  0  0  0  0  0  0  0  0  0  0  0
  144.7480   72.8110  219.9340 C   0  0  0  0  0  0  0  0  0  0  0  0
  144.9250   72.8190  218.4260 C   0  0  2  0  0  0  0  0  0  0  0  0
  146.2400   73.1350  218.1500 O   0  0  0  0  0  0  0  0  0  0  0  0
  144.0030   73.9180  217.8820 C   0  0  2  0  0  0  0  0  0  0  0  0
  144.7000   74.7380  217.0160 O   0  0  0  0  0  0  0  0  0  0  0  0
  143.6350   74.6490  219.1840 C   0  0  1  0  0  0  0  0  0  0  0  0
  142.6470   75.6780  219.0140 C   0  0  0  0  0  0  0  0  0  0  0  0
  142.9450   76.9680  219.4930 C   0  0  0  0  0  0  0  0  0  0  0  0
  142.0290   77.9950  219.3910 C   0  0  0  0  0  0  0  0  0  0  0  0
  140.7980   77.8090  218.8250 C   0  0  0  0  0  0  0  0  0  0  0  0
  140.5150   76.5670  218.3660 N   0  0  0  0  0  0  0  0  0  0  0  0
  141.3940   75.5530  218.4550 C   0  0  0  0  0  0  0  0  0  0  0  0
  140.2390   77.1110  222.4010 C   0  0  0  0  0  0  0  0  0  0  0  0
  139.1500   77.8930  222.7150 C   0  0  0  0  0  0  0  0  0  0  0  0
  139.2760   79.1980  223.1650 C   0  0  0  0  0  0  0  0  0  0  0  0
  140.5430   79.7460  223.3060 C   0  0  0  0  0  0  0  0  0  0  0  0
  140.7610   81.0290  223.7450 C   0  0  0  0  0  0  0  0  0  0  0  0
  142.0750   81.4910  223.8540 C   0  0  0  0  0  0  0  0  0  0  0  0
  143.1370   80.6910  223.5340 C   0  0  0  0  0  0  0  0  0  0  0  0
  142.9060   79.4040  223.0950 C   0  0  0  0  0  0  0  0  0  0  0  0
  141.6040   78.9390  222.9830 C   0  0  0  0  0  0  0  0  0  0  0  0
  141.4530   77.6770  222.5500 N   0  0  0  0  0  0  0  0  0  0  0  0
  142.2150   75.3990  221.8050 H   0  0  0  0  0  0  0  0  0  0  0  0
  140.6449   72.9754  221.9689 H   0  0  0  0  0  0  0  0  0  0  0  0
  140.4937   73.5750  220.2790 H   0  0  0  0  0  0  0  0  0  0  0  0
  145.5642   73.3436  220.4441 H   0  0  0  0  0  0  0  0  0  0  0  0
  144.7573   71.8134  220.3974 H   0  0  0  0  0  0  0  0  0  0  0  0
  144.6818   71.8469  217.9724 H   0  0  0  0  0  0  0  0  0  0  0  0
  146.4200   74.1080  218.1690 H   0  0  0  0  0  0  0  0  0  0  0  0
  143.1348   73.5646  217.3064 H   0  0  0  0  0  0  0  0  0  0  0  0
  145.5460   75.0420  217.4340 H   0  0  0  0  0  0  0  0  0  0  0  0
  144.3747   75.3295  219.6309 H   0  0  0  0  0  0  0  0  0  0  0  0
  143.9241   77.1603  219.9561 H   0  0  0  0  0  0  0  0  0  0  0  0
  142.2962   78.9904  219.7754 H   0  0  0  0  0  0  0  0  0  0  0  0
  140.0711   78.6308  218.7462 H   0  0  0  0  0  0  0  0  0  0  0  0
  141.0963   74.5705  218.0600 H   0  0  0  0  0  0  0  0  0  0  0  0
  138.1422   77.4661  222.6046 H   0  0  0  0  0  0  0  0  0  0  0  0
  138.3824   79.7920  223.4074 H   0  0  0  0  0  0  0  0  0  0  0  0
  139.9152   81.6819  224.0064 H   0  0  0  0  0  0  0  0  0  0  0  0
  142.2588   82.5176  224.2038 H   0  0  0  0  0  0  0  0  0  0  0  0
  144.1655   81.0702  223.6258 H   0  0  0  0  0  0  0  0  0  0  0  0
  143.7507   78.7492  222.8348 H   0  0  0  0  0  0  0  0  0  0  0  0
  1  2  2  0
  2  3  1  0
  3  4  1  0
  4  5  1  0
  5  6  2  0
  5  7  1  0
  7  8  1  0
  8  9  1  0
  9 10  1  0
  9 11  1  0
 11 12  1  0
 11 13  1  0
 13 14  1  0
 14 15  2  0
 15 16  1  0
 16 17  2  0
 17 18  1  0
 18 19  2  0
  2 20  1  0
 20 21  2  0
 21 22  1  0
 22 23  2  0
 23 24  1  0
 24 25  2  0
 25 26  1  0
 26 27  2  0
 27 28  1  0
 28 29  2  0
 13  7  1  0
 19 14  1  0
 29 20  1  0
 28 23  1  0
  3 30  1  0
  4 31  1  0
  4 32  1  0
  8 33  1  0
  8 34  1  0
  9 35  1  6
 10 36  1  0
 11 37  1  6
 12 38  1  0
 13 39  1  1
 15 40  1  0
 16 41  1  0
 17 42  1  0
 19 43  1  0
 21 44  1  0
 22 45  1  0
 24 46  1  0
 25 47  1  0
 26 48  1  0
 27 49  1  0
M  END
>  <smiles>  (16) 
O=C(NCC(=O)N1C[C@H](O)[C@H](O)[C@H]1c1cccnc1)c1ccc2ccccc2n1

>  <score_type>  (16) 
oracle

>  <origin>  (16) 
autodockgpu

>  <m_score__min__energy>  (16) 
-8.8499999999999996

>  <m_primary>  (16) 
energy

>  <rmsd>  (16) 
7.606097909003521

>  <m_score__min__rmsd>  (16) 
7.606097909003521

>  <meeko>  (16) 
{"free_energy": -7.78, "intermolecular_energy": -9.87, "internal_energy": -3.75, "cluster_size": 17, "cluster_id": 2, "rank_in_cluster": 8}

>  <energy>  (16) 
-8.46

>  <cluster_rmsd>  (16) 
0.4

>  <cluster>  (16) 
1

$$$$

     RDKit          3D

 49 52  0  0  0  0  0  0  0  0999 V2000
  141.1170   71.6090  221.4230 O   0  0  0  0  0  0  0  0  0  0  0  0
  140.5210   72.1940  222.3530 C   0  0  0  0  0  0  0  0  0  0  0  0
  140.0690   73.5400  222.2920 N   0  0  0  0  0  0  0  0  0  0  0  0
  140.3210   74.3020  221.0410 C   0  0  0  0  0  0  0  0  0  0  0  0
  140.6810   75.6890  221.3620 C   0  0  0  0  0  0  0  0  0  0  0  0
  140.1140   76.1800  222.4100 O   0  0  0  0  0  0  0  0  0  0  0  0
  141.5560   76.5470  220.6880 N   0  0  0  0  0  0  0  0  0  0  0  0
  142.2820   76.0310  219.4740 C   0  0  0  0  0  0  0  0  0  0  0  0
  142.0340   77.1800  218.5130 C   0  0  2  0  0  0  0  0  0  0  0  0
  143.2170   77.4530  217.8570 O   0  0  0  0  0  0  0  0  0  0  0  0
  141.6240   78.3860  219.3670 C   0  0  2  0  0  0  0  0  0  0  0  0
  142.3640   79.4960  219.0090 O   0  0  0  0  0  0  0  0  0  0  0  0
  142.0010   77.8810  220.7700 C   0  0  1  0  0  0  0  0  0  0  0  0
  141.6020   78.7620  221.8320 C   0  0  0  0  0  0  0  0  0  0  0  0
  140.2360   79.0860  221.9480 C   0  0  0  0  0  0  0  0  0  0  0  0
  139.7890   79.9510  222.9240 C   0  0  0  0  0  0  0  0  0  0  0  0
  140.6440   80.5320  223.8190 C   0  0  0  0  0  0  0  0  0  0  0  0
  141.9570   80.2190  223.7050 N   0  0  0  0  0  0  0  0  0  0  0  0
  142.4130   79.3770  222.7600 C   0  0  0  0  0  0  0  0  0  0  0  0
  140.2660   71.4470  223.6010 C   0  0  0  0  0  0  0  0  0  0  0  0
  139.5580   70.2660  223.6010 C   0  0  0  0  0  0  0  0  0  0  0  0
  139.3070   69.5500  224.7600 C   0  0  0  0  0  0  0  0  0  0  0  0
  139.7840   70.0330  225.9720 C   0  0  0  0  0  0  0  0  0  0  0  0
  139.5830   69.3890  227.1680 C   0  0  0  0  0  0  0  0  0  0  0  0
  140.1010   69.9550  228.3340 C   0  0  0  0  0  0  0  0  0  0  0  0
  140.8010   71.1300  228.3030 C   0  0  0  0  0  0  0  0  0  0  0  0
  140.9960   71.7680  227.0950 C   0  0  0  0  0  0  0  0  0  0  0  0
  140.4830   71.2110  225.9330 C   0  0  0  0  0  0  0  0  0  0  0  0
  140.7130   71.8860  224.7940 N   0  0  0  0  0  0  0  0  0  0  0  0
  139.5740   73.9890  223.0960 H   0  0  0  0  0  0  0  0  0  0  0  0
  141.1460   73.8303  220.4870 H   0  0  0  0  0  0  0  0  0  0  0  0
  139.4089   74.2986  220.4261 H   0  0  0  0  0  0  0  0  0  0  0  0
  143.3547   75.8867  219.6701 H   0  0  0  0  0  0  0  0  0  0  0  0
  141.9467   75.0463  219.1164 H   0  0  0  0  0  0  0  0  0  0  0  0
  141.2544   76.9446  217.7736 H   0  0  0  0  0  0  0  0  0  0  0  0
  143.2240   78.3390  217.4160 H   0  0  0  0  0  0  0  0  0  0  0  0
  140.5735   78.6978  219.2707 H   0  0  0  0  0  0  0  0  0  0  0  0
  143.3280   79.2700  218.9710 H   0  0  0  0  0  0  0  0  0  0  0  0
  143.0615   77.8877  221.0621 H   0  0  0  0  0  0  0  0  0  0  0  0
  139.5136   78.6412  221.2478 H   0  0  0  0  0  0  0  0  0  0  0  0
  138.7148   80.1801  222.9844 H   0  0  0  0  0  0  0  0  0  0  0  0
  140.2823   81.2218  224.5958 H   0  0  0  0  0  0  0  0  0  0  0  0
  143.4925   79.1683  222.7266 H   0  0  0  0  0  0  0  0  0  0  0  0
  139.1776   69.8766  222.6451 H   0  0  0  0  0  0  0  0  0  0  0  0
  138.7368   68.6102  224.7211 H   0  0  0  0  0  0  0  0  0  0  0  0
  139.0231   68.4429  227.2065 H   0  0  0  0  0  0  0  0  0  0  0  0
  139.9433   69.4464  229.2965 H   0  0  0  0  0  0  0  0  0  0  0  0
  141.2041   71.5616  229.2310 H   0  0  0  0  0  0  0  0  0  0  0  0
  141.5558   72.7140  227.0539 H   0  0  0  0  0  0  0  0  0  0  0  0
  1  2  2  0
  2  3  1  0
  3  4  1  0
  4  5  1  0
  5  6  2  0
  5  7  1  0
  7  8  1  0
  8  9  1  0
  9 10  1  0
  9 11  1  0
 11 12  1  0
 11 13  1  0
 13 14  1  0
 14 15  2  0
 15 16  1  0
 16 17  2  0
 17 18  1  0
 18 19  2  0
  2 20  1  0
 20 21  2  0
 21 22  1  0
 22 23  2  0
 23 24  1  0
 24 25  2  0
 25 26  1  0
 26 27  2  0
 27 28  1  0
 28 29  2  0
 13  7  1  0
 19 14  1  0
 29 20  1  0
 28 23  1  0
  3 30  1  0
  4 31  1  0
  4 32  1  0
  8 33  1  0
  8 34  1  0
  9 35  1  6
 10 36  1  0
 11 37  1  1
 12 38  1  0
 13 39  1  6
 15 40  1  0
 16 41  1  0
 17 42  1  0
 19 43  1  0
 21 44  1  0
 22 45  1  0
 24 46  1  0
 25 47  1  0
 26 48  1  0
 27 49  1  0
M  END
>  <smiles>  (17) 
O=C(NCC(=O)N1C[C@H](O)[C@H](O)[C@H]1c1cccnc1)c1ccc2ccccc2n1

>  <score_type>  (17) 
oracle

>  <origin>  (17) 
autodockgpu

>  <m_score__min__energy>  (17) 
-8.8499999999999996

>  <m_primary>  (17) 
energy

>  <rmsd>  (17) 
2.3316487627610534

>  <m_score__min__rmsd>  (17) 
2.3316487627610534

>  <meeko>  (17) 
{"free_energy": -8.38, "intermolecular_energy": -10.47, "internal_energy": -3.01, "cluster_size": 31, "cluster_id": 1, "rank_in_cluster": 18}

>  <energy>  (17) 
-8.39

>  <cluster_rmsd>  (17) 
0.44

>  <cluster>  (17) 
1

$$$$

     RDKit          3D

 49 52  0  0  0  0  0  0  0  0999 V2000
  140.8270   71.6120  221.2460 O   0  0  0  0  0  0  0  0  0  0  0  0
  140.3360   72.1420  222.2650 C   0  0  0  0  0  0  0  0  0  0  0  0
  139.9460   73.5060  222.3480 N   0  0  0  0  0  0  0  0  0  0  0  0
  140.1340   74.3570  221.1440 C   0  0  0  0  0  0  0  0  0  0  0  0
  140.6080   75.6890  221.5410 C   0  0  0  0  0  0  0  0  0  0  0  0
  140.1490   76.1300  222.6610 O   0  0  0  0  0  0  0  0  0  0  0  0
  141.4910   76.5430  220.8700 N   0  0  0  0  0  0  0  0  0  0  0  0
  142.2880   75.9960  219.7170 C   0  0  0  0  0  0  0  0  0  0  0  0
  142.0550   77.0930  218.6940 C   0  0  2  0  0  0  0  0  0  0  0  0
  143.2610   77.3720  218.0820 O   0  0  0  0  0  0  0  0  0  0  0  0
  141.5720   78.3230  219.4730 C   0  0  2  0  0  0  0  0  0  0  0  0
  142.2980   79.4380  219.1000 O   0  0  0  0  0  0  0  0  0  0  0  0
  141.8950   77.8910  220.9130 C   0  0  1  0  0  0  0  0  0  0  0  0
  141.4220   78.8060  221.9150 C   0  0  0  0  0  0  0  0  0  0  0  0
  140.0430   79.0930  221.9530 C   0  0  0  0  0  0  0  0  0  0  0  0
  139.5270   79.9860  222.8680 C   0  0  0  0  0  0  0  0  0  0  0  0
  140.3220   80.6320  223.7730 C   0  0  0  0  0  0  0  0  0  0  0  0
  141.6470   80.3540  223.7340 N   0  0  0  0  0  0  0  0  0  0  0  0
  142.1700   79.4850  222.8500 C   0  0  0  0  0  0  0  0  0  0  0  0
  140.1440   71.3060  223.4660 C   0  0  0  0  0  0  0  0  0  0  0  0
  139.5690   70.0570  223.3910 C   0  0  0  0  0  0  0  0  0  0  0  0
  139.3810   69.2570  224.5060 C   0  0  0  0  0  0  0  0  0  0  0  0
  139.7840   69.7220  225.7500 C   0  0  0  0  0  0  0  0  0  0  0  0
  139.6360   68.9970  226.9070 C   0  0  0  0  0  0  0  0  0  0  0  0
  140.0730   69.5530  228.1120 C   0  0  0  0  0  0  0  0  0  0  0  0
  140.6410   70.7960  228.1560 C   0  0  0  0  0  0  0  0  0  0  0  0
  140.7840   71.5150  226.9870 C   0  0  0  0  0  0  0  0  0  0  0  0
  140.3520   70.9700  225.7870 C   0  0  0  0  0  0  0  0  0  0  0  0
  140.5230   71.7260  224.6900 N   0  0  0  0  0  0  0  0  0  0  0  0
  139.5380   73.9070  223.2230 H   0  0  0  0  0  0  0  0  0  0  0  0
  140.8753   73.8894  220.4793 H   0  0  0  0  0  0  0  0  0  0  0  0
  139.1730   74.4570  220.6182 H   0  0  0  0  0  0  0  0  0  0  0  0
  143.3536   75.8925  219.9695 H   0  0  0  0  0  0  0  0  0  0  0  0
  141.9976   74.9868  219.3895 H   0  0  0  0  0  0  0  0  0  0  0  0
  141.3187   76.8022  217.9302 H   0  0  0  0  0  0  0  0  0  0  0  0
  143.8340   77.9830  218.6100 H   0  0  0  0  0  0  0  0  0  0  0  0
  140.5193   78.5995  219.3140 H   0  0  0  0  0  0  0  0  0  0  0  0
  143.2640   79.2190  219.0490 H   0  0  0  0  0  0  0  0  0  0  0  0
  142.9396   77.9413  221.2540 H   0  0  0  0  0  0  0  0  0  0  0  0
  139.3672   78.5965  221.2411 H   0  0  0  0  0  0  0  0  0  0  0  0
  138.4450   80.1842  222.8698 H   0  0  0  0  0  0  0  0  0  0  0  0
  139.9049   81.3449  224.4995 H   0  0  0  0  0  0  0  0  0  0  0  0
  143.2552   79.3073  222.8759 H   0  0  0  0  0  0  0  0  0  0  0  0
  139.2469   69.6805  222.4089 H   0  0  0  0  0  0  0  0  0  0  0  0
  138.9175   68.2644  224.4066 H   0  0  0  0  0  0  0  0  0  0  0  0
  139.1812   67.9957  226.8854 H   0  0  0  0  0  0  0  0  0  0  0  0
  139.9578   68.9795  229.0436 H   0  0  0  0  0  0  0  0  0  0  0  0
  140.9804   71.2184  229.1133 H   0  0  0  0  0  0  0  0  0  0  0  0
  141.2388   72.5164  227.0067 H   0  0  0  0  0  0  0  0  0  0  0  0
  1  2  2  0
  2  3  1  0
  3  4  1  0
  4  5  1  0
  5  6  2  0
  5  7  1  0
  7  8  1  0
  8  9  1  0
  9 10  1  0
  9 11  1  0
 11 12  1  0
 11 13  1  0
 13 14  1  0
 14 15  2  0
 15 16  1  0
 16 17  2  0
 17 18  1  0
 18 19  2  0
  2 20  1  0
 20 21  2  0
 21 22  1  0
 22 23  2  0
 23 24  1  0
 24 25  2  0
 25 26  1  0
 26 27  2  0
 27 28  1  0
 28 29  2  0
 13  7  1  0
 19 14  1  0
 29 20  1  0
 28 23  1  0
  3 30  1  0
  4 31  1  0
  4 32  1  0
  8 33  1  0
  8 34  1  0
  9 35  1  6
 10 36  1  0
 11 37  1  1
 12 38  1  0
 13 39  1  6
 15 40  1  0
 16 41  1  0
 17 42  1  0
 19 43  1  0
 21 44  1  0
 22 45  1  0
 24 46  1  0
 25 47  1  0
 26 48  1  0
 27 49  1  0
M  END
>  <smiles>  (18) 
O=C(NCC(=O)N1C[C@H](O)[C@H](O)[C@H]1c1cccnc1)c1ccc2ccccc2n1

>  <score_type>  (18) 
oracle

>  <origin>  (18) 
autodockgpu

>  <m_score__min__energy>  (18) 
-8.8499999999999996

>  <m_primary>  (18) 
energy

>  <rmsd>  (18) 
2.2650010018680855

>  <m_score__min__rmsd>  (18) 
2.2650010018680855

>  <meeko>  (18) 
{"free_energy": -8.34, "intermolecular_energy": -10.43, "internal_energy": -2.95, "cluster_size": 31, "cluster_id": 1, "rank_in_cluster": 22}

>  <energy>  (18) 
-8.38

>  <cluster_rmsd>  (18) 
0.68

>  <cluster>  (18) 
1

$$$$

     RDKit          3D

 49 52  0  0  0  0  0  0  0  0999 V2000
  141.4480   72.2450  221.6020 O   0  0  0  0  0  0  0  0  0  0  0  0
  140.4860   72.4950  222.3600 C   0  0  0  0  0  0  0  0  0  0  0  0
  139.6040   73.5960  222.1980 N   0  0  0  0  0  0  0  0  0  0  0  0
  139.8390   74.5120  221.0520 C   0  0  0  0  0  0  0  0  0  0  0  0
  140.5730   75.7020  221.5030 C   0  0  0  0  0  0  0  0  0  0  0  0
  140.3490   76.0620  222.7190 O   0  0  0  0  0  0  0  0  0  0  0  0
  141.4820   76.4940  220.7930 N   0  0  0  0  0  0  0  0  0  0  0  0
  142.2260   75.8810  219.6370 C   0  0  0  0  0  0  0  0  0  0  0  0
  142.0260   76.9640  218.5930 C   0  0  2  0  0  0  0  0  0  0  0  0
  143.2300   77.1680  217.9500 O   0  0  0  0  0  0  0  0  0  0  0  0
  141.6220   78.2350  219.3520 C   0  0  2  0  0  0  0  0  0  0  0  0
  142.3940   79.3030  218.9360 O   0  0  0  0  0  0  0  0  0  0  0  0
  141.9540   77.8210  220.7950 C   0  0  1  0  0  0  0  0  0  0  0  0
  141.5490   78.7820  221.7830 C   0  0  0  0  0  0  0  0  0  0  0  0
  142.5510   79.4020  222.5550 C   0  0  0  0  0  0  0  0  0  0  0  0
  142.2310   80.3090  223.5420 C   0  0  0  0  0  0  0  0  0  0  0  0
  140.9350   80.6470  223.8180 C   0  0  0  0  0  0  0  0  0  0  0  0
  139.9730   80.0490  223.0740 N   0  0  0  0  0  0  0  0  0  0  0  0
  140.2660   79.1620  222.1060 C   0  0  0  0  0  0  0  0  0  0  0  0
  140.2430   71.5910  223.5020 C   0  0  0  0  0  0  0  0  0  0  0  0
  139.5270   70.4240  223.3570 C   0  0  0  0  0  0  0  0  0  0  0  0
  139.2890   69.5620  224.4160 C   0  0  0  0  0  0  0  0  0  0  0  0
  139.7850   69.8790  225.6730 C   0  0  0  0  0  0  0  0  0  0  0  0
  139.5970   69.0840  226.7770 C   0  0  0  0  0  0  0  0  0  0  0  0
  140.1350   69.4900  228.0000 C   0  0  0  0  0  0  0  0  0  0  0  0
  140.8420   70.6550  228.1130 C   0  0  0  0  0  0  0  0  0  0  0  0
  141.0250   71.4450  226.9970 C   0  0  0  0  0  0  0  0  0  0  0  0
  140.4920   71.0490  225.7800 C   0  0  0  0  0  0  0  0  0  0  0  0
  140.7100   71.8660  224.7360 N   0  0  0  0  0  0  0  0  0  0  0  0
  138.8110   73.7650  222.8590 H   0  0  0  0  0  0  0  0  0  0  0  0
  140.4279   73.9902  220.2833 H   0  0  0  0  0  0  0  0  0  0  0  0
  138.8705   74.8222  220.6328 H   0  0  0  0  0  0  0  0  0  0  0  0
  143.2903   75.7300  219.8702 H   0  0  0  0  0  0  0  0  0  0  0  0
  141.8786   74.8805  219.3399 H   0  0  0  0  0  0  0  0  0  0  0  0
  141.2598   76.6926  217.8519 H   0  0  0  0  0  0  0  0  0  0  0  0
  143.2720   78.0270  217.4620 H   0  0  0  0  0  0  0  0  0  0  0  0
  140.5811   78.5606  219.2087 H   0  0  0  0  0  0  0  0  0  0  0  0
  143.3550   79.0610  218.9540 H   0  0  0  0  0  0  0  0  0  0  0  0
  143.0068   77.8260  221.1138 H   0  0  0  0  0  0  0  0  0  0  0  0
  143.6070   79.1580  222.3668 H   0  0  0  0  0  0  0  0  0  0  0  0
  143.0405   80.7739  224.1239 H   0  0  0  0  0  0  0  0  0  0  0  0
  140.6849   81.3709  224.6075 H   0  0  0  0  0  0  0  0  0  0  0  0
  139.4342   78.7156  221.5413 H   0  0  0  0  0  0  0  0  0  0  0  0
  139.1292   70.1663  222.3643 H   0  0  0  0  0  0  0  0  0  0  0  0
  138.7136   68.6372  224.2620 H   0  0  0  0  0  0  0  0  0  0  0  0
  139.0322   68.1433  226.6992 H   0  0  0  0  0  0  0  0  0  0  0  0
  139.9872   68.8604  228.8898 H   0  0  0  0  0  0  0  0  0  0  0  0
  141.2605   70.9591  229.0838 H   0  0  0  0  0  0  0  0  0  0  0  0
  141.5913   72.3850  227.0724 H   0  0  0  0  0  0  0  0  0  0  0  0
  1  2  2  0
  2  3  1  0
  3  4  1  0
  4  5  1  0
  5  6  2  0
  5  7  1  0
  7  8  1  0
  8  9  1  0
  9 10  1  0
  9 11  1  0
 11 12  1  0
 11 13  1  0
 13 14  1  0
 14 15  2  0
 15 16  1  0
 16 17  2  0
 17 18  1  0
 18 19  2  0
  2 20  1  0
 20 21  2  0
 21 22  1  0
 22 23  2  0
 23 24  1  0
 24 25  2  0
 25 26  1  0
 26 27  2  0
 27 28  1  0
 28 29  2  0
 13  7  1  0
 19 14  1  0
 29 20  1  0
 28 23  1  0
  3 30  1  0
  4 31  1  0
  4 32  1  0
  8 33  1  0
  8 34  1  0
  9 35  1  6
 10 36  1  0
 11 37  1  1
 12 38  1  0
 13 39  1  6
 15 40  1  0
 16 41  1  0
 17 42  1  0
 19 43  1  0
 21 44  1  0
 22 45  1  0
 24 46  1  0
 25 47  1  0
 26 48  1  0
 27 49  1  0
M  END
>  <smiles>  (19) 
O=C(NCC(=O)N1C[C@H](O)[C@H](O)[C@H]1c1cccnc1)c1ccc2ccccc2n1

>  <score_type>  (19) 
oracle

>  <origin>  (19) 
autodockgpu

>  <m_score__min__energy>  (19) 
-8.8499999999999996

>  <m_primary>  (19) 
energy

>  <rmsd>  (19) 
2.2351619006499597

>  <m_score__min__rmsd>  (19) 
2.2351619006499597

>  <meeko>  (19) 
{"free_energy": -8.52, "intermolecular_energy": -10.61, "internal_energy": -2.72, "cluster_size": 31, "cluster_id": 1, "rank_in_cluster": 11}

>  <energy>  (19) 
-8.38

>  <cluster_rmsd>  (19) 
0.67

>  <cluster>  (19) 
1

$$$$

     RDKit          3D

 49 52  0  0  0  0  0  0  0  0999 V2000
  141.4170   72.0620  221.6780 O   0  0  0  0  0  0  0  0  0  0  0  0
  140.5060   72.3830  222.4700 C   0  0  0  0  0  0  0  0  0  0  0  0
  139.6850   73.5340  222.3220 N   0  0  0  0  0  0  0  0  0  0  0  0
  139.9260   74.4120  221.1480 C   0  0  0  0  0  0  0  0  0  0  0  0
  140.4750   75.7010  221.5900 C   0  0  0  0  0  0  0  0  0  0  0  0
  140.0430   76.1260  222.7270 O   0  0  0  0  0  0  0  0  0  0  0  0
  141.4020   76.5280  220.9460 N   0  0  0  0  0  0  0  0  0  0  0  0
  142.2310   75.9510  219.8300 C   0  0  0  0  0  0  0  0  0  0  0  0
  142.0630   77.0430  218.7880 C   0  0  2  0  0  0  0  0  0  0  0  0
  143.2970   77.2890  218.2220 O   0  0  0  0  0  0  0  0  0  0  0  0
  141.5780   78.2910  219.5360 C   0  0  2  0  0  0  0  0  0  0  0  0
  142.3430   79.3860  219.1810 O   0  0  0  0  0  0  0  0  0  0  0  0
  141.8340   77.8670  220.9920 C   0  0  1  0  0  0  0  0  0  0  0  0
  141.3430   78.8030  221.9650 C   0  0  0  0  0  0  0  0  0  0  0  0
  139.9640   79.0860  221.9750 C   0  0  0  0  0  0  0  0  0  0  0  0
  139.4300   79.9980  222.8620 C   0  0  0  0  0  0  0  0  0  0  0  0
  140.2100   80.6660  223.7660 C   0  0  0  0  0  0  0  0  0  0  0  0
  141.5360   80.3910  223.7530 N   0  0  0  0  0  0  0  0  0  0  0  0
  142.0750   79.5040  222.8970 C   0  0  0  0  0  0  0  0  0  0  0  0
  140.2580   71.5170  223.6400 C   0  0  0  0  0  0  0  0  0  0  0  0
  139.5880   70.3200  223.5210 C   0  0  0  0  0  0  0  0  0  0  0  0
  139.3460   69.4930  224.6070 C   0  0  0  0  0  0  0  0  0  0  0  0
  139.7900   69.8780  225.8640 C   0  0  0  0  0  0  0  0  0  0  0  0
  139.5940   69.1210  226.9940 C   0  0  0  0  0  0  0  0  0  0  0  0
  140.0790   69.5940  228.2150 C   0  0  0  0  0  0  0  0  0  0  0  0
  140.7410   70.7880  228.3020 C   0  0  0  0  0  0  0  0  0  0  0  0
  140.9320   71.5390  227.1610 C   0  0  0  0  0  0  0  0  0  0  0  0
  140.4520   71.0760  225.9440 C   0  0  0  0  0  0  0  0  0  0  0  0
  140.6750   71.8590  224.8760 N   0  0  0  0  0  0  0  0  0  0  0  0
  138.9340   73.7630  223.0110 H   0  0  0  0  0  0  0  0  0  0  0  0
  140.6414   73.9247  220.4692 H   0  0  0  0  0  0  0  0  0  0  0  0
  138.9741   74.5849  220.6245 H   0  0  0  0  0  0  0  0  0  0  0  0
  143.2833   75.8262  220.1251 H   0  0  0  0  0  0  0  0  0  0  0  0
  141.9307   74.9452  219.5009 H   0  0  0  0  0  0  0  0  0  0  0  0
  141.3509   76.7608  217.9985 H   0  0  0  0  0  0  0  0  0  0  0  0
  143.8670   77.8820  218.7710 H   0  0  0  0  0  0  0  0  0  0  0  0
  140.5387   78.5890  219.3332 H   0  0  0  0  0  0  0  0  0  0  0  0
  143.2980   79.1300  219.1100 H   0  0  0  0  0  0  0  0  0  0  0  0
  142.8650   77.8973  221.3742 H   0  0  0  0  0  0  0  0  0  0  0  0
  139.3012   78.5714  221.2638 H   0  0  0  0  0  0  0  0  0  0  0  0
  138.3477   80.1933  222.8418 H   0  0  0  0  0  0  0  0  0  0  0  0
  139.7800   81.3929  224.4708 H   0  0  0  0  0  0  0  0  0  0  0  0
  143.1600   79.3292  222.9443 H   0  0  0  0  0  0  0  0  0  0  0  0
  139.2318   70.0086  222.5280 H   0  0  0  0  0  0  0  0  0  0  0  0
  138.8083   68.5427  224.4738 H   0  0  0  0  0  0  0  0  0  0  0  0
  139.0640   68.1587  226.9376 H   0  0  0  0  0  0  0  0  0  0  0  0
  139.9258   68.9948  229.1247 H   0  0  0  0  0  0  0  0  0  0  0  0
  141.1171   71.1455  229.2719 H   0  0  0  0  0  0  0  0  0  0  0  0
  141.4627   72.5010  227.2154 H   0  0  0  0  0  0  0  0  0  0  0  0
  1  2  2  0
  2  3  1  0
  3  4  1  0
  4  5  1  0
  5  6  2  0
  5  7  1  0
  7  8  1  0
  8  9  1  0
  9 10  1  0
  9 11  1  0
 11 12  1  0
 11 13  1  0
 13 14  1  0
 14 15  2  0
 15 16  1  0
 16 17  2  0
 17 18  1  0
 18 19  2  0
  2 20  1  0
 20 21  2  0
 21 22  1  0
 22 23  2  0
 23 24  1  0
 24 25  2  0
 25 26  1  0
 26 27  2  0
 27 28  1  0
 28 29  2  0
 13  7  1  0
 19 14  1  0
 29 20  1  0
 28 23  1  0
  3 30  1  0
  4 31  1  0
  4 32  1  0
  8 33  1  0
  8 34  1  0
  9 35  1  6
 10 36  1  0
 11 37  1  1
 12 38  1  0
 13 39  1  6
 15 40  1  0
 16 41  1  0
 17 42  1  0
 19 43  1  0
 21 44  1  0
 22 45  1  0
 24 46  1  0
 25 47  1  0
 26 48  1  0
 27 49  1  0
M  END
>  <smiles>  (20) 
O=C(NCC(=O)N1C[C@H](O)[C@H](O)[C@H]1c1cccnc1)c1ccc2ccccc2n1

>  <score_type>  (20) 
oracle

>  <origin>  (20) 
autodockgpu

>  <m_score__min__energy>  (20) 
-8.8499999999999996

>  <m_primary>  (20) 
energy

>  <rmsd>  (20) 
2.3034346734578928

>  <m_score__min__rmsd>  (20) 
2.3034346734578928

>  <meeko>  (20) 
{"free_energy": -8.63, "intermolecular_energy": -10.72, "internal_energy": -2.68, "cluster_size": 31, "cluster_id": 1, "rank_in_cluster": 4}

>  <energy>  (20) 
-8.37

>  <cluster_rmsd>  (20) 
0.75

>  <cluster>  (20) 
1

$$$$

     RDKit          3D

 49 52  0  0  0  0  0  0  0  0999 V2000
  141.1040   71.6680  221.4160 O   0  0  0  0  0  0  0  0  0  0  0  0
  140.5040   72.2260  222.3600 C   0  0  0  0  0  0  0  0  0  0  0  0
  140.0310   73.5660  222.3270 N   0  0  0  0  0  0  0  0  0  0  0  0
  140.2660   74.3560  221.0900 C   0  0  0  0  0  0  0  0  0  0  0  0
  140.7340   75.7030  221.4370 C   0  0  0  0  0  0  0  0  0  0  0  0
  140.2900   76.1740  222.5510 O   0  0  0  0  0  0  0  0  0  0  0  0
  141.5970   76.5440  220.7250 N   0  0  0  0  0  0  0  0  0  0  0  0
  142.3510   75.9780  219.5520 C   0  0  0  0  0  0  0  0  0  0  0  0
  142.0880   77.0630  218.5230 C   0  0  2  0  0  0  0  0  0  0  0  0
  143.2730   77.3280  217.8670 O   0  0  0  0  0  0  0  0  0  0  0  0
  141.6380   78.3060  219.3030 C   0  0  2  0  0  0  0  0  0  0  0  0
  142.3560   79.4120  218.8900 O   0  0  0  0  0  0  0  0  0  0  0  0
  142.0090   77.8910  220.7360 C   0  0  1  0  0  0  0  0  0  0  0  0
  141.5750   78.8210  221.7420 C   0  0  0  0  0  0  0  0  0  0  0  0
  142.5560   79.4240  222.5540 C   0  0  0  0  0  0  0  0  0  0  0  0
  142.2070   80.3010  223.5590 C   0  0  0  0  0  0  0  0  0  0  0  0
  140.9030   80.6250  223.8130 C   0  0  0  0  0  0  0  0  0  0  0  0
  139.9630   80.0430  223.0300 N   0  0  0  0  0  0  0  0  0  0  0  0
  140.2830   79.1850  222.0450 C   0  0  0  0  0  0  0  0  0  0  0  0
  140.2650   71.4510  223.5930 C   0  0  0  0  0  0  0  0  0  0  0  0
  139.5820   70.2550  223.5710 C   0  0  0  0  0  0  0  0  0  0  0  0
  139.3480   69.5120  224.7180 C   0  0  0  0  0  0  0  0  0  0  0  0
  139.8140   69.9830  225.9380 C   0  0  0  0  0  0  0  0  0  0  0  0
  139.6270   69.3120  227.1220 C   0  0  0  0  0  0  0  0  0  0  0  0
  140.1340   69.8690  228.2980 C   0  0  0  0  0  0  0  0  0  0  0  0
  140.8080   71.0590  228.2890 C   0  0  0  0  0  0  0  0  0  0  0  0
  140.9890   71.7230  227.0930 C   0  0  0  0  0  0  0  0  0  0  0  0
  140.4880   71.1770  225.9210 C   0  0  0  0  0  0  0  0  0  0  0  0
  140.7030   71.8770  224.7950 N   0  0  0  0  0  0  0  0  0  0  0  0
  139.5330   73.9910  223.1420 H   0  0  0  0  0  0  0  0  0  0  0  0
  141.0270   73.8529  220.4753 H   0  0  0  0  0  0  0  0  0  0  0  0
  139.3243   74.4344  220.5269 H   0  0  0  0  0  0  0  0  0  0  0  0
  143.4242   75.8722  219.7689 H   0  0  0  0  0  0  0  0  0  0  0  0
  142.0444   74.9663  219.2480 H   0  0  0  0  0  0  0  0  0  0  0  0
  141.3247   76.7662  217.7887 H   0  0  0  0  0  0  0  0  0  0  0  0
  143.2660   78.1910  217.3830 H   0  0  0  0  0  0  0  0  0  0  0  0
  140.5816   78.5859  219.1776 H   0  0  0  0  0  0  0  0  0  0  0  0
  143.3270   79.2160  218.9010 H   0  0  0  0  0  0  0  0  0  0  0  0
  143.0652   77.9405  221.0392 H   0  0  0  0  0  0  0  0  0  0  0  0
  143.6175   79.1913  222.3833 H   0  0  0  0  0  0  0  0  0  0  0  0
  142.9996   80.7527  224.1736 H   0  0  0  0  0  0  0  0  0  0  0  0
  140.6299   81.3257  224.6158 H   0  0  0  0  0  0  0  0  0  0  0  0
  139.4671   78.7503  221.4488 H   0  0  0  0  0  0  0  0  0  0  0  0
  139.2086   69.8756  222.6084 H   0  0  0  0  0  0  0  0  0  0  0  0
  138.7994   68.5602  224.6620 H   0  0  0  0  0  0  0  0  0  0  0  0
  139.0878   68.3535  227.1434 H   0  0  0  0  0  0  0  0  0  0  0  0
  139.9882   69.3397  229.2512 H   0  0  0  0  0  0  0  0  0  0  0  0
  141.2015   71.4822  229.2250 H   0  0  0  0  0  0  0  0  0  0  0  0
  141.5284   72.6814  227.0694 H   0  0  0  0  0  0  0  0  0  0  0  0
  1  2  2  0
  2  3  1  0
  3  4  1  0
  4  5  1  0
  5  6  2  0
  5  7  1  0
  7  8  1  0
  8  9  1  0
  9 10  1  0
  9 11  1  0
 11 12  1  0
 11 13  1  0
 13 14  1  0
 14 15  2  0
 15 16  1  0
 16 17  2  0
 17 18  1  0
 18 19  2  0
  2 20  1  0
 20 21  2  0
 21 22  1  0
 22 23  2  0
 23 24  1  0
 24 25  2  0
 25 26  1  0
 26 27  2  0
 27 28  1  0
 28 29  2  0
 13  7  1  0
 19 14  1  0
 29 20  1  0
 28 23  1  0
  3 30  1  0
  4 31  1  0
  4 32  1  0
  8 33  1  0
  8 34  1  0
  9 35  1  6
 10 36  1  0
 11 37  1  1
 12 38  1  0
 13 39  1  6
 15 40  1  0
 16 41  1  0
 17 42  1  0
 19 43  1  0
 21 44  1  0
 22 45  1  0
 24 46  1  0
 25 47  1  0
 26 48  1  0
 27 49  1  0
M  END
>  <smiles>  (21) 
O=C(NCC(=O)N1C[C@H](O)[C@H](O)[C@H]1c1cccnc1)c1ccc2ccccc2n1

>  <score_type>  (21) 
oracle

>  <origin>  (21) 
autodockgpu

>  <m_score__min__energy>  (21) 
-8.8499999999999996

>  <m_primary>  (21) 
energy

>  <rmsd>  (21) 
2.3115635023731227

>  <m_score__min__rmsd>  (21) 
2.3115635023731227

>  <meeko>  (21) 
{"free_energy": -8.52, "intermolecular_energy": -10.61, "internal_energy": -2.99, "cluster_size": 31, "cluster_id": 1, "rank_in_cluster": 10}

>  <energy>  (21) 
-8.35

>  <cluster_rmsd>  (21) 
1.62

>  <cluster>  (21) 
1

$$$$

     RDKit          3D

 49 52  0  0  0  0  0  0  0  0999 V2000
  139.6100   70.5020  221.3460 O   0  0  0  0  0  0  0  0  0  0  0  0
  139.6530   71.2080  222.3760 C   0  0  0  0  0  0  0  0  0  0  0  0
  139.6540   72.6280  222.3740 N   0  0  0  0  0  0  0  0  0  0  0  0
  139.5980   73.3210  221.0600 C   0  0  0  0  0  0  0  0  0  0  0  0
  140.2480   74.6340  221.1580 C   0  0  0  0  0  0  0  0  0  0  0  0
  140.1570   75.2130  222.3050 O   0  0  0  0  0  0  0  0  0  0  0  0
  140.9530   75.3400  220.1770 N   0  0  0  0  0  0  0  0  0  0  0  0
  140.2890   76.5200  219.5180 C   0  0  0  0  0  0  0  0  0  0  0  0
  141.4110   77.5380  219.6120 C   0  0  2  0  0  0  0  0  0  0  0  0
  141.4970   78.1940  218.4000 O   0  0  0  0  0  0  0  0  0  0  0  0
  142.7000   76.7470  219.8660 C   0  0  2  0  0  0  0  0  0  0  0  0
  143.6870   77.1510  218.9870 O   0  0  0  0  0  0  0  0  0  0  0  0
  142.2210   75.3180  219.5630 C   0  0  1  0  0  0  0  0  0  0  0  0
  143.1970   74.3040  219.8490 C   0  0  0  0  0  0  0  0  0  0  0  0
  144.4180   74.7040  220.4270 C   0  0  0  0  0  0  0  0  0  0  0  0
  145.4120   73.7860  220.6980 C   0  0  0  0  0  0  0  0  0  0  0  0
  145.2610   72.4560  220.4200 C   0  0  0  0  0  0  0  0  0  0  0  0
  144.0860   72.0760  219.8640 N   0  0  0  0  0  0  0  0  0  0  0  0
  143.1040   72.9540  219.5930 C   0  0  0  0  0  0  0  0  0  0  0  0
  139.7080   70.5300  223.6870 C   0  0  0  0  0  0  0  0  0  0  0  0
  139.2200   69.2540  223.8590 C   0  0  0  0  0  0  0  0  0  0  0  0
  139.2620   68.6010  225.0800 C   0  0  0  0  0  0  0  0  0  0  0  0
  139.8150   69.2480  226.1770 C   0  0  0  0  0  0  0  0  0  0  0  0
  139.8980   68.6770  227.4230 C   0  0  0  0  0  0  0  0  0  0  0  0
  140.4710   69.4100  228.4640 C   0  0  0  0  0  0  0  0  0  0  0  0
  140.9480   70.6760  228.2620 C   0  0  0  0  0  0  0  0  0  0  0  0
  140.8590   71.2390  227.0060 C   0  0  0  0  0  0  0  0  0  0  0  0
  140.2900   70.5170  225.9680 C   0  0  0  0  0  0  0  0  0  0  0  0
  140.2380   71.1280  224.7720 N   0  0  0  0  0  0  0  0  0  0  0  0
  139.6910   73.1780  223.2620 H   0  0  0  0  0  0  0  0  0  0  0  0
  140.1172   72.7127  220.3047 H   0  0  0  0  0  0  0  0  0  0  0  0
  138.5464   73.4590  220.7685 H   0  0  0  0  0  0  0  0  0  0  0  0
  140.0183   76.3057  218.4736 H   0  0  0  0  0  0  0  0  0  0  0  0
  139.3390   76.8330  219.9756 H   0  0  0  0  0  0  0  0  0  0  0  0
  141.2418   78.2735  220.4123 H   0  0  0  0  0  0  0  0  0  0  0  0
  142.3420   78.0150  217.9190 H   0  0  0  0  0  0  0  0  0  0  0  0
  143.1390   76.8687  220.8672 H   0  0  0  0  0  0  0  0  0  0  0  0
  143.6540   78.1340  218.8610 H   0  0  0  0  0  0  0  0  0  0  0  0
  142.1057   75.0158  218.5116 H   0  0  0  0  0  0  0  0  0  0  0  0
  144.5816   75.7652  220.6661 H   0  0  0  0  0  0  0  0  0  0  0  0
  146.3523   74.1341  221.1504 H   0  0  0  0  0  0  0  0  0  0  0  0
  146.0568   71.7284  220.6378 H   0  0  0  0  0  0  0  0  0  0  0  0
  142.1757   72.5730  219.1422 H   0  0  0  0  0  0  0  0  0  0  0  0
  138.7806   68.7340  222.9950 H   0  0  0  0  0  0  0  0  0  0  0  0
  138.8617   67.5813  225.1794 H   0  0  0  0  0  0  0  0  0  0  0  0
  139.5194   67.6592  227.5981 H   0  0  0  0  0  0  0  0  0  0  0  0
  140.5402   68.9609  229.4657 H   0  0  0  0  0  0  0  0  0  0  0  0
  141.3980   71.2393  229.0928 H   0  0  0  0  0  0  0  0  0  0  0  0
  141.2378   72.2564  226.8286 H   0  0  0  0  0  0  0  0  0  0  0  0
  1  2  2  0
  2  3  1  0
  3  4  1  0
  4  5  1  0
  5  6  2  0
  5  7  1  0
  7  8  1  0
  8  9  1  0
  9 10  1  0
  9 11  1  0
 11 12  1  0
 11 13  1  0
 13 14  1  0
 14 15  2  0
 15 16  1  0
 16 17  2  0
 17 18  1  0
 18 19  2  0
  2 20  1  0
 20 21  2  0
 21 22  1  0
 22 23  2  0
 23 24  1  0
 24 25  2  0
 25 26  1  0
 26 27  2  0
 27 28  1  0
 28 29  2  0
 13  7  1  0
 19 14  1  0
 29 20  1  0
 28 23  1  0
  3 30  1  0
  4 31  1  0
  4 32  1  0
  8 33  1  0
  8 34  1  0
  9 35  1  1
 10 36  1  0
 11 37  1  1
 12 38  1  0
 13 39  1  6
 15 40  1  0
 16 41  1  0
 17 42  1  0
 19 43  1  0
 21 44  1  0
 22 45  1  0
 24 46  1  0
 25 47  1  0
 26 48  1  0
 27 49  1  0
M  END
>  <smiles>  (22) 
O=C(NCC(=O)N1C[C@H](O)[C@H](O)[C@H]1c1cccnc1)c1ccc2ccccc2n1

>  <score_type>  (22) 
oracle

>  <origin>  (22) 
autodockgpu

>  <m_score__min__energy>  (22) 
-8.8499999999999996

>  <m_primary>  (22) 
energy

>  <rmsd>  (22) 
1.9887006097848332

>  <m_score__min__rmsd>  (22) 
1.9887006097848332

>  <meeko>  (22) 
{"free_energy": -7.71, "intermolecular_energy": -9.8, "internal_energy": -3.26, "cluster_size": 1, "cluster_id": 3, "rank_in_cluster": 1}

>  <energy>  (22) 
-8.34

>  <cluster_rmsd>  (22) 
0.56

>  <cluster>  (22) 
1

$$$$

     RDKit          3D

 49 52  0  0  0  0  0  0  0  0999 V2000
  141.2210   71.8790  221.4640 O   0  0  0  0  0  0  0  0  0  0  0  0
  140.5000   72.3440  222.3730 C   0  0  0  0  0  0  0  0  0  0  0  0
  139.8920   73.6280  222.3350 N   0  0  0  0  0  0  0  0  0  0  0  0
  140.1270   74.4730  221.1350 C   0  0  0  0  0  0  0  0  0  0  0  0
  140.6210   75.7950  221.5420 C   0  0  0  0  0  0  0  0  0  0  0  0
  140.1940   76.2190  222.6800 O   0  0  0  0  0  0  0  0  0  0  0  0
  141.4930   76.6530  220.8630 N   0  0  0  0  0  0  0  0  0  0  0  0
  142.3280   76.0950  219.7420 C   0  0  0  0  0  0  0  0  0  0  0  0
  142.0860   77.1550  218.6820 C   0  0  2  0  0  0  0  0  0  0  0  0
  143.2950   77.4510  218.0860 O   0  0  0  0  0  0  0  0  0  0  0  0
  141.5530   78.3930  219.4140 C   0  0  2  0  0  0  0  0  0  0  0  0
  142.2550   79.5170  219.0220 O   0  0  0  0  0  0  0  0  0  0  0  0
  141.8580   78.0130  220.8730 C   0  0  1  0  0  0  0  0  0  0  0  0
  141.3390   78.9430  221.8370 C   0  0  0  0  0  0  0  0  0  0  0  0
  142.2570   79.7390  222.5510 C   0  0  0  0  0  0  0  0  0  0  0  0
  141.8300   80.6290  223.5140 C   0  0  0  0  0  0  0  0  0  0  0  0
  140.5050   80.7800  223.8190 C   0  0  0  0  0  0  0  0  0  0  0  0
  139.6260   80.0140  223.1300 N   0  0  0  0  0  0  0  0  0  0  0  0
  140.0230   79.1400  222.1870 C   0  0  0  0  0  0  0  0  0  0  0  0
  140.2600   71.5140  223.5700 C   0  0  0  0  0  0  0  0  0  0  0  0
  139.5780   70.3200  223.4930 C   0  0  0  0  0  0  0  0  0  0  0  0
  139.3420   69.5260  224.6040 C   0  0  0  0  0  0  0  0  0  0  0  0
  139.8060   69.9400  225.8450 C   0  0  0  0  0  0  0  0  0  0  0  0
  139.6180   69.2170  226.9970 C   0  0  0  0  0  0  0  0  0  0  0  0
  140.1230   69.7190  228.1980 C   0  0  0  0  0  0  0  0  0  0  0  0
  140.7970   70.9090  228.2440 C   0  0  0  0  0  0  0  0  0  0  0  0
  140.9800   71.6260  227.0800 C   0  0  0  0  0  0  0  0  0  0  0  0
  140.4800   71.1340  225.8830 C   0  0  0  0  0  0  0  0  0  0  0  0
  140.6960   71.8850  224.7900 N   0  0  0  0  0  0  0  0  0  0  0  0
  139.2960   73.9760  223.1200 H   0  0  0  0  0  0  0  0  0  0  0  0
  140.8732   73.9883  220.4883 H   0  0  0  0  0  0  0  0  0  0  0  0
  139.1811   74.5935  220.5867 H   0  0  0  0  0  0  0  0  0  0  0  0
  143.3907   76.0287  220.0182 H   0  0  0  0  0  0  0  0  0  0  0  0
  142.0717   75.0691  219.4390 H   0  0  0  0  0  0  0  0  0  0  0  0
  141.3743   76.8203  217.9129 H   0  0  0  0  0  0  0  0  0  0  0  0
  143.8340   78.1040  218.5980 H   0  0  0  0  0  0  0  0  0  0  0  0
  140.4964   78.6345  219.2259 H   0  0  0  0  0  0  0  0  0  0  0  0
  142.7660   79.3320  218.1930 H   0  0  0  0  0  0  0  0  0  0  0  0
  142.8936   78.1032  221.2329 H   0  0  0  0  0  0  0  0  0  0  0  0
  143.3321   79.6489  222.3366 H   0  0  0  0  0  0  0  0  0  0  0  0
  142.5751   81.2339  224.0515 H   0  0  0  0  0  0  0  0  0  0  0  0
  140.1690   81.4908  224.5884 H   0  0  0  0  0  0  0  0  0  0  0  0
  139.2531   78.5507  221.6674 H   0  0  0  0  0  0  0  0  0  0  0  0
  139.2069   69.9842  222.5134 H   0  0  0  0  0  0  0  0  0  0  0  0
  138.7930   68.5781  224.5035 H   0  0  0  0  0  0  0  0  0  0  0  0
  139.0787   68.2586  226.9741 H   0  0  0  0  0  0  0  0  0  0  0  0
  139.9761   69.1465  229.1257 H   0  0  0  0  0  0  0  0  0  0  0  0
  141.1886   71.2896  229.1989 H   0  0  0  0  0  0  0  0  0  0  0  0
  141.5202   72.5840  227.1007 H   0  0  0  0  0  0  0  0  0  0  0  0
  1  2  2  0
  2  3  1  0
  3  4  1  0
  4  5  1  0
  5  6  2  0
  5  7  1  0
  7  8  1  0
  8  9  1  0
  9 10  1  0
  9 11  1  0
 11 12  1  0
 11 13  1  0
 13 14  1  0
 14 15  2  0
 15 16  1  0
 16 17  2  0
 17 18  1  0
 18 19  2  0
  2 20  1  0
 20 21  2  0
 21 22  1  0
 22 23  2  0
 23 24  1  0
 24 25  2  0
 25 26  1  0
 26 27  2  0
 27 28  1  0
 28 29  2  0
 13  7  1  0
 19 14  1  0
 29 20  1  0
 28 23  1  0
  3 30  1  0
  4 31  1  0
  4 32  1  0
  8 33  1  0
  8 34  1  0
  9 35  1  6
 10 36  1  0
 11 37  1  1
 12 38  1  0
 13 39  1  6
 15 40  1  0
 16 41  1  0
 17 42  1  0
 19 43  1  0
 21 44  1  0
 22 45  1  0
 24 46  1  0
 25 47  1  0
 26 48  1  0
 27 49  1  0
M  END
>  <smiles>  (23) 
O=C(NCC(=O)N1C[C@H](O)[C@H](O)[C@H]1c1cccnc1)c1ccc2ccccc2n1

>  <score_type>  (23) 
oracle

>  <origin>  (23) 
autodockgpu

>  <m_score__min__energy>  (23) 
-8.8499999999999996

>  <m_primary>  (23) 
energy

>  <rmsd>  (23) 
2.3098255194842023

>  <m_score__min__rmsd>  (23) 
2.3098255194842023

>  <meeko>  (23) 
{"free_energy": -8.56, "intermolecular_energy": -10.65, "internal_energy": -2.87, "cluster_size": 31, "cluster_id": 1, "rank_in_cluster": 6}

>  <energy>  (23) 
-8.34

>  <cluster_rmsd>  (23) 
1.15

>  <cluster>  (23) 
1

$$$$

     RDKit          3D

 49 52  0  0  0  0  0  0  0  0999 V2000
  141.2030   71.5180  221.4760 O   0  0  0  0  0  0  0  0  0  0  0  0
  140.5780   72.0970  222.3900 C   0  0  0  0  0  0  0  0  0  0  0  0
  140.1300   73.4440  222.3250 N   0  0  0  0  0  0  0  0  0  0  0  0
  140.4240   74.2150  221.0880 C   0  0  0  0  0  0  0  0  0  0  0  0
  140.6260   75.6320  221.4170 C   0  0  0  0  0  0  0  0  0  0  0  0
  139.9250   76.0770  222.4020 O   0  0  0  0  0  0  0  0  0  0  0  0
  141.4770   76.5610  220.8090 N   0  0  0  0  0  0  0  0  0  0  0  0
  142.3350   76.1100  219.6580 C   0  0  0  0  0  0  0  0  0  0  0  0
  142.0680   77.2360  218.6750 C   0  0  2  0  0  0  0  0  0  0  0  0
  143.2720   77.6080  218.1120 O   0  0  0  0  0  0  0  0  0  0  0  0
  141.4950   78.4020  219.4900 C   0  0  2  0  0  0  0  0  0  0  0  0
  142.1660   79.5710  219.1850 O   0  0  0  0  0  0  0  0  0  0  0  0
  141.8020   77.9270  220.9200 C   0  0  1  0  0  0  0  0  0  0  0  0
  141.2510   78.7700  221.9440 C   0  0  0  0  0  0  0  0  0  0  0  0
  139.8610   79.0050  221.9330 C   0  0  0  0  0  0  0  0  0  0  0  0
  139.2710   79.8290  222.8680 C   0  0  0  0  0  0  0  0  0  0  0  0
  140.0000   80.4540  223.8410 C   0  0  0  0  0  0  0  0  0  0  0  0
  141.3350   80.2260  223.8490 N   0  0  0  0  0  0  0  0  0  0  0  0
  141.9300   79.4250  222.9470 C   0  0  0  0  0  0  0  0  0  0  0  0
  140.2810   71.3410  223.6220 C   0  0  0  0  0  0  0  0  0  0  0  0
  139.5830   70.1540  223.5890 C   0  0  0  0  0  0  0  0  0  0  0  0
  139.2940   69.4290  224.7340 C   0  0  0  0  0  0  0  0  0  0  0  0
  139.7200   69.9090  225.9650 C   0  0  0  0  0  0  0  0  0  0  0  0
  139.4780   69.2560  227.1490 C   0  0  0  0  0  0  0  0  0  0  0  0
  139.9470   69.8200  228.3380 C   0  0  0  0  0  0  0  0  0  0  0  0
  140.6380   71.0000  228.3400 C   0  0  0  0  0  0  0  0  0  0  0  0
  140.8740   71.6460  227.1440 C   0  0  0  0  0  0  0  0  0  0  0  0
  140.4110   71.0930  225.9600 C   0  0  0  0  0  0  0  0  0  0  0  0
  140.6780   71.7760  224.8350 N   0  0  0  0  0  0  0  0  0  0  0  0
  139.6100   73.8880  223.1160 H   0  0  0  0  0  0  0  0  0  0  0  0
  141.3351   73.8164  220.6179 H   0  0  0  0  0  0  0  0  0  0  0  0
  139.5757   74.1222  220.3938 H   0  0  0  0  0  0  0  0  0  0  0  0
  143.3975   76.0551  219.9375 H   0  0  0  0  0  0  0  0  0  0  0  0
  142.1114   75.1015  219.2800 H   0  0  0  0  0  0  0  0  0  0  0  0
  141.3707   76.9381  217.8781 H   0  0  0  0  0  0  0  0  0  0  0  0
  143.7840   78.2440  218.6700 H   0  0  0  0  0  0  0  0  0  0  0  0
  140.4329   78.6260  219.3117 H   0  0  0  0  0  0  0  0  0  0  0  0
  142.7120   79.4510  218.3670 H   0  0  0  0  0  0  0  0  0  0  0  0
  142.8321   78.0206  221.2943 H   0  0  0  0  0  0  0  0  0  0  0  0
  139.2369   78.5231  221.1660 H   0  0  0  0  0  0  0  0  0  0  0  0
  138.1832   79.9879  222.8299 H   0  0  0  0  0  0  0  0  0  0  0  0
  139.5242   81.1118  224.5833 H   0  0  0  0  0  0  0  0  0  0  0  0
  143.0190   79.2855  223.0143 H   0  0  0  0  0  0  0  0  0  0  0  0
  139.2422   69.7671  222.6173 H   0  0  0  0  0  0  0  0  0  0  0  0
  138.7338   68.4846  224.6683 H   0  0  0  0  0  0  0  0  0  0  0  0
  138.9245   68.3055  227.1608 H   0  0  0  0  0  0  0  0  0  0  0  0
  139.7567   69.3048  229.2911 H   0  0  0  0  0  0  0  0  0  0  0  0
  141.0018   71.4296  229.2851 H   0  0  0  0  0  0  0  0  0  0  0  0
  141.4275   72.5965  227.1299 H   0  0  0  0  0  0  0  0  0  0  0  0
  1  2  2  0
  2  3  1  0
  3  4  1  0
  4  5  1  0
  5  6  2  0
  5  7  1  0
  7  8  1  0
  8  9  1  0
  9 10  1  0
  9 11  1  0
 11 12  1  0
 11 13  1  0
 13 14  1  0
 14 15  2  0
 15 16  1  0
 16 17  2  0
 17 18  1  0
 18 19  2  0
  2 20  1  0
 20 21  2  0
 21 22  1  0
 22 23  2  0
 23 24  1  0
 24 25  2  0
 25 26  1  0
 26 27  2  0
 27 28  1  0
 28 29  2  0
 13  7  1  0
 19 14  1  0
 29 20  1  0
 28 23  1  0
  3 30  1  0
  4 31  1  0
  4 32  1  0
  8 33  1  0
  8 34  1  0
  9 35  1  6
 10 36  1  0
 11 37  1  1
 12 38  1  0
 13 39  1  1
 15 40  1  0
 16 41  1  0
 17 42  1  0
 19 43  1  0
 21 44  1  0
 22 45  1  0
 24 46  1  0
 25 47  1  0
 26 48  1  0
 27 49  1  0
M  END
>  <smiles>  (24) 
O=C(NCC(=O)N1C[C@H](O)[C@H](O)[C@H]1c1cccnc1)c1ccc2ccccc2n1

>  <score_type>  (24) 
oracle

>  <origin>  (24) 
autodockgpu

>  <m_score__min__energy>  (24) 
-8.8499999999999996

>  <m_primary>  (24) 
energy

>  <rmsd>  (24) 
2.3484741146271797

>  <m_score__min__rmsd>  (24) 
2.3484741146271797

>  <meeko>  (24) 
{"free_energy": -8.34, "intermolecular_energy": -10.42, "internal_energy": -3.05, "cluster_size": 31, "cluster_id": 1, "rank_in_cluster": 24}

>  <energy>  (24) 
-8.34

>  <cluster_rmsd>  (24) 
0.6

>  <cluster>  (24) 
1

$$$$

     RDKit          3D

 49 52  0  0  0  0  0  0  0  0999 V2000
  141.0900   71.8610  221.3200 O   0  0  0  0  0  0  0  0  0  0  0  0
  140.4360   72.3300  222.2770 C   0  0  0  0  0  0  0  0  0  0  0  0
  139.8970   73.6440  222.3100 N   0  0  0  0  0  0  0  0  0  0  0  0
  140.1240   74.5180  221.1300 C   0  0  0  0  0  0  0  0  0  0  0  0
  140.6190   75.8300  221.5670 C   0  0  0  0  0  0  0  0  0  0  0  0
  140.2160   76.2160  222.7280 O   0  0  0  0  0  0  0  0  0  0  0  0
  141.4680   76.7160  220.8940 N   0  0  0  0  0  0  0  0  0  0  0  0
  142.2710   76.2040  219.7300 C   0  0  0  0  0  0  0  0  0  0  0  0
  141.9950   77.3010  218.7170 C   0  0  2  0  0  0  0  0  0  0  0  0
  143.1850   77.6220  218.0970 O   0  0  0  0  0  0  0  0  0  0  0  0
  141.4800   78.5090  219.5100 C   0  0  2  0  0  0  0  0  0  0  0  0
  142.1670   79.6490  219.1390 O   0  0  0  0  0  0  0  0  0  0  0  0
  141.8290   78.0770  220.9440 C   0  0  1  0  0  0  0  0  0  0  0  0
  141.3360   78.9690  221.9560 C   0  0  0  0  0  0  0  0  0  0  0  0
  139.9480   79.1980  222.0190 C   0  0  0  0  0  0  0  0  0  0  0  0
  139.4110   80.0670  222.9450 C   0  0  0  0  0  0  0  0  0  0  0  0
  140.1940   80.7430  223.8400 C   0  0  0  0  0  0  0  0  0  0  0  0
  141.5290   80.5200  223.7770 N   0  0  0  0  0  0  0  0  0  0  0  0
  142.0720   79.6760  222.8810 C   0  0  0  0  0  0  0  0  0  0  0  0
  140.2040   71.4690  223.4540 C   0  0  0  0  0  0  0  0  0  0  0  0
  139.5490   70.2630  223.3470 C   0  0  0  0  0  0  0  0  0  0  0  0
  139.3220   69.4410  224.4390 C   0  0  0  0  0  0  0  0  0  0  0  0
  139.7670   69.8400  225.6920 C   0  0  0  0  0  0  0  0  0  0  0  0
  139.5860   69.0890  226.8280 C   0  0  0  0  0  0  0  0  0  0  0  0
  140.0700   69.5770  228.0430 C   0  0  0  0  0  0  0  0  0  0  0  0
  140.7170   70.7800  228.1190 C   0  0  0  0  0  0  0  0  0  0  0  0
  140.8940   71.5250  226.9710 C   0  0  0  0  0  0  0  0  0  0  0  0
  140.4140   71.0470  225.7610 C   0  0  0  0  0  0  0  0  0  0  0  0
  140.6230   71.8250  224.6850 N   0  0  0  0  0  0  0  0  0  0  0  0
  139.3560   73.9930  223.1330 H   0  0  0  0  0  0  0  0  0  0  0  0
  140.8669   74.0502  220.4673 H   0  0  0  0  0  0  0  0  0  0  0  0
  139.1749   74.6507  220.5899 H   0  0  0  0  0  0  0  0  0  0  0  0
  143.3415   76.1322  219.9726 H   0  0  0  0  0  0  0  0  0  0  0  0
  142.0090   75.1889  219.3969 H   0  0  0  0  0  0  0  0  0  0  0  0
  141.2619   76.9930  217.9569 H   0  0  0  0  0  0  0  0  0  0  0  0
  143.7360   78.2590  218.6170 H   0  0  0  0  0  0  0  0  0  0  0  0
  140.4176   78.7529  219.3625 H   0  0  0  0  0  0  0  0  0  0  0  0
  142.6650   79.4920  218.2960 H   0  0  0  0  0  0  0  0  0  0  0  0
  142.8742   78.1579  221.2771 H   0  0  0  0  0  0  0  0  0  0  0  0
  139.2811   78.6749  221.3178 H   0  0  0  0  0  0  0  0  0  0  0  0
  138.3220   80.2211  222.9646 H   0  0  0  0  0  0  0  0  0  0  0  0
  139.7601   81.4353  224.5765 H   0  0  0  0  0  0  0  0  0  0  0  0
  143.1639   79.5432  222.8875 H   0  0  0  0  0  0  0  0  0  0  0  0
  139.1926   69.9399  222.3578 H   0  0  0  0  0  0  0  0  0  0  0  0
  138.7953   68.4833  224.3146 H   0  0  0  0  0  0  0  0  0  0  0  0
  139.0684   68.1195  226.7810 H   0  0  0  0  0  0  0  0  0  0  0  0
  139.9284   68.9824  228.9575 H   0  0  0  0  0  0  0  0  0  0  0  0
  141.0921   71.1494  229.0848 H   0  0  0  0  0  0  0  0  0  0  0  0
  141.4135   72.4936  227.0155 H   0  0  0  0  0  0  0  0  0  0  0  0
  1  2  2  0
  2  3  1  0
  3  4  1  0
  4  5  1  0
  5  6  2  0
  5  7  1  0
  7  8  1  0
  8  9  1  0
  9 10  1  0
  9 11  1  0
 11 12  1  0
 11 13  1  0
 13 14  1  0
 14 15  2  0
 15 16  1  0
 16 17  2  0
 17 18  1  0
 18 19  2  0
  2 20  1  0
 20 21  2  0
 21 22  1  0
 22 23  2  0
 23 24  1  0
 24 25  2  0
 25 26  1  0
 26 27  2  0
 27 28  1  0
 28 29  2  0
 13  7  1  0
 19 14  1  0
 29 20  1  0
 28 23  1  0
  3 30  1  0
  4 31  1  0
  4 32  1  0
  8 33  1  0
  8 34  1  0
  9 35  1  6
 10 36  1  0
 11 37  1  1
 12 38  1  0
 13 39  1  6
 15 40  1  0
 16 41  1  0
 17 42  1  0
 19 43  1  0
 21 44  1  0
 22 45  1  0
 24 46  1  0
 25 47  1  0
 26 48  1  0
 27 49  1  0
M  END
>  <smiles>  (25) 
O=C(NCC(=O)N1C[C@H](O)[C@H](O)[C@H]1c1cccnc1)c1ccc2ccccc2n1

>  <score_type>  (25) 
oracle

>  <origin>  (25) 
autodockgpu

>  <m_score__min__energy>  (25) 
-8.8499999999999996

>  <m_primary>  (25) 
energy

>  <rmsd>  (25) 
2.316196038809962

>  <m_score__min__rmsd>  (25) 
2.316196038809962

>  <meeko>  (25) 
{"free_energy": -8.31, "intermolecular_energy": -10.4, "internal_energy": -2.97, "cluster_size": 31, "cluster_id": 1, "rank_in_cluster": 26}

>  <energy>  (25) 
-8.32

>  <cluster_rmsd>  (25) 
1.21

>  <cluster>  (25) 
1

$$$$

     RDKit          3D

 49 52  0  0  0  0  0  0  0  0999 V2000
  138.8790   75.4170  221.6360 O   0  0  0  0  0  0  0  0  0  0  0  0
  140.0390   75.8130  221.8790 C   0  0  0  0  0  0  0  0  0  0  0  0
  141.2080   75.0250  221.7030 N   0  0  0  0  0  0  0  0  0  0  0  0
  141.0400   73.6380  221.1950 C   0  0  0  0  0  0  0  0  0  0  0  0
  142.3530   73.0500  220.9010 C   0  0  0  0  0  0  0  0  0  0  0  0
  142.5720   71.8940  221.4240 O   0  0  0  0  0  0  0  0  0  0  0  0
  143.3970   73.5750  220.1300 N   0  0  0  0  0  0  0  0  0  0  0  0
  144.7030   72.8290  220.0810 C   0  0  0  0  0  0  0  0  0  0  0  0
  144.9520   72.8360  218.5830 C   0  0  2  0  0  0  0  0  0  0  0  0
  146.2800   73.1470  218.3700 O   0  0  0  0  0  0  0  0  0  0  0  0
  144.0620   73.9390  217.9960 C   0  0  2  0  0  0  0  0  0  0  0  0
  144.8030   74.7560  217.1640 O   0  0  0  0  0  0  0  0  0  0  0  0
  143.6350   74.6710  219.2790 C   0  0  1  0  0  0  0  0  0  0  0  0
  142.6600   75.7040  219.0620 C   0  0  0  0  0  0  0  0  0  0  0  0
  142.9480   76.9980  219.5380 C   0  0  0  0  0  0  0  0  0  0  0  0
  142.0440   78.0290  219.3920 C   0  0  0  0  0  0  0  0  0  0  0  0
  140.8330   77.8450  218.7830 C   0  0  0  0  0  0  0  0  0  0  0  0
  140.5590   76.5990  218.3270 N   0  0  0  0  0  0  0  0  0  0  0  0
  141.4280   75.5810  218.4590 C   0  0  0  0  0  0  0  0  0  0  0  0
  140.2160   77.1890  222.3840 C   0  0  0  0  0  0  0  0  0  0  0  0
  139.1390   77.9770  222.7220 C   0  0  0  0  0  0  0  0  0  0  0  0
  139.2850   79.2710  223.1980 C   0  0  0  0  0  0  0  0  0  0  0  0
  140.5600   79.8010  223.3410 C   0  0  0  0  0  0  0  0  0  0  0  0
  140.7970   81.0720  223.8050 C   0  0  0  0  0  0  0  0  0  0  0  0
  142.1170   81.5150  223.9130 C   0  0  0  0  0  0  0  0  0  0  0  0
  143.1670   80.7090  223.5690 C   0  0  0  0  0  0  0  0  0  0  0  0
  142.9160   79.4340  223.1050 C   0  0  0  0  0  0  0  0  0  0  0  0
  141.6080   78.9880  222.9940 C   0  0  0  0  0  0  0  0  0  0  0  0
  141.4390   77.7360  222.5360 N   0  0  0  0  0  0  0  0  0  0  0  0
  142.1590   75.4000  221.9200 H   0  0  0  0  0  0  0  0  0  0  0  0
  140.5306   73.0299  221.9570 H   0  0  0  0  0  0  0  0  0  0  0  0
  140.4392   73.6604  220.2738 H   0  0  0  0  0  0  0  0  0  0  0  0
  145.4964   73.3578  220.6296 H   0  0  0  0  0  0  0  0  0  0  0  0
  144.6853   71.8313  220.5439 H   0  0  0  0  0  0  0  0  0  0  0  0
  144.7268   71.8647  218.1184 H   0  0  0  0  0  0  0  0  0  0  0  0
  146.4660   74.1180  218.4140 H   0  0  0  0  0  0  0  0  0  0  0  0
  143.2208   73.5896  217.3794 H   0  0  0  0  0  0  0  0  0  0  0  0
  145.7690   74.5550  217.2540 H   0  0  0  0  0  0  0  0  0  0  0  0
  144.3555   75.3483  219.7607 H   0  0  0  0  0  0  0  0  0  0  0  0
  143.9106   77.1894  220.0347 H   0  0  0  0  0  0  0  0  0  0  0  0
  142.3038   79.0266  219.7757 H   0  0  0  0  0  0  0  0  0  0  0  0
  140.1149   78.6704  218.6688 H   0  0  0  0  0  0  0  0  0  0  0  0
  141.1388   74.5961  218.0636 H   0  0  0  0  0  0  0  0  0  0  0  0
  138.1253   77.5648  222.6103 H   0  0  0  0  0  0  0  0  0  0  0  0
  138.4007   79.8707  223.4593 H   0  0  0  0  0  0  0  0  0  0  0  0
  139.9614   81.7296  224.0867 H   0  0  0  0  0  0  0  0  0  0  0  0
  142.3161   82.5320  224.2819 H   0  0  0  0  0  0  0  0  0  0  0  0
  144.2008   81.0734  223.6613 H   0  0  0  0  0  0  0  0  0  0  0  0
  143.7502   78.7742  222.8243 H   0  0  0  0  0  0  0  0  0  0  0  0
  1  2  2  0
  2  3  1  0
  3  4  1  0
  4  5  1  0
  5  6  2  0
  5  7  1  0
  7  8  1  0
  8  9  1  0
  9 10  1  0
  9 11  1  0
 11 12  1  0
 11 13  1  0
 13 14  1  0
 14 15  2  0
 15 16  1  0
 16 17  2  0
 17 18  1  0
 18 19  2  0
  2 20  1  0
 20 21  2  0
 21 22  1  0
 22 23  2  0
 23 24  1  0
 24 25  2  0
 25 26  1  0
 26 27  2  0
 27 28  1  0
 28 29  2  0
 13  7  1  0
 19 14  1  0
 29 20  1  0
 28 23  1  0
  3 30  1  0
  4 31  1  0
  4 32  1  0
  8 33  1  0
  8 34  1  0
  9 35  1  6
 10 36  1  0
 11 37  1  6
 12 38  1  0
 13 39  1  1
 15 40  1  0
 16 41  1  0
 17 42  1  0
 19 43  1  0
 21 44  1  0
 22 45  1  0
 24 46  1  0
 25 47  1  0
 26 48  1  0
 27 49  1  0
M  END
>  <smiles>  (26) 
O=C(NCC(=O)N1C[C@H](O)[C@H](O)[C@H]1c1cccnc1)c1ccc2ccccc2n1

>  <score_type>  (26) 
oracle

>  <origin>  (26) 
autodockgpu

>  <m_score__min__energy>  (26) 
-8.8499999999999996

>  <m_primary>  (26) 
energy

>  <rmsd>  (26) 
7.6328293542484635

>  <m_score__min__rmsd>  (26) 
7.6328293542484635

>  <meeko>  (26) 
{"free_energy": -7.72, "intermolecular_energy": -9.81, "internal_energy": -3.78, "cluster_size": 17, "cluster_id": 2, "rank_in_cluster": 10}

>  <energy>  (26) 
-8.31

>  <cluster_rmsd>  (26) 
0.61

>  <cluster>  (26) 
1

$$$$

     RDKit          3D

 49 52  0  0  0  0  0  0  0  0999 V2000
  138.9040   75.3720  221.7770 O   0  0  0  0  0  0  0  0  0  0  0  0
  140.0650   75.8110  221.9230 C   0  0  0  0  0  0  0  0  0  0  0  0
  141.2430   75.0640  221.6530 N   0  0  0  0  0  0  0  0  0  0  0  0
  141.0840   73.6680  221.1660 C   0  0  0  0  0  0  0  0  0  0  0  0
  142.4010   73.0880  220.8700 C   0  0  0  0  0  0  0  0  0  0  0  0
  142.6370   71.9440  221.4140 O   0  0  0  0  0  0  0  0  0  0  0  0
  143.4310   73.6070  220.0790 N   0  0  0  0  0  0  0  0  0  0  0  0
  144.7330   72.8560  220.0050 C   0  0  0  0  0  0  0  0  0  0  0  0
  144.9530   72.8600  218.5020 C   0  0  2  0  0  0  0  0  0  0  0  0
  146.2780   73.1660  218.2640 O   0  0  0  0  0  0  0  0  0  0  0  0
  144.0560   73.9660  217.9320 C   0  0  2  0  0  0  0  0  0  0  0  0
  144.7830   74.7790  217.0840 O   0  0  0  0  0  0  0  0  0  0  0  0
  143.6560   74.7020  219.2210 C   0  0  1  0  0  0  0  0  0  0  0  0
  142.6810   75.7380  219.0220 C   0  0  0  0  0  0  0  0  0  0  0  0
  142.9610   77.0180  219.5380 C   0  0  0  0  0  0  0  0  0  0  0  0
  142.0550   78.0510  219.4100 C   0  0  0  0  0  0  0  0  0  0  0  0
  140.8520   77.8810  218.7820 C   0  0  0  0  0  0  0  0  0  0  0  0
  140.5870   76.6490  218.2860 N   0  0  0  0  0  0  0  0  0  0  0  0
  141.4580   75.6290  218.4000 C   0  0  0  0  0  0  0  0  0  0  0  0
  140.2340   77.1960  222.4060 C   0  0  0  0  0  0  0  0  0  0  0  0
  139.1520   77.9840  222.7260 C   0  0  0  0  0  0  0  0  0  0  0  0
  139.2900   79.2860  223.1820 C   0  0  0  0  0  0  0  0  0  0  0  0
  140.5610   79.8240  223.3230 C   0  0  0  0  0  0  0  0  0  0  0  0
  140.7910   81.1030  223.7670 C   0  0  0  0  0  0  0  0  0  0  0  0
  142.1080   81.5540  223.8740 C   0  0  0  0  0  0  0  0  0  0  0  0
  143.1630   80.7470  223.5480 C   0  0  0  0  0  0  0  0  0  0  0  0
  142.9210   79.4640  223.1040 C   0  0  0  0  0  0  0  0  0  0  0  0
  141.6150   79.0100  222.9930 C   0  0  0  0  0  0  0  0  0  0  0  0
  141.4540   77.7510  222.5550 N   0  0  0  0  0  0  0  0  0  0  0  0
  142.1950   75.4730  221.7890 H   0  0  0  0  0  0  0  0  0  0  0  0
  140.5862   73.0661  221.9406 H   0  0  0  0  0  0  0  0  0  0  0  0
  140.4758   73.6715  220.2494 H   0  0  0  0  0  0  0  0  0  0  0  0
  145.5390   73.3824  220.5372 H   0  0  0  0  0  0  0  0  0  0  0  0
  144.7204   71.8589  220.4693 H   0  0  0  0  0  0  0  0  0  0  0  0
  144.7154   71.8894  218.0421 H   0  0  0  0  0  0  0  0  0  0  0  0
  146.4680   74.1360  218.3020 H   0  0  0  0  0  0  0  0  0  0  0  0
  143.2014   73.6183  217.3331 H   0  0  0  0  0  0  0  0  0  0  0  0
  145.7100   74.8840  217.4190 H   0  0  0  0  0  0  0  0  0  0  0  0
  144.3877   75.3785  219.6869 H   0  0  0  0  0  0  0  0  0  0  0  0
  143.9172   77.1973  220.0513 H   0  0  0  0  0  0  0  0  0  0  0  0
  142.3073   79.0382  219.8244 H   0  0  0  0  0  0  0  0  0  0  0  0
  140.1325   78.7073  218.6842 H   0  0  0  0  0  0  0  0  0  0  0  0
  141.1770   74.6551  217.9727 H   0  0  0  0  0  0  0  0  0  0  0  0
  138.1407   77.5655  222.6159 H   0  0  0  0  0  0  0  0  0  0  0  0
  138.4017   79.8858  223.4293 H   0  0  0  0  0  0  0  0  0  0  0  0
  139.9513   81.7615  224.0340 H   0  0  0  0  0  0  0  0  0  0  0  0
  142.3007   82.5778  224.2272 H   0  0  0  0  0  0  0  0  0  0  0  0
  144.1946   81.1178  223.6391 H   0  0  0  0  0  0  0  0  0  0  0  0
  143.7599   78.8036  222.8391 H   0  0  0  0  0  0  0  0  0  0  0  0
  1  2  2  0
  2  3  1  0
  3  4  1  0
  4  5  1  0
  5  6  2  0
  5  7  1  0
  7  8  1  0
  8  9  1  0
  9 10  1  0
  9 11  1  0
 11 12  1  0
 11 13  1  0
 13 14  1  0
 14 15  2  0
 15 16  1  0
 16 17  2  0
 17 18  1  0
 18 19  2  0
  2 20  1  0
 20 21  2  0
 21 22  1  0
 22 23  2  0
 23 24  1  0
 24 25  2  0
 25 26  1  0
 26 27  2  0
 27 28  1  0
 28 29  2  0
 13  7  1  0
 19 14  1  0
 29 20  1  0
 28 23  1  0
  3 30  1  0
  4 31  1  0
  4 32  1  0
  8 33  1  0
  8 34  1  0
  9 35  1  6
 10 36  1  0
 11 37  1  6
 12 38  1  0
 13 39  1  1
 15 40  1  0
 16 41  1  0
 17 42  1  0
 19 43  1  0
 21 44  1  0
 22 45  1  0
 24 46  1  0
 25 47  1  0
 26 48  1  0
 27 49  1  0
M  END
>  <smiles>  (27) 
O=C(NCC(=O)N1C[C@H](O)[C@H](O)[C@H]1c1cccnc1)c1ccc2ccccc2n1

>  <score_type>  (27) 
oracle

>  <origin>  (27) 
autodockgpu

>  <m_score__min__energy>  (27) 
-8.8499999999999996

>  <m_primary>  (27) 
energy

>  <rmsd>  (27) 
7.6488987426684805

>  <m_score__min__rmsd>  (27) 
7.6488987426684805

>  <meeko>  (27) 
{"free_energy": -7.84, "intermolecular_energy": -9.93, "internal_energy": -3.71, "cluster_size": 17, "cluster_id": 2, "rank_in_cluster": 2}

>  <energy>  (27) 
-8.3

>  <cluster_rmsd>  (27) 
0.74

>  <cluster>  (27) 
1

$$$$

     RDKit          3D

 49 52  0  0  0  0  0  0  0  0999 V2000
  138.9170   75.2620  221.9670 O   0  0  0  0  0  0  0  0  0  0  0  0
  140.0660   75.7530  221.9700 C   0  0  0  0  0  0  0  0  0  0  0  0
  141.2370   75.0490  221.5800 N   0  0  0  0  0  0  0  0  0  0  0  0
  141.0860   73.6380  221.1400 C   0  0  0  0  0  0  0  0  0  0  0  0
  142.4040   73.0600  220.8470 C   0  0  0  0  0  0  0  0  0  0  0  0
  142.6450   71.9220  221.4000 O   0  0  0  0  0  0  0  0  0  0  0  0
  143.4310   73.5760  220.0490 N   0  0  0  0  0  0  0  0  0  0  0  0
  144.7300   72.8210  219.9660 C   0  0  0  0  0  0  0  0  0  0  0  0
  144.9400   72.8250  218.4620 C   0  0  2  0  0  0  0  0  0  0  0  0
  146.2640   73.1270  218.2150 O   0  0  0  0  0  0  0  0  0  0  0  0
  144.0420   73.9340  217.8980 C   0  0  2  0  0  0  0  0  0  0  0  0
  144.7670   74.7450  217.0460 O   0  0  0  0  0  0  0  0  0  0  0  0
  143.6540   74.6700  219.1900 C   0  0  1  0  0  0  0  0  0  0  0  0
  142.6810   75.7100  218.9980 C   0  0  0  0  0  0  0  0  0  0  0  0
  142.9580   76.9840  219.5320 C   0  0  0  0  0  0  0  0  0  0  0  0
  142.0540   78.0180  219.4120 C   0  0  0  0  0  0  0  0  0  0  0  0
  140.8550   77.8580  218.7740 C   0  0  0  0  0  0  0  0  0  0  0  0
  140.5920   76.6320  218.2620 N   0  0  0  0  0  0  0  0  0  0  0  0
  141.4610   75.6100  218.3680 C   0  0  0  0  0  0  0  0  0  0  0  0
  140.2280   77.1540  222.4060 C   0  0  0  0  0  0  0  0  0  0  0  0
  139.1410   77.9540  222.6780 C   0  0  0  0  0  0  0  0  0  0  0  0
  139.2720   79.2710  223.0880 C   0  0  0  0  0  0  0  0  0  0  0  0
  140.5420   79.8140  223.2320 C   0  0  0  0  0  0  0  0  0  0  0  0
  140.7640   81.1080  223.6330 C   0  0  0  0  0  0  0  0  0  0  0  0
  142.0800   81.5620  223.7470 C   0  0  0  0  0  0  0  0  0  0  0  0
  143.1400   80.7440  223.4690 C   0  0  0  0  0  0  0  0  0  0  0  0
  142.9040   79.4460  223.0670 C   0  0  0  0  0  0  0  0  0  0  0  0
  141.6000   78.9880  222.9510 C   0  0  0  0  0  0  0  0  0  0  0  0
  141.4450   77.7140  222.5560 N   0  0  0  0  0  0  0  0  0  0  0  0
  142.1800   75.5010  221.5990 H   0  0  0  0  0  0  0  0  0  0  0  0
  140.6028   73.0568  221.9392 H   0  0  0  0  0  0  0  0  0  0  0  0
  140.4677   73.6073  220.2307 H   0  0  0  0  0  0  0  0  0  0  0  0
  145.5412   73.3446  220.4931 H   0  0  0  0  0  0  0  0  0  0  0  0
  144.7173   71.8237  220.4299 H   0  0  0  0  0  0  0  0  0  0  0  0
  144.6966   71.8552  218.0035 H   0  0  0  0  0  0  0  0  0  0  0  0
  146.4570   74.0960  218.2490 H   0  0  0  0  0  0  0  0  0  0  0  0
  143.1821   73.5899  217.3046 H   0  0  0  0  0  0  0  0  0  0  0  0
  145.6850   74.8790  217.3950 H   0  0  0  0  0  0  0  0  0  0  0  0
  144.3917   75.3431  219.6514 H   0  0  0  0  0  0  0  0  0  0  0  0
  143.9112   77.1565  220.0532 H   0  0  0  0  0  0  0  0  0  0  0  0
  142.3042   78.9993  219.8415 H   0  0  0  0  0  0  0  0  0  0  0  0
  140.1375   78.6866  218.6810 H   0  0  0  0  0  0  0  0  0  0  0  0
  141.1813   74.6418  217.9272 H   0  0  0  0  0  0  0  0  0  0  0  0
  138.1314   77.5321  222.5657 H   0  0  0  0  0  0  0  0  0  0  0  0
  138.3799   79.8797  223.2971 H   0  0  0  0  0  0  0  0  0  0  0  0
  139.9201   81.7758  223.8606 H   0  0  0  0  0  0  0  0  0  0  0  0
  142.2674   82.5977  224.0666 H   0  0  0  0  0  0  0  0  0  0  0  0
  144.1702   81.1174  223.5650 H   0  0  0  0  0  0  0  0  0  0  0  0
  143.7467   78.7766  222.8393 H   0  0  0  0  0  0  0  0  0  0  0  0
  1  2  2  0
  2  3  1  0
  3  4  1  0
  4  5  1  0
  5  6  2  0
  5  7  1  0
  7  8  1  0
  8  9  1  0
  9 10  1  0
  9 11  1  0
 11 12  1  0
 11 13  1  0
 13 14  1  0
 14 15  2  0
 15 16  1  0
 16 17  2  0
 17 18  1  0
 18 19  2  0
  2 20  1  0
 20 21  2  0
 21 22  1  0
 22 23  2  0
 23 24  1  0
 24 25  2  0
 25 26  1  0
 26 27  2  0
 27 28  1  0
 28 29  2  0
 13  7  1  0
 19 14  1  0
 29 20  1  0
 28 23  1  0
  3 30  1  0
  4 31  1  0
  4 32  1  0
  8 33  1  0
  8 34  1  0
  9 35  1  6
 10 36  1  0
 11 37  1  6
 12 38  1  0
 13 39  1  1
 15 40  1  0
 16 41  1  0
 17 42  1  0
 19 43  1  0
 21 44  1  0
 22 45  1  0
 24 46  1  0
 25 47  1  0
 26 48  1  0
 27 49  1  0
M  END
>  <smiles>  (28) 
O=C(NCC(=O)N1C[C@H](O)[C@H](O)[C@H]1c1cccnc1)c1ccc2ccccc2n1

>  <score_type>  (28) 
oracle

>  <origin>  (28) 
autodockgpu

>  <m_score__min__energy>  (28) 
-8.8499999999999996

>  <m_primary>  (28) 
energy

>  <rmsd>  (28) 
7.651821300158849

>  <m_score__min__rmsd>  (28) 
7.651821300158849

>  <meeko>  (28) 
{"free_energy": -7.84, "intermolecular_energy": -9.93, "internal_energy": -3.7, "cluster_size": 17, "cluster_id": 2, "rank_in_cluster": 1}

>  <energy>  (28) 
-8.2

>  <cluster_rmsd>  (28) 
1.11

>  <cluster>  (28) 
1

$$$$

     RDKit          3D

 49 52  0  0  0  0  0  0  0  0999 V2000
  139.6470   71.1830  221.2770 O   0  0  0  0  0  0  0  0  0  0  0  0
  139.6120   71.8720  222.3190 C   0  0  0  0  0  0  0  0  0  0  0  0
  139.3600   73.2700  222.3460 N   0  0  0  0  0  0  0  0  0  0  0  0
  139.1220   73.9580  221.0500 C   0  0  0  0  0  0  0  0  0  0  0  0
  139.7350   75.2920  221.0720 C   0  0  0  0  0  0  0  0  0  0  0  0
  138.9630   76.2500  221.4550 O   0  0  0  0  0  0  0  0  0  0  0  0
  141.0410   75.6640  220.7350 N   0  0  0  0  0  0  0  0  0  0  0  0
  142.0030   74.5970  220.2870 C   0  0  0  0  0  0  0  0  0  0  0  0
  142.5800   75.2660  219.0520 C   0  0  2  0  0  0  0  0  0  0  0  0
  143.9470   75.0770  219.0610 O   0  0  0  0  0  0  0  0  0  0  0  0
  142.2630   76.7620  219.1770 C   0  0  2  0  0  0  0  0  0  0  0  0
  143.4030   77.5100  218.9510 O   0  0  0  0  0  0  0  0  0  0  0  0
  141.8170   76.8370  220.6460 C   0  0  1  0  0  0  0  0  0  0  0  0
  141.3150   78.1250  221.0370 C   0  0  0  0  0  0  0  0  0  0  0  0
  141.7730   78.6740  222.2500 C   0  0  0  0  0  0  0  0  0  0  0  0
  141.3080   79.8920  222.7010 C   0  0  0  0  0  0  0  0  0  0  0  0
  140.3870   80.6170  221.9970 C   0  0  0  0  0  0  0  0  0  0  0  0
  139.9480   80.0860  220.8320 N   0  0  0  0  0  0  0  0  0  0  0  0
  140.3900   78.9000  220.3740 C   0  0  0  0  0  0  0  0  0  0  0  0
  139.8470   71.1980  223.6120 C   0  0  0  0  0  0  0  0  0  0  0  0
  139.5660   69.8620  223.7890 C   0  0  0  0  0  0  0  0  0  0  0  0
  139.7800   69.2110  224.9940 C   0  0  0  0  0  0  0  0  0  0  0  0
  140.2940   69.9250  226.0680 C   0  0  0  0  0  0  0  0  0  0  0  0
  140.5370   69.3610  227.2970 C   0  0  0  0  0  0  0  0  0  0  0  0
  141.0560   70.1630  228.3160 C   0  0  0  0  0  0  0  0  0  0  0  0
  141.3240   71.4880  228.1100 C   0  0  0  0  0  0  0  0  0  0  0  0
  141.0770   72.0430  226.8710 C   0  0  0  0  0  0  0  0  0  0  0  0
  140.5600   71.2530  225.8550 C   0  0  0  0  0  0  0  0  0  0  0  0
  140.3450   71.8590  224.6760 N   0  0  0  0  0  0  0  0  0  0  0  0
  139.3400   73.8060  223.2430 H   0  0  0  0  0  0  0  0  0  0  0  0
  139.5659   73.3661  220.2360 H   0  0  0  0  0  0  0  0  0  0  0  0
  138.0388   74.0600  220.8879 H   0  0  0  0  0  0  0  0  0  0  0  0
  142.7764   74.4004  221.0441 H   0  0  0  0  0  0  0  0  0  0  0  0
  141.5515   73.6094  220.1114 H   0  0  0  0  0  0  0  0  0  0  0  0
  142.1626   74.8553  218.1208 H   0  0  0  0  0  0  0  0  0  0  0  0
  144.4280   75.6790  218.4410 H   0  0  0  0  0  0  0  0  0  0  0  0
  141.5195   77.1482  218.4642 H   0  0  0  0  0  0  0  0  0  0  0  0
  144.1410   77.1970  219.5330 H   0  0  0  0  0  0  0  0  0  0  0  0
  142.5880   76.8175  221.4303 H   0  0  0  0  0  0  0  0  0  0  0  0
  142.5137   78.1227  222.8478 H   0  0  0  0  0  0  0  0  0  0  0  0
  141.6885   80.2908  223.6529 H   0  0  0  0  0  0  0  0  0  0  0  0
  140.0195   81.5878  222.3609 H   0  0  0  0  0  0  0  0  0  0  0  0
  139.9906   78.5299  219.4182 H   0  0  0  0  0  0  0  0  0  0  0  0
  139.1566   69.2901  222.9432 H   0  0  0  0  0  0  0  0  0  0  0  0
  139.5453   68.1414  225.0980 H   0  0  0  0  0  0  0  0  0  0  0  0
  140.3265   68.2962  227.4754 H   0  0  0  0  0  0  0  0  0  0  0  0
  141.2530   69.7201  229.3034 H   0  0  0  0  0  0  0  0  0  0  0  0
  141.7324   72.1052  228.9238 H   0  0  0  0  0  0  0  0  0  0  0  0
  141.2891   73.1071  226.6900 H   0  0  0  0  0  0  0  0  0  0  0  0
  1  2  2  0
  2  3  1  0
  3  4  1  0
  4  5  1  0
  5  6  2  0
  5  7  1  0
  7  8  1  0
  8  9  1  0
  9 10  1  0
  9 11  1  0
 11 12  1  0
 11 13  1  0
 13 14  1  0
 14 15  2  0
 15 16  1  0
 16 17  2  0
 17 18  1  0
 18 19  2  0
  2 20  1  0
 20 21  2  0
 21 22  1  0
 22 23  2  0
 23 24  1  0
 24 25  2  0
 25 26  1  0
 26 27  2  0
 27 28  1  0
 28 29  2  0
 13  7  1  0
 19 14  1  0
 29 20  1  0
 28 23  1  0
  3 30  1  0
  4 31  1  0
  4 32  1  0
  8 33  1  0
  8 34  1  0
  9 35  1  6
 10 36  1  0
 11 37  1  6
 12 38  1  0
 13 39  1  1
 15 40  1  0
 16 41  1  0
 17 42  1  0
 19 43  1  0
 21 44  1  0
 22 45  1  0
 24 46  1  0
 25 47  1  0
 26 48  1  0
 27 49  1  0
M  END
>  <smiles>  (29) 
O=C(NCC(=O)N1C[C@H](O)[C@H](O)[C@H]1c1cccnc1)c1ccc2ccccc2n1

>  <score_type>  (29) 
oracle

>  <origin>  (29) 
autodockgpu

>  <m_score__min__energy>  (29) 
-8.8499999999999996

>  <m_primary>  (29) 
energy

>  <rmsd>  (29) 
2.02489908083943

>  <m_score__min__rmsd>  (29) 
2.02489908083943

>  <meeko>  (29) 
{"free_energy": -7.81, "intermolecular_energy": -9.9, "internal_energy": -2.83, "cluster_size": 31, "cluster_id": 1, "rank_in_cluster": 30}

>  <energy>  (29) 
-7.84

>  <cluster_rmsd>  (29) 
1.57

>  <cluster>  (29) 
1

$$$$

     RDKit          3D

 49 52  0  0  0  0  0  0  0  0999 V2000
  141.3710   72.5770  222.0160 O   0  0  0  0  0  0  0  0  0  0  0  0
  140.2700   72.5140  222.6020 C   0  0  0  0  0  0  0  0  0  0  0  0
  139.1560   73.3450  222.3030 N   0  0  0  0  0  0  0  0  0  0  0  0
  139.3110   74.3540  221.2230 C   0  0  0  0  0  0  0  0  0  0  0  0
  139.9470   75.5650  221.7570 C   0  0  0  0  0  0  0  0  0  0  0  0
  139.4980   75.9710  222.8950 O   0  0  0  0  0  0  0  0  0  0  0  0
  140.9730   76.3370  221.2000 N   0  0  0  0  0  0  0  0  0  0  0  0
  141.9030   75.6930  220.2070 C   0  0  0  0  0  0  0  0  0  0  0  0
  141.8980   76.7520  219.1190 C   0  0  2  0  0  0  0  0  0  0  0  0
  143.1980   76.9350  218.6930 O   0  0  0  0  0  0  0  0  0  0  0  0
  141.3780   78.0420  219.7660 C   0  0  2  0  0  0  0  0  0  0  0  0
  142.2190   79.0960  219.4680 O   0  0  0  0  0  0  0  0  0  0  0  0
  141.4480   77.6620  221.2540 C   0  0  1  0  0  0  0  0  0  0  0  0
  140.8840   78.6470  222.1340 C   0  0  0  0  0  0  0  0  0  0  0  0
  139.4940   78.8690  222.0760 C   0  0  0  0  0  0  0  0  0  0  0  0
  138.8910   79.8230  222.8700 C   0  0  0  0  0  0  0  0  0  0  0  0
  139.6090   80.5930  223.7430 C   0  0  0  0  0  0  0  0  0  0  0  0
  140.9450   80.3770  223.7950 N   0  0  0  0  0  0  0  0  0  0  0  0
  141.5520   79.4510  223.0300 C   0  0  0  0  0  0  0  0  0  0  0  0
  140.1040   71.5150  223.6760 C   0  0  0  0  0  0  0  0  0  0  0  0
  139.4270   70.3350  223.4640 C   0  0  0  0  0  0  0  0  0  0  0  0
  139.2610   69.3850  224.4590 C   0  0  0  0  0  0  0  0  0  0  0  0
  139.7940   69.6220  225.7190 C   0  0  0  0  0  0  0  0  0  0  0  0
  139.6780   68.7360  226.7620 C   0  0  0  0  0  0  0  0  0  0  0  0
  140.2480   69.0660  227.9940 C   0  0  0  0  0  0  0  0  0  0  0  0
  140.9150   70.2460  228.1740 C   0  0  0  0  0  0  0  0  0  0  0  0
  141.0250   71.1280  227.1180 C   0  0  0  0  0  0  0  0  0  0  0  0
  140.4610   70.8070  225.8930 C   0  0  0  0  0  0  0  0  0  0  0  0
  140.6080   71.7120  224.9110 N   0  0  0  0  0  0  0  0  0  0  0  0
  138.2520   73.2560  222.8210 H   0  0  0  0  0  0  0  0  0  0  0  0
  139.9376   73.9364  220.4211 H   0  0  0  0  0  0  0  0  0  0  0  0
  138.3190   74.6122  220.8240 H   0  0  0  0  0  0  0  0  0  0  0  0
  142.9087   75.5432  220.6267 H   0  0  0  0  0  0  0  0  0  0  0  0
  141.6049   74.6870  219.8768 H   0  0  0  0  0  0  0  0  0  0  0  0
  141.2713   76.4666  218.2612 H   0  0  0  0  0  0  0  0  0  0  0  0
  143.7270   77.5150  219.2950 H   0  0  0  0  0  0  0  0  0  0  0  0
  140.3811   78.3680  219.4345 H   0  0  0  0  0  0  0  0  0  0  0  0
  143.1060   78.7590  219.1810 H   0  0  0  0  0  0  0  0  0  0  0  0
  142.4289   77.6717  221.7518 H   0  0  0  0  0  0  0  0  0  0  0  0
  138.8792   78.2720  221.3864 H   0  0  0  0  0  0  0  0  0  0  0  0
  137.8030   79.9682  222.7988 H   0  0  0  0  0  0  0  0  0  0  0  0
  139.1238   81.3525  224.3737 H   0  0  0  0  0  0  0  0  0  0  0  0
  142.6411   79.3299  223.1258 H   0  0  0  0  0  0  0  0  0  0  0  0
  139.0024   70.1392  222.4683 H   0  0  0  0  0  0  0  0  0  0  0  0
  138.7132   68.4536  224.2530 H   0  0  0  0  0  0  0  0  0  0  0  0
  139.1453   67.7827  226.6295 H   0  0  0  0  0  0  0  0  0  0  0  0
  140.1585   68.3631  228.8354 H   0  0  0  0  0  0  0  0  0  0  0  0
  141.3593   70.4899  229.1503 H   0  0  0  0  0  0  0  0  0  0  0  0
  141.5579   72.0815  227.2479 H   0  0  0  0  0  0  0  0  0  0  0  0
  1  2  2  0
  2  3  1  0
  3  4  1  0
  4  5  1  0
  5  6  2  0
  5  7  1  0
  7  8  1  0
  8  9  1  0
  9 10  1  0
  9 11  1  0
 11 12  1  0
 11 13  1  0
 13 14  1  0
 14 15  2  0
 15 16  1  0
 16 17  2  0
 17 18  1  0
 18 19  2  0
  2 20  1  0
 20 21  2  0
 21 22  1  0
 22 23  2  0
 23 24  1  0
 24 25  2  0
 25 26  1  0
 26 27  2  0
 27 28  1  0
 28 29  2  0
 13  7  1  0
 19 14  1  0
 29 20  1  0
 28 23  1  0
  3 30  1  0
  4 31  1  0
  4 32  1  0
  8 33  1  0
  8 34  1  0
  9 35  1  6
 10 36  1  0
 11 37  1  6
 12 38  1  0
 13 39  1  1
 15 40  1  0
 16 41  1  0
 17 42  1  0
 19 43  1  0
 21 44  1  0
 22 45  1  0
 24 46  1  0
 25 47  1  0
 26 48  1  0
 27 49  1  0
M  END
>  <smiles>  (30) 
O=C(NCC(=O)N1C[C@H](O)[C@H](O)[C@H]1c1cccnc1)c1ccc2ccccc2n1

>  <score_type>  (30) 
oracle

>  <origin>  (30) 
autodockgpu

>  <m_score__min__energy>  (30) 
-8.8499999999999996

>  <m_primary>  (30) 
energy

>  <rmsd>  (30) 
2.1869991465194025

>  <m_score__min__rmsd>  (30) 
2.1869991465194025

>  <meeko>  (30) 
{"free_energy": -8.48, "intermolecular_energy": -10.57, "internal_energy": -2.61, "cluster_size": 31, "cluster_id": 1, "rank_in_cluster": 15}

>  <energy>  (30) 
-7.81

>  <cluster_rmsd>  (30) 
1.14

>  <cluster>  (30) 
1

$$$$

     RDKit          3D

 49 52  0  0  0  0  0  0  0  0999 V2000
  138.9050   75.0680  222.0070 O   0  0  0  0  0  0  0  0  0  0  0  0
  140.0490   75.5690  222.0470 C   0  0  0  0  0  0  0  0  0  0  0  0
  141.2530   74.8280  221.9020 N   0  0  0  0  0  0  0  0  0  0  0  0
  141.1440   73.3610  221.6890 C   0  0  0  0  0  0  0  0  0  0  0  0
  141.8070   72.9870  220.4330 C   0  0  0  0  0  0  0  0  0  0  0  0
  141.2720   72.0030  219.7960 O   0  0  0  0  0  0  0  0  0  0  0  0
  142.9370   73.5540  219.8340 N   0  0  0  0  0  0  0  0  0  0  0  0
  144.2040   72.7430  219.7700 C   0  0  0  0  0  0  0  0  0  0  0  0
  144.5790   72.9580  218.3150 C   0  0  2  0  0  0  0  0  0  0  0  0
  145.9350   73.2130  218.2550 O   0  0  0  0  0  0  0  0  0  0  0  0
  143.7990   74.1900  217.8390 C   0  0  2  0  0  0  0  0  0  0  0  0
  144.6480   75.0740  217.2020 O   0  0  0  0  0  0  0  0  0  0  0  0
  143.3020   74.7480  219.1820 C   0  0  1  0  0  0  0  0  0  0  0  0
  142.4020   75.8610  219.0530 C   0  0  0  0  0  0  0  0  0  0  0  0
  142.9020   77.1510  219.3210 C   0  0  0  0  0  0  0  0  0  0  0  0
  142.0850   78.2600  219.2470 C   0  0  0  0  0  0  0  0  0  0  0  0
  140.7630   78.1610  218.9140 C   0  0  0  0  0  0  0  0  0  0  0  0
  140.2860   76.9190  218.6580 N   0  0  0  0  0  0  0  0  0  0  0  0
  141.0660   75.8250  218.7240 C   0  0  0  0  0  0  0  0  0  0  0  0
  140.1690   77.0250  222.2580 C   0  0  0  0  0  0  0  0  0  0  0  0
  139.0840   77.8630  222.1300 C   0  0  0  0  0  0  0  0  0  0  0  0
  139.1750   79.2330  222.3250 C   0  0  0  0  0  0  0  0  0  0  0  0
  140.4010   79.7890  222.6600 C   0  0  0  0  0  0  0  0  0  0  0  0
  140.5830   81.1340  222.8710 C   0  0  0  0  0  0  0  0  0  0  0  0
  141.8570   81.5990  223.2040 C   0  0  0  0  0  0  0  0  0  0  0  0
  142.9170   80.7420  223.3230 C   0  0  0  0  0  0  0  0  0  0  0  0
  142.7220   79.3930  223.1090 C   0  0  0  0  0  0  0  0  0  0  0  0
  141.4590   78.9250  222.7770 C   0  0  0  0  0  0  0  0  0  0  0  0
  141.3430   77.6000  222.5840 N   0  0  0  0  0  0  0  0  0  0  0  0
  142.1900   75.2900  221.9420 H   0  0  0  0  0  0  0  0  0  0  0  0
  141.6252   72.8342  222.5262 H   0  0  0  0  0  0  0  0  0  0  0  0
  140.0816   73.0812  221.6346 H   0  0  0  0  0  0  0  0  0  0  0  0
  144.9737   73.1331  220.4522 H   0  0  0  0  0  0  0  0  0  0  0  0
  144.0969   71.6904  220.0710 H   0  0  0  0  0  0  0  0  0  0  0  0
  144.3452   72.0836  217.6900 H   0  0  0  0  0  0  0  0  0  0  0  0
  146.1640   74.1540  218.4580 H   0  0  0  0  0  0  0  0  0  0  0  0
  142.9967   73.9895  217.1137 H   0  0  0  0  0  0  0  0  0  0  0  0
  145.5920   74.7980  217.3280 H   0  0  0  0  0  0  0  0  0  0  0  0
  144.0126   75.2997  219.8151 H   0  0  0  0  0  0  0  0  0  0  0  0
  143.9604   77.2755  219.5935 H   0  0  0  0  0  0  0  0  0  0  0  0
  142.5093   79.2518  219.4620 H   0  0  0  0  0  0  0  0  0  0  0  0
  140.1162   79.0489  218.8565 H   0  0  0  0  0  0  0  0  0  0  0  0
  140.6112   74.8481  218.5029 H   0  0  0  0  0  0  0  0  0  0  0  0
  138.1088   77.4297  221.8632 H   0  0  0  0  0  0  0  0  0  0  0  0
  138.2857   79.8711  222.2153 H   0  0  0  0  0  0  0  0  0  0  0  0
  139.7390   81.8334  222.7792 H   0  0  0  0  0  0  0  0  0  0  0  0
  142.0113   82.6748  223.3739 H   0  0  0  0  0  0  0  0  0  0  0  0
  143.9141   81.1245  223.5865 H   0  0  0  0  0  0  0  0  0  0  0  0
  143.5644   78.6916  223.2012 H   0  0  0  0  0  0  0  0  0  0  0  0
  1  2  2  0
  2  3  1  0
  3  4  1  0
  4  5  1  0
  5  6  2  0
  5  7  1  0
  7  8  1  0
  8  9  1  0
  9 10  1  0
  9 11  1  0
 11 12  1  0
 11 13  1  0
 13 14  1  0
 14 15  2  0
 15 16  1  0
 16 17  2  0
 17 18  1  0
 18 19  2  0
  2 20  1  0
 20 21  2  0
 21 22  1  0
 22 23  2  0
 23 24  1  0
 24 25  2  0
 25 26  1  0
 26 27  2  0
 27 28  1  0
 28 29  2  0
 13  7  1  0
 19 14  1  0
 29 20  1  0
 28 23  1  0
  3 30  1  0
  4 31  1  0
  4 32  1  0
  8 33  1  0
  8 34  1  0
  9 35  1  6
 10 36  1  0
 11 37  1  6
 12 38  1  0
 13 39  1  1
 15 40  1  0
 16 41  1  0
 17 42  1  0
 19 43  1  0
 21 44  1  0
 22 45  1  0
 24 46  1  0
 25 47  1  0
 26 48  1  0
 27 49  1  0
M  END
>  <smiles>  (31) 
O=C(NCC(=O)N1C[C@H](O)[C@H](O)[C@H]1c1cccnc1)c1ccc2ccccc2n1

>  <score_type>  (31) 
oracle

>  <origin>  (31) 
autodockgpu

>  <m_score__min__energy>  (31) 
-8.8499999999999996

>  <m_primary>  (31) 
energy

>  <rmsd>  (31) 
7.596183399862503

>  <m_score__min__rmsd>  (31) 
7.596183399862503

>  <meeko>  (31) 
{"free_energy": -6.89, "intermolecular_energy": -8.98, "internal_energy": -4.02, "cluster_size": 17, "cluster_id": 2, "rank_in_cluster": 17}

>  <energy>  (31) 
-7.51

>  <cluster_rmsd>  (31) 
1.77

>  <cluster>  (31) 
1

$$$$

     RDKit          3D

 49 52  0  0  0  0  0  0  0  0999 V2000
  138.9140   75.3010  221.9770 O   0  0  0  0  0  0  0  0  0  0  0  0
  140.0660   75.7860  221.9730 C   0  0  0  0  0  0  0  0  0  0  0  0
  141.2320   75.0730  221.5850 N   0  0  0  0  0  0  0  0  0  0  0  0
  141.0720   73.6590  221.1560 C   0  0  0  0  0  0  0  0  0  0  0  0
  142.3850   73.0750  220.8510 C   0  0  0  0  0  0  0  0  0  0  0  0
  142.6150   71.9240  221.3800 O   0  0  0  0  0  0  0  0  0  0  0  0
  143.4170   73.5990  220.0650 N   0  0  0  0  0  0  0  0  0  0  0  0
  144.7200   72.8500  219.9910 C   0  0  0  0  0  0  0  0  0  0  0  0
  144.9440   72.8620  218.4900 C   0  0  2  0  0  0  0  0  0  0  0  0
  146.2690   73.1700  218.2560 O   0  0  0  0  0  0  0  0  0  0  0  0
  144.0470   73.9690  217.9220 C   0  0  2  0  0  0  0  0  0  0  0  0
  144.7760   74.7870  217.0800 O   0  0  0  0  0  0  0  0  0  0  0  0
  143.6430   74.6980  219.2140 C   0  0  1  0  0  0  0  0  0  0  0  0
  142.6680   75.7340  219.0160 C   0  0  0  0  0  0  0  0  0  0  0  0
  142.9560   77.0190  219.5170 C   0  0  0  0  0  0  0  0  0  0  0  0
  142.0500   78.0520  219.3900 C   0  0  0  0  0  0  0  0  0  0  0  0
  140.8390   77.8790  218.7790 C   0  0  0  0  0  0  0  0  0  0  0  0
  140.5660   76.6420  218.2990 N   0  0  0  0  0  0  0  0  0  0  0  0
  141.4360   75.6220  218.4120 C   0  0  0  0  0  0  0  0  0  0  0  0
  140.2370   77.1900  222.3960 C   0  0  0  0  0  0  0  0  0  0  0  0
  139.1550   78.0080  222.6300 C   0  0  0  0  0  0  0  0  0  0  0  0
  139.2940   79.3280  223.0290 C   0  0  0  0  0  0  0  0  0  0  0  0
  140.5670   79.8540  223.2000 C   0  0  0  0  0  0  0  0  0  0  0  0
  140.7980   81.1500  223.5930 C   0  0  0  0  0  0  0  0  0  0  0  0
  142.1160   81.5860  223.7370 C   0  0  0  0  0  0  0  0  0  0  0  0
  143.1720   80.7490  223.4980 C   0  0  0  0  0  0  0  0  0  0  0  0
  142.9270   79.4500  223.1040 C   0  0  0  0  0  0  0  0  0  0  0  0
  141.6200   79.0100  222.9580 C   0  0  0  0  0  0  0  0  0  0  0  0
  141.4580   77.7330  222.5730 N   0  0  0  0  0  0  0  0  0  0  0  0
  142.1770   75.5200  221.5970 H   0  0  0  0  0  0  0  0  0  0  0  0
  140.5968   73.0845  221.9648 H   0  0  0  0  0  0  0  0  0  0  0  0
  140.4430   73.6242  220.2543 H   0  0  0  0  0  0  0  0  0  0  0  0
  145.5238   73.3746  220.5282 H   0  0  0  0  0  0  0  0  0  0  0  0
  144.7073   71.8505  220.4502 H   0  0  0  0  0  0  0  0  0  0  0  0
  144.7087   71.8931  218.0255 H   0  0  0  0  0  0  0  0  0  0  0  0
  146.4590   74.1400  218.3040 H   0  0  0  0  0  0  0  0  0  0  0  0
  143.1946   73.6235  217.3187 H   0  0  0  0  0  0  0  0  0  0  0  0
  145.7160   74.8490  217.3880 H   0  0  0  0  0  0  0  0  0  0  0  0
  144.3721   75.3724  219.6868 H   0  0  0  0  0  0  0  0  0  0  0  0
  143.9184   77.2016  220.0174 H   0  0  0  0  0  0  0  0  0  0  0  0
  142.3093   79.0427  219.7916 H   0  0  0  0  0  0  0  0  0  0  0  0
  140.1200   78.7058  218.6818 H   0  0  0  0  0  0  0  0  0  0  0  0
  141.1469   74.6444  217.9989 H   0  0  0  0  0  0  0  0  0  0  0  0
  138.1428   77.5990  222.4954 H   0  0  0  0  0  0  0  0  0  0  0  0
  138.4057   79.9516  223.2081 H   0  0  0  0  0  0  0  0  0  0  0  0
  139.9584   81.8325  223.7908 H   0  0  0  0  0  0  0  0  0  0  0  0
  142.3098   82.6229  224.0488 H   0  0  0  0  0  0  0  0  0  0  0  0
  144.2047   81.1081  223.6188 H   0  0  0  0  0  0  0  0  0  0  0  0
  143.7652   78.7656  222.9064 H   0  0  0  0  0  0  0  0  0  0  0  0
  1  2  2  0
  2  3  1  0
  3  4  1  0
  4  5  1  0
  5  6  2  0
  5  7  1  0
  7  8  1  0
  8  9  1  0
  9 10  1  0
  9 11  1  0
 11 12  1  0
 11 13  1  0
 13 14  1  0
 14 15  2  0
 15 16  1  0
 16 17  2  0
 17 18  1  0
 18 19  2  0
  2 20  1  0
 20 21  2  0
 21 22  1  0
 22 23  2  0
 23 24  1  0
 24 25  2  0
 25 26  1  0
 26 27  2  0
 27 28  1  0
 28 29  2  0
 13  7  1  0
 19 14  1  0
 29 20  1  0
 28 23  1  0
  3 30  1  0
  4 31  1  0
  4 32  1  0
  8 33  1  0
  8 34  1  0
  9 35  1  6
 10 36  1  0
 11 37  1  6
 12 38  1  0
 13 39  1  1
 15 40  1  0
 16 41  1  0
 17 42  1  0
 19 43  1  0
 21 44  1  0
 22 45  1  0
 24 46  1  0
 25 47  1  0
 26 48  1  0
 27 49  1  0
M  END
>  <smiles>  (32) 
O=C(NCC(=O)N1C[C@H](O)[C@H](O)[C@H]1c1cccnc1)c1ccc2ccccc2n1

>  <score_type>  (32) 
oracle

>  <origin>  (32) 
autodockgpu

>  <m_score__min__energy>  (32) 
-8.8499999999999996

>  <m_primary>  (32) 
energy

>  <rmsd>  (32) 
7.669949565285668

>  <m_score__min__rmsd>  (32) 
7.669949565285668

>  <meeko>  (32) 
{"free_energy": -7.84, "intermolecular_energy": -9.92, "internal_energy": -3.7, "cluster_size": 17, "cluster_id": 2, "rank_in_cluster": 3}

>  <energy>  (32) 
-7.84

>  <cluster_rmsd>  (32) 
0.0

>  <cluster>  (32) 
2

$$$$

     RDKit          3D

 49 52  0  0  0  0  0  0  0  0999 V2000
  141.1250   71.6940  221.4320 O   0  0  0  0  0  0  0  0  0  0  0  0
  140.5140   72.2420  222.3740 C   0  0  0  0  0  0  0  0  0  0  0  0
  140.0260   73.5760  222.3430 N   0  0  0  0  0  0  0  0  0  0  0  0
  140.2580   74.3720  221.1090 C   0  0  0  0  0  0  0  0  0  0  0  0
  139.9480   75.7860  221.3590 C   0  0  0  0  0  0  0  0  0  0  0  0
  139.4960   76.0540  222.5350 O   0  0  0  0  0  0  0  0  0  0  0  0
  140.0770   76.8780  220.4940 N   0  0  0  0  0  0  0  0  0  0  0  0
  139.5790   76.7440  219.0800 C   0  0  0  0  0  0  0  0  0  0  0  0
  138.7920   78.0360  218.9560 C   0  0  2  0  0  0  0  0  0  0  0  0
  139.0830   78.5990  217.7300 O   0  0  0  0  0  0  0  0  0  0  0  0
  139.2830   78.9580  220.0790 C   0  0  2  0  0  0  0  0  0  0  0  0
  139.5880   80.2060  219.5710 O   0  0  0  0  0  0  0  0  0  0  0  0
  140.5460   78.2060  220.5320 C   0  0  1  0  0  0  0  0  0  0  0  0
  141.1730   78.7700  221.6950 C   0  0  0  0  0  0  0  0  0  0  0  0
  141.9370   79.9420  221.5340 C   0  0  0  0  0  0  0  0  0  0  0  0
  142.5910   80.5180  222.6030 C   0  0  0  0  0  0  0  0  0  0  0  0
  142.5310   79.9820  223.8590 C   0  0  0  0  0  0  0  0  0  0  0  0
  141.7960   78.8540  224.0100 N   0  0  0  0  0  0  0  0  0  0  0  0
  141.1490   78.2780  222.9810 C   0  0  0  0  0  0  0  0  0  0  0  0
  140.2780   71.4610  223.6050 C   0  0  0  0  0  0  0  0  0  0  0  0
  139.6170   70.2540  223.5750 C   0  0  0  0  0  0  0  0  0  0  0  0
  139.3860   69.5050  224.7190 C   0  0  0  0  0  0  0  0  0  0  0  0
  139.8330   69.9820  225.9430 C   0  0  0  0  0  0  0  0  0  0  0  0
  139.6480   69.3070  227.1250 C   0  0  0  0  0  0  0  0  0  0  0  0
  140.1340   69.8700  228.3070 C   0  0  0  0  0  0  0  0  0  0  0  0
  140.7870   71.0720  228.3040 C   0  0  0  0  0  0  0  0  0  0  0  0
  140.9670   71.7400  227.1110 C   0  0  0  0  0  0  0  0  0  0  0  0
  140.4860   71.1880  225.9340 C   0  0  0  0  0  0  0  0  0  0  0  0
  140.6980   71.8930  224.8100 N   0  0  0  0  0  0  0  0  0  0  0  0
  139.5190   73.9940  223.1560 H   0  0  0  0  0  0  0  0  0  0  0  0
  141.3115   74.2777  220.8071 H   0  0  0  0  0  0  0  0  0  0  0  0
  139.6057   73.9950  220.3075 H   0  0  0  0  0  0  0  0  0  0  0  0
  140.4074   76.6993  218.3577 H   0  0  0  0  0  0  0  0  0  0  0  0
  139.0038   75.8290  218.8755 H   0  0  0  0  0  0  0  0  0  0  0  0
  137.7069   77.8727  219.0329 H   0  0  0  0  0  0  0  0  0  0  0  0
  139.9140   79.1360  217.7340 H   0  0  0  0  0  0  0  0  0  0  0  0
  138.5596   79.1451  220.8863 H   0  0  0  0  0  0  0  0  0  0  0  0
  138.9880   80.4250  218.8120 H   0  0  0  0  0  0  0  0  0  0  0  0
  141.4533   78.2832  219.9149 H   0  0  0  0  0  0  0  0  0  0  0  0
  142.0134   80.4056  220.5394 H   0  0  0  0  0  0  0  0  0  0  0  0
  143.1773   81.4344  222.4403 H   0  0  0  0  0  0  0  0  0  0  0  0
  143.0553   80.4451  224.7079 H   0  0  0  0  0  0  0  0  0  0  0  0
  140.5691   77.3641  223.1774 H   0  0  0  0  0  0  0  0  0  0  0  0
  139.2590   69.8696  222.6085 H   0  0  0  0  0  0  0  0  0  0  0  0
  138.8546   68.5439  224.6569 H   0  0  0  0  0  0  0  0  0  0  0  0
  139.1257   68.3390  227.1402 H   0  0  0  0  0  0  0  0  0  0  0  0
  139.9890   69.3369  229.2582 H   0  0  0  0  0  0  0  0  0  0  0  0
  141.1647   71.5014  229.2436 H   0  0  0  0  0  0  0  0  0  0  0  0
  141.4904   72.7073  227.0935 H   0  0  0  0  0  0  0  0  0  0  0  0
  1  2  2  0
  2  3  1  0
  3  4  1  0
  4  5  1  0
  5  6  2  0
  5  7  1  0
  7  8  1  0
  8  9  1  0
  9 10  1  0
  9 11  1  0
 11 12  1  0
 11 13  1  0
 13 14  1  0
 14 15  2  0
 15 16  1  0
 16 17  2  0
 17 18  1  0
 18 19  2  0
  2 20  1  0
 20 21  2  0
 21 22  1  0
 22 23  2  0
 23 24  1  0
 24 25  2  0
 25 26  1  0
 26 27  2  0
 27 28  1  0
 28 29  2  0
 13  7  1  0
 19 14  1  0
 29 20  1  0
 28 23  1  0
  3 30  1  0
  4 31  1  0
  4 32  1  0
  8 33  1  0
  8 34  1  0
  9 35  1  1
 10 36  1  0
 11 37  1  1
 12 38  1  0
 13 39  1  6
 15 40  1  0
 16 41  1  0
 17 42  1  0
 19 43  1  0
 21 44  1  0
 22 45  1  0
 24 46  1  0
 25 47  1  0
 26 48  1  0
 27 49  1  0
M  END
>  <smiles>  (33) 
O=C(NCC(=O)N1C[C@H](O)[C@H](O)[C@H]1c1cccnc1)c1ccc2ccccc2n1

>  <score_type>  (33) 
oracle

>  <origin>  (33) 
autodockgpu

>  <m_score__min__energy>  (33) 
-8.8499999999999996

>  <m_primary>  (33) 
energy

>  <rmsd>  (33) 
2.4222195996474705

>  <m_score__min__rmsd>  (33) 
2.4222195996474705

>  <meeko>  (33) 
{"free_energy": -7.51, "intermolecular_energy": -9.6, "internal_energy": -3.09, "cluster_size": 31, "cluster_id": 1, "rank_in_cluster": 31}

>  <energy>  (33) 
-7.84

>  <cluster_rmsd>  (33) 
0.08

>  <cluster>  (33) 
2

$$$$

     RDKit          3D

 49 52  0  0  0  0  0  0  0  0999 V2000
  141.1730   71.7600  221.5040 O   0  0  0  0  0  0  0  0  0  0  0  0
  140.4570   72.2390  222.4090 C   0  0  0  0  0  0  0  0  0  0  0  0
  139.8550   73.5260  222.3570 N   0  0  0  0  0  0  0  0  0  0  0  0
  140.0920   74.3560  221.1470 C   0  0  0  0  0  0  0  0  0  0  0  0
  140.5800   75.6840  221.5390 C   0  0  0  0  0  0  0  0  0  0  0  0
  140.1170   76.1380  222.6530 O   0  0  0  0  0  0  0  0  0  0  0  0
  141.4770   76.5230  220.8690 N   0  0  0  0  0  0  0  0  0  0  0  0
  142.3150   75.9450  219.7590 C   0  0  0  0  0  0  0  0  0  0  0  0
  142.1070   77.0070  218.6940 C   0  0  2  0  0  0  0  0  0  0  0  0
  143.3290   77.2760  218.1130 O   0  0  0  0  0  0  0  0  0  0  0  0
  141.5910   78.2580  219.4170 C   0  0  2  0  0  0  0  0  0  0  0  0
  142.3200   79.3650  219.0310 O   0  0  0  0  0  0  0  0  0  0  0  0
  141.8700   77.8760  220.8800 C   0  0  1  0  0  0  0  0  0  0  0  0
  141.3590   78.8190  221.8360 C   0  0  0  0  0  0  0  0  0  0  0  0
  142.2710   79.4230  222.7230 C   0  0  0  0  0  0  0  0  0  0  0  0
  141.8430   80.3130  223.6860 C   0  0  0  0  0  0  0  0  0  0  0  0
  140.5250   80.6470  223.8250 C   0  0  0  0  0  0  0  0  0  0  0  0
  139.6510   80.0640  222.9700 N   0  0  0  0  0  0  0  0  0  0  0  0
  140.0480   79.1950  222.0230 C   0  0  0  0  0  0  0  0  0  0  0  0
  140.2140   71.4230  223.6150 C   0  0  0  0  0  0  0  0  0  0  0  0
  139.5660   70.2110  223.5460 C   0  0  0  0  0  0  0  0  0  0  0  0
  139.3290   69.4300  224.6670 C   0  0  0  0  0  0  0  0  0  0  0  0
  139.7570   69.8790  225.9090 C   0  0  0  0  0  0  0  0  0  0  0  0
  139.5640   69.1700  227.0700 C   0  0  0  0  0  0  0  0  0  0  0  0
  140.0310   69.7070  228.2720 C   0  0  0  0  0  0  0  0  0  0  0  0
  140.6720   70.9150  228.3090 C   0  0  0  0  0  0  0  0  0  0  0  0
  140.8590   71.6170  227.1360 C   0  0  0  0  0  0  0  0  0  0  0  0
  140.3970   71.0910  225.9390 C   0  0  0  0  0  0  0  0  0  0  0  0
  140.6150   71.8280  224.8370 N   0  0  0  0  0  0  0  0  0  0  0  0
  139.2620   73.8850  223.1400 H   0  0  0  0  0  0  0  0  0  0  0  0
  140.8423   73.8654  220.5095 H   0  0  0  0  0  0  0  0  0  0  0  0
  139.1480   74.4663  220.5932 H   0  0  0  0  0  0  0  0  0  0  0  0
  143.3727   75.8582  220.0483 H   0  0  0  0  0  0  0  0  0  0  0  0
  142.0423   74.9235  219.4553 H   0  0  0  0  0  0  0  0  0  0  0  0
  141.3975   76.6857  217.9173 H   0  0  0  0  0  0  0  0  0  0  0  0
  143.8820   77.9060  218.6390 H   0  0  0  0  0  0  0  0  0  0  0  0
  140.5420   78.5208  219.2157 H   0  0  0  0  0  0  0  0  0  0  0  0
  143.2900   79.1620  219.0450 H   0  0  0  0  0  0  0  0  0  0  0  0
  142.9028   77.9462  221.2520 H   0  0  0  0  0  0  0  0  0  0  0  0
  143.3414   79.1812  222.6467 H   0  0  0  0  0  0  0  0  0  0  0  0
  142.5834   80.7668  224.3612 H   0  0  0  0  0  0  0  0  0  0  0  0
  140.1894   81.3566  224.5957 H   0  0  0  0  0  0  0  0  0  0  0  0
  139.2833   78.7612  221.3619 H   0  0  0  0  0  0  0  0  0  0  0  0
  139.2234   69.8484  222.5656 H   0  0  0  0  0  0  0  0  0  0  0  0
  138.8079   68.4658  224.5733 H   0  0  0  0  0  0  0  0  0  0  0  0
  139.0510   68.1971  227.0533 H   0  0  0  0  0  0  0  0  0  0  0  0
  139.8804   69.1476  229.2071 H   0  0  0  0  0  0  0  0  0  0  0  0
  141.0346   71.3225  229.2642 H   0  0  0  0  0  0  0  0  0  0  0  0
  141.3724   72.5898  227.1503 H   0  0  0  0  0  0  0  0  0  0  0  0
  1  2  2  0
  2  3  1  0
  3  4  1  0
  4  5  1  0
  5  6  2  0
  5  7  1  0
  7  8  1  0
  8  9  1  0
  9 10  1  0
  9 11  1  0
 11 12  1  0
 11 13  1  0
 13 14  1  0
 14 15  2  0
 15 16  1  0
 16 17  2  0
 17 18  1  0
 18 19  2  0
  2 20  1  0
 20 21  2  0
 21 22  1  0
 22 23  2  0
 23 24  1  0
 24 25  2  0
 25 26  1  0
 26 27  2  0
 27 28  1  0
 28 29  2  0
 13  7  1  0
 19 14  1  0
 29 20  1  0
 28 23  1  0
  3 30  1  0
  4 31  1  0
  4 32  1  0
  8 33  1  0
  8 34  1  0
  9 35  1  6
 10 36  1  0
 11 37  1  1
 12 38  1  0
 13 39  1  6
 15 40  1  0
 16 41  1  0
 17 42  1  0
 19 43  1  0
 21 44  1  0
 22 45  1  0
 24 46  1  0
 25 47  1  0
 26 48  1  0
 27 49  1  0
M  END
>  <smiles>  (34) 
O=C(NCC(=O)N1C[C@H](O)[C@H](O)[C@H]1c1cccnc1)c1ccc2ccccc2n1

>  <score_type>  (34) 
oracle

>  <origin>  (34) 
autodockgpu

>  <m_score__min__energy>  (34) 
-8.8499999999999996

>  <m_primary>  (34) 
energy

>  <rmsd>  (34) 
2.2933840120688

>  <m_score__min__rmsd>  (34) 
2.2933840120688

>  <meeko>  (34) 
{"free_energy": -8.68, "intermolecular_energy": -10.77, "internal_energy": -2.82, "cluster_size": 31, "cluster_id": 1, "rank_in_cluster": 3}

>  <energy>  (34) 
-7.84

>  <cluster_rmsd>  (34) 
0.05

>  <cluster>  (34) 
2

$$$$

     RDKit          3D

 49 52  0  0  0  0  0  0  0  0999 V2000
  141.4760   71.7480  222.1670 O   0  0  0  0  0  0  0  0  0  0  0  0
  140.5300   71.9550  222.9570 C   0  0  0  0  0  0  0  0  0  0  0  0
  139.4270   72.8070  222.6810 N   0  0  0  0  0  0  0  0  0  0  0  0
  139.3970   73.4990  221.3650 C   0  0  0  0  0  0  0  0  0  0  0  0
  139.5210   74.9490  221.5590 C   0  0  0  0  0  0  0  0  0  0  0  0
  138.4650   75.5420  221.9990 O   0  0  0  0  0  0  0  0  0  0  0  0
  140.6290   75.7730  221.3320 N   0  0  0  0  0  0  0  0  0  0  0  0
  141.8470   75.1810  220.6750 C   0  0  0  0  0  0  0  0  0  0  0  0
  142.1220   76.2440  219.6260 C   0  0  2  0  0  0  0  0  0  0  0  0
  143.4790   76.4930  219.6140 O   0  0  0  0  0  0  0  0  0  0  0  0
  141.3670   77.5030  220.0700 C   0  0  2  0  0  0  0  0  0  0  0  0
  142.2070   78.5990  220.0310 O   0  0  0  0  0  0  0  0  0  0  0  0
  141.0000   77.1200  221.5130 C   0  0  1  0  0  0  0  0  0  0  0  0
  140.1470   78.0720  222.1690 C   0  0  0  0  0  0  0  0  0  0  0  0
  140.6970   78.8470  223.2100 C   0  0  0  0  0  0  0  0  0  0  0  0
  139.9260   79.7570  223.9030 C   0  0  0  0  0  0  0  0  0  0  0  0
  138.6030   79.9490  223.6160 C   0  0  0  0  0  0  0  0  0  0  0  0
  138.0790   79.2020  222.6150 N   0  0  0  0  0  0  0  0  0  0  0  0
  138.8130   78.3100  221.9270 C   0  0  0  0  0  0  0  0  0  0  0  0
  140.5500   71.2730  224.2660 C   0  0  0  0  0  0  0  0  0  0  0  0
  141.0580   71.8850  225.3900 C   0  0  0  0  0  0  0  0  0  0  0  0
  141.0860   71.2620  226.6280 C   0  0  0  0  0  0  0  0  0  0  0  0
  140.5860   69.9730  226.7490 C   0  0  0  0  0  0  0  0  0  0  0  0
  140.5730   69.2810  227.9360 C   0  0  0  0  0  0  0  0  0  0  0  0
  140.0490   67.9870  227.9560 C   0  0  0  0  0  0  0  0  0  0  0  0
  139.5510   67.4050  226.8230 C   0  0  0  0  0  0  0  0  0  0  0  0
  139.5690   68.1100  225.6380 C   0  0  0  0  0  0  0  0  0  0  0  0
  140.0890   69.3950  225.6090 C   0  0  0  0  0  0  0  0  0  0  0  0
  140.0730   70.0220  224.4210 N   0  0  0  0  0  0  0  0  0  0  0  0
  138.6570   72.9500  223.3730 H   0  0  0  0  0  0  0  0  0  0  0  0
  140.2328   73.1412  220.7458 H   0  0  0  0  0  0  0  0  0  0  0  0
  138.4425   73.2814  220.8635 H   0  0  0  0  0  0  0  0  0  0  0  0
  142.6835   75.0788  221.3820 H   0  0  0  0  0  0  0  0  0  0  0  0
  141.7124   74.1633  220.2799 H   0  0  0  0  0  0  0  0  0  0  0  0
  141.8012   75.9323  218.6211 H   0  0  0  0  0  0  0  0  0  0  0  0
  143.7590   77.1610  220.2880 H   0  0  0  0  0  0  0  0  0  0  0  0
  140.5034   77.7803  219.4477 H   0  0  0  0  0  0  0  0  0  0  0  0
  143.0840   78.3480  219.6450 H   0  0  0  0  0  0  0  0  0  0  0  0
  141.7817   77.1761  222.2848 H   0  0  0  0  0  0  0  0  0  0  0  0
  141.7578   78.7242  223.4739 H   0  0  0  0  0  0  0  0  0  0  0  0
  140.3887   80.3449  224.7094 H   0  0  0  0  0  0  0  0  0  0  0  0
  137.9928   80.6760  224.1720 H   0  0  0  0  0  0  0  0  0  0  0  0
  138.3202   77.7388  221.1264 H   0  0  0  0  0  0  0  0  0  0  0  0
  141.4565   72.9065  225.3022 H   0  0  0  0  0  0  0  0  0  0  0  0
  141.4996   71.7831  227.5041 H   0  0  0  0  0  0  0  0  0  0  0  0
  140.9686   69.7386  228.8547 H   0  0  0  0  0  0  0  0  0  0  0  0
  140.0365   67.4247  228.9014 H   0  0  0  0  0  0  0  0  0  0  0  0
  139.1403   66.3851  226.8566 H   0  0  0  0  0  0  0  0  0  0  0  0
  139.1721   67.6544  224.7188 H   0  0  0  0  0  0  0  0  0  0  0  0
  1  2  2  0
  2  3  1  0
  3  4  1  0
  4  5  1  0
  5  6  2  0
  5  7  1  0
  7  8  1  0
  8  9  1  0
  9 10  1  0
  9 11  1  0
 11 12  1  0
 11 13  1  0
 13 14  1  0
 14 15  2  0
 15 16  1  0
 16 17  2  0
 17 18  1  0
 18 19  2  0
  2 20  1  0
 20 21  2  0
 21 22  1  0
 22 23  2  0
 23 24  1  0
 24 25  2  0
 25 26  1  0
 26 27  2  0
 27 28  1  0
 28 29  2  0
 13  7  1  0
 19 14  1  0
 29 20  1  0
 28 23  1  0
  3 30  1  0
  4 31  1  0
  4 32  1  0
  8 33  1  0
  8 34  1  0
  9 35  1  6
 10 36  1  0
 11 37  1  6
 12 38  1  0
 13 39  1  1
 15 40  1  0
 16 41  1  0
 17 42  1  0
 19 43  1  0
 21 44  1  0
 22 45  1  0
 24 46  1  0
 25 47  1  0
 26 48  1  0
 27 49  1  0
M  END
>  <smiles>  (35) 
O=C(NCC(=O)N1C[C@H](O)[C@H](O)[C@H]1c1cccnc1)c1ccc2ccccc2n1

>  <score_type>  (35) 
oracle

>  <origin>  (35) 
autodockgpu

>  <m_score__min__energy>  (35) 
-8.8499999999999996

>  <m_primary>  (35) 
energy

>  <rmsd>  (35) 
3.2275965824176565

>  <m_score__min__rmsd>  (35) 
3.2275965824176565

>  <meeko>  (35) 
{"free_energy": -8.32, "intermolecular_energy": -10.41, "internal_energy": -2.58, "cluster_size": 31, "cluster_id": 1, "rank_in_cluster": 25}

>  <energy>  (35) 
-7.8

>  <cluster_rmsd>  (35) 
0.08

>  <cluster>  (35) 
2

$$$$

     RDKit          3D

 49 52  0  0  0  0  0  0  0  0999 V2000
  141.1090   71.8540  221.3860 O   0  0  0  0  0  0  0  0  0  0  0  0
  140.4630   72.3490  222.3340 C   0  0  0  0  0  0  0  0  0  0  0  0
  139.9410   73.6710  222.3430 N   0  0  0  0  0  0  0  0  0  0  0  0
  140.1790   74.5200  221.1460 C   0  0  0  0  0  0  0  0  0  0  0  0
  140.6560   75.8460  221.5590 C   0  0  0  0  0  0  0  0  0  0  0  0
  140.2330   76.2530  222.7060 O   0  0  0  0  0  0  0  0  0  0  0  0
  141.5050   76.7240  220.8790 N   0  0  0  0  0  0  0  0  0  0  0  0
  142.3530   76.1860  219.7580 C   0  0  0  0  0  0  0  0  0  0  0  0
  142.0840   77.2380  218.6970 C   0  0  2  0  0  0  0  0  0  0  0  0
  143.2850   77.5620  218.1000 O   0  0  0  0  0  0  0  0  0  0  0  0
  141.5220   78.4640  219.4290 C   0  0  2  0  0  0  0  0  0  0  0  0
  142.1960   79.6040  219.0350 O   0  0  0  0  0  0  0  0  0  0  0  0
  141.8380   78.0930  220.8870 C   0  0  1  0  0  0  0  0  0  0  0  0
  141.2970   79.0110  221.8510 C   0  0  0  0  0  0  0  0  0  0  0  0
  142.2000   79.7600  222.6310 C   0  0  0  0  0  0  0  0  0  0  0  0
  141.7500   80.6360  223.5970 C   0  0  0  0  0  0  0  0  0  0  0  0
  140.4170   80.8170  223.8410 C   0  0  0  0  0  0  0  0  0  0  0  0
  139.5520   80.0950  223.0900 N   0  0  0  0  0  0  0  0  0  0  0  0
  139.9710   79.2360  222.1430 C   0  0  0  0  0  0  0  0  0  0  0  0
  140.2210   71.5140  223.5270 C   0  0  0  0  0  0  0  0  0  0  0  0
  139.5570   70.3110  223.4420 C   0  0  0  0  0  0  0  0  0  0  0  0
  139.3200   69.5120  224.5500 C   0  0  0  0  0  0  0  0  0  0  0  0
  139.7640   69.9340  225.7960 C   0  0  0  0  0  0  0  0  0  0  0  0
  139.5730   69.2070  226.9460 C   0  0  0  0  0  0  0  0  0  0  0  0
  140.0560   69.7160  228.1530 C   0  0  0  0  0  0  0  0  0  0  0  0
  140.7120   70.9160  228.2070 C   0  0  0  0  0  0  0  0  0  0  0  0
  140.8980   71.6360  227.0450 C   0  0  0  0  0  0  0  0  0  0  0  0
  140.4200   71.1370  225.8430 C   0  0  0  0  0  0  0  0  0  0  0  0
  140.6370   71.8910  224.7530 N   0  0  0  0  0  0  0  0  0  0  0  0
  139.4050   74.0430  223.1600 H   0  0  0  0  0  0  0  0  0  0  0  0
  140.9360   74.0434  220.5058 H   0  0  0  0  0  0  0  0  0  0  0  0
  139.2371   74.6319  220.5890 H   0  0  0  0  0  0  0  0  0  0  0  0
  143.4172   76.1467  220.0336 H   0  0  0  0  0  0  0  0  0  0  0  0
  142.1222   75.1536  219.4564 H   0  0  0  0  0  0  0  0  0  0  0  0
  141.3798   76.8858  217.9289 H   0  0  0  0  0  0  0  0  0  0  0  0
  143.8080   78.2290  218.6110 H   0  0  0  0  0  0  0  0  0  0  0  0
  140.4597   78.6798  219.2423 H   0  0  0  0  0  0  0  0  0  0  0  0
  142.6980   79.4350  218.1970 H   0  0  0  0  0  0  0  0  0  0  0  0
  142.8718   78.2085  221.2447 H   0  0  0  0  0  0  0  0  0  0  0  0
  143.2816   79.6444  222.4671 H   0  0  0  0  0  0  0  0  0  0  0  0
  142.4838   81.2045  224.1872 H   0  0  0  0  0  0  0  0  0  0  0  0
  140.0634   81.5172  224.6122 H   0  0  0  0  0  0  0  0  0  0  0  0
  139.2118   78.6830  221.5705 H   0  0  0  0  0  0  0  0  0  0  0  0
  139.2012   69.9710  222.4582 H   0  0  0  0  0  0  0  0  0  0  0  0
  138.7869   68.5558  224.4433 H   0  0  0  0  0  0  0  0  0  0  0  0
  139.0485   68.2405  226.9163 H   0  0  0  0  0  0  0  0  0  0  0  0
  139.9064   69.1412  229.0789 H   0  0  0  0  0  0  0  0  0  0  0  0
  141.0868   71.3021  229.1664 H   0  0  0  0  0  0  0  0  0  0  0  0
  141.4234   72.6020  227.0720 H   0  0  0  0  0  0  0  0  0  0  0  0
  1  2  2  0
  2  3  1  0
  3  4  1  0
  4  5  1  0
  5  6  2  0
  5  7  1  0
  7  8  1  0
  8  9  1  0
  9 10  1  0
  9 11  1  0
 11 12  1  0
 11 13  1  0
 13 14  1  0
 14 15  2  0
 15 16  1  0
 16 17  2  0
 17 18  1  0
 18 19  2  0
  2 20  1  0
 20 21  2  0
 21 22  1  0
 22 23  2  0
 23 24  1  0
 24 25  2  0
 25 26  1  0
 26 27  2  0
 27 28  1  0
 28 29  2  0
 13  7  1  0
 19 14  1  0
 29 20  1  0
 28 23  1  0
  3 30  1  0
  4 31  1  0
  4 32  1  0
  8 33  1  0
  8 34  1  0
  9 35  1  6
 10 36  1  0
 11 37  1  1
 12 38  1  0
 13 39  1  6
 15 40  1  0
 16 41  1  0
 17 42  1  0
 19 43  1  0
 21 44  1  0
 22 45  1  0
 24 46  1  0
 25 47  1  0
 26 48  1  0
 27 49  1  0
M  END
>  <smiles>  (36) 
O=C(NCC(=O)N1C[C@H](O)[C@H](O)[C@H]1c1cccnc1)c1ccc2ccccc2n1

>  <score_type>  (36) 
oracle

>  <origin>  (36) 
autodockgpu

>  <m_score__min__energy>  (36) 
-8.8499999999999996

>  <m_primary>  (36) 
energy

>  <rmsd>  (36) 
2.340036832885432

>  <m_score__min__rmsd>  (36) 
2.340036832885432

>  <meeko>  (36) 
{"free_energy": -8.49, "intermolecular_energy": -10.58, "internal_energy": -2.96, "cluster_size": 31, "cluster_id": 1, "rank_in_cluster": 14}

>  <energy>  (36) 
-7.8

>  <cluster_rmsd>  (36) 
0.09

>  <cluster>  (36) 
2

$$$$

     RDKit          3D

 49 52  0  0  0  0  0  0  0  0999 V2000
  138.9100   75.2980  221.7470 O   0  0  0  0  0  0  0  0  0  0  0  0
  140.0690   75.7400  221.9040 C   0  0  0  0  0  0  0  0  0  0  0  0
  141.2510   74.9910  221.6580 N   0  0  0  0  0  0  0  0  0  0  0  0
  141.1000   73.5900  221.1830 C   0  0  0  0  0  0  0  0  0  0  0  0
  142.4170   73.0240  220.8650 C   0  0  0  0  0  0  0  0  0  0  0  0
  142.6750   71.8830  221.4040 O   0  0  0  0  0  0  0  0  0  0  0  0
  143.4280   73.5550  220.0550 N   0  0  0  0  0  0  0  0  0  0  0  0
  144.7350   72.8160  219.9560 C   0  0  0  0  0  0  0  0  0  0  0  0
  144.9270   72.8260  218.4500 C   0  0  2  0  0  0  0  0  0  0  0  0
  146.2450   73.1440  218.1880 O   0  0  0  0  0  0  0  0  0  0  0  0
  144.0090   73.9240  217.8980 C   0  0  2  0  0  0  0  0  0  0  0  0
  144.7140   74.7450  217.0390 O   0  0  0  0  0  0  0  0  0  0  0  0
  143.6270   74.6530  219.1960 C   0  0  1  0  0  0  0  0  0  0  0  0
  142.6390   75.6810  219.0170 C   0  0  0  0  0  0  0  0  0  0  0  0
  142.9420   76.9780  219.4770 C   0  0  0  0  0  0  0  0  0  0  0  0
  142.0270   78.0040  219.3650 C   0  0  0  0  0  0  0  0  0  0  0  0
  140.7920   77.8120  218.8090 C   0  0  0  0  0  0  0  0  0  0  0  0
  140.5050   76.5640  218.3690 N   0  0  0  0  0  0  0  0  0  0  0  0
  141.3840   75.5500  218.4670 C   0  0  0  0  0  0  0  0  0  0  0  0
  140.2300   77.1300  222.3750 C   0  0  0  0  0  0  0  0  0  0  0  0
  139.1430   77.9180  222.6800 C   0  0  0  0  0  0  0  0  0  0  0  0
  139.2740   79.2240  223.1240 C   0  0  0  0  0  0  0  0  0  0  0  0
  140.5430   79.7670  223.2700 C   0  0  0  0  0  0  0  0  0  0  0  0
  140.7650   81.0510  223.7040 C   0  0  0  0  0  0  0  0  0  0  0  0
  142.0810   81.5060  223.8180 C   0  0  0  0  0  0  0  0  0  0  0  0
  143.1410   80.6990  223.5080 C   0  0  0  0  0  0  0  0  0  0  0  0
  142.9050   79.4110  223.0740 C   0  0  0  0  0  0  0  0  0  0  0  0
  141.6010   78.9530  222.9570 C   0  0  0  0  0  0  0  0  0  0  0  0
  141.4470   77.6890  222.5290 N   0  0  0  0  0  0  0  0  0  0  0  0
  142.2010   75.4020  221.8030 H   0  0  0  0  0  0  0  0  0  0  0  0
  140.6248   72.9872  221.9709 H   0  0  0  0  0  0  0  0  0  0  0  0
  140.4743   73.5804  220.2783 H   0  0  0  0  0  0  0  0  0  0  0  0
  145.5458   73.3484  220.4749 H   0  0  0  0  0  0  0  0  0  0  0  0
  144.7402   71.8178  220.4181 H   0  0  0  0  0  0  0  0  0  0  0  0
  144.6896   71.8543  217.9924 H   0  0  0  0  0  0  0  0  0  0  0  0
  146.4240   74.1160  218.2120 H   0  0  0  0  0  0  0  0  0  0  0  0
  143.1466   73.5704  217.3138 H   0  0  0  0  0  0  0  0  0  0  0  0
  145.5640   75.0340  217.4580 H   0  0  0  0  0  0  0  0  0  0  0  0
  144.3612   75.3345  219.6504 H   0  0  0  0  0  0  0  0  0  0  0  0
  143.9236   77.1753  219.9325 H   0  0  0  0  0  0  0  0  0  0  0  0
  142.2979   79.0046  219.7331 H   0  0  0  0  0  0  0  0  0  0  0  0
  140.0656   78.6335  218.7233 H   0  0  0  0  0  0  0  0  0  0  0  0
  141.0833   74.5625  218.0869 H   0  0  0  0  0  0  0  0  0  0  0  0
  138.1337   77.4954  222.5671 H   0  0  0  0  0  0  0  0  0  0  0  0
  138.3822   79.8238  223.3582 H   0  0  0  0  0  0  0  0  0  0  0  0
  139.9213   81.7097  223.9574 H   0  0  0  0  0  0  0  0  0  0  0  0
  142.2684   82.5333  224.1638 H   0  0  0  0  0  0  0  0  0  0  0  0
  144.1710   81.0732  223.6038 H   0  0  0  0  0  0  0  0  0  0  0  0
  143.7473   78.7500  222.8218 H   0  0  0  0  0  0  0  0  0  0  0  0
  1  2  2  0
  2  3  1  0
  3  4  1  0
  4  5  1  0
  5  6  2  0
  5  7  1  0
  7  8  1  0
  8  9  1  0
  9 10  1  0
  9 11  1  0
 11 12  1  0
 11 13  1  0
 13 14  1  0
 14 15  2  0
 15 16  1  0
 16 17  2  0
 17 18  1  0
 18 19  2  0
  2 20  1  0
 20 21  2  0
 21 22  1  0
 22 23  2  0
 23 24  1  0
 24 25  2  0
 25 26  1  0
 26 27  2  0
 27 28  1  0
 28 29  2  0
 13  7  1  0
 19 14  1  0
 29 20  1  0
 28 23  1  0
  3 30  1  0
  4 31  1  0
  4 32  1  0
  8 33  1  0
  8 34  1  0
  9 35  1  6
 10 36  1  0
 11 37  1  6
 12 38  1  0
 13 39  1  1
 15 40  1  0
 16 41  1  0
 17 42  1  0
 19 43  1  0
 21 44  1  0
 22 45  1  0
 24 46  1  0
 25 47  1  0
 26 48  1  0
 27 49  1  0
M  END
>  <smiles>  (37) 
O=C(NCC(=O)N1C[C@H](O)[C@H](O)[C@H]1c1cccnc1)c1ccc2ccccc2n1

>  <score_type>  (37) 
oracle

>  <origin>  (37) 
autodockgpu

>  <m_score__min__energy>  (37) 
-8.8499999999999996

>  <m_primary>  (37) 
energy

>  <rmsd>  (37) 
7.618826576604901

>  <m_score__min__rmsd>  (37) 
7.618826576604901

>  <meeko>  (37) 
{"free_energy": -7.8, "intermolecular_energy": -9.89, "internal_energy": -3.75, "cluster_size": 17, "cluster_id": 2, "rank_in_cluster": 5}

>  <energy>  (37) 
-7.79

>  <cluster_rmsd>  (37) 
0.14

>  <cluster>  (37) 
2

$$$$

     RDKit          3D

 49 52  0  0  0  0  0  0  0  0999 V2000
  138.7650   75.4250  221.9780 O   0  0  0  0  0  0  0  0  0  0  0  0
  139.9350   75.8650  221.9950 C   0  0  0  0  0  0  0  0  0  0  0  0
  141.0820   75.1030  221.6450 N   0  0  0  0  0  0  0  0  0  0  0  0
  140.8780   73.6900  221.2310 C   0  0  0  0  0  0  0  0  0  0  0  0
  142.1690   73.0730  220.9020 C   0  0  0  0  0  0  0  0  0  0  0  0
  142.3450   71.8800  221.3550 O   0  0  0  0  0  0  0  0  0  0  0  0
  143.2330   73.6040  220.1630 N   0  0  0  0  0  0  0  0  0  0  0  0
  144.5160   72.8210  220.0800 C   0  0  0  0  0  0  0  0  0  0  0  0
  144.7730   72.8980  218.5850 C   0  0  2  0  0  0  0  0  0  0  0  0
  146.1110   73.1780  218.3940 O   0  0  0  0  0  0  0  0  0  0  0  0
  143.9200   74.0570  218.0540 C   0  0  2  0  0  0  0  0  0  0  0  0
  144.6900   74.8930  217.2680 O   0  0  0  0  0  0  0  0  0  0  0  0
  143.5090   74.7350  219.3710 C   0  0  1  0  0  0  0  0  0  0  0  0
  142.5680   75.8080  219.2050 C   0  0  0  0  0  0  0  0  0  0  0  0
  141.4100   75.5610  218.4420 C   0  0  0  0  0  0  0  0  0  0  0  0
  140.4810   76.5550  218.2160 C   0  0  0  0  0  0  0  0  0  0  0  0
  140.6400   77.8180  218.7160 C   0  0  0  0  0  0  0  0  0  0  0  0
  141.7550   78.0520  219.4490 N   0  0  0  0  0  0  0  0  0  0  0  0
  142.6720   77.0950  219.6810 C   0  0  0  0  0  0  0  0  0  0  0  0
  140.1490   77.2670  222.4040 C   0  0  0  0  0  0  0  0  0  0  0  0
  139.0930   78.1230  222.6240 C   0  0  0  0  0  0  0  0  0  0  0  0
  139.2720   79.4420  223.0100 C   0  0  0  0  0  0  0  0  0  0  0  0
  140.5610   79.9280  223.1820 C   0  0  0  0  0  0  0  0  0  0  0  0
  140.8320   81.2200  223.5610 C   0  0  0  0  0  0  0  0  0  0  0  0
  142.1630   81.6160  223.7070 C   0  0  0  0  0  0  0  0  0  0  0  0
  143.1920   80.7430  223.4820 C   0  0  0  0  0  0  0  0  0  0  0  0
  142.9080   79.4480  223.1010 C   0  0  0  0  0  0  0  0  0  0  0  0
  141.5880   79.0480  222.9530 C   0  0  0  0  0  0  0  0  0  0  0  0
  141.3860   77.7740  222.5810 N   0  0  0  0  0  0  0  0  0  0  0  0
  142.0430   75.5150  221.6740 H   0  0  0  0  0  0  0  0  0  0  0  0
  140.4073   73.1332  222.0546 H   0  0  0  0  0  0  0  0  0  0  0  0
  140.2280   73.6633  220.3440 H   0  0  0  0  0  0  0  0  0  0  0  0
  145.3225   73.2956  220.6582 H   0  0  0  0  0  0  0  0  0  0  0  0
  144.4651   71.8017  220.4903 H   0  0  0  0  0  0  0  0  0  0  0  0
  144.5208   71.9600  218.0687 H   0  0  0  0  0  0  0  0  0  0  0  0
  146.3260   74.1390  218.4860 H   0  0  0  0  0  0  0  0  0  0  0  0
  143.0713   73.7656  217.4178 H   0  0  0  0  0  0  0  0  0  0  0  0
  145.6450   74.6320  217.3200 H   0  0  0  0  0  0  0  0  0  0  0  0
  144.2473   75.3644  219.8894 H   0  0  0  0  0  0  0  0  0  0  0  0
  141.2439   74.5590  218.0195 H   0  0  0  0  0  0  0  0  0  0  0  0
  139.5874   76.3256  217.6170 H   0  0  0  0  0  0  0  0  0  0  0  0
  139.8967   78.6076  218.5315 H   0  0  0  0  0  0  0  0  0  0  0  0
  143.5538   77.3559  220.2847 H   0  0  0  0  0  0  0  0  0  0  0  0
  138.0687   77.7457  222.4882 H   0  0  0  0  0  0  0  0  0  0  0  0
  138.4034   80.0957  223.1780 H   0  0  0  0  0  0  0  0  0  0  0  0
  140.0137   81.9313  223.7465 H   0  0  0  0  0  0  0  0  0  0  0  0
  142.3884   82.6495  224.0087 H   0  0  0  0  0  0  0  0  0  0  0  0
  144.2351   81.0704  223.6036 H   0  0  0  0  0  0  0  0  0  0  0  0
  143.7251   78.7353  222.9153 H   0  0  0  0  0  0  0  0  0  0  0  0
  1  2  2  0
  2  3  1  0
  3  4  1  0
  4  5  1  0
  5  6  2  0
  5  7  1  0
  7  8  1  0
  8  9  1  0
  9 10  1  0
  9 11  1  0
 11 12  1  0
 11 13  1  0
 13 14  1  0
 14 15  2  0
 15 16  1  0
 16 17  2  0
 17 18  1  0
 18 19  2  0
  2 20  1  0
 20 21  2  0
 21 22  1  0
 22 23  2  0
 23 24  1  0
 24 25  2  0
 25 26  1  0
 26 27  2  0
 27 28  1  0
 28 29  2  0
 13  7  1  0
 19 14  1  0
 29 20  1  0
 28 23  1  0
  3 30  1  0
  4 31  1  0
  4 32  1  0
  8 33  1  0
  8 34  1  0
  9 35  1  6
 10 36  1  0
 11 37  1  6
 12 38  1  0
 13 39  1  1
 15 40  1  0
 16 41  1  0
 17 42  1  0
 19 43  1  0
 21 44  1  0
 22 45  1  0
 24 46  1  0
 25 47  1  0
 26 48  1  0
 27 49  1  0
M  END
>  <smiles>  (38) 
O=C(NCC(=O)N1C[C@H](O)[C@H](O)[C@H]1c1cccnc1)c1ccc2ccccc2n1

>  <score_type>  (38) 
oracle

>  <origin>  (38) 
autodockgpu

>  <m_score__min__energy>  (38) 
-8.8499999999999996

>  <m_primary>  (38) 
energy

>  <rmsd>  (38) 
7.668309152766463

>  <m_score__min__rmsd>  (38) 
7.668309152766463

>  <meeko>  (38) 
{"free_energy": -7.45, "intermolecular_energy": -9.54, "internal_energy": -3.76, "cluster_size": 17, "cluster_id": 2, "rank_in_cluster": 12}

>  <energy>  (38) 
-7.79

>  <cluster_rmsd>  (38) 
0.1

>  <cluster>  (38) 
2

$$$$

     RDKit          3D

 49 52  0  0  0  0  0  0  0  0999 V2000
  140.7010   71.0320  221.8110 O   0  0  0  0  0  0  0  0  0  0  0  0
  140.3470   71.7530  222.7680 C   0  0  0  0  0  0  0  0  0  0  0  0
  139.9370   73.1070  222.6400 N   0  0  0  0  0  0  0  0  0  0  0  0
  139.9290   73.7060  221.2800 C   0  0  0  0  0  0  0  0  0  0  0  0
  140.6760   74.9700  221.2840 C   0  0  0  0  0  0  0  0  0  0  0  0
  140.1840   75.9030  222.0230 O   0  0  0  0  0  0  0  0  0  0  0  0
  141.8500   75.2970  220.5960 N   0  0  0  0  0  0  0  0  0  0  0  0
  142.7970   74.1910  220.2150 C   0  0  0  0  0  0  0  0  0  0  0  0
  143.0530   74.5540  218.7640 C   0  0  2  0  0  0  0  0  0  0  0  0
  144.4060   74.4270  218.5220 O   0  0  0  0  0  0  0  0  0  0  0  0
  142.6330   76.0200  218.5980 C   0  0  2  0  0  0  0  0  0  0  0  0
  143.6320   76.7320  217.9630 O   0  0  0  0  0  0  0  0  0  0  0  0
  142.4830   76.4400  220.0690 C   0  0  1  0  0  0  0  0  0  0  0  0
  141.9530   77.7640  220.2450 C   0  0  0  0  0  0  0  0  0  0  0  0
  141.8190   78.2550  221.5590 C   0  0  0  0  0  0  0  0  0  0  0  0
  141.2890   79.5050  221.8010 C   0  0  0  0  0  0  0  0  0  0  0  0
  140.8700   80.3200  220.7860 C   0  0  0  0  0  0  0  0  0  0  0  0
  141.0010   79.8440  219.5240 N   0  0  0  0  0  0  0  0  0  0  0  0
  141.5160   78.6290  219.2670 C   0  0  0  0  0  0  0  0  0  0  0  0
  140.3510   71.1680  224.1240 C   0  0  0  0  0  0  0  0  0  0  0  0
  140.7440   71.9000  225.2220 C   0  0  0  0  0  0  0  0  0  0  0  0
  140.7550   71.3700  226.5030 C   0  0  0  0  0  0  0  0  0  0  0  0
  140.3570   70.0540  226.6950 C   0  0  0  0  0  0  0  0  0  0  0  0
  140.3370   69.4480  227.9280 C   0  0  0  0  0  0  0  0  0  0  0  0
  139.9210   68.1180  228.0190 C   0  0  0  0  0  0  0  0  0  0  0  0
  139.5360   67.4170  226.9090 C   0  0  0  0  0  0  0  0  0  0  0  0
  139.5600   68.0360  225.6770 C   0  0  0  0  0  0  0  0  0  0  0  0
  139.9740   69.3560  225.5790 C   0  0  0  0  0  0  0  0  0  0  0  0
  139.9710   69.8950  224.3480 N   0  0  0  0  0  0  0  0  0  0  0  0
  139.6490   73.6730  223.4710 H   0  0  0  0  0  0  0  0  0  0  0  0
  140.3984   73.0076  220.5715 H   0  0  0  0  0  0  0  0  0  0  0  0
  138.8896   73.9016  220.9775 H   0  0  0  0  0  0  0  0  0  0  0  0
  143.7202   74.2198  220.8123 H   0  0  0  0  0  0  0  0  0  0  0  0
  142.4117   73.1736  220.3778 H   0  0  0  0  0  0  0  0  0  0  0  0
  142.4970   73.9083  218.0684 H   0  0  0  0  0  0  0  0  0  0  0  0
  144.7500   75.0850  217.8690 H   0  0  0  0  0  0  0  0  0  0  0  0
  141.7311   76.1875  217.9909 H   0  0  0  0  0  0  0  0  0  0  0  0
  144.5230   76.4300  218.2750 H   0  0  0  0  0  0  0  0  0  0  0  0
  143.3935   76.6462  220.6508 H   0  0  0  0  0  0  0  0  0  0  0  0
  142.1423   77.6312  222.4054 H   0  0  0  0  0  0  0  0  0  0  0  0
  141.2008   79.8563  222.8397 H   0  0  0  0  0  0  0  0  0  0  0  0
  140.4464   81.3155  220.9847 H   0  0  0  0  0  0  0  0  0  0  0  0
  141.5925   78.3083  218.2176 H   0  0  0  0  0  0  0  0  0  0  0  0
  141.0608   72.9434  225.0775 H   0  0  0  0  0  0  0  0  0  0  0  0
  141.0753   71.9849  227.3570 H   0  0  0  0  0  0  0  0  0  0  0  0
  140.6435   70.0011  228.8281 H   0  0  0  0  0  0  0  0  0  0  0  0
  139.9025   67.6246  229.0019 H   0  0  0  0  0  0  0  0  0  0  0  0
  139.2105   66.3701  226.9984 H   0  0  0  0  0  0  0  0  0  0  0  0
  139.2521   67.4852  224.7760 H   0  0  0  0  0  0  0  0  0  0  0  0
  1  2  2  0
  2  3  1  0
  3  4  1  0
  4  5  1  0
  5  6  2  0
  5  7  1  0
  7  8  1  0
  8  9  1  0
  9 10  1  0
  9 11  1  0
 11 12  1  0
 11 13  1  0
 13 14  1  0
 14 15  2  0
 15 16  1  0
 16 17  2  0
 17 18  1  0
 18 19  2  0
  2 20  1  0
 20 21  2  0
 21 22  1  0
 22 23  2  0
 23 24  1  0
 24 25  2  0
 25 26  1  0
 26 27  2  0
 27 28  1  0
 28 29  2  0
 13  7  1  0
 19 14  1  0
 29 20  1  0
 28 23  1  0
  3 30  1  0
  4 31  1  0
  4 32  1  0
  8 33  1  0
  8 34  1  0
  9 35  1  6
 10 36  1  0
 11 37  1  6
 12 38  1  0
 13 39  1  1
 15 40  1  0
 16 41  1  0
 17 42  1  0
 19 43  1  0
 21 44  1  0
 22 45  1  0
 24 46  1  0
 25 47  1  0
 26 48  1  0
 27 49  1  0
M  END
>  <smiles>  (39) 
O=C(NCC(=O)N1C[C@H](O)[C@H](O)[C@H]1c1cccnc1)c1ccc2ccccc2n1

>  <score_type>  (39) 
oracle

>  <origin>  (39) 
autodockgpu

>  <m_score__min__energy>  (39) 
-8.8499999999999996

>  <m_primary>  (39) 
energy

>  <rmsd>  (39) 
3.1292893577134118

>  <m_score__min__rmsd>  (39) 
3.1292893577134118

>  <meeko>  (39) 
{"free_energy": -7.84, "intermolecular_energy": -9.93, "internal_energy": -2.64, "cluster_size": 31, "cluster_id": 1, "rank_in_cluster": 29}

>  <energy>  (39) 
-7.78

>  <cluster_rmsd>  (39) 
0.1

>  <cluster>  (39) 
2

$$$$

     RDKit          3D

 49 52  0  0  0  0  0  0  0  0999 V2000
  141.0720   71.6560  221.4160 O   0  0  0  0  0  0  0  0  0  0  0  0
  140.4890   72.2220  222.3640 C   0  0  0  0  0  0  0  0  0  0  0  0
  140.0270   73.5650  222.3330 N   0  0  0  0  0  0  0  0  0  0  0  0
  140.2520   74.3480  221.0900 C   0  0  0  0  0  0  0  0  0  0  0  0
  140.7160   75.7000  221.4270 C   0  0  0  0  0  0  0  0  0  0  0  0
  140.2630   76.1820  222.5320 O   0  0  0  0  0  0  0  0  0  0  0  0
  141.5830   76.5340  220.7120 N   0  0  0  0  0  0  0  0  0  0  0  0
  142.3360   75.9600  219.5420 C   0  0  0  0  0  0  0  0  0  0  0  0
  142.0790   77.0430  218.5090 C   0  0  2  0  0  0  0  0  0  0  0  0
  143.2660   77.3000  217.8530 O   0  0  0  0  0  0  0  0  0  0  0  0
  141.6350   78.2900  219.2830 C   0  0  2  0  0  0  0  0  0  0  0  0
  142.3570   79.3920  218.8670 O   0  0  0  0  0  0  0  0  0  0  0  0
  142.0010   77.8790  220.7190 C   0  0  1  0  0  0  0  0  0  0  0  0
  141.5710   78.8150  221.7200 C   0  0  0  0  0  0  0  0  0  0  0  0
  142.5530   79.4160  222.5310 C   0  0  0  0  0  0  0  0  0  0  0  0
  142.2070   80.2990  223.5330 C   0  0  0  0  0  0  0  0  0  0  0  0
  140.9040   80.6290  223.7840 C   0  0  0  0  0  0  0  0  0  0  0  0
  139.9620   80.0500  223.0020 N   0  0  0  0  0  0  0  0  0  0  0  0
  140.2790   79.1870  222.0200 C   0  0  0  0  0  0  0  0  0  0  0  0
  140.2590   71.4530  223.6040 C   0  0  0  0  0  0  0  0  0  0  0  0
  139.5850   70.2520  223.5920 C   0  0  0  0  0  0  0  0  0  0  0  0
  139.3600   69.5150  224.7440 C   0  0  0  0  0  0  0  0  0  0  0  0
  139.8270   69.9980  225.9600 C   0  0  0  0  0  0  0  0  0  0  0  0
  139.6490   69.3340  227.1490 C   0  0  0  0  0  0  0  0  0  0  0  0
  140.1550   69.9020  228.3200 C   0  0  0  0  0  0  0  0  0  0  0  0
  140.8210   71.0960  228.3000 C   0  0  0  0  0  0  0  0  0  0  0  0
  140.9930   71.7530  227.0990 C   0  0  0  0  0  0  0  0  0  0  0  0
  140.4920   71.1960  225.9320 C   0  0  0  0  0  0  0  0  0  0  0  0
  140.6980   71.8900  224.8010 N   0  0  0  0  0  0  0  0  0  0  0  0
  139.5420   73.9980  223.1520 H   0  0  0  0  0  0  0  0  0  0  0  0
  141.0121   73.8445  220.4745 H   0  0  0  0  0  0  0  0  0  0  0  0
  139.3073   74.4186  220.5309 H   0  0  0  0  0  0  0  0  0  0  0  0
  143.4084   75.8500  219.7606 H   0  0  0  0  0  0  0  0  0  0  0  0
  142.0254   74.9485  219.2412 H   0  0  0  0  0  0  0  0  0  0  0  0
  141.3146   76.7471  217.7754 H   0  0  0  0  0  0  0  0  0  0  0  0
  143.2660   78.1640  217.3700 H   0  0  0  0  0  0  0  0  0  0  0  0
  140.5801   78.5741  219.1545 H   0  0  0  0  0  0  0  0  0  0  0  0
  143.3280   79.1910  218.8790 H   0  0  0  0  0  0  0  0  0  0  0  0
  143.0566   77.9246  221.0250 H   0  0  0  0  0  0  0  0  0  0  0  0
  143.6136   79.1774  222.3628 H   0  0  0  0  0  0  0  0  0  0  0  0
  143.0009   80.7498  224.1466 H   0  0  0  0  0  0  0  0  0  0  0  0
  140.6332   81.3328  224.5848 H   0  0  0  0  0  0  0  0  0  0  0  0
  139.4618   78.7547  221.4239 H   0  0  0  0  0  0  0  0  0  0  0  0
  139.2116   69.8635  222.6330 H   0  0  0  0  0  0  0  0  0  0  0  0
  138.8181   68.5590  224.6961 H   0  0  0  0  0  0  0  0  0  0  0  0
  139.1171   68.3716  227.1783 H   0  0  0  0  0  0  0  0  0  0  0  0
  140.0151   69.3786  229.2773 H   0  0  0  0  0  0  0  0  0  0  0  0
  141.2155   71.5281  229.2315 H   0  0  0  0  0  0  0  0  0  0  0  0
  141.5255   72.7150  227.0673 H   0  0  0  0  0  0  0  0  0  0  0  0
  1  2  2  0
  2  3  1  0
  3  4  1  0
  4  5  1  0
  5  6  2  0
  5  7  1  0
  7  8  1  0
  8  9  1  0
  9 10  1  0
  9 11  1  0
 11 12  1  0
 11 13  1  0
 13 14  1  0
 14 15  2  0
 15 16  1  0
 16 17  2  0
 17 18  1  0
 18 19  2  0
  2 20  1  0
 20 21  2  0
 21 22  1  0
 22 23  2  0
 23 24  1  0
 24 25  2  0
 25 26  1  0
 26 27  2  0
 27 28  1  0
 28 29  2  0
 13  7  1  0
 19 14  1  0
 29 20  1  0
 28 23  1  0
  3 30  1  0
  4 31  1  0
  4 32  1  0
  8 33  1  0
  8 34  1  0
  9 35  1  6
 10 36  1  0
 11 37  1  1
 12 38  1  0
 13 39  1  6
 15 40  1  0
 16 41  1  0
 17 42  1  0
 19 43  1  0
 21 44  1  0
 22 45  1  0
 24 46  1  0
 25 47  1  0
 26 48  1  0
 27 49  1  0
M  END
>  <smiles>  (40) 
O=C(NCC(=O)N1C[C@H](O)[C@H](O)[C@H]1c1cccnc1)c1ccc2ccccc2n1

>  <score_type>  (40) 
oracle

>  <origin>  (40) 
autodockgpu

>  <m_score__min__energy>  (40) 
-8.8499999999999996

>  <m_primary>  (40) 
energy

>  <rmsd>  (40) 
2.300324396154088

>  <m_score__min__rmsd>  (40) 
2.300324396154088

>  <meeko>  (40) 
{"free_energy": -8.53, "intermolecular_energy": -10.61, "internal_energy": -2.99, "cluster_size": 31, "cluster_id": 1, "rank_in_cluster": 8}

>  <energy>  (40) 
-7.73

>  <cluster_rmsd>  (40) 
0.16

>  <cluster>  (40) 
2

$$$$

     RDKit          3D

 49 52  0  0  0  0  0  0  0  0999 V2000
  138.8900   75.1280  221.8100 O   0  0  0  0  0  0  0  0  0  0  0  0
  140.0320   75.6110  221.9620 C   0  0  0  0  0  0  0  0  0  0  0  0
  141.2360   74.8610  221.8710 N   0  0  0  0  0  0  0  0  0  0  0  0
  141.1300   73.4090  221.5740 C   0  0  0  0  0  0  0  0  0  0  0  0
  141.7250   73.1190  220.2640 C   0  0  0  0  0  0  0  0  0  0  0  0
  141.0840   72.2690  219.5390 O   0  0  0  0  0  0  0  0  0  0  0  0
  142.8920   73.6430  219.6950 N   0  0  0  0  0  0  0  0  0  0  0  0
  144.1360   72.7970  219.6930 C   0  0  0  0  0  0  0  0  0  0  0  0
  144.5690   72.9720  218.2480 C   0  0  2  0  0  0  0  0  0  0  0  0
  145.9320   73.1880  218.2310 O   0  0  0  0  0  0  0  0  0  0  0  0
  143.8410   74.2140  217.7200 C   0  0  2  0  0  0  0  0  0  0  0  0
  144.7360   75.0610  217.0960 O   0  0  0  0  0  0  0  0  0  0  0  0
  143.3120   74.8130  219.0330 C   0  0  1  0  0  0  0  0  0  0  0  0
  142.4500   75.9470  218.8500 C   0  0  0  0  0  0  0  0  0  0  0  0
  142.9430   77.2190  219.2030 C   0  0  0  0  0  0  0  0  0  0  0  0
  142.1570   78.3460  219.0830 C   0  0  0  0  0  0  0  0  0  0  0  0
  140.8720   78.2830  218.6200 C   0  0  0  0  0  0  0  0  0  0  0  0
  140.4010   77.0590  218.2820 N   0  0  0  0  0  0  0  0  0  0  0  0
  141.1520   75.9480  218.3910 C   0  0  0  0  0  0  0  0  0  0  0  0
  140.1500   77.0530  222.2560 C   0  0  0  0  0  0  0  0  0  0  0  0
  139.0430   77.8690  222.3110 C   0  0  0  0  0  0  0  0  0  0  0  0
  139.1320   79.2250  222.5860 C   0  0  0  0  0  0  0  0  0  0  0  0
  140.3790   79.7890  222.8160 C   0  0  0  0  0  0  0  0  0  0  0  0
  140.5600   81.1220  223.0950 C   0  0  0  0  0  0  0  0  0  0  0  0
  141.8560   81.5960  223.3110 C   0  0  0  0  0  0  0  0  0  0  0  0
  142.9370   80.7600  223.2500 C   0  0  0  0  0  0  0  0  0  0  0  0
  142.7420   79.4230  222.9680 C   0  0  0  0  0  0  0  0  0  0  0  0
  141.4580   78.9460  222.7520 C   0  0  0  0  0  0  0  0  0  0  0  0
  141.3440   77.6350  222.4840 N   0  0  0  0  0  0  0  0  0  0  0  0
  142.1720   75.3080  222.0050 H   0  0  0  0  0  0  0  0  0  0  0  0
  141.6620   72.8389  222.3498 H   0  0  0  0  0  0  0  0  0  0  0  0
  140.0687   73.1202  221.5600 H   0  0  0  0  0  0  0  0  0  0  0  0
  144.8914   73.1796  220.3951 H   0  0  0  0  0  0  0  0  0  0  0  0
  143.9885   71.7541  220.0102 H   0  0  0  0  0  0  0  0  0  0  0  0
  144.3334   72.0913  217.6325 H   0  0  0  0  0  0  0  0  0  0  0  0
  146.1800   74.1290  218.4110 H   0  0  0  0  0  0  0  0  0  0  0  0
  143.0595   74.0203  216.9705 H   0  0  0  0  0  0  0  0  0  0  0  0
  145.6520   74.6830  217.1330 H   0  0  0  0  0  0  0  0  0  0  0  0
  144.0139   75.3586  219.6809 H   0  0  0  0  0  0  0  0  0  0  0  0
  143.9717   77.3147  219.5805 H   0  0  0  0  0  0  0  0  0  0  0  0
  142.5755   79.3226  219.3677 H   0  0  0  0  0  0  0  0  0  0  0  0
  140.2494   79.1850  218.5263 H   0  0  0  0  0  0  0  0  0  0  0  0
  140.7041   74.9872  218.0971 H   0  0  0  0  0  0  0  0  0  0  0  0
  138.0511   77.4291  222.1301 H   0  0  0  0  0  0  0  0  0  0  0  0
  138.2250   79.8464  222.6215 H   0  0  0  0  0  0  0  0  0  0  0  0
  139.6989   81.8044  223.1474 H   0  0  0  0  0  0  0  0  0  0  0  0
  142.0103   82.6620  223.5344 H   0  0  0  0  0  0  0  0  0  0  0  0
  143.9511   81.1492  223.4239 H   0  0  0  0  0  0  0  0  0  0  0  0
  143.6016   78.7387  222.9148 H   0  0  0  0  0  0  0  0  0  0  0  0
  1  2  2  0
  2  3  1  0
  3  4  1  0
  4  5  1  0
  5  6  2  0
  5  7  1  0
  7  8  1  0
  8  9  1  0
  9 10  1  0
  9 11  1  0
 11 12  1  0
 11 13  1  0
 13 14  1  0
 14 15  2  0
 15 16  1  0
 16 17  2  0
 17 18  1  0
 18 19  2  0
  2 20  1  0
 20 21  2  0
 21 22  1  0
 22 23  2  0
 23 24  1  0
 24 25  2  0
 25 26  1  0
 26 27  2  0
 27 28  1  0
 28 29  2  0
 13  7  1  0
 19 14  1  0
 29 20  1  0
 28 23  1  0
  3 30  1  0
  4 31  1  0
  4 32  1  0
  8 33  1  0
  8 34  1  0
  9 35  1  6
 10 36  1  0
 11 37  1  6
 12 38  1  0
 13 39  1  1
 15 40  1  0
 16 41  1  0
 17 42  1  0
 19 43  1  0
 21 44  1  0
 22 45  1  0
 24 46  1  0
 25 47  1  0
 26 48  1  0
 27 49  1  0
M  END
>  <smiles>  (41) 
O=C(NCC(=O)N1C[C@H](O)[C@H](O)[C@H]1c1cccnc1)c1ccc2ccccc2n1

>  <score_type>  (41) 
oracle

>  <origin>  (41) 
autodockgpu

>  <m_score__min__energy>  (41) 
-8.8499999999999996

>  <m_primary>  (41) 
energy

>  <rmsd>  (41) 
7.581490707205669

>  <m_score__min__rmsd>  (41) 
7.581490707205669

>  <meeko>  (41) 
{"free_energy": -6.96, "intermolecular_energy": -9.04, "internal_energy": -3.98, "cluster_size": 17, "cluster_id": 2, "rank_in_cluster": 15}

>  <energy>  (41) 
-7.72

>  <cluster_rmsd>  (41) 
0.15

>  <cluster>  (41) 
2

$$$$

     RDKit          3D

 49 52  0  0  0  0  0  0  0  0999 V2000
  138.8890   75.3050  221.9010 O   0  0  0  0  0  0  0  0  0  0  0  0
  140.0500   75.7610  221.9730 C   0  0  0  0  0  0  0  0  0  0  0  0
  141.2210   75.0230  221.6550 N   0  0  0  0  0  0  0  0  0  0  0  0
  141.0550   73.6150  221.2060 C   0  0  0  0  0  0  0  0  0  0  0  0
  142.3650   73.0360  220.8810 C   0  0  0  0  0  0  0  0  0  0  0  0
  142.6070   71.8850  221.4070 O   0  0  0  0  0  0  0  0  0  0  0  0
  143.3820   73.5610  220.0760 N   0  0  0  0  0  0  0  0  0  0  0  0
  144.6820   72.8110  219.9740 C   0  0  0  0  0  0  0  0  0  0  0  0
  144.8770   72.8290  218.4680 C   0  0  2  0  0  0  0  0  0  0  0  0
  146.1970   73.1350  218.2100 O   0  0  0  0  0  0  0  0  0  0  0  0
  143.9700   73.9400  217.9230 C   0  0  2  0  0  0  0  0  0  0  0  0
  144.6840   74.7600  217.0710 O   0  0  0  0  0  0  0  0  0  0  0  0
  143.5930   74.6640  219.2260 C   0  0  1  0  0  0  0  0  0  0  0  0
  142.6160   75.7030  219.0520 C   0  0  0  0  0  0  0  0  0  0  0  0
  142.9330   76.9940  219.5170 C   0  0  0  0  0  0  0  0  0  0  0  0
  142.0280   78.0300  219.4120 C   0  0  0  0  0  0  0  0  0  0  0  0
  140.7910   77.8540  218.8560 C   0  0  0  0  0  0  0  0  0  0  0  0
  140.4910   76.6110  218.4100 N   0  0  0  0  0  0  0  0  0  0  0  0
  141.3590   75.5870  218.5030 C   0  0  0  0  0  0  0  0  0  0  0  0
  140.2270   77.1580  222.4170 C   0  0  0  0  0  0  0  0  0  0  0  0
  139.1480   77.9720  222.6810 C   0  0  0  0  0  0  0  0  0  0  0  0
  139.2920   79.2850  223.1000 C   0  0  0  0  0  0  0  0  0  0  0  0
  140.5680   79.8090  223.2600 C   0  0  0  0  0  0  0  0  0  0  0  0
  140.8040   81.0990  223.6710 C   0  0  0  0  0  0  0  0  0  0  0  0
  142.1240   81.5330  223.8020 C   0  0  0  0  0  0  0  0  0  0  0  0
  143.1760   80.7010  223.5320 C   0  0  0  0  0  0  0  0  0  0  0  0
  142.9260   79.4080  223.1210 C   0  0  0  0  0  0  0  0  0  0  0  0
  141.6170   78.9700  222.9870 C   0  0  0  0  0  0  0  0  0  0  0  0
  141.4500   77.7000  222.5840 N   0  0  0  0  0  0  0  0  0  0  0  0
  142.1740   75.4470  221.7300 H   0  0  0  0  0  0  0  0  0  0  0  0
  140.5865   73.0286  222.0101 H   0  0  0  0  0  0  0  0  0  0  0  0
  140.4173   73.5935  220.3100 H   0  0  0  0  0  0  0  0  0  0  0  0
  145.4967   73.3325  220.4977 H   0  0  0  0  0  0  0  0  0  0  0  0
  144.6771   71.8097  220.4294 H   0  0  0  0  0  0  0  0  0  0  0  0
  144.6314   71.8628  218.0032 H   0  0  0  0  0  0  0  0  0  0  0  0
  146.3860   74.1060  218.2420 H   0  0  0  0  0  0  0  0  0  0  0  0
  143.1049   73.5987  217.3356 H   0  0  0  0  0  0  0  0  0  0  0  0
  145.5640   74.9860  217.4660 H   0  0  0  0  0  0  0  0  0  0  0  0
  144.3322   75.3352  219.6875 H   0  0  0  0  0  0  0  0  0  0  0  0
  143.9176   77.1792  219.9710 H   0  0  0  0  0  0  0  0  0  0  0  0
  142.3093   79.0255  219.7860 H   0  0  0  0  0  0  0  0  0  0  0  0
  140.0731   78.6835  218.7748 H   0  0  0  0  0  0  0  0  0  0  0  0
  141.0473   74.6042  218.1197 H   0  0  0  0  0  0  0  0  0  0  0  0
  138.1340   77.5647  222.5545 H   0  0  0  0  0  0  0  0  0  0  0  0
  138.4062   79.9047  223.3034 H   0  0  0  0  0  0  0  0  0  0  0  0
  139.9672   81.7776  223.8929 H   0  0  0  0  0  0  0  0  0  0  0  0
  142.3225   82.5644  224.1288 H   0  0  0  0  0  0  0  0  0  0  0  0
  144.2102   81.0592  223.6415 H   0  0  0  0  0  0  0  0  0  0  0  0
  143.7615   78.7273  222.9005 H   0  0  0  0  0  0  0  0  0  0  0  0
  1  2  2  0
  2  3  1  0
  3  4  1  0
  4  5  1  0
  5  6  2  0
  5  7  1  0
  7  8  1  0
  8  9  1  0
  9 10  1  0
  9 11  1  0
 11 12  1  0
 11 13  1  0
 13 14  1  0
 14 15  2  0
 15 16  1  0
 16 17  2  0
 17 18  1  0
 18 19  2  0
  2 20  1  0
 20 21  2  0
 21 22  1  0
 22 23  2  0
 23 24  1  0
 24 25  2  0
 25 26  1  0
 26 27  2  0
 27 28  1  0
 28 29  2  0
 13  7  1  0
 19 14  1  0
 29 20  1  0
 28 23  1  0
  3 30  1  0
  4 31  1  0
  4 32  1  0
  8 33  1  0
  8 34  1  0
  9 35  1  6
 10 36  1  0
 11 37  1  6
 12 38  1  0
 13 39  1  1
 15 40  1  0
 16 41  1  0
 17 42  1  0
 19 43  1  0
 21 44  1  0
 22 45  1  0
 24 46  1  0
 25 47  1  0
 26 48  1  0
 27 49  1  0
M  END
>  <smiles>  (42) 
O=C(NCC(=O)N1C[C@H](O)[C@H](O)[C@H]1c1cccnc1)c1ccc2ccccc2n1

>  <score_type>  (42) 
oracle

>  <origin>  (42) 
autodockgpu

>  <m_score__min__energy>  (42) 
-8.8499999999999996

>  <m_primary>  (42) 
energy

>  <rmsd>  (42) 
7.629149440069133

>  <m_score__min__rmsd>  (42) 
7.629149440069133

>  <meeko>  (42) 
{"free_energy": -7.8, "intermolecular_energy": -9.89, "internal_energy": -3.73, "cluster_size": 17, "cluster_id": 2, "rank_in_cluster": 4}

>  <energy>  (42) 
-7.5

>  <cluster_rmsd>  (42) 
0.52

>  <cluster>  (42) 
2

$$$$

     RDKit          3D

 49 52  0  0  0  0  0  0  0  0999 V2000
  141.4080   72.1150  221.7100 O   0  0  0  0  0  0  0  0  0  0  0  0
  140.4670   72.3880  222.4860 C   0  0  0  0  0  0  0  0  0  0  0  0
  139.5930   73.4970  222.3250 N   0  0  0  0  0  0  0  0  0  0  0  0
  139.8100   74.3890  221.1560 C   0  0  0  0  0  0  0  0  0  0  0  0
  140.3990   75.6590  221.5980 C   0  0  0  0  0  0  0  0  0  0  0  0
  139.9540   76.1160  222.7170 O   0  0  0  0  0  0  0  0  0  0  0  0
  141.3770   76.4390  220.9710 N   0  0  0  0  0  0  0  0  0  0  0  0
  142.2530   75.7980  219.9280 C   0  0  0  0  0  0  0  0  0  0  0  0
  142.1650   76.8440  218.8320 C   0  0  2  0  0  0  0  0  0  0  0  0
  143.4330   77.0410  218.3250 O   0  0  0  0  0  0  0  0  0  0  0  0
  141.6670   78.1340  219.4970 C   0  0  2  0  0  0  0  0  0  0  0  0
  142.4730   79.1970  219.1370 O   0  0  0  0  0  0  0  0  0  0  0  0
  141.8350   77.7710  220.9820 C   0  0  1  0  0  0  0  0  0  0  0  0
  141.3120   78.7580  221.8850 C   0  0  0  0  0  0  0  0  0  0  0  0
  142.2200   79.4490  222.7100 C   0  0  0  0  0  0  0  0  0  0  0  0
  141.7830   80.3860  223.6220 C   0  0  0  0  0  0  0  0  0  0  0  0
  140.4570   80.6870  223.7680 C   0  0  0  0  0  0  0  0  0  0  0  0
  139.5860   80.0210  222.9730 N   0  0  0  0  0  0  0  0  0  0  0  0
  139.9930   79.1040  222.0770 C   0  0  0  0  0  0  0  0  0  0  0  0
  140.2430   71.5090  223.6500 C   0  0  0  0  0  0  0  0  0  0  0  0
  139.5610   70.3180  223.5320 C   0  0  0  0  0  0  0  0  0  0  0  0
  139.3400   69.4780  224.6130 C   0  0  0  0  0  0  0  0  0  0  0  0
  139.8190   69.8430  225.8640 C   0  0  0  0  0  0  0  0  0  0  0  0
  139.6460   69.0720  226.9870 C   0  0  0  0  0  0  0  0  0  0  0  0
  140.1650   69.5250  228.2020 C   0  0  0  0  0  0  0  0  0  0  0  0
  140.8390   70.7120  228.2880 C   0  0  0  0  0  0  0  0  0  0  0  0
  141.0060   71.4770  227.1520 C   0  0  0  0  0  0  0  0  0  0  0  0
  140.4920   71.0340  225.9430 C   0  0  0  0  0  0  0  0  0  0  0  0
  140.6940   71.8300  224.8790 N   0  0  0  0  0  0  0  0  0  0  0  0
  138.8180   73.6870  223.0010 H   0  0  0  0  0  0  0  0  0  0  0  0
  140.4915   73.8990  220.4450 H   0  0  0  0  0  0  0  0  0  0  0  0
  138.8441   74.5883  220.6688 H   0  0  0  0  0  0  0  0  0  0  0  0
  143.2850   75.6672  220.2857 H   0  0  0  0  0  0  0  0  0  0  0  0
  141.9496   74.7844  219.6270 H   0  0  0  0  0  0  0  0  0  0  0  0
  141.4909   76.5400  218.0177 H   0  0  0  0  0  0  0  0  0  0  0  0
  143.9970   77.6210  218.8960 H   0  0  0  0  0  0  0  0  0  0  0  0
  140.6469   78.4424  219.2245 H   0  0  0  0  0  0  0  0  0  0  0  0
  143.3980   78.8850  218.9650 H   0  0  0  0  0  0  0  0  0  0  0  0
  142.8446   77.7994  221.4178 H   0  0  0  0  0  0  0  0  0  0  0  0
  143.2962   79.2376  222.6254 H   0  0  0  0  0  0  0  0  0  0  0  0
  142.5216   80.9061  224.2498 H   0  0  0  0  0  0  0  0  0  0  0  0
  140.1137   81.4354  224.4974 H   0  0  0  0  0  0  0  0  0  0  0  0
  139.2299   78.6027  221.4636 H   0  0  0  0  0  0  0  0  0  0  0  0
  139.1777   70.0225  222.5442 H   0  0  0  0  0  0  0  0  0  0  0  0
  138.7916   68.5336  224.4809 H   0  0  0  0  0  0  0  0  0  0  0  0
  139.1080   68.1142  226.9307 H   0  0  0  0  0  0  0  0  0  0  0  0
  140.0290   68.9152  229.1074 H   0  0  0  0  0  0  0  0  0  0  0  0
  141.2436   71.0530  229.2524 H   0  0  0  0  0  0  0  0  0  0  0  0
  141.5448   72.4345  227.2053 H   0  0  0  0  0  0  0  0  0  0  0  0
  1  2  2  0
  2  3  1  0
  3  4  1  0
  4  5  1  0
  5  6  2  0
  5  7  1  0
  7  8  1  0
  8  9  1  0
  9 10  1  0
  9 11  1  0
 11 12  1  0
 11 13  1  0
 13 14  1  0
 14 15  2  0
 15 16  1  0
 16 17  2  0
 17 18  1  0
 18 19  2  0
  2 20  1  0
 20 21  2  0
 21 22  1  0
 22 23  2  0
 23 24  1  0
 24 25  2  0
 25 26  1  0
 26 27  2  0
 27 28  1  0
 28 29  2  0
 13  7  1  0
 19 14  1  0
 29 20  1  0
 28 23  1  0
  3 30  1  0
  4 31  1  0
  4 32  1  0
  8 33  1  0
  8 34  1  0
  9 35  1  6
 10 36  1  0
 11 37  1  1
 12 38  1  0
 13 39  1  1
 15 40  1  0
 16 41  1  0
 17 42  1  0
 19 43  1  0
 21 44  1  0
 22 45  1  0
 24 46  1  0
 25 47  1  0
 26 48  1  0
 27 49  1  0
M  END
>  <smiles>  (43) 
O=C(NCC(=O)N1C[C@H](O)[C@H](O)[C@H]1c1cccnc1)c1ccc2ccccc2n1

>  <score_type>  (43) 
oracle

>  <origin>  (43) 
autodockgpu

>  <m_score__min__energy>  (43) 
-8.8499999999999996

>  <m_primary>  (43) 
energy

>  <rmsd>  (43) 
2.2559515911516312

>  <m_score__min__rmsd>  (43) 
2.2559515911516312

>  <meeko>  (43) 
{"free_energy": -8.85, "intermolecular_energy": -10.94, "internal_energy": -2.62, "cluster_size": 31, "cluster_id": 1, "rank_in_cluster": 1}

>  <energy>  (43) 
-7.45

>  <cluster_rmsd>  (43) 
0.5

>  <cluster>  (43) 
2

$$$$

     RDKit          3D

 49 52  0  0  0  0  0  0  0  0999 V2000
  140.9630   71.6290  221.3460 O   0  0  0  0  0  0  0  0  0  0  0  0
  140.4310   72.2030  222.3200 C   0  0  0  0  0  0  0  0  0  0  0  0
  140.0040   73.5580  222.3160 N   0  0  0  0  0  0  0  0  0  0  0  0
  140.2040   74.3460  221.0720 C   0  0  0  0  0  0  0  0  0  0  0  0
  140.7530   75.6680  221.3980 C   0  0  0  0  0  0  0  0  0  0  0  0
  140.3570   76.1720  222.5150 O   0  0  0  0  0  0  0  0  0  0  0  0
  141.6490   76.4520  220.6630 N   0  0  0  0  0  0  0  0  0  0  0  0
  142.3550   75.8320  219.4870 C   0  0  0  0  0  0  0  0  0  0  0  0
  142.1350   76.9170  218.4480 C   0  0  2  0  0  0  0  0  0  0  0  0
  143.3220   77.1100  217.7710 O   0  0  0  0  0  0  0  0  0  0  0  0
  141.7640   78.1910  219.2170 C   0  0  2  0  0  0  0  0  0  0  0  0
  142.5330   79.2520  218.7800 O   0  0  0  0  0  0  0  0  0  0  0  0
  142.1320   77.7750  220.6510 C   0  0  1  0  0  0  0  0  0  0  0  0
  141.7640   78.7390  221.6500 C   0  0  0  0  0  0  0  0  0  0  0  0
  141.2240   79.9670  221.2180 C   0  0  0  0  0  0  0  0  0  0  0  0
  140.8780   80.9490  222.1220 C   0  0  0  0  0  0  0  0  0  0  0  0
  141.0430   80.7800  223.4690 C   0  0  0  0  0  0  0  0  0  0  0  0
  141.5620   79.5990  223.8800 N   0  0  0  0  0  0  0  0  0  0  0  0
  141.9050   78.6280  223.0140 C   0  0  0  0  0  0  0  0  0  0  0  0
  140.2270   71.4300  223.5620 C   0  0  0  0  0  0  0  0  0  0  0  0
  139.5580   70.2270  223.5590 C   0  0  0  0  0  0  0  0  0  0  0  0
  139.3570   69.4860  224.7140 C   0  0  0  0  0  0  0  0  0  0  0  0
  139.8450   69.9660  225.9210 C   0  0  0  0  0  0  0  0  0  0  0  0
  139.6920   69.2990  227.1120 C   0  0  0  0  0  0  0  0  0  0  0  0
  140.2180   69.8650  228.2750 C   0  0  0  0  0  0  0  0  0  0  0  0
  140.8790   71.0620  228.2450 C   0  0  0  0  0  0  0  0  0  0  0  0
  141.0270   71.7230  227.0430 C   0  0  0  0  0  0  0  0  0  0  0  0
  140.5050   71.1670  225.8850 C   0  0  0  0  0  0  0  0  0  0  0  0
  140.6870   71.8650  224.7510 N   0  0  0  0  0  0  0  0  0  0  0  0
  139.5620   73.9960  223.1560 H   0  0  0  0  0  0  0  0  0  0  0  0
  140.9044   73.8133  220.4120 H   0  0  0  0  0  0  0  0  0  0  0  0
  139.2361   74.4720  220.5648 H   0  0  0  0  0  0  0  0  0  0  0  0
  143.4241   75.6718  219.6903 H   0  0  0  0  0  0  0  0  0  0  0  0
  141.9909   74.8344  219.2004 H   0  0  0  0  0  0  0  0  0  0  0  0
  141.3457   76.6523  217.7290 H   0  0  0  0  0  0  0  0  0  0  0  0
  143.3930   78.0040  217.3540 H   0  0  0  0  0  0  0  0  0  0  0  0
  140.7224   78.5253  219.1019 H   0  0  0  0  0  0  0  0  0  0  0  0
  143.4920   79.0040  218.7760 H   0  0  0  0  0  0  0  0  0  0  0  0
  143.1933   77.7720  220.9401 H   0  0  0  0  0  0  0  0  0  0  0  0
  141.0762   80.1449  220.1426 H   0  0  0  0  0  0  0  0  0  0  0  0
  140.4576   81.8947  221.7493 H   0  0  0  0  0  0  0  0  0  0  0  0
  140.7667   81.5675  224.1856 H   0  0  0  0  0  0  0  0  0  0  0  0
  142.3212   77.6938  223.4190 H   0  0  0  0  0  0  0  0  0  0  0  0
  139.1687   69.8393  222.6060 H   0  0  0  0  0  0  0  0  0  0  0  0
  138.8168   68.5286  224.6737 H   0  0  0  0  0  0  0  0  0  0  0  0
  139.1638   68.3348  227.1489 H   0  0  0  0  0  0  0  0  0  0  0  0
  140.0985   69.3383  229.2333 H   0  0  0  0  0  0  0  0  0  0  0  0
  141.2886   71.4935  229.1702 H   0  0  0  0  0  0  0  0  0  0  0  0
  141.5565   72.6864  227.0036 H   0  0  0  0  0  0  0  0  0  0  0  0
  1  2  2  0
  2  3  1  0
  3  4  1  0
  4  5  1  0
  5  6  2  0
  5  7  1  0
  7  8  1  0
  8  9  1  0
  9 10  1  0
  9 11  1  0
 11 12  1  0
 11 13  1  0
 13 14  1  0
 14 15  2  0
 15 16  1  0
 16 17  2  0
 17 18  1  0
 18 19  2  0
  2 20  1  0
 20 21  2  0
 21 22  1  0
 22 23  2  0
 23 24  1  0
 24 25  2  0
 25 26  1  0
 26 27  2  0
 27 28  1  0
 28 29  2  0
 13  7  1  0
 19 14  1  0
 29 20  1  0
 28 23  1  0
  3 30  1  0
  4 31  1  0
  4 32  1  0
  8 33  1  0
  8 34  1  0
  9 35  1  6
 10 36  1  0
 11 37  1  1
 12 38  1  0
 13 39  1  6
 15 40  1  0
 16 41  1  0
 17 42  1  0
 19 43  1  0
 21 44  1  0
 22 45  1  0
 24 46  1  0
 25 47  1  0
 26 48  1  0
 27 49  1  0
M  END
>  <smiles>  (44) 
O=C(NCC(=O)N1C[C@H](O)[C@H](O)[C@H]1c1cccnc1)c1ccc2ccccc2n1

>  <score_type>  (44) 
oracle

>  <origin>  (44) 
autodockgpu

>  <m_score__min__energy>  (44) 
-8.8499999999999996

>  <m_primary>  (44) 
energy

>  <rmsd>  (44) 
2.2473270242526238

>  <m_score__min__rmsd>  (44) 
2.2473270242526238

>  <meeko>  (44) 
{"free_energy": -8.37, "intermolecular_energy": -10.46, "internal_energy": -2.9, "cluster_size": 31, "cluster_id": 1, "rank_in_cluster": 20}

>  <energy>  (44) 
-7.44

>  <cluster_rmsd>  (44) 
0.49

>  <cluster>  (44) 
2

$$$$

     RDKit          3D

 49 52  0  0  0  0  0  0  0  0999 V2000
  138.8680   75.4180  221.7410 O   0  0  0  0  0  0  0  0  0  0  0  0
  140.0330   75.8390  221.9010 C   0  0  0  0  0  0  0  0  0  0  0  0
  141.2030   75.0710  221.6570 N   0  0  0  0  0  0  0  0  0  0  0  0
  141.0290   73.6740  221.1780 C   0  0  0  0  0  0  0  0  0  0  0  0
  142.3380   73.0840  220.8700 C   0  0  0  0  0  0  0  0  0  0  0  0
  142.5570   71.9230  221.3840 O   0  0  0  0  0  0  0  0  0  0  0  0
  143.3770   73.6090  220.0940 N   0  0  0  0  0  0  0  0  0  0  0  0
  144.6820   72.8620  220.0330 C   0  0  0  0  0  0  0  0  0  0  0  0
  144.9210   72.8740  218.5330 C   0  0  2  0  0  0  0  0  0  0  0  0
  146.2480   73.1840  218.3130 O   0  0  0  0  0  0  0  0  0  0  0  0
  144.0280   73.9800  217.9570 C   0  0  2  0  0  0  0  0  0  0  0  0
  144.7640   74.7990  217.1220 O   0  0  0  0  0  0  0  0  0  0  0  0
  143.6100   74.7090  219.2450 C   0  0  1  0  0  0  0  0  0  0  0  0
  142.6360   75.7440  219.0380 C   0  0  0  0  0  0  0  0  0  0  0  0
  142.9380   77.0400  219.4990 C   0  0  0  0  0  0  0  0  0  0  0  0
  142.0340   78.0730  219.3620 C   0  0  0  0  0  0  0  0  0  0  0  0
  140.8120   77.8890  218.7770 C   0  0  0  0  0  0  0  0  0  0  0  0
  140.5250   76.6410  218.3350 N   0  0  0  0  0  0  0  0  0  0  0  0
  141.3930   75.6210  218.4590 C   0  0  0  0  0  0  0  0  0  0  0  0
  140.2180   77.2250  222.3760 C   0  0  0  0  0  0  0  0  0  0  0  0
  139.1440   78.0230  222.7030 C   0  0  0  0  0  0  0  0  0  0  0  0
  139.2960   79.3260  223.1510 C   0  0  0  0  0  0  0  0  0  0  0  0
  140.5730   79.8550  223.2760 C   0  0  0  0  0  0  0  0  0  0  0  0
  140.8160   81.1350  223.7120 C   0  0  0  0  0  0  0  0  0  0  0  0
  142.1380   81.5770  223.8040 C   0  0  0  0  0  0  0  0  0  0  0  0
  143.1840   80.7600  223.4720 C   0  0  0  0  0  0  0  0  0  0  0  0
  142.9270   79.4770  223.0360 C   0  0  0  0  0  0  0  0  0  0  0  0
  141.6170   79.0320  222.9410 C   0  0  0  0  0  0  0  0  0  0  0  0
  141.4420   77.7720  222.5100 N   0  0  0  0  0  0  0  0  0  0  0  0
  142.1600   75.4660  221.8040 H   0  0  0  0  0  0  0  0  0  0  0  0
  140.5359   73.0789  221.9607 H   0  0  0  0  0  0  0  0  0  0  0  0
  140.4106   73.6777  220.2683 H   0  0  0  0  0  0  0  0  0  0  0  0
  145.4797   73.3881  220.5780 H   0  0  0  0  0  0  0  0  0  0  0  0
  144.6664   71.8626  220.4923 H   0  0  0  0  0  0  0  0  0  0  0  0
  144.6919   71.9051  218.0654 H   0  0  0  0  0  0  0  0  0  0  0  0
  146.4360   74.1530  218.3670 H   0  0  0  0  0  0  0  0  0  0  0  0
  143.1817   73.6331  217.3458 H   0  0  0  0  0  0  0  0  0  0  0  0
  145.7130   74.8170  217.4070 H   0  0  0  0  0  0  0  0  0  0  0  0
  144.3334   75.3848  219.7246 H   0  0  0  0  0  0  0  0  0  0  0  0
  143.9105   77.2317  219.9760 H   0  0  0  0  0  0  0  0  0  0  0  0
  142.3038   79.0725  219.7338 H   0  0  0  0  0  0  0  0  0  0  0  0
  140.0949   78.7163  218.6701 H   0  0  0  0  0  0  0  0  0  0  0  0
  141.0932   74.6341  218.0767 H   0  0  0  0  0  0  0  0  0  0  0  0
  138.1286   77.6113  222.6051 H   0  0  0  0  0  0  0  0  0  0  0  0
  138.4148   79.9336  223.4045 H   0  0  0  0  0  0  0  0  0  0  0  0
  139.9836   81.8006  223.9841 H   0  0  0  0  0  0  0  0  0  0  0  0
  142.3418   82.6011  224.1499 H   0  0  0  0  0  0  0  0  0  0  0  0
  144.2194   81.1227  223.5520 H   0  0  0  0  0  0  0  0  0  0  0  0
  143.7580   78.8093  222.7646 H   0  0  0  0  0  0  0  0  0  0  0  0
  1  2  2  0
  2  3  1  0
  3  4  1  0
  4  5  1  0
  5  6  2  0
  5  7  1  0
  7  8  1  0
  8  9  1  0
  9 10  1  0
  9 11  1  0
 11 12  1  0
 11 13  1  0
 13 14  1  0
 14 15  2  0
 15 16  1  0
 16 17  2  0
 17 18  1  0
 18 19  2  0
  2 20  1  0
 20 21  2  0
 21 22  1  0
 22 23  2  0
 23 24  1  0
 24 25  2  0
 25 26  1  0
 26 27  2  0
 27 28  1  0
 28 29  2  0
 13  7  1  0
 19 14  1  0
 29 20  1  0
 28 23  1  0
  3 30  1  0
  4 31  1  0
  4 32  1  0
  8 33  1  0
  8 34  1  0
  9 35  1  6
 10 36  1  0
 11 37  1  6
 12 38  1  0
 13 39  1  1
 15 40  1  0
 16 41  1  0
 17 42  1  0
 19 43  1  0
 21 44  1  0
 22 45  1  0
 24 46  1  0
 25 47  1  0
 26 48  1  0
 27 49  1  0
M  END
>  <smiles>  (45) 
O=C(NCC(=O)N1C[C@H](O)[C@H](O)[C@H]1c1cccnc1)c1ccc2ccccc2n1

>  <score_type>  (45) 
oracle

>  <origin>  (45) 
autodockgpu

>  <m_score__min__energy>  (45) 
-8.8499999999999996

>  <m_primary>  (45) 
energy

>  <rmsd>  (45) 
7.663925630249104

>  <m_score__min__rmsd>  (45) 
7.663925630249104

>  <meeko>  (45) 
{"free_energy": -7.79, "intermolecular_energy": -9.88, "internal_energy": -3.73, "cluster_size": 17, "cluster_id": 2, "rank_in_cluster": 7}

>  <energy>  (45) 
-7.1

>  <cluster_rmsd>  (45) 
0.86

>  <cluster>  (45) 
2

$$$$

     RDKit          3D

 49 52  0  0  0  0  0  0  0  0999 V2000
  141.4310   72.1010  222.2400 O   0  0  0  0  0  0  0  0  0  0  0  0
  140.4310   72.1740  222.9860 C   0  0  0  0  0  0  0  0  0  0  0  0
  139.2830   72.9640  222.7100 N   0  0  0  0  0  0  0  0  0  0  0  0
  139.2700   73.7570  221.4530 C   0  0  0  0  0  0  0  0  0  0  0  0
  139.5280   75.1720  221.7490 C   0  0  0  0  0  0  0  0  0  0  0  0
  138.6120   75.7710  222.4280 O   0  0  0  0  0  0  0  0  0  0  0  0
  140.6310   75.9560  221.3960 N   0  0  0  0  0  0  0  0  0  0  0  0
  141.7980   75.2950  220.7130 C   0  0  0  0  0  0  0  0  0  0  0  0
  142.0230   76.2730  219.5740 C   0  0  2  0  0  0  0  0  0  0  0  0
  143.3810   76.4960  219.4620 O   0  0  0  0  0  0  0  0  0  0  0  0
  141.3160   77.5760  219.9700 C   0  0  2  0  0  0  0  0  0  0  0  0
  142.1680   78.6500  219.8000 O   0  0  0  0  0  0  0  0  0  0  0  0
  141.0320   77.3050  221.4560 C   0  0  1  0  0  0  0  0  0  0  0  0
  140.2360   78.3180  222.0910 C   0  0  0  0  0  0  0  0  0  0  0  0
  140.7800   78.9890  223.2030 C   0  0  0  0  0  0  0  0  0  0  0  0
  140.0580   79.9500  223.8790 C   0  0  0  0  0  0  0  0  0  0  0  0
  138.7880   80.2940  223.5050 C   0  0  0  0  0  0  0  0  0  0  0  0
  138.2680   79.6470  222.4350 N   0  0  0  0  0  0  0  0  0  0  0  0
  138.9570   78.7070  221.7620 C   0  0  0  0  0  0  0  0  0  0  0  0
  140.4330   71.3910  224.2370 C   0  0  0  0  0  0  0  0  0  0  0  0
  140.9780   71.8900  225.3980 C   0  0  0  0  0  0  0  0  0  0  0  0
  140.9900   71.1720  226.5840 C   0  0  0  0  0  0  0  0  0  0  0  0
  140.4340   69.9000  226.6100 C   0  0  0  0  0  0  0  0  0  0  0  0
  140.4020   69.1180  227.7390 C   0  0  0  0  0  0  0  0  0  0  0  0
  139.8210   67.8500  227.6650 C   0  0  0  0  0  0  0  0  0  0  0  0
  139.2870   67.3810  226.4970 C   0  0  0  0  0  0  0  0  0  0  0  0
  139.3250   68.1750  225.3690 C   0  0  0  0  0  0  0  0  0  0  0  0
  139.9020   69.4350  225.4350 C   0  0  0  0  0  0  0  0  0  0  0  0
  139.9030   70.1530  224.3000 N   0  0  0  0  0  0  0  0  0  0  0  0
  138.4680   72.9940  223.3650 H   0  0  0  0  0  0  0  0  0  0  0  0
  140.0496   73.3786  220.7755 H   0  0  0  0  0  0  0  0  0  0  0  0
  138.2832   73.6620  220.9764 H   0  0  0  0  0  0  0  0  0  0  0  0
  142.6746   75.2293  221.3742 H   0  0  0  0  0  0  0  0  0  0  0  0
  141.6253   74.2537  220.4032 H   0  0  0  0  0  0  0  0  0  0  0  0
  141.6362   75.8946  218.6163 H   0  0  0  0  0  0  0  0  0  0  0  0
  143.7180   77.1780  220.0940 H   0  0  0  0  0  0  0  0  0  0  0  0
  140.4201   77.8249  219.3822 H   0  0  0  0  0  0  0  0  0  0  0  0
  143.0400   78.3450  219.4430 H   0  0  0  0  0  0  0  0  0  0  0  0
  141.8598   77.4013  222.1740 H   0  0  0  0  0  0  0  0  0  0  0  0
  141.7983   78.7424  223.5382 H   0  0  0  0  0  0  0  0  0  0  0  0
  140.5161   80.4539  224.7429 H   0  0  0  0  0  0  0  0  0  0  0  0
  138.2157   81.0605  224.0481 H   0  0  0  0  0  0  0  0  0  0  0  0
  138.4716   78.2229  220.9018 H   0  0  0  0  0  0  0  0  0  0  0  0
  141.4209   72.8968  225.3845 H   0  0  0  0  0  0  0  0  0  0  0  0
  141.4343   71.6045  227.4926 H   0  0  0  0  0  0  0  0  0  0  0  0
  140.8267   69.4842  228.6853 H   0  0  0  0  0  0  0  0  0  0  0  0
  139.7925   67.2165  228.5638 H   0  0  0  0  0  0  0  0  0  0  0  0
  138.8315   66.3805  226.4568 H   0  0  0  0  0  0  0  0  0  0  0  0
  138.8999   67.8107  224.4221 H   0  0  0  0  0  0  0  0  0  0  0  0
  1  2  2  0
  2  3  1  0
  3  4  1  0
  4  5  1  0
  5  6  2  0
  5  7  1  0
  7  8  1  0
  8  9  1  0
  9 10  1  0
  9 11  1  0
 11 12  1  0
 11 13  1  0
 13 14  1  0
 14 15  2  0
 15 16  1  0
 16 17  2  0
 17 18  1  0
 18 19  2  0
  2 20  1  0
 20 21  2  0
 21 22  1  0
 22 23  2  0
 23 24  1  0
 24 25  2  0
 25 26  1  0
 26 27  2  0
 27 28  1  0
 28 29  2  0
 13  7  1  0
 19 14  1  0
 29 20  1  0
 28 23  1  0
  3 30  1  0
  4 31  1  0
  4 32  1  0
  8 33  1  0
  8 34  1  0
  9 35  1  6
 10 36  1  0
 11 37  1  6
 12 38  1  0
 13 39  1  1
 15 40  1  0
 16 41  1  0
 17 42  1  0
 19 43  1  0
 21 44  1  0
 22 45  1  0
 24 46  1  0
 25 47  1  0
 26 48  1  0
 27 49  1  0
M  END
>  <smiles>  (46) 
O=C(NCC(=O)N1C[C@H](O)[C@H](O)[C@H]1c1cccnc1)c1ccc2ccccc2n1

>  <score_type>  (46) 
oracle

>  <origin>  (46) 
autodockgpu

>  <m_score__min__energy>  (46) 
-8.8499999999999996

>  <m_primary>  (46) 
energy

>  <rmsd>  (46) 
3.2024652430960794

>  <m_score__min__rmsd>  (46) 
3.2024652430960794

>  <meeko>  (46) 
{"free_energy": -8.2, "intermolecular_energy": -10.29, "internal_energy": -2.68, "cluster_size": 31, "cluster_id": 1, "rank_in_cluster": 28}

>  <energy>  (46) 
-6.96

>  <cluster_rmsd>  (46) 
0.61

>  <cluster>  (46) 
2

$$$$

     RDKit          3D

 49 52  0  0  0  0  0  0  0  0999 V2000
  138.8470   75.4060  221.6060 O   0  0  0  0  0  0  0  0  0  0  0  0
  140.0070   75.7870  221.8730 C   0  0  0  0  0  0  0  0  0  0  0  0
  141.1670   74.9770  221.7370 N   0  0  0  0  0  0  0  0  0  0  0  0
  140.9890   73.5860  221.2440 C   0  0  0  0  0  0  0  0  0  0  0  0
  142.2950   72.9980  220.9210 C   0  0  0  0  0  0  0  0  0  0  0  0
  142.5190   71.8340  221.4250 O   0  0  0  0  0  0  0  0  0  0  0  0
  143.3270   73.5290  220.1390 N   0  0  0  0  0  0  0  0  0  0  0  0
  144.6360   72.7880  220.0710 C   0  0  0  0  0  0  0  0  0  0  0  0
  144.8660   72.8020  218.5700 C   0  0  2  0  0  0  0  0  0  0  0  0
  146.1900   73.1180  218.3430 O   0  0  0  0  0  0  0  0  0  0  0  0
  143.9650   73.9030  217.9990 C   0  0  2  0  0  0  0  0  0  0  0  0
  144.6920   74.7260  217.1610 O   0  0  0  0  0  0  0  0  0  0  0  0
  143.5500   74.6300  219.2890 C   0  0  1  0  0  0  0  0  0  0  0  0
  142.5690   75.6600  219.0880 C   0  0  0  0  0  0  0  0  0  0  0  0
  142.8720   76.9600  219.5380 C   0  0  0  0  0  0  0  0  0  0  0  0
  141.9640   77.9890  219.4050 C   0  0  0  0  0  0  0  0  0  0  0  0
  140.7350   77.7970  218.8370 C   0  0  0  0  0  0  0  0  0  0  0  0
  140.4470   76.5450  218.4060 N   0  0  0  0  0  0  0  0  0  0  0  0
  141.3200   75.5290  218.5250 C   0  0  0  0  0  0  0  0  0  0  0  0
  140.1960   77.1670  222.3630 C   0  0  0  0  0  0  0  0  0  0  0  0
  139.1250   77.9660  222.6930 C   0  0  0  0  0  0  0  0  0  0  0  0
  139.2800   79.2640  223.1550 C   0  0  0  0  0  0  0  0  0  0  0  0
  140.5590   79.7850  223.2930 C   0  0  0  0  0  0  0  0  0  0  0  0
  140.8060   81.0600  223.7440 C   0  0  0  0  0  0  0  0  0  0  0  0
  142.1290   81.4930  223.8480 C   0  0  0  0  0  0  0  0  0  0  0  0
  143.1730   80.6750  223.5130 C   0  0  0  0  0  0  0  0  0  0  0  0
  142.9130   79.3980  223.0620 C   0  0  0  0  0  0  0  0  0  0  0  0
  141.6010   78.9610  222.9550 C   0  0  0  0  0  0  0  0  0  0  0  0
  141.4230   77.7060  222.5100 N   0  0  0  0  0  0  0  0  0  0  0  0
  142.1190   75.3390  221.9730 H   0  0  0  0  0  0  0  0  0  0  0  0
  140.5004   72.9828  222.0234 H   0  0  0  0  0  0  0  0  0  0  0  0
  140.3650   73.6004  220.3383 H   0  0  0  0  0  0  0  0  0  0  0  0
  145.4341   73.3178  220.6117 H   0  0  0  0  0  0  0  0  0  0  0  0
  144.6282   71.7885  220.5303 H   0  0  0  0  0  0  0  0  0  0  0  0
  144.6383   71.8323  218.1033 H   0  0  0  0  0  0  0  0  0  0  0  0
  146.3740   74.0890  218.3930 H   0  0  0  0  0  0  0  0  0  0  0  0
  143.1177   73.5514  217.3921 H   0  0  0  0  0  0  0  0  0  0  0  0
  145.6490   74.7200  217.4170 H   0  0  0  0  0  0  0  0  0  0  0  0
  144.2728   75.3097  219.7639 H   0  0  0  0  0  0  0  0  0  0  0  0
  143.8491   77.1574  220.0031 H   0  0  0  0  0  0  0  0  0  0  0  0
  142.2357   78.9920  219.7657 H   0  0  0  0  0  0  0  0  0  0  0  0
  140.0134   78.6209  218.7347 H   0  0  0  0  0  0  0  0  0  0  0  0
  141.0193   74.5389  218.1518 H   0  0  0  0  0  0  0  0  0  0  0  0
  138.1084   77.5597  222.5862 H   0  0  0  0  0  0  0  0  0  0  0  0
  138.4002   79.8734  223.4090 H   0  0  0  0  0  0  0  0  0  0  0  0
  139.9756   81.7273  224.0181 H   0  0  0  0  0  0  0  0  0  0  0  0
  142.3361   82.5121  224.2064 H   0  0  0  0  0  0  0  0  0  0  0  0
  144.2095   81.0323  223.6025 H   0  0  0  0  0  0  0  0  0  0  0  0
  143.7423   78.7291  222.7884 H   0  0  0  0  0  0  0  0  0  0  0  0
  1  2  2  0
  2  3  1  0
  3  4  1  0
  4  5  1  0
  5  6  2  0
  5  7  1  0
  7  8  1  0
  8  9  1  0
  9 10  1  0
  9 11  1  0
 11 12  1  0
 11 13  1  0
 13 14  1  0
 14 15  2  0
 15 16  1  0
 16 17  2  0
 17 18  1  0
 18 19  2  0
  2 20  1  0
 20 21  2  0
 21 22  1  0
 22 23  2  0
 23 24  1  0
 24 25  2  0
 25 26  1  0
 26 27  2  0
 27 28  1  0
 28 29  2  0
 13  7  1  0
 19 14  1  0
 29 20  1  0
 28 23  1  0
  3 30  1  0
  4 31  1  0
  4 32  1  0
  8 33  1  0
  8 34  1  0
  9 35  1  6
 10 36  1  0
 11 37  1  6
 12 38  1  0
 13 39  1  1
 15 40  1  0
 16 41  1  0
 17 42  1  0
 19 43  1  0
 21 44  1  0
 22 45  1  0
 24 46  1  0
 25 47  1  0
 26 48  1  0
 27 49  1  0
M  END
>  <smiles>  (47) 
O=C(NCC(=O)N1C[C@H](O)[C@H](O)[C@H]1c1cccnc1)c1ccc2ccccc2n1

>  <score_type>  (47) 
oracle

>  <origin>  (47) 
autodockgpu

>  <m_score__min__energy>  (47) 
-8.8499999999999996

>  <m_primary>  (47) 
energy

>  <rmsd>  (47) 
7.613883586775233

>  <m_score__min__rmsd>  (47) 
7.613883586775233

>  <meeko>  (47) 
{"free_energy": -7.73, "intermolecular_energy": -9.82, "internal_energy": -3.75, "cluster_size": 17, "cluster_id": 2, "rank_in_cluster": 9}

>  <energy>  (47) 
-6.94

>  <cluster_rmsd>  (47) 
0.56

>  <cluster>  (47) 
2

$$$$

     RDKit          3D

 49 52  0  0  0  0  0  0  0  0999 V2000
  141.1240   71.5600  221.4080 O   0  0  0  0  0  0  0  0  0  0  0  0
  140.5610   72.1710  222.3410 C   0  0  0  0  0  0  0  0  0  0  0  0
  140.1610   73.5330  222.2790 N   0  0  0  0  0  0  0  0  0  0  0  0
  140.4300   74.2800  221.0230 C   0  0  0  0  0  0  0  0  0  0  0  0
  140.7870   75.6710  221.3330 C   0  0  0  0  0  0  0  0  0  0  0  0
  140.2580   76.1530  222.4040 O   0  0  0  0  0  0  0  0  0  0  0  0
  141.6240   76.5400  220.6260 N   0  0  0  0  0  0  0  0  0  0  0  0
  142.3060   76.0350  219.3820 C   0  0  0  0  0  0  0  0  0  0  0  0
  142.0060   77.1830  218.4350 C   0  0  2  0  0  0  0  0  0  0  0  0
  143.1580   77.4710  217.7320 O   0  0  0  0  0  0  0  0  0  0  0  0
  141.6180   78.3830  219.3090 C   0  0  2  0  0  0  0  0  0  0  0  0
  142.3310   79.5020  218.9230 O   0  0  0  0  0  0  0  0  0  0  0  0
  142.0580   77.8790  220.6930 C   0  0  1  0  0  0  0  0  0  0  0  0
  141.6930   78.7530  221.7730 C   0  0  0  0  0  0  0  0  0  0  0  0
  140.3280   79.0530  221.9510 C   0  0  0  0  0  0  0  0  0  0  0  0
  139.9120   79.9100  222.9480 C   0  0  0  0  0  0  0  0  0  0  0  0
  140.7970   80.5060  223.8040 C   0  0  0  0  0  0  0  0  0  0  0  0
  142.1080   80.2150  223.6290 N   0  0  0  0  0  0  0  0  0  0  0  0
  142.5350   79.3810  222.6640 C   0  0  0  0  0  0  0  0  0  0  0  0
  140.2880   71.4390  223.5940 C   0  0  0  0  0  0  0  0  0  0  0  0
  139.6040   70.2450  223.5950 C   0  0  0  0  0  0  0  0  0  0  0  0
  139.3390   69.5410  224.7600 C   0  0  0  0  0  0  0  0  0  0  0  0
  139.7750   70.0530  225.9750 C   0  0  0  0  0  0  0  0  0  0  0  0
  139.5570   69.4230  227.1760 C   0  0  0  0  0  0  0  0  0  0  0  0
  140.0350   70.0180  228.3450 C   0  0  0  0  0  0  0  0  0  0  0  0
  140.7130   71.2060  228.3120 C   0  0  0  0  0  0  0  0  0  0  0  0
  140.9260   71.8290  227.1000 C   0  0  0  0  0  0  0  0  0  0  0  0
  140.4530   71.2440  225.9340 C   0  0  0  0  0  0  0  0  0  0  0  0
  140.6970   71.9050  224.7910 N   0  0  0  0  0  0  0  0  0  0  0  0
  139.6920   74.0040  223.0870 H   0  0  0  0  0  0  0  0  0  0  0  0
  141.2619   73.8014  220.4855 H   0  0  0  0  0  0  0  0  0  0  0  0
  139.5262   74.2700  220.3960 H   0  0  0  0  0  0  0  0  0  0  0  0
  143.3874   75.9027  219.5340 H   0  0  0  0  0  0  0  0  0  0  0  0
  141.9678   75.0472  219.0357 H   0  0  0  0  0  0  0  0  0  0  0  0
  141.1995   76.9403  217.7274 H   0  0  0  0  0  0  0  0  0  0  0  0
  143.1660   78.3850  217.3520 H   0  0  0  0  0  0  0  0  0  0  0  0
  140.5611   78.6837  219.2575 H   0  0  0  0  0  0  0  0  0  0  0  0
  143.2980   79.2940  218.8720 H   0  0  0  0  0  0  0  0  0  0  0  0
  143.1296   77.8966  220.9406 H   0  0  0  0  0  0  0  0  0  0  0  0
  139.5821   78.5962  221.2839 H   0  0  0  0  0  0  0  0  0  0  0  0
  138.8379   80.1204  223.0581 H   0  0  0  0  0  0  0  0  0  0  0  0
  140.4597   81.1895  224.5972 H   0  0  0  0  0  0  0  0  0  0  0  0
  143.6152   79.1901  222.5819 H   0  0  0  0  0  0  0  0  0  0  0  0
  139.2546   69.8338  222.6364 H   0  0  0  0  0  0  0  0  0  0  0  0
  138.7901   68.5885  224.7221 H   0  0  0  0  0  0  0  0  0  0  0  0
  139.0153   68.4665  227.2160 H   0  0  0  0  0  0  0  0  0  0  0  0
  139.8632   69.5219  229.3116 H   0  0  0  0  0  0  0  0  0  0  0  0
  141.0845   71.6597  229.2427 H   0  0  0  0  0  0  0  0  0  0  0  0
  141.4683   72.7851  227.0579 H   0  0  0  0  0  0  0  0  0  0  0  0
  1  2  2  0
  2  3  1  0
  3  4  1  0
  4  5  1  0
  5  6  2  0
  5  7  1  0
  7  8  1  0
  8  9  1  0
  9 10  1  0
  9 11  1  0
 11 12  1  0
 11 13  1  0
 13 14  1  0
 14 15  2  0
 15 16  1  0
 16 17  2  0
 17 18  1  0
 18 19  2  0
  2 20  1  0
 20 21  2  0
 21 22  1  0
 22 23  2  0
 23 24  1  0
 24 25  2  0
 25 26  1  0
 26 27  2  0
 27 28  1  0
 28 29  2  0
 13  7  1  0
 19 14  1  0
 29 20  1  0
 28 23  1  0
  3 30  1  0
  4 31  1  0
  4 32  1  0
  8 33  1  0
  8 34  1  0
  9 35  1  6
 10 36  1  0
 11 37  1  1
 12 38  1  0
 13 39  1  6
 15 40  1  0
 16 41  1  0
 17 42  1  0
 19 43  1  0
 21 44  1  0
 22 45  1  0
 24 46  1  0
 25 47  1  0
 26 48  1  0
 27 49  1  0
M  END
>  <smiles>  (48) 
O=C(NCC(=O)N1C[C@H](O)[C@H](O)[C@H]1c1cccnc1)c1ccc2ccccc2n1

>  <score_type>  (48) 
oracle

>  <origin>  (48) 
autodockgpu

>  <m_score__min__energy>  (48) 
-8.8499999999999996

>  <m_primary>  (48) 
energy

>  <rmsd>  (48) 
2.338344279522894

>  <m_score__min__rmsd>  (48) 
2.338344279522894

>  <meeko>  (48) 
{"free_energy": -8.3, "intermolecular_energy": -10.39, "internal_energy": -3.06, "cluster_size": 31, "cluster_id": 1, "rank_in_cluster": 27}

>  <energy>  (48) 
-6.89

>  <cluster_rmsd>  (48) 
0.58

>  <cluster>  (48) 
2

$$$$

     RDKit          3D

 49 52  0  0  0  0  0  0  0  0999 V2000
  140.9020   71.5410  221.3600 O   0  0  0  0  0  0  0  0  0  0  0  0
  140.4040   72.1300  222.3430 C   0  0  0  0  0  0  0  0  0  0  0  0
  139.9890   73.4890  222.3350 N   0  0  0  0  0  0  0  0  0  0  0  0
  140.1580   74.2600  221.0760 C   0  0  0  0  0  0  0  0  0  0  0  0
  140.5640   75.6380  221.3820 C   0  0  0  0  0  0  0  0  0  0  0  0
  139.9870   76.1710  222.4030 O   0  0  0  0  0  0  0  0  0  0  0  0
  141.4910   76.4480  220.7180 N   0  0  0  0  0  0  0  0  0  0  0  0
  142.2640   75.8660  219.5650 C   0  0  0  0  0  0  0  0  0  0  0  0
  142.0910   76.9770  218.5450 C   0  0  2  0  0  0  0  0  0  0  0  0
  143.3120   77.1970  217.9400 O   0  0  0  0  0  0  0  0  0  0  0  0
  141.6680   78.2270  219.3270 C   0  0  2  0  0  0  0  0  0  0  0  0
  142.4510   79.3050  218.9610 O   0  0  0  0  0  0  0  0  0  0  0  0
  141.9620   77.7750  220.7670 C   0  0  1  0  0  0  0  0  0  0  0  0
  141.5320   78.7090  221.7700 C   0  0  0  0  0  0  0  0  0  0  0  0
  142.5160   79.3190  222.5730 C   0  0  0  0  0  0  0  0  0  0  0  0
  142.1710   80.2010  223.5750 C   0  0  0  0  0  0  0  0  0  0  0  0
  140.8670   80.5220  223.8360 C   0  0  0  0  0  0  0  0  0  0  0  0
  139.9240   79.9330  223.0630 N   0  0  0  0  0  0  0  0  0  0  0  0
  140.2400   79.0710  222.0800 C   0  0  0  0  0  0  0  0  0  0  0  0
  140.2320   71.3740  223.5990 C   0  0  0  0  0  0  0  0  0  0  0  0
  139.5870   70.1580  223.6250 C   0  0  0  0  0  0  0  0  0  0  0  0
  139.4150   69.4320  224.7930 C   0  0  0  0  0  0  0  0  0  0  0  0
  139.9080   69.9420  225.9860 C   0  0  0  0  0  0  0  0  0  0  0  0
  139.7830   69.2910  227.1900 C   0  0  0  0  0  0  0  0  0  0  0  0
  140.3120   69.8870  228.3360 C   0  0  0  0  0  0  0  0  0  0  0  0
  140.9490   71.0970  228.2800 C   0  0  0  0  0  0  0  0  0  0  0  0
  141.0680   71.7400  227.0650 C   0  0  0  0  0  0  0  0  0  0  0  0
  140.5440   71.1550  225.9220 C   0  0  0  0  0  0  0  0  0  0  0  0
  140.6970   71.8380  224.7760 N   0  0  0  0  0  0  0  0  0  0  0  0
  139.5770   73.9410  223.1830 H   0  0  0  0  0  0  0  0  0  0  0  0
  140.9309   73.7815  220.4567 H   0  0  0  0  0  0  0  0  0  0  0  0
  139.2021   74.2774  220.5319 H   0  0  0  0  0  0  0  0  0  0  0  0
  143.3220   75.7079  219.8211 H   0  0  0  0  0  0  0  0  0  0  0  0
  141.9238   74.8742  219.2324 H   0  0  0  0  0  0  0  0  0  0  0  0
  141.3443   76.7265  217.7770 H   0  0  0  0  0  0  0  0  0  0  0  0
  143.3610   78.0620  217.4620 H   0  0  0  0  0  0  0  0  0  0  0  0
  140.6312   78.5567  219.1647 H   0  0  0  0  0  0  0  0  0  0  0  0
  143.4080   79.0490  218.9540 H   0  0  0  0  0  0  0  0  0  0  0  0
  143.0063   77.7720  221.1126 H   0  0  0  0  0  0  0  0  0  0  0  0
  143.5770   79.0877  222.3976 H   0  0  0  0  0  0  0  0  0  0  0  0
  142.9662   80.6592  224.1813 H   0  0  0  0  0  0  0  0  0  0  0  0
  140.5970   81.2261  224.6368 H   0  0  0  0  0  0  0  0  0  0  0  0
  139.4215   78.6311  221.4914 H   0  0  0  0  0  0  0  0  0  0  0  0
  139.1934   69.7472  222.6835 H   0  0  0  0  0  0  0  0  0  0  0  0
  138.8941   68.4633  224.7747 H   0  0  0  0  0  0  0  0  0  0  0  0
  139.2749   68.3172  227.2495 H   0  0  0  0  0  0  0  0  0  0  0  0
  140.2149   69.3736  229.3040 H   0  0  0  0  0  0  0  0  0  0  0  0
  141.3613   71.5516  229.1929 H   0  0  0  0  0  0  0  0  0  0  0  0
  141.5767   72.7133  227.0032 H   0  0  0  0  0  0  0  0  0  0  0  0
  1  2  2  0
  2  3  1  0
  3  4  1  0
  4  5  1  0
  5  6  2  0
  5  7  1  0
  7  8  1  0
  8  9  1  0
  9 10  1  0
  9 11  1  0
 11 12  1  0
 11 13  1  0
 13 14  1  0
 14 15  2  0
 15 16  1  0
 16 17  2  0
 17 18  1  0
 18 19  2  0
  2 20  1  0
 20 21  2  0
 21 22  1  0
 22 23  2  0
 23 24  1  0
 24 25  2  0
 25 26  1  0
 26 27  2  0
 27 28  1  0
 28 29  2  0
 13  7  1  0
 19 14  1  0
 29 20  1  0
 28 23  1  0
  3 30  1  0
  4 31  1  0
  4 32  1  0
  8 33  1  0
  8 34  1  0
  9 35  1  6
 10 36  1  0
 11 37  1  1
 12 38  1  0
 13 39  1  6
 15 40  1  0
 16 41  1  0
 17 42  1  0
 19 43  1  0
 21 44  1  0
 22 45  1  0
 24 46  1  0
 25 47  1  0
 26 48  1  0
 27 49  1  0
M  END
>  <smiles>  (49) 
O=C(NCC(=O)N1C[C@H](O)[C@H](O)[C@H]1c1cccnc1)c1ccc2ccccc2n1

>  <score_type>  (49) 
oracle

>  <origin>  (49) 
autodockgpu

>  <m_score__min__energy>  (49) 
-8.8499999999999996

>  <m_primary>  (49) 
energy

>  <rmsd>  (49) 
2.246404611138207

>  <m_score__min__rmsd>  (49) 
2.246404611138207

>  <meeko>  (49) 
{"free_energy": -8.53, "intermolecular_energy": -10.61, "internal_energy": -2.95, "cluster_size": 31, "cluster_id": 1, "rank_in_cluster": 9}

>  <energy>  (49) 
-7.71

>  <cluster_rmsd>  (49) 
0.0

>  <cluster>  (49) 
3

$$$$

     RDKit          3D

 49 52  0  0  0  0  0  0  0  0999 V2000
  141.4910   72.6400  221.9280 O   0  0  0  0  0  0  0  0  0  0  0  0
  140.3890   72.6360  222.5160 C   0  0  0  0  0  0  0  0  0  0  0  0
  139.3090   73.5020  222.1970 N   0  0  0  0  0  0  0  0  0  0  0  0
  139.5020   74.4760  221.0910 C   0  0  0  0  0  0  0  0  0  0  0  0
  140.1620   75.6860  221.5980 C   0  0  0  0  0  0  0  0  0  0  0  0
  139.7130   76.1330  222.7200 O   0  0  0  0  0  0  0  0  0  0  0  0
  141.2100   76.4180  221.0300 N   0  0  0  0  0  0  0  0  0  0  0  0
  142.1320   75.7260  220.0620 C   0  0  0  0  0  0  0  0  0  0  0  0
  142.1620   76.7560  218.9460 C   0  0  2  0  0  0  0  0  0  0  0  0
  143.4690   76.8970  218.5270 O   0  0  0  0  0  0  0  0  0  0  0  0
  141.6670   78.0740  219.5550 C   0  0  2  0  0  0  0  0  0  0  0  0
  142.5360   79.1000  219.2370 O   0  0  0  0  0  0  0  0  0  0  0  0
  141.7160   77.7320  221.0530 C   0  0  1  0  0  0  0  0  0  0  0  0
  141.1690   78.7540  221.9020 C   0  0  0  0  0  0  0  0  0  0  0  0
  142.0620   79.5240  222.6720 C   0  0  0  0  0  0  0  0  0  0  0  0
  141.6020   80.4990  223.5320 C   0  0  0  0  0  0  0  0  0  0  0  0
  140.2680   80.7630  223.6760 C   0  0  0  0  0  0  0  0  0  0  0  0
  139.4130   80.0200  222.9340 N   0  0  0  0  0  0  0  0  0  0  0  0
  139.8410   79.0650  222.0890 C   0  0  0  0  0  0  0  0  0  0  0  0
  140.1860   71.6730  223.6170 C   0  0  0  0  0  0  0  0  0  0  0  0
  139.4890   70.5010  223.4290 C   0  0  0  0  0  0  0  0  0  0  0  0
  139.2880   69.5840  224.4480 C   0  0  0  0  0  0  0  0  0  0  0  0
  139.8040   69.8480  225.7090 C   0  0  0  0  0  0  0  0  0  0  0  0
  139.6520   68.9970  226.7760 C   0  0  0  0  0  0  0  0  0  0  0  0
  140.2090   69.3520  228.0070 C   0  0  0  0  0  0  0  0  0  0  0  0
  140.8960   70.5240  228.1640 C   0  0  0  0  0  0  0  0  0  0  0  0
  141.0420   71.3710  227.0850 C   0  0  0  0  0  0  0  0  0  0  0  0
  140.4910   71.0250  225.8600 C   0  0  0  0  0  0  0  0  0  0  0  0
  140.6730   71.8970  224.8540 N   0  0  0  0  0  0  0  0  0  0  0  0
  138.4030   73.4640  222.7180 H   0  0  0  0  0  0  0  0  0  0  0  0
  140.1272   74.0203  220.3090 H   0  0  0  0  0  0  0  0  0  0  0  0
  138.5213   74.7473  220.6730 H   0  0  0  0  0  0  0  0  0  0  0  0
  143.1303   75.5630  220.4943 H   0  0  0  0  0  0  0  0  0  0  0  0
  141.8118   74.7193  219.7555 H   0  0  0  0  0  0  0  0  0  0  0  0
  141.5366   76.4630  218.0898 H   0  0  0  0  0  0  0  0  0  0  0  0
  144.0000   77.5030  219.1020 H   0  0  0  0  0  0  0  0  0  0  0  0
  140.6806   78.4141  219.2067 H   0  0  0  0  0  0  0  0  0  0  0  0
  143.3970   78.7340  218.9100 H   0  0  0  0  0  0  0  0  0  0  0  0
  142.6927   77.7312  221.5590 H   0  0  0  0  0  0  0  0  0  0  0  0
  143.1439   79.3449  222.5861 H   0  0  0  0  0  0  0  0  0  0  0  0
  142.3285   81.0806  224.1185 H   0  0  0  0  0  0  0  0  0  0  0  0
  139.9063   81.5426  224.3626 H   0  0  0  0  0  0  0  0  0  0  0  0
  139.0892   78.5020  221.5164 H   0  0  0  0  0  0  0  0  0  0  0  0
  139.0762   70.2844  222.4327 H   0  0  0  0  0  0  0  0  0  0  0  0
  138.7259   68.6574  224.2597 H   0  0  0  0  0  0  0  0  0  0  0  0
  139.1009   68.0517  226.6633 H   0  0  0  0  0  0  0  0  0  0  0  0
  140.0927   68.6757  228.8667 H   0  0  0  0  0  0  0  0  0  0  0  0
  141.3277   70.7886  229.1406 H   0  0  0  0  0  0  0  0  0  0  0  0
  141.5930   72.3166  227.1956 H   0  0  0  0  0  0  0  0  0  0  0  0
  1  2  2  0
  2  3  1  0
  3  4  1  0
  4  5  1  0
  5  6  2  0
  5  7  1  0
  7  8  1  0
  8  9  1  0
  9 10  1  0
  9 11  1  0
 11 12  1  0
 11 13  1  0
 13 14  1  0
 14 15  2  0
 15 16  1  0
 16 17  2  0
 17 18  1  0
 18 19  2  0
  2 20  1  0
 20 21  2  0
 21 22  1  0
 22 23  2  0
 23 24  1  0
 24 25  2  0
 25 26  1  0
 26 27  2  0
 27 28  1  0
 28 29  2  0
 13  7  1  0
 19 14  1  0
 29 20  1  0
 28 23  1  0
  3 30  1  0
  4 31  1  0
  4 32  1  0
  8 33  1  0
  8 34  1  0
  9 35  1  6
 10 36  1  0
 11 37  1  6
 12 38  1  0
 13 39  1  1
 15 40  1  0
 16 41  1  0
 17 42  1  0
 19 43  1  0
 21 44  1  0
 22 45  1  0
 24 46  1  0
 25 47  1  0
 26 48  1  0
 27 49  1  0
M  END
>  <smiles>  (50) 
O=C(NCC(=O)N1C[C@H](O)[C@H](O)[C@H]1c1cccnc1)c1ccc2ccccc2n1

>  <score_type>  (50) 
oracle

>  <origin>  (50) 
autodockgpu

>  <m_score__min__energy>  (50) 
-8.8499999999999996

>  <m_primary>  (50) 
energy

>  <rmsd>  (50) 
2.234707132225306

>  <m_score__min__rmsd>  (50) 
2.234707132225306

>  <meeko>  (50) 
{"free_energy": -8.71, "intermolecular_energy": -10.79, "internal_energy": -2.6, "cluster_size": 31, "cluster_id": 1, "rank_in_cluster": 2}

>  <energy>  (50) 
-7.4

>  <cluster_rmsd>  (50) 
0.0

>  <cluster>  (50) 
4

$$$$
