
     RDKit          3D

 57 61  0  0  0  0  0  0  0  0999 V2000
  139.1940   67.5790  225.1320 O   0  0  0  0  0  0  0  0  0  0  0  0
  139.3630   68.8180  225.0130 C   0  0  0  0  0  0  0  0  0  0  0  0
  138.9270   69.4690  223.7570 C   0  0  0  0  0  0  0  0  0  0  0  0
  139.2270   70.9150  223.8460 C   0  0  0  0  0  0  0  0  0  0  0  0
  138.8750   71.7400  222.6770 C   0  0  0  0  0  0  0  0  0  0  0  0
  137.6090   71.6340  222.1190 C   0  0  0  0  0  0  0  0  0  0  0  0
  137.2420   72.4080  221.0110 C   0  0  0  0  0  0  0  0  0  0  0  0
  138.1720   73.2850  220.4840 C   0  0  0  0  0  0  0  0  0  0  0  0
  139.4380   73.4150  221.0130 C   0  0  0  0  0  0  0  0  0  0  0  0
  140.4470   74.3240  220.4940 C   0  0  0  0  0  0  0  0  0  0  0  0
  141.0120   73.9520  219.4090 O   0  0  0  0  0  0  0  0  0  0  0  0
  140.8070   75.5500  221.1270 N   0  0  0  0  0  0  0  0  0  0  0  0
  140.1150   75.8840  222.3470 C   0  0  0  0  0  0  0  0  0  0  0  0
  139.9010   77.3840  222.3770 C   0  0  0  0  0  0  0  0  0  0  0  0
  141.1950   78.0980  222.0410 C   0  0  0  0  0  0  0  0  0  0  0  0
  141.2050   79.4390  222.4620 N   0  0  0  0  0  0  0  0  0  0  0  0
  141.8410   80.4030  221.6310 C   0  0  0  0  0  0  0  0  0  0  0  0
  141.8310   81.6310  222.5540 C   0  0  0  0  0  0  0  0  0  0  0  0
  142.3550   80.9770  223.8390 C   0  0  0  0  0  0  0  0  0  0  0  0
  141.5570   79.6700  223.8260 C   0  0  0  0  0  0  0  0  0  0  0  0
  141.6000   77.8370  220.6090 C   0  0  0  0  0  0  0  0  0  0  0  0
  141.8260   76.3400  220.5010 C   0  0  0  0  0  0  0  0  0  0  0  0
  139.7450   72.6250  222.1060 C   0  0  0  0  0  0  0  0  0  0  0  0
  139.7670   71.5060  224.8340 N   0  0  0  0  0  0  0  0  0  0  0  0
  140.1740   70.8760  226.0190 C   0  0  0  0  0  0  0  0  0  0  0  0
  140.7590   71.5180  227.0890 C   0  0  0  0  0  0  0  0  0  0  0  0
  141.1480   70.8660  228.2430 C   0  0  0  0  0  0  0  0  0  0  0  0
  140.9460   69.4940  228.3460 C   0  0  0  0  0  0  0  0  0  0  0  0
  140.3540   68.8180  227.2770 C   0  0  0  0  0  0  0  0  0  0  0  0
  139.9780   69.5160  226.1300 C   0  0  0  0  0  0  0  0  0  0  0  0
  139.4673   69.0302  222.9052 H   0  0  0  0  0  0  0  0  0  0  0  0
  137.8474   69.3175  223.6104 H   0  0  0  0  0  0  0  0  0  0  0  0
  136.8826   70.9314  222.5535 H   0  0  0  0  0  0  0  0  0  0  0  0
  136.2379   72.3203  220.5705 H   0  0  0  0  0  0  0  0  0  0  0  0
  137.8925   73.8985  219.6148 H   0  0  0  0  0  0  0  0  0  0  0  0
  139.1435   75.3690  222.3766 H   0  0  0  0  0  0  0  0  0  0  0  0
  140.7081   75.5682  223.2179 H   0  0  0  0  0  0  0  0  0  0  0  0
  139.1319   77.6572  221.6396 H   0  0  0  0  0  0  0  0  0  0  0  0
  139.5743   77.6825  223.3841 H   0  0  0  0  0  0  0  0  0  0  0  0
  142.0079   77.6621  222.6403 H   0  0  0  0  0  0  0  0  0  0  0  0
  142.8661   80.1002  221.3714 H   0  0  0  0  0  0  0  0  0  0  0  0
  141.3509   80.5602  220.6589 H   0  0  0  0  0  0  0  0  0  0  0  0
  142.5027   82.4233  222.1921 H   0  0  0  0  0  0  0  0  0  0  0  0
  140.8614   82.1421  222.6473 H   0  0  0  0  0  0  0  0  0  0  0  0
  143.4383   80.7929  223.7894 H   0  0  0  0  0  0  0  0  0  0  0  0
  142.2303   81.5835  224.7482 H   0  0  0  0  0  0  0  0  0  0  0  0
  142.1727   78.8422  224.2076 H   0  0  0  0  0  0  0  0  0  0  0  0
  140.6656   79.7351  224.4673 H   0  0  0  0  0  0  0  0  0  0  0  0
  140.8005   78.1528  219.9226 H   0  0  0  0  0  0  0  0  0  0  0  0
  142.5053   78.4004  220.3386 H   0  0  0  0  0  0  0  0  0  0  0  0
  141.8653   76.0721  219.4348 H   0  0  0  0  0  0  0  0  0  0  0  0
  142.7667   76.1213  221.0276 H   0  0  0  0  0  0  0  0  0  0  0  0
  140.7509   72.7148  222.5420 H   0  0  0  0  0  0  0  0  0  0  0  0
  140.9244   72.6034  227.0207 H   0  0  0  0  0  0  0  0  0  0  0  0
  141.6114   71.4247  229.0695 H   0  0  0  0  0  0  0  0  0  0  0  0
  141.2473   68.9506  229.2537 H   0  0  0  0  0  0  0  0  0  0  0  0
  140.1840   67.7330  227.3399 H   0  0  0  0  0  0  0  0  0  0  0  0
  1  2  2  0
  2  3  1  0
  3  4  1  0
  4  5  1  0
  5  6  2  0
  6  7  1  0
  7  8  2  0
  8  9  1  0
  9 10  1  0
 10 11  2  0
 10 12  1  0
 12 13  1  0
 13 14  1  0
 14 15  1  0
 15 16  1  0
 16 17  1  0
 17 18  1  0
 18 19  1  0
 19 20  1  0
 15 21  1  0
 21 22  1  0
  9 23  2  0
  4 24  2  0
 24 25  1  0
 25 26  2  0
 26 27  1  0
 27 28  2  0
 28 29  1  0
 29 30  2  0
 30  2  1  0
 23  5  1  0
 30 25  1  0
 22 12  1  0
 20 16  1  0
  3 31  1  0
  3 32  1  0
  6 33  1  0
  7 34  1  0
  8 35  1  0
 13 36  1  0
 13 37  1  0
 14 38  1  0
 14 39  1  0
 15 40  1  0
 17 41  1  0
 17 42  1  0
 18 43  1  0
 18 44  1  0
 19 45  1  0
 19 46  1  0
 20 47  1  0
 20 48  1  0
 21 49  1  0
 21 50  1  0
 22 51  1  0
 22 52  1  0
 23 53  1  0
 26 54  1  0
 27 55  1  0
 28 56  1  0
 29 57  1  0
M  END
>  <smiles>  (1) 
O=C1CC(c2cccc(C(=O)N3CCC(N4CCCC4)CC3)c2)=Nc2ccccc21

>  <score_type>  (1) 
oracle

>  <origin>  (1) 
autodockgpu

>  <m_score__min__energy>  (1) 
-9.6099999999999994

>  <m_primary>  (1) 
energy

>  <rmsd>  (1) 
6.74757841570961

>  <m_score__min__rmsd>  (1) 
6.74757841570961

>  <meeko>  (1) 
{"free_energy": -9.6, "intermolecular_energy": -10.49, "internal_energy": -1.0, "cluster_size": 50, "cluster_id": 1, "rank_in_cluster": 6}

>  <energy>  (1) 
-9.61

>  <cluster_rmsd>  (1) 
0.0

>  <cluster>  (1) 
1

$$$$

     RDKit          3D

 57 61  0  0  0  0  0  0  0  0999 V2000
  139.2070   67.6940  225.0370 O   0  0  0  0  0  0  0  0  0  0  0  0
  139.5680   68.8910  224.9030 C   0  0  0  0  0  0  0  0  0  0  0  0
  139.4270   69.5200  223.5700 C   0  0  0  0  0  0  0  0  0  0  0  0
  139.9130   70.9150  223.6540 C   0  0  0  0  0  0  0  0  0  0  0  0
  139.8650   71.7110  222.4140 C   0  0  0  0  0  0  0  0  0  0  0  0
  140.4650   71.2220  221.2620 C   0  0  0  0  0  0  0  0  0  0  0  0
  140.4330   71.9530  220.0680 C   0  0  0  0  0  0  0  0  0  0  0  0
  139.7870   73.1750  220.0610 C   0  0  0  0  0  0  0  0  0  0  0  0
  139.1810   73.6900  221.1870 C   0  0  0  0  0  0  0  0  0  0  0  0
  138.4890   74.9670  221.2270 C   0  0  0  0  0  0  0  0  0  0  0  0
  137.2280   74.9130  221.0190 O   0  0  0  0  0  0  0  0  0  0  0  0
  139.1390   76.2120  221.4740 N   0  0  0  0  0  0  0  0  0  0  0  0
  140.5630   76.1730  221.6970 C   0  0  0  0  0  0  0  0  0  0  0  0
  140.9100   77.2140  222.7420 C   0  0  0  0  0  0  0  0  0  0  0  0
  140.2510   78.5350  222.3950 C   0  0  0  0  0  0  0  0  0  0  0  0
  140.8510   79.6310  223.0370 N   0  0  0  0  0  0  0  0  0  0  0  0
  141.0410   80.8290  222.2930 C   0  0  0  0  0  0  0  0  0  0  0  0
  141.9120   81.6380  223.2670 C   0  0  0  0  0  0  0  0  0  0  0  0
  142.9410   80.5610  223.6310 C   0  0  0  0  0  0  0  0  0  0  0  0
  142.0200   79.3500  223.8080 C   0  0  0  0  0  0  0  0  0  0  0  0
  138.7480   78.4320  222.4970 C   0  0  0  0  0  0  0  0  0  0  0  0
  138.3260   77.3920  221.4760 C   0  0  0  0  0  0  0  0  0  0  0  0
  139.2450   72.9250  222.3370 C   0  0  0  0  0  0  0  0  0  0  0  0
  140.3730   71.4840  224.6940 N   0  0  0  0  0  0  0  0  0  0  0  0
  140.4990   70.8750  225.9510 C   0  0  0  0  0  0  0  0  0  0  0  0
  140.9970   71.4930  227.0770 C   0  0  0  0  0  0  0  0  0  0  0  0
  141.1080   70.8630  228.3010 C   0  0  0  0  0  0  0  0  0  0  0  0
  140.6990   69.5390  228.4190 C   0  0  0  0  0  0  0  0  0  0  0  0
  140.1890   68.8890  227.2950 C   0  0  0  0  0  0  0  0  0  0  0  0
  140.0970   69.5630  226.0780 C   0  0  0  0  0  0  0  0  0  0  0  0
  140.0235   68.9633  222.8323 H   0  0  0  0  0  0  0  0  0  0  0  0
  138.3725   69.5070  223.2574 H   0  0  0  0  0  0  0  0  0  0  0  0
  140.9728   70.2465  221.2872 H   0  0  0  0  0  0  0  0  0  0  0  0
  140.9108   71.5638  219.1568 H   0  0  0  0  0  0  0  0  0  0  0  0
  139.7555   73.7551  219.1270 H   0  0  0  0  0  0  0  0  0  0  0  0
  140.8562   75.1749  222.0546 H   0  0  0  0  0  0  0  0  0  0  0  0
  141.0991   76.3836  220.7599 H   0  0  0  0  0  0  0  0  0  0  0  0
  140.5529   76.8759  223.7260 H   0  0  0  0  0  0  0  0  0  0  0  0
  142.0012   77.3501  222.7684 H   0  0  0  0  0  0  0  0  0  0  0  0
  140.4392   78.7590  221.3346 H   0  0  0  0  0  0  0  0  0  0  0  0
  141.5647   80.6378  221.3447 H   0  0  0  0  0  0  0  0  0  0  0  0
  140.1095   81.3302  221.9912 H   0  0  0  0  0  0  0  0  0  0  0  0
  142.3797   82.5051  222.7776 H   0  0  0  0  0  0  0  0  0  0  0  0
  141.3763   82.0837  224.1181 H   0  0  0  0  0  0  0  0  0  0  0  0
  143.6689   80.4036  222.8215 H   0  0  0  0  0  0  0  0  0  0  0  0
  143.5640   80.7970  224.5063 H   0  0  0  0  0  0  0  0  0  0  0  0
  142.5119   78.4381  223.4386 H   0  0  0  0  0  0  0  0  0  0  0  0
  141.7744   79.1809  224.8668 H   0  0  0  0  0  0  0  0  0  0  0  0
  138.4551   78.1144  223.5086 H   0  0  0  0  0  0  0  0  0  0  0  0
  138.2653   79.4017  222.3052 H   0  0  0  0  0  0  0  0  0  0  0  0
  137.2886   77.0966  221.6920 H   0  0  0  0  0  0  0  0  0  0  0  0
  138.4374   77.8562  220.4850 H   0  0  0  0  0  0  0  0  0  0  0  0
  138.7669   73.3188  223.2460 H   0  0  0  0  0  0  0  0  0  0  0  0
  141.3225   72.5407  226.9972 H   0  0  0  0  0  0  0  0  0  0  0  0
  141.5142   71.4009  229.1703 H   0  0  0  0  0  0  0  0  0  0  0  0
  140.7763   69.0133  229.3822 H   0  0  0  0  0  0  0  0  0  0  0  0
  139.8587   67.8424  227.3690 H   0  0  0  0  0  0  0  0  0  0  0  0
  1  2  2  0
  2  3  1  0
  3  4  1  0
  4  5  1  0
  5  6  2  0
  6  7  1  0
  7  8  2  0
  8  9  1  0
  9 10  1  0
 10 11  2  0
 10 12  1  0
 12 13  1  0
 13 14  1  0
 14 15  1  0
 15 16  1  0
 16 17  1  0
 17 18  1  0
 18 19  1  0
 19 20  1  0
 15 21  1  0
 21 22  1  0
  9 23  2  0
  4 24  2  0
 24 25  1  0
 25 26  2  0
 26 27  1  0
 27 28  2  0
 28 29  1  0
 29 30  2  0
 30  2  1  0
 23  5  1  0
 30 25  1  0
 22 12  1  0
 20 16  1  0
  3 31  1  0
  3 32  1  0
  6 33  1  0
  7 34  1  0
  8 35  1  0
 13 36  1  0
 13 37  1  0
 14 38  1  0
 14 39  1  0
 15 40  1  0
 17 41  1  0
 17 42  1  0
 18 43  1  0
 18 44  1  0
 19 45  1  0
 19 46  1  0
 20 47  1  0
 20 48  1  0
 21 49  1  0
 21 50  1  0
 22 51  1  0
 22 52  1  0
 23 53  1  0
 26 54  1  0
 27 55  1  0
 28 56  1  0
 29 57  1  0
M  END
>  <smiles>  (2) 
O=C1CC(c2cccc(C(=O)N3CCC(N4CCCC4)CC3)c2)=Nc2ccccc21

>  <score_type>  (2) 
oracle

>  <origin>  (2) 
autodockgpu

>  <m_score__min__energy>  (2) 
-9.6099999999999994

>  <m_primary>  (2) 
energy

>  <rmsd>  (2) 
7.108202017287454

>  <m_score__min__rmsd>  (2) 
7.108202017287454

>  <meeko>  (2) 
{"free_energy": -9.58, "intermolecular_energy": -10.48, "internal_energy": -1.01, "cluster_size": 50, "cluster_id": 1, "rank_in_cluster": 33}

>  <energy>  (2) 
-9.6

>  <cluster_rmsd>  (2) 
0.08

>  <cluster>  (2) 
1

$$$$

     RDKit          3D

 57 61  0  0  0  0  0  0  0  0999 V2000
  139.1830   67.7050  225.0470 O   0  0  0  0  0  0  0  0  0  0  0  0
  139.5590   68.8970  224.9150 C   0  0  0  0  0  0  0  0  0  0  0  0
  139.4460   69.5240  223.5790 C   0  0  0  0  0  0  0  0  0  0  0  0
  139.9450   70.9140  223.6670 C   0  0  0  0  0  0  0  0  0  0  0  0
  139.9260   71.7070  222.4250 C   0  0  0  0  0  0  0  0  0  0  0  0
  140.5660   71.2230  221.2930 C   0  0  0  0  0  0  0  0  0  0  0  0
  140.5610   71.9510  220.0960 C   0  0  0  0  0  0  0  0  0  0  0  0
  139.9030   73.1650  220.0680 C   0  0  0  0  0  0  0  0  0  0  0  0
  139.2580   73.6760  221.1740 C   0  0  0  0  0  0  0  0  0  0  0  0
  138.5510   74.9460  221.1900 C   0  0  0  0  0  0  0  0  0  0  0  0
  137.2940   74.8750  220.9620 O   0  0  0  0  0  0  0  0  0  0  0  0
  139.1840   76.2000  221.4340 N   0  0  0  0  0  0  0  0  0  0  0  0
  140.6040   76.1790  221.6800 C   0  0  0  0  0  0  0  0  0  0  0  0
  140.9230   77.2350  222.7190 C   0  0  0  0  0  0  0  0  0  0  0  0
  140.2550   78.5440  222.3490 C   0  0  0  0  0  0  0  0  0  0  0  0
  140.8320   79.6540  222.9890 N   0  0  0  0  0  0  0  0  0  0  0  0
  141.0680   80.8290  222.2230 C   0  0  0  0  0  0  0  0  0  0  0  0
  141.8980   81.6590  223.2150 C   0  0  0  0  0  0  0  0  0  0  0  0
  142.8990   80.5850  223.6580 C   0  0  0  0  0  0  0  0  0  0  0  0
  141.9610   79.3860  223.8220 C   0  0  0  0  0  0  0  0  0  0  0  0
  138.7520   78.4260  222.4290 C   0  0  0  0  0  0  0  0  0  0  0  0
  138.3570   77.3710  221.4110 C   0  0  0  0  0  0  0  0  0  0  0  0
  139.2960   72.9140  222.3270 C   0  0  0  0  0  0  0  0  0  0  0  0
  140.3940   71.4810  224.7130 N   0  0  0  0  0  0  0  0  0  0  0  0
  140.4930   70.8740  225.9740 C   0  0  0  0  0  0  0  0  0  0  0  0
  140.9800   71.4900  227.1060 C   0  0  0  0  0  0  0  0  0  0  0  0
  141.0640   70.8620  228.3330 C   0  0  0  0  0  0  0  0  0  0  0  0
  140.6390   69.5420  228.4480 C   0  0  0  0  0  0  0  0  0  0  0  0
  140.1400   68.8950  227.3170 C   0  0  0  0  0  0  0  0  0  0  0  0
  140.0750   69.5660  226.0970 C   0  0  0  0  0  0  0  0  0  0  0  0
  140.0484   68.9592  222.8523 H   0  0  0  0  0  0  0  0  0  0  0  0
  138.3964   69.5213  223.2498 H   0  0  0  0  0  0  0  0  0  0  0  0
  141.0847   70.2539  221.3360 H   0  0  0  0  0  0  0  0  0  0  0  0
  141.0690   71.5649  219.1999 H   0  0  0  0  0  0  0  0  0  0  0  0
  139.8933   73.7432  219.1323 H   0  0  0  0  0  0  0  0  0  0  0  0
  140.9022   75.1881  222.0532 H   0  0  0  0  0  0  0  0  0  0  0  0
  141.1528   76.3854  220.7493 H   0  0  0  0  0  0  0  0  0  0  0  0
  140.5549   76.9029  223.7009 H   0  0  0  0  0  0  0  0  0  0  0  0
  142.0121   77.3841  222.7600 H   0  0  0  0  0  0  0  0  0  0  0  0
  140.4580   78.7580  221.2893 H   0  0  0  0  0  0  0  0  0  0  0  0
  141.6351   80.6076  221.3068 H   0  0  0  0  0  0  0  0  0  0  0  0
  140.1563   81.3283  221.8632 H   0  0  0  0  0  0  0  0  0  0  0  0
  142.3961   82.5085  222.7248 H   0  0  0  0  0  0  0  0  0  0  0  0
  141.3260   82.1326  224.0265 H   0  0  0  0  0  0  0  0  0  0  0  0
  143.6644   80.4006  222.8897 H   0  0  0  0  0  0  0  0  0  0  0  0
  143.4803   80.8405  224.5563 H   0  0  0  0  0  0  0  0  0  0  0  0
  142.4626   78.4613  223.5005 H   0  0  0  0  0  0  0  0  0  0  0  0
  141.6637   79.2470  224.8719 H   0  0  0  0  0  0  0  0  0  0  0  0
  138.4468   78.1149  223.4390 H   0  0  0  0  0  0  0  0  0  0  0  0
  138.2620   79.3885  222.2206 H   0  0  0  0  0  0  0  0  0  0  0  0
  137.3197   77.0660  221.6137 H   0  0  0  0  0  0  0  0  0  0  0  0
  138.4780   77.8266  220.4171 H   0  0  0  0  0  0  0  0  0  0  0  0
  138.7871   73.3045  223.2206 H   0  0  0  0  0  0  0  0  0  0  0  0
  141.3187   72.5337  227.0286 H   0  0  0  0  0  0  0  0  0  0  0  0
  141.4614   71.3979  229.2075 H   0  0  0  0  0  0  0  0  0  0  0  0
  140.6955   69.0179  229.4135 H   0  0  0  0  0  0  0  0  0  0  0  0
  139.7969   67.8523  227.3883 H   0  0  0  0  0  0  0  0  0  0  0  0
  1  2  2  0
  2  3  1  0
  3  4  1  0
  4  5  1  0
  5  6  2  0
  6  7  1  0
  7  8  2  0
  8  9  1  0
  9 10  1  0
 10 11  2  0
 10 12  1  0
 12 13  1  0
 13 14  1  0
 14 15  1  0
 15 16  1  0
 16 17  1  0
 17 18  1  0
 18 19  1  0
 19 20  1  0
 15 21  1  0
 21 22  1  0
  9 23  2  0
  4 24  2  0
 24 25  1  0
 25 26  2  0
 26 27  1  0
 27 28  2  0
 28 29  1  0
 29 30  2  0
 30  2  1  0
 23  5  1  0
 30 25  1  0
 22 12  1  0
 20 16  1  0
  3 31  1  0
  3 32  1  0
  6 33  1  0
  7 34  1  0
  8 35  1  0
 13 36  1  0
 13 37  1  0
 14 38  1  0
 14 39  1  0
 15 40  1  0
 17 41  1  0
 17 42  1  0
 18 43  1  0
 18 44  1  0
 19 45  1  0
 19 46  1  0
 20 47  1  0
 20 48  1  0
 21 49  1  0
 21 50  1  0
 22 51  1  0
 22 52  1  0
 23 53  1  0
 26 54  1  0
 27 55  1  0
 28 56  1  0
 29 57  1  0
M  END
>  <smiles>  (3) 
O=C1CC(c2cccc(C(=O)N3CCC(N4CCCC4)CC3)c2)=Nc2ccccc21

>  <score_type>  (3) 
oracle

>  <origin>  (3) 
autodockgpu

>  <m_score__min__energy>  (3) 
-9.6099999999999994

>  <m_primary>  (3) 
energy

>  <rmsd>  (3) 
7.099046776495282

>  <m_score__min__rmsd>  (3) 
7.099046776495282

>  <meeko>  (3) 
{"free_energy": -9.59, "intermolecular_energy": -10.48, "internal_energy": -1.01, "cluster_size": 50, "cluster_id": 1, "rank_in_cluster": 29}

>  <energy>  (3) 
-9.6

>  <cluster_rmsd>  (3) 
0.05

>  <cluster>  (3) 
1

$$$$

     RDKit          3D

 57 61  0  0  0  0  0  0  0  0999 V2000
  139.2060   67.5930  225.1680 O   0  0  0  0  0  0  0  0  0  0  0  0
  139.3800   68.8300  225.0290 C   0  0  0  0  0  0  0  0  0  0  0  0
  138.9460   69.4610  223.7620 C   0  0  0  0  0  0  0  0  0  0  0  0
  139.2510   70.9070  223.8270 C   0  0  0  0  0  0  0  0  0  0  0  0
  138.9010   71.7140  222.6440 C   0  0  0  0  0  0  0  0  0  0  0  0
  137.6440   71.5840  222.0730 C   0  0  0  0  0  0  0  0  0  0  0  0
  137.2800   72.3400  220.9520 C   0  0  0  0  0  0  0  0  0  0  0  0
  138.2040   73.2220  220.4250 C   0  0  0  0  0  0  0  0  0  0  0  0
  139.4620   73.3760  220.9670 C   0  0  0  0  0  0  0  0  0  0  0  0
  140.4650   74.2920  220.4490 C   0  0  0  0  0  0  0  0  0  0  0  0
  141.0270   73.9280  219.3590 O   0  0  0  0  0  0  0  0  0  0  0  0
  140.8230   75.5160  221.0880 N   0  0  0  0  0  0  0  0  0  0  0  0
  140.1350   75.8400  222.3120 C   0  0  0  0  0  0  0  0  0  0  0  0
  139.9140   77.3390  222.3510 C   0  0  0  0  0  0  0  0  0  0  0  0
  141.2030   78.0610  222.0130 C   0  0  0  0  0  0  0  0  0  0  0  0
  141.2100   79.3990  222.4420 N   0  0  0  0  0  0  0  0  0  0  0  0
  141.7920   80.3780  221.5900 C   0  0  0  0  0  0  0  0  0  0  0  0
  141.8030   81.6010  222.5200 C   0  0  0  0  0  0  0  0  0  0  0  0
  142.3920   80.9490  223.7770 C   0  0  0  0  0  0  0  0  0  0  0  0
  141.6170   79.6280  223.7910 C   0  0  0  0  0  0  0  0  0  0  0  0
  141.6040   77.8090  220.5790 C   0  0  0  0  0  0  0  0  0  0  0  0
  141.8360   76.3140  220.4620 C   0  0  0  0  0  0  0  0  0  0  0  0
  139.7660   72.6030  222.0720 C   0  0  0  0  0  0  0  0  0  0  0  0
  139.7920   71.5130  224.8050 N   0  0  0  0  0  0  0  0  0  0  0  0
  140.1970   70.9020  226.0010 C   0  0  0  0  0  0  0  0  0  0  0  0
  140.7840   71.5590  227.0600 C   0  0  0  0  0  0  0  0  0  0  0  0
  141.1710   70.9250  228.2250 C   0  0  0  0  0  0  0  0  0  0  0  0
  140.9640   69.5560  228.3500 C   0  0  0  0  0  0  0  0  0  0  0  0
  140.3700   68.8650  227.2930 C   0  0  0  0  0  0  0  0  0  0  0  0
  139.9970   69.5440  226.1340 C   0  0  0  0  0  0  0  0  0  0  0  0
  139.4848   69.0061  222.9177 H   0  0  0  0  0  0  0  0  0  0  0  0
  137.8659   69.3106  223.6176 H   0  0  0  0  0  0  0  0  0  0  0  0
  136.9222   70.8765  222.5071 H   0  0  0  0  0  0  0  0  0  0  0  0
  136.2821   72.2343  220.5015 H   0  0  0  0  0  0  0  0  0  0  0  0
  137.9267   73.8205  219.5447 H   0  0  0  0  0  0  0  0  0  0  0  0
  139.1660   75.3202  222.3429 H   0  0  0  0  0  0  0  0  0  0  0  0
  140.7333   75.5223  223.1787 H   0  0  0  0  0  0  0  0  0  0  0  0
  139.1402   77.6125  221.6185 H   0  0  0  0  0  0  0  0  0  0  0  0
  139.5905   77.6305  223.3611 H   0  0  0  0  0  0  0  0  0  0  0  0
  142.0203   77.6255  222.6066 H   0  0  0  0  0  0  0  0  0  0  0  0
  142.8094   80.0939  221.2831 H   0  0  0  0  0  0  0  0  0  0  0  0
  141.2562   80.5323  220.6418 H   0  0  0  0  0  0  0  0  0  0  0  0
  142.4461   82.4057  222.1340 H   0  0  0  0  0  0  0  0  0  0  0  0
  140.8305   82.0962  222.6581 H   0  0  0  0  0  0  0  0  0  0  0  0
  143.4752   80.7840  223.6800 H   0  0  0  0  0  0  0  0  0  0  0  0
  142.2953   81.5485  224.6942 H   0  0  0  0  0  0  0  0  0  0  0  0
  142.2631   78.8090  224.1400 H   0  0  0  0  0  0  0  0  0  0  0  0
  140.7537   79.6734  224.4712 H   0  0  0  0  0  0  0  0  0  0  0  0
  140.8008   78.1250  219.8971 H   0  0  0  0  0  0  0  0  0  0  0  0
  142.5061   78.3775  220.3087 H   0  0  0  0  0  0  0  0  0  0  0  0
  141.8720   76.0521  219.3943 H   0  0  0  0  0  0  0  0  0  0  0  0
  142.7798   76.0967  220.9835 H   0  0  0  0  0  0  0  0  0  0  0  0
  140.7658   72.7104  222.5180 H   0  0  0  0  0  0  0  0  0  0  0  0
  140.9530   72.6425  226.9738 H   0  0  0  0  0  0  0  0  0  0  0  0
  141.6364   71.4955  229.0422 H   0  0  0  0  0  0  0  0  0  0  0  0
  141.2633   69.0264  229.2665 H   0  0  0  0  0  0  0  0  0  0  0  0
  140.1957   67.7820  227.3746 H   0  0  0  0  0  0  0  0  0  0  0  0
  1  2  2  0
  2  3  1  0
  3  4  1  0
  4  5  1  0
  5  6  2  0
  6  7  1  0
  7  8  2  0
  8  9  1  0
  9 10  1  0
 10 11  2  0
 10 12  1  0
 12 13  1  0
 13 14  1  0
 14 15  1  0
 15 16  1  0
 16 17  1  0
 17 18  1  0
 18 19  1  0
 19 20  1  0
 15 21  1  0
 21 22  1  0
  9 23  2  0
  4 24  2  0
 24 25  1  0
 25 26  2  0
 26 27  1  0
 27 28  2  0
 28 29  1  0
 29 30  2  0
 30  2  1  0
 23  5  1  0
 30 25  1  0
 22 12  1  0
 20 16  1  0
  3 31  1  0
  3 32  1  0
  6 33  1  0
  7 34  1  0
  8 35  1  0
 13 36  1  0
 13 37  1  0
 14 38  1  0
 14 39  1  0
 15 40  1  0
 17 41  1  0
 17 42  1  0
 18 43  1  0
 18 44  1  0
 19 45  1  0
 19 46  1  0
 20 47  1  0
 20 48  1  0
 21 49  1  0
 21 50  1  0
 22 51  1  0
 22 52  1  0
 23 53  1  0
 26 54  1  0
 27 55  1  0
 28 56  1  0
 29 57  1  0
M  END
>  <smiles>  (4) 
O=C1CC(c2cccc(C(=O)N3CCC(N4CCCC4)CC3)c2)=Nc2ccccc21

>  <score_type>  (4) 
oracle

>  <origin>  (4) 
autodockgpu

>  <m_score__min__energy>  (4) 
-9.6099999999999994

>  <m_primary>  (4) 
energy

>  <rmsd>  (4) 
6.766160271342589

>  <m_score__min__rmsd>  (4) 
6.766160271342589

>  <meeko>  (4) 
{"free_energy": -9.58, "intermolecular_energy": -10.48, "internal_energy": -1.0, "cluster_size": 50, "cluster_id": 1, "rank_in_cluster": 34}

>  <energy>  (4) 
-9.6

>  <cluster_rmsd>  (4) 
0.05

>  <cluster>  (4) 
1

$$$$

     RDKit          3D

 57 61  0  0  0  0  0  0  0  0999 V2000
  139.2130   67.4180  225.0900 O   0  0  0  0  0  0  0  0  0  0  0  0
  139.3690   68.6630  225.0130 C   0  0  0  0  0  0  0  0  0  0  0  0
  138.9240   69.3510  223.7800 C   0  0  0  0  0  0  0  0  0  0  0  0
  139.2080   70.7960  223.9180 C   0  0  0  0  0  0  0  0  0  0  0  0
  138.8450   71.6560  222.7770 C   0  0  0  0  0  0  0  0  0  0  0  0
  137.5570   71.6070  222.2640 C   0  0  0  0  0  0  0  0  0  0  0  0
  137.1800   72.4160  221.1850 C   0  0  0  0  0  0  0  0  0  0  0  0
  138.1230   73.2680  220.6400 C   0  0  0  0  0  0  0  0  0  0  0  0
  139.4110   73.3410  221.1250 C   0  0  0  0  0  0  0  0  0  0  0  0
  140.4340   74.2230  220.5870 C   0  0  0  0  0  0  0  0  0  0  0  0
  141.0300   73.7930  219.5400 O   0  0  0  0  0  0  0  0  0  0  0  0
  140.7760   75.4820  221.1620 N   0  0  0  0  0  0  0  0  0  0  0  0
  140.0490   75.8800  222.3420 C   0  0  0  0  0  0  0  0  0  0  0  0
  139.8330   77.3790  222.2850 C   0  0  0  0  0  0  0  0  0  0  0  0
  141.1360   78.0770  221.9470 C   0  0  0  0  0  0  0  0  0  0  0  0
  141.1340   79.4380  222.2940 N   0  0  0  0  0  0  0  0  0  0  0  0
  141.8360   80.3500  221.4570 C   0  0  0  0  0  0  0  0  0  0  0  0
  141.7790   81.6270  222.3110 C   0  0  0  0  0  0  0  0  0  0  0  0
  142.2070   81.0400  223.6610 C   0  0  0  0  0  0  0  0  0  0  0  0
  141.3970   79.7400  223.6650 C   0  0  0  0  0  0  0  0  0  0  0  0
  141.5830   77.7390  220.5440 C   0  0  0  0  0  0  0  0  0  0  0  0
  141.8120   76.2390  220.5240 C   0  0  0  0  0  0  0  0  0  0  0  0
  139.7260   72.5200  222.1910 C   0  0  0  0  0  0  0  0  0  0  0  0
  139.7420   71.3590  224.9250 N   0  0  0  0  0  0  0  0  0  0  0  0
  140.1570   70.6950  226.0880 C   0  0  0  0  0  0  0  0  0  0  0  0
  140.7350   71.3060  227.1790 C   0  0  0  0  0  0  0  0  0  0  0  0
  141.1330   70.6200  228.3100 C   0  0  0  0  0  0  0  0  0  0  0  0
  140.9460   69.2430  228.3660 C   0  0  0  0  0  0  0  0  0  0  0  0
  140.3610   68.5970  227.2750 C   0  0  0  0  0  0  0  0  0  0  0  0
  139.9760   69.3290  226.1530 C   0  0  0  0  0  0  0  0  0  0  0  0
  139.4681   68.9474  222.9133 H   0  0  0  0  0  0  0  0  0  0  0  0
  137.8460   69.1923  223.6290 H   0  0  0  0  0  0  0  0  0  0  0  0
  136.8211   70.9227  222.7114 H   0  0  0  0  0  0  0  0  0  0  0  0
  136.1579   72.3747  220.7805 H   0  0  0  0  0  0  0  0  0  0  0  0
  137.8360   73.9078  219.7925 H   0  0  0  0  0  0  0  0  0  0  0  0
  139.0774   75.3651  222.3716 H   0  0  0  0  0  0  0  0  0  0  0  0
  140.6173   75.6131  223.2452 H   0  0  0  0  0  0  0  0  0  0  0  0
  139.0846   77.6103  221.5127 H   0  0  0  0  0  0  0  0  0  0  0  0
  139.4780   77.7307  223.2649 H   0  0  0  0  0  0  0  0  0  0  0  0
  141.9311   77.6759  222.5927 H   0  0  0  0  0  0  0  0  0  0  0  0
  142.8724   80.0248  221.2837 H   0  0  0  0  0  0  0  0  0  0  0  0
  141.4141   80.4584  220.4469 H   0  0  0  0  0  0  0  0  0  0  0  0
  142.4832   82.3927  221.9535 H   0  0  0  0  0  0  0  0  0  0  0  0
  140.8115   82.1504  222.3109 H   0  0  0  0  0  0  0  0  0  0  0  0
  143.2891   80.8451  223.6951 H   0  0  0  0  0  0  0  0  0  0  0  0
  142.0277   81.6962  224.5254 H   0  0  0  0  0  0  0  0  0  0  0  0
  141.9767   78.9295  224.1309 H   0  0  0  0  0  0  0  0  0  0  0  0
  140.4658   79.8463  224.2408 H   0  0  0  0  0  0  0  0  0  0  0  0
  140.8041   78.0158  219.8183 H   0  0  0  0  0  0  0  0  0  0  0  0
  142.4960   78.2881  220.2703 H   0  0  0  0  0  0  0  0  0  0  0  0
  141.8821   75.9139  219.4755 H   0  0  0  0  0  0  0  0  0  0  0  0
  142.7370   76.0510  221.0889 H   0  0  0  0  0  0  0  0  0  0  0  0
  140.7492   72.5650  222.5924 H   0  0  0  0  0  0  0  0  0  0  0  0
  140.8873   72.3950  227.1480 H   0  0  0  0  0  0  0  0  0  0  0  0
  141.5914   71.1554  229.1545 H   0  0  0  0  0  0  0  0  0  0  0  0
  141.2537   68.6724  229.2547 H   0  0  0  0  0  0  0  0  0  0  0  0
  140.2037   67.5086  227.3010 H   0  0  0  0  0  0  0  0  0  0  0  0
  1  2  2  0
  2  3  1  0
  3  4  1  0
  4  5  1  0
  5  6  2  0
  6  7  1  0
  7  8  2  0
  8  9  1  0
  9 10  1  0
 10 11  2  0
 10 12  1  0
 12 13  1  0
 13 14  1  0
 14 15  1  0
 15 16  1  0
 16 17  1  0
 17 18  1  0
 18 19  1  0
 19 20  1  0
 15 21  1  0
 21 22  1  0
  9 23  2  0
  4 24  2  0
 24 25  1  0
 25 26  2  0
 26 27  1  0
 27 28  2  0
 28 29  1  0
 29 30  2  0
 30  2  1  0
 23  5  1  0
 30 25  1  0
 22 12  1  0
 20 16  1  0
  3 31  1  0
  3 32  1  0
  6 33  1  0
  7 34  1  0
  8 35  1  0
 13 36  1  0
 13 37  1  0
 14 38  1  0
 14 39  1  0
 15 40  1  0
 17 41  1  0
 17 42  1  0
 18 43  1  0
 18 44  1  0
 19 45  1  0
 19 46  1  0
 20 47  1  0
 20 48  1  0
 21 49  1  0
 21 50  1  0
 22 51  1  0
 22 52  1  0
 23 53  1  0
 26 54  1  0
 27 55  1  0
 28 56  1  0
 29 57  1  0
M  END
>  <smiles>  (5) 
O=C1CC(c2cccc(C(=O)N3CCC(N4CCCC4)CC3)c2)=Nc2ccccc21

>  <score_type>  (5) 
oracle

>  <origin>  (5) 
autodockgpu

>  <m_score__min__energy>  (5) 
-9.6099999999999994

>  <m_primary>  (5) 
energy

>  <rmsd>  (5) 
6.761955279437269

>  <m_score__min__rmsd>  (5) 
6.761955279437269

>  <meeko>  (5) 
{"free_energy": -9.59, "intermolecular_energy": -10.48, "internal_energy": -1.01, "cluster_size": 50, "cluster_id": 1, "rank_in_cluster": 27}

>  <energy>  (5) 
-9.6

>  <cluster_rmsd>  (5) 
0.08

>  <cluster>  (5) 
1

$$$$

     RDKit          3D

 57 61  0  0  0  0  0  0  0  0999 V2000
  139.2020   67.6790  225.0020 O   0  0  0  0  0  0  0  0  0  0  0  0
  139.5540   68.8780  224.8680 C   0  0  0  0  0  0  0  0  0  0  0  0
  139.4110   69.5060  223.5350 C   0  0  0  0  0  0  0  0  0  0  0  0
  139.8870   70.9050  223.6190 C   0  0  0  0  0  0  0  0  0  0  0  0
  139.8360   71.7000  222.3800 C   0  0  0  0  0  0  0  0  0  0  0  0
  140.4260   71.2080  221.2250 C   0  0  0  0  0  0  0  0  0  0  0  0
  140.3890   71.9380  220.0300 C   0  0  0  0  0  0  0  0  0  0  0  0
  139.7500   73.1630  220.0270 C   0  0  0  0  0  0  0  0  0  0  0  0
  139.1540   73.6820  221.1560 C   0  0  0  0  0  0  0  0  0  0  0  0
  138.4690   74.9630  221.2000 C   0  0  0  0  0  0  0  0  0  0  0  0
  137.2090   74.9170  220.9820 O   0  0  0  0  0  0  0  0  0  0  0  0
  139.1240   76.2030  221.4600 N   0  0  0  0  0  0  0  0  0  0  0  0
  140.5460   76.1540  221.6930 C   0  0  0  0  0  0  0  0  0  0  0  0
  140.8910   77.1860  222.7480 C   0  0  0  0  0  0  0  0  0  0  0  0
  140.2420   78.5130  222.4050 C   0  0  0  0  0  0  0  0  0  0  0  0
  140.8430   79.6010  223.0590 N   0  0  0  0  0  0  0  0  0  0  0  0
  141.0350   80.8070  222.3290 C   0  0  0  0  0  0  0  0  0  0  0  0
  141.9070   81.6040  223.3110 C   0  0  0  0  0  0  0  0  0  0  0  0
  142.9340   80.5220  223.6630 C   0  0  0  0  0  0  0  0  0  0  0  0
  142.0120   79.3100  223.8270 C   0  0  0  0  0  0  0  0  0  0  0  0
  138.7380   78.4180  222.4950 C   0  0  0  0  0  0  0  0  0  0  0  0
  138.3170   77.3870  221.4640 C   0  0  0  0  0  0  0  0  0  0  0  0
  139.2210   72.9180  222.3060 C   0  0  0  0  0  0  0  0  0  0  0  0
  140.3410   71.4770  224.6600 N   0  0  0  0  0  0  0  0  0  0  0  0
  140.4700   70.8690  225.9170 C   0  0  0  0  0  0  0  0  0  0  0  0
  140.9630   71.4900  227.0440 C   0  0  0  0  0  0  0  0  0  0  0  0
  141.0760   70.8610  228.2680 C   0  0  0  0  0  0  0  0  0  0  0  0
  140.6760   69.5340  228.3860 C   0  0  0  0  0  0  0  0  0  0  0  0
  140.1720   68.8800  227.2610 C   0  0  0  0  0  0  0  0  0  0  0  0
  140.0770   69.5540  226.0440 C   0  0  0  0  0  0  0  0  0  0  0  0
  140.0127   68.9533  222.7984 H   0  0  0  0  0  0  0  0  0  0  0  0
  138.3570   69.4857  223.2210 H   0  0  0  0  0  0  0  0  0  0  0  0
  140.9301   70.2306  221.2478 H   0  0  0  0  0  0  0  0  0  0  0  0
  140.8576   71.5452  219.1156 H   0  0  0  0  0  0  0  0  0  0  0  0
  139.7159   73.7430  219.0929 H   0  0  0  0  0  0  0  0  0  0  0  0
  140.8308   75.1518  222.0458 H   0  0  0  0  0  0  0  0  0  0  0  0
  141.0904   76.3677  220.7613 H   0  0  0  0  0  0  0  0  0  0  0  0
  140.5246   76.8432  223.7269 H   0  0  0  0  0  0  0  0  0  0  0  0
  141.9827   77.3158  222.7838 H   0  0  0  0  0  0  0  0  0  0  0  0
  140.4395   78.7428  221.3476 H   0  0  0  0  0  0  0  0  0  0  0  0
  141.5583   80.6257  221.3786 H   0  0  0  0  0  0  0  0  0  0  0  0
  140.1040   81.3129  222.0335 H   0  0  0  0  0  0  0  0  0  0  0  0
  142.3758   82.4756  222.8308 H   0  0  0  0  0  0  0  0  0  0  0  0
  141.3722   82.0414  224.1670 H   0  0  0  0  0  0  0  0  0  0  0  0
  143.6617   80.3726  222.8517 H   0  0  0  0  0  0  0  0  0  0  0  0
  143.5571   80.7478  224.5409 H   0  0  0  0  0  0  0  0  0  0  0  0
  142.5028   78.4016  223.4476 H   0  0  0  0  0  0  0  0  0  0  0  0
  141.7664   79.1293  224.8839 H   0  0  0  0  0  0  0  0  0  0  0  0
  138.4358   78.0955  223.5023 H   0  0  0  0  0  0  0  0  0  0  0  0
  138.2626   79.3917  222.3057 H   0  0  0  0  0  0  0  0  0  0  0  0
  137.2767   77.0957  221.6711 H   0  0  0  0  0  0  0  0  0  0  0  0
  138.4370   77.8571  220.4768 H   0  0  0  0  0  0  0  0  0  0  0  0
  138.7503   73.3149  223.2176 H   0  0  0  0  0  0  0  0  0  0  0  0
  141.2826   72.5396  226.9646 H   0  0  0  0  0  0  0  0  0  0  0  0
  141.4769   71.4019  229.1379 H   0  0  0  0  0  0  0  0  0  0  0  0
  140.7556   69.0092  229.3495 H   0  0  0  0  0  0  0  0  0  0  0  0
  139.8491   67.8310  227.3344 H   0  0  0  0  0  0  0  0  0  0  0  0
  1  2  2  0
  2  3  1  0
  3  4  1  0
  4  5  1  0
  5  6  2  0
  6  7  1  0
  7  8  2  0
  8  9  1  0
  9 10  1  0
 10 11  2  0
 10 12  1  0
 12 13  1  0
 13 14  1  0
 14 15  1  0
 15 16  1  0
 16 17  1  0
 17 18  1  0
 18 19  1  0
 19 20  1  0
 15 21  1  0
 21 22  1  0
  9 23  2  0
  4 24  2  0
 24 25  1  0
 25 26  2  0
 26 27  1  0
 27 28  2  0
 28 29  1  0
 29 30  2  0
 30  2  1  0
 23  5  1  0
 30 25  1  0
 22 12  1  0
 20 16  1  0
  3 31  1  0
  3 32  1  0
  6 33  1  0
  7 34  1  0
  8 35  1  0
 13 36  1  0
 13 37  1  0
 14 38  1  0
 14 39  1  0
 15 40  1  0
 17 41  1  0
 17 42  1  0
 18 43  1  0
 18 44  1  0
 19 45  1  0
 19 46  1  0
 20 47  1  0
 20 48  1  0
 21 49  1  0
 21 50  1  0
 22 51  1  0
 22 52  1  0
 23 53  1  0
 26 54  1  0
 27 55  1  0
 28 56  1  0
 29 57  1  0
M  END
>  <smiles>  (6) 
O=C1CC(c2cccc(C(=O)N3CCC(N4CCCC4)CC3)c2)=Nc2ccccc21

>  <score_type>  (6) 
oracle

>  <origin>  (6) 
autodockgpu

>  <m_score__min__energy>  (6) 
-9.6099999999999994

>  <m_primary>  (6) 
energy

>  <rmsd>  (6) 
7.113465194030214

>  <m_score__min__rmsd>  (6) 
7.113465194030214

>  <meeko>  (6) 
{"free_energy": -9.58, "intermolecular_energy": -10.47, "internal_energy": -1.02, "cluster_size": 50, "cluster_id": 1, "rank_in_cluster": 37}

>  <energy>  (6) 
-9.6

>  <cluster_rmsd>  (6) 
1.35

>  <cluster>  (6) 
1

$$$$

     RDKit          3D

 57 61  0  0  0  0  0  0  0  0999 V2000
  139.1970   67.6470  225.0140 O   0  0  0  0  0  0  0  0  0  0  0  0
  139.5460   68.8470  224.8860 C   0  0  0  0  0  0  0  0  0  0  0  0
  139.3940   69.4830  223.5570 C   0  0  0  0  0  0  0  0  0  0  0  0
  139.8670   70.8820  223.6470 C   0  0  0  0  0  0  0  0  0  0  0  0
  139.8070   71.6850  222.4130 C   0  0  0  0  0  0  0  0  0  0  0  0
  140.4070   71.2090  221.2560 C   0  0  0  0  0  0  0  0  0  0  0  0
  140.3620   71.9470  220.0660 C   0  0  0  0  0  0  0  0  0  0  0  0
  139.7040   73.1620  220.0690 C   0  0  0  0  0  0  0  0  0  0  0  0
  139.0980   73.6640  221.2010 C   0  0  0  0  0  0  0  0  0  0  0  0
  138.3940   74.9350  221.2510 C   0  0  0  0  0  0  0  0  0  0  0  0
  137.1290   74.8660  221.0710 O   0  0  0  0  0  0  0  0  0  0  0  0
  139.0370   76.1870  221.4790 N   0  0  0  0  0  0  0  0  0  0  0  0
  140.4660   76.1640  221.6690 C   0  0  0  0  0  0  0  0  0  0  0  0
  140.8250   77.2130  222.7020 C   0  0  0  0  0  0  0  0  0  0  0  0
  140.1450   78.5250  222.3650 C   0  0  0  0  0  0  0  0  0  0  0  0
  140.7470   79.6300  222.9890 N   0  0  0  0  0  0  0  0  0  0  0  0
  141.0160   80.7860  222.2040 C   0  0  0  0  0  0  0  0  0  0  0  0
  141.8620   81.6120  223.1860 C   0  0  0  0  0  0  0  0  0  0  0  0
  142.8340   80.5200  223.6510 C   0  0  0  0  0  0  0  0  0  0  0  0
  141.8650   79.3480  223.8320 C   0  0  0  0  0  0  0  0  0  0  0  0
  138.6450   78.4070  222.5010 C   0  0  0  0  0  0  0  0  0  0  0  0
  138.2110   77.3580  221.4940 C   0  0  0  0  0  0  0  0  0  0  0  0
  139.1740   72.8940  222.3460 C   0  0  0  0  0  0  0  0  0  0  0  0
  140.3270   71.4490  224.6890 N   0  0  0  0  0  0  0  0  0  0  0  0
  140.4640   70.8340  225.9420 C   0  0  0  0  0  0  0  0  0  0  0  0
  140.9620   71.4490  227.0690 C   0  0  0  0  0  0  0  0  0  0  0  0
  141.0840   70.8130  228.2890 C   0  0  0  0  0  0  0  0  0  0  0  0
  140.6870   69.4850  228.4010 C   0  0  0  0  0  0  0  0  0  0  0  0
  140.1780   68.8360  227.2750 C   0  0  0  0  0  0  0  0  0  0  0  0
  140.0740   69.5170  226.0620 C   0  0  0  0  0  0  0  0  0  0  0  0
  139.9929   68.9363  222.8137 H   0  0  0  0  0  0  0  0  0  0  0  0
  138.3383   69.4621  223.2486 H   0  0  0  0  0  0  0  0  0  0  0  0
  140.9251   70.2388  221.2733 H   0  0  0  0  0  0  0  0  0  0  0  0
  140.8395   71.5679  219.1504 H   0  0  0  0  0  0  0  0  0  0  0  0
  139.6623   73.7473  219.1386 H   0  0  0  0  0  0  0  0  0  0  0  0
  140.7783   75.1706  222.0235 H   0  0  0  0  0  0  0  0  0  0  0  0
  140.9784   76.3763  220.7190 H   0  0  0  0  0  0  0  0  0  0  0  0
  140.4934   76.8752  223.6949 H   0  0  0  0  0  0  0  0  0  0  0  0
  141.9150   77.3607  222.7035 H   0  0  0  0  0  0  0  0  0  0  0  0
  140.3078   78.7460  221.2998 H   0  0  0  0  0  0  0  0  0  0  0  0
  141.5817   80.5349  221.2946 H   0  0  0  0  0  0  0  0  0  0  0  0
  140.1187   81.3017  221.8311 H   0  0  0  0  0  0  0  0  0  0  0  0
  142.3833   82.4406  222.6842 H   0  0  0  0  0  0  0  0  0  0  0  0
  141.2988   82.1135  223.9868 H   0  0  0  0  0  0  0  0  0  0  0  0
  143.5968   80.3030  222.8888 H   0  0  0  0  0  0  0  0  0  0  0  0
  143.4186   80.7759  224.5469 H   0  0  0  0  0  0  0  0  0  0  0  0
  142.3442   78.4052  223.5293 H   0  0  0  0  0  0  0  0  0  0  0  0
  141.5599   79.2351  224.8828 H   0  0  0  0  0  0  0  0  0  0  0  0
  138.3780   78.0910  223.5202 H   0  0  0  0  0  0  0  0  0  0  0  0
  138.1482   79.3708  222.3159 H   0  0  0  0  0  0  0  0  0  0  0  0
  137.1821   77.0524  221.7347 H   0  0  0  0  0  0  0  0  0  0  0  0
  138.2943   77.8188  220.4987 H   0  0  0  0  0  0  0  0  0  0  0  0
  138.6957   73.2778  223.2592 H   0  0  0  0  0  0  0  0  0  0  0  0
  141.2786   72.4998  226.9938 H   0  0  0  0  0  0  0  0  0  0  0  0
  141.4894   71.3494  229.1596 H   0  0  0  0  0  0  0  0  0  0  0  0
  140.7727   68.9548  229.3610 H   0  0  0  0  0  0  0  0  0  0  0  0
  139.8583   67.7858  227.3442 H   0  0  0  0  0  0  0  0  0  0  0  0
  1  2  2  0
  2  3  1  0
  3  4  1  0
  4  5  1  0
  5  6  2  0
  6  7  1  0
  7  8  2  0
  8  9  1  0
  9 10  1  0
 10 11  2  0
 10 12  1  0
 12 13  1  0
 13 14  1  0
 14 15  1  0
 15 16  1  0
 16 17  1  0
 17 18  1  0
 18 19  1  0
 19 20  1  0
 15 21  1  0
 21 22  1  0
  9 23  2  0
  4 24  2  0
 24 25  1  0
 25 26  2  0
 26 27  1  0
 27 28  2  0
 28 29  1  0
 29 30  2  0
 30  2  1  0
 23  5  1  0
 30 25  1  0
 22 12  1  0
 20 16  1  0
  3 31  1  0
  3 32  1  0
  6 33  1  0
  7 34  1  0
  8 35  1  0
 13 36  1  0
 13 37  1  0
 14 38  1  0
 14 39  1  0
 15 40  1  0
 17 41  1  0
 17 42  1  0
 18 43  1  0
 18 44  1  0
 19 45  1  0
 19 46  1  0
 20 47  1  0
 20 48  1  0
 21 49  1  0
 21 50  1  0
 22 51  1  0
 22 52  1  0
 23 53  1  0
 26 54  1  0
 27 55  1  0
 28 56  1  0
 29 57  1  0
M  END
>  <smiles>  (7) 
O=C1CC(c2cccc(C(=O)N3CCC(N4CCCC4)CC3)c2)=Nc2ccccc21

>  <score_type>  (7) 
oracle

>  <origin>  (7) 
autodockgpu

>  <m_score__min__energy>  (7) 
-9.6099999999999994

>  <m_primary>  (7) 
energy

>  <rmsd>  (7) 
7.122921176970014

>  <m_score__min__rmsd>  (7) 
7.122921176970014

>  <meeko>  (7) 
{"free_energy": -9.6, "intermolecular_energy": -10.49, "internal_energy": -1.01, "cluster_size": 50, "cluster_id": 1, "rank_in_cluster": 8}

>  <energy>  (7) 
-9.6

>  <cluster_rmsd>  (7) 
0.1

>  <cluster>  (7) 
1

$$$$

     RDKit          3D

 57 61  0  0  0  0  0  0  0  0999 V2000
  139.2000   67.5320  225.1550 O   0  0  0  0  0  0  0  0  0  0  0  0
  139.3650   68.7720  225.0390 C   0  0  0  0  0  0  0  0  0  0  0  0
  138.9240   69.4240  223.7840 C   0  0  0  0  0  0  0  0  0  0  0  0
  139.2190   70.8700  223.8760 C   0  0  0  0  0  0  0  0  0  0  0  0
  138.8620   71.6970  222.7100 C   0  0  0  0  0  0  0  0  0  0  0  0
  137.5920   71.5950  222.1610 C   0  0  0  0  0  0  0  0  0  0  0  0
  137.2210   72.3710  221.0550 C   0  0  0  0  0  0  0  0  0  0  0  0
  138.1510   73.2440  220.5220 C   0  0  0  0  0  0  0  0  0  0  0  0
  139.4210   73.3700  221.0420 C   0  0  0  0  0  0  0  0  0  0  0  0
  140.4300   74.2750  220.5170 C   0  0  0  0  0  0  0  0  0  0  0  0
  141.0040   73.8890  219.4420 O   0  0  0  0  0  0  0  0  0  0  0  0
  140.7800   75.5120  221.1340 N   0  0  0  0  0  0  0  0  0  0  0  0
  140.0780   75.8610  222.3440 C   0  0  0  0  0  0  0  0  0  0  0  0
  139.8570   77.3610  222.3490 C   0  0  0  0  0  0  0  0  0  0  0  0
  141.1500   78.0760  222.0110 C   0  0  0  0  0  0  0  0  0  0  0  0
  141.1520   79.4220  222.4110 N   0  0  0  0  0  0  0  0  0  0  0  0
  141.8070   80.3740  221.5800 C   0  0  0  0  0  0  0  0  0  0  0  0
  141.7770   81.6160  222.4850 C   0  0  0  0  0  0  0  0  0  0  0  0
  142.2710   80.9810  223.7910 C   0  0  0  0  0  0  0  0  0  0  0  0
  141.4730   79.6740  223.7800 C   0  0  0  0  0  0  0  0  0  0  0  0
  141.5670   77.7940  220.5870 C   0  0  0  0  0  0  0  0  0  0  0  0
  141.8000   76.2970  220.5030 C   0  0  0  0  0  0  0  0  0  0  0  0
  139.7310   72.5790  222.1330 C   0  0  0  0  0  0  0  0  0  0  0  0
  139.7580   71.4610  224.8660 N   0  0  0  0  0  0  0  0  0  0  0  0
  140.1680   70.8310  226.0490 C   0  0  0  0  0  0  0  0  0  0  0  0
  140.7520   71.4720  227.1200 C   0  0  0  0  0  0  0  0  0  0  0  0
  141.1450   70.8190  228.2720 C   0  0  0  0  0  0  0  0  0  0  0  0
  140.9480   69.4460  228.3710 C   0  0  0  0  0  0  0  0  0  0  0  0
  140.3580   68.7710  227.3020 C   0  0  0  0  0  0  0  0  0  0  0  0
  139.9780   69.4690  226.1570 C   0  0  0  0  0  0  0  0  0  0  0  0
  139.4644   68.9889  222.9304 H   0  0  0  0  0  0  0  0  0  0  0  0
  137.8448   69.2687  223.6384 H   0  0  0  0  0  0  0  0  0  0  0  0
  136.8660   70.8950  222.6002 H   0  0  0  0  0  0  0  0  0  0  0  0
  136.2136   72.2876  220.6211 H   0  0  0  0  0  0  0  0  0  0  0  0
  137.8680   73.8582  219.6544 H   0  0  0  0  0  0  0  0  0  0  0  0
  139.1087   75.3419  222.3748 H   0  0  0  0  0  0  0  0  0  0  0  0
  140.6661   75.5611  223.2239 H   0  0  0  0  0  0  0  0  0  0  0  0
  139.0919   77.6191  221.6020 H   0  0  0  0  0  0  0  0  0  0  0  0
  139.5220   77.6736  223.3490 H   0  0  0  0  0  0  0  0  0  0  0  0
  141.9603   77.6535  222.6233 H   0  0  0  0  0  0  0  0  0  0  0  0
  142.8375   80.0673  221.3477 H   0  0  0  0  0  0  0  0  0  0  0  0
  141.3387   80.5170  220.5950 H   0  0  0  0  0  0  0  0  0  0  0  0
  142.4574   82.4026  222.1268 H   0  0  0  0  0  0  0  0  0  0  0  0
  140.8059   82.1287  222.5487 H   0  0  0  0  0  0  0  0  0  0  0  0
  143.3551   80.7959  223.7688 H   0  0  0  0  0  0  0  0  0  0  0  0
  142.1257   81.6012  224.6878 H   0  0  0  0  0  0  0  0  0  0  0  0
  142.0795   78.8521  224.1882 H   0  0  0  0  0  0  0  0  0  0  0  0
  140.5673   79.7489  224.3997 H   0  0  0  0  0  0  0  0  0  0  0  0
  140.7715   78.0959  219.8898 H   0  0  0  0  0  0  0  0  0  0  0  0
  142.4724   78.3566  220.3155 H   0  0  0  0  0  0  0  0  0  0  0  0
  141.8476   76.0134  219.4413 H   0  0  0  0  0  0  0  0  0  0  0  0
  142.7380   76.0903  221.0391 H   0  0  0  0  0  0  0  0  0  0  0  0
  140.7398   72.6653  222.5629 H   0  0  0  0  0  0  0  0  0  0  0  0
  140.9133   72.5581  227.0542 H   0  0  0  0  0  0  0  0  0  0  0  0
  141.6073   71.3772  229.0995 H   0  0  0  0  0  0  0  0  0  0  0  0
  141.2522   68.9013  229.2769 H   0  0  0  0  0  0  0  0  0  0  0  0
  140.1923   67.6853  227.3630 H   0  0  0  0  0  0  0  0  0  0  0  0
  1  2  2  0
  2  3  1  0
  3  4  1  0
  4  5  1  0
  5  6  2  0
  6  7  1  0
  7  8  2  0
  8  9  1  0
  9 10  1  0
 10 11  2  0
 10 12  1  0
 12 13  1  0
 13 14  1  0
 14 15  1  0
 15 16  1  0
 16 17  1  0
 17 18  1  0
 18 19  1  0
 19 20  1  0
 15 21  1  0
 21 22  1  0
  9 23  2  0
  4 24  2  0
 24 25  1  0
 25 26  2  0
 26 27  1  0
 27 28  2  0
 28 29  1  0
 29 30  2  0
 30  2  1  0
 23  5  1  0
 30 25  1  0
 22 12  1  0
 20 16  1  0
  3 31  1  0
  3 32  1  0
  6 33  1  0
  7 34  1  0
  8 35  1  0
 13 36  1  0
 13 37  1  0
 14 38  1  0
 14 39  1  0
 15 40  1  0
 17 41  1  0
 17 42  1  0
 18 43  1  0
 18 44  1  0
 19 45  1  0
 19 46  1  0
 20 47  1  0
 20 48  1  0
 21 49  1  0
 21 50  1  0
 22 51  1  0
 22 52  1  0
 23 53  1  0
 26 54  1  0
 27 55  1  0
 28 56  1  0
 29 57  1  0
M  END
>  <smiles>  (8) 
O=C1CC(c2cccc(C(=O)N3CCC(N4CCCC4)CC3)c2)=Nc2ccccc21

>  <score_type>  (8) 
oracle

>  <origin>  (8) 
autodockgpu

>  <m_score__min__energy>  (8) 
-9.6099999999999994

>  <m_primary>  (8) 
energy

>  <rmsd>  (8) 
6.765681607105636

>  <m_score__min__rmsd>  (8) 
6.765681607105636

>  <meeko>  (8) 
{"free_energy": -9.59, "intermolecular_energy": -10.48, "internal_energy": -1.0, "cluster_size": 50, "cluster_id": 1, "rank_in_cluster": 21}

>  <energy>  (8) 
-9.6

>  <cluster_rmsd>  (8) 
0.12

>  <cluster>  (8) 
1

$$$$

     RDKit          3D

 57 61  0  0  0  0  0  0  0  0999 V2000
  139.1550   67.6600  225.0000 O   0  0  0  0  0  0  0  0  0  0  0  0
  139.5430   68.8490  224.8810 C   0  0  0  0  0  0  0  0  0  0  0  0
  139.4360   69.4920  223.5520 C   0  0  0  0  0  0  0  0  0  0  0  0
  139.9500   70.8750  223.6540 C   0  0  0  0  0  0  0  0  0  0  0  0
  139.9380   71.6820  222.4210 C   0  0  0  0  0  0  0  0  0  0  0  0
  140.5850   71.2110  221.2880 C   0  0  0  0  0  0  0  0  0  0  0  0
  140.5880   71.9520  220.0990 C   0  0  0  0  0  0  0  0  0  0  0  0
  139.9280   73.1660  220.0790 C   0  0  0  0  0  0  0  0  0  0  0  0
  139.2750   73.6640  221.1860 C   0  0  0  0  0  0  0  0  0  0  0  0
  138.5660   74.9320  221.2110 C   0  0  0  0  0  0  0  0  0  0  0  0
  137.3070   74.8600  220.9980 O   0  0  0  0  0  0  0  0  0  0  0  0
  139.1990   76.1880  221.4510 N   0  0  0  0  0  0  0  0  0  0  0  0
  140.6220   76.1690  221.6810 C   0  0  0  0  0  0  0  0  0  0  0  0
  140.9500   77.2230  222.7190 C   0  0  0  0  0  0  0  0  0  0  0  0
  140.2760   78.5320  222.3570 C   0  0  0  0  0  0  0  0  0  0  0  0
  140.8580   79.6420  222.9920 N   0  0  0  0  0  0  0  0  0  0  0  0
  141.1270   80.8020  222.2140 C   0  0  0  0  0  0  0  0  0  0  0  0
  141.9510   81.6330  223.2100 C   0  0  0  0  0  0  0  0  0  0  0  0
  142.9260   80.5510  223.6880 C   0  0  0  0  0  0  0  0  0  0  0  0
  141.9660   79.3690  223.8510 C   0  0  0  0  0  0  0  0  0  0  0  0
  138.7740   78.4110  222.4520 C   0  0  0  0  0  0  0  0  0  0  0  0
  138.3700   77.3560  221.4380 C   0  0  0  0  0  0  0  0  0  0  0  0
  139.3060   72.8900  222.3310 C   0  0  0  0  0  0  0  0  0  0  0  0
  140.4060   71.4270  224.7060 N   0  0  0  0  0  0  0  0  0  0  0  0
  140.5000   70.8050  225.9600 C   0  0  0  0  0  0  0  0  0  0  0  0
  140.9940   71.4030  227.0980 C   0  0  0  0  0  0  0  0  0  0  0  0
  141.0730   70.7620  228.3180 C   0  0  0  0  0  0  0  0  0  0  0  0
  140.6340   69.4460  228.4190 C   0  0  0  0  0  0  0  0  0  0  0  0
  140.1270   68.8150  227.2820 C   0  0  0  0  0  0  0  0  0  0  0  0
  140.0680   69.5010  226.0690 C   0  0  0  0  0  0  0  0  0  0  0  0
  140.0316   68.9285  222.8187 H   0  0  0  0  0  0  0  0  0  0  0  0
  138.3861   69.5046  223.2242 H   0  0  0  0  0  0  0  0  0  0  0  0
  141.1034   70.2414  221.3236 H   0  0  0  0  0  0  0  0  0  0  0  0
  141.1034   71.5764  219.2027 H   0  0  0  0  0  0  0  0  0  0  0  0
  139.9236   73.7540  219.1494 H   0  0  0  0  0  0  0  0  0  0  0  0
  140.9262   75.1778  222.0483 H   0  0  0  0  0  0  0  0  0  0  0  0
  141.1602   76.3785  220.7448 H   0  0  0  0  0  0  0  0  0  0  0  0
  140.5919   76.8887  223.7039 H   0  0  0  0  0  0  0  0  0  0  0  0
  142.0392   77.3734  222.7504 H   0  0  0  0  0  0  0  0  0  0  0  0
  140.4676   78.7481  221.2956 H   0  0  0  0  0  0  0  0  0  0  0  0
  141.7078   80.5587  221.3121 H   0  0  0  0  0  0  0  0  0  0  0  0
  140.2304   81.3102  221.8296 H   0  0  0  0  0  0  0  0  0  0  0  0
  142.4718   82.4673  222.7175 H   0  0  0  0  0  0  0  0  0  0  0  0
  141.3709   82.1269  224.0034 H   0  0  0  0  0  0  0  0  0  0  0  0
  143.7031   80.3435  222.9377 H   0  0  0  0  0  0  0  0  0  0  0  0
  143.4938   80.8109  224.5936 H   0  0  0  0  0  0  0  0  0  0  0  0
  142.4591   78.4319  223.5531 H   0  0  0  0  0  0  0  0  0  0  0  0
  141.6461   79.2503  224.8967 H   0  0  0  0  0  0  0  0  0  0  0  0
  138.4797   78.0990  223.4649 H   0  0  0  0  0  0  0  0  0  0  0  0
  138.2804   79.3728  222.2486 H   0  0  0  0  0  0  0  0  0  0  0  0
  137.3358   77.0485  221.6521 H   0  0  0  0  0  0  0  0  0  0  0  0
  138.4788   77.8125  220.4431 H   0  0  0  0  0  0  0  0  0  0  0  0
  138.7899   73.2702  223.2249 H   0  0  0  0  0  0  0  0  0  0  0  0
  141.3432   72.4440  227.0314 H   0  0  0  0  0  0  0  0  0  0  0  0
  141.4773   71.2844  229.1976 H   0  0  0  0  0  0  0  0  0  0  0  0
  140.6856   68.9115  229.3790 H   0  0  0  0  0  0  0  0  0  0  0  0
  139.7734   67.7751  227.3426 H   0  0  0  0  0  0  0  0  0  0  0  0
  1  2  2  0
  2  3  1  0
  3  4  1  0
  4  5  1  0
  5  6  2  0
  6  7  1  0
  7  8  2  0
  8  9  1  0
  9 10  1  0
 10 11  2  0
 10 12  1  0
 12 13  1  0
 13 14  1  0
 14 15  1  0
 15 16  1  0
 16 17  1  0
 17 18  1  0
 18 19  1  0
 19 20  1  0
 15 21  1  0
 21 22  1  0
  9 23  2  0
  4 24  2  0
 24 25  1  0
 25 26  2  0
 26 27  1  0
 27 28  2  0
 28 29  1  0
 29 30  2  0
 30  2  1  0
 23  5  1  0
 30 25  1  0
 22 12  1  0
 20 16  1  0
  3 31  1  0
  3 32  1  0
  6 33  1  0
  7 34  1  0
  8 35  1  0
 13 36  1  0
 13 37  1  0
 14 38  1  0
 14 39  1  0
 15 40  1  0
 17 41  1  0
 17 42  1  0
 18 43  1  0
 18 44  1  0
 19 45  1  0
 19 46  1  0
 20 47  1  0
 20 48  1  0
 21 49  1  0
 21 50  1  0
 22 51  1  0
 22 52  1  0
 23 53  1  0
 26 54  1  0
 27 55  1  0
 28 56  1  0
 29 57  1  0
M  END
>  <smiles>  (9) 
O=C1CC(c2cccc(C(=O)N3CCC(N4CCCC4)CC3)c2)=Nc2ccccc21

>  <score_type>  (9) 
oracle

>  <origin>  (9) 
autodockgpu

>  <m_score__min__energy>  (9) 
-9.6099999999999994

>  <m_primary>  (9) 
energy

>  <rmsd>  (9) 
7.107062732724108

>  <m_score__min__rmsd>  (9) 
7.107062732724108

>  <meeko>  (9) 
{"free_energy": -9.6, "intermolecular_energy": -10.5, "internal_energy": -1.01, "cluster_size": 50, "cluster_id": 1, "rank_in_cluster": 2}

>  <energy>  (9) 
-9.59

>  <cluster_rmsd>  (9) 
0.06

>  <cluster>  (9) 
1

$$$$

     RDKit          3D

 57 61  0  0  0  0  0  0  0  0999 V2000
  139.1720   67.5920  225.1530 O   0  0  0  0  0  0  0  0  0  0  0  0
  139.3500   68.8290  225.0180 C   0  0  0  0  0  0  0  0  0  0  0  0
  138.9220   69.4650  223.7510 C   0  0  0  0  0  0  0  0  0  0  0  0
  139.2320   70.9100  223.8210 C   0  0  0  0  0  0  0  0  0  0  0  0
  138.8890   71.7210  222.6390 C   0  0  0  0  0  0  0  0  0  0  0  0
  137.6330   71.5970  222.0640 C   0  0  0  0  0  0  0  0  0  0  0  0
  137.2750   72.3580  220.9440 C   0  0  0  0  0  0  0  0  0  0  0  0
  138.2040   73.2380  220.4230 C   0  0  0  0  0  0  0  0  0  0  0  0
  139.4610   73.3860  220.9690 C   0  0  0  0  0  0  0  0  0  0  0  0
  140.4690   74.3000  220.4570 C   0  0  0  0  0  0  0  0  0  0  0  0
  141.0370   73.9350  219.3700 O   0  0  0  0  0  0  0  0  0  0  0  0
  140.8250   75.5230  221.0970 N   0  0  0  0  0  0  0  0  0  0  0  0
  140.1300   75.8490  222.3170 C   0  0  0  0  0  0  0  0  0  0  0  0
  139.9120   77.3480  222.3550 C   0  0  0  0  0  0  0  0  0  0  0  0
  141.2050   78.0680  222.0240 C   0  0  0  0  0  0  0  0  0  0  0  0
  141.2120   79.4060  222.4520 N   0  0  0  0  0  0  0  0  0  0  0  0
  141.8210   80.3800  221.6140 C   0  0  0  0  0  0  0  0  0  0  0  0
  141.8200   81.6030  222.5440 C   0  0  0  0  0  0  0  0  0  0  0  0
  142.3750   80.9480  223.8140 C   0  0  0  0  0  0  0  0  0  0  0  0
  141.5900   79.6330  223.8100 C   0  0  0  0  0  0  0  0  0  0  0  0
  141.6140   77.8150  220.5920 C   0  0  0  0  0  0  0  0  0  0  0  0
  141.8430   76.3190  220.4760 C   0  0  0  0  0  0  0  0  0  0  0  0
  139.7590   72.6090  222.0730 C   0  0  0  0  0  0  0  0  0  0  0  0
  139.7730   71.5110  224.8030 N   0  0  0  0  0  0  0  0  0  0  0  0
  140.1720   70.8950  225.9980 C   0  0  0  0  0  0  0  0  0  0  0  0
  140.7570   71.5470  227.0610 C   0  0  0  0  0  0  0  0  0  0  0  0
  141.1380   70.9090  228.2250 C   0  0  0  0  0  0  0  0  0  0  0  0
  140.9260   69.5400  228.3460 C   0  0  0  0  0  0  0  0  0  0  0  0
  140.3340   68.8540  227.2850 C   0  0  0  0  0  0  0  0  0  0  0  0
  139.9660   69.5380  226.1270 C   0  0  0  0  0  0  0  0  0  0  0  0
  139.4618   69.0105  222.9072 H   0  0  0  0  0  0  0  0  0  0  0  0
  137.8419   69.3187  223.6028 H   0  0  0  0  0  0  0  0  0  0  0  0
  136.9075   70.8907  222.4938 H   0  0  0  0  0  0  0  0  0  0  0  0
  136.2781   72.2575  220.4901 H   0  0  0  0  0  0  0  0  0  0  0  0
  137.9316   73.8402  219.5437 H   0  0  0  0  0  0  0  0  0  0  0  0
  139.1597   75.3314  222.3419 H   0  0  0  0  0  0  0  0  0  0  0  0
  140.7225   75.5302  223.1872 H   0  0  0  0  0  0  0  0  0  0  0  0
  139.1428   77.6232  221.6184 H   0  0  0  0  0  0  0  0  0  0  0  0
  139.5837   77.6400  223.3634 H   0  0  0  0  0  0  0  0  0  0  0  0
  142.0177   77.6310  222.6228 H   0  0  0  0  0  0  0  0  0  0  0  0
  142.8430   80.0879  221.3307 H   0  0  0  0  0  0  0  0  0  0  0  0
  141.3085   80.5383  220.6537 H   0  0  0  0  0  0  0  0  0  0  0  0
  142.4777   82.4027  222.1726 H   0  0  0  0  0  0  0  0  0  0  0  0
  140.8482   82.1051  222.6598 H   0  0  0  0  0  0  0  0  0  0  0  0
  143.4589   80.7750  223.7422 H   0  0  0  0  0  0  0  0  0  0  0  0
  142.2620   81.5486  224.7286 H   0  0  0  0  0  0  0  0  0  0  0  0
  142.2218   78.8093  224.1739 H   0  0  0  0  0  0  0  0  0  0  0  0
  140.7115   79.6855  224.4699 H   0  0  0  0  0  0  0  0  0  0  0  0
  140.8157   78.1331  219.9054 H   0  0  0  0  0  0  0  0  0  0  0  0
  142.5192   78.3812  220.3272 H   0  0  0  0  0  0  0  0  0  0  0  0
  141.8836   76.0571  219.4084 H   0  0  0  0  0  0  0  0  0  0  0  0
  142.7837   76.0995  221.0022 H   0  0  0  0  0  0  0  0  0  0  0  0
  140.7574   72.7122  222.5230 H   0  0  0  0  0  0  0  0  0  0  0  0
  140.9294   72.6303  226.9786 H   0  0  0  0  0  0  0  0  0  0  0  0
  141.6028   71.4759  229.0451 H   0  0  0  0  0  0  0  0  0  0  0  0
  141.2199   69.0071  229.2623 H   0  0  0  0  0  0  0  0  0  0  0  0
  140.1572   67.7711  227.3623 H   0  0  0  0  0  0  0  0  0  0  0  0
  1  2  2  0
  2  3  1  0
  3  4  1  0
  4  5  1  0
  5  6  2  0
  6  7  1  0
  7  8  2  0
  8  9  1  0
  9 10  1  0
 10 11  2  0
 10 12  1  0
 12 13  1  0
 13 14  1  0
 14 15  1  0
 15 16  1  0
 16 17  1  0
 17 18  1  0
 18 19  1  0
 19 20  1  0
 15 21  1  0
 21 22  1  0
  9 23  2  0
  4 24  2  0
 24 25  1  0
 25 26  2  0
 26 27  1  0
 27 28  2  0
 28 29  1  0
 29 30  2  0
 30  2  1  0
 23  5  1  0
 30 25  1  0
 22 12  1  0
 20 16  1  0
  3 31  1  0
  3 32  1  0
  6 33  1  0
  7 34  1  0
  8 35  1  0
 13 36  1  0
 13 37  1  0
 14 38  1  0
 14 39  1  0
 15 40  1  0
 17 41  1  0
 17 42  1  0
 18 43  1  0
 18 44  1  0
 19 45  1  0
 19 46  1  0
 20 47  1  0
 20 48  1  0
 21 49  1  0
 21 50  1  0
 22 51  1  0
 22 52  1  0
 23 53  1  0
 26 54  1  0
 27 55  1  0
 28 56  1  0
 29 57  1  0
M  END
>  <smiles>  (10) 
O=C1CC(c2cccc(C(=O)N3CCC(N4CCCC4)CC3)c2)=Nc2ccccc21

>  <score_type>  (10) 
oracle

>  <origin>  (10) 
autodockgpu

>  <m_score__min__energy>  (10) 
-9.6099999999999994

>  <m_primary>  (10) 
energy

>  <rmsd>  (10) 
6.762530134461279

>  <m_score__min__rmsd>  (10) 
6.762530134461279

>  <meeko>  (10) 
{"free_energy": -9.58, "intermolecular_energy": -10.48, "internal_energy": -1.0, "cluster_size": 50, "cluster_id": 1, "rank_in_cluster": 32}

>  <energy>  (10) 
-9.59

>  <cluster_rmsd>  (10) 
0.11

>  <cluster>  (10) 
1

$$$$

     RDKit          3D

 57 61  0  0  0  0  0  0  0  0999 V2000
  139.2020   67.6010  225.2130 O   0  0  0  0  0  0  0  0  0  0  0  0
  139.3850   68.8360  225.0670 C   0  0  0  0  0  0  0  0  0  0  0  0
  138.9460   69.4650  223.8000 C   0  0  0  0  0  0  0  0  0  0  0  0
  139.2650   70.9080  223.8560 C   0  0  0  0  0  0  0  0  0  0  0  0
  138.9120   71.7130  222.6730 C   0  0  0  0  0  0  0  0  0  0  0  0
  137.6530   71.5810  222.1050 C   0  0  0  0  0  0  0  0  0  0  0  0
  137.2860   72.3350  220.9830 C   0  0  0  0  0  0  0  0  0  0  0  0
  138.2090   73.2180  220.4530 C   0  0  0  0  0  0  0  0  0  0  0  0
  139.4680   73.3740  220.9920 C   0  0  0  0  0  0  0  0  0  0  0  0
  140.4680   74.2900  220.4720 C   0  0  0  0  0  0  0  0  0  0  0  0
  141.0340   73.9230  219.3850 O   0  0  0  0  0  0  0  0  0  0  0  0
  140.8210   75.5190  221.1040 N   0  0  0  0  0  0  0  0  0  0  0  0
  140.1300   75.8470  222.3260 C   0  0  0  0  0  0  0  0  0  0  0  0
  139.9040   77.3450  222.3570 C   0  0  0  0  0  0  0  0  0  0  0  0
  141.1920   78.0700  222.0170 C   0  0  0  0  0  0  0  0  0  0  0  0
  141.1930   79.4100  222.4390 N   0  0  0  0  0  0  0  0  0  0  0  0
  141.8130   80.3800  221.6030 C   0  0  0  0  0  0  0  0  0  0  0  0
  141.8000   81.6080  222.5270 C   0  0  0  0  0  0  0  0  0  0  0  0
  142.3390   80.9590  223.8070 C   0  0  0  0  0  0  0  0  0  0  0  0
  141.5540   79.6440  223.8000 C   0  0  0  0  0  0  0  0  0  0  0  0
  141.5960   77.8120  220.5850 C   0  0  0  0  0  0  0  0  0  0  0  0
  141.8320   76.3170  220.4760 C   0  0  0  0  0  0  0  0  0  0  0  0
  139.7740   72.6030  222.0980 C   0  0  0  0  0  0  0  0  0  0  0  0
  139.8200   71.5140  224.8270 N   0  0  0  0  0  0  0  0  0  0  0  0
  140.2300   70.9040  226.0220 C   0  0  0  0  0  0  0  0  0  0  0  0
  140.8320   71.5610  227.0730 C   0  0  0  0  0  0  0  0  0  0  0  0
  141.2230   70.9290  228.2370 C   0  0  0  0  0  0  0  0  0  0  0  0
  141.0050   69.5620  228.3700 C   0  0  0  0  0  0  0  0  0  0  0  0
  140.3960   68.8720  227.3220 C   0  0  0  0  0  0  0  0  0  0  0  0
  140.0180   69.5490  226.1630 C   0  0  0  0  0  0  0  0  0  0  0  0
  139.4735   69.0012  222.9535 H   0  0  0  0  0  0  0  0  0  0  0  0
  137.8635   69.3238  223.6649 H   0  0  0  0  0  0  0  0  0  0  0  0
  136.9326   70.8740  222.5421 H   0  0  0  0  0  0  0  0  0  0  0  0
  136.2875   72.2273  220.5342 H   0  0  0  0  0  0  0  0  0  0  0  0
  137.9293   73.8153  219.5726 H   0  0  0  0  0  0  0  0  0  0  0  0
  139.1628   75.3241  222.3583 H   0  0  0  0  0  0  0  0  0  0  0  0
  140.7282   75.5358  223.1951 H   0  0  0  0  0  0  0  0  0  0  0  0
  139.1304   77.6122  221.6220 H   0  0  0  0  0  0  0  0  0  0  0  0
  139.5780   77.6406  223.3651 H   0  0  0  0  0  0  0  0  0  0  0  0
  142.0102   77.6406  222.6137 H   0  0  0  0  0  0  0  0  0  0  0  0
  142.8385   80.0865  221.3343 H   0  0  0  0  0  0  0  0  0  0  0  0
  141.3130   80.5332  220.6353 H   0  0  0  0  0  0  0  0  0  0  0  0
  142.4622   82.4060  222.1600 H   0  0  0  0  0  0  0  0  0  0  0  0
  140.8268   82.1107  222.6280 H   0  0  0  0  0  0  0  0  0  0  0  0
  143.4237   80.7855  223.7495 H   0  0  0  0  0  0  0  0  0  0  0  0
  142.2146   81.5641  224.7171 H   0  0  0  0  0  0  0  0  0  0  0  0
  142.1811   78.8222  224.1760 H   0  0  0  0  0  0  0  0  0  0  0  0
  140.6674   79.7000  224.4487 H   0  0  0  0  0  0  0  0  0  0  0  0
  140.7931   78.1225  219.9002 H   0  0  0  0  0  0  0  0  0  0  0  0
  142.4970   78.3815  220.3133 H   0  0  0  0  0  0  0  0  0  0  0  0
  141.8703   76.0499  219.4096 H   0  0  0  0  0  0  0  0  0  0  0  0
  142.7754   76.1052  221.0005 H   0  0  0  0  0  0  0  0  0  0  0  0
  140.7741   72.7131  222.5427 H   0  0  0  0  0  0  0  0  0  0  0  0
  141.0100   72.6425  226.9803 H   0  0  0  0  0  0  0  0  0  0  0  0
  141.7003   71.4990  229.0477 H   0  0  0  0  0  0  0  0  0  0  0  0
  141.3077   69.0338  229.2862 H   0  0  0  0  0  0  0  0  0  0  0  0
  140.2134   67.7908  227.4100 H   0  0  0  0  0  0  0  0  0  0  0  0
  1  2  2  0
  2  3  1  0
  3  4  1  0
  4  5  1  0
  5  6  2  0
  6  7  1  0
  7  8  2  0
  8  9  1  0
  9 10  1  0
 10 11  2  0
 10 12  1  0
 12 13  1  0
 13 14  1  0
 14 15  1  0
 15 16  1  0
 16 17  1  0
 17 18  1  0
 18 19  1  0
 19 20  1  0
 15 21  1  0
 21 22  1  0
  9 23  2  0
  4 24  2  0
 24 25  1  0
 25 26  2  0
 26 27  1  0
 27 28  2  0
 28 29  1  0
 29 30  2  0
 30  2  1  0
 23  5  1  0
 30 25  1  0
 22 12  1  0
 20 16  1  0
  3 31  1  0
  3 32  1  0
  6 33  1  0
  7 34  1  0
  8 35  1  0
 13 36  1  0
 13 37  1  0
 14 38  1  0
 14 39  1  0
 15 40  1  0
 17 41  1  0
 17 42  1  0
 18 43  1  0
 18 44  1  0
 19 45  1  0
 19 46  1  0
 20 47  1  0
 20 48  1  0
 21 49  1  0
 21 50  1  0
 22 51  1  0
 22 52  1  0
 23 53  1  0
 26 54  1  0
 27 55  1  0
 28 56  1  0
 29 57  1  0
M  END
>  <smiles>  (11) 
O=C1CC(c2cccc(C(=O)N3CCC(N4CCCC4)CC3)c2)=Nc2ccccc21

>  <score_type>  (11) 
oracle

>  <origin>  (11) 
autodockgpu

>  <m_score__min__energy>  (11) 
-9.6099999999999994

>  <m_primary>  (11) 
energy

>  <rmsd>  (11) 
6.76851899111654

>  <m_score__min__rmsd>  (11) 
6.76851899111654

>  <meeko>  (11) 
{"free_energy": -9.58, "intermolecular_energy": -10.48, "internal_energy": -1.0, "cluster_size": 50, "cluster_id": 1, "rank_in_cluster": 30}

>  <energy>  (11) 
-9.59

>  <cluster_rmsd>  (11) 
0.06

>  <cluster>  (11) 
1

$$$$

     RDKit          3D

 57 61  0  0  0  0  0  0  0  0999 V2000
  139.2010   67.6720  225.0400 O   0  0  0  0  0  0  0  0  0  0  0  0
  139.5720   68.8640  224.9060 C   0  0  0  0  0  0  0  0  0  0  0  0
  139.4450   69.4920  223.5710 C   0  0  0  0  0  0  0  0  0  0  0  0
  139.9420   70.8830  223.6550 C   0  0  0  0  0  0  0  0  0  0  0  0
  139.9090   71.6770  222.4140 C   0  0  0  0  0  0  0  0  0  0  0  0
  140.5270   71.1890  221.2710 C   0  0  0  0  0  0  0  0  0  0  0  0
  140.5090   71.9180  220.0750 C   0  0  0  0  0  0  0  0  0  0  0  0
  139.8590   73.1370  220.0580 C   0  0  0  0  0  0  0  0  0  0  0  0
  139.2360   73.6520  221.1740 C   0  0  0  0  0  0  0  0  0  0  0  0
  138.5390   74.9270  221.2020 C   0  0  0  0  0  0  0  0  0  0  0  0
  137.2810   74.8680  220.9780 O   0  0  0  0  0  0  0  0  0  0  0  0
  139.1820   76.1750  221.4550 N   0  0  0  0  0  0  0  0  0  0  0  0
  140.6030   76.1410  221.6960 C   0  0  0  0  0  0  0  0  0  0  0  0
  140.9330   77.1860  222.7430 C   0  0  0  0  0  0  0  0  0  0  0  0
  140.2740   78.5030  222.3840 C   0  0  0  0  0  0  0  0  0  0  0  0
  140.8620   79.6030  223.0310 N   0  0  0  0  0  0  0  0  0  0  0  0
  141.0680   80.7960  222.2840 C   0  0  0  0  0  0  0  0  0  0  0  0
  141.9200   81.6110  223.2690 C   0  0  0  0  0  0  0  0  0  0  0  0
  142.9400   80.5350  223.6620 C   0  0  0  0  0  0  0  0  0  0  0  0
  142.0140   79.3260  223.8270 C   0  0  0  0  0  0  0  0  0  0  0  0
  138.7700   78.3960  222.4670 C   0  0  0  0  0  0  0  0  0  0  0  0
  138.3640   77.3520  221.4430 C   0  0  0  0  0  0  0  0  0  0  0  0
  139.2860   72.8900  222.3260 C   0  0  0  0  0  0  0  0  0  0  0  0
  140.4000   71.4510  224.6970 N   0  0  0  0  0  0  0  0  0  0  0  0
  140.5120   70.8440  225.9560 C   0  0  0  0  0  0  0  0  0  0  0  0
  141.0080   71.4590  227.0840 C   0  0  0  0  0  0  0  0  0  0  0  0
  141.1050   70.8310  228.3100 C   0  0  0  0  0  0  0  0  0  0  0  0
  140.6850   69.5100  228.4280 C   0  0  0  0  0  0  0  0  0  0  0  0
  140.1770   68.8620  227.3020 C   0  0  0  0  0  0  0  0  0  0  0  0
  140.0990   69.5350  226.0830 C   0  0  0  0  0  0  0  0  0  0  0  0
  140.0416   68.9289  222.8382 H   0  0  0  0  0  0  0  0  0  0  0  0
  138.3923   69.4875  223.2520 H   0  0  0  0  0  0  0  0  0  0  0  0
  141.0383   70.2157  221.3048 H   0  0  0  0  0  0  0  0  0  0  0  0
  141.0006   71.5292  219.1710 H   0  0  0  0  0  0  0  0  0  0  0  0
  139.8381   73.7156  219.1227 H   0  0  0  0  0  0  0  0  0  0  0  0
  140.8949   75.1448  222.0598 H   0  0  0  0  0  0  0  0  0  0  0  0
  141.1505   76.3508  220.7653 H   0  0  0  0  0  0  0  0  0  0  0  0
  140.5645   76.8491  223.7232 H   0  0  0  0  0  0  0  0  0  0  0  0
  142.0233   77.3261  222.7834 H   0  0  0  0  0  0  0  0  0  0  0  0
  140.4749   78.7238  221.3253 H   0  0  0  0  0  0  0  0  0  0  0  0
  141.6102   80.5984  221.3475 H   0  0  0  0  0  0  0  0  0  0  0  0
  140.1428   81.2959  221.9612 H   0  0  0  0  0  0  0  0  0  0  0  0
  142.3988   82.4737  222.7827 H   0  0  0  0  0  0  0  0  0  0  0  0
  141.3679   82.0640  224.1057 H   0  0  0  0  0  0  0  0  0  0  0  0
  143.6849   80.3717  222.8693 H   0  0  0  0  0  0  0  0  0  0  0  0
  143.5444   80.7760  224.5489 H   0  0  0  0  0  0  0  0  0  0  0  0
  142.5124   78.4114  223.4733 H   0  0  0  0  0  0  0  0  0  0  0  0
  141.7463   79.1637  224.8815 H   0  0  0  0  0  0  0  0  0  0  0  0
  138.4650   78.0801  223.4755 H   0  0  0  0  0  0  0  0  0  0  0  0
  138.2871   79.3638  222.2667 H   0  0  0  0  0  0  0  0  0  0  0  0
  137.3251   77.0534  221.6466 H   0  0  0  0  0  0  0  0  0  0  0  0
  138.4853   77.8139  220.4521 H   0  0  0  0  0  0  0  0  0  0  0  0
  138.7940   73.2842  223.2274 H   0  0  0  0  0  0  0  0  0  0  0  0
  141.3439   72.5034  227.0043 H   0  0  0  0  0  0  0  0  0  0  0  0
  141.5087   71.3678  229.1811 H   0  0  0  0  0  0  0  0  0  0  0  0
  140.7523   68.9855  229.3926 H   0  0  0  0  0  0  0  0  0  0  0  0
  139.8373   67.8184  227.3757 H   0  0  0  0  0  0  0  0  0  0  0  0
  1  2  2  0
  2  3  1  0
  3  4  1  0
  4  5  1  0
  5  6  2  0
  6  7  1  0
  7  8  2  0
  8  9  1  0
  9 10  1  0
 10 11  2  0
 10 12  1  0
 12 13  1  0
 13 14  1  0
 14 15  1  0
 15 16  1  0
 16 17  1  0
 17 18  1  0
 18 19  1  0
 19 20  1  0
 15 21  1  0
 21 22  1  0
  9 23  2  0
  4 24  2  0
 24 25  1  0
 25 26  2  0
 26 27  1  0
 27 28  2  0
 28 29  1  0
 29 30  2  0
 30  2  1  0
 23  5  1  0
 30 25  1  0
 22 12  1  0
 20 16  1  0
  3 31  1  0
  3 32  1  0
  6 33  1  0
  7 34  1  0
  8 35  1  0
 13 36  1  0
 13 37  1  0
 14 38  1  0
 14 39  1  0
 15 40  1  0
 17 41  1  0
 17 42  1  0
 18 43  1  0
 18 44  1  0
 19 45  1  0
 19 46  1  0
 20 47  1  0
 20 48  1  0
 21 49  1  0
 21 50  1  0
 22 51  1  0
 22 52  1  0
 23 53  1  0
 26 54  1  0
 27 55  1  0
 28 56  1  0
 29 57  1  0
M  END
>  <smiles>  (12) 
O=C1CC(c2cccc(C(=O)N3CCC(N4CCCC4)CC3)c2)=Nc2ccccc21

>  <score_type>  (12) 
oracle

>  <origin>  (12) 
autodockgpu

>  <m_score__min__energy>  (12) 
-9.6099999999999994

>  <m_primary>  (12) 
energy

>  <rmsd>  (12) 
7.118186885771858

>  <m_score__min__rmsd>  (12) 
7.118186885771858

>  <meeko>  (12) 
{"free_energy": -9.59, "intermolecular_energy": -10.48, "internal_energy": -1.02, "cluster_size": 50, "cluster_id": 1, "rank_in_cluster": 28}

>  <energy>  (12) 
-9.59

>  <cluster_rmsd>  (12) 
0.1

>  <cluster>  (12) 
1

$$$$

     RDKit          3D

 57 61  0  0  0  0  0  0  0  0999 V2000
  139.1750   67.5960  225.2640 O   0  0  0  0  0  0  0  0  0  0  0  0
  139.3740   68.8270  225.1100 C   0  0  0  0  0  0  0  0  0  0  0  0
  138.9400   69.4540  223.8410 C   0  0  0  0  0  0  0  0  0  0  0  0
  139.2770   70.8940  223.8870 C   0  0  0  0  0  0  0  0  0  0  0  0
  138.9310   71.6960  222.6990 C   0  0  0  0  0  0  0  0  0  0  0  0
  137.6770   71.5610  222.1220 C   0  0  0  0  0  0  0  0  0  0  0  0
  137.3180   72.3130  220.9960 C   0  0  0  0  0  0  0  0  0  0  0  0
  138.2430   73.1950  220.4720 C   0  0  0  0  0  0  0  0  0  0  0  0
  139.4970   73.3540  221.0200 C   0  0  0  0  0  0  0  0  0  0  0  0
  140.5010   74.2710  220.5050 C   0  0  0  0  0  0  0  0  0  0  0  0
  141.0880   73.8930  219.4330 O   0  0  0  0  0  0  0  0  0  0  0  0
  140.8340   75.5100  221.1270 N   0  0  0  0  0  0  0  0  0  0  0  0
  140.1190   75.8490  222.3320 C   0  0  0  0  0  0  0  0  0  0  0  0
  139.8820   77.3460  222.3400 C   0  0  0  0  0  0  0  0  0  0  0  0
  141.1710   78.0750  222.0130 C   0  0  0  0  0  0  0  0  0  0  0  0
  141.1560   79.4210  222.4170 N   0  0  0  0  0  0  0  0  0  0  0  0
  141.8560   80.3720  221.6240 C   0  0  0  0  0  0  0  0  0  0  0  0
  141.7830   81.6120  222.5290 C   0  0  0  0  0  0  0  0  0  0  0  0
  142.2060   80.9720  223.8570 C   0  0  0  0  0  0  0  0  0  0  0  0
  141.4060   79.6680  223.8010 C   0  0  0  0  0  0  0  0  0  0  0  0
  141.6020   77.8010  220.5920 C   0  0  0  0  0  0  0  0  0  0  0  0
  141.8510   76.3060  220.5060 C   0  0  0  0  0  0  0  0  0  0  0  0
  139.7970   72.5860  222.1300 C   0  0  0  0  0  0  0  0  0  0  0  0
  139.8420   71.4980  224.8530 N   0  0  0  0  0  0  0  0  0  0  0  0
  140.2460   70.8910  226.0510 C   0  0  0  0  0  0  0  0  0  0  0  0
  140.8580   71.5460  227.0970 C   0  0  0  0  0  0  0  0  0  0  0  0
  141.2440   70.9160  228.2640 C   0  0  0  0  0  0  0  0  0  0  0  0
  141.0090   69.5530  228.4060 C   0  0  0  0  0  0  0  0  0  0  0  0
  140.3900   68.8640  227.3620 C   0  0  0  0  0  0  0  0  0  0  0  0
  140.0180   69.5390  226.2010 C   0  0  0  0  0  0  0  0  0  0  0  0
  139.4595   68.9786  222.9960 H   0  0  0  0  0  0  0  0  0  0  0  0
  137.8554   69.3257  223.7099 H   0  0  0  0  0  0  0  0  0  0  0  0
  136.9543   70.8535  222.5546 H   0  0  0  0  0  0  0  0  0  0  0  0
  136.3230   72.2038  220.5399 H   0  0  0  0  0  0  0  0  0  0  0  0
  137.9694   73.7899  219.5882 H   0  0  0  0  0  0  0  0  0  0  0  0
  139.1549   75.3197  222.3538 H   0  0  0  0  0  0  0  0  0  0  0  0
  140.7039   75.5533  223.2154 H   0  0  0  0  0  0  0  0  0  0  0  0
  139.1196   77.5985  221.5884 H   0  0  0  0  0  0  0  0  0  0  0  0
  139.5362   77.6523  223.3383 H   0  0  0  0  0  0  0  0  0  0  0  0
  141.9811   77.6587  222.6298 H   0  0  0  0  0  0  0  0  0  0  0  0
  142.8962   80.0623  221.4449 H   0  0  0  0  0  0  0  0  0  0  0  0
  141.4400   80.5188  220.6163 H   0  0  0  0  0  0  0  0  0  0  0  0
  142.4839   82.3970  222.2088 H   0  0  0  0  0  0  0  0  0  0  0  0
  140.8118   82.1282  222.5432 H   0  0  0  0  0  0  0  0  0  0  0  0
  143.2892   80.7835  223.8909 H   0  0  0  0  0  0  0  0  0  0  0  0
  142.0158   81.5903  224.7466 H   0  0  0  0  0  0  0  0  0  0  0  0
  141.9880   78.8431  224.2378 H   0  0  0  0  0  0  0  0  0  0  0  0
  140.4696   79.7440  224.3731 H   0  0  0  0  0  0  0  0  0  0  0  0
  140.8091   78.0966  219.8892 H   0  0  0  0  0  0  0  0  0  0  0  0
  142.5038   78.3734  220.3291 H   0  0  0  0  0  0  0  0  0  0  0  0
  141.9097   76.0255  219.4440 H   0  0  0  0  0  0  0  0  0  0  0  0
  142.7870   76.1071  221.0485 H   0  0  0  0  0  0  0  0  0  0  0  0
  140.7934   72.6986  222.5822 H   0  0  0  0  0  0  0  0  0  0  0  0
  141.0488   72.6248  226.9979 H   0  0  0  0  0  0  0  0  0  0  0  0
  141.7307   71.4848  229.0700 H   0  0  0  0  0  0  0  0  0  0  0  0
  141.3058   69.0268  229.3253 H   0  0  0  0  0  0  0  0  0  0  0  0
  140.1953   67.7854  227.4558 H   0  0  0  0  0  0  0  0  0  0  0  0
  1  2  2  0
  2  3  1  0
  3  4  1  0
  4  5  1  0
  5  6  2  0
  6  7  1  0
  7  8  2  0
  8  9  1  0
  9 10  1  0
 10 11  2  0
 10 12  1  0
 12 13  1  0
 13 14  1  0
 14 15  1  0
 15 16  1  0
 16 17  1  0
 17 18  1  0
 18 19  1  0
 19 20  1  0
 15 21  1  0
 21 22  1  0
  9 23  2  0
  4 24  2  0
 24 25  1  0
 25 26  2  0
 26 27  1  0
 27 28  2  0
 28 29  1  0
 29 30  2  0
 30  2  1  0
 23  5  1  0
 30 25  1  0
 22 12  1  0
 20 16  1  0
  3 31  1  0
  3 32  1  0
  6 33  1  0
  7 34  1  0
  8 35  1  0
 13 36  1  0
 13 37  1  0
 14 38  1  0
 14 39  1  0
 15 40  1  0
 17 41  1  0
 17 42  1  0
 18 43  1  0
 18 44  1  0
 19 45  1  0
 19 46  1  0
 20 47  1  0
 20 48  1  0
 21 49  1  0
 21 50  1  0
 22 51  1  0
 22 52  1  0
 23 53  1  0
 26 54  1  0
 27 55  1  0
 28 56  1  0
 29 57  1  0
M  END
>  <smiles>  (13) 
O=C1CC(c2cccc(C(=O)N3CCC(N4CCCC4)CC3)c2)=Nc2ccccc21

>  <score_type>  (13) 
oracle

>  <origin>  (13) 
autodockgpu

>  <m_score__min__energy>  (13) 
-9.6099999999999994

>  <m_primary>  (13) 
energy

>  <rmsd>  (13) 
6.780566015327372

>  <m_score__min__rmsd>  (13) 
6.780566015327372

>  <meeko>  (13) 
{"free_energy": -9.56, "intermolecular_energy": -10.45, "internal_energy": -1.0, "cluster_size": 50, "cluster_id": 1, "rank_in_cluster": 44}

>  <energy>  (13) 
-9.59

>  <cluster_rmsd>  (13) 
1.35

>  <cluster>  (13) 
1

$$$$

     RDKit          3D

 57 61  0  0  0  0  0  0  0  0999 V2000
  139.1390   67.6300  225.0020 O   0  0  0  0  0  0  0  0  0  0  0  0
  139.5210   68.8210  224.8860 C   0  0  0  0  0  0  0  0  0  0  0  0
  139.4080   69.4680  223.5590 C   0  0  0  0  0  0  0  0  0  0  0  0
  139.9160   70.8540  223.6650 C   0  0  0  0  0  0  0  0  0  0  0  0
  139.8980   71.6640  222.4340 C   0  0  0  0  0  0  0  0  0  0  0  0
  140.5490   71.2030  221.3000 C   0  0  0  0  0  0  0  0  0  0  0  0
  140.5460   71.9470  220.1130 C   0  0  0  0  0  0  0  0  0  0  0  0
  139.8760   73.1560  220.0980 C   0  0  0  0  0  0  0  0  0  0  0  0
  139.2190   73.6450  221.2070 C   0  0  0  0  0  0  0  0  0  0  0  0
  138.5000   74.9080  221.2360 C   0  0  0  0  0  0  0  0  0  0  0  0
  137.2400   74.8240  221.0310 O   0  0  0  0  0  0  0  0  0  0  0  0
  139.1240   76.1680  221.4690 N   0  0  0  0  0  0  0  0  0  0  0  0
  140.5490   76.1610  221.6880 C   0  0  0  0  0  0  0  0  0  0  0  0
  140.8770   77.2200  222.7220 C   0  0  0  0  0  0  0  0  0  0  0  0
  140.1890   78.5230  222.3640 C   0  0  0  0  0  0  0  0  0  0  0  0
  140.7670   79.6380  222.9940 N   0  0  0  0  0  0  0  0  0  0  0  0
  141.0230   80.7980  222.2120 C   0  0  0  0  0  0  0  0  0  0  0  0
  141.8460   81.6380  223.2020 C   0  0  0  0  0  0  0  0  0  0  0  0
  142.8320   80.5630  223.6760 C   0  0  0  0  0  0  0  0  0  0  0  0
  141.8810   79.3740  223.8470 C   0  0  0  0  0  0  0  0  0  0  0  0
  138.6880   78.3890  222.4710 C   0  0  0  0  0  0  0  0  0  0  0  0
  138.2860   77.3300  221.4610 C   0  0  0  0  0  0  0  0  0  0  0  0
  139.2560   72.8670  222.3490 C   0  0  0  0  0  0  0  0  0  0  0  0
  140.3710   71.4030  224.7170 N   0  0  0  0  0  0  0  0  0  0  0  0
  140.4700   70.7790  225.9690 C   0  0  0  0  0  0  0  0  0  0  0  0
  140.9640   71.3750  227.1090 C   0  0  0  0  0  0  0  0  0  0  0  0
  141.0470   70.7300  228.3270 C   0  0  0  0  0  0  0  0  0  0  0  0
  140.6150   69.4110  228.4240 C   0  0  0  0  0  0  0  0  0  0  0  0
  140.1100   68.7820  227.2860 C   0  0  0  0  0  0  0  0  0  0  0  0
  140.0450   69.4710  226.0750 C   0  0  0  0  0  0  0  0  0  0  0  0
  140.0047   68.9099  222.8225 H   0  0  0  0  0  0  0  0  0  0  0  0
  138.3574   69.4766  223.2332 H   0  0  0  0  0  0  0  0  0  0  0  0
  141.0760   70.2380  221.3329 H   0  0  0  0  0  0  0  0  0  0  0  0
  141.0639   71.5783  219.2153 H   0  0  0  0  0  0  0  0  0  0  0  0
  139.8668   73.7474  219.1706 H   0  0  0  0  0  0  0  0  0  0  0  0
  140.8641   75.1729  222.0547 H   0  0  0  0  0  0  0  0  0  0  0  0
  141.0780   76.3733  220.7472 H   0  0  0  0  0  0  0  0  0  0  0  0
  140.5302   76.8842  223.7104 H   0  0  0  0  0  0  0  0  0  0  0  0
  141.9651   77.3796  222.7437 H   0  0  0  0  0  0  0  0  0  0  0  0
  140.3698   78.7404  221.3010 H   0  0  0  0  0  0  0  0  0  0  0  0
  141.6010   80.5569  221.3077 H   0  0  0  0  0  0  0  0  0  0  0  0
  140.1205   81.2984  221.8311 H   0  0  0  0  0  0  0  0  0  0  0  0
  142.3577   82.4754  222.7051 H   0  0  0  0  0  0  0  0  0  0  0  0
  141.2669   82.1295  223.9976 H   0  0  0  0  0  0  0  0  0  0  0  0
  143.6059   80.3596  222.9212 H   0  0  0  0  0  0  0  0  0  0  0  0
  143.4035   80.8284  224.5777 H   0  0  0  0  0  0  0  0  0  0  0  0
  142.3789   78.4398  223.5480 H   0  0  0  0  0  0  0  0  0  0  0  0
  141.5680   79.2547  224.8948 H   0  0  0  0  0  0  0  0  0  0  0  0
  138.4043   78.0751  223.4864 H   0  0  0  0  0  0  0  0  0  0  0  0
  138.1842   79.3462  222.2711 H   0  0  0  0  0  0  0  0  0  0  0  0
  137.2556   77.0147  221.6822 H   0  0  0  0  0  0  0  0  0  0  0  0
  138.3852   77.7866  220.4652 H   0  0  0  0  0  0  0  0  0  0  0  0
  138.7366   73.2393  223.2443 H   0  0  0  0  0  0  0  0  0  0  0  0
  141.3097   72.4173  227.0454 H   0  0  0  0  0  0  0  0  0  0  0  0
  141.4489   71.2516  229.2081 H   0  0  0  0  0  0  0  0  0  0  0  0
  140.6708   68.8733  229.3820 H   0  0  0  0  0  0  0  0  0  0  0  0
  139.7622   67.7400  227.3438 H   0  0  0  0  0  0  0  0  0  0  0  0
  1  2  2  0
  2  3  1  0
  3  4  1  0
  4  5  1  0
  5  6  2  0
  6  7  1  0
  7  8  2  0
  8  9  1  0
  9 10  1  0
 10 11  2  0
 10 12  1  0
 12 13  1  0
 13 14  1  0
 14 15  1  0
 15 16  1  0
 16 17  1  0
 17 18  1  0
 18 19  1  0
 19 20  1  0
 15 21  1  0
 21 22  1  0
  9 23  2  0
  4 24  2  0
 24 25  1  0
 25 26  2  0
 26 27  1  0
 27 28  2  0
 28 29  1  0
 29 30  2  0
 30  2  1  0
 23  5  1  0
 30 25  1  0
 22 12  1  0
 20 16  1  0
  3 31  1  0
  3 32  1  0
  6 33  1  0
  7 34  1  0
  8 35  1  0
 13 36  1  0
 13 37  1  0
 14 38  1  0
 14 39  1  0
 15 40  1  0
 17 41  1  0
 17 42  1  0
 18 43  1  0
 18 44  1  0
 19 45  1  0
 19 46  1  0
 20 47  1  0
 20 48  1  0
 21 49  1  0
 21 50  1  0
 22 51  1  0
 22 52  1  0
 23 53  1  0
 26 54  1  0
 27 55  1  0
 28 56  1  0
 29 57  1  0
M  END
>  <smiles>  (14) 
O=C1CC(c2cccc(C(=O)N3CCC(N4CCCC4)CC3)c2)=Nc2ccccc21

>  <score_type>  (14) 
oracle

>  <origin>  (14) 
autodockgpu

>  <m_score__min__energy>  (14) 
-9.6099999999999994

>  <m_primary>  (14) 
energy

>  <rmsd>  (14) 
7.122363755406106

>  <m_score__min__rmsd>  (14) 
7.122363755406106

>  <meeko>  (14) 
{"free_energy": -9.6, "intermolecular_energy": -10.49, "internal_energy": -1.01, "cluster_size": 50, "cluster_id": 1, "rank_in_cluster": 4}

>  <energy>  (14) 
-9.59

>  <cluster_rmsd>  (14) 
0.08

>  <cluster>  (14) 
1

$$$$

     RDKit          3D

 57 61  0  0  0  0  0  0  0  0999 V2000
  139.1880   67.6560  224.9940 O   0  0  0  0  0  0  0  0  0  0  0  0
  139.5710   68.8470  224.8770 C   0  0  0  0  0  0  0  0  0  0  0  0
  139.4630   69.4910  223.5480 C   0  0  0  0  0  0  0  0  0  0  0  0
  139.9710   70.8770  223.6540 C   0  0  0  0  0  0  0  0  0  0  0  0
  139.9580   71.6850  222.4210 C   0  0  0  0  0  0  0  0  0  0  0  0
  140.6080   71.2180  221.2880 C   0  0  0  0  0  0  0  0  0  0  0  0
  140.6090   71.9600  220.1000 C   0  0  0  0  0  0  0  0  0  0  0  0
  139.9460   73.1720  220.0820 C   0  0  0  0  0  0  0  0  0  0  0  0
  139.2910   73.6670  221.1890 C   0  0  0  0  0  0  0  0  0  0  0  0
  138.5780   74.9330  221.2150 C   0  0  0  0  0  0  0  0  0  0  0  0
  137.3170   74.8560  221.0140 O   0  0  0  0  0  0  0  0  0  0  0  0
  139.2100   76.1920  221.4430 N   0  0  0  0  0  0  0  0  0  0  0  0
  140.6350   76.1780  221.6590 C   0  0  0  0  0  0  0  0  0  0  0  0
  140.9700   77.2380  222.6880 C   0  0  0  0  0  0  0  0  0  0  0  0
  140.2890   78.5440  222.3270 C   0  0  0  0  0  0  0  0  0  0  0  0
  140.8740   79.6580  222.9520 N   0  0  0  0  0  0  0  0  0  0  0  0
  141.1900   80.7910  222.1530 C   0  0  0  0  0  0  0  0  0  0  0  0
  142.0000   81.6320  223.1520 C   0  0  0  0  0  0  0  0  0  0  0  0
  142.9370   80.5430  223.6880 C   0  0  0  0  0  0  0  0  0  0  0  0
  141.9480   79.3860  223.8520 C   0  0  0  0  0  0  0  0  0  0  0  0
  138.7880   78.4180  222.4380 C   0  0  0  0  0  0  0  0  0  0  0  0
  138.3770   77.3580  221.4330 C   0  0  0  0  0  0  0  0  0  0  0  0
  139.3230   72.8910  222.3330 C   0  0  0  0  0  0  0  0  0  0  0  0
  140.4220   71.4290  224.7070 N   0  0  0  0  0  0  0  0  0  0  0  0
  140.5160   70.8060  225.9600 C   0  0  0  0  0  0  0  0  0  0  0  0
  141.0060   71.4050  227.1000 C   0  0  0  0  0  0  0  0  0  0  0  0
  141.0850   70.7620  228.3200 C   0  0  0  0  0  0  0  0  0  0  0  0
  140.6520   69.4440  228.4190 C   0  0  0  0  0  0  0  0  0  0  0  0
  140.1500   68.8130  227.2790 C   0  0  0  0  0  0  0  0  0  0  0  0
  140.0900   69.5000  226.0670 C   0  0  0  0  0  0  0  0  0  0  0  0
  140.0624   68.9314  222.8149 H   0  0  0  0  0  0  0  0  0  0  0  0
  138.4138   69.4988  223.2176 H   0  0  0  0  0  0  0  0  0  0  0  0
  141.1304   70.2506  221.3230 H   0  0  0  0  0  0  0  0  0  0  0  0
  141.1251   71.5868  219.2031 H   0  0  0  0  0  0  0  0  0  0  0  0
  139.9407   73.7615  219.1533 H   0  0  0  0  0  0  0  0  0  0  0  0
  140.9456   75.1895  222.0284 H   0  0  0  0  0  0  0  0  0  0  0  0
  141.1634   76.3840  220.7165 H   0  0  0  0  0  0  0  0  0  0  0  0
  140.6227   76.9074  223.6780 H   0  0  0  0  0  0  0  0  0  0  0  0
  142.0591   77.3916  222.7072 H   0  0  0  0  0  0  0  0  0  0  0  0
  140.4695   78.7574  221.2631 H   0  0  0  0  0  0  0  0  0  0  0  0
  141.7930   80.5124  221.2762 H   0  0  0  0  0  0  0  0  0  0  0  0
  140.3160   81.3062  221.7279 H   0  0  0  0  0  0  0  0  0  0  0  0
  142.5531   82.4422  222.6543 H   0  0  0  0  0  0  0  0  0  0  0  0
  141.4065   82.1589  223.9136 H   0  0  0  0  0  0  0  0  0  0  0  0
  143.7319   80.2996  222.9677 H   0  0  0  0  0  0  0  0  0  0  0  0
  143.4824   80.8153  224.6037 H   0  0  0  0  0  0  0  0  0  0  0  0
  142.4301   78.4313  223.5948 H   0  0  0  0  0  0  0  0  0  0  0  0
  141.5934   79.3022  224.8899 H   0  0  0  0  0  0  0  0  0  0  0  0
  138.5054   78.1091  223.4552 H   0  0  0  0  0  0  0  0  0  0  0  0
  138.2890   79.3772  222.2357 H   0  0  0  0  0  0  0  0  0  0  0  0
  137.3458   77.0485  221.6587 H   0  0  0  0  0  0  0  0  0  0  0  0
  138.4743   77.8104  220.4351 H   0  0  0  0  0  0  0  0  0  0  0  0
  138.8052   73.2682  223.2272 H   0  0  0  0  0  0  0  0  0  0  0  0
  141.3515   72.4473  227.0354 H   0  0  0  0  0  0  0  0  0  0  0  0
  141.4849   71.2852  229.2011 H   0  0  0  0  0  0  0  0  0  0  0  0
  140.7041   68.9082  229.3783 H   0  0  0  0  0  0  0  0  0  0  0  0
  139.8010   67.7715  227.3372 H   0  0  0  0  0  0  0  0  0  0  0  0
  1  2  2  0
  2  3  1  0
  3  4  1  0
  4  5  1  0
  5  6  2  0
  6  7  1  0
  7  8  2  0
  8  9  1  0
  9 10  1  0
 10 11  2  0
 10 12  1  0
 12 13  1  0
 13 14  1  0
 14 15  1  0
 15 16  1  0
 16 17  1  0
 17 18  1  0
 18 19  1  0
 19 20  1  0
 15 21  1  0
 21 22  1  0
  9 23  2  0
  4 24  2  0
 24 25  1  0
 25 26  2  0
 26 27  1  0
 27 28  2  0
 28 29  1  0
 29 30  2  0
 30  2  1  0
 23  5  1  0
 30 25  1  0
 22 12  1  0
 20 16  1  0
  3 31  1  0
  3 32  1  0
  6 33  1  0
  7 34  1  0
  8 35  1  0
 13 36  1  0
 13 37  1  0
 14 38  1  0
 14 39  1  0
 15 40  1  0
 17 41  1  0
 17 42  1  0
 18 43  1  0
 18 44  1  0
 19 45  1  0
 19 46  1  0
 20 47  1  0
 20 48  1  0
 21 49  1  0
 21 50  1  0
 22 51  1  0
 22 52  1  0
 23 53  1  0
 26 54  1  0
 27 55  1  0
 28 56  1  0
 29 57  1  0
M  END
>  <smiles>  (15) 
O=C1CC(c2cccc(C(=O)N3CCC(N4CCCC4)CC3)c2)=Nc2ccccc21

>  <score_type>  (15) 
oracle

>  <origin>  (15) 
autodockgpu

>  <m_score__min__energy>  (15) 
-9.6099999999999994

>  <m_primary>  (15) 
energy

>  <rmsd>  (15) 
7.100252003985368

>  <m_score__min__rmsd>  (15) 
7.100252003985368

>  <meeko>  (15) 
{"free_energy": -9.59, "intermolecular_energy": -10.48, "internal_energy": -1.01, "cluster_size": 50, "cluster_id": 1, "rank_in_cluster": 20}

>  <energy>  (15) 
-9.59

>  <cluster_rmsd>  (15) 
0.12

>  <cluster>  (15) 
1

$$$$

     RDKit          3D

 57 61  0  0  0  0  0  0  0  0999 V2000
  139.1640   67.6860  225.0080 O   0  0  0  0  0  0  0  0  0  0  0  0
  139.5530   68.8740  224.8880 C   0  0  0  0  0  0  0  0  0  0  0  0
  139.4420   69.5180  223.5590 C   0  0  0  0  0  0  0  0  0  0  0  0
  139.9590   70.9000  223.6610 C   0  0  0  0  0  0  0  0  0  0  0  0
  139.9440   71.7080  222.4280 C   0  0  0  0  0  0  0  0  0  0  0  0
  140.5900   71.2390  221.2930 C   0  0  0  0  0  0  0  0  0  0  0  0
  140.5890   71.9800  220.1050 C   0  0  0  0  0  0  0  0  0  0  0  0
  139.9270   73.1930  220.0870 C   0  0  0  0  0  0  0  0  0  0  0  0
  139.2760   73.6890  221.1960 C   0  0  0  0  0  0  0  0  0  0  0  0
  138.5660   74.9570  221.2240 C   0  0  0  0  0  0  0  0  0  0  0  0
  137.3060   74.8830  221.0130 O   0  0  0  0  0  0  0  0  0  0  0  0
  139.1980   76.2130  221.4620 N   0  0  0  0  0  0  0  0  0  0  0  0
  140.6220   76.1960  221.6880 C   0  0  0  0  0  0  0  0  0  0  0  0
  140.9510   77.2510  222.7250 C   0  0  0  0  0  0  0  0  0  0  0  0
  140.2740   78.5590  222.3650 C   0  0  0  0  0  0  0  0  0  0  0  0
  140.8570   79.6690  222.9990 N   0  0  0  0  0  0  0  0  0  0  0  0
  141.1880   80.8040  222.2070 C   0  0  0  0  0  0  0  0  0  0  0  0
  141.9890   81.6390  223.2170 C   0  0  0  0  0  0  0  0  0  0  0  0
  142.9160   80.5450  223.7610 C   0  0  0  0  0  0  0  0  0  0  0  0
  141.9200   79.3900  223.9100 C   0  0  0  0  0  0  0  0  0  0  0  0
  138.7730   78.4360  222.4650 C   0  0  0  0  0  0  0  0  0  0  0  0
  138.3670   77.3810  221.4510 C   0  0  0  0  0  0  0  0  0  0  0  0
  139.3100   72.9150  222.3410 C   0  0  0  0  0  0  0  0  0  0  0  0
  140.4200   71.4500  224.7110 N   0  0  0  0  0  0  0  0  0  0  0  0
  140.5180   70.8280  225.9640 C   0  0  0  0  0  0  0  0  0  0  0  0
  141.0180   71.4240  227.1010 C   0  0  0  0  0  0  0  0  0  0  0  0
  141.1000   70.7810  228.3200 C   0  0  0  0  0  0  0  0  0  0  0  0
  140.6590   69.4660  228.4220 C   0  0  0  0  0  0  0  0  0  0  0  0
  140.1470   68.8370  227.2870 C   0  0  0  0  0  0  0  0  0  0  0  0
  140.0840   69.5240  226.0750 C   0  0  0  0  0  0  0  0  0  0  0  0
  140.0339   68.9540  222.8231 H   0  0  0  0  0  0  0  0  0  0  0  0
  138.3911   69.5324  223.2344 H   0  0  0  0  0  0  0  0  0  0  0  0
  141.1106   70.2706  221.3271 H   0  0  0  0  0  0  0  0  0  0  0  0
  141.1029   71.6056  219.2074 H   0  0  0  0  0  0  0  0  0  0  0  0
  139.9194   73.7816  219.1577 H   0  0  0  0  0  0  0  0  0  0  0  0
  140.9287   75.2053  222.0548 H   0  0  0  0  0  0  0  0  0  0  0  0
  141.1574   76.4058  220.7503 H   0  0  0  0  0  0  0  0  0  0  0  0
  140.5962   76.9162  223.7109 H   0  0  0  0  0  0  0  0  0  0  0  0
  142.0401   77.4032  222.7531 H   0  0  0  0  0  0  0  0  0  0  0  0
  140.4611   78.7758  221.3029 H   0  0  0  0  0  0  0  0  0  0  0  0
  141.8004   80.5252  221.3368 H   0  0  0  0  0  0  0  0  0  0  0  0
  140.3211   81.3241  221.7733 H   0  0  0  0  0  0  0  0  0  0  0  0
  142.5507   82.4485  222.7279 H   0  0  0  0  0  0  0  0  0  0  0  0
  141.3886   82.1661  223.9731 H   0  0  0  0  0  0  0  0  0  0  0  0
  143.7186   80.3009  223.0495 H   0  0  0  0  0  0  0  0  0  0  0  0
  143.4515   80.8127  224.6838 H   0  0  0  0  0  0  0  0  0  0  0  0
  142.4015   78.4344  223.6549 H   0  0  0  0  0  0  0  0  0  0  0  0
  141.5535   79.3040  224.9436 H   0  0  0  0  0  0  0  0  0  0  0  0
  138.4826   78.1227  223.4786 H   0  0  0  0  0  0  0  0  0  0  0  0
  138.2773   79.3973  222.2643 H   0  0  0  0  0  0  0  0  0  0  0  0
  137.3335   77.0726  221.6674 H   0  0  0  0  0  0  0  0  0  0  0  0
  138.4725   77.8379  220.4560 H   0  0  0  0  0  0  0  0  0  0  0  0
  138.7954   73.2940  223.2363 H   0  0  0  0  0  0  0  0  0  0  0  0
  141.3695   72.4642  227.0343 H   0  0  0  0  0  0  0  0  0  0  0  0
  141.5086   71.3017  229.1986 H   0  0  0  0  0  0  0  0  0  0  0  0
  140.7130   68.9309  229.3815 H   0  0  0  0  0  0  0  0  0  0  0  0
  139.7924   67.7975  227.3481 H   0  0  0  0  0  0  0  0  0  0  0  0
  1  2  2  0
  2  3  1  0
  3  4  1  0
  4  5  1  0
  5  6  2  0
  6  7  1  0
  7  8  2  0
  8  9  1  0
  9 10  1  0
 10 11  2  0
 10 12  1  0
 12 13  1  0
 13 14  1  0
 14 15  1  0
 15 16  1  0
 16 17  1  0
 17 18  1  0
 18 19  1  0
 19 20  1  0
 15 21  1  0
 21 22  1  0
  9 23  2  0
  4 24  2  0
 24 25  1  0
 25 26  2  0
 26 27  1  0
 27 28  2  0
 28 29  1  0
 29 30  2  0
 30  2  1  0
 23  5  1  0
 30 25  1  0
 22 12  1  0
 20 16  1  0
  3 31  1  0
  3 32  1  0
  6 33  1  0
  7 34  1  0
  8 35  1  0
 13 36  1  0
 13 37  1  0
 14 38  1  0
 14 39  1  0
 15 40  1  0
 17 41  1  0
 17 42  1  0
 18 43  1  0
 18 44  1  0
 19 45  1  0
 19 46  1  0
 20 47  1  0
 20 48  1  0
 21 49  1  0
 21 50  1  0
 22 51  1  0
 22 52  1  0
 23 53  1  0
 26 54  1  0
 27 55  1  0
 28 56  1  0
 29 57  1  0
M  END
>  <smiles>  (16) 
O=C1CC(c2cccc(C(=O)N3CCC(N4CCCC4)CC3)c2)=Nc2ccccc21

>  <score_type>  (16) 
oracle

>  <origin>  (16) 
autodockgpu

>  <m_score__min__energy>  (16) 
-9.6099999999999994

>  <m_primary>  (16) 
energy

>  <rmsd>  (16) 
7.097162621125466

>  <m_score__min__rmsd>  (16) 
7.097162621125466

>  <meeko>  (16) 
{"free_energy": -9.59, "intermolecular_energy": -10.49, "internal_energy": -1.01, "cluster_size": 50, "cluster_id": 1, "rank_in_cluster": 12}

>  <energy>  (16) 
-9.59

>  <cluster_rmsd>  (16) 
0.08

>  <cluster>  (16) 
1

$$$$

     RDKit          3D

 57 61  0  0  0  0  0  0  0  0999 V2000
  139.1330   67.4830  224.8860 O   0  0  0  0  0  0  0  0  0  0  0  0
  139.5270   68.6740  224.8210 C   0  0  0  0  0  0  0  0  0  0  0  0
  139.4250   69.3770  223.5220 C   0  0  0  0  0  0  0  0  0  0  0  0
  139.9470   70.7510  223.6870 C   0  0  0  0  0  0  0  0  0  0  0  0
  139.9410   71.6130  222.4910 C   0  0  0  0  0  0  0  0  0  0  0  0
  140.6240   71.2100  221.3530 C   0  0  0  0  0  0  0  0  0  0  0  0
  140.6330   72.0040  220.1990 C   0  0  0  0  0  0  0  0  0  0  0  0
  139.9440   73.2020  220.2200 C   0  0  0  0  0  0  0  0  0  0  0  0
  139.2560   73.6330  221.3340 C   0  0  0  0  0  0  0  0  0  0  0  0
  138.5160   74.8820  221.4000 C   0  0  0  0  0  0  0  0  0  0  0  0
  137.2480   74.7740  221.2700 O   0  0  0  0  0  0  0  0  0  0  0  0
  139.1290   76.1550  221.5930 N   0  0  0  0  0  0  0  0  0  0  0  0
  140.5640   76.1760  221.7290 C   0  0  0  0  0  0  0  0  0  0  0  0
  140.9310   77.2450  222.7390 C   0  0  0  0  0  0  0  0  0  0  0  0
  140.1990   78.5330  222.4170 C   0  0  0  0  0  0  0  0  0  0  0  0
  140.7910   79.6620  223.0090 N   0  0  0  0  0  0  0  0  0  0  0  0
  141.1460   80.7550  222.1710 C   0  0  0  0  0  0  0  0  0  0  0  0
  141.9490   81.6220  223.1530 C   0  0  0  0  0  0  0  0  0  0  0  0
  142.8540   80.5400  223.7540 C   0  0  0  0  0  0  0  0  0  0  0  0
  141.8410   79.4080  223.9430 C   0  0  0  0  0  0  0  0  0  0  0  0
  138.7100   78.3720  222.6120 C   0  0  0  0  0  0  0  0  0  0  0  0
  138.2690   77.3010  221.6300 C   0  0  0  0  0  0  0  0  0  0  0  0
  139.2820   72.8080  222.4430 C   0  0  0  0  0  0  0  0  0  0  0  0
  140.4040   71.2520  224.7630 N   0  0  0  0  0  0  0  0  0  0  0  0
  140.4930   70.5740  225.9880 C   0  0  0  0  0  0  0  0  0  0  0  0
  140.9900   71.1170  227.1520 C   0  0  0  0  0  0  0  0  0  0  0  0
  141.0630   70.4210  228.3430 C   0  0  0  0  0  0  0  0  0  0  0  0
  140.6170   69.1040  228.3840 C   0  0  0  0  0  0  0  0  0  0  0  0
  140.1080   68.5280  227.2190 C   0  0  0  0  0  0  0  0  0  0  0  0
  140.0540   69.2680  226.0380 C   0  0  0  0  0  0  0  0  0  0  0  0
  140.0180   68.8437  222.7644 H   0  0  0  0  0  0  0  0  0  0  0  0
  138.3755   69.4105  223.1941 H   0  0  0  0  0  0  0  0  0  0  0  0
  141.1664   70.2530  221.3568 H   0  0  0  0  0  0  0  0  0  0  0  0
  141.1753   71.6818  219.2978 H   0  0  0  0  0  0  0  0  0  0  0  0
  139.9447   73.8321  219.3183 H   0  0  0  0  0  0  0  0  0  0  0  0
  140.9187   75.1956  222.0797 H   0  0  0  0  0  0  0  0  0  0  0  0
  141.0334   76.3946  220.7585 H   0  0  0  0  0  0  0  0  0  0  0  0
  140.6481   76.9070  223.7468 H   0  0  0  0  0  0  0  0  0  0  0  0
  142.0154   77.4250  222.6976 H   0  0  0  0  0  0  0  0  0  0  0  0
  140.3141   78.7481  221.3444 H   0  0  0  0  0  0  0  0  0  0  0  0
  141.7630   80.4293  221.3206 H   0  0  0  0  0  0  0  0  0  0  0  0
  140.2917   81.2675  221.7047 H   0  0  0  0  0  0  0  0  0  0  0  0
  142.5275   82.4014  222.6355 H   0  0  0  0  0  0  0  0  0  0  0  0
  141.3486   82.1899  223.8789 H   0  0  0  0  0  0  0  0  0  0  0  0
  143.6598   80.2534  223.0623 H   0  0  0  0  0  0  0  0  0  0  0  0
  143.3841   80.8404  224.6698 H   0  0  0  0  0  0  0  0  0  0  0  0
  142.3110   78.4354  223.7351 H   0  0  0  0  0  0  0  0  0  0  0  0
  141.4631   79.3725  224.9754 H   0  0  0  0  0  0  0  0  0  0  0  0
  138.4920   78.0572  223.6432 H   0  0  0  0  0  0  0  0  0  0  0  0
  138.1778   79.3190  222.4390 H   0  0  0  0  0  0  0  0  0  0  0  0
  137.2596   76.9672  221.9124 H   0  0  0  0  0  0  0  0  0  0  0  0
  138.3000   77.7549  220.6285 H   0  0  0  0  0  0  0  0  0  0  0  0
  138.7384   73.1342  223.3419 H   0  0  0  0  0  0  0  0  0  0  0  0
  141.3468   72.1573  227.1323 H   0  0  0  0  0  0  0  0  0  0  0  0
  141.4680   70.9013  229.2460 H   0  0  0  0  0  0  0  0  0  0  0  0
  140.6647   68.5262  229.3188 H   0  0  0  0  0  0  0  0  0  0  0  0
  139.7487   67.4884  227.2323 H   0  0  0  0  0  0  0  0  0  0  0  0
  1  2  2  0
  2  3  1  0
  3  4  1  0
  4  5  1  0
  5  6  2  0
  6  7  1  0
  7  8  2  0
  8  9  1  0
  9 10  1  0
 10 11  2  0
 10 12  1  0
 12 13  1  0
 13 14  1  0
 14 15  1  0
 15 16  1  0
 16 17  1  0
 17 18  1  0
 18 19  1  0
 19 20  1  0
 15 21  1  0
 21 22  1  0
  9 23  2  0
  4 24  2  0
 24 25  1  0
 25 26  2  0
 26 27  1  0
 27 28  2  0
 28 29  1  0
 29 30  2  0
 30  2  1  0
 23  5  1  0
 30 25  1  0
 22 12  1  0
 20 16  1  0
  3 31  1  0
  3 32  1  0
  6 33  1  0
  7 34  1  0
  8 35  1  0
 13 36  1  0
 13 37  1  0
 14 38  1  0
 14 39  1  0
 15 40  1  0
 17 41  1  0
 17 42  1  0
 18 43  1  0
 18 44  1  0
 19 45  1  0
 19 46  1  0
 20 47  1  0
 20 48  1  0
 21 49  1  0
 21 50  1  0
 22 51  1  0
 22 52  1  0
 23 53  1  0
 26 54  1  0
 27 55  1  0
 28 56  1  0
 29 57  1  0
M  END
>  <smiles>  (17) 
O=C1CC(c2cccc(C(=O)N3CCC(N4CCCC4)CC3)c2)=Nc2ccccc21

>  <score_type>  (17) 
oracle

>  <origin>  (17) 
autodockgpu

>  <m_score__min__energy>  (17) 
-9.6099999999999994

>  <m_primary>  (17) 
energy

>  <rmsd>  (17) 
7.147858073267865

>  <m_score__min__rmsd>  (17) 
7.147858073267865

>  <meeko>  (17) 
{"free_energy": -9.55, "intermolecular_energy": -10.44, "internal_energy": -1.0, "cluster_size": 50, "cluster_id": 1, "rank_in_cluster": 45}

>  <energy>  (17) 
-9.59

>  <cluster_rmsd>  (17) 
0.14

>  <cluster>  (17) 
1

$$$$

     RDKit          3D

 57 61  0  0  0  0  0  0  0  0999 V2000
  139.1830   67.6860  225.0540 O   0  0  0  0  0  0  0  0  0  0  0  0
  139.5610   68.8760  224.9180 C   0  0  0  0  0  0  0  0  0  0  0  0
  139.4360   69.5030  223.5820 C   0  0  0  0  0  0  0  0  0  0  0  0
  139.9420   70.8910  223.6630 C   0  0  0  0  0  0  0  0  0  0  0  0
  139.9120   71.6830  222.4210 C   0  0  0  0  0  0  0  0  0  0  0  0
  140.5340   71.1940  221.2810 C   0  0  0  0  0  0  0  0  0  0  0  0
  140.5190   71.9200  220.0840 C   0  0  0  0  0  0  0  0  0  0  0  0
  139.8680   73.1390  220.0620 C   0  0  0  0  0  0  0  0  0  0  0  0
  139.2410   73.6550  221.1760 C   0  0  0  0  0  0  0  0  0  0  0  0
  138.5430   74.9300  221.2000 C   0  0  0  0  0  0  0  0  0  0  0  0
  137.2840   74.8680  220.9810 O   0  0  0  0  0  0  0  0  0  0  0  0
  139.1850   76.1790  221.4440 N   0  0  0  0  0  0  0  0  0  0  0  0
  140.6070   76.1480  221.6790 C   0  0  0  0  0  0  0  0  0  0  0  0
  140.9400   77.1990  222.7200 C   0  0  0  0  0  0  0  0  0  0  0  0
  140.2780   78.5140  222.3570 C   0  0  0  0  0  0  0  0  0  0  0  0
  140.8670   79.6180  222.9960 N   0  0  0  0  0  0  0  0  0  0  0  0
  141.0710   80.8060  222.2410 C   0  0  0  0  0  0  0  0  0  0  0  0
  141.9250   81.6270  223.2200 C   0  0  0  0  0  0  0  0  0  0  0  0
  142.9460   80.5540  223.6160 C   0  0  0  0  0  0  0  0  0  0  0  0
  142.0220   79.3460  223.7910 C   0  0  0  0  0  0  0  0  0  0  0  0
  138.7740   78.4050  222.4460 C   0  0  0  0  0  0  0  0  0  0  0  0
  138.3660   77.3550  221.4290 C   0  0  0  0  0  0  0  0  0  0  0  0
  139.2880   72.8950  222.3290 C   0  0  0  0  0  0  0  0  0  0  0  0
  140.4040   71.4570  224.7040 N   0  0  0  0  0  0  0  0  0  0  0  0
  140.5140   70.8520  225.9640 C   0  0  0  0  0  0  0  0  0  0  0  0
  141.0150   71.4660  227.0910 C   0  0  0  0  0  0  0  0  0  0  0  0
  141.1100   70.8390  228.3170 C   0  0  0  0  0  0  0  0  0  0  0  0
  140.6820   69.5210  228.4380 C   0  0  0  0  0  0  0  0  0  0  0  0
  140.1690   68.8740  227.3130 C   0  0  0  0  0  0  0  0  0  0  0  0
  140.0930   69.5450  226.0930 C   0  0  0  0  0  0  0  0  0  0  0  0
  140.0278   68.9349  222.8492 H   0  0  0  0  0  0  0  0  0  0  0  0
  138.3828   69.5048  223.2647 H   0  0  0  0  0  0  0  0  0  0  0  0
  141.0465   70.2214  221.3184 H   0  0  0  0  0  0  0  0  0  0  0  0
  141.0136   71.5295  219.1824 H   0  0  0  0  0  0  0  0  0  0  0  0
  139.8496   73.7159  219.1256 H   0  0  0  0  0  0  0  0  0  0  0  0
  140.9018   75.1540  222.0464 H   0  0  0  0  0  0  0  0  0  0  0  0
  141.1503   76.3539  220.7450 H   0  0  0  0  0  0  0  0  0  0  0  0
  140.5756   76.8666  223.7032 H   0  0  0  0  0  0  0  0  0  0  0  0
  142.0303   77.3404  222.7554 H   0  0  0  0  0  0  0  0  0  0  0  0
  140.4749   78.7303  221.2966 H   0  0  0  0  0  0  0  0  0  0  0  0
  141.6114   80.6027  221.3047 H   0  0  0  0  0  0  0  0  0  0  0  0
  140.1453   81.3037  221.9165 H   0  0  0  0  0  0  0  0  0  0  0  0
  142.4022   82.4874  222.7280 H   0  0  0  0  0  0  0  0  0  0  0  0
  141.3746   82.0842  224.0555 H   0  0  0  0  0  0  0  0  0  0  0  0
  143.6885   80.3864  222.8219 H   0  0  0  0  0  0  0  0  0  0  0  0
  143.5528   80.8006  224.4998 H   0  0  0  0  0  0  0  0  0  0  0  0
  142.5200   78.4296  223.4414 H   0  0  0  0  0  0  0  0  0  0  0  0
  141.7575   79.1896  224.8472 H   0  0  0  0  0  0  0  0  0  0  0  0
  138.4732   78.0939  223.4573 H   0  0  0  0  0  0  0  0  0  0  0  0
  138.2888   79.3710  222.2423 H   0  0  0  0  0  0  0  0  0  0  0  0
  137.3281   77.0563  221.6378 H   0  0  0  0  0  0  0  0  0  0  0  0
  138.4838   77.8120  220.4354 H   0  0  0  0  0  0  0  0  0  0  0  0
  138.7925   73.2900  223.2281 H   0  0  0  0  0  0  0  0  0  0  0  0
  141.3565   72.5085  227.0097 H   0  0  0  0  0  0  0  0  0  0  0  0
  141.5187   71.3744  229.1867 H   0  0  0  0  0  0  0  0  0  0  0  0
  140.7468   68.9979  229.4035 H   0  0  0  0  0  0  0  0  0  0  0  0
  139.8238   67.8323  227.3888 H   0  0  0  0  0  0  0  0  0  0  0  0
  1  2  2  0
  2  3  1  0
  3  4  1  0
  4  5  1  0
  5  6  2  0
  6  7  1  0
  7  8  2  0
  8  9  1  0
  9 10  1  0
 10 11  2  0
 10 12  1  0
 12 13  1  0
 13 14  1  0
 14 15  1  0
 15 16  1  0
 16 17  1  0
 17 18  1  0
 18 19  1  0
 19 20  1  0
 15 21  1  0
 21 22  1  0
  9 23  2  0
  4 24  2  0
 24 25  1  0
 25 26  2  0
 26 27  1  0
 27 28  2  0
 28 29  1  0
 29 30  2  0
 30  2  1  0
 23  5  1  0
 30 25  1  0
 22 12  1  0
 20 16  1  0
  3 31  1  0
  3 32  1  0
  6 33  1  0
  7 34  1  0
  8 35  1  0
 13 36  1  0
 13 37  1  0
 14 38  1  0
 14 39  1  0
 15 40  1  0
 17 41  1  0
 17 42  1  0
 18 43  1  0
 18 44  1  0
 19 45  1  0
 19 46  1  0
 20 47  1  0
 20 48  1  0
 21 49  1  0
 21 50  1  0
 22 51  1  0
 22 52  1  0
 23 53  1  0
 26 54  1  0
 27 55  1  0
 28 56  1  0
 29 57  1  0
M  END
>  <smiles>  (18) 
O=C1CC(c2cccc(C(=O)N3CCC(N4CCCC4)CC3)c2)=Nc2ccccc21

>  <score_type>  (18) 
oracle

>  <origin>  (18) 
autodockgpu

>  <m_score__min__energy>  (18) 
-9.6099999999999994

>  <m_primary>  (18) 
energy

>  <rmsd>  (18) 
7.112044156537802

>  <m_score__min__rmsd>  (18) 
7.112044156537802

>  <meeko>  (18) 
{"free_energy": -9.59, "intermolecular_energy": -10.48, "internal_energy": -1.01, "cluster_size": 50, "cluster_id": 1, "rank_in_cluster": 22}

>  <energy>  (18) 
-9.59

>  <cluster_rmsd>  (18) 
0.11

>  <cluster>  (18) 
1

$$$$

     RDKit          3D

 57 61  0  0  0  0  0  0  0  0999 V2000
  139.1880   67.7110  225.0590 O   0  0  0  0  0  0  0  0  0  0  0  0
  139.5430   68.9080  224.9190 C   0  0  0  0  0  0  0  0  0  0  0  0
  139.3950   69.5320  223.5850 C   0  0  0  0  0  0  0  0  0  0  0  0
  139.8760   70.9290  223.6620 C   0  0  0  0  0  0  0  0  0  0  0  0
  139.8210   71.7200  222.4200 C   0  0  0  0  0  0  0  0  0  0  0  0
  140.4130   71.2270  221.2660 C   0  0  0  0  0  0  0  0  0  0  0  0
  140.3730   71.9530  220.0690 C   0  0  0  0  0  0  0  0  0  0  0  0
  139.7290   73.1750  220.0610 C   0  0  0  0  0  0  0  0  0  0  0  0
  139.1310   73.6950  221.1890 C   0  0  0  0  0  0  0  0  0  0  0  0
  138.4400   74.9740  221.2280 C   0  0  0  0  0  0  0  0  0  0  0  0
  137.1790   74.9200  221.0240 O   0  0  0  0  0  0  0  0  0  0  0  0
  139.0930   76.2180  221.4720 N   0  0  0  0  0  0  0  0  0  0  0  0
  140.5170   76.1780  221.6910 C   0  0  0  0  0  0  0  0  0  0  0  0
  140.8680   77.2210  222.7330 C   0  0  0  0  0  0  0  0  0  0  0  0
  140.2090   78.5410  222.3860 C   0  0  0  0  0  0  0  0  0  0  0  0
  140.8120   79.6380  223.0240 N   0  0  0  0  0  0  0  0  0  0  0  0
  141.0530   80.8150  222.2620 C   0  0  0  0  0  0  0  0  0  0  0  0
  141.9090   81.6270  223.2470 C   0  0  0  0  0  0  0  0  0  0  0  0
  142.9020   80.5360  223.6670 C   0  0  0  0  0  0  0  0  0  0  0  0
  141.9490   79.3490  223.8380 C   0  0  0  0  0  0  0  0  0  0  0  0
  138.7060   78.4410  222.4920 C   0  0  0  0  0  0  0  0  0  0  0  0
  138.2800   77.3990  221.4730 C   0  0  0  0  0  0  0  0  0  0  0  0
  139.2020   72.9350  222.3420 C   0  0  0  0  0  0  0  0  0  0  0  0
  140.3370   71.5040  224.6980 N   0  0  0  0  0  0  0  0  0  0  0  0
  140.4690   70.9010  225.9570 C   0  0  0  0  0  0  0  0  0  0  0  0
  140.9690   71.5240  227.0790 C   0  0  0  0  0  0  0  0  0  0  0  0
  141.0860   70.8990  228.3050 C   0  0  0  0  0  0  0  0  0  0  0  0
  140.6830   69.5740  228.4300 C   0  0  0  0  0  0  0  0  0  0  0  0
  140.1720   68.9180  227.3090 C   0  0  0  0  0  0  0  0  0  0  0  0
  140.0730   69.5870  226.0900 C   0  0  0  0  0  0  0  0  0  0  0  0
  139.9909   68.9749  222.8470 H   0  0  0  0  0  0  0  0  0  0  0  0
  138.3393   69.5143  223.2766 H   0  0  0  0  0  0  0  0  0  0  0  0
  140.9211   70.2517  221.2917 H   0  0  0  0  0  0  0  0  0  0  0  0
  140.8437   71.5591  219.1561 H   0  0  0  0  0  0  0  0  0  0  0  0
  139.6922   73.7515  219.1249 H   0  0  0  0  0  0  0  0  0  0  0  0
  140.8102   75.1804  222.0499 H   0  0  0  0  0  0  0  0  0  0  0  0
  141.0507   76.3861  220.7519 H   0  0  0  0  0  0  0  0  0  0  0  0
  140.5140   76.8849  223.7188 H   0  0  0  0  0  0  0  0  0  0  0  0
  141.9594   77.3566  222.7555 H   0  0  0  0  0  0  0  0  0  0  0  0
  140.3941   78.7614  221.3243 H   0  0  0  0  0  0  0  0  0  0  0  0
  141.6035   80.5920  221.3361 H   0  0  0  0  0  0  0  0  0  0  0  0
  140.1431   81.3292  221.9189 H   0  0  0  0  0  0  0  0  0  0  0  0
  142.4111   82.4732  222.7552 H   0  0  0  0  0  0  0  0  0  0  0  0
  141.3559   82.1026  224.0703 H   0  0  0  0  0  0  0  0  0  0  0  0
  143.6524   80.3461  222.8855 H   0  0  0  0  0  0  0  0  0  0  0  0
  143.5012   80.7771  224.5574 H   0  0  0  0  0  0  0  0  0  0  0  0
  142.4324   78.4193  223.5035 H   0  0  0  0  0  0  0  0  0  0  0  0
  141.6655   79.2079  224.8914 H   0  0  0  0  0  0  0  0  0  0  0  0
  138.4149   78.1257  223.5049 H   0  0  0  0  0  0  0  0  0  0  0  0
  138.2243   79.4111  222.3000 H   0  0  0  0  0  0  0  0  0  0  0  0
  137.2429   77.1048  221.6919 H   0  0  0  0  0  0  0  0  0  0  0  0
  138.3887   77.8611  220.4807 H   0  0  0  0  0  0  0  0  0  0  0  0
  138.7309   73.3335  223.2526 H   0  0  0  0  0  0  0  0  0  0  0  0
  141.2914   72.5723  226.9943 H   0  0  0  0  0  0  0  0  0  0  0  0
  141.4925   71.4420  229.1709 H   0  0  0  0  0  0  0  0  0  0  0  0
  140.7654   69.0523  229.3949 H   0  0  0  0  0  0  0  0  0  0  0  0
  139.8465   67.8702  227.3876 H   0  0  0  0  0  0  0  0  0  0  0  0
  1  2  2  0
  2  3  1  0
  3  4  1  0
  4  5  1  0
  5  6  2  0
  6  7  1  0
  7  8  2  0
  8  9  1  0
  9 10  1  0
 10 11  2  0
 10 12  1  0
 12 13  1  0
 13 14  1  0
 14 15  1  0
 15 16  1  0
 16 17  1  0
 17 18  1  0
 18 19  1  0
 19 20  1  0
 15 21  1  0
 21 22  1  0
  9 23  2  0
  4 24  2  0
 24 25  1  0
 25 26  2  0
 26 27  1  0
 27 28  2  0
 28 29  1  0
 29 30  2  0
 30  2  1  0
 23  5  1  0
 30 25  1  0
 22 12  1  0
 20 16  1  0
  3 31  1  0
  3 32  1  0
  6 33  1  0
  7 34  1  0
  8 35  1  0
 13 36  1  0
 13 37  1  0
 14 38  1  0
 14 39  1  0
 15 40  1  0
 17 41  1  0
 17 42  1  0
 18 43  1  0
 18 44  1  0
 19 45  1  0
 19 46  1  0
 20 47  1  0
 20 48  1  0
 21 49  1  0
 21 50  1  0
 22 51  1  0
 22 52  1  0
 23 53  1  0
 26 54  1  0
 27 55  1  0
 28 56  1  0
 29 57  1  0
M  END
>  <smiles>  (19) 
O=C1CC(c2cccc(C(=O)N3CCC(N4CCCC4)CC3)c2)=Nc2ccccc21

>  <score_type>  (19) 
oracle

>  <origin>  (19) 
autodockgpu

>  <m_score__min__energy>  (19) 
-9.6099999999999994

>  <m_primary>  (19) 
energy

>  <rmsd>  (19) 
7.107959143858358

>  <m_score__min__rmsd>  (19) 
7.107959143858358

>  <meeko>  (19) 
{"free_energy": -9.59, "intermolecular_energy": -10.48, "internal_energy": -1.02, "cluster_size": 50, "cluster_id": 1, "rank_in_cluster": 24}

>  <energy>  (19) 
-9.59

>  <cluster_rmsd>  (19) 
1.35

>  <cluster>  (19) 
1

$$$$

     RDKit          3D

 57 61  0  0  0  0  0  0  0  0999 V2000
  139.1960   67.4410  225.1470 O   0  0  0  0  0  0  0  0  0  0  0  0
  139.3750   68.6820  225.0680 C   0  0  0  0  0  0  0  0  0  0  0  0
  138.9200   69.3790  223.8440 C   0  0  0  0  0  0  0  0  0  0  0  0
  139.2360   70.8190  223.9760 C   0  0  0  0  0  0  0  0  0  0  0  0
  138.8690   71.6870  222.8440 C   0  0  0  0  0  0  0  0  0  0  0  0
  137.5620   71.6910  222.3790 C   0  0  0  0  0  0  0  0  0  0  0  0
  137.1800   72.5090  221.3080 C   0  0  0  0  0  0  0  0  0  0  0  0
  138.1380   73.3150  220.7220 C   0  0  0  0  0  0  0  0  0  0  0  0
  139.4460   73.3350  221.1580 C   0  0  0  0  0  0  0  0  0  0  0  0
  140.4850   74.1680  220.5760 C   0  0  0  0  0  0  0  0  0  0  0  0
  141.0140   73.7120  219.5040 O   0  0  0  0  0  0  0  0  0  0  0  0
  140.9110   75.4090  221.1350 N   0  0  0  0  0  0  0  0  0  0  0  0
  140.2560   75.8390  222.3450 C   0  0  0  0  0  0  0  0  0  0  0  0
  140.1090   77.3470  222.2960 C   0  0  0  0  0  0  0  0  0  0  0  0
  141.4280   77.9820  221.9020 C   0  0  0  0  0  0  0  0  0  0  0  0
  141.5060   79.3420  222.2480 N   0  0  0  0  0  0  0  0  0  0  0  0
  142.6170   79.7790  223.0220 C   0  0  0  0  0  0  0  0  0  0  0  0
  142.1850   81.2140  223.3620 C   0  0  0  0  0  0  0  0  0  0  0  0
  140.7470   80.9380  223.8170 C   0  0  0  0  0  0  0  0  0  0  0  0
  140.3070   79.9370  222.7450 C   0  0  0  0  0  0  0  0  0  0  0  0
  141.7970   77.6260  220.4810 C   0  0  0  0  0  0  0  0  0  0  0  0
  141.9530   76.1160  220.4520 C   0  0  0  0  0  0  0  0  0  0  0  0
  139.7640   72.5080  222.2190 C   0  0  0  0  0  0  0  0  0  0  0  0
  139.8010   71.3700  224.9740 N   0  0  0  0  0  0  0  0  0  0  0  0
  140.2240   70.6970  226.1280 C   0  0  0  0  0  0  0  0  0  0  0  0
  140.8360   71.2950  227.2080 C   0  0  0  0  0  0  0  0  0  0  0  0
  141.2410   70.6010  228.3310 C   0  0  0  0  0  0  0  0  0  0  0  0
  141.0280   69.2280  228.3900 C   0  0  0  0  0  0  0  0  0  0  0  0
  140.4100   68.5950  227.3110 C   0  0  0  0  0  0  0  0  0  0  0  0
  140.0180   69.3350  226.1960 C   0  0  0  0  0  0  0  0  0  0  0  0
  139.4387   68.9646  222.9669 H   0  0  0  0  0  0  0  0  0  0  0  0
  137.8363   69.2422  223.7143 H   0  0  0  0  0  0  0  0  0  0  0  0
  136.8144   71.0421  222.8585 H   0  0  0  0  0  0  0  0  0  0  0  0
  136.1426   72.5100  220.9421 H   0  0  0  0  0  0  0  0  0  0  0  0
  137.8475   73.9613  219.8807 H   0  0  0  0  0  0  0  0  0  0  0  0
  139.2633   75.3706  222.4173 H   0  0  0  0  0  0  0  0  0  0  0  0
  140.8497   75.5442  223.2229 H   0  0  0  0  0  0  0  0  0  0  0  0
  139.3401   77.6146  221.5563 H   0  0  0  0  0  0  0  0  0  0  0  0
  139.8131   77.7143  223.2898 H   0  0  0  0  0  0  0  0  0  0  0  0
  142.2298   77.5418  222.5130 H   0  0  0  0  0  0  0  0  0  0  0  0
  142.7438   79.1689  223.9285 H   0  0  0  0  0  0  0  0  0  0  0  0
  143.5869   79.7052  222.5084 H   0  0  0  0  0  0  0  0  0  0  0  0
  142.7954   81.6472  224.1680 H   0  0  0  0  0  0  0  0  0  0  0  0
  142.2880   81.9425  222.5442 H   0  0  0  0  0  0  0  0  0  0  0  0
  140.7167   80.4956  224.8237 H   0  0  0  0  0  0  0  0  0  0  0  0
  140.1113   81.8318  223.9004 H   0  0  0  0  0  0  0  0  0  0  0  0
  139.6527   79.1694  223.1840 H   0  0  0  0  0  0  0  0  0  0  0  0
  139.7383   80.4294  221.9424 H   0  0  0  0  0  0  0  0  0  0  0  0
  141.0014   77.9409  219.7897 H   0  0  0  0  0  0  0  0  0  0  0  0
  142.7222   78.1316  220.1674 H   0  0  0  0  0  0  0  0  0  0  0  0
  141.9616   75.7893  219.4017 H   0  0  0  0  0  0  0  0  0  0  0  0
  142.8917   75.8831  220.9759 H   0  0  0  0  0  0  0  0  0  0  0  0
  140.8022   72.5113  222.5825 H   0  0  0  0  0  0  0  0  0  0  0  0
  141.0109   72.3805  227.1739 H   0  0  0  0  0  0  0  0  0  0  0  0
  141.7253   71.1268  229.1671 H   0  0  0  0  0  0  0  0  0  0  0  0
  141.3414   68.6508  229.2724 H   0  0  0  0  0  0  0  0  0  0  0  0
  140.2316   67.5099  227.3400 H   0  0  0  0  0  0  0  0  0  0  0  0
  1  2  2  0
  2  3  1  0
  3  4  1  0
  4  5  1  0
  5  6  2  0
  6  7  1  0
  7  8  2  0
  8  9  1  0
  9 10  1  0
 10 11  2  0
 10 12  1  0
 12 13  1  0
 13 14  1  0
 14 15  1  0
 15 16  1  0
 16 17  1  0
 17 18  1  0
 18 19  1  0
 19 20  1  0
 15 21  1  0
 21 22  1  0
  9 23  2  0
  4 24  2  0
 24 25  1  0
 25 26  2  0
 26 27  1  0
 27 28  2  0
 28 29  1  0
 29 30  2  0
 30  2  1  0
 23  5  1  0
 30 25  1  0
 22 12  1  0
 20 16  1  0
  3 31  1  0
  3 32  1  0
  6 33  1  0
  7 34  1  0
  8 35  1  0
 13 36  1  0
 13 37  1  0
 14 38  1  0
 14 39  1  0
 15 40  1  0
 17 41  1  0
 17 42  1  0
 18 43  1  0
 18 44  1  0
 19 45  1  0
 19 46  1  0
 20 47  1  0
 20 48  1  0
 21 49  1  0
 21 50  1  0
 22 51  1  0
 22 52  1  0
 23 53  1  0
 26 54  1  0
 27 55  1  0
 28 56  1  0
 29 57  1  0
M  END
>  <smiles>  (20) 
O=C1CC(c2cccc(C(=O)N3CCC(N4CCCC4)CC3)c2)=Nc2ccccc21

>  <score_type>  (20) 
oracle

>  <origin>  (20) 
autodockgpu

>  <m_score__min__energy>  (20) 
-9.6099999999999994

>  <m_primary>  (20) 
energy

>  <rmsd>  (20) 
6.735517985492568

>  <m_score__min__rmsd>  (20) 
6.735517985492568

>  <meeko>  (20) 
{"free_energy": -9.44, "intermolecular_energy": -10.34, "internal_energy": -1.01, "cluster_size": 50, "cluster_id": 1, "rank_in_cluster": 50}

>  <energy>  (20) 
-9.59

>  <cluster_rmsd>  (20) 
0.09

>  <cluster>  (20) 
1

$$$$

     RDKit          3D

 57 61  0  0  0  0  0  0  0  0999 V2000
  139.1800   67.6780  225.0300 O   0  0  0  0  0  0  0  0  0  0  0  0
  139.5390   68.8740  224.8900 C   0  0  0  0  0  0  0  0  0  0  0  0
  139.3960   69.4980  223.5550 C   0  0  0  0  0  0  0  0  0  0  0  0
  139.8800   70.8940  223.6330 C   0  0  0  0  0  0  0  0  0  0  0  0
  139.8310   71.6850  222.3910 C   0  0  0  0  0  0  0  0  0  0  0  0
  140.4230   71.1890  221.2380 C   0  0  0  0  0  0  0  0  0  0  0  0
  140.3880   71.9150  220.0410 C   0  0  0  0  0  0  0  0  0  0  0  0
  139.7490   73.1400  220.0330 C   0  0  0  0  0  0  0  0  0  0  0  0
  139.1520   73.6630  221.1590 C   0  0  0  0  0  0  0  0  0  0  0  0
  138.4670   74.9440  221.1970 C   0  0  0  0  0  0  0  0  0  0  0  0
  137.2070   74.8980  220.9800 O   0  0  0  0  0  0  0  0  0  0  0  0
  139.1230   76.1850  221.4520 N   0  0  0  0  0  0  0  0  0  0  0  0
  140.5450   76.1370  221.6840 C   0  0  0  0  0  0  0  0  0  0  0  0
  140.8900   77.1740  222.7340 C   0  0  0  0  0  0  0  0  0  0  0  0
  140.2410   78.4990  222.3860 C   0  0  0  0  0  0  0  0  0  0  0  0
  140.8430   79.5900  223.0350 N   0  0  0  0  0  0  0  0  0  0  0  0
  141.0180   80.7980  222.3030 C   0  0  0  0  0  0  0  0  0  0  0  0
  141.8960   81.6000  223.2770 C   0  0  0  0  0  0  0  0  0  0  0  0
  142.9350   80.5240  223.6160 C   0  0  0  0  0  0  0  0  0  0  0  0
  142.0220   79.3060  223.7880 C   0  0  0  0  0  0  0  0  0  0  0  0
  138.7370   78.4050  222.4770 C   0  0  0  0  0  0  0  0  0  0  0  0
  138.3160   77.3690  221.4500 C   0  0  0  0  0  0  0  0  0  0  0  0
  139.2170   72.9030  222.3120 C   0  0  0  0  0  0  0  0  0  0  0  0
  140.3400   71.4680  224.6710 N   0  0  0  0  0  0  0  0  0  0  0  0
  140.4670   70.8640  225.9310 C   0  0  0  0  0  0  0  0  0  0  0  0
  140.9660   71.4870  227.0540 C   0  0  0  0  0  0  0  0  0  0  0  0
  141.0770   70.8620  228.2800 C   0  0  0  0  0  0  0  0  0  0  0  0
  140.6700   69.5370  228.4040 C   0  0  0  0  0  0  0  0  0  0  0  0
  140.1610   68.8820  227.2820 C   0  0  0  0  0  0  0  0  0  0  0  0
  140.0670   69.5520  226.0630 C   0  0  0  0  0  0  0  0  0  0  0  0
  139.9926   68.9394  222.8188 H   0  0  0  0  0  0  0  0  0  0  0  0
  138.3411   69.4825  223.2436 H   0  0  0  0  0  0  0  0  0  0  0  0
  140.9270   70.2116  221.2647 H   0  0  0  0  0  0  0  0  0  0  0  0
  140.8582   71.5193  219.1286 H   0  0  0  0  0  0  0  0  0  0  0  0
  139.7159   73.7166  219.0968 H   0  0  0  0  0  0  0  0  0  0  0  0
  140.8302   75.1365  222.0413 H   0  0  0  0  0  0  0  0  0  0  0  0
  141.0890   76.3461  220.7511 H   0  0  0  0  0  0  0  0  0  0  0  0
  140.5241   76.8354  223.7146 H   0  0  0  0  0  0  0  0  0  0  0  0
  141.9817   77.3043  222.7682 H   0  0  0  0  0  0  0  0  0  0  0  0
  140.4376   78.7240  221.3274 H   0  0  0  0  0  0  0  0  0  0  0  0
  141.5318   80.6210  221.3466 H   0  0  0  0  0  0  0  0  0  0  0  0
  140.0805   81.2977  222.0177 H   0  0  0  0  0  0  0  0  0  0  0  0
  142.3534   82.4755  222.7930 H   0  0  0  0  0  0  0  0  0  0  0  0
  141.3678   82.0324  224.1396 H   0  0  0  0  0  0  0  0  0  0  0  0
  143.6546   80.3807  222.7965 H   0  0  0  0  0  0  0  0  0  0  0  0
  143.5668   80.7524  224.4870 H   0  0  0  0  0  0  0  0  0  0  0  0
  142.5142   78.4015  223.4012 H   0  0  0  0  0  0  0  0  0  0  0  0
  141.7896   79.1225  224.8474 H   0  0  0  0  0  0  0  0  0  0  0  0
  138.4349   78.0870  223.4858 H   0  0  0  0  0  0  0  0  0  0  0  0
  138.2615   79.3780  222.2840 H   0  0  0  0  0  0  0  0  0  0  0  0
  137.2755   77.0788  221.6579 H   0  0  0  0  0  0  0  0  0  0  0  0
  138.4363   77.8345  220.4606 H   0  0  0  0  0  0  0  0  0  0  0  0
  138.7455   73.3034  223.2216 H   0  0  0  0  0  0  0  0  0  0  0  0
  141.2921   72.5342  226.9696 H   0  0  0  0  0  0  0  0  0  0  0  0
  141.4818   71.4042  229.1473 H   0  0  0  0  0  0  0  0  0  0  0  0
  140.7482   69.0154  229.3693 H   0  0  0  0  0  0  0  0  0  0  0  0
  139.8332   67.8348  227.3594 H   0  0  0  0  0  0  0  0  0  0  0  0
  1  2  2  0
  2  3  1  0
  3  4  1  0
  4  5  1  0
  5  6  2  0
  6  7  1  0
  7  8  2  0
  8  9  1  0
  9 10  1  0
 10 11  2  0
 10 12  1  0
 12 13  1  0
 13 14  1  0
 14 15  1  0
 15 16  1  0
 16 17  1  0
 17 18  1  0
 18 19  1  0
 19 20  1  0
 15 21  1  0
 21 22  1  0
  9 23  2  0
  4 24  2  0
 24 25  1  0
 25 26  2  0
 26 27  1  0
 27 28  2  0
 28 29  1  0
 29 30  2  0
 30  2  1  0
 23  5  1  0
 30 25  1  0
 22 12  1  0
 20 16  1  0
  3 31  1  0
  3 32  1  0
  6 33  1  0
  7 34  1  0
  8 35  1  0
 13 36  1  0
 13 37  1  0
 14 38  1  0
 14 39  1  0
 15 40  1  0
 17 41  1  0
 17 42  1  0
 18 43  1  0
 18 44  1  0
 19 45  1  0
 19 46  1  0
 20 47  1  0
 20 48  1  0
 21 49  1  0
 21 50  1  0
 22 51  1  0
 22 52  1  0
 23 53  1  0
 26 54  1  0
 27 55  1  0
 28 56  1  0
 29 57  1  0
M  END
>  <smiles>  (21) 
O=C1CC(c2cccc(C(=O)N3CCC(N4CCCC4)CC3)c2)=Nc2ccccc21

>  <score_type>  (21) 
oracle

>  <origin>  (21) 
autodockgpu

>  <m_score__min__energy>  (21) 
-9.6099999999999994

>  <m_primary>  (21) 
energy

>  <rmsd>  (21) 
7.119107134046747

>  <m_score__min__rmsd>  (21) 
7.119107134046747

>  <meeko>  (21) 
{"free_energy": -9.58, "intermolecular_energy": -10.47, "internal_energy": -1.02, "cluster_size": 50, "cluster_id": 1, "rank_in_cluster": 39}

>  <energy>  (21) 
-9.59

>  <cluster_rmsd>  (21) 
1.35

>  <cluster>  (21) 
1

$$$$

     RDKit          3D

 57 61  0  0  0  0  0  0  0  0999 V2000
  139.1980   67.7140  225.0320 O   0  0  0  0  0  0  0  0  0  0  0  0
  139.5500   68.9120  224.8930 C   0  0  0  0  0  0  0  0  0  0  0  0
  139.3950   69.5380  223.5600 C   0  0  0  0  0  0  0  0  0  0  0  0
  139.8730   70.9360  223.6380 C   0  0  0  0  0  0  0  0  0  0  0  0
  139.8110   71.7290  222.3970 C   0  0  0  0  0  0  0  0  0  0  0  0
  140.3950   71.2370  221.2390 C   0  0  0  0  0  0  0  0  0  0  0  0
  140.3490   71.9650  220.0430 C   0  0  0  0  0  0  0  0  0  0  0  0
  139.7050   73.1880  220.0420 C   0  0  0  0  0  0  0  0  0  0  0  0
  139.1140   73.7060  221.1740 C   0  0  0  0  0  0  0  0  0  0  0  0
  138.4250   74.9850  221.2200 C   0  0  0  0  0  0  0  0  0  0  0  0
  137.1620   74.9330  221.0210 O   0  0  0  0  0  0  0  0  0  0  0  0
  139.0790   76.2290  221.4620 N   0  0  0  0  0  0  0  0  0  0  0  0
  140.5050   76.1870  221.6740 C   0  0  0  0  0  0  0  0  0  0  0  0
  140.8620   77.2270  222.7160 C   0  0  0  0  0  0  0  0  0  0  0  0
  140.2020   78.5490  222.3750 C   0  0  0  0  0  0  0  0  0  0  0  0
  140.8090   79.6440  223.0120 N   0  0  0  0  0  0  0  0  0  0  0  0
  141.0490   80.8220  222.2510 C   0  0  0  0  0  0  0  0  0  0  0  0
  141.9100   81.6310  223.2330 C   0  0  0  0  0  0  0  0  0  0  0  0
  142.9020   80.5380  223.6490 C   0  0  0  0  0  0  0  0  0  0  0  0
  141.9480   79.3520  223.8220 C   0  0  0  0  0  0  0  0  0  0  0  0
  138.7000   78.4490  222.4880 C   0  0  0  0  0  0  0  0  0  0  0  0
  138.2680   77.4100  221.4700 C   0  0  0  0  0  0  0  0  0  0  0  0
  139.1920   72.9440  222.3250 C   0  0  0  0  0  0  0  0  0  0  0  0
  140.3360   71.5100  224.6730 N   0  0  0  0  0  0  0  0  0  0  0  0
  140.4760   70.9050  225.9310 C   0  0  0  0  0  0  0  0  0  0  0  0
  140.9790   71.5280  227.0520 C   0  0  0  0  0  0  0  0  0  0  0  0
  141.1020   70.9010  228.2760 C   0  0  0  0  0  0  0  0  0  0  0  0
  140.7030   69.5740  228.4000 C   0  0  0  0  0  0  0  0  0  0  0  0
  140.1880   68.9180  227.2800 C   0  0  0  0  0  0  0  0  0  0  0  0
  140.0830   69.5900  226.0630 C   0  0  0  0  0  0  0  0  0  0  0  0
  139.9893   68.9837  222.8187 H   0  0  0  0  0  0  0  0  0  0  0  0
  138.3382   69.5181  223.2554 H   0  0  0  0  0  0  0  0  0  0  0  0
  140.9017   70.2609  221.2601 H   0  0  0  0  0  0  0  0  0  0  0  0
  140.8142   71.5727  219.1267 H   0  0  0  0  0  0  0  0  0  0  0  0
  139.6629   73.7665  219.1074 H   0  0  0  0  0  0  0  0  0  0  0  0
  140.7989   75.1883  222.0293 H   0  0  0  0  0  0  0  0  0  0  0  0
  141.0343   76.3964  220.7328 H   0  0  0  0  0  0  0  0  0  0  0  0
  140.5127   76.8891  223.7028 H   0  0  0  0  0  0  0  0  0  0  0  0
  141.9536   77.3617  222.7333 H   0  0  0  0  0  0  0  0  0  0  0  0
  140.3819   78.7725  221.3131 H   0  0  0  0  0  0  0  0  0  0  0  0
  141.5953   80.5995  221.3225 H   0  0  0  0  0  0  0  0  0  0  0  0
  140.1384   81.3382  221.9128 H   0  0  0  0  0  0  0  0  0  0  0  0
  142.4122   82.4764  222.7399 H   0  0  0  0  0  0  0  0  0  0  0  0
  141.3608   82.1072  224.0586 H   0  0  0  0  0  0  0  0  0  0  0  0
  143.6497   80.3476  222.8650 H   0  0  0  0  0  0  0  0  0  0  0  0
  143.5040   80.7775  224.5380 H   0  0  0  0  0  0  0  0  0  0  0  0
  142.4289   78.4219  223.4848 H   0  0  0  0  0  0  0  0  0  0  0  0
  141.6679   79.2097  224.8762 H   0  0  0  0  0  0  0  0  0  0  0  0
  138.4140   78.1318  223.5017 H   0  0  0  0  0  0  0  0  0  0  0  0
  138.2180   79.4197  222.2998 H   0  0  0  0  0  0  0  0  0  0  0  0
  137.2318   77.1164  221.6939 H   0  0  0  0  0  0  0  0  0  0  0  0
  138.3722   77.8741  220.4781 H   0  0  0  0  0  0  0  0  0  0  0  0
  138.7267   73.3410  223.2392 H   0  0  0  0  0  0  0  0  0  0  0  0
  141.2986   72.5772  226.9678 H   0  0  0  0  0  0  0  0  0  0  0  0
  141.5100   71.4435  229.1416 H   0  0  0  0  0  0  0  0  0  0  0  0
  140.7917   69.0507  229.3635 H   0  0  0  0  0  0  0  0  0  0  0  0
  139.8647   67.8695  227.3581 H   0  0  0  0  0  0  0  0  0  0  0  0
  1  2  2  0
  2  3  1  0
  3  4  1  0
  4  5  1  0
  5  6  2  0
  6  7  1  0
  7  8  2  0
  8  9  1  0
  9 10  1  0
 10 11  2  0
 10 12  1  0
 12 13  1  0
 13 14  1  0
 14 15  1  0
 15 16  1  0
 16 17  1  0
 17 18  1  0
 18 19  1  0
 19 20  1  0
 15 21  1  0
 21 22  1  0
  9 23  2  0
  4 24  2  0
 24 25  1  0
 25 26  2  0
 26 27  1  0
 27 28  2  0
 28 29  1  0
 29 30  2  0
 30  2  1  0
 23  5  1  0
 30 25  1  0
 22 12  1  0
 20 16  1  0
  3 31  1  0
  3 32  1  0
  6 33  1  0
  7 34  1  0
  8 35  1  0
 13 36  1  0
 13 37  1  0
 14 38  1  0
 14 39  1  0
 15 40  1  0
 17 41  1  0
 17 42  1  0
 18 43  1  0
 18 44  1  0
 19 45  1  0
 19 46  1  0
 20 47  1  0
 20 48  1  0
 21 49  1  0
 21 50  1  0
 22 51  1  0
 22 52  1  0
 23 53  1  0
 26 54  1  0
 27 55  1  0
 28 56  1  0
 29 57  1  0
M  END
>  <smiles>  (22) 
O=C1CC(c2cccc(C(=O)N3CCC(N4CCCC4)CC3)c2)=Nc2ccccc21

>  <score_type>  (22) 
oracle

>  <origin>  (22) 
autodockgpu

>  <m_score__min__energy>  (22) 
-9.6099999999999994

>  <m_primary>  (22) 
energy

>  <rmsd>  (22) 
7.101467927229923

>  <m_score__min__rmsd>  (22) 
7.101467927229923

>  <meeko>  (22) 
{"free_energy": -9.59, "intermolecular_energy": -10.48, "internal_energy": -1.02, "cluster_size": 50, "cluster_id": 1, "rank_in_cluster": 25}

>  <energy>  (22) 
-9.59

>  <cluster_rmsd>  (22) 
0.11

>  <cluster>  (22) 
1

$$$$

     RDKit          3D

 57 61  0  0  0  0  0  0  0  0999 V2000
  139.1970   67.6210  224.9650 O   0  0  0  0  0  0  0  0  0  0  0  0
  139.5630   68.8180  224.8530 C   0  0  0  0  0  0  0  0  0  0  0  0
  139.4240   69.4740  223.5330 C   0  0  0  0  0  0  0  0  0  0  0  0
  139.9160   70.8650  223.6440 C   0  0  0  0  0  0  0  0  0  0  0  0
  139.8710   71.6850  222.4200 C   0  0  0  0  0  0  0  0  0  0  0  0
  140.4950   71.2300  221.2670 C   0  0  0  0  0  0  0  0  0  0  0  0
  140.4650   71.9840  220.0870 C   0  0  0  0  0  0  0  0  0  0  0  0
  139.7990   73.1950  220.0960 C   0  0  0  0  0  0  0  0  0  0  0  0
  139.1700   73.6770  221.2240 C   0  0  0  0  0  0  0  0  0  0  0  0
  138.4560   74.9420  221.2800 C   0  0  0  0  0  0  0  0  0  0  0  0
  137.1910   74.8630  221.1080 O   0  0  0  0  0  0  0  0  0  0  0  0
  139.0900   76.1990  221.5050 N   0  0  0  0  0  0  0  0  0  0  0  0
  140.5200   76.1860  221.6880 C   0  0  0  0  0  0  0  0  0  0  0  0
  140.8770   77.2370  222.7200 C   0  0  0  0  0  0  0  0  0  0  0  0
  140.1840   78.5440  222.3880 C   0  0  0  0  0  0  0  0  0  0  0  0
  140.7810   79.6540  223.0100 N   0  0  0  0  0  0  0  0  0  0  0  0
  141.0900   80.7900  222.2120 C   0  0  0  0  0  0  0  0  0  0  0  0
  141.9160   81.6240  223.2050 C   0  0  0  0  0  0  0  0  0  0  0  0
  142.8580   80.5290  223.7210 C   0  0  0  0  0  0  0  0  0  0  0  0
  141.8680   79.3740  223.8930 C   0  0  0  0  0  0  0  0  0  0  0  0
  138.6860   78.4140  222.5330 C   0  0  0  0  0  0  0  0  0  0  0  0
  138.2540   77.3630  221.5270 C   0  0  0  0  0  0  0  0  0  0  0  0
  139.2320   72.8900  222.3590 C   0  0  0  0  0  0  0  0  0  0  0  0
  140.3790   71.4120  224.6940 N   0  0  0  0  0  0  0  0  0  0  0  0
  140.5030   70.7780  225.9390 C   0  0  0  0  0  0  0  0  0  0  0  0
  141.0050   71.3720  227.0770 C   0  0  0  0  0  0  0  0  0  0  0  0
  141.1130   70.7180  228.2880 C   0  0  0  0  0  0  0  0  0  0  0  0
  140.6990   69.3930  228.3810 C   0  0  0  0  0  0  0  0  0  0  0  0
  140.1850   68.7670  227.2450 C   0  0  0  0  0  0  0  0  0  0  0  0
  140.0950   69.4650  226.0410 C   0  0  0  0  0  0  0  0  0  0  0  0
  140.0177   68.9294  222.7840 H   0  0  0  0  0  0  0  0  0  0  0  0
  138.3691   69.4719  223.2211 H   0  0  0  0  0  0  0  0  0  0  0  0
  141.0205   70.2637  221.2800 H   0  0  0  0  0  0  0  0  0  0  0  0
  140.9600   71.6208  219.1743 H   0  0  0  0  0  0  0  0  0  0  0  0
  139.7699   73.7934  219.1735 H   0  0  0  0  0  0  0  0  0  0  0  0
  140.8410   75.1946  222.0403 H   0  0  0  0  0  0  0  0  0  0  0  0
  141.0261   76.4026  220.7356 H   0  0  0  0  0  0  0  0  0  0  0  0
  140.5543   76.8957  223.7147 H   0  0  0  0  0  0  0  0  0  0  0  0
  141.9658   77.3935  222.7152 H   0  0  0  0  0  0  0  0  0  0  0  0
  140.3386   78.7668  221.3220 H   0  0  0  0  0  0  0  0  0  0  0  0
  141.6806   80.5138  221.3260 H   0  0  0  0  0  0  0  0  0  0  0  0
  140.2122   81.3098  221.8007 H   0  0  0  0  0  0  0  0  0  0  0  0
  142.4639   82.4360  222.7045 H   0  0  0  0  0  0  0  0  0  0  0  0
  141.3346   82.1479  223.9780 H   0  0  0  0  0  0  0  0  0  0  0  0
  143.6415   80.2875  222.9876 H   0  0  0  0  0  0  0  0  0  0  0  0
  143.4178   80.7944  224.6299 H   0  0  0  0  0  0  0  0  0  0  0  0
  142.3435   78.4194  223.6235 H   0  0  0  0  0  0  0  0  0  0  0  0
  141.5284   79.2857  224.9355 H   0  0  0  0  0  0  0  0  0  0  0  0
  138.4278   78.0944  223.5534 H   0  0  0  0  0  0  0  0  0  0  0  0
  138.1805   79.3741  222.3524 H   0  0  0  0  0  0  0  0  0  0  0  0
  137.2293   77.0483  221.7739 H   0  0  0  0  0  0  0  0  0  0  0  0
  138.3266   77.8260  220.5318 H   0  0  0  0  0  0  0  0  0  0  0  0
  138.7357   73.2575  223.2693 H   0  0  0  0  0  0  0  0  0  0  0  0
  141.3361   72.4193  227.0173 H   0  0  0  0  0  0  0  0  0  0  0  0
  141.5209   71.2375  229.1676 H   0  0  0  0  0  0  0  0  0  0  0  0
  140.7756   68.8484  229.3336 H   0  0  0  0  0  0  0  0  0  0  0  0
  139.8500   67.7206  227.2991 H   0  0  0  0  0  0  0  0  0  0  0  0
  1  2  2  0
  2  3  1  0
  3  4  1  0
  4  5  1  0
  5  6  2  0
  6  7  1  0
  7  8  2  0
  8  9  1  0
  9 10  1  0
 10 11  2  0
 10 12  1  0
 12 13  1  0
 13 14  1  0
 14 15  1  0
 15 16  1  0
 16 17  1  0
 17 18  1  0
 18 19  1  0
 19 20  1  0
 15 21  1  0
 21 22  1  0
  9 23  2  0
  4 24  2  0
 24 25  1  0
 25 26  2  0
 26 27  1  0
 27 28  2  0
 28 29  1  0
 29 30  2  0
 30  2  1  0
 23  5  1  0
 30 25  1  0
 22 12  1  0
 20 16  1  0
  3 31  1  0
  3 32  1  0
  6 33  1  0
  7 34  1  0
  8 35  1  0
 13 36  1  0
 13 37  1  0
 14 38  1  0
 14 39  1  0
 15 40  1  0
 17 41  1  0
 17 42  1  0
 18 43  1  0
 18 44  1  0
 19 45  1  0
 19 46  1  0
 20 47  1  0
 20 48  1  0
 21 49  1  0
 21 50  1  0
 22 51  1  0
 22 52  1  0
 23 53  1  0
 26 54  1  0
 27 55  1  0
 28 56  1  0
 29 57  1  0
M  END
>  <smiles>  (23) 
O=C1CC(c2cccc(C(=O)N3CCC(N4CCCC4)CC3)c2)=Nc2ccccc21

>  <score_type>  (23) 
oracle

>  <origin>  (23) 
autodockgpu

>  <m_score__min__energy>  (23) 
-9.6099999999999994

>  <m_primary>  (23) 
energy

>  <rmsd>  (23) 
7.117848560615718

>  <m_score__min__rmsd>  (23) 
7.117848560615718

>  <meeko>  (23) 
{"free_energy": -9.59, "intermolecular_energy": -10.49, "internal_energy": -1.01, "cluster_size": 50, "cluster_id": 1, "rank_in_cluster": 16}

>  <energy>  (23) 
-9.59

>  <cluster_rmsd>  (23) 
0.09

>  <cluster>  (23) 
1

$$$$

     RDKit          3D

 57 61  0  0  0  0  0  0  0  0999 V2000
  139.1580   67.6240  225.0150 O   0  0  0  0  0  0  0  0  0  0  0  0
  139.5310   68.8170  224.8960 C   0  0  0  0  0  0  0  0  0  0  0  0
  139.4080   69.4620  223.5680 C   0  0  0  0  0  0  0  0  0  0  0  0
  139.9070   70.8510  223.6700 C   0  0  0  0  0  0  0  0  0  0  0  0
  139.8780   71.6600  222.4390 C   0  0  0  0  0  0  0  0  0  0  0  0
  140.5140   71.1940  221.2980 C   0  0  0  0  0  0  0  0  0  0  0  0
  140.5000   71.9380  220.1100 C   0  0  0  0  0  0  0  0  0  0  0  0
  139.8340   73.1490  220.1010 C   0  0  0  0  0  0  0  0  0  0  0  0
  139.1920   73.6410  221.2170 C   0  0  0  0  0  0  0  0  0  0  0  0
  138.4780   74.9070  221.2530 C   0  0  0  0  0  0  0  0  0  0  0  0
  137.2170   74.8290  221.0580 O   0  0  0  0  0  0  0  0  0  0  0  0
  139.1090   76.1650  221.4840 N   0  0  0  0  0  0  0  0  0  0  0  0
  140.5360   76.1520  221.6920 C   0  0  0  0  0  0  0  0  0  0  0  0
  140.8750   77.2080  222.7250 C   0  0  0  0  0  0  0  0  0  0  0  0
  140.1900   78.5140  222.3740 C   0  0  0  0  0  0  0  0  0  0  0  0
  140.7770   79.6260  223.0020 N   0  0  0  0  0  0  0  0  0  0  0  0
  141.0100   80.7950  222.2250 C   0  0  0  0  0  0  0  0  0  0  0  0
  141.8510   81.6290  223.2040 C   0  0  0  0  0  0  0  0  0  0  0  0
  142.8520   80.5540  223.6450 C   0  0  0  0  0  0  0  0  0  0  0  0
  141.9110   79.3600  223.8270 C   0  0  0  0  0  0  0  0  0  0  0  0
  138.6890   78.3860  222.4920 C   0  0  0  0  0  0  0  0  0  0  0  0
  138.2750   77.3300  221.4830 C   0  0  0  0  0  0  0  0  0  0  0  0
  139.2400   72.8650  222.3600 C   0  0  0  0  0  0  0  0  0  0  0  0
  140.3640   71.4050  224.7200 N   0  0  0  0  0  0  0  0  0  0  0  0
  140.4740   70.7820  225.9720 C   0  0  0  0  0  0  0  0  0  0  0  0
  140.9690   71.3830  227.1080 C   0  0  0  0  0  0  0  0  0  0  0  0
  141.0630   70.7390  228.3260 C   0  0  0  0  0  0  0  0  0  0  0  0
  140.6400   69.4180  228.4280 C   0  0  0  0  0  0  0  0  0  0  0  0
  140.1330   68.7850  227.2920 C   0  0  0  0  0  0  0  0  0  0  0  0
  140.0570   69.4720  226.0820 C   0  0  0  0  0  0  0  0  0  0  0  0
  140.0053   68.9069  222.8297 H   0  0  0  0  0  0  0  0  0  0  0  0
  138.3560   69.4632  223.2468 H   0  0  0  0  0  0  0  0  0  0  0  0
  141.0370   70.2267  221.3257 H   0  0  0  0  0  0  0  0  0  0  0  0
  141.0068   71.5670  219.2069 H   0  0  0  0  0  0  0  0  0  0  0  0
  139.8157   73.7394  219.1730 H   0  0  0  0  0  0  0  0  0  0  0  0
  140.8502   75.1622  222.0547 H   0  0  0  0  0  0  0  0  0  0  0  0
  141.0590   76.3634  220.7477 H   0  0  0  0  0  0  0  0  0  0  0  0
  140.5336   76.8720  223.7152 H   0  0  0  0  0  0  0  0  0  0  0  0
  141.9639   77.3633  222.7393 H   0  0  0  0  0  0  0  0  0  0  0  0
  140.3642   78.7321  221.3100 H   0  0  0  0  0  0  0  0  0  0  0  0
  141.5685   80.5653  221.3056 H   0  0  0  0  0  0  0  0  0  0  0  0
  140.0969   81.2946  221.8691 H   0  0  0  0  0  0  0  0  0  0  0  0
  142.3477   82.4735  222.7039 H   0  0  0  0  0  0  0  0  0  0  0  0
  141.2878   82.1103  224.0172 H   0  0  0  0  0  0  0  0  0  0  0  0
  143.6090   80.3609  222.8706 H   0  0  0  0  0  0  0  0  0  0  0  0
  143.4430   80.8137  224.5357 H   0  0  0  0  0  0  0  0  0  0  0  0
  142.4061   78.4307  223.5087 H   0  0  0  0  0  0  0  0  0  0  0  0
  141.6223   79.2303  224.8805 H   0  0  0  0  0  0  0  0  0  0  0  0
  138.4116   78.0716  223.5090 H   0  0  0  0  0  0  0  0  0  0  0  0
  138.1877   79.3456  222.2975 H   0  0  0  0  0  0  0  0  0  0  0  0
  137.2450   77.0184  221.7112 H   0  0  0  0  0  0  0  0  0  0  0  0
  138.3680   77.7874  220.4870 H   0  0  0  0  0  0  0  0  0  0  0  0
  138.7333   73.2410  223.2610 H   0  0  0  0  0  0  0  0  0  0  0  0
  141.3062   72.4279  227.0419 H   0  0  0  0  0  0  0  0  0  0  0  0
  141.4672   71.2640  229.2041 H   0  0  0  0  0  0  0  0  0  0  0  0
  140.7038   68.8819  229.3864 H   0  0  0  0  0  0  0  0  0  0  0  0
  139.7924   67.7408  227.3521 H   0  0  0  0  0  0  0  0  0  0  0  0
  1  2  2  0
  2  3  1  0
  3  4  1  0
  4  5  1  0
  5  6  2  0
  6  7  1  0
  7  8  2  0
  8  9  1  0
  9 10  1  0
 10 11  2  0
 10 12  1  0
 12 13  1  0
 13 14  1  0
 14 15  1  0
 15 16  1  0
 16 17  1  0
 17 18  1  0
 18 19  1  0
 19 20  1  0
 15 21  1  0
 21 22  1  0
  9 23  2  0
  4 24  2  0
 24 25  1  0
 25 26  2  0
 26 27  1  0
 27 28  2  0
 28 29  1  0
 29 30  2  0
 30  2  1  0
 23  5  1  0
 30 25  1  0
 22 12  1  0
 20 16  1  0
  3 31  1  0
  3 32  1  0
  6 33  1  0
  7 34  1  0
  8 35  1  0
 13 36  1  0
 13 37  1  0
 14 38  1  0
 14 39  1  0
 15 40  1  0
 17 41  1  0
 17 42  1  0
 18 43  1  0
 18 44  1  0
 19 45  1  0
 19 46  1  0
 20 47  1  0
 20 48  1  0
 21 49  1  0
 21 50  1  0
 22 51  1  0
 22 52  1  0
 23 53  1  0
 26 54  1  0
 27 55  1  0
 28 56  1  0
 29 57  1  0
M  END
>  <smiles>  (24) 
O=C1CC(c2cccc(C(=O)N3CCC(N4CCCC4)CC3)c2)=Nc2ccccc21

>  <score_type>  (24) 
oracle

>  <origin>  (24) 
autodockgpu

>  <m_score__min__energy>  (24) 
-9.6099999999999994

>  <m_primary>  (24) 
energy

>  <rmsd>  (24) 
7.1286114411560595

>  <m_score__min__rmsd>  (24) 
7.1286114411560595

>  <meeko>  (24) 
{"free_energy": -9.59, "intermolecular_energy": -10.49, "internal_energy": -1.01, "cluster_size": 50, "cluster_id": 1, "rank_in_cluster": 11}

>  <energy>  (24) 
-9.59

>  <cluster_rmsd>  (24) 
0.15

>  <cluster>  (24) 
1

$$$$

     RDKit          3D

 57 61  0  0  0  0  0  0  0  0999 V2000
  139.1850   67.6230  224.9970 O   0  0  0  0  0  0  0  0  0  0  0  0
  139.5510   68.8180  224.8760 C   0  0  0  0  0  0  0  0  0  0  0  0
  139.4120   69.4640  223.5510 C   0  0  0  0  0  0  0  0  0  0  0  0
  139.9050   70.8550  223.6500 C   0  0  0  0  0  0  0  0  0  0  0  0
  139.8600   71.6650  222.4200 C   0  0  0  0  0  0  0  0  0  0  0  0
  140.4790   71.1990  221.2690 C   0  0  0  0  0  0  0  0  0  0  0  0
  140.4490   71.9430  220.0830 C   0  0  0  0  0  0  0  0  0  0  0  0
  139.7870   73.1570  220.0840 C   0  0  0  0  0  0  0  0  0  0  0  0
  139.1630   73.6500  221.2090 C   0  0  0  0  0  0  0  0  0  0  0  0
  138.4530   74.9180  221.2570 C   0  0  0  0  0  0  0  0  0  0  0  0
  137.1890   74.8440  221.0740 O   0  0  0  0  0  0  0  0  0  0  0  0
  139.0900   76.1730  221.4850 N   0  0  0  0  0  0  0  0  0  0  0  0
  140.5190   76.1550  221.6800 C   0  0  0  0  0  0  0  0  0  0  0  0
  140.8710   77.2060  222.7130 C   0  0  0  0  0  0  0  0  0  0  0  0
  140.1860   78.5160  222.3730 C   0  0  0  0  0  0  0  0  0  0  0  0
  140.7830   79.6240  222.9980 N   0  0  0  0  0  0  0  0  0  0  0  0
  141.0580   80.7760  222.2110 C   0  0  0  0  0  0  0  0  0  0  0  0
  141.8950   81.6060  223.1970 C   0  0  0  0  0  0  0  0  0  0  0  0
  142.8630   80.5170  223.6750 C   0  0  0  0  0  0  0  0  0  0  0  0
  141.8930   79.3450  223.8520 C   0  0  0  0  0  0  0  0  0  0  0  0
  138.6870   78.3920  222.5050 C   0  0  0  0  0  0  0  0  0  0  0  0
  138.2600   77.3410  221.4970 C   0  0  0  0  0  0  0  0  0  0  0  0
  139.2240   72.8730  222.3510 C   0  0  0  0  0  0  0  0  0  0  0  0
  140.3680   71.4100  224.6960 N   0  0  0  0  0  0  0  0  0  0  0  0
  140.4920   70.7870  225.9460 C   0  0  0  0  0  0  0  0  0  0  0  0
  140.9950   71.3890  227.0790 C   0  0  0  0  0  0  0  0  0  0  0  0
  141.1030   70.7450  228.2950 C   0  0  0  0  0  0  0  0  0  0  0  0
  140.6880   69.4210  228.3990 C   0  0  0  0  0  0  0  0  0  0  0  0
  140.1740   68.7860  227.2670 C   0  0  0  0  0  0  0  0  0  0  0  0
  140.0840   69.4750  226.0580 C   0  0  0  0  0  0  0  0  0  0  0  0
  140.0048   68.9129  222.8061 H   0  0  0  0  0  0  0  0  0  0  0  0
  138.3568   69.4606  223.2401 H   0  0  0  0  0  0  0  0  0  0  0  0
  141.0010   70.2309  221.2884 H   0  0  0  0  0  0  0  0  0  0  0  0
  140.9405   71.5705  219.1721 H   0  0  0  0  0  0  0  0  0  0  0  0
  139.7577   73.7481  219.1568 H   0  0  0  0  0  0  0  0  0  0  0  0
  140.8334   75.1630  222.0365 H   0  0  0  0  0  0  0  0  0  0  0  0
  141.0338   76.3681  220.7316 H   0  0  0  0  0  0  0  0  0  0  0  0
  140.5382   76.8675  223.7053 H   0  0  0  0  0  0  0  0  0  0  0  0
  141.9604   77.3581  222.7172 H   0  0  0  0  0  0  0  0  0  0  0  0
  140.3498   78.7374  221.3080 H   0  0  0  0  0  0  0  0  0  0  0  0
  141.6316   80.5215  221.3076 H   0  0  0  0  0  0  0  0  0  0  0  0
  140.1639   81.2897  221.8281 H   0  0  0  0  0  0  0  0  0  0  0  0
  142.4203   82.4328  222.6965 H   0  0  0  0  0  0  0  0  0  0  0  0
  141.3244   82.1103  223.9908 H   0  0  0  0  0  0  0  0  0  0  0  0
  143.6329   80.2974  222.9206 H   0  0  0  0  0  0  0  0  0  0  0  0
  143.4394   80.7769  224.5752 H   0  0  0  0  0  0  0  0  0  0  0  0
  142.3751   78.4013  223.5571 H   0  0  0  0  0  0  0  0  0  0  0  0
  141.5787   79.2354  224.9004 H   0  0  0  0  0  0  0  0  0  0  0  0
  138.4186   78.0750  223.5236 H   0  0  0  0  0  0  0  0  0  0  0  0
  138.1867   79.3537  222.3184 H   0  0  0  0  0  0  0  0  0  0  0  0
  137.2314   77.0318  221.7345 H   0  0  0  0  0  0  0  0  0  0  0  0
  138.3450   77.8018  220.5018 H   0  0  0  0  0  0  0  0  0  0  0  0
  138.7308   73.2498  223.2592 H   0  0  0  0  0  0  0  0  0  0  0  0
  141.3271   72.4354  227.0108 H   0  0  0  0  0  0  0  0  0  0  0  0
  141.5117   71.2714  229.1701 H   0  0  0  0  0  0  0  0  0  0  0  0
  140.7636   68.8842  229.3561 H   0  0  0  0  0  0  0  0  0  0  0  0
  139.8393   67.7400  227.3289 H   0  0  0  0  0  0  0  0  0  0  0  0
  1  2  2  0
  2  3  1  0
  3  4  1  0
  4  5  1  0
  5  6  2  0
  6  7  1  0
  7  8  2  0
  8  9  1  0
  9 10  1  0
 10 11  2  0
 10 12  1  0
 12 13  1  0
 13 14  1  0
 14 15  1  0
 15 16  1  0
 16 17  1  0
 17 18  1  0
 18 19  1  0
 19 20  1  0
 15 21  1  0
 21 22  1  0
  9 23  2  0
  4 24  2  0
 24 25  1  0
 25 26  2  0
 26 27  1  0
 27 28  2  0
 28 29  1  0
 29 30  2  0
 30  2  1  0
 23  5  1  0
 30 25  1  0
 22 12  1  0
 20 16  1  0
  3 31  1  0
  3 32  1  0
  6 33  1  0
  7 34  1  0
  8 35  1  0
 13 36  1  0
 13 37  1  0
 14 38  1  0
 14 39  1  0
 15 40  1  0
 17 41  1  0
 17 42  1  0
 18 43  1  0
 18 44  1  0
 19 45  1  0
 19 46  1  0
 20 47  1  0
 20 48  1  0
 21 49  1  0
 21 50  1  0
 22 51  1  0
 22 52  1  0
 23 53  1  0
 26 54  1  0
 27 55  1  0
 28 56  1  0
 29 57  1  0
M  END
>  <smiles>  (25) 
O=C1CC(c2cccc(C(=O)N3CCC(N4CCCC4)CC3)c2)=Nc2ccccc21

>  <score_type>  (25) 
oracle

>  <origin>  (25) 
autodockgpu

>  <m_score__min__energy>  (25) 
-9.6099999999999994

>  <m_primary>  (25) 
energy

>  <rmsd>  (25) 
7.126686013228359

>  <m_score__min__rmsd>  (25) 
7.126686013228359

>  <meeko>  (25) 
{"free_energy": -9.6, "intermolecular_energy": -10.49, "internal_energy": -1.01, "cluster_size": 50, "cluster_id": 1, "rank_in_cluster": 5}

>  <energy>  (25) 
-9.59

>  <cluster_rmsd>  (25) 
0.16

>  <cluster>  (25) 
1

$$$$

     RDKit          3D

 57 61  0  0  0  0  0  0  0  0999 V2000
  139.2050   67.4900  225.1220 O   0  0  0  0  0  0  0  0  0  0  0  0
  139.3630   68.7330  225.0300 C   0  0  0  0  0  0  0  0  0  0  0  0
  138.9260   69.4050  223.7850 C   0  0  0  0  0  0  0  0  0  0  0  0
  139.2120   70.8510  223.9050 C   0  0  0  0  0  0  0  0  0  0  0  0
  138.8570   71.6970  222.7510 C   0  0  0  0  0  0  0  0  0  0  0  0
  137.5790   71.6250  222.2160 C   0  0  0  0  0  0  0  0  0  0  0  0
  137.2100   72.4190  221.1230 C   0  0  0  0  0  0  0  0  0  0  0  0
  138.1500   73.2800  220.5880 C   0  0  0  0  0  0  0  0  0  0  0  0
  139.4290   73.3750  221.0940 C   0  0  0  0  0  0  0  0  0  0  0  0
  140.4480   74.2670  220.5660 C   0  0  0  0  0  0  0  0  0  0  0  0
  141.0380   73.8570  219.5070 O   0  0  0  0  0  0  0  0  0  0  0  0
  140.7940   75.5150  221.1630 N   0  0  0  0  0  0  0  0  0  0  0  0
  140.0750   75.8910  222.3550 C   0  0  0  0  0  0  0  0  0  0  0  0
  139.8600   77.3900  222.3270 C   0  0  0  0  0  0  0  0  0  0  0  0
  141.1610   78.0940  221.9940 C   0  0  0  0  0  0  0  0  0  0  0  0
  141.1620   79.4490  222.3670 N   0  0  0  0  0  0  0  0  0  0  0  0
  141.8560   80.3760  221.5420 C   0  0  0  0  0  0  0  0  0  0  0  0
  141.8060   81.6370  222.4200 C   0  0  0  0  0  0  0  0  0  0  0  0
  142.2440   81.0250  223.7560 C   0  0  0  0  0  0  0  0  0  0  0  0
  141.4340   79.7250  223.7410 C   0  0  0  0  0  0  0  0  0  0  0  0
  141.5980   77.7830  220.5820 C   0  0  0  0  0  0  0  0  0  0  0  0
  141.8260   76.2830  220.5320 C   0  0  0  0  0  0  0  0  0  0  0  0
  139.7370   72.5680  222.1730 C   0  0  0  0  0  0  0  0  0  0  0  0
  139.7410   71.4270  224.9080 N   0  0  0  0  0  0  0  0  0  0  0  0
  140.1480   70.7780  226.0820 C   0  0  0  0  0  0  0  0  0  0  0  0
  140.7220   71.4030  227.1680 C   0  0  0  0  0  0  0  0  0  0  0  0
  141.1120   70.7310  228.3100 C   0  0  0  0  0  0  0  0  0  0  0  0
  140.9220   69.3550  228.3830 C   0  0  0  0  0  0  0  0  0  0  0  0
  140.3430   68.6960  227.2980 C   0  0  0  0  0  0  0  0  0  0  0  0
  139.9650   69.4140  226.1640 C   0  0  0  0  0  0  0  0  0  0  0  0
  139.4741   68.9886  222.9269 H   0  0  0  0  0  0  0  0  0  0  0  0
  137.8486   69.2462  223.6301 H   0  0  0  0  0  0  0  0  0  0  0  0
  136.8450   70.9343  222.6567 H   0  0  0  0  0  0  0  0  0  0  0  0
  136.1963   72.3590  220.7002 H   0  0  0  0  0  0  0  0  0  0  0  0
  137.8685   73.9096  219.7310 H   0  0  0  0  0  0  0  0  0  0  0  0
  139.1033   75.3762  222.3813 H   0  0  0  0  0  0  0  0  0  0  0  0
  140.6487   75.6068  223.2495 H   0  0  0  0  0  0  0  0  0  0  0  0
  139.1070   77.6359  221.5638 H   0  0  0  0  0  0  0  0  0  0  0  0
  139.5116   77.7235  223.3156 H   0  0  0  0  0  0  0  0  0  0  0  0
  141.9601   77.6805  222.6268 H   0  0  0  0  0  0  0  0  0  0  0  0
  142.8910   80.0545  221.3539 H   0  0  0  0  0  0  0  0  0  0  0  0
  141.4254   80.5030  220.5378 H   0  0  0  0  0  0  0  0  0  0  0  0
  142.5078   82.4090  222.0714 H   0  0  0  0  0  0  0  0  0  0  0  0
  140.8387   82.1605  222.4369 H   0  0  0  0  0  0  0  0  0  0  0  0
  143.3263   80.8298  223.7787 H   0  0  0  0  0  0  0  0  0  0  0  0
  142.0711   81.6648  224.6339 H   0  0  0  0  0  0  0  0  0  0  0  0
  142.0168   78.9059  224.1876 H   0  0  0  0  0  0  0  0  0  0  0  0
  140.5067   79.8203  224.3249 H   0  0  0  0  0  0  0  0  0  0  0  0
  140.8143   78.0740  219.8671 H   0  0  0  0  0  0  0  0  0  0  0  0
  142.5093   78.3370  220.3124 H   0  0  0  0  0  0  0  0  0  0  0  0
  141.8884   75.9776  219.4771 H   0  0  0  0  0  0  0  0  0  0  0  0
  142.7549   76.0838  221.0864 H   0  0  0  0  0  0  0  0  0  0  0  0
  140.7522   72.6307  222.5919 H   0  0  0  0  0  0  0  0  0  0  0  0
  140.8773   72.4911  227.1231 H   0  0  0  0  0  0  0  0  0  0  0  0
  141.5666   71.2765  229.1501 H   0  0  0  0  0  0  0  0  0  0  0  0
  141.2232   68.7958  229.2811 H   0  0  0  0  0  0  0  0  0  0  0  0
  140.1845   67.6082  227.3373 H   0  0  0  0  0  0  0  0  0  0  0  0
  1  2  2  0
  2  3  1  0
  3  4  1  0
  4  5  1  0
  5  6  2  0
  6  7  1  0
  7  8  2  0
  8  9  1  0
  9 10  1  0
 10 11  2  0
 10 12  1  0
 12 13  1  0
 13 14  1  0
 14 15  1  0
 15 16  1  0
 16 17  1  0
 17 18  1  0
 18 19  1  0
 19 20  1  0
 15 21  1  0
 21 22  1  0
  9 23  2  0
  4 24  2  0
 24 25  1  0
 25 26  2  0
 26 27  1  0
 27 28  2  0
 28 29  1  0
 29 30  2  0
 30  2  1  0
 23  5  1  0
 30 25  1  0
 22 12  1  0
 20 16  1  0
  3 31  1  0
  3 32  1  0
  6 33  1  0
  7 34  1  0
  8 35  1  0
 13 36  1  0
 13 37  1  0
 14 38  1  0
 14 39  1  0
 15 40  1  0
 17 41  1  0
 17 42  1  0
 18 43  1  0
 18 44  1  0
 19 45  1  0
 19 46  1  0
 20 47  1  0
 20 48  1  0
 21 49  1  0
 21 50  1  0
 22 51  1  0
 22 52  1  0
 23 53  1  0
 26 54  1  0
 27 55  1  0
 28 56  1  0
 29 57  1  0
M  END
>  <smiles>  (26) 
O=C1CC(c2cccc(C(=O)N3CCC(N4CCCC4)CC3)c2)=Nc2ccccc21

>  <score_type>  (26) 
oracle

>  <origin>  (26) 
autodockgpu

>  <m_score__min__energy>  (26) 
-9.6099999999999994

>  <m_primary>  (26) 
energy

>  <rmsd>  (26) 
6.755430241324074

>  <m_score__min__rmsd>  (26) 
6.755430241324074

>  <meeko>  (26) 
{"free_energy": -9.58, "intermolecular_energy": -10.48, "internal_energy": -1.01, "cluster_size": 50, "cluster_id": 1, "rank_in_cluster": 35}

>  <energy>  (26) 
-9.59

>  <cluster_rmsd>  (26) 
1.37

>  <cluster>  (26) 
1

$$$$

     RDKit          3D

 57 61  0  0  0  0  0  0  0  0999 V2000
  139.2010   67.5970  225.1480 O   0  0  0  0  0  0  0  0  0  0  0  0
  139.3750   68.8340  225.0170 C   0  0  0  0  0  0  0  0  0  0  0  0
  138.9410   69.4730  223.7530 C   0  0  0  0  0  0  0  0  0  0  0  0
  139.2470   70.9190  223.8270 C   0  0  0  0  0  0  0  0  0  0  0  0
  138.8980   71.7330  222.6490 C   0  0  0  0  0  0  0  0  0  0  0  0
  137.6390   71.6090  222.0790 C   0  0  0  0  0  0  0  0  0  0  0  0
  137.2750   72.3730  220.9630 C   0  0  0  0  0  0  0  0  0  0  0  0
  138.2010   73.2560  220.4400 C   0  0  0  0  0  0  0  0  0  0  0  0
  139.4600   73.4030  220.9810 C   0  0  0  0  0  0  0  0  0  0  0  0
  140.4640   74.3200  220.4670 C   0  0  0  0  0  0  0  0  0  0  0  0
  141.0280   73.9590  219.3770 O   0  0  0  0  0  0  0  0  0  0  0  0
  140.8220   75.5420  221.1090 N   0  0  0  0  0  0  0  0  0  0  0  0
  140.1330   75.8630  222.3340 C   0  0  0  0  0  0  0  0  0  0  0  0
  139.9130   77.3620  222.3770 C   0  0  0  0  0  0  0  0  0  0  0  0
  141.2040   78.0840  222.0420 C   0  0  0  0  0  0  0  0  0  0  0  0
  141.2110   79.4210  222.4750 N   0  0  0  0  0  0  0  0  0  0  0  0
  141.8140   80.3980  221.6360 C   0  0  0  0  0  0  0  0  0  0  0  0
  141.8160   81.6190  222.5700 C   0  0  0  0  0  0  0  0  0  0  0  0
  142.3790   80.9600  223.8350 C   0  0  0  0  0  0  0  0  0  0  0  0
  141.5960   79.6440  223.8320 C   0  0  0  0  0  0  0  0  0  0  0  0
  141.6060   77.8360  220.6080 C   0  0  0  0  0  0  0  0  0  0  0  0
  141.8370   76.3400  220.4870 C   0  0  0  0  0  0  0  0  0  0  0  0
  139.7630   72.6240  222.0810 C   0  0  0  0  0  0  0  0  0  0  0  0
  139.7890   71.5180  224.8090 N   0  0  0  0  0  0  0  0  0  0  0  0
  140.1930   70.9000  226.0010 C   0  0  0  0  0  0  0  0  0  0  0  0
  140.7800   71.5500  227.0640 C   0  0  0  0  0  0  0  0  0  0  0  0
  141.1660   70.9090  228.2250 C   0  0  0  0  0  0  0  0  0  0  0  0
  140.9590   69.5390  228.3420 C   0  0  0  0  0  0  0  0  0  0  0  0
  140.3660   68.8550  227.2810 C   0  0  0  0  0  0  0  0  0  0  0  0
  139.9920   69.5420  226.1260 C   0  0  0  0  0  0  0  0  0  0  0  0
  139.4795   69.0229  222.9060 H   0  0  0  0  0  0  0  0  0  0  0  0
  137.8609   69.3239  223.6075 H   0  0  0  0  0  0  0  0  0  0  0  0
  136.9163   70.9004  222.5099 H   0  0  0  0  0  0  0  0  0  0  0  0
  136.2761   72.2728  220.5134 H   0  0  0  0  0  0  0  0  0  0  0  0
  137.9241   73.8608  219.5639 H   0  0  0  0  0  0  0  0  0  0  0  0
  139.1637   75.3437  222.3627 H   0  0  0  0  0  0  0  0  0  0  0  0
  140.7304   75.5424  223.2002 H   0  0  0  0  0  0  0  0  0  0  0  0
  139.1402   77.6382  221.6445 H   0  0  0  0  0  0  0  0  0  0  0  0
  139.5885   77.6512  223.3875 H   0  0  0  0  0  0  0  0  0  0  0  0
  142.0207   77.6460  222.6346 H   0  0  0  0  0  0  0  0  0  0  0  0
  142.8349   80.1083  221.3464 H   0  0  0  0  0  0  0  0  0  0  0  0
  141.2963   80.5580  220.6787 H   0  0  0  0  0  0  0  0  0  0  0  0
  142.4705   82.4209  222.1976 H   0  0  0  0  0  0  0  0  0  0  0  0
  140.8442   82.1197  222.6925 H   0  0  0  0  0  0  0  0  0  0  0  0
  143.4627   80.7886  223.7564 H   0  0  0  0  0  0  0  0  0  0  0  0
  142.2701   81.5576  224.7521 H   0  0  0  0  0  0  0  0  0  0  0  0
  142.2309   78.8201  224.1900 H   0  0  0  0  0  0  0  0  0  0  0  0
  140.7213   79.6928  224.4972 H   0  0  0  0  0  0  0  0  0  0  0  0
  140.8037   78.1546  219.9262 H   0  0  0  0  0  0  0  0  0  0  0  0
  142.5088   78.4046  220.3401 H   0  0  0  0  0  0  0  0  0  0  0  0
  141.8745   76.0809  219.4186 H   0  0  0  0  0  0  0  0  0  0  0  0
  142.7798   76.1199  221.0092 H   0  0  0  0  0  0  0  0  0  0  0  0
  140.7632   72.7279  222.5270 H   0  0  0  0  0  0  0  0  0  0  0  0
  140.9499   72.6339  226.9844 H   0  0  0  0  0  0  0  0  0  0  0  0
  141.6309   71.4746  229.0459 H   0  0  0  0  0  0  0  0  0  0  0  0
  141.2578   69.0040  229.2555 H   0  0  0  0  0  0  0  0  0  0  0  0
  140.1928   67.7713  227.3552 H   0  0  0  0  0  0  0  0  0  0  0  0
  1  2  2  0
  2  3  1  0
  3  4  1  0
  4  5  1  0
  5  6  2  0
  6  7  1  0
  7  8  2  0
  8  9  1  0
  9 10  1  0
 10 11  2  0
 10 12  1  0
 12 13  1  0
 13 14  1  0
 14 15  1  0
 15 16  1  0
 16 17  1  0
 17 18  1  0
 18 19  1  0
 19 20  1  0
 15 21  1  0
 21 22  1  0
  9 23  2  0
  4 24  2  0
 24 25  1  0
 25 26  2  0
 26 27  1  0
 27 28  2  0
 28 29  1  0
 29 30  2  0
 30  2  1  0
 23  5  1  0
 30 25  1  0
 22 12  1  0
 20 16  1  0
  3 31  1  0
  3 32  1  0
  6 33  1  0
  7 34  1  0
  8 35  1  0
 13 36  1  0
 13 37  1  0
 14 38  1  0
 14 39  1  0
 15 40  1  0
 17 41  1  0
 17 42  1  0
 18 43  1  0
 18 44  1  0
 19 45  1  0
 19 46  1  0
 20 47  1  0
 20 48  1  0
 21 49  1  0
 21 50  1  0
 22 51  1  0
 22 52  1  0
 23 53  1  0
 26 54  1  0
 27 55  1  0
 28 56  1  0
 29 57  1  0
M  END
>  <smiles>  (27) 
O=C1CC(c2cccc(C(=O)N3CCC(N4CCCC4)CC3)c2)=Nc2ccccc21

>  <score_type>  (27) 
oracle

>  <origin>  (27) 
autodockgpu

>  <m_score__min__energy>  (27) 
-9.6099999999999994

>  <m_primary>  (27) 
energy

>  <rmsd>  (27) 
6.756821861514012

>  <m_score__min__rmsd>  (27) 
6.756821861514012

>  <meeko>  (27) 
{"free_energy": -9.59, "intermolecular_energy": -10.49, "internal_energy": -1.0, "cluster_size": 50, "cluster_id": 1, "rank_in_cluster": 13}

>  <energy>  (27) 
-9.59

>  <cluster_rmsd>  (27) 
1.37

>  <cluster>  (27) 
1

$$$$

     RDKit          3D

 57 61  0  0  0  0  0  0  0  0999 V2000
  139.1840   67.5450  224.9940 O   0  0  0  0  0  0  0  0  0  0  0  0
  139.5480   68.7430  224.8940 C   0  0  0  0  0  0  0  0  0  0  0  0
  139.4130   69.4110  223.5790 C   0  0  0  0  0  0  0  0  0  0  0  0
  139.9030   70.8010  223.7040 C   0  0  0  0  0  0  0  0  0  0  0  0
  139.8620   71.6320  222.4880 C   0  0  0  0  0  0  0  0  0  0  0  0
  140.5010   71.1950  221.3370 C   0  0  0  0  0  0  0  0  0  0  0  0
  140.4750   71.9600  220.1640 C   0  0  0  0  0  0  0  0  0  0  0  0
  139.7960   73.1630  220.1780 C   0  0  0  0  0  0  0  0  0  0  0  0
  139.1510   73.6270  221.3040 C   0  0  0  0  0  0  0  0  0  0  0  0
  138.4220   74.8840  221.3640 C   0  0  0  0  0  0  0  0  0  0  0  0
  137.1540   74.7880  221.2250 O   0  0  0  0  0  0  0  0  0  0  0  0
  139.0460   76.1510  221.5600 N   0  0  0  0  0  0  0  0  0  0  0  0
  140.4800   76.1580  221.7060 C   0  0  0  0  0  0  0  0  0  0  0  0
  140.8500   77.2250  222.7170 C   0  0  0  0  0  0  0  0  0  0  0  0
  140.1330   78.5190  222.3900 C   0  0  0  0  0  0  0  0  0  0  0  0
  140.7320   79.6430  222.9840 N   0  0  0  0  0  0  0  0  0  0  0  0
  140.9940   80.7790  222.1700 C   0  0  0  0  0  0  0  0  0  0  0  0
  141.8390   81.6330  223.1280 C   0  0  0  0  0  0  0  0  0  0  0  0
  142.8160   80.5580  223.6200 C   0  0  0  0  0  0  0  0  0  0  0  0
  141.8520   79.3870  223.8320 C   0  0  0  0  0  0  0  0  0  0  0  0
  138.6410   78.3730  222.5740 C   0  0  0  0  0  0  0  0  0  0  0  0
  138.1970   77.3050  221.5900 C   0  0  0  0  0  0  0  0  0  0  0  0
  139.2100   72.8310  222.4320 C   0  0  0  0  0  0  0  0  0  0  0  0
  140.3620   71.3390  224.7620 N   0  0  0  0  0  0  0  0  0  0  0  0
  140.4820   70.6940  226.0010 C   0  0  0  0  0  0  0  0  0  0  0  0
  140.9800   71.2780  227.1460 C   0  0  0  0  0  0  0  0  0  0  0  0
  141.0850   70.6130  228.3520 C   0  0  0  0  0  0  0  0  0  0  0  0
  140.6710   69.2870  228.4310 C   0  0  0  0  0  0  0  0  0  0  0  0
  140.1630   68.6710  227.2870 C   0  0  0  0  0  0  0  0  0  0  0  0
  140.0760   69.3800  226.0890 C   0  0  0  0  0  0  0  0  0  0  0  0
  140.0099   68.8737  222.8273 H   0  0  0  0  0  0  0  0  0  0  0  0
  138.3592   69.4107  223.2635 H   0  0  0  0  0  0  0  0  0  0  0  0
  141.0359   70.2338  221.3456 H   0  0  0  0  0  0  0  0  0  0  0  0
  140.9833   71.6111  219.2530 H   0  0  0  0  0  0  0  0  0  0  0  0
  139.7693   73.7700  219.2610 H   0  0  0  0  0  0  0  0  0  0  0  0
  140.8226   75.1747  222.0606 H   0  0  0  0  0  0  0  0  0  0  0  0
  140.9585   76.3702  220.7385 H   0  0  0  0  0  0  0  0  0  0  0  0
  140.5574   76.8906  223.7233 H   0  0  0  0  0  0  0  0  0  0  0  0
  141.9362   77.3950  222.6817 H   0  0  0  0  0  0  0  0  0  0  0  0
  140.2576   78.7318  221.3180 H   0  0  0  0  0  0  0  0  0  0  0  0
  141.5582   80.5072  221.2657 H   0  0  0  0  0  0  0  0  0  0  0  0
  140.0936   81.2814  221.7869 H   0  0  0  0  0  0  0  0  0  0  0  0
  142.3562   82.4499  222.6035 H   0  0  0  0  0  0  0  0  0  0  0  0
  141.2753   82.1530  223.9166 H   0  0  0  0  0  0  0  0  0  0  0  0
  143.5792   80.3247  222.8629 H   0  0  0  0  0  0  0  0  0  0  0  0
  143.4004   80.8394  224.5084 H   0  0  0  0  0  0  0  0  0  0  0  0
  142.3346   78.4388  223.5525 H   0  0  0  0  0  0  0  0  0  0  0  0
  141.5488   79.2995  224.8858 H   0  0  0  0  0  0  0  0  0  0  0  0
  138.4122   78.0618  223.6040 H   0  0  0  0  0  0  0  0  0  0  0  0
  138.1194   79.3249  222.3958 H   0  0  0  0  0  0  0  0  0  0  0  0
  137.1826   76.9810  221.8656 H   0  0  0  0  0  0  0  0  0  0  0  0
  138.2397   77.7576  220.5883 H   0  0  0  0  0  0  0  0  0  0  0  0
  138.7007   73.1846  223.3406 H   0  0  0  0  0  0  0  0  0  0  0  0
  141.3103   72.3261  227.0968 H   0  0  0  0  0  0  0  0  0  0  0  0
  141.4902   71.1245  229.2375 H   0  0  0  0  0  0  0  0  0  0  0  0
  140.7430   68.7339  229.3791 H   0  0  0  0  0  0  0  0  0  0  0  0
  139.8302   67.6234  227.3299 H   0  0  0  0  0  0  0  0  0  0  0  0
  1  2  2  0
  2  3  1  0
  3  4  1  0
  4  5  1  0
  5  6  2  0
  6  7  1  0
  7  8  2  0
  8  9  1  0
  9 10  1  0
 10 11  2  0
 10 12  1  0
 12 13  1  0
 13 14  1  0
 14 15  1  0
 15 16  1  0
 16 17  1  0
 17 18  1  0
 18 19  1  0
 19 20  1  0
 15 21  1  0
 21 22  1  0
  9 23  2  0
  4 24  2  0
 24 25  1  0
 25 26  2  0
 26 27  1  0
 27 28  2  0
 28 29  1  0
 29 30  2  0
 30  2  1  0
 23  5  1  0
 30 25  1  0
 22 12  1  0
 20 16  1  0
  3 31  1  0
  3 32  1  0
  6 33  1  0
  7 34  1  0
  8 35  1  0
 13 36  1  0
 13 37  1  0
 14 38  1  0
 14 39  1  0
 15 40  1  0
 17 41  1  0
 17 42  1  0
 18 43  1  0
 18 44  1  0
 19 45  1  0
 19 46  1  0
 20 47  1  0
 20 48  1  0
 21 49  1  0
 21 50  1  0
 22 51  1  0
 22 52  1  0
 23 53  1  0
 26 54  1  0
 27 55  1  0
 28 56  1  0
 29 57  1  0
M  END
>  <smiles>  (28) 
O=C1CC(c2cccc(C(=O)N3CCC(N4CCCC4)CC3)c2)=Nc2ccccc21

>  <score_type>  (28) 
oracle

>  <origin>  (28) 
autodockgpu

>  <m_score__min__energy>  (28) 
-9.6099999999999994

>  <m_primary>  (28) 
energy

>  <rmsd>  (28) 
7.149430394344528

>  <m_score__min__rmsd>  (28) 
7.149430394344528

>  <meeko>  (28) 
{"free_energy": -9.59, "intermolecular_energy": -10.48, "internal_energy": -1.01, "cluster_size": 50, "cluster_id": 1, "rank_in_cluster": 23}

>  <energy>  (28) 
-9.59

>  <cluster_rmsd>  (28) 
0.1

>  <cluster>  (28) 
1

$$$$

     RDKit          3D

 57 61  0  0  0  0  0  0  0  0999 V2000
  139.1990   67.5410  224.9550 O   0  0  0  0  0  0  0  0  0  0  0  0
  139.5690   68.7380  224.8540 C   0  0  0  0  0  0  0  0  0  0  0  0
  139.4260   69.4070  223.5410 C   0  0  0  0  0  0  0  0  0  0  0  0
  139.9230   70.7950  223.6640 C   0  0  0  0  0  0  0  0  0  0  0  0
  139.8760   71.6280  222.4480 C   0  0  0  0  0  0  0  0  0  0  0  0
  140.4960   71.1850  221.2890 C   0  0  0  0  0  0  0  0  0  0  0  0
  140.4640   71.9510  220.1170 C   0  0  0  0  0  0  0  0  0  0  0  0
  139.7980   73.1610  220.1400 C   0  0  0  0  0  0  0  0  0  0  0  0
  139.1720   73.6320  221.2740 C   0  0  0  0  0  0  0  0  0  0  0  0
  138.4580   74.8960  221.3440 C   0  0  0  0  0  0  0  0  0  0  0  0
  137.1880   74.8150  221.2110 O   0  0  0  0  0  0  0  0  0  0  0  0
  139.0970   76.1550  221.5440 N   0  0  0  0  0  0  0  0  0  0  0  0
  140.5320   76.1460  221.6830 C   0  0  0  0  0  0  0  0  0  0  0  0
  140.9180   77.2030  222.6980 C   0  0  0  0  0  0  0  0  0  0  0  0
  140.2140   78.5070  222.3800 C   0  0  0  0  0  0  0  0  0  0  0  0
  140.8280   79.6200  222.9770 N   0  0  0  0  0  0  0  0  0  0  0  0
  141.0370   80.7830  222.1850 C   0  0  0  0  0  0  0  0  0  0  0  0
  141.9180   81.6200  223.1260 C   0  0  0  0  0  0  0  0  0  0  0  0
  142.9300   80.5440  223.5370 C   0  0  0  0  0  0  0  0  0  0  0  0
  141.9910   79.3550  223.7620 C   0  0  0  0  0  0  0  0  0  0  0  0
  138.7220   78.3760  222.5710 C   0  0  0  0  0  0  0  0  0  0  0  0
  138.2610   77.3190  221.5840 C   0  0  0  0  0  0  0  0  0  0  0  0
  139.2360   72.8340  222.4010 C   0  0  0  0  0  0  0  0  0  0  0  0
  140.3930   71.3300  224.7180 N   0  0  0  0  0  0  0  0  0  0  0  0
  140.5200   70.6840  225.9560 C   0  0  0  0  0  0  0  0  0  0  0  0
  141.0290   71.2650  227.0970 C   0  0  0  0  0  0  0  0  0  0  0  0
  141.1400   70.5980  228.3010 C   0  0  0  0  0  0  0  0  0  0  0  0
  140.7220   69.2740  228.3830 C   0  0  0  0  0  0  0  0  0  0  0  0
  140.2010   68.6610  227.2420 C   0  0  0  0  0  0  0  0  0  0  0  0
  140.1080   69.3710  226.0460 C   0  0  0  0  0  0  0  0  0  0  0  0
  140.0146   68.8680  222.7840 H   0  0  0  0  0  0  0  0  0  0  0  0
  138.3699   69.4110  223.2334 H   0  0  0  0  0  0  0  0  0  0  0  0
  141.0204   70.2180  221.2904 H   0  0  0  0  0  0  0  0  0  0  0  0
  140.9576   71.5974  219.1997 H   0  0  0  0  0  0  0  0  0  0  0  0
  139.7662   73.7684  219.2235 H   0  0  0  0  0  0  0  0  0  0  0  0
  140.8659   75.1571  222.0304 H   0  0  0  0  0  0  0  0  0  0  0  0
  141.0081   76.3587  220.7144 H   0  0  0  0  0  0  0  0  0  0  0  0
  140.6255   76.8667  223.7036 H   0  0  0  0  0  0  0  0  0  0  0  0
  142.0060   77.3608  222.6598 H   0  0  0  0  0  0  0  0  0  0  0  0
  140.3357   78.7245  221.3086 H   0  0  0  0  0  0  0  0  0  0  0  0
  141.5596   80.5449  221.2468 H   0  0  0  0  0  0  0  0  0  0  0  0
  140.1132   81.2846  221.8610 H   0  0  0  0  0  0  0  0  0  0  0  0
  142.3992   82.4587  222.6016 H   0  0  0  0  0  0  0  0  0  0  0  0
  141.3877   82.1094  223.9562 H   0  0  0  0  0  0  0  0  0  0  0  0
  143.6570   80.3424  222.7365 H   0  0  0  0  0  0  0  0  0  0  0  0
  143.5547   80.8071  224.4033 H   0  0  0  0  0  0  0  0  0  0  0  0
  142.4703   78.4214  223.4325 H   0  0  0  0  0  0  0  0  0  0  0  0
  141.7406   79.2342  224.8263 H   0  0  0  0  0  0  0  0  0  0  0  0
  138.4953   78.0615  223.6004 H   0  0  0  0  0  0  0  0  0  0  0  0
  138.2100   79.3346  222.4007 H   0  0  0  0  0  0  0  0  0  0  0  0
  137.2442   77.0053  221.8628 H   0  0  0  0  0  0  0  0  0  0  0  0
  138.3038   77.7763  220.5845 H   0  0  0  0  0  0  0  0  0  0  0  0
  138.7413   73.1920  223.3159 H   0  0  0  0  0  0  0  0  0  0  0  0
  141.3634   72.3117  227.0463 H   0  0  0  0  0  0  0  0  0  0  0  0
  141.5537   71.1073  229.1839 H   0  0  0  0  0  0  0  0  0  0  0  0
  140.8005   68.7198  229.3299 H   0  0  0  0  0  0  0  0  0  0  0  0
  139.8631   67.6152  227.2869 H   0  0  0  0  0  0  0  0  0  0  0  0
  1  2  2  0
  2  3  1  0
  3  4  1  0
  4  5  1  0
  5  6  2  0
  6  7  1  0
  7  8  2  0
  8  9  1  0
  9 10  1  0
 10 11  2  0
 10 12  1  0
 12 13  1  0
 13 14  1  0
 14 15  1  0
 15 16  1  0
 16 17  1  0
 17 18  1  0
 18 19  1  0
 19 20  1  0
 15 21  1  0
 21 22  1  0
  9 23  2  0
  4 24  2  0
 24 25  1  0
 25 26  2  0
 26 27  1  0
 27 28  2  0
 28 29  1  0
 29 30  2  0
 30  2  1  0
 23  5  1  0
 30 25  1  0
 22 12  1  0
 20 16  1  0
  3 31  1  0
  3 32  1  0
  6 33  1  0
  7 34  1  0
  8 35  1  0
 13 36  1  0
 13 37  1  0
 14 38  1  0
 14 39  1  0
 15 40  1  0
 17 41  1  0
 17 42  1  0
 18 43  1  0
 18 44  1  0
 19 45  1  0
 19 46  1  0
 20 47  1  0
 20 48  1  0
 21 49  1  0
 21 50  1  0
 22 51  1  0
 22 52  1  0
 23 53  1  0
 26 54  1  0
 27 55  1  0
 28 56  1  0
 29 57  1  0
M  END
>  <smiles>  (29) 
O=C1CC(c2cccc(C(=O)N3CCC(N4CCCC4)CC3)c2)=Nc2ccccc21

>  <score_type>  (29) 
oracle

>  <origin>  (29) 
autodockgpu

>  <m_score__min__energy>  (29) 
-9.6099999999999994

>  <m_primary>  (29) 
energy

>  <rmsd>  (29) 
7.1428087870935775

>  <m_score__min__rmsd>  (29) 
7.1428087870935775

>  <meeko>  (29) 
{"free_energy": -9.57, "intermolecular_energy": -10.46, "internal_energy": -1.01, "cluster_size": 50, "cluster_id": 1, "rank_in_cluster": 43}

>  <energy>  (29) 
-9.59

>  <cluster_rmsd>  (29) 
0.11

>  <cluster>  (29) 
1

$$$$

     RDKit          3D

 57 61  0  0  0  0  0  0  0  0999 V2000
  139.1880   67.5860  225.0070 O   0  0  0  0  0  0  0  0  0  0  0  0
  139.5680   68.7780  224.8960 C   0  0  0  0  0  0  0  0  0  0  0  0
  139.4530   69.4310  223.5720 C   0  0  0  0  0  0  0  0  0  0  0  0
  139.9590   70.8170  223.6840 C   0  0  0  0  0  0  0  0  0  0  0  0
  139.9390   71.6330  222.4570 C   0  0  0  0  0  0  0  0  0  0  0  0
  140.5970   71.1810  221.3230 C   0  0  0  0  0  0  0  0  0  0  0  0
  140.5920   71.9320  220.1400 C   0  0  0  0  0  0  0  0  0  0  0  0
  139.9130   73.1360  220.1280 C   0  0  0  0  0  0  0  0  0  0  0  0
  139.2490   73.6140  221.2370 C   0  0  0  0  0  0  0  0  0  0  0  0
  138.5210   74.8720  221.2700 C   0  0  0  0  0  0  0  0  0  0  0  0
  137.2600   74.7780  221.0790 O   0  0  0  0  0  0  0  0  0  0  0  0
  139.1380   76.1380  221.4930 N   0  0  0  0  0  0  0  0  0  0  0  0
  140.5650   76.1420  221.6980 C   0  0  0  0  0  0  0  0  0  0  0  0
  140.8950   77.2060  222.7250 C   0  0  0  0  0  0  0  0  0  0  0  0
  140.1940   78.5030  222.3710 C   0  0  0  0  0  0  0  0  0  0  0  0
  140.7700   79.6240  222.9910 N   0  0  0  0  0  0  0  0  0  0  0  0
  141.0390   80.7730  222.1960 C   0  0  0  0  0  0  0  0  0  0  0  0
  141.8550   81.6220  223.1830 C   0  0  0  0  0  0  0  0  0  0  0  0
  142.8310   80.5500  223.6820 C   0  0  0  0  0  0  0  0  0  0  0  0
  141.8740   79.3680  223.8600 C   0  0  0  0  0  0  0  0  0  0  0  0
  138.6960   78.3580  222.4940 C   0  0  0  0  0  0  0  0  0  0  0  0
  138.2910   77.2930  221.4910 C   0  0  0  0  0  0  0  0  0  0  0  0
  139.2890   72.8320  222.3760 C   0  0  0  0  0  0  0  0  0  0  0  0
  140.4140   71.3620  224.7390 N   0  0  0  0  0  0  0  0  0  0  0  0
  140.5150   70.7320  225.9880 C   0  0  0  0  0  0  0  0  0  0  0  0
  141.0090   71.3240  227.1300 C   0  0  0  0  0  0  0  0  0  0  0  0
  141.0950   70.6730  228.3450 C   0  0  0  0  0  0  0  0  0  0  0  0
  140.6650   69.3540  228.4370 C   0  0  0  0  0  0  0  0  0  0  0  0
  140.1590   68.7290  227.2960 C   0  0  0  0  0  0  0  0  0  0  0  0
  140.0920   69.4240  226.0880 C   0  0  0  0  0  0  0  0  0  0  0  0
  140.0499   68.8771  222.8325 H   0  0  0  0  0  0  0  0  0  0  0  0
  138.4021   69.4396  223.2471 H   0  0  0  0  0  0  0  0  0  0  0  0
  141.1304   70.2194  221.3526 H   0  0  0  0  0  0  0  0  0  0  0  0
  141.1159   71.5720  219.2423 H   0  0  0  0  0  0  0  0  0  0  0  0
  139.9023   73.7318  219.2034 H   0  0  0  0  0  0  0  0  0  0  0  0
  140.8909   75.1574  222.0646 H   0  0  0  0  0  0  0  0  0  0  0  0
  141.0833   76.3551  220.7515 H   0  0  0  0  0  0  0  0  0  0  0  0
  140.5607   76.8703  223.7177 H   0  0  0  0  0  0  0  0  0  0  0  0
  141.9821   77.3739  222.7347 H   0  0  0  0  0  0  0  0  0  0  0  0
  140.3625   78.7190  221.3057 H   0  0  0  0  0  0  0  0  0  0  0  0
  141.6252   80.5177  221.3009 H   0  0  0  0  0  0  0  0  0  0  0  0
  140.1426   81.2720  221.7991 H   0  0  0  0  0  0  0  0  0  0  0  0
  142.3756   82.4504  222.6804 H   0  0  0  0  0  0  0  0  0  0  0  0
  141.2695   82.1264  223.9658 H   0  0  0  0  0  0  0  0  0  0  0  0
  143.6117   80.3328  222.9381 H   0  0  0  0  0  0  0  0  0  0  0  0
  143.3942   80.8258  224.5857 H   0  0  0  0  0  0  0  0  0  0  0  0
  142.3712   78.4276  223.5801 H   0  0  0  0  0  0  0  0  0  0  0  0
  141.5493   79.2652  224.9059 H   0  0  0  0  0  0  0  0  0  0  0  0
  138.4254   78.0449  223.5132 H   0  0  0  0  0  0  0  0  0  0  0  0
  138.1830   79.3109  222.2967 H   0  0  0  0  0  0  0  0  0  0  0  0
  137.2656   76.9703  221.7244 H   0  0  0  0  0  0  0  0  0  0  0  0
  138.3755   77.7476  220.4929 H   0  0  0  0  0  0  0  0  0  0  0  0
  138.7656   73.1973  223.2719 H   0  0  0  0  0  0  0  0  0  0  0  0
  141.3521   72.3675  227.0710 H   0  0  0  0  0  0  0  0  0  0  0  0
  141.4981   71.1909  229.2278 H   0  0  0  0  0  0  0  0  0  0  0  0
  140.7225   68.8122  229.3926 H   0  0  0  0  0  0  0  0  0  0  0  0
  139.8124   67.6864  227.3493 H   0  0  0  0  0  0  0  0  0  0  0  0
  1  2  2  0
  2  3  1  0
  3  4  1  0
  4  5  1  0
  5  6  2  0
  6  7  1  0
  7  8  2  0
  8  9  1  0
  9 10  1  0
 10 11  2  0
 10 12  1  0
 12 13  1  0
 13 14  1  0
 14 15  1  0
 15 16  1  0
 16 17  1  0
 17 18  1  0
 18 19  1  0
 19 20  1  0
 15 21  1  0
 21 22  1  0
  9 23  2  0
  4 24  2  0
 24 25  1  0
 25 26  2  0
 26 27  1  0
 27 28  2  0
 28 29  1  0
 29 30  2  0
 30  2  1  0
 23  5  1  0
 30 25  1  0
 22 12  1  0
 20 16  1  0
  3 31  1  0
  3 32  1  0
  6 33  1  0
  7 34  1  0
  8 35  1  0
 13 36  1  0
 13 37  1  0
 14 38  1  0
 14 39  1  0
 15 40  1  0
 17 41  1  0
 17 42  1  0
 18 43  1  0
 18 44  1  0
 19 45  1  0
 19 46  1  0
 20 47  1  0
 20 48  1  0
 21 49  1  0
 21 50  1  0
 22 51  1  0
 22 52  1  0
 23 53  1  0
 26 54  1  0
 27 55  1  0
 28 56  1  0
 29 57  1  0
M  END
>  <smiles>  (30) 
O=C1CC(c2cccc(C(=O)N3CCC(N4CCCC4)CC3)c2)=Nc2ccccc21

>  <score_type>  (30) 
oracle

>  <origin>  (30) 
autodockgpu

>  <m_score__min__energy>  (30) 
-9.6099999999999994

>  <m_primary>  (30) 
energy

>  <rmsd>  (30) 
7.137531319734078

>  <m_score__min__rmsd>  (30) 
7.137531319734078

>  <meeko>  (30) 
{"free_energy": -9.61, "intermolecular_energy": -10.5, "internal_energy": -1.01, "cluster_size": 50, "cluster_id": 1, "rank_in_cluster": 1}

>  <energy>  (30) 
-9.58

>  <cluster_rmsd>  (30) 
1.36

>  <cluster>  (30) 
1

$$$$

     RDKit          3D

 57 61  0  0  0  0  0  0  0  0999 V2000
  139.1940   67.6790  225.0080 O   0  0  0  0  0  0  0  0  0  0  0  0
  139.5700   68.8710  224.8840 C   0  0  0  0  0  0  0  0  0  0  0  0
  139.4500   69.5090  223.5530 C   0  0  0  0  0  0  0  0  0  0  0  0
  139.9520   70.8970  223.6480 C   0  0  0  0  0  0  0  0  0  0  0  0
  139.9260   71.7000  222.4130 C   0  0  0  0  0  0  0  0  0  0  0  0
  140.5580   71.2240  221.2730 C   0  0  0  0  0  0  0  0  0  0  0  0
  140.5470   71.9610  220.0820 C   0  0  0  0  0  0  0  0  0  0  0  0
  139.8900   73.1770  220.0670 C   0  0  0  0  0  0  0  0  0  0  0  0
  139.2530   73.6790  221.1810 C   0  0  0  0  0  0  0  0  0  0  0  0
  138.5470   74.9500  221.2110 C   0  0  0  0  0  0  0  0  0  0  0  0
  137.2880   74.8820  220.9960 O   0  0  0  0  0  0  0  0  0  0  0  0
  139.1830   76.2020  221.4560 N   0  0  0  0  0  0  0  0  0  0  0  0
  140.6060   76.1790  221.6870 C   0  0  0  0  0  0  0  0  0  0  0  0
  140.9370   77.2280  222.7290 C   0  0  0  0  0  0  0  0  0  0  0  0
  140.2660   78.5400  222.3730 C   0  0  0  0  0  0  0  0  0  0  0  0
  140.8510   79.6460  223.0130 N   0  0  0  0  0  0  0  0  0  0  0  0
  141.0870   80.8220  222.2500 C   0  0  0  0  0  0  0  0  0  0  0  0
  141.9250   81.6460  223.2400 C   0  0  0  0  0  0  0  0  0  0  0  0
  142.9250   80.5670  223.6730 C   0  0  0  0  0  0  0  0  0  0  0  0
  141.9830   79.3710  223.8400 C   0  0  0  0  0  0  0  0  0  0  0  0
  138.7640   78.4230  222.4670 C   0  0  0  0  0  0  0  0  0  0  0  0
  138.3580   77.3740  221.4480 C   0  0  0  0  0  0  0  0  0  0  0  0
  139.2960   72.9090  222.3280 C   0  0  0  0  0  0  0  0  0  0  0  0
  140.4080   71.4560  224.6960 N   0  0  0  0  0  0  0  0  0  0  0  0
  140.5140   70.8390  225.9510 C   0  0  0  0  0  0  0  0  0  0  0  0
  141.0090   71.4450  227.0850 C   0  0  0  0  0  0  0  0  0  0  0  0
  141.0990   70.8080  228.3070 C   0  0  0  0  0  0  0  0  0  0  0  0
  140.6730   69.4880  228.4140 C   0  0  0  0  0  0  0  0  0  0  0  0
  140.1670   68.8500  227.2820 C   0  0  0  0  0  0  0  0  0  0  0  0
  140.0950   69.5310  226.0670 C   0  0  0  0  0  0  0  0  0  0  0  0
  140.0467   68.9486  222.8183 H   0  0  0  0  0  0  0  0  0  0  0  0
  138.3983   69.5110  223.2307 H   0  0  0  0  0  0  0  0  0  0  0  0
  141.0752   70.2537  221.3051 H   0  0  0  0  0  0  0  0  0  0  0  0
  141.0492   71.5811  219.1801 H   0  0  0  0  0  0  0  0  0  0  0  0
  139.8752   73.7627  219.1360 H   0  0  0  0  0  0  0  0  0  0  0  0
  140.9076   75.1856  222.0507 H   0  0  0  0  0  0  0  0  0  0  0  0
  141.1448   76.3913  220.7518 H   0  0  0  0  0  0  0  0  0  0  0  0
  140.5787   76.8904  223.7127 H   0  0  0  0  0  0  0  0  0  0  0  0
  142.0266   77.3757  222.7602 H   0  0  0  0  0  0  0  0  0  0  0  0
  140.4580   78.7598  221.3124 H   0  0  0  0  0  0  0  0  0  0  0  0
  141.6485   80.6016  221.3302 H   0  0  0  0  0  0  0  0  0  0  0  0
  140.1751   81.3256  221.8967 H   0  0  0  0  0  0  0  0  0  0  0  0
  142.4229   82.4957  222.7501 H   0  0  0  0  0  0  0  0  0  0  0  0
  141.3593   82.1186  224.0564 H   0  0  0  0  0  0  0  0  0  0  0  0
  143.6843   80.3819  222.8990 H   0  0  0  0  0  0  0  0  0  0  0  0
  143.5136   80.8176  224.5679 H   0  0  0  0  0  0  0  0  0  0  0  0
  142.4790   78.4448  223.5141 H   0  0  0  0  0  0  0  0  0  0  0  0
  141.6908   79.2306  224.8911 H   0  0  0  0  0  0  0  0  0  0  0  0
  138.4684   78.1071  223.4783 H   0  0  0  0  0  0  0  0  0  0  0  0
  138.2730   79.3870  222.2682 H   0  0  0  0  0  0  0  0  0  0  0  0
  137.3224   77.0692  221.6595 H   0  0  0  0  0  0  0  0  0  0  0  0
  138.4703   77.8349  220.4555 H   0  0  0  0  0  0  0  0  0  0  0  0
  138.7922   73.2932  223.2272 H   0  0  0  0  0  0  0  0  0  0  0  0
  141.3496   72.4885  227.0135 H   0  0  0  0  0  0  0  0  0  0  0  0
  141.5018   71.3369  229.1834 H   0  0  0  0  0  0  0  0  0  0  0  0
  140.7343   68.9566  229.3752 H   0  0  0  0  0  0  0  0  0  0  0  0
  139.8238   67.8070  227.3475 H   0  0  0  0  0  0  0  0  0  0  0  0
  1  2  2  0
  2  3  1  0
  3  4  1  0
  4  5  1  0
  5  6  2  0
  6  7  1  0
  7  8  2  0
  8  9  1  0
  9 10  1  0
 10 11  2  0
 10 12  1  0
 12 13  1  0
 13 14  1  0
 14 15  1  0
 15 16  1  0
 16 17  1  0
 17 18  1  0
 18 19  1  0
 19 20  1  0
 15 21  1  0
 21 22  1  0
  9 23  2  0
  4 24  2  0
 24 25  1  0
 25 26  2  0
 26 27  1  0
 27 28  2  0
 28 29  1  0
 29 30  2  0
 30  2  1  0
 23  5  1  0
 30 25  1  0
 22 12  1  0
 20 16  1  0
  3 31  1  0
  3 32  1  0
  6 33  1  0
  7 34  1  0
  8 35  1  0
 13 36  1  0
 13 37  1  0
 14 38  1  0
 14 39  1  0
 15 40  1  0
 17 41  1  0
 17 42  1  0
 18 43  1  0
 18 44  1  0
 19 45  1  0
 19 46  1  0
 20 47  1  0
 20 48  1  0
 21 49  1  0
 21 50  1  0
 22 51  1  0
 22 52  1  0
 23 53  1  0
 26 54  1  0
 27 55  1  0
 28 56  1  0
 29 57  1  0
M  END
>  <smiles>  (31) 
O=C1CC(c2cccc(C(=O)N3CCC(N4CCCC4)CC3)c2)=Nc2ccccc21

>  <score_type>  (31) 
oracle

>  <origin>  (31) 
autodockgpu

>  <m_score__min__energy>  (31) 
-9.6099999999999994

>  <m_primary>  (31) 
energy

>  <rmsd>  (31) 
7.103408673310944

>  <m_score__min__rmsd>  (31) 
7.103408673310944

>  <meeko>  (31) 
{"free_energy": -9.6, "intermolecular_energy": -10.49, "internal_energy": -1.01, "cluster_size": 50, "cluster_id": 1, "rank_in_cluster": 7}

>  <energy>  (31) 
-9.58

>  <cluster_rmsd>  (31) 
0.12

>  <cluster>  (31) 
1

$$$$

     RDKit          3D

 57 61  0  0  0  0  0  0  0  0999 V2000
  139.2060   67.6850  225.0310 O   0  0  0  0  0  0  0  0  0  0  0  0
  139.5640   68.8820  224.8960 C   0  0  0  0  0  0  0  0  0  0  0  0
  139.4280   69.5090  223.5610 C   0  0  0  0  0  0  0  0  0  0  0  0
  139.9110   70.9050  223.6450 C   0  0  0  0  0  0  0  0  0  0  0  0
  139.8680   71.6980  222.4040 C   0  0  0  0  0  0  0  0  0  0  0  0
  140.4720   71.2080  221.2550 C   0  0  0  0  0  0  0  0  0  0  0  0
  140.4430   71.9360  220.0590 C   0  0  0  0  0  0  0  0  0  0  0  0
  139.7980   73.1580  220.0480 C   0  0  0  0  0  0  0  0  0  0  0  0
  139.1880   73.6750  221.1700 C   0  0  0  0  0  0  0  0  0  0  0  0
  138.4950   74.9530  221.2050 C   0  0  0  0  0  0  0  0  0  0  0  0
  137.2350   74.8970  220.9930 O   0  0  0  0  0  0  0  0  0  0  0  0
  139.1450   76.1980  221.4510 N   0  0  0  0  0  0  0  0  0  0  0  0
  140.5690   76.1590  221.6780 C   0  0  0  0  0  0  0  0  0  0  0  0
  140.9120   77.2030  222.7210 C   0  0  0  0  0  0  0  0  0  0  0  0
  140.2540   78.5230  222.3690 C   0  0  0  0  0  0  0  0  0  0  0  0
  140.8520   79.6210  223.0100 N   0  0  0  0  0  0  0  0  0  0  0  0
  141.0640   80.8090  222.2580 C   0  0  0  0  0  0  0  0  0  0  0  0
  141.9250   81.6220  223.2370 C   0  0  0  0  0  0  0  0  0  0  0  0
  142.9390   80.5400  223.6290 C   0  0  0  0  0  0  0  0  0  0  0  0
  142.0060   79.3380  223.8020 C   0  0  0  0  0  0  0  0  0  0  0  0
  138.7510   78.4200  222.4670 C   0  0  0  0  0  0  0  0  0  0  0  0
  138.3310   77.3770  221.4470 C   0  0  0  0  0  0  0  0  0  0  0  0
  139.2480   72.9130  222.3220 C   0  0  0  0  0  0  0  0  0  0  0  0
  140.3640   71.4770  224.6860 N   0  0  0  0  0  0  0  0  0  0  0  0
  140.4850   70.8710  225.9450 C   0  0  0  0  0  0  0  0  0  0  0  0
  140.9760   71.4920  227.0720 C   0  0  0  0  0  0  0  0  0  0  0  0
  141.0820   70.8640  228.2980 C   0  0  0  0  0  0  0  0  0  0  0  0
  140.6750   69.5400  228.4170 C   0  0  0  0  0  0  0  0  0  0  0  0
  140.1730   68.8860  227.2910 C   0  0  0  0  0  0  0  0  0  0  0  0
  140.0850   69.5580  226.0720 C   0  0  0  0  0  0  0  0  0  0  0  0
  140.0289   68.9523  222.8269 H   0  0  0  0  0  0  0  0  0  0  0  0
  138.3749   69.4937  223.2436 H   0  0  0  0  0  0  0  0  0  0  0  0
  140.9811   70.2334  221.2839 H   0  0  0  0  0  0  0  0  0  0  0  0
  140.9224   71.5443  219.1498 H   0  0  0  0  0  0  0  0  0  0  0  0
  139.7707   73.7368  219.1130 H   0  0  0  0  0  0  0  0  0  0  0  0
  140.8611   75.1619  222.0393 H   0  0  0  0  0  0  0  0  0  0  0  0
  141.1083   76.3662  220.7419 H   0  0  0  0  0  0  0  0  0  0  0  0
  140.5519   76.8673  223.7047 H   0  0  0  0  0  0  0  0  0  0  0  0
  142.0031   77.3397  222.7500 H   0  0  0  0  0  0  0  0  0  0  0  0
  140.4454   78.7444  221.3087 H   0  0  0  0  0  0  0  0  0  0  0  0
  141.6018   80.6038  221.3206 H   0  0  0  0  0  0  0  0  0  0  0  0
  140.1414   81.3142  221.9363 H   0  0  0  0  0  0  0  0  0  0  0  0
  142.4077   82.4799  222.7460 H   0  0  0  0  0  0  0  0  0  0  0  0
  141.3794   82.0818  224.0742 H   0  0  0  0  0  0  0  0  0  0  0  0
  143.6793   80.3691  222.8335 H   0  0  0  0  0  0  0  0  0  0  0  0
  143.5487   80.7797  224.5126 H   0  0  0  0  0  0  0  0  0  0  0  0
  142.4965   78.4190  223.4487 H   0  0  0  0  0  0  0  0  0  0  0  0
  141.7421   79.1803  224.8582 H   0  0  0  0  0  0  0  0  0  0  0  0
  138.4555   78.1049  223.4786 H   0  0  0  0  0  0  0  0  0  0  0  0
  138.2690   79.3892  222.2712 H   0  0  0  0  0  0  0  0  0  0  0  0
  137.2933   77.0817  221.6613 H   0  0  0  0  0  0  0  0  0  0  0  0
  138.4435   77.8384  220.4548 H   0  0  0  0  0  0  0  0  0  0  0  0
  138.7670   73.3092  223.2285 H   0  0  0  0  0  0  0  0  0  0  0  0
  141.2999   72.5402  226.9920 H   0  0  0  0  0  0  0  0  0  0  0  0
  141.4830   71.4043  229.1682 H   0  0  0  0  0  0  0  0  0  0  0  0
  140.7474   69.0170  229.3820 H   0  0  0  0  0  0  0  0  0  0  0  0
  139.8460   67.8383  227.3650 H   0  0  0  0  0  0  0  0  0  0  0  0
  1  2  2  0
  2  3  1  0
  3  4  1  0
  4  5  1  0
  5  6  2  0
  6  7  1  0
  7  8  2  0
  8  9  1  0
  9 10  1  0
 10 11  2  0
 10 12  1  0
 12 13  1  0
 13 14  1  0
 14 15  1  0
 15 16  1  0
 16 17  1  0
 17 18  1  0
 18 19  1  0
 19 20  1  0
 15 21  1  0
 21 22  1  0
  9 23  2  0
  4 24  2  0
 24 25  1  0
 25 26  2  0
 26 27  1  0
 27 28  2  0
 28 29  1  0
 29 30  2  0
 30  2  1  0
 23  5  1  0
 30 25  1  0
 22 12  1  0
 20 16  1  0
  3 31  1  0
  3 32  1  0
  6 33  1  0
  7 34  1  0
  8 35  1  0
 13 36  1  0
 13 37  1  0
 14 38  1  0
 14 39  1  0
 15 40  1  0
 17 41  1  0
 17 42  1  0
 18 43  1  0
 18 44  1  0
 19 45  1  0
 19 46  1  0
 20 47  1  0
 20 48  1  0
 21 49  1  0
 21 50  1  0
 22 51  1  0
 22 52  1  0
 23 53  1  0
 26 54  1  0
 27 55  1  0
 28 56  1  0
 29 57  1  0
M  END
>  <smiles>  (32) 
O=C1CC(c2cccc(C(=O)N3CCC(N4CCCC4)CC3)c2)=Nc2ccccc21

>  <score_type>  (32) 
oracle

>  <origin>  (32) 
autodockgpu

>  <m_score__min__energy>  (32) 
-9.6099999999999994

>  <m_primary>  (32) 
energy

>  <rmsd>  (32) 
7.108650304433218

>  <m_score__min__rmsd>  (32) 
7.108650304433218

>  <meeko>  (32) 
{"free_energy": -9.59, "intermolecular_energy": -10.49, "internal_energy": -1.02, "cluster_size": 50, "cluster_id": 1, "rank_in_cluster": 15}

>  <energy>  (32) 
-9.58

>  <cluster_rmsd>  (32) 
1.36

>  <cluster>  (32) 
1

$$$$

     RDKit          3D

 57 61  0  0  0  0  0  0  0  0999 V2000
  139.2000   67.6770  225.0220 O   0  0  0  0  0  0  0  0  0  0  0  0
  139.5550   68.8750  224.8900 C   0  0  0  0  0  0  0  0  0  0  0  0
  139.4120   69.5060  223.5580 C   0  0  0  0  0  0  0  0  0  0  0  0
  139.8900   70.9030  223.6450 C   0  0  0  0  0  0  0  0  0  0  0  0
  139.8400   71.7010  222.4070 C   0  0  0  0  0  0  0  0  0  0  0  0
  140.4340   71.2130  221.2520 C   0  0  0  0  0  0  0  0  0  0  0  0
  140.3990   71.9460  220.0590 C   0  0  0  0  0  0  0  0  0  0  0  0
  139.7560   73.1690  220.0570 C   0  0  0  0  0  0  0  0  0  0  0  0
  139.1550   73.6840  221.1860 C   0  0  0  0  0  0  0  0  0  0  0  0
  138.4660   74.9630  221.2290 C   0  0  0  0  0  0  0  0  0  0  0  0
  137.2060   74.9120  221.0180 O   0  0  0  0  0  0  0  0  0  0  0  0
  139.1190   76.2050  221.4840 N   0  0  0  0  0  0  0  0  0  0  0  0
  140.5420   76.1610  221.7100 C   0  0  0  0  0  0  0  0  0  0  0  0
  140.8890   77.1970  222.7600 C   0  0  0  0  0  0  0  0  0  0  0  0
  140.2340   78.5200  222.4180 C   0  0  0  0  0  0  0  0  0  0  0  0
  140.8350   79.6120  223.0670 N   0  0  0  0  0  0  0  0  0  0  0  0
  141.0520   80.8050  222.3210 C   0  0  0  0  0  0  0  0  0  0  0  0
  141.9150   81.6080  223.3070 C   0  0  0  0  0  0  0  0  0  0  0  0
  142.9240   80.5200  223.6950 C   0  0  0  0  0  0  0  0  0  0  0  0
  141.9860   79.3210  223.8590 C   0  0  0  0  0  0  0  0  0  0  0  0
  138.7300   78.4210  222.5160 C   0  0  0  0  0  0  0  0  0  0  0  0
  138.3080   77.3860  221.4890 C   0  0  0  0  0  0  0  0  0  0  0  0
  139.2220   72.9170  222.3340 C   0  0  0  0  0  0  0  0  0  0  0  0
  140.3450   71.4730  224.6870 N   0  0  0  0  0  0  0  0  0  0  0  0
  140.4730   70.8630  225.9430 C   0  0  0  0  0  0  0  0  0  0  0  0
  140.9670   71.4810  227.0710 C   0  0  0  0  0  0  0  0  0  0  0  0
  141.0790   70.8500  228.2940 C   0  0  0  0  0  0  0  0  0  0  0  0
  140.6770   69.5230  228.4090 C   0  0  0  0  0  0  0  0  0  0  0  0
  140.1730   68.8720  227.2830 C   0  0  0  0  0  0  0  0  0  0  0  0
  140.0780   69.5480  226.0670 C   0  0  0  0  0  0  0  0  0  0  0  0
  140.0124   68.9540  222.8199 H   0  0  0  0  0  0  0  0  0  0  0  0
  138.3578   69.4879  223.2443 H   0  0  0  0  0  0  0  0  0  0  0  0
  140.9397   70.2364  221.2735 H   0  0  0  0  0  0  0  0  0  0  0  0
  140.8722   71.5572  219.1453 H   0  0  0  0  0  0  0  0  0  0  0  0
  139.7225   73.7509  219.1241 H   0  0  0  0  0  0  0  0  0  0  0  0
  140.8316   75.1607  222.0644 H   0  0  0  0  0  0  0  0  0  0  0  0
  141.0811   76.3736  220.7750 H   0  0  0  0  0  0  0  0  0  0  0  0
  140.5294   76.8554  223.7418 H   0  0  0  0  0  0  0  0  0  0  0  0
  141.9805   77.3309  222.7888 H   0  0  0  0  0  0  0  0  0  0  0  0
  140.4252   78.7474  221.3589 H   0  0  0  0  0  0  0  0  0  0  0  0
  141.5901   80.6037  221.3830 H   0  0  0  0  0  0  0  0  0  0  0  0
  140.1319   81.3156  222.0006 H   0  0  0  0  0  0  0  0  0  0  0  0
  142.4022   82.4668  222.8222 H   0  0  0  0  0  0  0  0  0  0  0  0
  141.3694   82.0644  224.1461 H   0  0  0  0  0  0  0  0  0  0  0  0
  143.6654   80.3507  222.9002 H   0  0  0  0  0  0  0  0  0  0  0  0
  143.5328   80.7523  224.5813 H   0  0  0  0  0  0  0  0  0  0  0  0
  142.4738   78.4022  223.5015 H   0  0  0  0  0  0  0  0  0  0  0  0
  141.7193   79.1589  224.9138 H   0  0  0  0  0  0  0  0  0  0  0  0
  138.4336   78.0999  223.5255 H   0  0  0  0  0  0  0  0  0  0  0  0
  138.2503   79.3928  222.3274 H   0  0  0  0  0  0  0  0  0  0  0  0
  137.2696   77.0915  221.7013 H   0  0  0  0  0  0  0  0  0  0  0  0
  138.4220   77.8543  220.5002 H   0  0  0  0  0  0  0  0  0  0  0  0
  138.7482   73.3103  223.2455 H   0  0  0  0  0  0  0  0  0  0  0  0
  141.2884   72.5301  226.9933 H   0  0  0  0  0  0  0  0  0  0  0  0
  141.4803   71.3888  229.1650 H   0  0  0  0  0  0  0  0  0  0  0  0
  140.7553   68.9962  229.3715 H   0  0  0  0  0  0  0  0  0  0  0  0
  139.8498   67.8230  227.3544 H   0  0  0  0  0  0  0  0  0  0  0  0
  1  2  2  0
  2  3  1  0
  3  4  1  0
  4  5  1  0
  5  6  2  0
  6  7  1  0
  7  8  2  0
  8  9  1  0
  9 10  1  0
 10 11  2  0
 10 12  1  0
 12 13  1  0
 13 14  1  0
 14 15  1  0
 15 16  1  0
 16 17  1  0
 17 18  1  0
 18 19  1  0
 19 20  1  0
 15 21  1  0
 21 22  1  0
  9 23  2  0
  4 24  2  0
 24 25  1  0
 25 26  2  0
 26 27  1  0
 27 28  2  0
 28 29  1  0
 29 30  2  0
 30  2  1  0
 23  5  1  0
 30 25  1  0
 22 12  1  0
 20 16  1  0
  3 31  1  0
  3 32  1  0
  6 33  1  0
  7 34  1  0
  8 35  1  0
 13 36  1  0
 13 37  1  0
 14 38  1  0
 14 39  1  0
 15 40  1  0
 17 41  1  0
 17 42  1  0
 18 43  1  0
 18 44  1  0
 19 45  1  0
 19 46  1  0
 20 47  1  0
 20 48  1  0
 21 49  1  0
 21 50  1  0
 22 51  1  0
 22 52  1  0
 23 53  1  0
 26 54  1  0
 27 55  1  0
 28 56  1  0
 29 57  1  0
M  END
>  <smiles>  (33) 
O=C1CC(c2cccc(C(=O)N3CCC(N4CCCC4)CC3)c2)=Nc2ccccc21

>  <score_type>  (33) 
oracle

>  <origin>  (33) 
autodockgpu

>  <m_score__min__energy>  (33) 
-9.6099999999999994

>  <m_primary>  (33) 
energy

>  <rmsd>  (33) 
7.116818714838426

>  <m_score__min__rmsd>  (33) 
7.116818714838426

>  <meeko>  (33) 
{"free_energy": -9.58, "intermolecular_energy": -10.47, "internal_energy": -1.02, "cluster_size": 50, "cluster_id": 1, "rank_in_cluster": 36}

>  <energy>  (33) 
-9.58

>  <cluster_rmsd>  (33) 
0.13

>  <cluster>  (33) 
1

$$$$

     RDKit          3D

 57 61  0  0  0  0  0  0  0  0999 V2000
  139.1580   67.6700  225.0310 O   0  0  0  0  0  0  0  0  0  0  0  0
  139.5470   68.8580  224.9050 C   0  0  0  0  0  0  0  0  0  0  0  0
  139.4310   69.4970  223.5740 C   0  0  0  0  0  0  0  0  0  0  0  0
  139.9480   70.8790  223.6670 C   0  0  0  0  0  0  0  0  0  0  0  0
  139.9280   71.6820  222.4310 C   0  0  0  0  0  0  0  0  0  0  0  0
  140.5650   71.2060  221.2950 C   0  0  0  0  0  0  0  0  0  0  0  0
  140.5600   71.9420  220.1030 C   0  0  0  0  0  0  0  0  0  0  0  0
  139.9020   73.1580  220.0840 C   0  0  0  0  0  0  0  0  0  0  0  0
  139.2590   73.6600  221.1950 C   0  0  0  0  0  0  0  0  0  0  0  0
  138.5530   74.9310  221.2220 C   0  0  0  0  0  0  0  0  0  0  0  0
  137.2940   74.8610  221.0050 O   0  0  0  0  0  0  0  0  0  0  0  0
  139.1880   76.1840  221.4650 N   0  0  0  0  0  0  0  0  0  0  0  0
  140.6110   76.1610  221.6980 C   0  0  0  0  0  0  0  0  0  0  0  0
  140.9390   77.2130  222.7380 C   0  0  0  0  0  0  0  0  0  0  0  0
  140.2680   78.5240  222.3780 C   0  0  0  0  0  0  0  0  0  0  0  0
  140.8510   79.6310  223.0170 N   0  0  0  0  0  0  0  0  0  0  0  0
  141.0950   80.8040  222.2490 C   0  0  0  0  0  0  0  0  0  0  0  0
  141.9280   81.6310  223.2410 C   0  0  0  0  0  0  0  0  0  0  0  0
  142.9230   80.5510  223.6860 C   0  0  0  0  0  0  0  0  0  0  0  0
  141.9770   79.3580  223.8520 C   0  0  0  0  0  0  0  0  0  0  0  0
  138.7650   78.4060  222.4700 C   0  0  0  0  0  0  0  0  0  0  0  0
  138.3610   77.3550  221.4530 C   0  0  0  0  0  0  0  0  0  0  0  0
  139.2980   72.8900  222.3430 C   0  0  0  0  0  0  0  0  0  0  0  0
  140.4130   71.4330  224.7130 N   0  0  0  0  0  0  0  0  0  0  0  0
  140.5160   70.8170  225.9680 C   0  0  0  0  0  0  0  0  0  0  0  0
  141.0210   71.4180  227.1010 C   0  0  0  0  0  0  0  0  0  0  0  0
  141.1080   70.7800  228.3230 C   0  0  0  0  0  0  0  0  0  0  0  0
  140.6680   69.4650  228.4320 C   0  0  0  0  0  0  0  0  0  0  0  0
  140.1510   68.8320  227.3010 C   0  0  0  0  0  0  0  0  0  0  0  0
  140.0830   69.5130  226.0860 C   0  0  0  0  0  0  0  0  0  0  0  0
  140.0200   68.9299  222.8382 H   0  0  0  0  0  0  0  0  0  0  0  0
  138.3786   69.5104  223.2543 H   0  0  0  0  0  0  0  0  0  0  0  0
  141.0821   70.2358  221.3303 H   0  0  0  0  0  0  0  0  0  0  0  0
  141.0672   71.5618  219.2040 H   0  0  0  0  0  0  0  0  0  0  0  0
  139.8913   73.7433  219.1527 H   0  0  0  0  0  0  0  0  0  0  0  0
  140.9120   75.1686  222.0648 H   0  0  0  0  0  0  0  0  0  0  0  0
  141.1519   76.3701  220.7633 H   0  0  0  0  0  0  0  0  0  0  0  0
  140.5790   76.8775  223.7218 H   0  0  0  0  0  0  0  0  0  0  0  0
  142.0284   77.3616  222.7706 H   0  0  0  0  0  0  0  0  0  0  0  0
  140.4617   78.7421  221.3174 H   0  0  0  0  0  0  0  0  0  0  0  0
  141.6624   80.5779  221.3342 H   0  0  0  0  0  0  0  0  0  0  0  0
  140.1867   81.3078  221.8868 H   0  0  0  0  0  0  0  0  0  0  0  0
  142.4312   82.4773  222.7506 H   0  0  0  0  0  0  0  0  0  0  0  0
  141.3578   82.1088  224.0513 H   0  0  0  0  0  0  0  0  0  0  0  0
  143.6872   80.3605  222.9180 H   0  0  0  0  0  0  0  0  0  0  0  0
  143.5061   80.8043  224.5837 H   0  0  0  0  0  0  0  0  0  0  0  0
  142.4731   78.4293  223.5335 H   0  0  0  0  0  0  0  0  0  0  0  0
  141.6776   79.2236  224.9019 H   0  0  0  0  0  0  0  0  0  0  0  0
  138.4682   78.0920  223.4816 H   0  0  0  0  0  0  0  0  0  0  0  0
  138.2737   79.3693  222.2683 H   0  0  0  0  0  0  0  0  0  0  0  0
  137.3256   77.0494  221.6640 H   0  0  0  0  0  0  0  0  0  0  0  0
  138.4730   77.8137  220.4595 H   0  0  0  0  0  0  0  0  0  0  0  0
  138.7904   73.2743  223.2401 H   0  0  0  0  0  0  0  0  0  0  0  0
  141.3723   72.4579  227.0284 H   0  0  0  0  0  0  0  0  0  0  0  0
  141.5196   71.3046  229.1979 H   0  0  0  0  0  0  0  0  0  0  0  0
  140.7266   68.9332  229.3932 H   0  0  0  0  0  0  0  0  0  0  0  0
  139.7961   67.7930  227.3680 H   0  0  0  0  0  0  0  0  0  0  0  0
  1  2  2  0
  2  3  1  0
  3  4  1  0
  4  5  1  0
  5  6  2  0
  6  7  1  0
  7  8  2  0
  8  9  1  0
  9 10  1  0
 10 11  2  0
 10 12  1  0
 12 13  1  0
 13 14  1  0
 14 15  1  0
 15 16  1  0
 16 17  1  0
 17 18  1  0
 18 19  1  0
 19 20  1  0
 15 21  1  0
 21 22  1  0
  9 23  2  0
  4 24  2  0
 24 25  1  0
 25 26  2  0
 26 27  1  0
 27 28  2  0
 28 29  1  0
 29 30  2  0
 30  2  1  0
 23  5  1  0
 30 25  1  0
 22 12  1  0
 20 16  1  0
  3 31  1  0
  3 32  1  0
  6 33  1  0
  7 34  1  0
  8 35  1  0
 13 36  1  0
 13 37  1  0
 14 38  1  0
 14 39  1  0
 15 40  1  0
 17 41  1  0
 17 42  1  0
 18 43  1  0
 18 44  1  0
 19 45  1  0
 19 46  1  0
 20 47  1  0
 20 48  1  0
 21 49  1  0
 21 50  1  0
 22 51  1  0
 22 52  1  0
 23 53  1  0
 26 54  1  0
 27 55  1  0
 28 56  1  0
 29 57  1  0
M  END
>  <smiles>  (34) 
O=C1CC(c2cccc(C(=O)N3CCC(N4CCCC4)CC3)c2)=Nc2ccccc21

>  <score_type>  (34) 
oracle

>  <origin>  (34) 
autodockgpu

>  <m_score__min__energy>  (34) 
-9.6099999999999994

>  <m_primary>  (34) 
energy

>  <rmsd>  (34) 
7.113656600756851

>  <m_score__min__rmsd>  (34) 
7.113656600756851

>  <meeko>  (34) 
{"free_energy": -9.59, "intermolecular_energy": -10.49, "internal_energy": -1.01, "cluster_size": 50, "cluster_id": 1, "rank_in_cluster": 14}

>  <energy>  (34) 
-9.58

>  <cluster_rmsd>  (34) 
1.36

>  <cluster>  (34) 
1

$$$$

     RDKit          3D

 57 61  0  0  0  0  0  0  0  0999 V2000
  139.1610   67.7010  225.0380 O   0  0  0  0  0  0  0  0  0  0  0  0
  139.5540   68.8870  224.9110 C   0  0  0  0  0  0  0  0  0  0  0  0
  139.4420   69.5240  223.5790 C   0  0  0  0  0  0  0  0  0  0  0  0
  139.9630   70.9060  223.6720 C   0  0  0  0  0  0  0  0  0  0  0  0
  139.9490   71.7070  222.4350 C   0  0  0  0  0  0  0  0  0  0  0  0
  140.5930   71.2300  221.3020 C   0  0  0  0  0  0  0  0  0  0  0  0
  140.5930   71.9660  220.1100 C   0  0  0  0  0  0  0  0  0  0  0  0
  139.9330   73.1800  220.0870 C   0  0  0  0  0  0  0  0  0  0  0  0
  139.2830   73.6830  221.1930 C   0  0  0  0  0  0  0  0  0  0  0  0
  138.5750   74.9520  221.2140 C   0  0  0  0  0  0  0  0  0  0  0  0
  137.3160   74.8790  221.0010 O   0  0  0  0  0  0  0  0  0  0  0  0
  139.2080   76.2080  221.4500 N   0  0  0  0  0  0  0  0  0  0  0  0
  140.6320   76.1890  221.6790 C   0  0  0  0  0  0  0  0  0  0  0  0
  140.9610   77.2470  222.7130 C   0  0  0  0  0  0  0  0  0  0  0  0
  140.2870   78.5550  222.3470 C   0  0  0  0  0  0  0  0  0  0  0  0
  140.8700   79.6670  222.9790 N   0  0  0  0  0  0  0  0  0  0  0  0
  141.1820   80.8070  222.1870 C   0  0  0  0  0  0  0  0  0  0  0  0
  141.9900   81.6430  223.1920 C   0  0  0  0  0  0  0  0  0  0  0  0
  142.9320   80.5530  223.7180 C   0  0  0  0  0  0  0  0  0  0  0  0
  141.9460   79.3910  223.8760 C   0  0  0  0  0  0  0  0  0  0  0  0
  138.7840   78.4350  222.4440 C   0  0  0  0  0  0  0  0  0  0  0  0
  138.3800   77.3770  221.4330 C   0  0  0  0  0  0  0  0  0  0  0  0
  139.3170   72.9140  222.3420 C   0  0  0  0  0  0  0  0  0  0  0  0
  140.4280   71.4600  224.7180 N   0  0  0  0  0  0  0  0  0  0  0  0
  140.5260   70.8440  225.9750 C   0  0  0  0  0  0  0  0  0  0  0  0
  141.0290   71.4450  227.1080 C   0  0  0  0  0  0  0  0  0  0  0  0
  141.1110   70.8080  228.3300 C   0  0  0  0  0  0  0  0  0  0  0  0
  140.6670   69.4950  228.4400 C   0  0  0  0  0  0  0  0  0  0  0  0
  140.1510   68.8620  227.3090 C   0  0  0  0  0  0  0  0  0  0  0  0
  140.0880   69.5420  226.0930 C   0  0  0  0  0  0  0  0  0  0  0  0
  140.0309   68.9544  222.8450 H   0  0  0  0  0  0  0  0  0  0  0  0
  138.3904   69.5394  223.2567 H   0  0  0  0  0  0  0  0  0  0  0  0
  141.1108   70.2603  221.3405 H   0  0  0  0  0  0  0  0  0  0  0  0
  141.1060   71.5868  219.2139 H   0  0  0  0  0  0  0  0  0  0  0  0
  139.9263   73.7641  219.1549 H   0  0  0  0  0  0  0  0  0  0  0  0
  140.9361   75.1990  222.0498 H   0  0  0  0  0  0  0  0  0  0  0  0
  141.1697   76.3945  220.7417 H   0  0  0  0  0  0  0  0  0  0  0  0
  140.6037   76.9163  223.6994 H   0  0  0  0  0  0  0  0  0  0  0  0
  142.0503   77.3973  222.7428 H   0  0  0  0  0  0  0  0  0  0  0  0
  140.4776   78.7674  221.2847 H   0  0  0  0  0  0  0  0  0  0  0  0
  141.7853   80.5364  221.3079 H   0  0  0  0  0  0  0  0  0  0  0  0
  140.3064   81.3224  221.7656 H   0  0  0  0  0  0  0  0  0  0  0  0
  142.5393   82.4594  222.7004 H   0  0  0  0  0  0  0  0  0  0  0  0
  141.3954   82.1614  223.9586 H   0  0  0  0  0  0  0  0  0  0  0  0
  143.7260   80.3173  222.9941 H   0  0  0  0  0  0  0  0  0  0  0  0
  143.4789   80.8203  224.6342 H   0  0  0  0  0  0  0  0  0  0  0  0
  142.4303   78.4394  223.6115 H   0  0  0  0  0  0  0  0  0  0  0  0
  141.5934   79.2985  224.9138 H   0  0  0  0  0  0  0  0  0  0  0  0
  138.4903   78.1259  223.4580 H   0  0  0  0  0  0  0  0  0  0  0  0
  138.2900   79.3962  222.2389 H   0  0  0  0  0  0  0  0  0  0  0  0
  137.3454   77.0711  221.6473 H   0  0  0  0  0  0  0  0  0  0  0  0
  138.4902   77.8304  220.4369 H   0  0  0  0  0  0  0  0  0  0  0  0
  138.8035   73.2981  223.2357 H   0  0  0  0  0  0  0  0  0  0  0  0
  141.3829   72.4840  227.0354 H   0  0  0  0  0  0  0  0  0  0  0  0
  141.5222   71.3323  229.2052 H   0  0  0  0  0  0  0  0  0  0  0  0
  140.7217   68.9646  229.4021 H   0  0  0  0  0  0  0  0  0  0  0  0
  139.7930   67.8241  227.3765 H   0  0  0  0  0  0  0  0  0  0  0  0
  1  2  2  0
  2  3  1  0
  3  4  1  0
  4  5  1  0
  5  6  2  0
  6  7  1  0
  7  8  2  0
  8  9  1  0
  9 10  1  0
 10 11  2  0
 10 12  1  0
 12 13  1  0
 13 14  1  0
 14 15  1  0
 15 16  1  0
 16 17  1  0
 17 18  1  0
 18 19  1  0
 19 20  1  0
 15 21  1  0
 21 22  1  0
  9 23  2  0
  4 24  2  0
 24 25  1  0
 25 26  2  0
 26 27  1  0
 27 28  2  0
 28 29  1  0
 29 30  2  0
 30  2  1  0
 23  5  1  0
 30 25  1  0
 22 12  1  0
 20 16  1  0
  3 31  1  0
  3 32  1  0
  6 33  1  0
  7 34  1  0
  8 35  1  0
 13 36  1  0
 13 37  1  0
 14 38  1  0
 14 39  1  0
 15 40  1  0
 17 41  1  0
 17 42  1  0
 18 43  1  0
 18 44  1  0
 19 45  1  0
 19 46  1  0
 20 47  1  0
 20 48  1  0
 21 49  1  0
 21 50  1  0
 22 51  1  0
 22 52  1  0
 23 53  1  0
 26 54  1  0
 27 55  1  0
 28 56  1  0
 29 57  1  0
M  END
>  <smiles>  (35) 
O=C1CC(c2cccc(C(=O)N3CCC(N4CCCC4)CC3)c2)=Nc2ccccc21

>  <score_type>  (35) 
oracle

>  <origin>  (35) 
autodockgpu

>  <m_score__min__energy>  (35) 
-9.6099999999999994

>  <m_primary>  (35) 
energy

>  <rmsd>  (35) 
7.096170382846942

>  <m_score__min__rmsd>  (35) 
7.096170382846942

>  <meeko>  (35) 
{"free_energy": -9.59, "intermolecular_energy": -10.49, "internal_energy": -1.01, "cluster_size": 50, "cluster_id": 1, "rank_in_cluster": 18}

>  <energy>  (35) 
-9.58

>  <cluster_rmsd>  (35) 
1.36

>  <cluster>  (35) 
1

$$$$

     RDKit          3D

 57 61  0  0  0  0  0  0  0  0999 V2000
  139.1990   67.5800  225.1510 O   0  0  0  0  0  0  0  0  0  0  0  0
  139.3660   68.8190  225.0270 C   0  0  0  0  0  0  0  0  0  0  0  0
  138.9320   69.4620  223.7650 C   0  0  0  0  0  0  0  0  0  0  0  0
  139.2280   70.9090  223.8480 C   0  0  0  0  0  0  0  0  0  0  0  0
  138.8770   71.7270  222.6730 C   0  0  0  0  0  0  0  0  0  0  0  0
  137.6140   71.6120  222.1100 C   0  0  0  0  0  0  0  0  0  0  0  0
  137.2490   72.3800  220.9970 C   0  0  0  0  0  0  0  0  0  0  0  0
  138.1770   73.2580  220.4700 C   0  0  0  0  0  0  0  0  0  0  0  0
  139.4400   73.3970  221.0040 C   0  0  0  0  0  0  0  0  0  0  0  0
  140.4470   74.3090  220.4860 C   0  0  0  0  0  0  0  0  0  0  0  0
  141.0210   73.9330  219.4070 O   0  0  0  0  0  0  0  0  0  0  0  0
  140.7960   75.5410  221.1140 N   0  0  0  0  0  0  0  0  0  0  0  0
  140.0930   75.8790  222.3270 C   0  0  0  0  0  0  0  0  0  0  0  0
  139.8700   77.3780  222.3450 C   0  0  0  0  0  0  0  0  0  0  0  0
  141.1620   78.0980  222.0120 C   0  0  0  0  0  0  0  0  0  0  0  0
  141.1610   79.4410  222.4240 N   0  0  0  0  0  0  0  0  0  0  0  0
  141.7950   80.4040  221.5900 C   0  0  0  0  0  0  0  0  0  0  0  0
  141.7730   81.6380  222.5050 C   0  0  0  0  0  0  0  0  0  0  0  0
  142.2940   80.9960  223.7970 C   0  0  0  0  0  0  0  0  0  0  0  0
  141.5050   79.6830  223.7890 C   0  0  0  0  0  0  0  0  0  0  0  0
  141.5780   77.8290  220.5860 C   0  0  0  0  0  0  0  0  0  0  0  0
  141.8140   76.3330  220.4890 C   0  0  0  0  0  0  0  0  0  0  0  0
  139.7450   72.6140  222.1020 C   0  0  0  0  0  0  0  0  0  0  0  0
  139.7620   71.5070  224.8350 N   0  0  0  0  0  0  0  0  0  0  0  0
  140.1670   70.8850  226.0250 C   0  0  0  0  0  0  0  0  0  0  0  0
  140.7460   71.5340  227.0940 C   0  0  0  0  0  0  0  0  0  0  0  0
  141.1330   70.8890  228.2520 C   0  0  0  0  0  0  0  0  0  0  0  0
  140.9340   69.5170  228.3610 C   0  0  0  0  0  0  0  0  0  0  0  0
  140.3490   68.8340  227.2940 C   0  0  0  0  0  0  0  0  0  0  0  0
  139.9740   69.5250  226.1420 C   0  0  0  0  0  0  0  0  0  0  0  0
  139.4764   69.0202  222.9174 H   0  0  0  0  0  0  0  0  0  0  0  0
  137.8534   69.3065  223.6149 H   0  0  0  0  0  0  0  0  0  0  0  0
  136.8891   70.9076  222.5440 H   0  0  0  0  0  0  0  0  0  0  0  0
  136.2471   72.2865  220.5527 H   0  0  0  0  0  0  0  0  0  0  0  0
  137.8987   73.8655  219.5962 H   0  0  0  0  0  0  0  0  0  0  0  0
  139.1244   75.3584  222.3530 H   0  0  0  0  0  0  0  0  0  0  0  0
  140.6815   75.5725  223.2044 H   0  0  0  0  0  0  0  0  0  0  0  0
  139.1039   77.6414  221.6009 H   0  0  0  0  0  0  0  0  0  0  0  0
  139.5354   77.6815  223.3480 H   0  0  0  0  0  0  0  0  0  0  0  0
  141.9742   77.6719  222.6193 H   0  0  0  0  0  0  0  0  0  0  0  0
  142.8232   80.1060  221.3372 H   0  0  0  0  0  0  0  0  0  0  0  0
  141.3084   80.5520  220.6147 H   0  0  0  0  0  0  0  0  0  0  0  0
  142.4419   82.4319  222.1413 H   0  0  0  0  0  0  0  0  0  0  0  0
  140.7999   82.1438  222.5899 H   0  0  0  0  0  0  0  0  0  0  0  0
  143.3788   80.8190  223.7545 H   0  0  0  0  0  0  0  0  0  0  0  0
  142.1598   81.6078  224.7013 H   0  0  0  0  0  0  0  0  0  0  0  0
  142.1247   78.8619  224.1787 H   0  0  0  0  0  0  0  0  0  0  0  0
  140.6103   79.7457  224.4258 H   0  0  0  0  0  0  0  0  0  0  0  0
  140.7813   78.1352  219.8921 H   0  0  0  0  0  0  0  0  0  0  0  0
  142.4821   78.3957  220.3184 H   0  0  0  0  0  0  0  0  0  0  0  0
  141.8614   76.0585  219.4249 H   0  0  0  0  0  0  0  0  0  0  0  0
  142.7529   76.1235  221.0224 H   0  0  0  0  0  0  0  0  0  0  0  0
  140.7481   72.7113  222.5428 H   0  0  0  0  0  0  0  0  0  0  0  0
  140.9079   72.6196  227.0212 H   0  0  0  0  0  0  0  0  0  0  0  0
  141.5925   71.4529  229.0772 H   0  0  0  0  0  0  0  0  0  0  0  0
  141.2327   68.9792  229.2729 H   0  0  0  0  0  0  0  0  0  0  0  0
  140.1833   67.7487  227.3616 H   0  0  0  0  0  0  0  0  0  0  0  0
  1  2  2  0
  2  3  1  0
  3  4  1  0
  4  5  1  0
  5  6  2  0
  6  7  1  0
  7  8  2  0
  8  9  1  0
  9 10  1  0
 10 11  2  0
 10 12  1  0
 12 13  1  0
 13 14  1  0
 14 15  1  0
 15 16  1  0
 16 17  1  0
 17 18  1  0
 18 19  1  0
 19 20  1  0
 15 21  1  0
 21 22  1  0
  9 23  2  0
  4 24  2  0
 24 25  1  0
 25 26  2  0
 26 27  1  0
 27 28  2  0
 28 29  1  0
 29 30  2  0
 30  2  1  0
 23  5  1  0
 30 25  1  0
 22 12  1  0
 20 16  1  0
  3 31  1  0
  3 32  1  0
  6 33  1  0
  7 34  1  0
  8 35  1  0
 13 36  1  0
 13 37  1  0
 14 38  1  0
 14 39  1  0
 15 40  1  0
 17 41  1  0
 17 42  1  0
 18 43  1  0
 18 44  1  0
 19 45  1  0
 19 46  1  0
 20 47  1  0
 20 48  1  0
 21 49  1  0
 21 50  1  0
 22 51  1  0
 22 52  1  0
 23 53  1  0
 26 54  1  0
 27 55  1  0
 28 56  1  0
 29 57  1  0
M  END
>  <smiles>  (36) 
O=C1CC(c2cccc(C(=O)N3CCC(N4CCCC4)CC3)c2)=Nc2ccccc21

>  <score_type>  (36) 
oracle

>  <origin>  (36) 
autodockgpu

>  <m_score__min__energy>  (36) 
-9.6099999999999994

>  <m_primary>  (36) 
energy

>  <rmsd>  (36) 
6.753554752835226

>  <m_score__min__rmsd>  (36) 
6.753554752835226

>  <meeko>  (36) 
{"free_energy": -9.59, "intermolecular_energy": -10.49, "internal_energy": -1.0, "cluster_size": 50, "cluster_id": 1, "rank_in_cluster": 19}

>  <energy>  (36) 
-9.58

>  <cluster_rmsd>  (36) 
0.13

>  <cluster>  (36) 
1

$$$$

     RDKit          3D

 57 61  0  0  0  0  0  0  0  0999 V2000
  139.1990   67.4270  225.0930 O   0  0  0  0  0  0  0  0  0  0  0  0
  139.3560   68.6720  225.0220 C   0  0  0  0  0  0  0  0  0  0  0  0
  138.9050   69.3670  223.7950 C   0  0  0  0  0  0  0  0  0  0  0  0
  139.1920   70.8120  223.9400 C   0  0  0  0  0  0  0  0  0  0  0  0
  138.8240   71.6790  222.8060 C   0  0  0  0  0  0  0  0  0  0  0  0
  137.5310   71.6410  222.3060 C   0  0  0  0  0  0  0  0  0  0  0  0
  137.1490   72.4570  221.2330 C   0  0  0  0  0  0  0  0  0  0  0  0
  138.0920   73.3040  220.6830 C   0  0  0  0  0  0  0  0  0  0  0  0
  139.3850   73.3660  221.1550 C   0  0  0  0  0  0  0  0  0  0  0  0
  140.4090   74.2430  220.6100 C   0  0  0  0  0  0  0  0  0  0  0  0
  141.0060   73.8040  219.5670 O   0  0  0  0  0  0  0  0  0  0  0  0
  140.7500   75.5070  221.1750 N   0  0  0  0  0  0  0  0  0  0  0  0
  140.0230   75.9160  222.3500 C   0  0  0  0  0  0  0  0  0  0  0  0
  139.8070   77.4140  222.2790 C   0  0  0  0  0  0  0  0  0  0  0  0
  141.1100   78.1090  221.9360 C   0  0  0  0  0  0  0  0  0  0  0  0
  141.1080   79.4730  222.2720 N   0  0  0  0  0  0  0  0  0  0  0  0
  141.8210   80.3760  221.4350 C   0  0  0  0  0  0  0  0  0  0  0  0
  141.7580   81.6610  222.2760 C   0  0  0  0  0  0  0  0  0  0  0  0
  142.1700   81.0840  223.6360 C   0  0  0  0  0  0  0  0  0  0  0  0
  141.3570   79.7870  223.6430 C   0  0  0  0  0  0  0  0  0  0  0  0
  141.5580   77.7590  220.5370 C   0  0  0  0  0  0  0  0  0  0  0  0
  141.7870   76.2580  220.5300 C   0  0  0  0  0  0  0  0  0  0  0  0
  139.7050   72.5390  222.2150 C   0  0  0  0  0  0  0  0  0  0  0  0
  139.7330   71.3680  224.9470 N   0  0  0  0  0  0  0  0  0  0  0  0
  140.1540   70.6960  226.1040 C   0  0  0  0  0  0  0  0  0  0  0  0
  140.7400   71.3010  227.1940 C   0  0  0  0  0  0  0  0  0  0  0  0
  141.1430   70.6080  228.3190 C   0  0  0  0  0  0  0  0  0  0  0  0
  140.9550   69.2310  228.3690 C   0  0  0  0  0  0  0  0  0  0  0  0
  140.3630   68.5920  227.2780 C   0  0  0  0  0  0  0  0  0  0  0  0
  139.9720   69.3310  226.1620 C   0  0  0  0  0  0  0  0  0  0  0  0
  139.4438   68.9675  222.9232 H   0  0  0  0  0  0  0  0  0  0  0  0
  137.8261   69.2103  223.6486 H   0  0  0  0  0  0  0  0  0  0  0  0
  136.7947   70.9604  222.7583 H   0  0  0  0  0  0  0  0  0  0  0  0
  136.1229   72.4241  220.8379 H   0  0  0  0  0  0  0  0  0  0  0  0
  137.8011   73.9496  219.8412 H   0  0  0  0  0  0  0  0  0  0  0  0
  139.0514   75.4014  222.3840 H   0  0  0  0  0  0  0  0  0  0  0  0
  140.5910   75.6577  223.2559 H   0  0  0  0  0  0  0  0  0  0  0  0
  139.0594   77.6381  221.5039 H   0  0  0  0  0  0  0  0  0  0  0  0
  139.4510   77.7746  223.2553 H   0  0  0  0  0  0  0  0  0  0  0  0
  141.9048   77.7134  222.5854 H   0  0  0  0  0  0  0  0  0  0  0  0
  142.8585   80.0469  221.2760 H   0  0  0  0  0  0  0  0  0  0  0  0
  141.4100   80.4762  220.4196 H   0  0  0  0  0  0  0  0  0  0  0  0
  142.4681   82.4216  221.9194 H   0  0  0  0  0  0  0  0  0  0  0  0
  140.7923   82.1875  222.2605 H   0  0  0  0  0  0  0  0  0  0  0  0
  143.2511   80.8865  223.6833 H   0  0  0  0  0  0  0  0  0  0  0  0
  141.9831   81.7482  224.4927 H   0  0  0  0  0  0  0  0  0  0  0  0
  141.9294   78.9793  224.1226 H   0  0  0  0  0  0  0  0  0  0  0  0
  140.4199   79.9011  224.2076 H   0  0  0  0  0  0  0  0  0  0  0  0
  140.7798   78.0296  219.8082 H   0  0  0  0  0  0  0  0  0  0  0  0
  142.4713   78.3057  220.2595 H   0  0  0  0  0  0  0  0  0  0  0  0
  141.8570   75.9236  219.4844 H   0  0  0  0  0  0  0  0  0  0  0  0
  142.7121   76.0745  221.0962 H   0  0  0  0  0  0  0  0  0  0  0  0
  140.7323   72.5757  222.6067 H   0  0  0  0  0  0  0  0  0  0  0  0
  140.8947   72.3897  227.1673 H   0  0  0  0  0  0  0  0  0  0  0  0
  141.6064   71.1383  229.1640 H   0  0  0  0  0  0  0  0  0  0  0  0
  141.2673   68.6553  229.2528 H   0  0  0  0  0  0  0  0  0  0  0  0
  140.2047   67.5036  227.2988 H   0  0  0  0  0  0  0  0  0  0  0  0
  1  2  2  0
  2  3  1  0
  3  4  1  0
  4  5  1  0
  5  6  2  0
  6  7  1  0
  7  8  2  0
  8  9  1  0
  9 10  1  0
 10 11  2  0
 10 12  1  0
 12 13  1  0
 13 14  1  0
 14 15  1  0
 15 16  1  0
 16 17  1  0
 17 18  1  0
 18 19  1  0
 19 20  1  0
 15 21  1  0
 21 22  1  0
  9 23  2  0
  4 24  2  0
 24 25  1  0
 25 26  2  0
 26 27  1  0
 27 28  2  0
 28 29  1  0
 29 30  2  0
 30  2  1  0
 23  5  1  0
 30 25  1  0
 22 12  1  0
 20 16  1  0
  3 31  1  0
  3 32  1  0
  6 33  1  0
  7 34  1  0
  8 35  1  0
 13 36  1  0
 13 37  1  0
 14 38  1  0
 14 39  1  0
 15 40  1  0
 17 41  1  0
 17 42  1  0
 18 43  1  0
 18 44  1  0
 19 45  1  0
 19 46  1  0
 20 47  1  0
 20 48  1  0
 21 49  1  0
 21 50  1  0
 22 51  1  0
 22 52  1  0
 23 53  1  0
 26 54  1  0
 27 55  1  0
 28 56  1  0
 29 57  1  0
M  END
>  <smiles>  (37) 
O=C1CC(c2cccc(C(=O)N3CCC(N4CCCC4)CC3)c2)=Nc2ccccc21

>  <score_type>  (37) 
oracle

>  <origin>  (37) 
autodockgpu

>  <m_score__min__energy>  (37) 
-9.6099999999999994

>  <m_primary>  (37) 
energy

>  <rmsd>  (37) 
6.744885995463023

>  <m_score__min__rmsd>  (37) 
6.744885995463023

>  <meeko>  (37) 
{"free_energy": -9.58, "intermolecular_energy": -10.47, "internal_energy": -1.01, "cluster_size": 50, "cluster_id": 1, "rank_in_cluster": 40}

>  <energy>  (37) 
-9.58

>  <cluster_rmsd>  (37) 
0.14

>  <cluster>  (37) 
1

$$$$

     RDKit          3D

 57 61  0  0  0  0  0  0  0  0999 V2000
  139.2130   67.6910  225.0190 O   0  0  0  0  0  0  0  0  0  0  0  0
  139.5800   68.8870  224.8970 C   0  0  0  0  0  0  0  0  0  0  0  0
  139.4610   69.5240  223.5660 C   0  0  0  0  0  0  0  0  0  0  0  0
  139.9500   70.9170  223.6650 C   0  0  0  0  0  0  0  0  0  0  0  0
  139.9240   71.7200  222.4290 C   0  0  0  0  0  0  0  0  0  0  0  0
  140.5590   71.2460  221.2900 C   0  0  0  0  0  0  0  0  0  0  0  0
  140.5470   71.9840  220.0990 C   0  0  0  0  0  0  0  0  0  0  0  0
  139.8860   73.1970  220.0840 C   0  0  0  0  0  0  0  0  0  0  0  0
  139.2450   73.6970  221.1970 C   0  0  0  0  0  0  0  0  0  0  0  0
  138.5350   74.9660  221.2260 C   0  0  0  0  0  0  0  0  0  0  0  0
  137.2750   74.8920  221.0190 O   0  0  0  0  0  0  0  0  0  0  0  0
  139.1680   76.2210  221.4630 N   0  0  0  0  0  0  0  0  0  0  0  0
  140.5930   76.2030  221.6850 C   0  0  0  0  0  0  0  0  0  0  0  0
  140.9260   77.2580  222.7210 C   0  0  0  0  0  0  0  0  0  0  0  0
  140.2490   78.5660  222.3640 C   0  0  0  0  0  0  0  0  0  0  0  0
  140.8330   79.6760  222.9960 N   0  0  0  0  0  0  0  0  0  0  0  0
  141.1830   80.8020  222.1990 C   0  0  0  0  0  0  0  0  0  0  0  0
  141.9800   81.6370  223.2130 C   0  0  0  0  0  0  0  0  0  0  0  0
  142.8910   80.5390  223.7760 C   0  0  0  0  0  0  0  0  0  0  0  0
  141.8830   79.3950  223.9230 C   0  0  0  0  0  0  0  0  0  0  0  0
  138.7470   78.4440  222.4670 C   0  0  0  0  0  0  0  0  0  0  0  0
  138.3380   77.3890  221.4550 C   0  0  0  0  0  0  0  0  0  0  0  0
  139.2900   72.9270  222.3440 C   0  0  0  0  0  0  0  0  0  0  0  0
  140.3960   71.4790  224.7150 N   0  0  0  0  0  0  0  0  0  0  0  0
  140.5020   70.8630  225.9700 C   0  0  0  0  0  0  0  0  0  0  0  0
  140.9860   71.4720  227.1070 C   0  0  0  0  0  0  0  0  0  0  0  0
  141.0760   70.8350  228.3290 C   0  0  0  0  0  0  0  0  0  0  0  0
  140.6610   69.5120  228.4340 C   0  0  0  0  0  0  0  0  0  0  0  0
  140.1650   68.8700  227.2980 C   0  0  0  0  0  0  0  0  0  0  0  0
  140.0930   69.5510  226.0840 C   0  0  0  0  0  0  0  0  0  0  0  0
  140.0668   68.9696  222.8341 H   0  0  0  0  0  0  0  0  0  0  0  0
  138.4112   69.5163  223.2377 H   0  0  0  0  0  0  0  0  0  0  0  0
  141.0791   70.2773  221.3225 H   0  0  0  0  0  0  0  0  0  0  0  0
  141.0518   71.6066  219.1975 H   0  0  0  0  0  0  0  0  0  0  0  0
  139.8708   73.7830  219.1532 H   0  0  0  0  0  0  0  0  0  0  0  0
  140.9000   75.2122  222.0510 H   0  0  0  0  0  0  0  0  0  0  0  0
  141.1258   76.4124  220.7457 H   0  0  0  0  0  0  0  0  0  0  0  0
  140.5744   76.9232  223.7080 H   0  0  0  0  0  0  0  0  0  0  0  0
  142.0152   77.4097  222.7451 H   0  0  0  0  0  0  0  0  0  0  0  0
  140.4348   78.7824  221.3016 H   0  0  0  0  0  0  0  0  0  0  0  0
  141.8028   80.5114  221.3380 H   0  0  0  0  0  0  0  0  0  0  0  0
  140.3261   81.3265  221.7510 H   0  0  0  0  0  0  0  0  0  0  0  0
  142.5546   82.4380  222.7249 H   0  0  0  0  0  0  0  0  0  0  0  0
  141.3753   82.1745  223.9583 H   0  0  0  0  0  0  0  0  0  0  0  0
  143.6991   80.2818  223.0754 H   0  0  0  0  0  0  0  0  0  0  0  0
  143.4189   80.8092  224.7025 H   0  0  0  0  0  0  0  0  0  0  0  0
  142.3586   78.4328  223.6821 H   0  0  0  0  0  0  0  0  0  0  0  0
  141.5033   79.3215  224.9528 H   0  0  0  0  0  0  0  0  0  0  0  0
  138.4584   78.1316  223.4814 H   0  0  0  0  0  0  0  0  0  0  0  0
  138.2518   79.4055  222.2664 H   0  0  0  0  0  0  0  0  0  0  0  0
  137.3051   77.0809  221.6748 H   0  0  0  0  0  0  0  0  0  0  0  0
  138.4410   77.8459  220.4597 H   0  0  0  0  0  0  0  0  0  0  0  0
  138.7845   73.3094  223.2430 H   0  0  0  0  0  0  0  0  0  0  0  0
  141.3175   72.5186  227.0380 H   0  0  0  0  0  0  0  0  0  0  0  0
  141.4706   71.3669  229.2073 H   0  0  0  0  0  0  0  0  0  0  0  0
  140.7225   68.9807  229.3952 H   0  0  0  0  0  0  0  0  0  0  0  0
  139.8301   67.8241  227.3611 H   0  0  0  0  0  0  0  0  0  0  0  0
  1  2  2  0
  2  3  1  0
  3  4  1  0
  4  5  1  0
  5  6  2  0
  6  7  1  0
  7  8  2  0
  8  9  1  0
  9 10  1  0
 10 11  2  0
 10 12  1  0
 12 13  1  0
 13 14  1  0
 14 15  1  0
 15 16  1  0
 16 17  1  0
 17 18  1  0
 18 19  1  0
 19 20  1  0
 15 21  1  0
 21 22  1  0
  9 23  2  0
  4 24  2  0
 24 25  1  0
 25 26  2  0
 26 27  1  0
 27 28  2  0
 28 29  1  0
 29 30  2  0
 30  2  1  0
 23  5  1  0
 30 25  1  0
 22 12  1  0
 20 16  1  0
  3 31  1  0
  3 32  1  0
  6 33  1  0
  7 34  1  0
  8 35  1  0
 13 36  1  0
 13 37  1  0
 14 38  1  0
 14 39  1  0
 15 40  1  0
 17 41  1  0
 17 42  1  0
 18 43  1  0
 18 44  1  0
 19 45  1  0
 19 46  1  0
 20 47  1  0
 20 48  1  0
 21 49  1  0
 21 50  1  0
 22 51  1  0
 22 52  1  0
 23 53  1  0
 26 54  1  0
 27 55  1  0
 28 56  1  0
 29 57  1  0
M  END
>  <smiles>  (38) 
O=C1CC(c2cccc(C(=O)N3CCC(N4CCCC4)CC3)c2)=Nc2ccccc21

>  <score_type>  (38) 
oracle

>  <origin>  (38) 
autodockgpu

>  <m_score__min__energy>  (38) 
-9.6099999999999994

>  <m_primary>  (38) 
energy

>  <rmsd>  (38) 
7.095048228190792

>  <m_score__min__rmsd>  (38) 
7.095048228190792

>  <meeko>  (38) 
{"free_energy": -9.59, "intermolecular_energy": -10.49, "internal_energy": -1.02, "cluster_size": 50, "cluster_id": 1, "rank_in_cluster": 10}

>  <energy>  (38) 
-9.58

>  <cluster_rmsd>  (38) 
0.14

>  <cluster>  (38) 
1

$$$$

     RDKit          3D

 57 61  0  0  0  0  0  0  0  0999 V2000
  139.1980   67.6910  225.0320 O   0  0  0  0  0  0  0  0  0  0  0  0
  139.5480   68.8900  224.8980 C   0  0  0  0  0  0  0  0  0  0  0  0
  139.4050   69.5180  223.5640 C   0  0  0  0  0  0  0  0  0  0  0  0
  139.8780   70.9170  223.6490 C   0  0  0  0  0  0  0  0  0  0  0  0
  139.8260   71.7120  222.4090 C   0  0  0  0  0  0  0  0  0  0  0  0
  140.4310   71.2280  221.2580 C   0  0  0  0  0  0  0  0  0  0  0  0
  140.3950   71.9580  220.0630 C   0  0  0  0  0  0  0  0  0  0  0  0
  139.7390   73.1740  220.0550 C   0  0  0  0  0  0  0  0  0  0  0  0
  139.1280   73.6850  221.1800 C   0  0  0  0  0  0  0  0  0  0  0  0
  138.4260   74.9570  221.2180 C   0  0  0  0  0  0  0  0  0  0  0  0
  137.1650   74.8920  221.0130 O   0  0  0  0  0  0  0  0  0  0  0  0
  139.0670   76.2080  221.4600 N   0  0  0  0  0  0  0  0  0  0  0  0
  140.4920   76.1810  221.6790 C   0  0  0  0  0  0  0  0  0  0  0  0
  140.8330   77.2280  222.7200 C   0  0  0  0  0  0  0  0  0  0  0  0
  140.1630   78.5420  222.3710 C   0  0  0  0  0  0  0  0  0  0  0  0
  140.7550   79.6450  223.0080 N   0  0  0  0  0  0  0  0  0  0  0  0
  141.0610   80.7930  222.2260 C   0  0  0  0  0  0  0  0  0  0  0  0
  141.8830   81.6160  223.2310 C   0  0  0  0  0  0  0  0  0  0  0  0
  142.8280   80.5180  223.7340 C   0  0  0  0  0  0  0  0  0  0  0  0
  141.8420   79.3570  223.8890 C   0  0  0  0  0  0  0  0  0  0  0  0
  138.6600   78.4280  222.4770 C   0  0  0  0  0  0  0  0  0  0  0  0
  138.2440   77.3810  221.4600 C   0  0  0  0  0  0  0  0  0  0  0  0
  139.1960   72.9220  222.3300 C   0  0  0  0  0  0  0  0  0  0  0  0
  140.3300   71.4910  224.6900 N   0  0  0  0  0  0  0  0  0  0  0  0
  140.4580   70.8840  225.9480 C   0  0  0  0  0  0  0  0  0  0  0  0
  140.9490   71.5070  227.0740 C   0  0  0  0  0  0  0  0  0  0  0  0
  141.0620   70.8780  228.2990 C   0  0  0  0  0  0  0  0  0  0  0  0
  140.6650   69.5500  228.4170 C   0  0  0  0  0  0  0  0  0  0  0  0
  140.1640   68.8950  227.2910 C   0  0  0  0  0  0  0  0  0  0  0  0
  140.0680   69.5680  226.0740 C   0  0  0  0  0  0  0  0  0  0  0  0
  140.0086   68.9666  222.8280 H   0  0  0  0  0  0  0  0  0  0  0  0
  138.3514   69.4956  223.2486 H   0  0  0  0  0  0  0  0  0  0  0  0
  140.9465   70.2566  221.2843 H   0  0  0  0  0  0  0  0  0  0  0  0
  140.8775   71.5724  219.1528 H   0  0  0  0  0  0  0  0  0  0  0  0
  139.7032   73.7531  219.1205 H   0  0  0  0  0  0  0  0  0  0  0  0
  140.7943   75.1864  222.0388 H   0  0  0  0  0  0  0  0  0  0  0  0
  141.0240   76.3929  220.7398 H   0  0  0  0  0  0  0  0  0  0  0  0
  140.4810   76.8899  223.7058 H   0  0  0  0  0  0  0  0  0  0  0  0
  141.9231   77.3730  222.7433 H   0  0  0  0  0  0  0  0  0  0  0  0
  140.3477   78.7632  221.3094 H   0  0  0  0  0  0  0  0  0  0  0  0
  141.6534   80.5310  221.3370 H   0  0  0  0  0  0  0  0  0  0  0  0
  140.1818   81.3155  221.8209 H   0  0  0  0  0  0  0  0  0  0  0  0
  142.4288   82.4364  222.7421 H   0  0  0  0  0  0  0  0  0  0  0  0
  141.2987   82.1274  224.0101 H   0  0  0  0  0  0  0  0  0  0  0  0
  143.6136   80.2892  222.9988 H   0  0  0  0  0  0  0  0  0  0  0  0
  143.3852   80.7734  224.6474 H   0  0  0  0  0  0  0  0  0  0  0  0
  142.3214   78.4079  223.6074 H   0  0  0  0  0  0  0  0  0  0  0  0
  141.5012   79.2533  224.9297 H   0  0  0  0  0  0  0  0  0  0  0  0
  138.3718   78.1115  223.4903 H   0  0  0  0  0  0  0  0  0  0  0  0
  138.1693   79.3933  222.2834 H   0  0  0  0  0  0  0  0  0  0  0  0
  137.2097   77.0776  221.6794 H   0  0  0  0  0  0  0  0  0  0  0  0
  138.3489   77.8429  220.4672 H   0  0  0  0  0  0  0  0  0  0  0  0
  138.7132   73.3127  223.2379 H   0  0  0  0  0  0  0  0  0  0  0  0
  141.2668   72.5570  226.9941 H   0  0  0  0  0  0  0  0  0  0  0  0
  141.4605   71.4201  229.1693 H   0  0  0  0  0  0  0  0  0  0  0  0
  140.7445   69.0255  229.3806 H   0  0  0  0  0  0  0  0  0  0  0  0
  139.8441   67.8451  227.3641 H   0  0  0  0  0  0  0  0  0  0  0  0
  1  2  2  0
  2  3  1  0
  3  4  1  0
  4  5  1  0
  5  6  2  0
  6  7  1  0
  7  8  2  0
  8  9  1  0
  9 10  1  0
 10 11  2  0
 10 12  1  0
 12 13  1  0
 13 14  1  0
 14 15  1  0
 15 16  1  0
 16 17  1  0
 17 18  1  0
 18 19  1  0
 19 20  1  0
 15 21  1  0
 21 22  1  0
  9 23  2  0
  4 24  2  0
 24 25  1  0
 25 26  2  0
 26 27  1  0
 27 28  2  0
 28 29  1  0
 29 30  2  0
 30  2  1  0
 23  5  1  0
 30 25  1  0
 22 12  1  0
 20 16  1  0
  3 31  1  0
  3 32  1  0
  6 33  1  0
  7 34  1  0
  8 35  1  0
 13 36  1  0
 13 37  1  0
 14 38  1  0
 14 39  1  0
 15 40  1  0
 17 41  1  0
 17 42  1  0
 18 43  1  0
 18 44  1  0
 19 45  1  0
 19 46  1  0
 20 47  1  0
 20 48  1  0
 21 49  1  0
 21 50  1  0
 22 51  1  0
 22 52  1  0
 23 53  1  0
 26 54  1  0
 27 55  1  0
 28 56  1  0
 29 57  1  0
M  END
>  <smiles>  (39) 
O=C1CC(c2cccc(C(=O)N3CCC(N4CCCC4)CC3)c2)=Nc2ccccc21

>  <score_type>  (39) 
oracle

>  <origin>  (39) 
autodockgpu

>  <m_score__min__energy>  (39) 
-9.6099999999999994

>  <m_primary>  (39) 
energy

>  <rmsd>  (39) 
7.109375497958308

>  <m_score__min__rmsd>  (39) 
7.109375497958308

>  <meeko>  (39) 
{"free_energy": -9.59, "intermolecular_energy": -10.49, "internal_energy": -1.02, "cluster_size": 50, "cluster_id": 1, "rank_in_cluster": 17}

>  <energy>  (39) 
-9.58

>  <cluster_rmsd>  (39) 
0.14

>  <cluster>  (39) 
1

$$$$

     RDKit          3D

 57 61  0  0  0  0  0  0  0  0999 V2000
  139.1090   67.6420  225.0240 O   0  0  0  0  0  0  0  0  0  0  0  0
  139.5080   68.8270  224.9060 C   0  0  0  0  0  0  0  0  0  0  0  0
  139.4060   69.4730  223.5770 C   0  0  0  0  0  0  0  0  0  0  0  0
  139.9340   70.8510  223.6810 C   0  0  0  0  0  0  0  0  0  0  0  0
  139.9290   71.6590  222.4480 C   0  0  0  0  0  0  0  0  0  0  0  0
  140.5910   71.1940  221.3210 C   0  0  0  0  0  0  0  0  0  0  0  0
  140.6000   71.9360  220.1330 C   0  0  0  0  0  0  0  0  0  0  0  0
  139.9330   73.1460  220.1090 C   0  0  0  0  0  0  0  0  0  0  0  0
  139.2660   73.6380  221.2100 C   0  0  0  0  0  0  0  0  0  0  0  0
  138.5500   74.9030  221.2300 C   0  0  0  0  0  0  0  0  0  0  0  0
  137.2900   74.8210  221.0200 O   0  0  0  0  0  0  0  0  0  0  0  0
  139.1750   76.1630  221.4610 N   0  0  0  0  0  0  0  0  0  0  0  0
  140.5990   76.1540  221.6880 C   0  0  0  0  0  0  0  0  0  0  0  0
  140.9230   77.2170  222.7180 C   0  0  0  0  0  0  0  0  0  0  0  0
  140.2400   78.5200  222.3510 C   0  0  0  0  0  0  0  0  0  0  0  0
  140.8170   79.6360  222.9790 N   0  0  0  0  0  0  0  0  0  0  0  0
  141.1100   80.7810  222.1860 C   0  0  0  0  0  0  0  0  0  0  0  0
  141.9180   81.6240  223.1840 C   0  0  0  0  0  0  0  0  0  0  0  0
  142.8760   80.5440  223.7010 C   0  0  0  0  0  0  0  0  0  0  0  0
  141.9050   79.3710  223.8650 C   0  0  0  0  0  0  0  0  0  0  0  0
  138.7390   78.3900  222.4510 C   0  0  0  0  0  0  0  0  0  0  0  0
  138.3390   77.3270  221.4440 C   0  0  0  0  0  0  0  0  0  0  0  0
  139.2910   72.8630  222.3550 C   0  0  0  0  0  0  0  0  0  0  0  0
  140.3960   71.3960  224.7330 N   0  0  0  0  0  0  0  0  0  0  0  0
  140.4850   70.7730  225.9860 C   0  0  0  0  0  0  0  0  0  0  0  0
  140.9860   71.3640  227.1250 C   0  0  0  0  0  0  0  0  0  0  0  0
  141.0590   70.7200  228.3440 C   0  0  0  0  0  0  0  0  0  0  0  0
  140.6070   69.4080  228.4440 C   0  0  0  0  0  0  0  0  0  0  0  0
  140.0940   68.7840  227.3060 C   0  0  0  0  0  0  0  0  0  0  0  0
  140.0400   69.4720  226.0940 C   0  0  0  0  0  0  0  0  0  0  0  0
  139.9953   68.9047  222.8424 H   0  0  0  0  0  0  0  0  0  0  0  0
  138.3561   69.4963  223.2497 H   0  0  0  0  0  0  0  0  0  0  0  0
  141.1165   70.2285  221.3609 H   0  0  0  0  0  0  0  0  0  0  0  0
  141.1253   71.5645  219.2408 H   0  0  0  0  0  0  0  0  0  0  0  0
  139.9345   73.7359  219.1805 H   0  0  0  0  0  0  0  0  0  0  0  0
  140.9099   75.1671  222.0614 H   0  0  0  0  0  0  0  0  0  0  0  0
  141.1339   76.3603  220.7492 H   0  0  0  0  0  0  0  0  0  0  0  0
  140.5701   76.8864  223.7060 H   0  0  0  0  0  0  0  0  0  0  0  0
  142.0113   77.3747  222.7441 H   0  0  0  0  0  0  0  0  0  0  0  0
  140.4269   78.7323  221.2880 H   0  0  0  0  0  0  0  0  0  0  0  0
  141.7080   80.5181  221.3010 H   0  0  0  0  0  0  0  0  0  0  0  0
  140.2250   81.2878  221.7738 H   0  0  0  0  0  0  0  0  0  0  0  0
  142.4544   82.4464  222.6881 H   0  0  0  0  0  0  0  0  0  0  0  0
  141.3247   82.1354  223.9564 H   0  0  0  0  0  0  0  0  0  0  0  0
  143.6669   80.3183  222.9706 H   0  0  0  0  0  0  0  0  0  0  0  0
  143.4268   80.8162  224.6134 H   0  0  0  0  0  0  0  0  0  0  0  0
  142.3978   78.4257  223.5936 H   0  0  0  0  0  0  0  0  0  0  0  0
  141.5631   79.2726  224.9059 H   0  0  0  0  0  0  0  0  0  0  0  0
  138.4496   78.0817  223.4665 H   0  0  0  0  0  0  0  0  0  0  0  0
  138.2386   79.3475  222.2439 H   0  0  0  0  0  0  0  0  0  0  0  0
  137.3071   77.0148  221.6623 H   0  0  0  0  0  0  0  0  0  0  0  0
  138.4432   77.7788  220.4465 H   0  0  0  0  0  0  0  0  0  0  0  0
  138.7651   73.2391  223.2449 H   0  0  0  0  0  0  0  0  0  0  0  0
  141.3460   72.4014  227.0600 H   0  0  0  0  0  0  0  0  0  0  0  0
  141.4689   71.2371  229.2241 H   0  0  0  0  0  0  0  0  0  0  0  0
  140.6532   68.8718  229.4034 H   0  0  0  0  0  0  0  0  0  0  0  0
  139.7314   67.7472  227.3650 H   0  0  0  0  0  0  0  0  0  0  0  0
  1  2  2  0
  2  3  1  0
  3  4  1  0
  4  5  1  0
  5  6  2  0
  6  7  1  0
  7  8  2  0
  8  9  1  0
  9 10  1  0
 10 11  2  0
 10 12  1  0
 12 13  1  0
 13 14  1  0
 14 15  1  0
 15 16  1  0
 16 17  1  0
 17 18  1  0
 18 19  1  0
 19 20  1  0
 15 21  1  0
 21 22  1  0
  9 23  2  0
  4 24  2  0
 24 25  1  0
 25 26  2  0
 26 27  1  0
 27 28  2  0
 28 29  1  0
 29 30  2  0
 30  2  1  0
 23  5  1  0
 30 25  1  0
 22 12  1  0
 20 16  1  0
  3 31  1  0
  3 32  1  0
  6 33  1  0
  7 34  1  0
  8 35  1  0
 13 36  1  0
 13 37  1  0
 14 38  1  0
 14 39  1  0
 15 40  1  0
 17 41  1  0
 17 42  1  0
 18 43  1  0
 18 44  1  0
 19 45  1  0
 19 46  1  0
 20 47  1  0
 20 48  1  0
 21 49  1  0
 21 50  1  0
 22 51  1  0
 22 52  1  0
 23 53  1  0
 26 54  1  0
 27 55  1  0
 28 56  1  0
 29 57  1  0
M  END
>  <smiles>  (40) 
O=C1CC(c2cccc(C(=O)N3CCC(N4CCCC4)CC3)c2)=Nc2ccccc21

>  <score_type>  (40) 
oracle

>  <origin>  (40) 
autodockgpu

>  <m_score__min__energy>  (40) 
-9.6099999999999994

>  <m_primary>  (40) 
energy

>  <rmsd>  (40) 
7.12004498131774

>  <m_score__min__rmsd>  (40) 
7.12004498131774

>  <meeko>  (40) 
{"free_energy": -9.59, "intermolecular_energy": -10.49, "internal_energy": -1.01, "cluster_size": 50, "cluster_id": 1, "rank_in_cluster": 9}

>  <energy>  (40) 
-9.58

>  <cluster_rmsd>  (40) 
1.36

>  <cluster>  (40) 
1

$$$$

     RDKit          3D

 57 61  0  0  0  0  0  0  0  0999 V2000
  139.2010   67.7120  225.0380 O   0  0  0  0  0  0  0  0  0  0  0  0
  139.5650   68.9070  224.8980 C   0  0  0  0  0  0  0  0  0  0  0  0
  139.4280   69.5300  223.5620 C   0  0  0  0  0  0  0  0  0  0  0  0
  139.9160   70.9240  223.6390 C   0  0  0  0  0  0  0  0  0  0  0  0
  139.8730   71.7130  222.3950 C   0  0  0  0  0  0  0  0  0  0  0  0
  140.4730   71.2170  221.2470 C   0  0  0  0  0  0  0  0  0  0  0  0
  140.4440   71.9410  220.0480 C   0  0  0  0  0  0  0  0  0  0  0  0
  139.8020   73.1650  220.0340 C   0  0  0  0  0  0  0  0  0  0  0  0
  139.1960   73.6880  221.1570 C   0  0  0  0  0  0  0  0  0  0  0  0
  138.5080   74.9680  221.1890 C   0  0  0  0  0  0  0  0  0  0  0  0
  137.2500   74.9170  220.9650 O   0  0  0  0  0  0  0  0  0  0  0  0
  139.1590   76.2100  221.4450 N   0  0  0  0  0  0  0  0  0  0  0  0
  140.5800   76.1660  221.6850 C   0  0  0  0  0  0  0  0  0  0  0  0
  140.9180   77.2050  222.7350 C   0  0  0  0  0  0  0  0  0  0  0  0
  140.2670   78.5280  222.3800 C   0  0  0  0  0  0  0  0  0  0  0  0
  140.8630   79.6220  223.0310 N   0  0  0  0  0  0  0  0  0  0  0  0
  141.0310   80.8320  222.3010 C   0  0  0  0  0  0  0  0  0  0  0  0
  141.9040   81.6380  223.2750 C   0  0  0  0  0  0  0  0  0  0  0  0
  142.9490   80.5670  223.6120 C   0  0  0  0  0  0  0  0  0  0  0  0
  142.0440   79.3440  223.7830 C   0  0  0  0  0  0  0  0  0  0  0  0
  138.7630   78.4310  222.4640 C   0  0  0  0  0  0  0  0  0  0  0  0
  138.3490   77.3920  221.4370 C   0  0  0  0  0  0  0  0  0  0  0  0
  139.2560   72.9290  222.3110 C   0  0  0  0  0  0  0  0  0  0  0  0
  140.3750   71.4980  224.6770 N   0  0  0  0  0  0  0  0  0  0  0  0
  140.4980   70.8960  225.9380 C   0  0  0  0  0  0  0  0  0  0  0  0
  140.9950   71.5180  227.0610 C   0  0  0  0  0  0  0  0  0  0  0  0
  141.1020   70.8940  228.2890 C   0  0  0  0  0  0  0  0  0  0  0  0
  140.6900   69.5720  228.4140 C   0  0  0  0  0  0  0  0  0  0  0  0
  140.1810   68.9170  227.2920 C   0  0  0  0  0  0  0  0  0  0  0  0
  140.0920   69.5840  226.0710 C   0  0  0  0  0  0  0  0  0  0  0  0
  140.0249   68.9684  222.8283 H   0  0  0  0  0  0  0  0  0  0  0  0
  138.3738   69.5177  223.2480 H   0  0  0  0  0  0  0  0  0  0  0  0
  140.9791   70.2408  221.2785 H   0  0  0  0  0  0  0  0  0  0  0  0
  140.9208   71.5448  219.1393 H   0  0  0  0  0  0  0  0  0  0  0  0
  139.7735   73.7404  219.0970 H   0  0  0  0  0  0  0  0  0  0  0  0
  140.8655   75.1667  222.0453 H   0  0  0  0  0  0  0  0  0  0  0  0
  141.1280   76.3755  220.7545 H   0  0  0  0  0  0  0  0  0  0  0  0
  140.5480   76.8676  223.7144 H   0  0  0  0  0  0  0  0  0  0  0  0
  142.0092   77.3375  222.7754 H   0  0  0  0  0  0  0  0  0  0  0  0
  140.4682   78.7505  221.3217 H   0  0  0  0  0  0  0  0  0  0  0  0
  141.5457   80.6593  221.3443 H   0  0  0  0  0  0  0  0  0  0  0  0
  140.0904   81.3265  222.0170 H   0  0  0  0  0  0  0  0  0  0  0  0
  142.3562   82.5166  222.7918 H   0  0  0  0  0  0  0  0  0  0  0  0
  141.3739   82.0669  224.1381 H   0  0  0  0  0  0  0  0  0  0  0  0
  143.6689   80.4288  222.7918 H   0  0  0  0  0  0  0  0  0  0  0  0
  143.5797   80.7979  224.4832 H   0  0  0  0  0  0  0  0  0  0  0  0
  142.5413   78.4429  223.3948 H   0  0  0  0  0  0  0  0  0  0  0  0
  141.8134   79.1577  224.8423 H   0  0  0  0  0  0  0  0  0  0  0  0
  138.4567   78.1144  223.4720 H   0  0  0  0  0  0  0  0  0  0  0  0
  138.2864   79.4026  222.2668 H   0  0  0  0  0  0  0  0  0  0  0  0
  137.3083   77.0996  221.6408 H   0  0  0  0  0  0  0  0  0  0  0  0
  138.4724   77.8558  220.4472 H   0  0  0  0  0  0  0  0  0  0  0  0
  138.7775   73.3288  223.2172 H   0  0  0  0  0  0  0  0  0  0  0  0
  141.3234   72.5644  226.9764 H   0  0  0  0  0  0  0  0  0  0  0  0
  141.5077   71.4358  229.1561 H   0  0  0  0  0  0  0  0  0  0  0  0
  140.7640   69.0516  229.3803 H   0  0  0  0  0  0  0  0  0  0  0  0
  139.8490   67.8713  227.3711 H   0  0  0  0  0  0  0  0  0  0  0  0
  1  2  2  0
  2  3  1  0
  3  4  1  0
  4  5  1  0
  5  6  2  0
  6  7  1  0
  7  8  2  0
  8  9  1  0
  9 10  1  0
 10 11  2  0
 10 12  1  0
 12 13  1  0
 13 14  1  0
 14 15  1  0
 15 16  1  0
 16 17  1  0
 17 18  1  0
 18 19  1  0
 19 20  1  0
 15 21  1  0
 21 22  1  0
  9 23  2  0
  4 24  2  0
 24 25  1  0
 25 26  2  0
 26 27  1  0
 27 28  2  0
 28 29  1  0
 29 30  2  0
 30  2  1  0
 23  5  1  0
 30 25  1  0
 22 12  1  0
 20 16  1  0
  3 31  1  0
  3 32  1  0
  6 33  1  0
  7 34  1  0
  8 35  1  0
 13 36  1  0
 13 37  1  0
 14 38  1  0
 14 39  1  0
 15 40  1  0
 17 41  1  0
 17 42  1  0
 18 43  1  0
 18 44  1  0
 19 45  1  0
 19 46  1  0
 20 47  1  0
 20 48  1  0
 21 49  1  0
 21 50  1  0
 22 51  1  0
 22 52  1  0
 23 53  1  0
 26 54  1  0
 27 55  1  0
 28 56  1  0
 29 57  1  0
M  END
>  <smiles>  (41) 
O=C1CC(c2cccc(C(=O)N3CCC(N4CCCC4)CC3)c2)=Nc2ccccc21

>  <score_type>  (41) 
oracle

>  <origin>  (41) 
autodockgpu

>  <m_score__min__energy>  (41) 
-9.6099999999999994

>  <m_primary>  (41) 
energy

>  <rmsd>  (41) 
7.1029253219731086

>  <m_score__min__rmsd>  (41) 
7.1029253219731086

>  <meeko>  (41) 
{"free_energy": -9.58, "intermolecular_energy": -10.47, "internal_energy": -1.02, "cluster_size": 50, "cluster_id": 1, "rank_in_cluster": 38}

>  <energy>  (41) 
-9.57

>  <cluster_rmsd>  (41) 
1.36

>  <cluster>  (41) 
1

$$$$

     RDKit          3D

 57 61  0  0  0  0  0  0  0  0999 V2000
  139.1900   67.4310  225.0880 O   0  0  0  0  0  0  0  0  0  0  0  0
  139.3500   68.6750  225.0110 C   0  0  0  0  0  0  0  0  0  0  0  0
  138.9080   69.3640  223.7760 C   0  0  0  0  0  0  0  0  0  0  0  0
  139.1970   70.8080  223.9130 C   0  0  0  0  0  0  0  0  0  0  0  0
  138.8380   71.6690  222.7720 C   0  0  0  0  0  0  0  0  0  0  0  0
  137.5510   71.6210  222.2560 C   0  0  0  0  0  0  0  0  0  0  0  0
  137.1780   72.4310  221.1750 C   0  0  0  0  0  0  0  0  0  0  0  0
  138.1230   73.2810  220.6330 C   0  0  0  0  0  0  0  0  0  0  0  0
  139.4100   73.3530  221.1210 C   0  0  0  0  0  0  0  0  0  0  0  0
  140.4360   74.2340  220.5860 C   0  0  0  0  0  0  0  0  0  0  0  0
  141.0310   73.8050  219.5380 O   0  0  0  0  0  0  0  0  0  0  0  0
  140.7800   75.4900  221.1640 N   0  0  0  0  0  0  0  0  0  0  0  0
  140.0540   75.8880  222.3450 C   0  0  0  0  0  0  0  0  0  0  0  0
  139.8420   77.3870  222.2910 C   0  0  0  0  0  0  0  0  0  0  0  0
  141.1470   78.0820  221.9550 C   0  0  0  0  0  0  0  0  0  0  0  0
  141.1480   79.4430  222.3060 N   0  0  0  0  0  0  0  0  0  0  0  0
  141.8530   80.3550  221.4730 C   0  0  0  0  0  0  0  0  0  0  0  0
  141.7980   81.6300  222.3290 C   0  0  0  0  0  0  0  0  0  0  0  0
  142.2220   81.0390  223.6790 C   0  0  0  0  0  0  0  0  0  0  0  0
  141.4090   79.7410  223.6780 C   0  0  0  0  0  0  0  0  0  0  0  0
  141.5930   77.7470  220.5520 C   0  0  0  0  0  0  0  0  0  0  0  0
  141.8180   76.2460  220.5280 C   0  0  0  0  0  0  0  0  0  0  0  0
  139.7220   72.5320  222.1880 C   0  0  0  0  0  0  0  0  0  0  0  0
  139.7310   71.3710  224.9210 N   0  0  0  0  0  0  0  0  0  0  0  0
  140.1430   70.7050  226.0850 C   0  0  0  0  0  0  0  0  0  0  0  0
  140.7220   71.3160  227.1760 C   0  0  0  0  0  0  0  0  0  0  0  0
  141.1160   70.6290  228.3080 C   0  0  0  0  0  0  0  0  0  0  0  0
  140.9250   69.2530  228.3650 C   0  0  0  0  0  0  0  0  0  0  0  0
  140.3400   68.6090  227.2740 C   0  0  0  0  0  0  0  0  0  0  0  0
  139.9580   69.3410  226.1500 C   0  0  0  0  0  0  0  0  0  0  0  0
  139.4513   68.9577  222.9101 H   0  0  0  0  0  0  0  0  0  0  0  0
  137.8296   69.2090  223.6242 H   0  0  0  0  0  0  0  0  0  0  0  0
  136.8131   70.9376  222.7016 H   0  0  0  0  0  0  0  0  0  0  0  0
  136.1570   72.3911  220.7676 H   0  0  0  0  0  0  0  0  0  0  0  0
  137.8390   73.9209  219.7846 H   0  0  0  0  0  0  0  0  0  0  0  0
  139.0810   75.3756  222.3737 H   0  0  0  0  0  0  0  0  0  0  0  0
  140.6218   75.6180  223.2476 H   0  0  0  0  0  0  0  0  0  0  0  0
  139.0946   77.6219  221.5189 H   0  0  0  0  0  0  0  0  0  0  0  0
  139.4874   77.7377  223.2714 H   0  0  0  0  0  0  0  0  0  0  0  0
  141.9412   77.6768  222.5992 H   0  0  0  0  0  0  0  0  0  0  0  0
  142.8889   80.0277  221.3006 H   0  0  0  0  0  0  0  0  0  0  0  0
  141.4326   80.4668  220.4627 H   0  0  0  0  0  0  0  0  0  0  0  0
  142.5050   82.3945  221.9743 H   0  0  0  0  0  0  0  0  0  0  0  0
  140.8320   82.1562  222.3281 H   0  0  0  0  0  0  0  0  0  0  0  0
  143.3035   80.8416  223.7150 H   0  0  0  0  0  0  0  0  0  0  0  0
  142.0425   81.6936  224.5446 H   0  0  0  0  0  0  0  0  0  0  0  0
  141.9859   78.9280  224.1430 H   0  0  0  0  0  0  0  0  0  0  0  0
  140.4769   79.8482  224.2521 H   0  0  0  0  0  0  0  0  0  0  0  0
  140.8149   78.0279  219.8269 H   0  0  0  0  0  0  0  0  0  0  0  0
  142.5075   78.2945  220.2799 H   0  0  0  0  0  0  0  0  0  0  0  0
  141.8872   75.9235  219.4786 H   0  0  0  0  0  0  0  0  0  0  0  0
  142.7424   76.0541  221.0924 H   0  0  0  0  0  0  0  0  0  0  0  0
  140.7443   72.5759  222.5918 H   0  0  0  0  0  0  0  0  0  0  0  0
  140.8782   72.4044  227.1440 H   0  0  0  0  0  0  0  0  0  0  0  0
  141.5747   71.1635  229.1529 H   0  0  0  0  0  0  0  0  0  0  0  0
  141.2297   68.6820  229.2545 H   0  0  0  0  0  0  0  0  0  0  0  0
  140.1797   67.5211  227.3006 H   0  0  0  0  0  0  0  0  0  0  0  0
  1  2  2  0
  2  3  1  0
  3  4  1  0
  4  5  1  0
  5  6  2  0
  6  7  1  0
  7  8  2  0
  8  9  1  0
  9 10  1  0
 10 11  2  0
 10 12  1  0
 12 13  1  0
 13 14  1  0
 14 15  1  0
 15 16  1  0
 16 17  1  0
 17 18  1  0
 18 19  1  0
 19 20  1  0
 15 21  1  0
 21 22  1  0
  9 23  2  0
  4 24  2  0
 24 25  1  0
 25 26  2  0
 26 27  1  0
 27 28  2  0
 28 29  1  0
 29 30  2  0
 30  2  1  0
 23  5  1  0
 30 25  1  0
 22 12  1  0
 20 16  1  0
  3 31  1  0
  3 32  1  0
  6 33  1  0
  7 34  1  0
  8 35  1  0
 13 36  1  0
 13 37  1  0
 14 38  1  0
 14 39  1  0
 15 40  1  0
 17 41  1  0
 17 42  1  0
 18 43  1  0
 18 44  1  0
 19 45  1  0
 19 46  1  0
 20 47  1  0
 20 48  1  0
 21 49  1  0
 21 50  1  0
 22 51  1  0
 22 52  1  0
 23 53  1  0
 26 54  1  0
 27 55  1  0
 28 56  1  0
 29 57  1  0
M  END
>  <smiles>  (42) 
O=C1CC(c2cccc(C(=O)N3CCC(N4CCCC4)CC3)c2)=Nc2ccccc21

>  <score_type>  (42) 
oracle

>  <origin>  (42) 
autodockgpu

>  <m_score__min__energy>  (42) 
-9.6099999999999994

>  <m_primary>  (42) 
energy

>  <rmsd>  (42) 
6.756451616107413

>  <m_score__min__rmsd>  (42) 
6.756451616107413

>  <meeko>  (42) 
{"free_energy": -9.59, "intermolecular_energy": -10.48, "internal_energy": -1.01, "cluster_size": 50, "cluster_id": 1, "rank_in_cluster": 26}

>  <energy>  (42) 
-9.57

>  <cluster_rmsd>  (42) 
0.16

>  <cluster>  (42) 
1

$$$$

     RDKit          3D

 57 61  0  0  0  0  0  0  0  0999 V2000
  139.1890   67.6900  225.0370 O   0  0  0  0  0  0  0  0  0  0  0  0
  139.5640   68.8810  224.8990 C   0  0  0  0  0  0  0  0  0  0  0  0
  139.4450   69.5030  223.5610 C   0  0  0  0  0  0  0  0  0  0  0  0
  139.9450   70.8930  223.6410 C   0  0  0  0  0  0  0  0  0  0  0  0
  139.9190   71.6820  222.3970 C   0  0  0  0  0  0  0  0  0  0  0  0
  140.5440   71.1890  221.2600 C   0  0  0  0  0  0  0  0  0  0  0  0
  140.5330   71.9120  220.0610 C   0  0  0  0  0  0  0  0  0  0  0  0
  139.8840   73.1320  220.0340 C   0  0  0  0  0  0  0  0  0  0  0  0
  139.2540   73.6520  221.1450 C   0  0  0  0  0  0  0  0  0  0  0  0
  138.5580   74.9280  221.1630 C   0  0  0  0  0  0  0  0  0  0  0  0
  137.3020   74.8680  220.9280 O   0  0  0  0  0  0  0  0  0  0  0  0
  139.1990   76.1750  221.4190 N   0  0  0  0  0  0  0  0  0  0  0  0
  140.6180   76.1410  221.6730 C   0  0  0  0  0  0  0  0  0  0  0  0
  140.9390   77.1890  222.7200 C   0  0  0  0  0  0  0  0  0  0  0  0
  140.2840   78.5060  222.3520 C   0  0  0  0  0  0  0  0  0  0  0  0
  140.8660   79.6070  223.0020 N   0  0  0  0  0  0  0  0  0  0  0  0
  141.0570   80.8060  222.2600 C   0  0  0  0  0  0  0  0  0  0  0  0
  141.9080   81.6220  223.2450 C   0  0  0  0  0  0  0  0  0  0  0  0
  142.9400   80.5530  223.6240 C   0  0  0  0  0  0  0  0  0  0  0  0
  142.0260   79.3350  223.7880 C   0  0  0  0  0  0  0  0  0  0  0  0
  138.7790   78.3990  222.4220 C   0  0  0  0  0  0  0  0  0  0  0  0
  138.3820   77.3530  221.3970 C   0  0  0  0  0  0  0  0  0  0  0  0
  139.2970   72.8940  222.3000 C   0  0  0  0  0  0  0  0  0  0  0  0
  140.3990   71.4640  224.6830 N   0  0  0  0  0  0  0  0  0  0  0  0
  140.5040   70.8620  225.9450 C   0  0  0  0  0  0  0  0  0  0  0  0
  140.9970   71.4810  227.0730 C   0  0  0  0  0  0  0  0  0  0  0  0
  141.0870   70.8580  228.3020 C   0  0  0  0  0  0  0  0  0  0  0  0
  140.6620   69.5390  228.4240 C   0  0  0  0  0  0  0  0  0  0  0  0
  140.1580   68.8870  227.2980 C   0  0  0  0  0  0  0  0  0  0  0  0
  140.0870   69.5550  226.0760 C   0  0  0  0  0  0  0  0  0  0  0  0
  140.0437   68.9350  222.8337 H   0  0  0  0  0  0  0  0  0  0  0  0
  138.3938   69.4996  223.2370 H   0  0  0  0  0  0  0  0  0  0  0  0
  141.0555   70.2160  221.3015 H   0  0  0  0  0  0  0  0  0  0  0  0
  141.0292   71.5183  219.1617 H   0  0  0  0  0  0  0  0  0  0  0  0
  139.8696   73.7066  219.0961 H   0  0  0  0  0  0  0  0  0  0  0  0
  140.9061   75.1457  222.0424 H   0  0  0  0  0  0  0  0  0  0  0  0
  141.1740   76.3478  220.7467 H   0  0  0  0  0  0  0  0  0  0  0  0
  140.5616   76.8549  223.6977 H   0  0  0  0  0  0  0  0  0  0  0  0
  142.0290   77.3287  222.7693 H   0  0  0  0  0  0  0  0  0  0  0  0
  140.4951   78.7249  221.2949 H   0  0  0  0  0  0  0  0  0  0  0  0
  141.5952   80.6184  221.3192 H   0  0  0  0  0  0  0  0  0  0  0  0
  140.1259   81.2998  221.9452 H   0  0  0  0  0  0  0  0  0  0  0  0
  142.3758   82.4923  222.7615 H   0  0  0  0  0  0  0  0  0  0  0  0
  141.3573   82.0642  224.0883 H   0  0  0  0  0  0  0  0  0  0  0  0
  143.6807   80.4012  222.8250 H   0  0  0  0  0  0  0  0  0  0  0  0
  143.5486   80.7939  224.5081 H   0  0  0  0  0  0  0  0  0  0  0  0
  142.5298   78.4271  223.4249 H   0  0  0  0  0  0  0  0  0  0  0  0
  141.7674   79.1636  224.8433 H   0  0  0  0  0  0  0  0  0  0  0  0
  138.4652   78.0852  223.4285 H   0  0  0  0  0  0  0  0  0  0  0  0
  138.2979   79.3663  222.2152 H   0  0  0  0  0  0  0  0  0  0  0  0
  137.3410   77.0556  221.5917 H   0  0  0  0  0  0  0  0  0  0  0  0
  138.5131   77.8126  220.4063 H   0  0  0  0  0  0  0  0  0  0  0  0
  138.7993   73.2916  223.1968 H   0  0  0  0  0  0  0  0  0  0  0  0
  141.3360   72.5242  226.9903 H   0  0  0  0  0  0  0  0  0  0  0  0
  141.4891   71.3971  229.1724 H   0  0  0  0  0  0  0  0  0  0  0  0
  140.7222   69.0190  229.3915 H   0  0  0  0  0  0  0  0  0  0  0  0
  139.8161   67.8443  227.3744 H   0  0  0  0  0  0  0  0  0  0  0  0
  1  2  2  0
  2  3  1  0
  3  4  1  0
  4  5  1  0
  5  6  2  0
  6  7  1  0
  7  8  2  0
  8  9  1  0
  9 10  1  0
 10 11  2  0
 10 12  1  0
 12 13  1  0
 13 14  1  0
 14 15  1  0
 15 16  1  0
 16 17  1  0
 17 18  1  0
 18 19  1  0
 19 20  1  0
 15 21  1  0
 21 22  1  0
  9 23  2  0
  4 24  2  0
 24 25  1  0
 25 26  2  0
 26 27  1  0
 27 28  2  0
 28 29  1  0
 29 30  2  0
 30  2  1  0
 23  5  1  0
 30 25  1  0
 22 12  1  0
 20 16  1  0
  3 31  1  0
  3 32  1  0
  6 33  1  0
  7 34  1  0
  8 35  1  0
 13 36  1  0
 13 37  1  0
 14 38  1  0
 14 39  1  0
 15 40  1  0
 17 41  1  0
 17 42  1  0
 18 43  1  0
 18 44  1  0
 19 45  1  0
 19 46  1  0
 20 47  1  0
 20 48  1  0
 21 49  1  0
 21 50  1  0
 22 51  1  0
 22 52  1  0
 23 53  1  0
 26 54  1  0
 27 55  1  0
 28 56  1  0
 29 57  1  0
M  END
>  <smiles>  (43) 
O=C1CC(c2cccc(C(=O)N3CCC(N4CCCC4)CC3)c2)=Nc2ccccc21

>  <score_type>  (43) 
oracle

>  <origin>  (43) 
autodockgpu

>  <m_score__min__energy>  (43) 
-9.6099999999999994

>  <m_primary>  (43) 
energy

>  <rmsd>  (43) 
7.10941381426781

>  <m_score__min__rmsd>  (43) 
7.10941381426781

>  <meeko>  (43) 
{"free_energy": -9.58, "intermolecular_energy": -10.48, "internal_energy": -1.01, "cluster_size": 50, "cluster_id": 1, "rank_in_cluster": 31}

>  <energy>  (43) 
-9.57

>  <cluster_rmsd>  (43) 
0.09

>  <cluster>  (43) 
1

$$$$

     RDKit          3D

 57 61  0  0  0  0  0  0  0  0999 V2000
  139.1740   67.7210  225.1310 O   0  0  0  0  0  0  0  0  0  0  0  0
  139.5100   68.9180  224.9550 C   0  0  0  0  0  0  0  0  0  0  0  0
  139.3250   69.5080  223.6090 C   0  0  0  0  0  0  0  0  0  0  0  0
  139.7890   70.9130  223.6420 C   0  0  0  0  0  0  0  0  0  0  0  0
  139.6960   71.6730  222.3830 C   0  0  0  0  0  0  0  0  0  0  0  0
  140.2170   71.1320  221.2160 C   0  0  0  0  0  0  0  0  0  0  0  0
  140.1400   71.8280  220.0030 C   0  0  0  0  0  0  0  0  0  0  0  0
  139.5320   73.0690  219.9930 C   0  0  0  0  0  0  0  0  0  0  0  0
  139.0050   73.6350  221.1340 C   0  0  0  0  0  0  0  0  0  0  0  0
  138.3540   74.9350  221.1710 C   0  0  0  0  0  0  0  0  0  0  0  0
  137.0940   74.9220  220.9490 O   0  0  0  0  0  0  0  0  0  0  0  0
  139.0410   76.1570  221.4310 N   0  0  0  0  0  0  0  0  0  0  0  0
  140.4610   76.0700  221.6690 C   0  0  0  0  0  0  0  0  0  0  0  0
  140.8300   77.0960  222.7220 C   0  0  0  0  0  0  0  0  0  0  0  0
  140.2180   78.4380  222.3730 C   0  0  0  0  0  0  0  0  0  0  0  0
  140.8450   79.5120  223.0260 N   0  0  0  0  0  0  0  0  0  0  0  0
  140.8760   80.7760  222.3730 C   0  0  0  0  0  0  0  0  0  0  0  0
  141.8300   81.5530  223.2930 C   0  0  0  0  0  0  0  0  0  0  0  0
  142.9490   80.5130  223.4220 C   0  0  0  0  0  0  0  0  0  0  0  0
  142.1200   79.2390  223.6090 C   0  0  0  0  0  0  0  0  0  0  0  0
  138.7110   78.3840  222.4580 C   0  0  0  0  0  0  0  0  0  0  0  0
  138.2660   77.3620  221.4280 C   0  0  0  0  0  0  0  0  0  0  0  0
  139.1090   72.9030  222.3020 C   0  0  0  0  0  0  0  0  0  0  0  0
  140.2640   71.5180  224.6540 N   0  0  0  0  0  0  0  0  0  0  0  0
  140.4320   70.9470  225.9240 C   0  0  0  0  0  0  0  0  0  0  0  0
  140.9480   71.6040  227.0200 C   0  0  0  0  0  0  0  0  0  0  0  0
  141.0990   71.0100  228.2570 C   0  0  0  0  0  0  0  0  0  0  0  0
  140.7160   69.6830  228.4220 C   0  0  0  0  0  0  0  0  0  0  0  0
  140.1900   68.9940  227.3290 C   0  0  0  0  0  0  0  0  0  0  0  0
  140.0560   69.6320  226.0970 C   0  0  0  0  0  0  0  0  0  0  0  0
  139.9123   68.9409  222.8718 H   0  0  0  0  0  0  0  0  0  0  0  0
  138.2632   69.4693  223.3242 H   0  0  0  0  0  0  0  0  0  0  0  0
  140.6971   70.1427  221.2441 H   0  0  0  0  0  0  0  0  0  0  0  0
  140.5539   71.3968  219.0796 H   0  0  0  0  0  0  0  0  0  0  0  0
  139.4665   73.6225  219.0447 H   0  0  0  0  0  0  0  0  0  0  0  0
  140.7173   75.0616  222.0261 H   0  0  0  0  0  0  0  0  0  0  0  0
  141.0142   76.2655  220.7386 H   0  0  0  0  0  0  0  0  0  0  0  0
  140.4515   76.7662  223.7008 H   0  0  0  0  0  0  0  0  0  0  0  0
  141.9247   77.1968  222.7608 H   0  0  0  0  0  0  0  0  0  0  0  0
  140.4258   78.6583  221.3155 H   0  0  0  0  0  0  0  0  0  0  0  0
  141.2760   80.6941  221.3516 H   0  0  0  0  0  0  0  0  0  0  0  0
  139.8895   81.2442  222.2407 H   0  0  0  0  0  0  0  0  0  0  0  0
  142.1850   82.4836  222.8261 H   0  0  0  0  0  0  0  0  0  0  0  0
  141.3934   81.8950  224.2430 H   0  0  0  0  0  0  0  0  0  0  0  0
  143.5675   80.4662  222.5136 H   0  0  0  0  0  0  0  0  0  0  0  0
  143.6725   80.7131  224.2261 H   0  0  0  0  0  0  0  0  0  0  0  0
  142.6006   78.3915  223.0983 H   0  0  0  0  0  0  0  0  0  0  0  0
  142.0286   78.9692  224.6715 H   0  0  0  0  0  0  0  0  0  0  0  0
  138.3966   78.0725  223.4650 H   0  0  0  0  0  0  0  0  0  0  0  0
  138.2627   79.3697  222.2647 H   0  0  0  0  0  0  0  0  0  0  0  0
  137.2174   77.0995  221.6317 H   0  0  0  0  0  0  0  0  0  0  0  0
  138.4020   77.8257  220.4398 H   0  0  0  0  0  0  0  0  0  0  0  0
  138.6933   73.3382  223.2227 H   0  0  0  0  0  0  0  0  0  0  0  0
  141.2548   72.6539  226.9034 H   0  0  0  0  0  0  0  0  0  0  0  0
  141.5167   71.5786  229.1010 H   0  0  0  0  0  0  0  0  0  0  0  0
  140.8259   69.1857  229.3970 H   0  0  0  0  0  0  0  0  0  0  0  0
  139.8801   67.9444  227.4397 H   0  0  0  0  0  0  0  0  0  0  0  0
  1  2  2  0
  2  3  1  0
  3  4  1  0
  4  5  1  0
  5  6  2  0
  6  7  1  0
  7  8  2  0
  8  9  1  0
  9 10  1  0
 10 11  2  0
 10 12  1  0
 12 13  1  0
 13 14  1  0
 14 15  1  0
 15 16  1  0
 16 17  1  0
 17 18  1  0
 18 19  1  0
 19 20  1  0
 15 21  1  0
 21 22  1  0
  9 23  2  0
  4 24  2  0
 24 25  1  0
 25 26  2  0
 26 27  1  0
 27 28  2  0
 28 29  1  0
 29 30  2  0
 30  2  1  0
 23  5  1  0
 30 25  1  0
 22 12  1  0
 20 16  1  0
  3 31  1  0
  3 32  1  0
  6 33  1  0
  7 34  1  0
  8 35  1  0
 13 36  1  0
 13 37  1  0
 14 38  1  0
 14 39  1  0
 15 40  1  0
 17 41  1  0
 17 42  1  0
 18 43  1  0
 18 44  1  0
 19 45  1  0
 19 46  1  0
 20 47  1  0
 20 48  1  0
 21 49  1  0
 21 50  1  0
 22 51  1  0
 22 52  1  0
 23 53  1  0
 26 54  1  0
 27 55  1  0
 28 56  1  0
 29 57  1  0
M  END
>  <smiles>  (44) 
O=C1CC(c2cccc(C(=O)N3CCC(N4CCCC4)CC3)c2)=Nc2ccccc21

>  <score_type>  (44) 
oracle

>  <origin>  (44) 
autodockgpu

>  <m_score__min__energy>  (44) 
-9.6099999999999994

>  <m_primary>  (44) 
energy

>  <rmsd>  (44) 
7.1393656597179005

>  <m_score__min__rmsd>  (44) 
7.1393656597179005

>  <meeko>  (44) 
{"free_energy": -9.53, "intermolecular_energy": -10.42, "internal_energy": -1.02, "cluster_size": 50, "cluster_id": 1, "rank_in_cluster": 47}

>  <energy>  (44) 
-9.56

>  <cluster_rmsd>  (44) 
1.36

>  <cluster>  (44) 
1

$$$$

     RDKit          3D

 57 61  0  0  0  0  0  0  0  0999 V2000
  139.1980   67.7780  225.3500 O   0  0  0  0  0  0  0  0  0  0  0  0
  139.4540   68.9740  225.0600 C   0  0  0  0  0  0  0  0  0  0  0  0
  139.1310   69.4490  223.6950 C   0  0  0  0  0  0  0  0  0  0  0  0
  139.5190   70.8720  223.5870 C   0  0  0  0  0  0  0  0  0  0  0  0
  139.2870   71.5280  222.2880 C   0  0  0  0  0  0  0  0  0  0  0  0
  138.1650   71.1960  221.5440 C   0  0  0  0  0  0  0  0  0  0  0  0
  137.9130   71.8060  220.3080 C   0  0  0  0  0  0  0  0  0  0  0  0
  138.8110   72.7490  219.8450 C   0  0  0  0  0  0  0  0  0  0  0  0
  139.9360   73.1020  220.5590 C   0  0  0  0  0  0  0  0  0  0  0  0
  140.9050   74.0900  220.1140 C   0  0  0  0  0  0  0  0  0  0  0  0
  141.5450   73.7880  219.0490 O   0  0  0  0  0  0  0  0  0  0  0  0
  141.1530   75.3180  220.7950 N   0  0  0  0  0  0  0  0  0  0  0  0
  140.3830   75.5710  221.9880 C   0  0  0  0  0  0  0  0  0  0  0  0
  140.0670   77.0520  222.0460 C   0  0  0  0  0  0  0  0  0  0  0  0
  141.3250   77.8590  221.7920 C   0  0  0  0  0  0  0  0  0  0  0  0
  141.2260   79.1850  222.2470 N   0  0  0  0  0  0  0  0  0  0  0  0
  141.8070   80.2160  221.4570 C   0  0  0  0  0  0  0  0  0  0  0  0
  141.6850   81.4140  222.4110 C   0  0  0  0  0  0  0  0  0  0  0  0
  142.2260   80.7660  223.6920 C   0  0  0  0  0  0  0  0  0  0  0  0
  141.5290   79.4030  223.6250 C   0  0  0  0  0  0  0  0  0  0  0  0
  141.8150   77.6670  220.3760 C   0  0  0  0  0  0  0  0  0  0  0  0
  142.1450   76.1910  220.2410 C   0  0  0  0  0  0  0  0  0  0  0  0
  140.1330   72.4680  221.7710 C   0  0  0  0  0  0  0  0  0  0  0  0
  140.0400   71.5760  224.5100 N   0  0  0  0  0  0  0  0  0  0  0  0
  140.3380   71.1130  225.8000 C   0  0  0  0  0  0  0  0  0  0  0  0
  140.9020   71.8760  226.7980 C   0  0  0  0  0  0  0  0  0  0  0  0
  141.1830   71.3870  228.0590 C   0  0  0  0  0  0  0  0  0  0  0  0
  140.8870   70.0590  228.3510 C   0  0  0  0  0  0  0  0  0  0  0  0
  140.3140   69.2630  227.3580 C   0  0  0  0  0  0  0  0  0  0  0  0
  140.0490   69.7980  226.0980 C   0  0  0  0  0  0  0  0  0  0  0  0
  139.6878   68.8558  222.9547 H   0  0  0  0  0  0  0  0  0  0  0  0
  138.0536   69.3374  223.5032 H   0  0  0  0  0  0  0  0  0  0  0  0
  137.4624   70.4427  221.9298 H   0  0  0  0  0  0  0  0  0  0  0  0
  137.0218   71.5407  219.7203 H   0  0  0  0  0  0  0  0  0  0  0  0
  138.6219   73.2334  218.8757 H   0  0  0  0  0  0  0  0  0  0  0  0
  139.4481   74.9923  221.9568 H   0  0  0  0  0  0  0  0  0  0  0  0
  140.9546   75.2706  222.8785 H   0  0  0  0  0  0  0  0  0  0  0  0
  139.3168   77.2951  221.2791 H   0  0  0  0  0  0  0  0  0  0  0  0
  139.6736   77.2993  223.0430 H   0  0  0  0  0  0  0  0  0  0  0  0
  142.1352   77.4593  222.4196 H   0  0  0  0  0  0  0  0  0  0  0  0
  142.8574   79.9969  221.2147 H   0  0  0  0  0  0  0  0  0  0  0  0
  141.3284   80.3635  220.4776 H   0  0  0  0  0  0  0  0  0  0  0  0
  142.3044   82.2631  222.0863 H   0  0  0  0  0  0  0  0  0  0  0  0
  140.6782   81.8494  222.4931 H   0  0  0  0  0  0  0  0  0  0  0  0
  143.3210   80.6648  223.6657 H   0  0  0  0  0  0  0  0  0  0  0  0
  142.0342   81.3363  224.6128 H   0  0  0  0  0  0  0  0  0  0  0  0
  142.1968   78.6131  223.9994 H   0  0  0  0  0  0  0  0  0  0  0  0
  140.6212   79.3830  224.2459 H   0  0  0  0  0  0  0  0  0  0  0  0
  141.0304   77.9499  219.6589 H   0  0  0  0  0  0  0  0  0  0  0  0
  142.6927   78.2958  220.1658 H   0  0  0  0  0  0  0  0  0  0  0  0
  142.2528   75.9573  219.1715 H   0  0  0  0  0  0  0  0  0  0  0  0
  143.0718   76.0194  220.8081 H   0  0  0  0  0  0  0  0  0  0  0  0
  141.0255   72.7366  222.3552 H   0  0  0  0  0  0  0  0  0  0  0  0
  141.1407   72.9275  226.5802 H   0  0  0  0  0  0  0  0  0  0  0  0
  141.6345   72.0384  228.8218 H   0  0  0  0  0  0  0  0  0  0  0  0
  141.1009   69.6439  229.3470 H   0  0  0  0  0  0  0  0  0  0  0  0
  140.0709   68.2113  227.5699 H   0  0  0  0  0  0  0  0  0  0  0  0
  1  2  2  0
  2  3  1  0
  3  4  1  0
  4  5  1  0
  5  6  2  0
  6  7  1  0
  7  8  2  0
  8  9  1  0
  9 10  1  0
 10 11  2  0
 10 12  1  0
 12 13  1  0
 13 14  1  0
 14 15  1  0
 15 16  1  0
 16 17  1  0
 17 18  1  0
 18 19  1  0
 19 20  1  0
 15 21  1  0
 21 22  1  0
  9 23  2  0
  4 24  2  0
 24 25  1  0
 25 26  2  0
 26 27  1  0
 27 28  2  0
 28 29  1  0
 29 30  2  0
 30  2  1  0
 23  5  1  0
 30 25  1  0
 22 12  1  0
 20 16  1  0
  3 31  1  0
  3 32  1  0
  6 33  1  0
  7 34  1  0
  8 35  1  0
 13 36  1  0
 13 37  1  0
 14 38  1  0
 14 39  1  0
 15 40  1  0
 17 41  1  0
 17 42  1  0
 18 43  1  0
 18 44  1  0
 19 45  1  0
 19 46  1  0
 20 47  1  0
 20 48  1  0
 21 49  1  0
 21 50  1  0
 22 51  1  0
 22 52  1  0
 23 53  1  0
 26 54  1  0
 27 55  1  0
 28 56  1  0
 29 57  1  0
M  END
>  <smiles>  (45) 
O=C1CC(c2cccc(C(=O)N3CCC(N4CCCC4)CC3)c2)=Nc2ccccc21

>  <score_type>  (45) 
oracle

>  <origin>  (45) 
autodockgpu

>  <m_score__min__energy>  (45) 
-9.6099999999999994

>  <m_primary>  (45) 
energy

>  <rmsd>  (45) 
6.933519741955369

>  <m_score__min__rmsd>  (45) 
6.933519741955369

>  <meeko>  (45) 
{"free_energy": -9.48, "intermolecular_energy": -10.38, "internal_energy": -0.98, "cluster_size": 50, "cluster_id": 1, "rank_in_cluster": 49}

>  <energy>  (45) 
-9.55

>  <cluster_rmsd>  (45) 
0.13

>  <cluster>  (45) 
1

$$$$

     RDKit          3D

 57 61  0  0  0  0  0  0  0  0999 V2000
  139.2200   67.3880  225.1870 O   0  0  0  0  0  0  0  0  0  0  0  0
  139.3680   68.6320  225.0890 C   0  0  0  0  0  0  0  0  0  0  0  0
  138.9010   69.2980  223.8510 C   0  0  0  0  0  0  0  0  0  0  0  0
  139.1800   70.7460  223.9610 C   0  0  0  0  0  0  0  0  0  0  0  0
  138.7960   71.5860  222.8130 C   0  0  0  0  0  0  0  0  0  0  0  0
  137.5000   71.5240  222.3220 C   0  0  0  0  0  0  0  0  0  0  0  0
  137.1020   72.3140  221.2350 C   0  0  0  0  0  0  0  0  0  0  0  0
  138.0330   73.1600  220.6620 C   0  0  0  0  0  0  0  0  0  0  0  0
  139.3280   73.2460  221.1240 C   0  0  0  0  0  0  0  0  0  0  0  0
  140.3390   74.1220  220.5550 C   0  0  0  0  0  0  0  0  0  0  0  0
  140.8850   73.7000  219.4780 O   0  0  0  0  0  0  0  0  0  0  0  0
  140.7210   75.3690  221.1330 N   0  0  0  0  0  0  0  0  0  0  0  0
  140.0490   75.7600  222.3480 C   0  0  0  0  0  0  0  0  0  0  0  0
  139.8500   77.2620  222.3190 C   0  0  0  0  0  0  0  0  0  0  0  0
  141.1470   77.9480  221.9360 C   0  0  0  0  0  0  0  0  0  0  0  0
  141.1770   79.3050  222.3020 N   0  0  0  0  0  0  0  0  0  0  0  0
  142.0320   80.1810  221.5770 C   0  0  0  0  0  0  0  0  0  0  0  0
  141.9370   81.4520  222.4360 C   0  0  0  0  0  0  0  0  0  0  0  0
  142.1510   80.8300  223.8210 C   0  0  0  0  0  0  0  0  0  0  0  0
  141.2740   79.5800  223.6990 C   0  0  0  0  0  0  0  0  0  0  0  0
  141.5300   77.6240  220.5110 C   0  0  0  0  0  0  0  0  0  0  0  0
  141.7390   76.1220  220.4610 C   0  0  0  0  0  0  0  0  0  0  0  0
  139.6640   72.4440  222.1990 C   0  0  0  0  0  0  0  0  0  0  0  0
  139.7260   71.3280  224.9510 N   0  0  0  0  0  0  0  0  0  0  0  0
  140.1620   70.6850  226.1190 C   0  0  0  0  0  0  0  0  0  0  0  0
  140.7540   71.3160  227.1900 C   0  0  0  0  0  0  0  0  0  0  0  0
  141.1720   70.6500  228.3260 C   0  0  0  0  0  0  0  0  0  0  0  0
  140.9940   69.2740  228.4070 C   0  0  0  0  0  0  0  0  0  0  0  0
  140.3960   68.6080  227.3360 C   0  0  0  0  0  0  0  0  0  0  0  0
  139.9900   69.3200  226.2080 C   0  0  0  0  0  0  0  0  0  0  0  0
  139.4340   68.8827  222.9830 H   0  0  0  0  0  0  0  0  0  0  0  0
  137.8217   69.1319  223.7188 H   0  0  0  0  0  0  0  0  0  0  0  0
  136.7741   70.8448  222.7928 H   0  0  0  0  0  0  0  0  0  0  0  0
  136.0739   72.2621  220.8473 H   0  0  0  0  0  0  0  0  0  0  0  0
  137.7299   73.7851  219.8091 H   0  0  0  0  0  0  0  0  0  0  0  0
  139.0730   75.2566  222.4119 H   0  0  0  0  0  0  0  0  0  0  0  0
  140.6510   75.4741  223.2231 H   0  0  0  0  0  0  0  0  0  0  0  0
  139.0734   77.5127  221.5815 H   0  0  0  0  0  0  0  0  0  0  0  0
  139.5402   77.6053  223.3171 H   0  0  0  0  0  0  0  0  0  0  0  0
  141.9637   77.5281  222.5415 H   0  0  0  0  0  0  0  0  0  0  0  0
  143.0621   79.7975  221.5339 H   0  0  0  0  0  0  0  0  0  0  0  0
  141.7517   80.3218  220.5227 H   0  0  0  0  0  0  0  0  0  0  0  0
  142.7243   82.1780  222.1850 H   0  0  0  0  0  0  0  0  0  0  0  0
  141.0093   82.0312  222.3185 H   0  0  0  0  0  0  0  0  0  0  0  0
  143.2064   80.5714  223.9922 H   0  0  0  0  0  0  0  0  0  0  0  0
  141.8986   81.4886  224.6652 H   0  0  0  0  0  0  0  0  0  0  0  0
  141.7397   78.7331  224.2242 H   0  0  0  0  0  0  0  0  0  0  0  0
  140.2828   79.7366  224.1495 H   0  0  0  0  0  0  0  0  0  0  0  0
  140.7247   77.9202  219.8228 H   0  0  0  0  0  0  0  0  0  0  0  0
  142.4376   78.1658  220.2064 H   0  0  0  0  0  0  0  0  0  0  0  0
  141.7601   75.8106  219.4062 H   0  0  0  0  0  0  0  0  0  0  0  0
  142.6849   75.9148  220.9828 H   0  0  0  0  0  0  0  0  0  0  0  0
  140.6931   72.5002  222.5834 H   0  0  0  0  0  0  0  0  0  0  0  0
  140.9015   72.4049  227.1386 H   0  0  0  0  0  0  0  0  0  0  0  0
  141.6394   71.2014  229.1552 H   0  0  0  0  0  0  0  0  0  0  0  0
  141.3188   68.7194  229.2997 H   0  0  0  0  0  0  0  0  0  0  0  0
  140.2447   67.5194  227.3819 H   0  0  0  0  0  0  0  0  0  0  0  0
  1  2  2  0
  2  3  1  0
  3  4  1  0
  4  5  1  0
  5  6  2  0
  6  7  1  0
  7  8  2  0
  8  9  1  0
  9 10  1  0
 10 11  2  0
 10 12  1  0
 12 13  1  0
 13 14  1  0
 14 15  1  0
 15 16  1  0
 16 17  1  0
 17 18  1  0
 18 19  1  0
 19 20  1  0
 15 21  1  0
 21 22  1  0
  9 23  2  0
  4 24  2  0
 24 25  1  0
 25 26  2  0
 26 27  1  0
 27 28  2  0
 28 29  1  0
 29 30  2  0
 30  2  1  0
 23  5  1  0
 30 25  1  0
 22 12  1  0
 20 16  1  0
  3 31  1  0
  3 32  1  0
  6 33  1  0
  7 34  1  0
  8 35  1  0
 13 36  1  0
 13 37  1  0
 14 38  1  0
 14 39  1  0
 15 40  1  0
 17 41  1  0
 17 42  1  0
 18 43  1  0
 18 44  1  0
 19 45  1  0
 19 46  1  0
 20 47  1  0
 20 48  1  0
 21 49  1  0
 21 50  1  0
 22 51  1  0
 22 52  1  0
 23 53  1  0
 26 54  1  0
 27 55  1  0
 28 56  1  0
 29 57  1  0
M  END
>  <smiles>  (46) 
O=C1CC(c2cccc(C(=O)N3CCC(N4CCCC4)CC3)c2)=Nc2ccccc21

>  <score_type>  (46) 
oracle

>  <origin>  (46) 
autodockgpu

>  <m_score__min__energy>  (46) 
-9.6099999999999994

>  <m_primary>  (46) 
energy

>  <rmsd>  (46) 
6.806795473680944

>  <m_score__min__rmsd>  (46) 
6.806795473680944

>  <meeko>  (46) 
{"free_energy": -9.52, "intermolecular_energy": -10.41, "internal_energy": -1.0, "cluster_size": 50, "cluster_id": 1, "rank_in_cluster": 48}

>  <energy>  (46) 
-9.55

>  <cluster_rmsd>  (46) 
0.16

>  <cluster>  (46) 
1

$$$$

     RDKit          3D

 57 61  0  0  0  0  0  0  0  0999 V2000
  139.2000   67.6490  225.0080 O   0  0  0  0  0  0  0  0  0  0  0  0
  139.5530   68.8460  224.8630 C   0  0  0  0  0  0  0  0  0  0  0  0
  139.3950   69.4670  223.5270 C   0  0  0  0  0  0  0  0  0  0  0  0
  139.8760   70.8640  223.5980 C   0  0  0  0  0  0  0  0  0  0  0  0
  139.8110   71.6530  222.3540 C   0  0  0  0  0  0  0  0  0  0  0  0
  140.3780   71.1480  221.1930 C   0  0  0  0  0  0  0  0  0  0  0  0
  140.3290   71.8710  219.9940 C   0  0  0  0  0  0  0  0  0  0  0  0
  139.7000   73.1020  219.9930 C   0  0  0  0  0  0  0  0  0  0  0  0
  139.1280   73.6330  221.1290 C   0  0  0  0  0  0  0  0  0  0  0  0
  138.4550   74.9210  221.1750 C   0  0  0  0  0  0  0  0  0  0  0  0
  137.1930   74.8860  220.9660 O   0  0  0  0  0  0  0  0  0  0  0  0
  139.1240   76.1540  221.4300 N   0  0  0  0  0  0  0  0  0  0  0  0
  140.5470   76.0920  221.6530 C   0  0  0  0  0  0  0  0  0  0  0  0
  140.9090   77.1230  222.7040 C   0  0  0  0  0  0  0  0  0  0  0  0
  140.2700   78.4550  222.3640 C   0  0  0  0  0  0  0  0  0  0  0  0
  140.8860   79.5390  223.0120 N   0  0  0  0  0  0  0  0  0  0  0  0
  140.9990   80.7700  222.3100 C   0  0  0  0  0  0  0  0  0  0  0  0
  141.9130   81.5610  223.2580 C   0  0  0  0  0  0  0  0  0  0  0  0
  142.9880   80.4960  223.5080 C   0  0  0  0  0  0  0  0  0  0  0  0
  142.1090   79.2560  223.6920 C   0  0  0  0  0  0  0  0  0  0  0  0
  138.7650   78.3740  222.4640 C   0  0  0  0  0  0  0  0  0  0  0  0
  138.3280   77.3460  221.4370 C   0  0  0  0  0  0  0  0  0  0  0  0
  139.2070   72.8760  222.2830 C   0  0  0  0  0  0  0  0  0  0  0  0
  140.3440   71.4420  224.6300 N   0  0  0  0  0  0  0  0  0  0  0  0
  140.4860   70.8420  225.8890 C   0  0  0  0  0  0  0  0  0  0  0  0
  140.9930   71.4680  227.0060 C   0  0  0  0  0  0  0  0  0  0  0  0
  141.1190   70.8460  228.2320 C   0  0  0  0  0  0  0  0  0  0  0  0
  140.7180   69.5210  228.3630 C   0  0  0  0  0  0  0  0  0  0  0  0
  140.1990   68.8620  227.2480 C   0  0  0  0  0  0  0  0  0  0  0  0
  140.0910   69.5280  226.0280 C   0  0  0  0  0  0  0  0  0  0  0  0
  139.9859   68.9085  222.7861 H   0  0  0  0  0  0  0  0  0  0  0  0
  138.3373   69.4478  223.2255 H   0  0  0  0  0  0  0  0  0  0  0  0
  140.8731   70.1660  221.2141 H   0  0  0  0  0  0  0  0  0  0  0  0
  140.7804   71.4687  219.0751 H   0  0  0  0  0  0  0  0  0  0  0  0
  139.6545   73.6760  219.0557 H   0  0  0  0  0  0  0  0  0  0  0  0
  140.8249   75.0878  222.0057 H   0  0  0  0  0  0  0  0  0  0  0  0
  141.0869   76.2988  220.7172 H   0  0  0  0  0  0  0  0  0  0  0  0
  140.5466   76.7851  223.6861 H   0  0  0  0  0  0  0  0  0  0  0  0
  142.0021   77.2429  222.7313 H   0  0  0  0  0  0  0  0  0  0  0  0
  140.4623   78.6816  221.3049 H   0  0  0  0  0  0  0  0  0  0  0  0
  141.4633   80.6314  221.3225 H   0  0  0  0  0  0  0  0  0  0  0  0
  140.0381   81.2588  222.0915 H   0  0  0  0  0  0  0  0  0  0  0  0
  142.3274   82.4589  222.7762 H   0  0  0  0  0  0  0  0  0  0  0  0
  141.4250   81.9585  224.1601 H   0  0  0  0  0  0  0  0  0  0  0  0
  143.6645   80.3909  222.6470 H   0  0  0  0  0  0  0  0  0  0  0  0
  143.6616   80.7114  224.3505 H   0  0  0  0  0  0  0  0  0  0  0  0
  142.5959   78.3731  223.2522 H   0  0  0  0  0  0  0  0  0  0  0  0
  141.9380   79.0365  224.7562 H   0  0  0  0  0  0  0  0  0  0  0  0
  138.4664   78.0554  223.4736 H   0  0  0  0  0  0  0  0  0  0  0  0
  138.2973   79.3519  222.2769 H   0  0  0  0  0  0  0  0  0  0  0  0
  137.2862   77.0650  221.6506 H   0  0  0  0  0  0  0  0  0  0  0  0
  138.4465   77.8136  220.4484 H   0  0  0  0  0  0  0  0  0  0  0  0
  138.7560   73.2834  223.1999 H   0  0  0  0  0  0  0  0  0  0  0  0
  141.3137   72.5164  226.9168 H   0  0  0  0  0  0  0  0  0  0  0  0
  141.5312   71.3913  229.0938 H   0  0  0  0  0  0  0  0  0  0  0  0
  140.8083   69.0016  229.3285 H   0  0  0  0  0  0  0  0  0  0  0  0
  139.8743   67.8144  227.3318 H   0  0  0  0  0  0  0  0  0  0  0  0
  1  2  2  0
  2  3  1  0
  3  4  1  0
  4  5  1  0
  5  6  2  0
  6  7  1  0
  7  8  2  0
  8  9  1  0
  9 10  1  0
 10 11  2  0
 10 12  1  0
 12 13  1  0
 13 14  1  0
 14 15  1  0
 15 16  1  0
 16 17  1  0
 17 18  1  0
 18 19  1  0
 19 20  1  0
 15 21  1  0
 21 22  1  0
  9 23  2  0
  4 24  2  0
 24 25  1  0
 25 26  2  0
 26 27  1  0
 27 28  2  0
 28 29  1  0
 29 30  2  0
 30  2  1  0
 23  5  1  0
 30 25  1  0
 22 12  1  0
 20 16  1  0
  3 31  1  0
  3 32  1  0
  6 33  1  0
  7 34  1  0
  8 35  1  0
 13 36  1  0
 13 37  1  0
 14 38  1  0
 14 39  1  0
 15 40  1  0
 17 41  1  0
 17 42  1  0
 18 43  1  0
 18 44  1  0
 19 45  1  0
 19 46  1  0
 20 47  1  0
 20 48  1  0
 21 49  1  0
 21 50  1  0
 22 51  1  0
 22 52  1  0
 23 53  1  0
 26 54  1  0
 27 55  1  0
 28 56  1  0
 29 57  1  0
M  END
>  <smiles>  (47) 
O=C1CC(c2cccc(C(=O)N3CCC(N4CCCC4)CC3)c2)=Nc2ccccc21

>  <score_type>  (47) 
oracle

>  <origin>  (47) 
autodockgpu

>  <m_score__min__energy>  (47) 
-9.6099999999999994

>  <m_primary>  (47) 
energy

>  <rmsd>  (47) 
7.129666016834425

>  <m_score__min__rmsd>  (47) 
7.129666016834425

>  <meeko>  (47) 
{"free_energy": -9.55, "intermolecular_energy": -10.44, "internal_energy": -1.02, "cluster_size": 50, "cluster_id": 1, "rank_in_cluster": 46}

>  <energy>  (47) 
-9.53

>  <cluster_rmsd>  (47) 
0.25

>  <cluster>  (47) 
1

$$$$

     RDKit          3D

 57 61  0  0  0  0  0  0  0  0999 V2000
  139.2020   67.6160  225.0090 O   0  0  0  0  0  0  0  0  0  0  0  0
  139.5680   68.8120  224.8900 C   0  0  0  0  0  0  0  0  0  0  0  0
  139.4430   69.4560  223.5630 C   0  0  0  0  0  0  0  0  0  0  0  0
  139.9330   70.8480  223.6660 C   0  0  0  0  0  0  0  0  0  0  0  0
  139.9010   71.6570  222.4340 C   0  0  0  0  0  0  0  0  0  0  0  0
  140.5340   71.1900  221.2910 C   0  0  0  0  0  0  0  0  0  0  0  0
  140.5170   71.9340  220.1040 C   0  0  0  0  0  0  0  0  0  0  0  0
  139.8530   73.1450  220.0960 C   0  0  0  0  0  0  0  0  0  0  0  0
  139.2140   73.6390  221.2140 C   0  0  0  0  0  0  0  0  0  0  0  0
  138.5010   74.9050  221.2520 C   0  0  0  0  0  0  0  0  0  0  0  0
  137.2400   74.8280  221.0540 O   0  0  0  0  0  0  0  0  0  0  0  0
  139.1330   76.1620  221.4860 N   0  0  0  0  0  0  0  0  0  0  0  0
  140.5600   76.1470  221.6970 C   0  0  0  0  0  0  0  0  0  0  0  0
  140.8980   77.2000  222.7330 C   0  0  0  0  0  0  0  0  0  0  0  0
  140.2150   78.5080  222.3840 C   0  0  0  0  0  0  0  0  0  0  0  0
  140.8020   79.6180  223.0140 N   0  0  0  0  0  0  0  0  0  0  0  0
  141.0520   80.7820  222.2370 C   0  0  0  0  0  0  0  0  0  0  0  0
  141.8870   81.6140  223.2220 C   0  0  0  0  0  0  0  0  0  0  0  0
  142.8760   80.5340  223.6800 C   0  0  0  0  0  0  0  0  0  0  0  0
  141.9240   79.3460  223.8540 C   0  0  0  0  0  0  0  0  0  0  0  0
  138.7140   78.3810  222.4990 C   0  0  0  0  0  0  0  0  0  0  0  0
  138.3000   77.3280  221.4870 C   0  0  0  0  0  0  0  0  0  0  0  0
  139.2640   72.8620  222.3570 C   0  0  0  0  0  0  0  0  0  0  0  0
  140.3850   71.4040  224.7160 N   0  0  0  0  0  0  0  0  0  0  0  0
  140.4960   70.7820  225.9680 C   0  0  0  0  0  0  0  0  0  0  0  0
  140.9860   71.3860  227.1060 C   0  0  0  0  0  0  0  0  0  0  0  0
  141.0820   70.7430  228.3240 C   0  0  0  0  0  0  0  0  0  0  0  0
  140.6670   69.4190  228.4240 C   0  0  0  0  0  0  0  0  0  0  0  0
  140.1650   68.7830  227.2880 C   0  0  0  0  0  0  0  0  0  0  0  0
  140.0880   69.4700  226.0770 C   0  0  0  0  0  0  0  0  0  0  0  0
  140.0449   68.9049  222.8254 H   0  0  0  0  0  0  0  0  0  0  0  0
  138.3914   69.4507  223.2402 H   0  0  0  0  0  0  0  0  0  0  0  0
  141.0564   70.2223  221.3172 H   0  0  0  0  0  0  0  0  0  0  0  0
  141.0207   71.5623  219.1995 H   0  0  0  0  0  0  0  0  0  0  0  0
  139.8331   73.7348  219.1677 H   0  0  0  0  0  0  0  0  0  0  0  0
  140.8724   75.1560  222.0581 H   0  0  0  0  0  0  0  0  0  0  0  0
  141.0851   76.3601  220.7542 H   0  0  0  0  0  0  0  0  0  0  0  0
  140.5543   76.8619  223.7217 H   0  0  0  0  0  0  0  0  0  0  0  0
  141.9870   77.3542  222.7495 H   0  0  0  0  0  0  0  0  0  0  0  0
  140.3914   78.7286  221.3209 H   0  0  0  0  0  0  0  0  0  0  0  0
  141.6196   80.5453  221.3249 H   0  0  0  0  0  0  0  0  0  0  0  0
  140.1463   81.2866  221.8694 H   0  0  0  0  0  0  0  0  0  0  0  0
  142.3953   82.4529  222.7242 H   0  0  0  0  0  0  0  0  0  0  0  0
  141.3174   82.1024  224.0264 H   0  0  0  0  0  0  0  0  0  0  0  0
  143.6417   80.3333  222.9162 H   0  0  0  0  0  0  0  0  0  0  0  0
  143.4574   80.7931  224.5772 H   0  0  0  0  0  0  0  0  0  0  0  0
  142.4165   78.4124  223.5444 H   0  0  0  0  0  0  0  0  0  0  0  0
  141.6216   79.2210  224.9042 H   0  0  0  0  0  0  0  0  0  0  0  0
  138.4347   78.0645  223.5148 H   0  0  0  0  0  0  0  0  0  0  0  0
  138.2142   79.3416  222.3056 H   0  0  0  0  0  0  0  0  0  0  0  0
  137.2695   77.0168  221.7133 H   0  0  0  0  0  0  0  0  0  0  0  0
  138.3945   77.7878  220.4922 H   0  0  0  0  0  0  0  0  0  0  0  0
  138.7596   73.2380  223.2593 H   0  0  0  0  0  0  0  0  0  0  0  0
  141.3172   72.4329  227.0405 H   0  0  0  0  0  0  0  0  0  0  0  0
  141.4811   71.2703  229.2031 H   0  0  0  0  0  0  0  0  0  0  0  0
  140.7335   68.8827  229.3821 H   0  0  0  0  0  0  0  0  0  0  0  0
  139.8292   67.7372  227.3479 H   0  0  0  0  0  0  0  0  0  0  0  0
  1  2  2  0
  2  3  1  0
  3  4  1  0
  4  5  1  0
  5  6  2  0
  6  7  1  0
  7  8  2  0
  8  9  1  0
  9 10  1  0
 10 11  2  0
 10 12  1  0
 12 13  1  0
 13 14  1  0
 14 15  1  0
 15 16  1  0
 16 17  1  0
 17 18  1  0
 18 19  1  0
 19 20  1  0
 15 21  1  0
 21 22  1  0
  9 23  2  0
  4 24  2  0
 24 25  1  0
 25 26  2  0
 26 27  1  0
 27 28  2  0
 28 29  1  0
 29 30  2  0
 30  2  1  0
 23  5  1  0
 30 25  1  0
 22 12  1  0
 20 16  1  0
  3 31  1  0
  3 32  1  0
  6 33  1  0
  7 34  1  0
  8 35  1  0
 13 36  1  0
 13 37  1  0
 14 38  1  0
 14 39  1  0
 15 40  1  0
 17 41  1  0
 17 42  1  0
 18 43  1  0
 18 44  1  0
 19 45  1  0
 19 46  1  0
 20 47  1  0
 20 48  1  0
 21 49  1  0
 21 50  1  0
 22 51  1  0
 22 52  1  0
 23 53  1  0
 26 54  1  0
 27 55  1  0
 28 56  1  0
 29 57  1  0
M  END
>  <smiles>  (48) 
O=C1CC(c2cccc(C(=O)N3CCC(N4CCCC4)CC3)c2)=Nc2ccccc21

>  <score_type>  (48) 
oracle

>  <origin>  (48) 
autodockgpu

>  <m_score__min__energy>  (48) 
-9.6099999999999994

>  <m_primary>  (48) 
energy

>  <rmsd>  (48) 
7.129661252327507

>  <m_score__min__rmsd>  (48) 
7.129661252327507

>  <meeko>  (48) 
{"free_energy": -9.6, "intermolecular_energy": -10.5, "internal_energy": -1.01, "cluster_size": 50, "cluster_id": 1, "rank_in_cluster": 3}

>  <energy>  (48) 
-9.52

>  <cluster_rmsd>  (48) 
1.37

>  <cluster>  (48) 
1

$$$$

     RDKit          3D

 57 61  0  0  0  0  0  0  0  0999 V2000
  139.1910   67.7020  225.0370 O   0  0  0  0  0  0  0  0  0  0  0  0
  139.5450   68.8990  224.8940 C   0  0  0  0  0  0  0  0  0  0  0  0
  139.3920   69.5210  223.5590 C   0  0  0  0  0  0  0  0  0  0  0  0
  139.8720   70.9180  223.6320 C   0  0  0  0  0  0  0  0  0  0  0  0
  139.8120   71.7070  222.3880 C   0  0  0  0  0  0  0  0  0  0  0  0
  140.3870   71.2060  221.2300 C   0  0  0  0  0  0  0  0  0  0  0  0
  140.3420   71.9300  220.0310 C   0  0  0  0  0  0  0  0  0  0  0  0
  139.7090   73.1580  220.0280 C   0  0  0  0  0  0  0  0  0  0  0  0
  139.1280   73.6860  221.1610 C   0  0  0  0  0  0  0  0  0  0  0  0
  138.4500   74.9720  221.2040 C   0  0  0  0  0  0  0  0  0  0  0  0
  137.1900   74.9320  220.9930 O   0  0  0  0  0  0  0  0  0  0  0  0
  139.1140   76.2080  221.4590 N   0  0  0  0  0  0  0  0  0  0  0  0
  140.5370   76.1510  221.6850 C   0  0  0  0  0  0  0  0  0  0  0  0
  140.8930   77.1840  222.7360 C   0  0  0  0  0  0  0  0  0  0  0  0
  140.2500   78.5140  222.3930 C   0  0  0  0  0  0  0  0  0  0  0  0
  140.8600   79.6000  223.0410 N   0  0  0  0  0  0  0  0  0  0  0  0
  141.0150   80.8170  222.3200 C   0  0  0  0  0  0  0  0  0  0  0  0
  141.9100   81.6120  223.2840 C   0  0  0  0  0  0  0  0  0  0  0  0
  142.9600   80.5370  223.5890 C   0  0  0  0  0  0  0  0  0  0  0  0
  142.0560   79.3130  223.7660 C   0  0  0  0  0  0  0  0  0  0  0  0
  138.7450   78.4280  222.4900 C   0  0  0  0  0  0  0  0  0  0  0  0
  138.3140   77.3970  221.4630 C   0  0  0  0  0  0  0  0  0  0  0  0
  139.2030   72.9280  222.3140 C   0  0  0  0  0  0  0  0  0  0  0  0
  140.3360   71.4960  224.6660 N   0  0  0  0  0  0  0  0  0  0  0  0
  140.4740   70.8940  225.9250 C   0  0  0  0  0  0  0  0  0  0  0  0
  140.9780   71.5200  227.0440 C   0  0  0  0  0  0  0  0  0  0  0  0
  141.0990   70.8970  228.2710 C   0  0  0  0  0  0  0  0  0  0  0  0
  140.6980   69.5720  228.3990 C   0  0  0  0  0  0  0  0  0  0  0  0
  140.1830   68.9130  227.2820 C   0  0  0  0  0  0  0  0  0  0  0  0
  140.0790   69.5800  226.0620 C   0  0  0  0  0  0  0  0  0  0  0  0
  139.9858   68.9632  222.8199 H   0  0  0  0  0  0  0  0  0  0  0  0
  138.3352   69.5020  223.2543 H   0  0  0  0  0  0  0  0  0  0  0  0
  140.8858   70.2259  221.2528 H   0  0  0  0  0  0  0  0  0  0  0  0
  140.7997   71.5301  219.1142 H   0  0  0  0  0  0  0  0  0  0  0  0
  139.6673   73.7330  219.0912 H   0  0  0  0  0  0  0  0  0  0  0  0
  140.8177   75.1480  222.0390 H   0  0  0  0  0  0  0  0  0  0  0  0
  141.0782   76.3589  220.7502 H   0  0  0  0  0  0  0  0  0  0  0  0
  140.5294   76.8457  223.7175 H   0  0  0  0  0  0  0  0  0  0  0  0
  141.9856   77.3076  222.7660 H   0  0  0  0  0  0  0  0  0  0  0  0
  140.4442   78.7399  221.3341 H   0  0  0  0  0  0  0  0  0  0  0  0
  141.5092   80.6532  221.3510 H   0  0  0  0  0  0  0  0  0  0  0  0
  140.0696   81.3159  222.0608 H   0  0  0  0  0  0  0  0  0  0  0  0
  142.3535   82.4947  222.8001 H   0  0  0  0  0  0  0  0  0  0  0  0
  141.3984   82.0327  224.1622 H   0  0  0  0  0  0  0  0  0  0  0  0
  143.6630   80.4061  222.7532 H   0  0  0  0  0  0  0  0  0  0  0  0
  143.6087   80.7583  224.4494 H   0  0  0  0  0  0  0  0  0  0  0  0
  142.5439   78.4152  223.3587 H   0  0  0  0  0  0  0  0  0  0  0  0
  141.8466   79.1165  224.8279 H   0  0  0  0  0  0  0  0  0  0  0  0
  138.4453   78.1095  223.4993 H   0  0  0  0  0  0  0  0  0  0  0  0
  138.2742   79.4040  222.3009 H   0  0  0  0  0  0  0  0  0  0  0  0
  137.2727   77.1125  221.6745 H   0  0  0  0  0  0  0  0  0  0  0  0
  138.4332   77.8639  220.4742 H   0  0  0  0  0  0  0  0  0  0  0  0
  138.7443   73.3324  223.2284 H   0  0  0  0  0  0  0  0  0  0  0  0
  141.3001   72.5681  226.9560 H   0  0  0  0  0  0  0  0  0  0  0  0
  141.5071   71.4419  229.1350 H   0  0  0  0  0  0  0  0  0  0  0  0
  140.7852   69.0520  229.3644 H   0  0  0  0  0  0  0  0  0  0  0  0
  139.8584   67.8652  227.3641 H   0  0  0  0  0  0  0  0  0  0  0  0
  1  2  2  0
  2  3  1  0
  3  4  1  0
  4  5  1  0
  5  6  2  0
  6  7  1  0
  7  8  2  0
  8  9  1  0
  9 10  1  0
 10 11  2  0
 10 12  1  0
 12 13  1  0
 13 14  1  0
 14 15  1  0
 15 16  1  0
 16 17  1  0
 17 18  1  0
 18 19  1  0
 19 20  1  0
 15 21  1  0
 21 22  1  0
  9 23  2  0
  4 24  2  0
 24 25  1  0
 25 26  2  0
 26 27  1  0
 27 28  2  0
 28 29  1  0
 29 30  2  0
 30  2  1  0
 23  5  1  0
 30 25  1  0
 22 12  1  0
 20 16  1  0
  3 31  1  0
  3 32  1  0
  6 33  1  0
  7 34  1  0
  8 35  1  0
 13 36  1  0
 13 37  1  0
 14 38  1  0
 14 39  1  0
 15 40  1  0
 17 41  1  0
 17 42  1  0
 18 43  1  0
 18 44  1  0
 19 45  1  0
 19 46  1  0
 20 47  1  0
 20 48  1  0
 21 49  1  0
 21 50  1  0
 22 51  1  0
 22 52  1  0
 23 53  1  0
 26 54  1  0
 27 55  1  0
 28 56  1  0
 29 57  1  0
M  END
>  <smiles>  (49) 
O=C1CC(c2cccc(C(=O)N3CCC(N4CCCC4)CC3)c2)=Nc2ccccc21

>  <score_type>  (49) 
oracle

>  <origin>  (49) 
autodockgpu

>  <m_score__min__energy>  (49) 
-9.6099999999999994

>  <m_primary>  (49) 
energy

>  <rmsd>  (49) 
7.111687000772038

>  <m_score__min__rmsd>  (49) 
7.111687000772038

>  <meeko>  (49) 
{"free_energy": -9.57, "intermolecular_energy": -10.47, "internal_energy": -1.02, "cluster_size": 50, "cluster_id": 1, "rank_in_cluster": 42}

>  <energy>  (49) 
-9.48

>  <cluster_rmsd>  (49) 
1.51

>  <cluster>  (49) 
1

$$$$

     RDKit          3D

 57 61  0  0  0  0  0  0  0  0999 V2000
  139.1870   67.5630  225.1610 O   0  0  0  0  0  0  0  0  0  0  0  0
  139.3570   68.8000  225.0230 C   0  0  0  0  0  0  0  0  0  0  0  0
  138.9280   69.4300  223.7530 C   0  0  0  0  0  0  0  0  0  0  0  0
  139.2270   70.8770  223.8200 C   0  0  0  0  0  0  0  0  0  0  0  0
  138.8810   71.6820  222.6350 C   0  0  0  0  0  0  0  0  0  0  0  0
  137.6260   71.5500  222.0590 C   0  0  0  0  0  0  0  0  0  0  0  0
  137.2660   72.3060  220.9360 C   0  0  0  0  0  0  0  0  0  0  0  0
  138.1910   73.1890  220.4130 C   0  0  0  0  0  0  0  0  0  0  0  0
  139.4470   73.3440  220.9600 C   0  0  0  0  0  0  0  0  0  0  0  0
  140.4500   74.2620  220.4460 C   0  0  0  0  0  0  0  0  0  0  0  0
  141.0150   73.9000  219.3560 O   0  0  0  0  0  0  0  0  0  0  0  0
  140.8060   75.4850  221.0870 N   0  0  0  0  0  0  0  0  0  0  0  0
  140.1150   75.8070  222.3110 C   0  0  0  0  0  0  0  0  0  0  0  0
  139.8940   77.3050  222.3520 C   0  0  0  0  0  0  0  0  0  0  0  0
  141.1840   78.0280  222.0180 C   0  0  0  0  0  0  0  0  0  0  0  0
  141.1890   79.3660  222.4480 N   0  0  0  0  0  0  0  0  0  0  0  0
  141.7820   80.3450  221.6040 C   0  0  0  0  0  0  0  0  0  0  0  0
  141.7860   81.5660  222.5370 C   0  0  0  0  0  0  0  0  0  0  0  0
  142.3610   80.9110  223.7980 C   0  0  0  0  0  0  0  0  0  0  0  0
  141.5830   79.5920  223.8020 C   0  0  0  0  0  0  0  0  0  0  0  0
  141.5880   77.7790  220.5840 C   0  0  0  0  0  0  0  0  0  0  0  0
  141.8200   76.2840  220.4640 C   0  0  0  0  0  0  0  0  0  0  0  0
  139.7470   72.5730  222.0670 C   0  0  0  0  0  0  0  0  0  0  0  0
  139.7610   71.4850  224.8020 N   0  0  0  0  0  0  0  0  0  0  0  0
  140.1610   70.8750  226.0000 C   0  0  0  0  0  0  0  0  0  0  0  0
  140.7390   71.5340  227.0620 C   0  0  0  0  0  0  0  0  0  0  0  0
  141.1210   70.9020  228.2290 C   0  0  0  0  0  0  0  0  0  0  0  0
  140.9190   69.5320  228.3530 C   0  0  0  0  0  0  0  0  0  0  0  0
  140.3340   68.8390  227.2920 C   0  0  0  0  0  0  0  0  0  0  0  0
  139.9650   69.5170  226.1320 C   0  0  0  0  0  0  0  0  0  0  0  0
  139.4735   68.9773  222.9119 H   0  0  0  0  0  0  0  0  0  0  0  0
  137.8494   69.2755  223.6022 H   0  0  0  0  0  0  0  0  0  0  0  0
  136.9033   70.8417  222.4902 H   0  0  0  0  0  0  0  0  0  0  0  0
  136.2701   72.1991  220.4812 H   0  0  0  0  0  0  0  0  0  0  0  0
  137.9165   73.7876  219.5319 H   0  0  0  0  0  0  0  0  0  0  0  0
  139.1460   75.2871  222.3390 H   0  0  0  0  0  0  0  0  0  0  0  0
  140.7115   75.4879  223.1784 H   0  0  0  0  0  0  0  0  0  0  0  0
  139.1218   77.5797  221.6183 H   0  0  0  0  0  0  0  0  0  0  0  0
  139.5683   77.5948  223.3620 H   0  0  0  0  0  0  0  0  0  0  0  0
  141.9997   77.5915  222.6131 H   0  0  0  0  0  0  0  0  0  0  0  0
  142.8019   80.0592  221.3071 H   0  0  0  0  0  0  0  0  0  0  0  0
  141.2566   80.5024  220.6505 H   0  0  0  0  0  0  0  0  0  0  0  0
  142.4343   82.3703  222.1591 H   0  0  0  0  0  0  0  0  0  0  0  0
  140.8129   82.0624  222.6665 H   0  0  0  0  0  0  0  0  0  0  0  0
  143.4447   80.7437  223.7114 H   0  0  0  0  0  0  0  0  0  0  0  0
  142.2568   81.5092  224.7153 H   0  0  0  0  0  0  0  0  0  0  0  0
  142.2236   78.7710  224.1562 H   0  0  0  0  0  0  0  0  0  0  0  0
  140.7130   79.6383  224.4735 H   0  0  0  0  0  0  0  0  0  0  0  0
  140.7863   78.0967  219.9011 H   0  0  0  0  0  0  0  0  0  0  0  0
  142.4908   78.3479  220.3169 H   0  0  0  0  0  0  0  0  0  0  0  0
  141.8573   76.0243  219.3957 H   0  0  0  0  0  0  0  0  0  0  0  0
  142.7632   76.0653  220.9861 H   0  0  0  0  0  0  0  0  0  0  0  0
  140.7440   72.6835  222.5184 H   0  0  0  0  0  0  0  0  0  0  0  0
  140.9047   72.6181  226.9765 H   0  0  0  0  0  0  0  0  0  0  0  0
  141.5788   71.4746  229.0491 H   0  0  0  0  0  0  0  0  0  0  0  0
  141.2151   69.0035  229.2712 H   0  0  0  0  0  0  0  0  0  0  0  0
  140.1639   67.7552  227.3718 H   0  0  0  0  0  0  0  0  0  0  0  0
  1  2  2  0
  2  3  1  0
  3  4  1  0
  4  5  1  0
  5  6  2  0
  6  7  1  0
  7  8  2  0
  8  9  1  0
  9 10  1  0
 10 11  2  0
 10 12  1  0
 12 13  1  0
 13 14  1  0
 14 15  1  0
 15 16  1  0
 16 17  1  0
 17 18  1  0
 18 19  1  0
 19 20  1  0
 15 21  1  0
 21 22  1  0
  9 23  2  0
  4 24  2  0
 24 25  1  0
 25 26  2  0
 26 27  1  0
 27 28  2  0
 28 29  1  0
 29 30  2  0
 30  2  1  0
 23  5  1  0
 30 25  1  0
 22 12  1  0
 20 16  1  0
  3 31  1  0
  3 32  1  0
  6 33  1  0
  7 34  1  0
  8 35  1  0
 13 36  1  0
 13 37  1  0
 14 38  1  0
 14 39  1  0
 15 40  1  0
 17 41  1  0
 17 42  1  0
 18 43  1  0
 18 44  1  0
 19 45  1  0
 19 46  1  0
 20 47  1  0
 20 48  1  0
 21 49  1  0
 21 50  1  0
 22 51  1  0
 22 52  1  0
 23 53  1  0
 26 54  1  0
 27 55  1  0
 28 56  1  0
 29 57  1  0
M  END
>  <smiles>  (50) 
O=C1CC(c2cccc(C(=O)N3CCC(N4CCCC4)CC3)c2)=Nc2ccccc21

>  <score_type>  (50) 
oracle

>  <origin>  (50) 
autodockgpu

>  <m_score__min__energy>  (50) 
-9.6099999999999994

>  <m_primary>  (50) 
energy

>  <rmsd>  (50) 
6.784560478505539

>  <m_score__min__rmsd>  (50) 
6.784560478505539

>  <meeko>  (50) 
{"free_energy": -9.57, "intermolecular_energy": -10.47, "internal_energy": -1.0, "cluster_size": 50, "cluster_id": 1, "rank_in_cluster": 41}

>  <energy>  (50) 
-9.44

>  <cluster_rmsd>  (50) 
1.41

>  <cluster>  (50) 
1

$$$$
