
     RDKit          3D

 47 49  0  0  0  0  0  0  0  0999 V2000
  139.3160   72.2950  222.2460 C   0  0  0  0  0  0  0  0  0  0  0  0
  140.3250   71.7950  223.2280 C   0  0  0  0  0  0  0  0  0  0  0  0
  139.8570   70.7610  224.1830 C   0  0  2  0  0  0  0  0  0  0  0  0
  138.3820   70.8850  224.2260 N   0  0  0  0  0  0  0  0  0  0  0  0
  137.5420   69.7440  224.1800 C   0  0  0  0  0  0  0  0  0  0  0  0
  138.1350   68.6180  224.1000 O   0  0  0  0  0  0  0  0  0  0  0  0
  136.0850   69.7510  224.2170 C   0  0  0  0  0  0  0  0  0  0  0  0
  135.4810   70.8700  224.9020 N   0  0  0  0  0  0  0  0  0  0  0  0
  135.5960   72.1490  224.2530 C   0  0  0  0  0  0  0  0  0  0  0  0
  136.1950   72.2590  223.1450 O   0  0  0  0  0  0  0  0  0  0  0  0
  135.0070   73.3150  224.8980 C   0  0  0  0  0  0  0  0  0  0  0  0
  135.4660   74.5750  224.5710 C   0  0  0  0  0  0  0  0  0  0  0  0
  134.9030   75.6770  225.1860 C   0  0  0  0  0  0  0  0  0  0  0  0
  133.8790   75.5030  226.1250 C   0  0  0  0  0  0  0  0  0  0  0  0
  133.3120   76.5890  226.7420 C   0  0  0  0  0  0  0  0  0  0  0  0
  132.3050   76.4300  227.6680 C   0  0  0  0  0  0  0  0  0  0  0  0
  131.8830   75.1540  227.9580 C   0  0  0  0  0  0  0  0  0  0  0  0
  132.4270   74.0430  227.3600 C   0  0  0  0  0  0  0  0  0  0  0  0
  133.4500   74.2260  226.4220 C   0  0  0  0  0  0  0  0  0  0  0  0
  134.0080   73.1800  225.8170 N   0  0  0  0  0  0  0  0  0  0  0  0
  140.2800   70.9100  225.5820 C   0  0  0  0  0  0  0  0  0  0  0  0
  141.0560   71.8950  226.1040 C   0  0  0  0  0  0  0  0  0  0  0  0
  141.4150   71.9530  227.4510 C   0  0  0  0  0  0  0  0  0  0  0  0
  140.9890   70.9910  228.3230 C   0  0  0  0  0  0  0  0  0  0  0  0
  140.1950   69.9790  227.8030 C   0  0  0  0  0  0  0  0  0  0  0  0
  139.8400   69.9210  226.4720 C   0  0  0  0  0  0  0  0  0  0  0  0
  138.4576   72.7203  222.7867 H   0  0  0  0  0  0  0  0  0  0  0  0
  139.7725   73.0711  221.6142 H   0  0  0  0  0  0  0  0  0  0  0  0
  138.9750   71.4616  221.6142 H   0  0  0  0  0  0  0  0  0  0  0  0
  141.1646   71.3697  222.6586 H   0  0  0  0  0  0  0  0  0  0  0  0
  140.5896   72.6660  223.8455 H   0  0  0  0  0  0  0  0  0  0  0  0
  140.2792   69.8123  223.8201 H   0  0  0  0  0  0  0  0  0  0  0  0
  137.9630   71.8340  224.2920 H   0  0  0  0  0  0  0  0  0  0  0  0
  135.7206   69.7535  223.1791 H   0  0  0  0  0  0  0  0  0  0  0  0
  135.7954   68.8574  224.7894 H   0  0  0  0  0  0  0  0  0  0  0  0
  134.9850   70.8380  225.8000 H   0  0  0  0  0  0  0  0  0  0  0  0
  136.2696   74.7003  223.8304 H   0  0  0  0  0  0  0  0  0  0  0  0
  135.2583   76.6882  224.9385 H   0  0  0  0  0  0  0  0  0  0  0  0
  133.6663   77.6004  226.4939 H   0  0  0  0  0  0  0  0  0  0  0  0
  131.8503   77.3010  228.1626 H   0  0  0  0  0  0  0  0  0  0  0  0
  131.0795   75.0174  228.6967 H   0  0  0  0  0  0  0  0  0  0  0  0
  132.0675   73.0344  227.6121 H   0  0  0  0  0  0  0  0  0  0  0  0
  141.4194   72.6861  225.4316 H   0  0  0  0  0  0  0  0  0  0  0  0
  142.0451   72.7786  227.8134 H   0  0  0  0  0  0  0  0  0  0  0  0
  141.2629   71.0177  229.3880 H   0  0  0  0  0  0  0  0  0  0  0  0
  139.8341   69.1909  228.4802 H   0  0  0  0  0  0  0  0  0  0  0  0
  139.2098   69.0963  226.1078 H   0  0  0  0  0  0  0  0  0  0  0  0
  1  2  1  0
  2  3  1  0
  3  4  1  0
  4  5  1  0
  5  6  2  0
  5  7  1  0
  7  8  1  0
  8  9  1  0
  9 10  2  0
  9 11  1  0
 11 12  2  0
 12 13  1  0
 13 14  2  0
 14 15  1  0
 15 16  2  0
 16 17  1  0
 17 18  2  0
 18 19  1  0
 19 20  2  0
  3 21  1  0
 21 22  2  0
 22 23  1  0
 23 24  2  0
 24 25  1  0
 25 26  2  0
 20 11  1  0
 26 21  1  0
 19 14  1  0
  1 27  1  0
  1 28  1  0
  1 29  1  0
  2 30  1  0
  2 31  1  0
  3 32  1  6
  4 33  1  0
  7 34  1  0
  7 35  1  0
  8 36  1  0
 12 37  1  0
 13 38  1  0
 15 39  1  0
 16 40  1  0
 17 41  1  0
 18 42  1  0
 22 43  1  0
 23 44  1  0
 24 45  1  0
 25 46  1  0
 26 47  1  0
M  END
>  <smiles>  (1) 
CC[C@H](NC(=O)CNC(=O)c1ccc2ccccc2n1)c1ccccc1

>  <score_type>  (1) 
oracle

>  <origin>  (1) 
autodockgpu

>  <m_score__min__energy>  (1) 
-8.6300000000000008

>  <m_primary>  (1) 
energy

>  <rmsd>  (1) 
9.90494386507706

>  <m_score__min__rmsd>  (1) 
9.90494386507706

>  <meeko>  (1) 
{"free_energy": -7.45, "intermolecular_energy": -9.24, "internal_energy": -2.24, "cluster_size": 14, "cluster_id": 3, "rank_in_cluster": 13}

>  <energy>  (1) 
-8.63

>  <cluster_rmsd>  (1) 
0.0

>  <cluster>  (1) 
1

$$$$

     RDKit          3D

 47 49  0  0  0  0  0  0  0  0999 V2000
  145.8650   73.7740  220.9270 C   0  0  0  0  0  0  0  0  0  0  0  0
  144.6090   73.5460  220.1510 C   0  0  0  0  0  0  0  0  0  0  0  0
  143.6080   74.6410  220.1850 C   0  0  2  0  0  0  0  0  0  0  0  0
  142.2910   73.9840  220.3430 N   0  0  0  0  0  0  0  0  0  0  0  0
  141.1780   74.6770  220.8810 C   0  0  0  0  0  0  0  0  0  0  0  0
  141.3860   75.8900  221.2170 O   0  0  0  0  0  0  0  0  0  0  0  0
  139.8420   74.1290  221.0800 C   0  0  0  0  0  0  0  0  0  0  0  0
  139.6400   73.4020  222.3110 N   0  0  0  0  0  0  0  0  0  0  0  0
  140.3770   72.1740  222.4520 C   0  0  0  0  0  0  0  0  0  0  0  0
  141.1520   71.7770  221.5350 O   0  0  0  0  0  0  0  0  0  0  0  0
  140.2140   71.3970  223.6730 C   0  0  0  0  0  0  0  0  0  0  0  0
  139.5730   70.1750  223.6190 C   0  0  0  0  0  0  0  0  0  0  0  0
  139.4220   69.4430  224.7810 C   0  0  0  0  0  0  0  0  0  0  0  0
  139.9180   69.9450  225.9900 C   0  0  0  0  0  0  0  0  0  0  0  0
  139.7740   69.2270  227.1510 C   0  0  0  0  0  0  0  0  0  0  0  0
  140.2580   69.7120  228.3460 C   0  0  0  0  0  0  0  0  0  0  0  0
  140.8870   70.9330  228.3460 C   0  0  0  0  0  0  0  0  0  0  0  0
  141.0510   71.6800  227.2040 C   0  0  0  0  0  0  0  0  0  0  0  0
  140.5520   71.1700  225.9990 C   0  0  0  0  0  0  0  0  0  0  0  0
  140.6860   71.8570  224.8670 N   0  0  0  0  0  0  0  0  0  0  0  0
  143.4710   75.4510  218.9660 C   0  0  0  0  0  0  0  0  0  0  0  0
  143.6700   75.0470  217.6850 C   0  0  0  0  0  0  0  0  0  0  0  0
  143.5230   75.8910  216.5840 C   0  0  0  0  0  0  0  0  0  0  0  0
  143.1640   77.1980  216.7590 C   0  0  0  0  0  0  0  0  0  0  0  0
  142.9570   77.6260  218.0620 C   0  0  0  0  0  0  0  0  0  0  0  0
  143.1020   76.7910  219.1500 C   0  0  0  0  0  0  0  0  0  0  0  0
  145.6432   73.7337  222.0037 H   0  0  0  0  0  0  0  0  0  0  0  0
  146.5987   72.9944  220.6744 H   0  0  0  0  0  0  0  0  0  0  0  0
  146.2779   74.7618  220.6744 H   0  0  0  0  0  0  0  0  0  0  0  0
  144.8894   73.3806  219.1003 H   0  0  0  0  0  0  0  0  0  0  0  0
  144.1195   72.6857  220.6309 H   0  0  0  0  0  0  0  0  0  0  0  0
  143.9393   75.3185  220.9858 H   0  0  0  0  0  0  0  0  0  0  0  0
  142.1900   72.9920  220.0490 H   0  0  0  0  0  0  0  0  0  0  0  0
  139.1275   74.9651  221.0602 H   0  0  0  0  0  0  0  0  0  0  0  0
  139.6950   73.3970  220.2722 H   0  0  0  0  0  0  0  0  0  0  0  0
  139.0260   73.6770  223.0870 H   0  0  0  0  0  0  0  0  0  0  0  0
  139.1877   69.7895  222.6635 H   0  0  0  0  0  0  0  0  0  0  0  0
  138.9132   68.4680  224.7562 H   0  0  0  0  0  0  0  0  0  0  0  0
  139.2656   68.2518  227.1268 H   0  0  0  0  0  0  0  0  0  0  0  0
  140.1437   69.1363  229.2763 H   0  0  0  0  0  0  0  0  0  0  0  0
  141.2744   71.3283  229.2966 H   0  0  0  0  0  0  0  0  0  0  0  0
  141.5614   72.6539  227.2357 H   0  0  0  0  0  0  0  0  0  0  0  0
  143.9618   74.0016  217.5064 H   0  0  0  0  0  0  0  0  0  0  0  0
  143.6969   75.5025  215.5697 H   0  0  0  0  0  0  0  0  0  0  0  0
  143.0445   77.8802  215.9045 H   0  0  0  0  0  0  0  0  0  0  0  0
  142.6657   78.6726  218.2343 H   0  0  0  0  0  0  0  0  0  0  0  0
  142.9277   77.1774  220.1650 H   0  0  0  0  0  0  0  0  0  0  0  0
  1  2  1  0
  2  3  1  0
  3  4  1  0
  4  5  1  0
  5  6  2  0
  5  7  1  0
  7  8  1  0
  8  9  1  0
  9 10  2  0
  9 11  1  0
 11 12  2  0
 12 13  1  0
 13 14  2  0
 14 15  1  0
 15 16  2  0
 16 17  1  0
 17 18  2  0
 18 19  1  0
 19 20  2  0
  3 21  1  0
 21 22  2  0
 22 23  1  0
 23 24  2  0
 24 25  1  0
 25 26  2  0
 20 11  1  0
 26 21  1  0
 19 14  1  0
  1 27  1  0
  1 28  1  0
  1 29  1  0
  2 30  1  0
  2 31  1  0
  3 32  1  1
  4 33  1  0
  7 34  1  0
  7 35  1  0
  8 36  1  0
 12 37  1  0
 13 38  1  0
 15 39  1  0
 16 40  1  0
 17 41  1  0
 18 42  1  0
 22 43  1  0
 23 44  1  0
 24 45  1  0
 25 46  1  0
 26 47  1  0
M  END
>  <smiles>  (2) 
CC[C@H](NC(=O)CNC(=O)c1ccc2ccccc2n1)c1ccccc1

>  <score_type>  (2) 
oracle

>  <origin>  (2) 
autodockgpu

>  <m_score__min__energy>  (2) 
-8.6300000000000008

>  <m_primary>  (2) 
energy

>  <rmsd>  (2) 
5.610543552932473

>  <m_score__min__rmsd>  (2) 
5.610543552932473

>  <meeko>  (2) 
{"free_energy": -7.91, "intermolecular_energy": -9.7, "internal_energy": -1.79, "cluster_size": 3, "cluster_id": 4, "rank_in_cluster": 1}

>  <energy>  (2) 
-8.59

>  <cluster_rmsd>  (2) 
0.19

>  <cluster>  (2) 
1

$$$$

     RDKit          3D

 47 49  0  0  0  0  0  0  0  0999 V2000
  139.4780   72.2690  222.3000 C   0  0  0  0  0  0  0  0  0  0  0  0
  140.4270   71.7290  223.3190 C   0  0  0  0  0  0  0  0  0  0  0  0
  139.8840   70.7030  224.2430 C   0  0  2  0  0  0  0  0  0  0  0  0
  138.4130   70.8590  224.2050 N   0  0  0  0  0  0  0  0  0  0  0  0
  137.5490   69.7350  224.2110 C   0  0  0  0  0  0  0  0  0  0  0  0
  138.1190   68.5950  224.2500 O   0  0  0  0  0  0  0  0  0  0  0  0
  136.0920   69.7740  224.1760 C   0  0  0  0  0  0  0  0  0  0  0  0
  135.4790   70.8880  224.8590 N   0  0  0  0  0  0  0  0  0  0  0  0
  135.6090   72.1730  224.2250 C   0  0  0  0  0  0  0  0  0  0  0  0
  136.2300   72.2910  223.1290 O   0  0  0  0  0  0  0  0  0  0  0  0
  135.0110   73.3340  224.8680 C   0  0  0  0  0  0  0  0  0  0  0  0
  135.4590   74.5980  224.5380 C   0  0  0  0  0  0  0  0  0  0  0  0
  134.8870   75.6960  225.1510 C   0  0  0  0  0  0  0  0  0  0  0  0
  133.8680   75.5150  226.0940 C   0  0  0  0  0  0  0  0  0  0  0  0
  133.2920   76.5970  226.7110 C   0  0  0  0  0  0  0  0  0  0  0  0
  132.2890   76.4300  227.6390 C   0  0  0  0  0  0  0  0  0  0  0  0
  131.8800   75.1520  227.9330 C   0  0  0  0  0  0  0  0  0  0  0  0
  132.4320   74.0440  227.3360 C   0  0  0  0  0  0  0  0  0  0  0  0
  133.4510   74.2340  226.3950 C   0  0  0  0  0  0  0  0  0  0  0  0
  134.0160   73.1930  225.7900 N   0  0  0  0  0  0  0  0  0  0  0  0
  140.2320   70.8420  225.6640 C   0  0  0  0  0  0  0  0  0  0  0  0
  139.8140   70.0590  226.6920 C   0  0  0  0  0  0  0  0  0  0  0  0
  140.1910   70.2710  228.0180 C   0  0  0  0  0  0  0  0  0  0  0  0
  141.0210   71.3060  228.3440 C   0  0  0  0  0  0  0  0  0  0  0  0
  141.4560   72.1150  227.3050 C   0  0  0  0  0  0  0  0  0  0  0  0
  141.0830   71.9060  225.9930 C   0  0  0  0  0  0  0  0  0  0  0  0
  138.6300   72.7515  222.8080 H   0  0  0  0  0  0  0  0  0  0  0  0
  139.9967   73.0072  221.6707 H   0  0  0  0  0  0  0  0  0  0  0  0
  139.1083   71.4460  221.6707 H   0  0  0  0  0  0  0  0  0  0  0  0
  141.2762   71.2810  222.7822 H   0  0  0  0  0  0  0  0  0  0  0  0
  140.6936   72.5858  223.9553 H   0  0  0  0  0  0  0  0  0  0  0  0
  140.3042   69.7457  223.9010 H   0  0  0  0  0  0  0  0  0  0  0  0
  138.0130   71.8190  224.1750 H   0  0  0  0  0  0  0  0  0  0  0  0
  135.7802   69.8109  223.1218 H   0  0  0  0  0  0  0  0  0  0  0  0
  135.7551   68.8730  224.7096 H   0  0  0  0  0  0  0  0  0  0  0  0
  134.9650   70.8490  225.7470 H   0  0  0  0  0  0  0  0  0  0  0  0
  136.2610   74.7288  223.7966 H   0  0  0  0  0  0  0  0  0  0  0  0
  135.2312   76.7099  224.8989 H   0  0  0  0  0  0  0  0  0  0  0  0
  133.6364   77.6113  226.4607 H   0  0  0  0  0  0  0  0  0  0  0  0
  131.8269   77.2977  228.1325 H   0  0  0  0  0  0  0  0  0  0  0  0
  131.0801   75.0100  228.6746 H   0  0  0  0  0  0  0  0  0  0  0  0
  132.0818   73.0329  227.5912 H   0  0  0  0  0  0  0  0  0  0  0  0
  139.1446   69.2154  226.4676 H   0  0  0  0  0  0  0  0  0  0  0  0
  139.8177   69.6007  228.8062 H   0  0  0  0  0  0  0  0  0  0  0  0
  141.3303   71.4894  229.3836 H   0  0  0  0  0  0  0  0  0  0  0  0
  142.1251   72.9570  227.5360 H   0  0  0  0  0  0  0  0  0  0  0  0
  141.4544   72.5759  225.2035 H   0  0  0  0  0  0  0  0  0  0  0  0
  1  2  1  0
  2  3  1  0
  3  4  1  0
  4  5  1  0
  5  6  2  0
  5  7  1  0
  7  8  1  0
  8  9  1  0
  9 10  2  0
  9 11  1  0
 11 12  2  0
 12 13  1  0
 13 14  2  0
 14 15  1  0
 15 16  2  0
 16 17  1  0
 17 18  2  0
 18 19  1  0
 19 20  2  0
  3 21  1  0
 21 22  2  0
 22 23  1  0
 23 24  2  0
 24 25  1  0
 25 26  2  0
 20 11  1  0
 26 21  1  0
 19 14  1  0
  1 27  1  0
  1 28  1  0
  1 29  1  0
  2 30  1  0
  2 31  1  0
  3 32  1  6
  4 33  1  0
  7 34  1  0
  7 35  1  0
  8 36  1  0
 12 37  1  0
 13 38  1  0
 15 39  1  0
 16 40  1  0
 17 41  1  0
 18 42  1  0
 22 43  1  0
 23 44  1  0
 24 45  1  0
 25 46  1  0
 26 47  1  0
M  END
>  <smiles>  (3) 
CC[C@H](NC(=O)CNC(=O)c1ccc2ccccc2n1)c1ccccc1

>  <score_type>  (3) 
oracle

>  <origin>  (3) 
autodockgpu

>  <m_score__min__energy>  (3) 
-8.6300000000000008

>  <m_primary>  (3) 
energy

>  <rmsd>  (3) 
9.704721256948753

>  <m_score__min__rmsd>  (3) 
9.704721256948753

>  <meeko>  (3) 
{"free_energy": -7.51, "intermolecular_energy": -9.3, "internal_energy": -2.26, "cluster_size": 14, "cluster_id": 3, "rank_in_cluster": 7}

>  <energy>  (3) 
-8.63

>  <cluster_rmsd>  (3) 
0.0

>  <cluster>  (3) 
2

$$$$

     RDKit          3D

 47 49  0  0  0  0  0  0  0  0999 V2000
  135.8900   74.7140  223.1430 C   0  0  0  0  0  0  0  0  0  0  0  0
  136.5490   76.0540  223.1500 C   0  0  0  0  0  0  0  0  0  0  0  0
  137.6220   76.2640  222.1470 C   0  0  2  0  0  0  0  0  0  0  0  0
  138.2890   74.9520  221.9850 N   0  0  0  0  0  0  0  0  0  0  0  0
  138.2560   74.2510  220.7530 C   0  0  0  0  0  0  0  0  0  0  0  0
  137.6180   74.8200  219.8060 O   0  0  0  0  0  0  0  0  0  0  0  0
  138.8760   72.9600  220.4850 C   0  0  0  0  0  0  0  0  0  0  0  0
  138.9000   72.0350  221.5930 N   0  0  0  0  0  0  0  0  0  0  0  0
  139.8040   72.3520  222.6660 C   0  0  0  0  0  0  0  0  0  0  0  0
  140.5250   73.3900  222.6170 O   0  0  0  0  0  0  0  0  0  0  0  0
  139.8720   71.4550  223.8120 C   0  0  0  0  0  0  0  0  0  0  0  0
  139.3880   70.1670  223.6940 C   0  0  0  0  0  0  0  0  0  0  0  0
  139.4550   69.3210  224.7840 C   0  0  0  0  0  0  0  0  0  0  0  0
  140.0110   69.7760  225.9860 C   0  0  0  0  0  0  0  0  0  0  0  0
  140.0840   68.9450  227.0760 C   0  0  0  0  0  0  0  0  0  0  0  0
  140.6290   69.3830  228.2620 C   0  0  0  0  0  0  0  0  0  0  0  0
  141.0970   70.6730  228.3270 C   0  0  0  0  0  0  0  0  0  0  0  0
  141.0410   71.5340  227.2580 C   0  0  0  0  0  0  0  0  0  0  0  0
  140.4840   71.0700  226.0600 C   0  0  0  0  0  0  0  0  0  0  0  0
  140.4080   71.8670  224.9960 N   0  0  0  0  0  0  0  0  0  0  0  0
  138.7060   77.1840  222.5180 C   0  0  0  0  0  0  0  0  0  0  0  0
  138.5810   78.4430  223.0110 C   0  0  0  0  0  0  0  0  0  0  0  0
  139.6710   79.2530  223.3300 C   0  0  0  0  0  0  0  0  0  0  0  0
  140.9470   78.7950  223.1520 C   0  0  0  0  0  0  0  0  0  0  0  0
  141.0910   77.5110  222.6490 C   0  0  0  0  0  0  0  0  0  0  0  0
  140.0120   76.7110  222.3330 C   0  0  0  0  0  0  0  0  0  0  0  0
  135.7260   74.3806  224.1784 H   0  0  0  0  0  0  0  0  0  0  0  0
  134.9233   74.7835  222.6227 H   0  0  0  0  0  0  0  0  0  0  0  0
  136.5352   73.9908  222.6227 H   0  0  0  0  0  0  0  0  0  0  0  0
  135.7710   76.8110  222.9720 H   0  0  0  0  0  0  0  0  0  0  0  0
  137.0435   76.1326  224.1294 H   0  0  0  0  0  0  0  0  0  0  0  0
  137.1224   76.6953  221.2670 H   0  0  0  0  0  0  0  0  0  0  0  0
  138.7930   74.5440  222.7990 H   0  0  0  0  0  0  0  0  0  0  0  0
  138.3247   72.4850  219.6601 H   0  0  0  0  0  0  0  0  0  0  0  0
  139.9291   73.1758  220.2517 H   0  0  0  0  0  0  0  0  0  0  0  0
  138.3380   71.1800  221.6850 H   0  0  0  0  0  0  0  0  0  0  0  0
  138.9548   69.8193  222.7445 H   0  0  0  0  0  0  0  0  0  0  0  0
  139.0725   68.2924  224.7079 H   0  0  0  0  0  0  0  0  0  0  0  0
  139.7022   67.9161  227.0010 H   0  0  0  0  0  0  0  0  0  0  0  0
  140.6882   68.7169  229.1354 H   0  0  0  0  0  0  0  0  0  0  0  0
  141.5334   71.0302  229.2714 H   0  0  0  0  0  0  0  0  0  0  0  0
  141.4240   72.5618  227.3410 H   0  0  0  0  0  0  0  0  0  0  0  0
  137.5688   78.8446  223.1667 H   0  0  0  0  0  0  0  0  0  0  0  0
  139.5032   80.2652  223.7267 H   0  0  0  0  0  0  0  0  0  0  0  0
  141.8203   79.4174  223.3969 H   0  0  0  0  0  0  0  0  0  0  0  0
  142.1055   77.1144  222.4958 H   0  0  0  0  0  0  0  0  0  0  0  0
  140.1775   75.6991  221.9347 H   0  0  0  0  0  0  0  0  0  0  0  0
  1  2  1  0
  2  3  1  0
  3  4  1  0
  4  5  1  0
  5  6  2  0
  5  7  1  0
  7  8  1  0
  8  9  1  0
  9 10  2  0
  9 11  1  0
 11 12  2  0
 12 13  1  0
 13 14  2  0
 14 15  1  0
 15 16  2  0
 16 17  1  0
 17 18  2  0
 18 19  1  0
 19 20  2  0
  3 21  1  0
 21 22  2  0
 22 23  1  0
 23 24  2  0
 24 25  1  0
 25 26  2  0
 20 11  1  0
 26 21  1  0
 19 14  1  0
  1 27  1  0
  1 28  1  0
  1 29  1  0
  2 30  1  0
  2 31  1  0
  3 32  1  6
  4 33  1  0
  7 34  1  0
  7 35  1  0
  8 36  1  0
 12 37  1  0
 13 38  1  0
 15 39  1  0
 16 40  1  0
 17 41  1  0
 18 42  1  0
 22 43  1  0
 23 44  1  0
 24 45  1  0
 25 46  1  0
 26 47  1  0
M  END
>  <smiles>  (4) 
CC[C@H](NC(=O)CNC(=O)c1ccc2ccccc2n1)c1ccccc1

>  <score_type>  (4) 
oracle

>  <origin>  (4) 
autodockgpu

>  <m_score__min__energy>  (4) 
-8.6300000000000008

>  <m_primary>  (4) 
energy

>  <rmsd>  (4) 
4.79758198849688

>  <m_score__min__rmsd>  (4) 
4.79758198849688

>  <meeko>  (4) 
{"free_energy": -7.85, "intermolecular_energy": -9.64, "internal_energy": -2.01, "cluster_size": 27, "cluster_id": 5, "rank_in_cluster": 5}

>  <energy>  (4) 
-7.5

>  <cluster_rmsd>  (4) 
1.75

>  <cluster>  (4) 
2

$$$$

     RDKit          3D

 47 49  0  0  0  0  0  0  0  0999 V2000
  135.8170   74.7500  223.2880 C   0  0  0  0  0  0  0  0  0  0  0  0
  136.5050   76.0750  223.2600 C   0  0  0  0  0  0  0  0  0  0  0  0
  137.5460   76.2530  222.2170 C   0  0  2  0  0  0  0  0  0  0  0  0
  138.1650   74.9210  222.0300 N   0  0  0  0  0  0  0  0  0  0  0  0
  138.1310   74.2590  220.7770 C   0  0  0  0  0  0  0  0  0  0  0  0
  137.5370   74.8800  219.8350 O   0  0  0  0  0  0  0  0  0  0  0  0
  138.7070   72.9520  220.4820 C   0  0  0  0  0  0  0  0  0  0  0  0
  138.7680   72.0310  221.5920 N   0  0  0  0  0  0  0  0  0  0  0  0
  139.7270   72.3370  222.6200 C   0  0  0  0  0  0  0  0  0  0  0  0
  140.4620   73.3620  222.5330 O   0  0  0  0  0  0  0  0  0  0  0  0
  139.8340   71.4430  223.7650 C   0  0  0  0  0  0  0  0  0  0  0  0
  139.4130   70.1330  223.6450 C   0  0  0  0  0  0  0  0  0  0  0  0
  139.5180   69.2900  224.7340 C   0  0  0  0  0  0  0  0  0  0  0  0
  140.0470   69.7700  225.9380 C   0  0  0  0  0  0  0  0  0  0  0  0
  140.1560   68.9420  227.0270 C   0  0  0  0  0  0  0  0  0  0  0  0
  140.6750   69.4040  228.2160 C   0  0  0  0  0  0  0  0  0  0  0  0
  141.0800   70.7150  228.2840 C   0  0  0  0  0  0  0  0  0  0  0  0
  140.9870   71.5730  227.2150 C   0  0  0  0  0  0  0  0  0  0  0  0
  140.4560   71.0850  226.0150 C   0  0  0  0  0  0  0  0  0  0  0  0
  140.3460   71.8780  224.9520 N   0  0  0  0  0  0  0  0  0  0  0  0
  138.6700   77.1390  222.5480 C   0  0  0  0  0  0  0  0  0  0  0  0
  138.6040   78.4010  223.0430 C   0  0  0  0  0  0  0  0  0  0  0  0
  139.7300   79.1760  223.3220 C   0  0  0  0  0  0  0  0  0  0  0  0
  140.9830   78.6780  223.1000 C   0  0  0  0  0  0  0  0  0  0  0  0
  141.0680   77.3890  222.5930 C   0  0  0  0  0  0  0  0  0  0  0  0
  139.9540   76.6240  222.3180 C   0  0  0  0  0  0  0  0  0  0  0  0
  135.6570   74.4419  224.3318 H   0  0  0  0  0  0  0  0  0  0  0  0
  134.8465   74.8299  222.7764 H   0  0  0  0  0  0  0  0  0  0  0  0
  136.4407   74.0021  222.7764 H   0  0  0  0  0  0  0  0  0  0  0  0
  135.7380   76.8478  223.1034 H   0  0  0  0  0  0  0  0  0  0  0  0
  137.0359   76.1504  224.2205 H   0  0  0  0  0  0  0  0  0  0  0  0
  137.0283   76.7003  221.3557 H   0  0  0  0  0  0  0  0  0  0  0  0
  138.6350   74.4710  222.8410 H   0  0  0  0  0  0  0  0  0  0  0  0
  138.1022   72.4870  219.6895 H   0  0  0  0  0  0  0  0  0  0  0  0
  139.7509   73.1424  220.1920 H   0  0  0  0  0  0  0  0  0  0  0  0
  138.1970   71.1860  221.7140 H   0  0  0  0  0  0  0  0  0  0  0  0
  138.9993   69.7658  222.6942 H   0  0  0  0  0  0  0  0  0  0  0  0
  139.1868   68.2440  224.6555 H   0  0  0  0  0  0  0  0  0  0  0  0
  139.8246   67.8960  226.9492 H   0  0  0  0  0  0  0  0  0  0  0  0
  140.7630   68.7404  229.0888 H   0  0  0  0  0  0  0  0  0  0  0  0
  141.4946   71.0922  229.2305 H   0  0  0  0  0  0  0  0  0  0  0  0
  141.3215   72.6175  227.2998 H   0  0  0  0  0  0  0  0  0  0  0  0
  137.6115   78.8352  223.2340 H   0  0  0  0  0  0  0  0  0  0  0  0
  139.6085   80.1932  223.7228 H   0  0  0  0  0  0  0  0  0  0  0  0
  141.8838   79.2721  223.3136 H   0  0  0  0  0  0  0  0  0  0  0  0
  142.0632   76.9606  222.4030 H   0  0  0  0  0  0  0  0  0  0  0  0
  140.0729   75.6066  221.9170 H   0  0  0  0  0  0  0  0  0  0  0  0
  1  2  1  0
  2  3  1  0
  3  4  1  0
  4  5  1  0
  5  6  2  0
  5  7  1  0
  7  8  1  0
  8  9  1  0
  9 10  2  0
  9 11  1  0
 11 12  2  0
 12 13  1  0
 13 14  2  0
 14 15  1  0
 15 16  2  0
 16 17  1  0
 17 18  2  0
 18 19  1  0
 19 20  2  0
  3 21  1  0
 21 22  2  0
 22 23  1  0
 23 24  2  0
 24 25  1  0
 25 26  2  0
 20 11  1  0
 26 21  1  0
 19 14  1  0
  1 27  1  0
  1 28  1  0
  1 29  1  0
  2 30  1  0
  2 31  1  0
  3 32  1  6
  4 33  1  0
  7 34  1  0
  7 35  1  0
  8 36  1  0
 12 37  1  0
 13 38  1  0
 15 39  1  0
 16 40  1  0
 17 41  1  0
 18 42  1  0
 22 43  1  0
 23 44  1  0
 24 45  1  0
 25 46  1  0
 26 47  1  0
M  END
>  <smiles>  (5) 
CC[C@H](NC(=O)CNC(=O)c1ccc2ccccc2n1)c1ccccc1

>  <score_type>  (5) 
oracle

>  <origin>  (5) 
autodockgpu

>  <m_score__min__energy>  (5) 
-8.6300000000000008

>  <m_primary>  (5) 
energy

>  <rmsd>  (5) 
4.83160000494703

>  <m_score__min__rmsd>  (5) 
4.83160000494703

>  <meeko>  (5) 
{"free_energy": -7.85, "intermolecular_energy": -9.64, "internal_energy": -2.02, "cluster_size": 27, "cluster_id": 5, "rank_in_cluster": 3}

>  <energy>  (5) 
-8.56

>  <cluster_rmsd>  (5) 
0.0

>  <cluster>  (5) 
3

$$$$

     RDKit          3D

 47 49  0  0  0  0  0  0  0  0999 V2000
  135.3660   76.7820  222.8580 C   0  0  0  0  0  0  0  0  0  0  0  0
  136.6650   76.1040  223.1460 C   0  0  0  0  0  0  0  0  0  0  0  0
  137.7340   76.2750  222.1310 C   0  0  2  0  0  0  0  0  0  0  0  0
  138.3610   74.9430  221.9730 N   0  0  0  0  0  0  0  0  0  0  0  0
  138.3310   74.2520  220.7360 C   0  0  0  0  0  0  0  0  0  0  0  0
  137.7320   74.8480  219.7800 O   0  0  0  0  0  0  0  0  0  0  0  0
  138.9130   72.9430  220.4710 C   0  0  0  0  0  0  0  0  0  0  0  0
  138.9340   72.0290  221.5890 N   0  0  0  0  0  0  0  0  0  0  0  0
  139.8690   72.3310  222.6390 C   0  0  0  0  0  0  0  0  0  0  0  0
  140.6190   73.3460  222.5640 O   0  0  0  0  0  0  0  0  0  0  0  0
  139.9360   71.4440  223.7930 C   0  0  0  0  0  0  0  0  0  0  0  0
  139.4830   70.1450  223.6760 C   0  0  0  0  0  0  0  0  0  0  0  0
  139.5490   69.3080  224.7740 C   0  0  0  0  0  0  0  0  0  0  0  0
  140.0710   69.7850  225.9830 C   0  0  0  0  0  0  0  0  0  0  0  0
  140.1410   68.9640  227.0800 C   0  0  0  0  0  0  0  0  0  0  0  0
  140.6520   69.4230  228.2740 C   0  0  0  0  0  0  0  0  0  0  0  0
  141.0880   70.7250  228.3380 C   0  0  0  0  0  0  0  0  0  0  0  0
  141.0340   71.5760  227.2600 C   0  0  0  0  0  0  0  0  0  0  0  0
  140.5120   71.0910  226.0560 C   0  0  0  0  0  0  0  0  0  0  0  0
  140.4380   71.8770  224.9850 N   0  0  0  0  0  0  0  0  0  0  0  0
  138.8470   77.1660  222.4850 C   0  0  0  0  0  0  0  0  0  0  0  0
  140.1750   76.9230  222.3340 C   0  0  0  0  0  0  0  0  0  0  0  0
  141.1670   77.8290  222.7070 C   0  0  0  0  0  0  0  0  0  0  0  0
  140.8320   79.0340  223.2560 C   0  0  0  0  0  0  0  0  0  0  0  0
  139.4790   79.2980  223.4160 C   0  0  0  0  0  0  0  0  0  0  0  0
  138.4980   78.4020  223.0470 C   0  0  0  0  0  0  0  0  0  0  0  0
  134.8697   77.0410  223.8049 H   0  0  0  0  0  0  0  0  0  0  0  0
  135.5513   77.6984  222.2785 H   0  0  0  0  0  0  0  0  0  0  0  0
  134.7201   76.1060  222.2785 H   0  0  0  0  0  0  0  0  0  0  0  0
  137.0436   76.4966  224.1012 H   0  0  0  0  0  0  0  0  0  0  0  0
  136.4387   75.0276  223.1558 H   0  0  0  0  0  0  0  0  0  0  0  0
  137.2390   76.7136  221.2520 H   0  0  0  0  0  0  0  0  0  0  0  0
  138.8340   74.5140  222.7940 H   0  0  0  0  0  0  0  0  0  0  0  0
  138.3347   72.4736  219.6615 H   0  0  0  0  0  0  0  0  0  0  0  0
  139.9667   73.1294  220.2162 H   0  0  0  0  0  0  0  0  0  0  0  0
  138.3500   71.1920  221.7020 H   0  0  0  0  0  0  0  0  0  0  0  0
  139.0750   69.7810  222.7215 H   0  0  0  0  0  0  0  0  0  0  0  0
  139.1925   68.2701  224.6985 H   0  0  0  0  0  0  0  0  0  0  0  0
  139.7846   67.9261  227.0051 H   0  0  0  0  0  0  0  0  0  0  0  0
  140.7096   68.7647  229.1534 H   0  0  0  0  0  0  0  0  0  0  0  0
  141.4957   71.1002  229.2882 H   0  0  0  0  0  0  0  0  0  0  0  0
  141.3924   72.6128  227.3419 H   0  0  0  0  0  0  0  0  0  0  0  0
  140.4834   75.9626  221.8951 H   0  0  0  0  0  0  0  0  0  0  0  0
  142.2261   77.5717  222.5582 H   0  0  0  0  0  0  0  0  0  0  0  0
  141.5996   79.7619  223.5575 H   0  0  0  0  0  0  0  0  0  0  0  0
  139.1771   80.2605  223.8547 H   0  0  0  0  0  0  0  0  0  0  0  0
  137.4383   78.6578  223.1940 H   0  0  0  0  0  0  0  0  0  0  0  0
  1  2  1  0
  2  3  1  0
  3  4  1  0
  4  5  1  0
  5  6  2  0
  5  7  1  0
  7  8  1  0
  8  9  1  0
  9 10  2  0
  9 11  1  0
 11 12  2  0
 12 13  1  0
 13 14  2  0
 14 15  1  0
 15 16  2  0
 16 17  1  0
 17 18  2  0
 18 19  1  0
 19 20  2  0
  3 21  1  0
 21 22  2  0
 22 23  1  0
 23 24  2  0
 24 25  1  0
 25 26  2  0
 20 11  1  0
 26 21  1  0
 19 14  1  0
  1 27  1  0
  1 28  1  0
  1 29  1  0
  2 30  1  0
  2 31  1  0
  3 32  1  6
  4 33  1  0
  7 34  1  0
  7 35  1  0
  8 36  1  0
 12 37  1  0
 13 38  1  0
 15 39  1  0
 16 40  1  0
 17 41  1  0
 18 42  1  0
 22 43  1  0
 23 44  1  0
 24 45  1  0
 25 46  1  0
 26 47  1  0
M  END
>  <smiles>  (6) 
CC[C@H](NC(=O)CNC(=O)c1ccc2ccccc2n1)c1ccccc1

>  <score_type>  (6) 
oracle

>  <origin>  (6) 
autodockgpu

>  <m_score__min__energy>  (6) 
-8.6300000000000008

>  <m_primary>  (6) 
energy

>  <rmsd>  (6) 
4.876855871338798

>  <m_score__min__rmsd>  (6) 
4.876855871338798

>  <meeko>  (6) 
{"free_energy": -7.83, "intermolecular_energy": -9.62, "internal_energy": -1.9, "cluster_size": 27, "cluster_id": 5, "rank_in_cluster": 9}

>  <energy>  (6) 
-8.51

>  <cluster_rmsd>  (6) 
0.18

>  <cluster>  (6) 
3

$$$$

     RDKit          3D

 47 49  0  0  0  0  0  0  0  0999 V2000
  142.1920   79.8390  223.4530 C   0  0  0  0  0  0  0  0  0  0  0  0
  141.7600   78.4130  223.3530 C   0  0  0  0  0  0  0  0  0  0  0  0
  140.9570   78.0510  222.1590 C   0  0  2  0  0  0  0  0  0  0  0  0
  141.0680   76.5800  222.0250 N   0  0  0  0  0  0  0  0  0  0  0  0
  140.0730   75.8210  221.3610 C   0  0  0  0  0  0  0  0  0  0  0  0
  139.0870   76.4810  220.8930 O   0  0  0  0  0  0  0  0  0  0  0  0
  140.0810   74.3750  221.1720 C   0  0  0  0  0  0  0  0  0  0  0  0
  139.7930   73.5890  222.3480 N   0  0  0  0  0  0  0  0  0  0  0  0
  140.5080   72.3460  222.4730 C   0  0  0  0  0  0  0  0  0  0  0  0
  141.3380   71.9870  221.5880 O   0  0  0  0  0  0  0  0  0  0  0  0
  140.2590   71.5100  223.6390 C   0  0  0  0  0  0  0  0  0  0  0  0
  139.5810   70.3170  223.4850 C   0  0  0  0  0  0  0  0  0  0  0  0
  139.3480   69.5280  224.5950 C   0  0  0  0  0  0  0  0  0  0  0  0
  139.7990   69.9440  225.8530 C   0  0  0  0  0  0  0  0  0  0  0  0
  139.5730   69.1700  226.9630 C   0  0  0  0  0  0  0  0  0  0  0  0
  140.0120   69.5700  228.2050 C   0  0  0  0  0  0  0  0  0  0  0  0
  140.6810   70.7670  228.3050 C   0  0  0  0  0  0  0  0  0  0  0  0
  140.9260   71.5690  227.2160 C   0  0  0  0  0  0  0  0  0  0  0  0
  140.4720   71.1440  225.9620 C   0  0  0  0  0  0  0  0  0  0  0  0
  140.6850   71.8860  224.8780 N   0  0  0  0  0  0  0  0  0  0  0  0
  141.4200   78.5740  220.8660 C   0  0  0  0  0  0  0  0  0  0  0  0
  141.2210   79.8200  220.3660 C   0  0  0  0  0  0  0  0  0  0  0  0
  141.6920   80.2290  219.1180 C   0  0  0  0  0  0  0  0  0  0  0  0
  142.3940   79.3640  218.3270 C   0  0  0  0  0  0  0  0  0  0  0  0
  142.6050   78.0860  218.8240 C   0  0  0  0  0  0  0  0  0  0  0  0
  142.1380   77.6820  220.0580 C   0  0  0  0  0  0  0  0  0  0  0  0
  142.2779   80.1227  224.5123 H   0  0  0  0  0  0  0  0  0  0  0  0
  143.1677   79.9620  222.9602 H   0  0  0  0  0  0  0  0  0  0  0  0
  141.4486   80.4828  222.9602 H   0  0  0  0  0  0  0  0  0  0  0  0
  142.6653   77.7881  223.3500 H   0  0  0  0  0  0  0  0  0  0  0  0
  141.0960   78.2469  224.2141 H   0  0  0  0  0  0  0  0  0  0  0  0
  139.9570   78.4733  222.3368 H   0  0  0  0  0  0  0  0  0  0  0  0
  141.8990   76.1040  222.4300 H   0  0  0  0  0  0  0  0  0  0  0  0
  139.3280   74.1296  220.4086 H   0  0  0  0  0  0  0  0  0  0  0  0
  141.1101   74.1159  220.8824 H   0  0  0  0  0  0  0  0  0  0  0  0
  139.1320   73.8310  223.0960 H   0  0  0  0  0  0  0  0  0  0  0  0
  139.2310   69.9990  222.4918 H   0  0  0  0  0  0  0  0  0  0  0  0
  138.8091   68.5748  224.4903 H   0  0  0  0  0  0  0  0  0  0  0  0
  139.0337   68.2169  226.8592 H   0  0  0  0  0  0  0  0  0  0  0  0
  139.8322   68.9481  229.0943 H   0  0  0  0  0  0  0  0  0  0  0  0
  141.0335   71.0952  229.2939 H   0  0  0  0  0  0  0  0  0  0  0  0
  141.4654   72.5212  227.3272 H   0  0  0  0  0  0  0  0  0  0  0  0
  140.6601   80.5439  220.9754 H   0  0  0  0  0  0  0  0  0  0  0  0
  141.4970   81.2538  218.7689 H   0  0  0  0  0  0  0  0  0  0  0  0
  142.7747   79.6672  217.3405 H   0  0  0  0  0  0  0  0  0  0  0  0
  143.1667   77.3665  218.2102 H   0  0  0  0  0  0  0  0  0  0  0  0
  142.3298   76.6571  220.4084 H   0  0  0  0  0  0  0  0  0  0  0  0
  1  2  1  0
  2  3  1  0
  3  4  1  0
  4  5  1  0
  5  6  2  0
  5  7  1  0
  7  8  1  0
  8  9  1  0
  9 10  2  0
  9 11  1  0
 11 12  2  0
 12 13  1  0
 13 14  2  0
 14 15  1  0
 15 16  2  0
 16 17  1  0
 17 18  2  0
 18 19  1  0
 19 20  2  0
  3 21  1  0
 21 22  2  0
 22 23  1  0
 23 24  2  0
 24 25  1  0
 25 26  2  0
 20 11  1  0
 26 21  1  0
 19 14  1  0
  1 27  1  0
  1 28  1  0
  1 29  1  0
  2 30  1  0
  2 31  1  0
  3 32  1  1
  4 33  1  0
  7 34  1  0
  7 35  1  0
  8 36  1  0
 12 37  1  0
 13 38  1  0
 15 39  1  0
 16 40  1  0
 17 41  1  0
 18 42  1  0
 22 43  1  0
 23 44  1  0
 24 45  1  0
 25 46  1  0
 26 47  1  0
M  END
>  <smiles>  (7) 
CC[C@H](NC(=O)CNC(=O)c1ccc2ccccc2n1)c1ccccc1

>  <score_type>  (7) 
oracle

>  <origin>  (7) 
autodockgpu

>  <m_score__min__energy>  (7) 
-8.6300000000000008

>  <m_primary>  (7) 
energy

>  <rmsd>  (7) 
3.885717692685866

>  <m_score__min__rmsd>  (7) 
3.885717692685866

>  <meeko>  (7) 
{"free_energy": -8.59, "intermolecular_energy": -10.38, "internal_energy": -1.01, "cluster_size": 2, "cluster_id": 1, "rank_in_cluster": 2}

>  <energy>  (7) 
-8.48

>  <cluster_rmsd>  (7) 
0.49

>  <cluster>  (7) 
3

$$$$

     RDKit          3D

 47 49  0  0  0  0  0  0  0  0999 V2000
  135.8600   74.7980  223.1980 C   0  0  0  0  0  0  0  0  0  0  0  0
  136.5690   76.1120  223.1540 C   0  0  0  0  0  0  0  0  0  0  0  0
  137.6380   76.2480  222.1340 C   0  0  2  0  0  0  0  0  0  0  0  0
  138.2230   74.8970  221.9760 N   0  0  0  0  0  0  0  0  0  0  0  0
  138.2540   74.2470  220.7170 C   0  0  0  0  0  0  0  0  0  0  0  0
  137.7500   74.8970  219.7420 O   0  0  0  0  0  0  0  0  0  0  0  0
  138.8040   72.9240  220.4490 C   0  0  0  0  0  0  0  0  0  0  0  0
  138.8300   72.0180  221.5720 N   0  0  0  0  0  0  0  0  0  0  0  0
  139.7520   72.3410  222.6280 C   0  0  0  0  0  0  0  0  0  0  0  0
  140.4860   73.3680  222.5520 O   0  0  0  0  0  0  0  0  0  0  0  0
  139.8230   71.4630  223.7880 C   0  0  0  0  0  0  0  0  0  0  0  0
  139.3180   70.1810  223.7000 C   0  0  0  0  0  0  0  0  0  0  0  0
  139.3890   69.3530  224.8040 C   0  0  0  0  0  0  0  0  0  0  0  0
  139.9680   69.8200  225.9890 C   0  0  0  0  0  0  0  0  0  0  0  0
  140.0440   69.0070  227.0920 C   0  0  0  0  0  0  0  0  0  0  0  0
  140.6120   69.4570  228.2630 C   0  0  0  0  0  0  0  0  0  0  0  0
  141.1000   70.7410  228.2990 C   0  0  0  0  0  0  0  0  0  0  0  0
  141.0420   71.5840  227.2150 C   0  0  0  0  0  0  0  0  0  0  0  0
  140.4610   71.1080  226.0340 C   0  0  0  0  0  0  0  0  0  0  0  0
  140.3820   71.8870  224.9580 N   0  0  0  0  0  0  0  0  0  0  0  0
  138.7800   77.1050  222.4820 C   0  0  0  0  0  0  0  0  0  0  0  0
  140.0980   76.8130  222.3420 C   0  0  0  0  0  0  0  0  0  0  0  0
  141.1200   77.6890  222.7080 C   0  0  0  0  0  0  0  0  0  0  0  0
  140.8240   78.9130  223.2390 C   0  0  0  0  0  0  0  0  0  0  0  0
  139.4810   79.2260  223.3880 C   0  0  0  0  0  0  0  0  0  0  0  0
  138.4710   78.3590  223.0260 C   0  0  0  0  0  0  0  0  0  0  0  0
  135.7005   74.5023  224.2454 H   0  0  0  0  0  0  0  0  0  0  0  0
  134.8883   74.8885  222.6905 H   0  0  0  0  0  0  0  0  0  0  0  0
  136.4691   74.0355  222.6905 H   0  0  0  0  0  0  0  0  0  0  0  0
  135.8181   76.8917  222.9586 H   0  0  0  0  0  0  0  0  0  0  0  0
  137.0768   76.2041  224.1254 H   0  0  0  0  0  0  0  0  0  0  0  0
  137.1530   76.7000  221.2562 H   0  0  0  0  0  0  0  0  0  0  0  0
  138.6180   74.4230  222.8130 H   0  0  0  0  0  0  0  0  0  0  0  0
  138.1994   72.4611  219.6552 H   0  0  0  0  0  0  0  0  0  0  0  0
  139.8557   73.0871  220.1709 H   0  0  0  0  0  0  0  0  0  0  0  0
  138.2580   71.1720  221.6860 H   0  0  0  0  0  0  0  0  0  0  0  0
  138.8651   69.8235  222.7635 H   0  0  0  0  0  0  0  0  0  0  0  0
  138.9912   68.3288  224.7513 H   0  0  0  0  0  0  0  0  0  0  0  0
  139.6461   67.9828  227.0400 H   0  0  0  0  0  0  0  0  0  0  0  0
  140.6735   68.8052  229.1470 H   0  0  0  0  0  0  0  0  0  0  0  0
  141.5545   71.1082  229.2310 H   0  0  0  0  0  0  0  0  0  0  0  0
  141.4421   72.6069  227.2741 H   0  0  0  0  0  0  0  0  0  0  0  0
  140.3743   75.8361  221.9185 H   0  0  0  0  0  0  0  0  0  0  0  0
  142.1702   77.3929  222.5684 H   0  0  0  0  0  0  0  0  0  0  0  0
  141.6149   79.6179  223.5348 H   0  0  0  0  0  0  0  0  0  0  0  0
  139.2106   80.2045  223.8117 H   0  0  0  0  0  0  0  0  0  0  0  0
  137.4201   78.6528  223.1647 H   0  0  0  0  0  0  0  0  0  0  0  0
  1  2  1  0
  2  3  1  0
  3  4  1  0
  4  5  1  0
  5  6  2  0
  5  7  1  0
  7  8  1  0
  8  9  1  0
  9 10  2  0
  9 11  1  0
 11 12  2  0
 12 13  1  0
 13 14  2  0
 14 15  1  0
 15 16  2  0
 16 17  1  0
 17 18  2  0
 18 19  1  0
 19 20  2  0
  3 21  1  0
 21 22  2  0
 22 23  1  0
 23 24  2  0
 24 25  1  0
 25 26  2  0
 20 11  1  0
 26 21  1  0
 19 14  1  0
  1 27  1  0
  1 28  1  0
  1 29  1  0
  2 30  1  0
  2 31  1  0
  3 32  1  6
  4 33  1  0
  7 34  1  0
  7 35  1  0
  8 36  1  0
 12 37  1  0
 13 38  1  0
 15 39  1  0
 16 40  1  0
 17 41  1  0
 18 42  1  0
 22 43  1  0
 23 44  1  0
 24 45  1  0
 25 46  1  0
 26 47  1  0
M  END
>  <smiles>  (8) 
CC[C@H](NC(=O)CNC(=O)c1ccc2ccccc2n1)c1ccccc1

>  <score_type>  (8) 
oracle

>  <origin>  (8) 
autodockgpu

>  <m_score__min__energy>  (8) 
-8.6300000000000008

>  <m_primary>  (8) 
energy

>  <rmsd>  (8) 
4.896419777686866

>  <m_score__min__rmsd>  (8) 
4.896419777686866

>  <meeko>  (8) 
{"free_energy": -7.86, "intermolecular_energy": -9.65, "internal_energy": -1.99, "cluster_size": 27, "cluster_id": 5, "rank_in_cluster": 2}

>  <energy>  (8) 
-8.47

>  <cluster_rmsd>  (8) 
0.37

>  <cluster>  (8) 
3

$$$$

     RDKit          3D

 47 49  0  0  0  0  0  0  0  0999 V2000
  142.1080   77.4220  220.0030 C   0  0  0  0  0  0  0  0  0  0  0  0
  141.6170   76.2500  220.7890 C   0  0  0  0  0  0  0  0  0  0  0  0
  141.7710   74.9200  220.1510 C   0  0  2  0  0  0  0  0  0  0  0  0
  140.7440   74.0510  220.7710 N   0  0  0  0  0  0  0  0  0  0  0  0
  139.3810   74.1320  220.3930 C   0  0  0  0  0  0  0  0  0  0  0  0
  139.1010   74.9940  219.4960 O   0  0  0  0  0  0  0  0  0  0  0  0
  138.2920   73.3280  220.9360 C   0  0  0  0  0  0  0  0  0  0  0  0
  138.5210   72.7680  222.2470 N   0  0  0  0  0  0  0  0  0  0  0  0
  139.5290   71.7450  222.3340 C   0  0  0  0  0  0  0  0  0  0  0  0
  140.1650   71.3760  221.3050 O   0  0  0  0  0  0  0  0  0  0  0  0
  139.8030   71.1420  223.6310 C   0  0  0  0  0  0  0  0  0  0  0  0
  139.5640   69.7960  223.8180 C   0  0  0  0  0  0  0  0  0  0  0  0
  139.8260   69.2300  225.0510 C   0  0  0  0  0  0  0  0  0  0  0  0
  140.3290   70.0240  226.0880 C   0  0  0  0  0  0  0  0  0  0  0  0
  140.5940   69.4740  227.3170 C   0  0  0  0  0  0  0  0  0  0  0  0
  141.0880   70.2460  228.3450 C   0  0  0  0  0  0  0  0  0  0  0  0
  141.3090   71.5820  228.1080 C   0  0  0  0  0  0  0  0  0  0  0  0
  141.0570   72.1670  226.8910 C   0  0  0  0  0  0  0  0  0  0  0  0
  140.5540   71.3660  225.8590 C   0  0  0  0  0  0  0  0  0  0  0  0
  140.2930   71.8880  224.6630 N   0  0  0  0  0  0  0  0  0  0  0  0
  143.0390   74.2150  220.3850 C   0  0  0  0  0  0  0  0  0  0  0  0
  144.2810   74.7600  220.4510 C   0  0  0  0  0  0  0  0  0  0  0  0
  145.4360   74.0090  220.6710 C   0  0  0  0  0  0  0  0  0  0  0  0
  145.3600   72.6540  220.8310 C   0  0  0  0  0  0  0  0  0  0  0  0
  144.0970   72.0830  220.7650 C   0  0  0  0  0  0  0  0  0  0  0  0
  142.9550   72.8250  220.5480 C   0  0  0  0  0  0  0  0  0  0  0  0
  142.4393   78.2128  220.6921 H   0  0  0  0  0  0  0  0  0  0  0  0
  142.9515   77.1110  219.3691 H   0  0  0  0  0  0  0  0  0  0  0  0
  141.2947   77.8051  219.3691 H   0  0  0  0  0  0  0  0  0  0  0  0
  142.1674   76.2307  221.7412 H   0  0  0  0  0  0  0  0  0  0  0  0
  140.5325   76.4010  220.8943 H   0  0  0  0  0  0  0  0  0  0  0  0
  141.7004   75.1022  219.0685 H   0  0  0  0  0  0  0  0  0  0  0  0
  141.0410   73.3680  221.4970 H   0  0  0  0  0  0  0  0  0  0  0  0
  137.3970   73.9650  220.9922 H   0  0  0  0  0  0  0  0  0  0  0  0
  138.1860   72.4689  220.2572 H   0  0  0  0  0  0  0  0  0  0  0  0
  138.0350   73.0290  223.1130 H   0  0  0  0  0  0  0  0  0  0  0  0
  139.1697   69.1810  222.9956 H   0  0  0  0  0  0  0  0  0  0  0  0
  139.6398   68.1587  225.2170 H   0  0  0  0  0  0  0  0  0  0  0  0
  140.4094   68.4024  227.4833 H   0  0  0  0  0  0  0  0  0  0  0  0
  141.3002   69.8050  229.3301 H   0  0  0  0  0  0  0  0  0  0  0  0
  141.7025   72.2062  228.9238 H   0  0  0  0  0  0  0  0  0  0  0  0
  141.2459   73.2388  226.7312 H   0  0  0  0  0  0  0  0  0  0  0  0
  144.3815   75.8481  220.3247 H   0  0  0  0  0  0  0  0  0  0  0  0
  146.4139   74.5107  220.7160 H   0  0  0  0  0  0  0  0  0  0  0  0
  146.2588   72.0439  221.0041 H   0  0  0  0  0  0  0  0  0  0  0  0
  144.0029   70.9943  220.8909 H   0  0  0  0  0  0  0  0  0  0  0  0
  141.9761   72.3252  220.5027 H   0  0  0  0  0  0  0  0  0  0  0  0
  1  2  1  0
  2  3  1  0
  3  4  1  0
  4  5  1  0
  5  6  2  0
  5  7  1  0
  7  8  1  0
  8  9  1  0
  9 10  2  0
  9 11  1  0
 11 12  2  0
 12 13  1  0
 13 14  2  0
 14 15  1  0
 15 16  2  0
 16 17  1  0
 17 18  2  0
 18 19  1  0
 19 20  2  0
  3 21  1  0
 21 22  2  0
 22 23  1  0
 23 24  2  0
 24 25  1  0
 25 26  2  0
 20 11  1  0
 26 21  1  0
 19 14  1  0
  1 27  1  0
  1 28  1  0
  1 29  1  0
  2 30  1  0
  2 31  1  0
  3 32  1  6
  4 33  1  0
  7 34  1  0
  7 35  1  0
  8 36  1  0
 12 37  1  0
 13 38  1  0
 15 39  1  0
 16 40  1  0
 17 41  1  0
 18 42  1  0
 22 43  1  0
 23 44  1  0
 24 45  1  0
 25 46  1  0
 26 47  1  0
M  END
>  <smiles>  (9) 
CC[C@H](NC(=O)CNC(=O)c1ccc2ccccc2n1)c1ccccc1

>  <score_type>  (9) 
oracle

>  <origin>  (9) 
autodockgpu

>  <m_score__min__energy>  (9) 
-8.6300000000000008

>  <m_primary>  (9) 
energy

>  <rmsd>  (9) 
6.418415858439667

>  <m_score__min__rmsd>  (9) 
6.418415858439667

>  <meeko>  (9) 
{"free_energy": -7.42, "intermolecular_energy": -9.21, "internal_energy": -2.02, "cluster_size": 3, "cluster_id": 4, "rank_in_cluster": 3}

>  <energy>  (9) 
-8.41

>  <cluster_rmsd>  (9) 
0.23

>  <cluster>  (9) 
3

$$$$

     RDKit          3D

 47 49  0  0  0  0  0  0  0  0999 V2000
  135.8180   74.3420  223.4670 C   0  0  0  0  0  0  0  0  0  0  0  0
  136.4830   75.6430  223.1560 C   0  0  0  0  0  0  0  0  0  0  0  0
  137.5080   75.6180  222.0840 C   0  0  2  0  0  0  0  0  0  0  0  0
  138.0210   74.2300  222.0460 N   0  0  0  0  0  0  0  0  0  0  0  0
  138.0430   73.4820  220.8420 C   0  0  0  0  0  0  0  0  0  0  0  0
  137.5940   74.0780  219.8080 O   0  0  0  0  0  0  0  0  0  0  0  0
  138.5250   72.1140  220.6910 C   0  0  0  0  0  0  0  0  0  0  0  0
  138.7500   71.3910  221.9200 N   0  0  0  0  0  0  0  0  0  0  0  0
  139.7330   71.9450  222.8120 C   0  0  0  0  0  0  0  0  0  0  0  0
  140.3510   73.0070  222.5130 O   0  0  0  0  0  0  0  0  0  0  0  0
  140.0040   71.2580  224.0680 C   0  0  0  0  0  0  0  0  0  0  0  0
  140.7460   71.8940  225.0430 C   0  0  0  0  0  0  0  0  0  0  0  0
  140.9980   71.2380  226.2320 C   0  0  0  0  0  0  0  0  0  0  0  0
  140.5010   69.9440  226.4330 C   0  0  0  0  0  0  0  0  0  0  0  0
  140.7450   69.2810  227.6090 C   0  0  0  0  0  0  0  0  0  0  0  0
  140.2620   68.0090  227.8170 C   0  0  0  0  0  0  0  0  0  0  0  0
  139.5290   67.4190  226.8150 C   0  0  0  0  0  0  0  0  0  0  0  0
  139.2640   68.0520  225.6240 C   0  0  0  0  0  0  0  0  0  0  0  0
  139.7640   69.3450  225.4320 C   0  0  0  0  0  0  0  0  0  0  0  0
  139.5340   69.9980  224.2960 N   0  0  0  0  0  0  0  0  0  0  0  0
  138.7030   76.4470  222.2910 C   0  0  0  0  0  0  0  0  0  0  0  0
  139.9990   76.0750  222.1290 C   0  0  0  0  0  0  0  0  0  0  0  0
  141.0770   76.9310  222.3570 C   0  0  0  0  0  0  0  0  0  0  0  0
  140.8630   78.2170  222.7660 C   0  0  0  0  0  0  0  0  0  0  0  0
  139.5440   78.6130  222.9360 C   0  0  0  0  0  0  0  0  0  0  0  0
  138.4790   77.7660  222.7100 C   0  0  0  0  0  0  0  0  0  0  0  0
  135.7530   74.2149  224.5577 H   0  0  0  0  0  0  0  0  0  0  0  0
  134.8059   74.3353  223.0361 H   0  0  0  0  0  0  0  0  0  0  0  0
  136.4054   73.5178  223.0361 H   0  0  0  0  0  0  0  0  0  0  0  0
  135.7009   76.3556  222.8552 H   0  0  0  0  0  0  0  0  0  0  0  0
  137.0239   75.9220  224.0723 H   0  0  0  0  0  0  0  0  0  0  0  0
  137.0043   76.0009  221.1842 H   0  0  0  0  0  0  0  0  0  0  0  0
  138.3740   73.8030  222.9260 H   0  0  0  0  0  0  0  0  0  0  0  0
  137.7816   71.5567  220.1021 H   0  0  0  0  0  0  0  0  0  0  0  0
  139.5088   72.1943  220.2056 H   0  0  0  0  0  0  0  0  0  0  0  0
  138.2790   70.5270  222.2130 H   0  0  0  0  0  0  0  0  0  0  0  0
  141.1317   72.9104  224.8751 H   0  0  0  0  0  0  0  0  0  0  0  0
  141.5876   71.7306  227.0192 H   0  0  0  0  0  0  0  0  0  0  0  0
  141.3348   69.7727  228.3966 H   0  0  0  0  0  0  0  0  0  0  0  0
  140.4575   67.4784  228.7605 H   0  0  0  0  0  0  0  0  0  0  0  0
  139.1399   66.4022  226.9721 H   0  0  0  0  0  0  0  0  0  0  0  0
  138.6733   67.5544  224.8408 H   0  0  0  0  0  0  0  0  0  0  0  0
  140.2096   75.0463  221.8013 H   0  0  0  0  0  0  0  0  0  0  0  0
  142.1046   76.5686  222.2067 H   0  0  0  0  0  0  0  0  0  0  0  0
  141.6988   78.9074  222.9522 H   0  0  0  0  0  0  0  0  0  0  0  0
  139.3396   79.6429  223.2639 H   0  0  0  0  0  0  0  0  0  0  0  0
  137.4506   78.1267  222.8590 H   0  0  0  0  0  0  0  0  0  0  0  0
  1  2  1  0
  2  3  1  0
  3  4  1  0
  4  5  1  0
  5  6  2  0
  5  7  1  0
  7  8  1  0
  8  9  1  0
  9 10  2  0
  9 11  1  0
 11 12  2  0
 12 13  1  0
 13 14  2  0
 14 15  1  0
 15 16  2  0
 16 17  1  0
 17 18  2  0
 18 19  1  0
 19 20  2  0
  3 21  1  0
 21 22  2  0
 22 23  1  0
 23 24  2  0
 24 25  1  0
 25 26  2  0
 20 11  1  0
 26 21  1  0
 19 14  1  0
  1 27  1  0
  1 28  1  0
  1 29  1  0
  2 30  1  0
  2 31  1  0
  3 32  1  6
  4 33  1  0
  7 34  1  0
  7 35  1  0
  8 36  1  0
 12 37  1  0
 13 38  1  0
 15 39  1  0
 16 40  1  0
 17 41  1  0
 18 42  1  0
 22 43  1  0
 23 44  1  0
 24 45  1  0
 25 46  1  0
 26 47  1  0
M  END
>  <smiles>  (10) 
CC[C@H](NC(=O)CNC(=O)c1ccc2ccccc2n1)c1ccccc1

>  <score_type>  (10) 
oracle

>  <origin>  (10) 
autodockgpu

>  <m_score__min__energy>  (10) 
-8.6300000000000008

>  <m_primary>  (10) 
energy

>  <rmsd>  (10) 
4.857195203192861

>  <m_score__min__rmsd>  (10) 
4.857195203192861

>  <meeko>  (10) 
{"free_energy": -7.48, "intermolecular_energy": -9.27, "internal_energy": -2.3, "cluster_size": 27, "cluster_id": 5, "rank_in_cluster": 19}

>  <energy>  (10) 
-8.29

>  <cluster_rmsd>  (10) 
0.3

>  <cluster>  (10) 
3

$$$$

     RDKit          3D

 47 49  0  0  0  0  0  0  0  0999 V2000
  139.5100   71.6700  222.1620 C   0  0  0  0  0  0  0  0  0  0  0  0
  140.3930   71.4540  223.3460 C   0  0  0  0  0  0  0  0  0  0  0  0
  139.8980   70.5010  224.3700 C   0  0  2  0  0  0  0  0  0  0  0  0
  138.4210   70.5730  224.3110 N   0  0  0  0  0  0  0  0  0  0  0  0
  137.6110   69.4600  224.6530 C   0  0  0  0  0  0  0  0  0  0  0  0
  138.2350   68.4070  225.0100 O   0  0  0  0  0  0  0  0  0  0  0  0
  136.1550   69.4210  224.6310 C   0  0  0  0  0  0  0  0  0  0  0  0
  135.4900   70.6440  225.0120 N   0  0  0  0  0  0  0  0  0  0  0  0
  134.4410   70.5190  225.9900 C   0  0  0  0  0  0  0  0  0  0  0  0
  134.1400   69.3900  226.4730 O   0  0  0  0  0  0  0  0  0  0  0  0
  133.7340   71.7200  226.4140 C   0  0  0  0  0  0  0  0  0  0  0  0
  132.5640   71.5990  227.1380 C   0  0  0  0  0  0  0  0  0  0  0  0
  131.8980   72.7410  227.5370 C   0  0  0  0  0  0  0  0  0  0  0  0
  132.4140   74.0000  227.2050 C   0  0  0  0  0  0  0  0  0  0  0  0
  131.7620   75.1420  227.5960 C   0  0  0  0  0  0  0  0  0  0  0  0
  132.2600   76.3850  227.2750 C   0  0  0  0  0  0  0  0  0  0  0  0
  133.4270   76.4520  226.5520 C   0  0  0  0  0  0  0  0  0  0  0  0
  134.1080   75.3300  226.1440 C   0  0  0  0  0  0  0  0  0  0  0  0
  133.5860   74.0760  226.4800 C   0  0  0  0  0  0  0  0  0  0  0  0
  134.2090   72.9610  226.1070 N   0  0  0  0  0  0  0  0  0  0  0  0
  140.2250   70.8050  225.7700 C   0  0  0  0  0  0  0  0  0  0  0  0
  139.7960   70.1440  226.8760 C   0  0  0  0  0  0  0  0  0  0  0  0
  140.1530   70.5090  228.1740 C   0  0  0  0  0  0  0  0  0  0  0  0
  140.9740   71.5790  228.3890 C   0  0  0  0  0  0  0  0  0  0  0  0
  141.4220   72.2650  227.2690 C   0  0  0  0  0  0  0  0  0  0  0  0
  141.0680   71.9040  225.9860 C   0  0  0  0  0  0  0  0  0  0  0  0
  138.4941   71.9185  222.5027 H   0  0  0  0  0  0  0  0  0  0  0  0
  139.9060   72.4978  221.5554 H   0  0  0  0  0  0  0  0  0  0  0  0
  139.4792   70.7529  221.5554 H   0  0  0  0  0  0  0  0  0  0  0  0
  141.3600   71.0793  222.9791 H   0  0  0  0  0  0  0  0  0  0  0  0
  140.4466   72.4284  223.8536 H   0  0  0  0  0  0  0  0  0  0  0  0
  140.3722   69.5377  224.1310 H   0  0  0  0  0  0  0  0  0  0  0  0
  137.9760   71.4630  224.0120 H   0  0  0  0  0  0  0  0  0  0  0  0
  135.8391   69.1692  223.6078 H   0  0  0  0  0  0  0  0  0  0  0  0
  135.8638   68.6743  225.3844 H   0  0  0  0  0  0  0  0  0  0  0  0
  135.6920   71.5850  224.6540 H   0  0  0  0  0  0  0  0  0  0  0  0
  132.1676   70.6052  227.3936 H   0  0  0  0  0  0  0  0  0  0  0  0
  130.9648   72.6621  228.1140 H   0  0  0  0  0  0  0  0  0  0  0  0
  130.8291   75.0637  228.1735 H   0  0  0  0  0  0  0  0  0  0  0  0
  131.7374   77.3006  227.5890 H   0  0  0  0  0  0  0  0  0  0  0  0
  133.8312   77.4409  226.2900 H   0  0  0  0  0  0  0  0  0  0  0  0
  135.0408   75.4158  225.5673 H   0  0  0  0  0  0  0  0  0  0  0  0
  139.1332   69.2765  226.7414 H   0  0  0  0  0  0  0  0  0  0  0  0
  139.7712   69.9319  229.0291 H   0  0  0  0  0  0  0  0  0  0  0  0
  141.2671   71.8834  229.4046 H   0  0  0  0  0  0  0  0  0  0  0  0
  142.0856   73.1308  227.4102 H   0  0  0  0  0  0  0  0  0  0  0  0
  141.4482   72.4801  225.1296 H   0  0  0  0  0  0  0  0  0  0  0  0
  1  2  1  0
  2  3  1  0
  3  4  1  0
  4  5  1  0
  5  6  2  0
  5  7  1  0
  7  8  1  0
  8  9  1  0
  9 10  2  0
  9 11  1  0
 11 12  2  0
 12 13  1  0
 13 14  2  0
 14 15  1  0
 15 16  2  0
 16 17  1  0
 17 18  2  0
 18 19  1  0
 19 20  2  0
  3 21  1  0
 21 22  2  0
 22 23  1  0
 23 24  2  0
 24 25  1  0
 25 26  2  0
 20 11  1  0
 26 21  1  0
 19 14  1  0
  1 27  1  0
  1 28  1  0
  1 29  1  0
  2 30  1  0
  2 31  1  0
  3 32  1  6
  4 33  1  0
  7 34  1  0
  7 35  1  0
  8 36  1  0
 12 37  1  0
 13 38  1  0
 15 39  1  0
 16 40  1  0
 17 41  1  0
 18 42  1  0
 22 43  1  0
 23 44  1  0
 24 45  1  0
 25 46  1  0
 26 47  1  0
M  END
>  <smiles>  (11) 
CC[C@H](NC(=O)CNC(=O)c1ccc2ccccc2n1)c1ccccc1

>  <score_type>  (11) 
oracle

>  <origin>  (11) 
autodockgpu

>  <m_score__min__energy>  (11) 
-8.6300000000000008

>  <m_primary>  (11) 
energy

>  <rmsd>  (11) 
10.03100691512037

>  <m_score__min__rmsd>  (11) 
10.03100691512037

>  <meeko>  (11) 
{"free_energy": -8.41, "intermolecular_energy": -10.2, "internal_energy": -1.38, "cluster_size": 14, "cluster_id": 3, "rank_in_cluster": 5}

>  <energy>  (11) 
-7.51

>  <cluster_rmsd>  (11) 
1.26

>  <cluster>  (11) 
3

$$$$

     RDKit          3D

 47 49  0  0  0  0  0  0  0  0999 V2000
  135.4180   76.7870  223.1210 C   0  0  0  0  0  0  0  0  0  0  0  0
  136.4470   75.7060  223.1850 C   0  0  0  0  0  0  0  0  0  0  0  0
  137.4840   75.7220  222.1240 C   0  0  2  0  0  0  0  0  0  0  0  0
  138.0400   74.3510  222.0790 N   0  0  0  0  0  0  0  0  0  0  0  0
  137.9450   73.5510  220.9130 C   0  0  0  0  0  0  0  0  0  0  0  0
  137.3540   74.0860  219.9170 O   0  0  0  0  0  0  0  0  0  0  0  0
  138.4560   72.1940  220.7590 C   0  0  0  0  0  0  0  0  0  0  0  0
  138.6730   71.4650  221.9860 N   0  0  0  0  0  0  0  0  0  0  0  0
  139.7130   71.9640  222.8460 C   0  0  0  0  0  0  0  0  0  0  0  0
  140.3830   72.9870  222.5230 O   0  0  0  0  0  0  0  0  0  0  0  0
  139.9780   71.2690  224.0980 C   0  0  0  0  0  0  0  0  0  0  0  0
  140.7220   71.8960  225.0780 C   0  0  0  0  0  0  0  0  0  0  0  0
  140.9700   71.2310  226.2640 C   0  0  0  0  0  0  0  0  0  0  0  0
  140.4660   69.9390  226.4560 C   0  0  0  0  0  0  0  0  0  0  0  0
  140.7060   69.2680  227.6290 C   0  0  0  0  0  0  0  0  0  0  0  0
  140.2150   67.9970  227.8280 C   0  0  0  0  0  0  0  0  0  0  0  0
  139.4810   67.4170  226.8220 C   0  0  0  0  0  0  0  0  0  0  0  0
  139.2200   68.0570  225.6350 C   0  0  0  0  0  0  0  0  0  0  0  0
  139.7270   69.3490  225.4510 C   0  0  0  0  0  0  0  0  0  0  0  0
  139.5020   70.0100  224.3180 N   0  0  0  0  0  0  0  0  0  0  0  0
  138.6510   76.5850  222.3520 C   0  0  0  0  0  0  0  0  0  0  0  0
  138.6470   77.8910  222.7230 C   0  0  0  0  0  0  0  0  0  0  0  0
  139.8100   78.6390  222.9090 C   0  0  0  0  0  0  0  0  0  0  0  0
  141.0360   78.0670  222.7190 C   0  0  0  0  0  0  0  0  0  0  0  0
  141.0570   76.7330  222.3390 C   0  0  0  0  0  0  0  0  0  0  0  0
  139.9070   75.9950  222.1550 C   0  0  0  0  0  0  0  0  0  0  0  0
  135.1348   77.0845  224.1414 H   0  0  0  0  0  0  0  0  0  0  0  0
  135.8313   77.6555  222.5872 H   0  0  0  0  0  0  0  0  0  0  0  0
  134.5302   76.4170  222.5872 H   0  0  0  0  0  0  0  0  0  0  0  0
  136.9589   75.7876  224.1552 H   0  0  0  0  0  0  0  0  0  0  0  0
  135.8943   74.7660  223.0408 H   0  0  0  0  0  0  0  0  0  0  0  0
  136.9783   76.0974  221.2222 H   0  0  0  0  0  0  0  0  0  0  0  0
  138.5110   73.9750  222.9270 H   0  0  0  0  0  0  0  0  0  0  0  0
  137.7341   71.6276  220.1523 H   0  0  0  0  0  0  0  0  0  0  0  0
  139.4465   72.2972  220.2918 H   0  0  0  0  0  0  0  0  0  0  0  0
  138.1610   70.6320  222.2980 H   0  0  0  0  0  0  0  0  0  0  0  0
  141.1123   72.9117  224.9168 H   0  0  0  0  0  0  0  0  0  0  0  0
  141.5616   71.7154  227.0548 H   0  0  0  0  0  0  0  0  0  0  0  0
  141.2980   69.7516  228.4200 H   0  0  0  0  0  0  0  0  0  0  0  0
  140.4057   67.4597  228.7687 H   0  0  0  0  0  0  0  0  0  0  0  0
  139.0872   66.4011  226.9729 H   0  0  0  0  0  0  0  0  0  0  0  0
  138.6274   67.5667  224.8486 H   0  0  0  0  0  0  0  0  0  0  0  0
  137.6774   78.3846  222.8852 H   0  0  0  0  0  0  0  0  0  0  0  0
  139.7394   79.6946  223.2101 H   0  0  0  0  0  0  0  0  0  0  0  0
  141.9650   78.6387  222.8610 H   0  0  0  0  0  0  0  0  0  0  0  0
  142.0295   76.2447  222.1782 H   0  0  0  0  0  0  0  0  0  0  0  0
  139.9755   74.9396  221.8526 H   0  0  0  0  0  0  0  0  0  0  0  0
  1  2  1  0
  2  3  1  0
  3  4  1  0
  4  5  1  0
  5  6  2  0
  5  7  1  0
  7  8  1  0
  8  9  1  0
  9 10  2  0
  9 11  1  0
 11 12  2  0
 12 13  1  0
 13 14  2  0
 14 15  1  0
 15 16  2  0
 16 17  1  0
 17 18  2  0
 18 19  1  0
 19 20  2  0
  3 21  1  0
 21 22  2  0
 22 23  1  0
 23 24  2  0
 24 25  1  0
 25 26  2  0
 20 11  1  0
 26 21  1  0
 19 14  1  0
  1 27  1  0
  1 28  1  0
  1 29  1  0
  2 30  1  0
  2 31  1  0
  3 32  1  6
  4 33  1  0
  7 34  1  0
  7 35  1  0
  8 36  1  0
 12 37  1  0
 13 38  1  0
 15 39  1  0
 16 40  1  0
 17 41  1  0
 18 42  1  0
 22 43  1  0
 23 44  1  0
 24 45  1  0
 25 46  1  0
 26 47  1  0
M  END
>  <smiles>  (12) 
CC[C@H](NC(=O)CNC(=O)c1ccc2ccccc2n1)c1ccccc1

>  <score_type>  (12) 
oracle

>  <origin>  (12) 
autodockgpu

>  <m_score__min__energy>  (12) 
-8.6300000000000008

>  <m_primary>  (12) 
energy

>  <rmsd>  (12) 
4.821047033417653

>  <m_score__min__rmsd>  (12) 
4.821047033417653

>  <meeko>  (12) 
{"free_energy": -7.47, "intermolecular_energy": -9.26, "internal_energy": -2.25, "cluster_size": 27, "cluster_id": 5, "rank_in_cluster": 21}

>  <energy>  (12) 
-7.51

>  <cluster_rmsd>  (12) 
1.25

>  <cluster>  (12) 
3

$$$$

     RDKit          3D

 47 49  0  0  0  0  0  0  0  0999 V2000
  139.5050   72.2580  222.3210 C   0  0  0  0  0  0  0  0  0  0  0  0
  140.4540   71.6920  223.3250 C   0  0  0  0  0  0  0  0  0  0  0  0
  139.8970   70.6840  224.2610 C   0  0  2  0  0  0  0  0  0  0  0  0
  138.4270   70.8480  224.2070 N   0  0  0  0  0  0  0  0  0  0  0  0
  137.5560   69.7310  224.2280 C   0  0  0  0  0  0  0  0  0  0  0  0
  138.1180   68.5870  224.2940 O   0  0  0  0  0  0  0  0  0  0  0  0
  136.1000   69.7780  224.1810 C   0  0  0  0  0  0  0  0  0  0  0  0
  135.4870   70.8890  224.8680 N   0  0  0  0  0  0  0  0  0  0  0  0
  135.6280   72.1780  224.2450 C   0  0  0  0  0  0  0  0  0  0  0  0
  136.2580   72.3020  223.1550 O   0  0  0  0  0  0  0  0  0  0  0  0
  135.0310   73.3380  224.8920 C   0  0  0  0  0  0  0  0  0  0  0  0
  135.4810   74.6030  224.5690 C   0  0  0  0  0  0  0  0  0  0  0  0
  134.9100   75.6980  225.1860 C   0  0  0  0  0  0  0  0  0  0  0  0
  133.8890   75.5150  226.1270 C   0  0  0  0  0  0  0  0  0  0  0  0
  133.3140   76.5950  226.7470 C   0  0  0  0  0  0  0  0  0  0  0  0
  132.3090   76.4250  227.6740 C   0  0  0  0  0  0  0  0  0  0  0  0
  131.8980   75.1460  227.9610 C   0  0  0  0  0  0  0  0  0  0  0  0
  132.4490   74.0400  227.3600 C   0  0  0  0  0  0  0  0  0  0  0  0
  133.4700   74.2330  226.4210 C   0  0  0  0  0  0  0  0  0  0  0  0
  134.0350   73.1940  225.8130 N   0  0  0  0  0  0  0  0  0  0  0  0
  140.2340   70.8420  225.6820 C   0  0  0  0  0  0  0  0  0  0  0  0
  139.8010   70.0790  226.7190 C   0  0  0  0  0  0  0  0  0  0  0  0
  140.1680   70.3090  228.0450 C   0  0  0  0  0  0  0  0  0  0  0  0
  141.0030   71.3430  228.3620 C   0  0  0  0  0  0  0  0  0  0  0  0
  141.4540   72.1320  227.3130 C   0  0  0  0  0  0  0  0  0  0  0  0
  141.0900   71.9050  226.0020 C   0  0  0  0  0  0  0  0  0  0  0  0
  138.6730   72.7543  222.8420 H   0  0  0  0  0  0  0  0  0  0  0  0
  140.0315   72.9898  221.6906 H   0  0  0  0  0  0  0  0  0  0  0  0
  139.1114   71.4470  221.6906 H   0  0  0  0  0  0  0  0  0  0  0  0
  141.2804   71.2181  222.7750 H   0  0  0  0  0  0  0  0  0  0  0  0
  140.7559   72.5418  223.9548 H   0  0  0  0  0  0  0  0  0  0  0  0
  140.3147   69.7189  223.9383 H   0  0  0  0  0  0  0  0  0  0  0  0
  138.0340   71.8100  224.1550 H   0  0  0  0  0  0  0  0  0  0  0  0
  135.7974   69.8255  223.1245 H   0  0  0  0  0  0  0  0  0  0  0  0
  135.7540   68.8744  224.7042 H   0  0  0  0  0  0  0  0  0  0  0  0
  134.9650   70.8460  225.7520 H   0  0  0  0  0  0  0  0  0  0  0  0
  136.2843   74.7364  223.8294 H   0  0  0  0  0  0  0  0  0  0  0  0
  135.2563   76.7124  224.9390 H   0  0  0  0  0  0  0  0  0  0  0  0
  133.6597   77.6099  226.5009 H   0  0  0  0  0  0  0  0  0  0  0  0
  131.8477   77.2909  228.1714 H   0  0  0  0  0  0  0  0  0  0  0  0
  131.0967   75.0017  228.7006 H   0  0  0  0  0  0  0  0  0  0  0  0
  132.0970   73.0283  227.6101 H   0  0  0  0  0  0  0  0  0  0  0  0
  139.1269   69.2372  226.5022 H   0  0  0  0  0  0  0  0  0  0  0  0
  139.7828   69.6539  228.8403 H   0  0  0  0  0  0  0  0  0  0  0  0
  141.3041   71.5411  229.4013 H   0  0  0  0  0  0  0  0  0  0  0  0
  142.1286   72.9718  227.5359 H   0  0  0  0  0  0  0  0  0  0  0  0
  141.4725   72.5600  225.2053 H   0  0  0  0  0  0  0  0  0  0  0  0
  1  2  1  0
  2  3  1  0
  3  4  1  0
  4  5  1  0
  5  6  2  0
  5  7  1  0
  7  8  1  0
  8  9  1  0
  9 10  2  0
  9 11  1  0
 11 12  2  0
 12 13  1  0
 13 14  2  0
 14 15  1  0
 15 16  2  0
 16 17  1  0
 17 18  2  0
 18 19  1  0
 19 20  2  0
  3 21  1  0
 21 22  2  0
 22 23  1  0
 23 24  2  0
 24 25  1  0
 25 26  2  0
 20 11  1  0
 26 21  1  0
 19 14  1  0
  1 27  1  0
  1 28  1  0
  1 29  1  0
  2 30  1  0
  2 31  1  0
  3 32  1  6
  4 33  1  0
  7 34  1  0
  7 35  1  0
  8 36  1  0
 12 37  1  0
 13 38  1  0
 15 39  1  0
 16 40  1  0
 17 41  1  0
 18 42  1  0
 22 43  1  0
 23 44  1  0
 24 45  1  0
 25 46  1  0
 26 47  1  0
M  END
>  <smiles>  (13) 
CC[C@H](NC(=O)CNC(=O)c1ccc2ccccc2n1)c1ccccc1

>  <score_type>  (13) 
oracle

>  <origin>  (13) 
autodockgpu

>  <m_score__min__energy>  (13) 
-8.6300000000000008

>  <m_primary>  (13) 
energy

>  <rmsd>  (13) 
9.701502566429166

>  <m_score__min__rmsd>  (13) 
9.701502566429166

>  <meeko>  (13) 
{"free_energy": -7.49, "intermolecular_energy": -9.28, "internal_energy": -2.26, "cluster_size": 14, "cluster_id": 3, "rank_in_cluster": 9}

>  <energy>  (13) 
-7.49

>  <cluster_rmsd>  (13) 
1.26

>  <cluster>  (13) 
3

$$$$

     RDKit          3D

 47 49  0  0  0  0  0  0  0  0999 V2000
  139.3460   72.2090  222.3220 C   0  0  0  0  0  0  0  0  0  0  0  0
  140.3680   71.5350  223.1770 C   0  0  0  0  0  0  0  0  0  0  0  0
  139.8490   70.6200  224.2240 C   0  0  2  0  0  0  0  0  0  0  0  0
  138.3770   70.7790  224.2090 N   0  0  0  0  0  0  0  0  0  0  0  0
  137.5110   69.6570  224.2150 C   0  0  0  0  0  0  0  0  0  0  0  0
  138.0790   68.5150  224.2320 O   0  0  0  0  0  0  0  0  0  0  0  0
  136.0540   69.6990  224.2020 C   0  0  0  0  0  0  0  0  0  0  0  0
  135.4550   70.8250  224.8780 N   0  0  0  0  0  0  0  0  0  0  0  0
  135.5780   72.1000  224.2200 C   0  0  0  0  0  0  0  0  0  0  0  0
  136.1810   72.1990  223.1140 O   0  0  0  0  0  0  0  0  0  0  0  0
  134.9930   73.2730  224.8550 C   0  0  0  0  0  0  0  0  0  0  0  0
  135.4630   74.5280  224.5250 C   0  0  0  0  0  0  0  0  0  0  0  0
  134.9040   75.6370  225.1300 C   0  0  0  0  0  0  0  0  0  0  0  0
  133.8740   75.4750  226.0640 C   0  0  0  0  0  0  0  0  0  0  0  0
  133.3100   76.5690  226.6720 C   0  0  0  0  0  0  0  0  0  0  0  0
  132.2960   76.4210  227.5920 C   0  0  0  0  0  0  0  0  0  0  0  0
  131.8640   75.1500  227.8860 C   0  0  0  0  0  0  0  0  0  0  0  0
  132.4030   74.0320  227.2970 C   0  0  0  0  0  0  0  0  0  0  0  0
  133.4330   74.2030  226.3650 C   0  0  0  0  0  0  0  0  0  0  0  0
  133.9870   73.1500  225.7680 N   0  0  0  0  0  0  0  0  0  0  0  0
  140.2370   70.9110  225.6110 C   0  0  0  0  0  0  0  0  0  0  0  0
  141.0630   71.8990  226.0420 C   0  0  0  0  0  0  0  0  0  0  0  0
  141.3830   72.0980  227.3850 C   0  0  0  0  0  0  0  0  0  0  0  0
  140.8620   71.2800  228.3480 C   0  0  0  0  0  0  0  0  0  0  0  0
  140.0170   70.2660  227.9230 C   0  0  0  0  0  0  0  0  0  0  0  0
  139.7000   70.0690  226.5950 C   0  0  0  0  0  0  0  0  0  0  0  0
  138.5993   72.7014  222.9623 H   0  0  0  0  0  0  0  0  0  0  0  0
  139.8374   72.9608  221.6869 H   0  0  0  0  0  0  0  0  0  0  0  0
  138.8484   71.4613  221.6869 H   0  0  0  0  0  0  0  0  0  0  0  0
  141.0248   70.9501  222.5163 H   0  0  0  0  0  0  0  0  0  0  0  0
  140.8760   72.3451  223.7208 H   0  0  0  0  0  0  0  0  0  0  0  0
  140.2580   69.6288  223.9785 H   0  0  0  0  0  0  0  0  0  0  0  0
  137.9790   71.7400  224.1960 H   0  0  0  0  0  0  0  0  0  0  0  0
  135.7257   69.7211  223.1524 H   0  0  0  0  0  0  0  0  0  0  0  0
  135.7230   68.8068  224.7537 H   0  0  0  0  0  0  0  0  0  0  0  0
  134.9550   70.8020  225.7740 H   0  0  0  0  0  0  0  0  0  0  0  0
  136.2726   74.6437  223.7894 H   0  0  0  0  0  0  0  0  0  0  0  0
  135.2672   76.6444  224.8786 H   0  0  0  0  0  0  0  0  0  0  0  0
  133.6727   77.5767  226.4211 H   0  0  0  0  0  0  0  0  0  0  0  0
  131.8436   77.2975  228.0789 H   0  0  0  0  0  0  0  0  0  0  0  0
  131.0556   75.0229  228.6211 H   0  0  0  0  0  0  0  0  0  0  0  0
  132.0342   73.0274  227.5516 H   0  0  0  0  0  0  0  0  0  0  0  0
  141.5017   72.5763  225.2945 H   0  0  0  0  0  0  0  0  0  0  0  0
  142.0584   72.9179  227.6706 H   0  0  0  0  0  0  0  0  0  0  0  0
  141.1022   71.4197  229.4123 H   0  0  0  0  0  0  0  0  0  0  0  0
  139.5819   69.5915  228.6752 H   0  0  0  0  0  0  0  0  0  0  0  0
  139.0246   69.2497  226.3075 H   0  0  0  0  0  0  0  0  0  0  0  0
  1  2  1  0
  2  3  1  0
  3  4  1  0
  4  5  1  0
  5  6  2  0
  5  7  1  0
  7  8  1  0
  8  9  1  0
  9 10  2  0
  9 11  1  0
 11 12  2  0
 12 13  1  0
 13 14  2  0
 14 15  1  0
 15 16  2  0
 16 17  1  0
 17 18  2  0
 18 19  1  0
 19 20  2  0
  3 21  1  0
 21 22  2  0
 22 23  1  0
 23 24  2  0
 24 25  1  0
 25 26  2  0
 20 11  1  0
 26 21  1  0
 19 14  1  0
  1 27  1  0
  1 28  1  0
  1 29  1  0
  2 30  1  0
  2 31  1  0
  3 32  1  6
  4 33  1  0
  7 34  1  0
  7 35  1  0
  8 36  1  0
 12 37  1  0
 13 38  1  0
 15 39  1  0
 16 40  1  0
 17 41  1  0
 18 42  1  0
 22 43  1  0
 23 44  1  0
 24 45  1  0
 25 46  1  0
 26 47  1  0
M  END
>  <smiles>  (14) 
CC[C@H](NC(=O)CNC(=O)c1ccc2ccccc2n1)c1ccccc1

>  <score_type>  (14) 
oracle

>  <origin>  (14) 
autodockgpu

>  <m_score__min__energy>  (14) 
-8.6300000000000008

>  <m_primary>  (14) 
energy

>  <rmsd>  (14) 
9.901239169153753

>  <m_score__min__rmsd>  (14) 
9.901239169153753

>  <meeko>  (14) 
{"free_energy": -7.45, "intermolecular_energy": -9.24, "internal_energy": -2.25, "cluster_size": 14, "cluster_id": 3, "rank_in_cluster": 12}

>  <energy>  (14) 
-7.47

>  <cluster_rmsd>  (14) 
1.29

>  <cluster>  (14) 
3

$$$$

     RDKit          3D

 47 49  0  0  0  0  0  0  0  0999 V2000
  135.8910   74.7090  223.2070 C   0  0  0  0  0  0  0  0  0  0  0  0
  136.4970   76.0730  223.1390 C   0  0  0  0  0  0  0  0  0  0  0  0
  137.5880   76.2590  222.1500 C   0  0  2  0  0  0  0  0  0  0  0  0
  138.2290   74.9330  221.9980 N   0  0  0  0  0  0  0  0  0  0  0  0
  138.1790   74.2230  220.7720 C   0  0  0  0  0  0  0  0  0  0  0  0
  137.5520   74.7970  219.8210 O   0  0  0  0  0  0  0  0  0  0  0  0
  138.7730   72.9180  220.5120 C   0  0  0  0  0  0  0  0  0  0  0  0
  138.7950   72.0070  221.6320 N   0  0  0  0  0  0  0  0  0  0  0  0
  139.7050   72.3320  222.6980 C   0  0  0  0  0  0  0  0  0  0  0  0
  140.4330   73.3640  222.6340 O   0  0  0  0  0  0  0  0  0  0  0  0
  139.7710   71.4490  223.8550 C   0  0  0  0  0  0  0  0  0  0  0  0
  139.2150   70.1870  223.7780 C   0  0  0  0  0  0  0  0  0  0  0  0
  139.2810   69.3540  224.8780 C   0  0  0  0  0  0  0  0  0  0  0  0
  139.9080   69.7960  226.0490 C   0  0  0  0  0  0  0  0  0  0  0  0
  139.9800   68.9780  227.1490 C   0  0  0  0  0  0  0  0  0  0  0  0
  140.5940   69.4030  228.3060 C   0  0  0  0  0  0  0  0  0  0  0  0
  141.1310   70.6670  228.3320 C   0  0  0  0  0  0  0  0  0  0  0  0
  141.0790   71.5140  227.2510 C   0  0  0  0  0  0  0  0  0  0  0  0
  140.4510   71.0640  226.0840 C   0  0  0  0  0  0  0  0  0  0  0  0
  140.3740   71.8480  225.0110 N   0  0  0  0  0  0  0  0  0  0  0  0
  138.6850   77.1560  222.5350 C   0  0  0  0  0  0  0  0  0  0  0  0
  138.5810   78.4100  223.0460 C   0  0  0  0  0  0  0  0  0  0  0  0
  139.6840   79.1970  223.3780 C   0  0  0  0  0  0  0  0  0  0  0  0
  140.9520   78.7210  223.1950 C   0  0  0  0  0  0  0  0  0  0  0  0
  141.0750   77.4420  222.6740 C   0  0  0  0  0  0  0  0  0  0  0  0
  139.9840   76.6640  222.3460 C   0  0  0  0  0  0  0  0  0  0  0  0
  135.7615   74.4174  224.2597 H   0  0  0  0  0  0  0  0  0  0  0  0
  134.9119   74.7173  222.7057 H   0  0  0  0  0  0  0  0  0  0  0  0
  136.5535   73.9880  222.7057 H   0  0  0  0  0  0  0  0  0  0  0  0
  135.6951   76.7841  222.8912 H   0  0  0  0  0  0  0  0  0  0  0  0
  136.9614   76.2371  224.1226 H   0  0  0  0  0  0  0  0  0  0  0  0
  137.1099   76.6995  221.2626 H   0  0  0  0  0  0  0  0  0  0  0  0
  138.7250   74.5220  222.8140 H   0  0  0  0  0  0  0  0  0  0  0  0
  138.2027   72.4425  219.7004 H   0  0  0  0  0  0  0  0  0  0  0  0
  139.8265   73.1119  220.2618 H   0  0  0  0  0  0  0  0  0  0  0  0
  138.2280   71.1570  221.7370 H   0  0  0  0  0  0  0  0  0  0  0  0
  138.7258   69.8495  222.8524 H   0  0  0  0  0  0  0  0  0  0  0  0
  138.8422   68.3463  224.8339 H   0  0  0  0  0  0  0  0  0  0  0  0
  139.5416   67.9701  227.1057 H   0  0  0  0  0  0  0  0  0  0  0  0
  140.6529   68.7470  229.1870 H   0  0  0  0  0  0  0  0  0  0  0  0
  141.6214   71.0146  229.2533 H   0  0  0  0  0  0  0  0  0  0  0  0
  141.5199   72.5205  227.3017 H   0  0  0  0  0  0  0  0  0  0  0  0
  137.5756   78.8265  223.2063 H   0  0  0  0  0  0  0  0  0  0  0  0
  139.5324   80.2059  223.7892 H   0  0  0  0  0  0  0  0  0  0  0  0
  141.8351   79.3253  223.4496 H   0  0  0  0  0  0  0  0  0  0  0  0
  142.0830   77.0311  222.5158 H   0  0  0  0  0  0  0  0  0  0  0  0
  140.1338   75.6547  221.9350 H   0  0  0  0  0  0  0  0  0  0  0  0
  1  2  1  0
  2  3  1  0
  3  4  1  0
  4  5  1  0
  5  6  2  0
  5  7  1  0
  7  8  1  0
  8  9  1  0
  9 10  2  0
  9 11  1  0
 11 12  2  0
 12 13  1  0
 13 14  2  0
 14 15  1  0
 15 16  2  0
 16 17  1  0
 17 18  2  0
 18 19  1  0
 19 20  2  0
  3 21  1  0
 21 22  2  0
 22 23  1  0
 23 24  2  0
 24 25  1  0
 25 26  2  0
 20 11  1  0
 26 21  1  0
 19 14  1  0
  1 27  1  0
  1 28  1  0
  1 29  1  0
  2 30  1  0
  2 31  1  0
  3 32  1  6
  4 33  1  0
  7 34  1  0
  7 35  1  0
  8 36  1  0
 12 37  1  0
 13 38  1  0
 15 39  1  0
 16 40  1  0
 17 41  1  0
 18 42  1  0
 22 43  1  0
 23 44  1  0
 24 45  1  0
 25 46  1  0
 26 47  1  0
M  END
>  <smiles>  (15) 
CC[C@H](NC(=O)CNC(=O)c1ccc2ccccc2n1)c1ccccc1

>  <score_type>  (15) 
oracle

>  <origin>  (15) 
autodockgpu

>  <m_score__min__energy>  (15) 
-8.6300000000000008

>  <m_primary>  (15) 
energy

>  <rmsd>  (15) 
4.836387670764974

>  <m_score__min__rmsd>  (15) 
4.836387670764974

>  <meeko>  (15) 
{"free_energy": -7.84, "intermolecular_energy": -9.63, "internal_energy": -2.01, "cluster_size": 27, "cluster_id": 5, "rank_in_cluster": 6}

>  <energy>  (15) 
-7.46

>  <cluster_rmsd>  (15) 
1.27

>  <cluster>  (15) 
3

$$$$

     RDKit          3D

 47 49  0  0  0  0  0  0  0  0999 V2000
  135.4230   76.8190  223.2240 C   0  0  0  0  0  0  0  0  0  0  0  0
  136.5390   75.8290  223.2900 C   0  0  0  0  0  0  0  0  0  0  0  0
  137.6110   75.9770  222.2740 C   0  0  2  0  0  0  0  0  0  0  0  0
  138.2840   74.6600  222.1990 N   0  0  0  0  0  0  0  0  0  0  0  0
  137.8380   73.6510  221.3090 C   0  0  0  0  0  0  0  0  0  0  0  0
  136.8300   73.9500  220.5880 O   0  0  0  0  0  0  0  0  0  0  0  0
  138.4250   72.3260  221.1530 C   0  0  0  0  0  0  0  0  0  0  0  0
  138.6820   71.6070  222.3790 N   0  0  0  0  0  0  0  0  0  0  0  0
  139.8500   72.0090  223.1170 C   0  0  0  0  0  0  0  0  0  0  0  0
  140.5910   72.9430  222.6950 O   0  0  0  0  0  0  0  0  0  0  0  0
  140.1610   71.3200  224.3620 C   0  0  0  0  0  0  0  0  0  0  0  0
  141.0370   71.9000  225.2580 C   0  0  0  0  0  0  0  0  0  0  0  0
  141.3280   71.2420  226.4370 C   0  0  0  0  0  0  0  0  0  0  0  0
  140.7350   70.0030  226.7080 C   0  0  0  0  0  0  0  0  0  0  0  0
  141.0160   69.3390  227.8750 C   0  0  0  0  0  0  0  0  0  0  0  0
  140.4380   68.1200  228.1510 C   0  0  0  0  0  0  0  0  0  0  0  0
  139.5730   67.5850  227.2270 C   0  0  0  0  0  0  0  0  0  0  0  0
  139.2670   68.2210  226.0480 C   0  0  0  0  0  0  0  0  0  0  0  0
  139.8650   69.4590  225.7850 C   0  0  0  0  0  0  0  0  0  0  0  0
  139.6000   70.1130  224.6570 N   0  0  0  0  0  0  0  0  0  0  0  0
  138.6900   76.9250  222.5830 C   0  0  0  0  0  0  0  0  0  0  0  0
  138.5610   78.1880  223.0630 C   0  0  0  0  0  0  0  0  0  0  0  0
  139.6470   79.0250  223.3210 C   0  0  0  0  0  0  0  0  0  0  0  0
  140.9230   78.5910  223.0920 C   0  0  0  0  0  0  0  0  0  0  0  0
  141.0710   77.3020  222.6000 C   0  0  0  0  0  0  0  0  0  0  0  0
  139.9960   76.4760  222.3460 C   0  0  0  0  0  0  0  0  0  0  0  0
  135.1147   77.0925  224.2439 H   0  0  0  0  0  0  0  0  0  0  0  0
  135.7621   77.7188  222.6898 H   0  0  0  0  0  0  0  0  0  0  0  0
  134.5701   76.3750  222.6898 H   0  0  0  0  0  0  0  0  0  0  0  0
  137.0044   75.9145  224.2830 H   0  0  0  0  0  0  0  0  0  0  0  0
  136.0763   74.8518  223.0876 H   0  0  0  0  0  0  0  0  0  0  0  0
  137.1096   76.3463  221.3672 H   0  0  0  0  0  0  0  0  0  0  0  0
  139.1020   74.4820  222.8150 H   0  0  0  0  0  0  0  0  0  0  0  0
  137.7370   71.7210  220.5442 H   0  0  0  0  0  0  0  0  0  0  0  0
  139.4086   72.4865  220.6875 H   0  0  0  0  0  0  0  0  0  0  0  0
  138.1160   70.8440  222.7680 H   0  0  0  0  0  0  0  0  0  0  0  0
  141.4974   72.8740  225.0356 H   0  0  0  0  0  0  0  0  0  0  0  0
  142.0240   71.6903  227.1613 H   0  0  0  0  0  0  0  0  0  0  0  0
  141.7122   69.7862  228.5998 H   0  0  0  0  0  0  0  0  0  0  0  0
  140.6630   67.5881  229.0872 H   0  0  0  0  0  0  0  0  0  0  0  0
  139.1080   66.6109  227.4391 H   0  0  0  0  0  0  0  0  0  0  0  0
  138.5691   67.7683  225.3283 H   0  0  0  0  0  0  0  0  0  0  0  0
  137.5486   78.5712  223.2586 H   0  0  0  0  0  0  0  0  0  0  0  0
  139.4757   80.0393  223.7107 H   0  0  0  0  0  0  0  0  0  0  0  0
  141.7931   79.2346  223.2889 H   0  0  0  0  0  0  0  0  0  0  0  0
  142.0855   76.9241  222.4049 H   0  0  0  0  0  0  0  0  0  0  0  0
  140.1645   75.4613  221.9560 H   0  0  0  0  0  0  0  0  0  0  0  0
  1  2  1  0
  2  3  1  0
  3  4  1  0
  4  5  1  0
  5  6  2  0
  5  7  1  0
  7  8  1  0
  8  9  1  0
  9 10  2  0
  9 11  1  0
 11 12  2  0
 12 13  1  0
 13 14  2  0
 14 15  1  0
 15 16  2  0
 16 17  1  0
 17 18  2  0
 18 19  1  0
 19 20  2  0
  3 21  1  0
 21 22  2  0
 22 23  1  0
 23 24  2  0
 24 25  1  0
 25 26  2  0
 20 11  1  0
 26 21  1  0
 19 14  1  0
  1 27  1  0
  1 28  1  0
  1 29  1  0
  2 30  1  0
  2 31  1  0
  3 32  1  6
  4 33  1  0
  7 34  1  0
  7 35  1  0
  8 36  1  0
 12 37  1  0
 13 38  1  0
 15 39  1  0
 16 40  1  0
 17 41  1  0
 18 42  1  0
 22 43  1  0
 23 44  1  0
 24 45  1  0
 25 46  1  0
 26 47  1  0
M  END
>  <smiles>  (16) 
CC[C@H](NC(=O)CNC(=O)c1ccc2ccccc2n1)c1ccccc1

>  <score_type>  (16) 
oracle

>  <origin>  (16) 
autodockgpu

>  <m_score__min__energy>  (16) 
-8.6300000000000008

>  <m_primary>  (16) 
energy

>  <rmsd>  (16) 
4.728587663931966

>  <m_score__min__rmsd>  (16) 
4.728587663931966

>  <meeko>  (16) 
{"free_energy": -7.43, "intermolecular_energy": -9.22, "internal_energy": -2.18, "cluster_size": 27, "cluster_id": 5, "rank_in_cluster": 24}

>  <energy>  (16) 
-7.45

>  <cluster_rmsd>  (16) 
1.26

>  <cluster>  (16) 
3

$$$$

     RDKit          3D

 47 49  0  0  0  0  0  0  0  0999 V2000
  135.8580   74.8480  223.2020 C   0  0  0  0  0  0  0  0  0  0  0  0
  136.5690   76.1610  223.1770 C   0  0  0  0  0  0  0  0  0  0  0  0
  137.6350   76.3110  222.1560 C   0  0  2  0  0  0  0  0  0  0  0  0
  138.2350   74.9660  221.9940 N   0  0  0  0  0  0  0  0  0  0  0  0
  138.0260   74.1980  220.8220 C   0  0  0  0  0  0  0  0  0  0  0  0
  137.2940   74.7370  219.9270 O   0  0  0  0  0  0  0  0  0  0  0  0
  138.5670   72.8700  220.5590 C   0  0  0  0  0  0  0  0  0  0  0  0
  138.6330   71.9850  221.6980 N   0  0  0  0  0  0  0  0  0  0  0  0
  139.6690   72.2610  222.6570 C   0  0  0  0  0  0  0  0  0  0  0  0
  140.4630   73.2310  222.4900 O   0  0  0  0  0  0  0  0  0  0  0  0
  139.7850   71.4010  223.8270 C   0  0  0  0  0  0  0  0  0  0  0  0
  139.3560   70.0910  223.7510 C   0  0  0  0  0  0  0  0  0  0  0  0
  139.4700   69.2800  224.8640 C   0  0  0  0  0  0  0  0  0  0  0  0
  140.0140   69.7940  226.0470 C   0  0  0  0  0  0  0  0  0  0  0  0
  140.1320   68.9990  227.1600 C   0  0  0  0  0  0  0  0  0  0  0  0
  140.6660   69.4940  228.3280 C   0  0  0  0  0  0  0  0  0  0  0  0
  141.0770   70.8050  228.3520 C   0  0  0  0  0  0  0  0  0  0  0  0
  140.9760   71.6310  227.2590 C   0  0  0  0  0  0  0  0  0  0  0  0
  140.4300   71.1090  226.0800 C   0  0  0  0  0  0  0  0  0  0  0  0
  140.3110   71.8700  224.9950 N   0  0  0  0  0  0  0  0  0  0  0  0
  138.7680   77.1800  222.5030 C   0  0  0  0  0  0  0  0  0  0  0  0
  140.0890   76.9110  222.3420 C   0  0  0  0  0  0  0  0  0  0  0  0
  141.1020   77.7970  222.7100 C   0  0  0  0  0  0  0  0  0  0  0  0
  140.7930   79.0080  223.2630 C   0  0  0  0  0  0  0  0  0  0  0  0
  139.4470   79.2970  223.4340 C   0  0  0  0  0  0  0  0  0  0  0  0
  138.4460   78.4200  223.0710 C   0  0  0  0  0  0  0  0  0  0  0  0
  135.6917   74.5409  224.2451 H   0  0  0  0  0  0  0  0  0  0  0  0
  134.8895   74.9457  222.6897 H   0  0  0  0  0  0  0  0  0  0  0  0
  136.4691   74.0903  222.6897 H   0  0  0  0  0  0  0  0  0  0  0  0
  135.8190   76.9451  222.9963 H   0  0  0  0  0  0  0  0  0  0  0  0
  137.0798   76.2369  224.1482 H   0  0  0  0  0  0  0  0  0  0  0  0
  137.1433   76.7596  221.2802 H   0  0  0  0  0  0  0  0  0  0  0  0
  138.8230   74.5870  222.7630 H   0  0  0  0  0  0  0  0  0  0  0  0
  137.9349   72.3924  219.7959 H   0  0  0  0  0  0  0  0  0  0  0  0
  139.6080   73.0275  220.2404 H   0  0  0  0  0  0  0  0  0  0  0  0
  138.0160   71.1850  221.8840 H   0  0  0  0  0  0  0  0  0  0  0  0
  138.9290   69.6979  222.8166 H   0  0  0  0  0  0  0  0  0  0  0  0
  139.1342   68.2334  224.8205 H   0  0  0  0  0  0  0  0  0  0  0  0
  139.7953   67.9526  227.1178 H   0  0  0  0  0  0  0  0  0  0  0  0
  140.7613   68.8565  229.2194 H   0  0  0  0  0  0  0  0  0  0  0  0
  141.5033   71.2086  229.2823 H   0  0  0  0  0  0  0  0  0  0  0  0
  141.3155   72.6761  227.3087 H   0  0  0  0  0  0  0  0  0  0  0  0
  140.3751   75.9457  221.8990 H   0  0  0  0  0  0  0  0  0  0  0  0
  142.1549   77.5194  222.5542 H   0  0  0  0  0  0  0  0  0  0  0  0
  141.5762   79.7214  223.5591 H   0  0  0  0  0  0  0  0  0  0  0  0
  139.1667   80.2642  223.8768 H   0  0  0  0  0  0  0  0  0  0  0  0
  137.3924   78.6947  223.2278 H   0  0  0  0  0  0  0  0  0  0  0  0
  1  2  1  0
  2  3  1  0
  3  4  1  0
  4  5  1  0
  5  6  2  0
  5  7  1  0
  7  8  1  0
  8  9  1  0
  9 10  2  0
  9 11  1  0
 11 12  2  0
 12 13  1  0
 13 14  2  0
 14 15  1  0
 15 16  2  0
 16 17  1  0
 17 18  2  0
 18 19  1  0
 19 20  2  0
  3 21  1  0
 21 22  2  0
 22 23  1  0
 23 24  2  0
 24 25  1  0
 25 26  2  0
 20 11  1  0
 26 21  1  0
 19 14  1  0
  1 27  1  0
  1 28  1  0
  1 29  1  0
  2 30  1  0
  2 31  1  0
  3 32  1  6
  4 33  1  0
  7 34  1  0
  7 35  1  0
  8 36  1  0
 12 37  1  0
 13 38  1  0
 15 39  1  0
 16 40  1  0
 17 41  1  0
 18 42  1  0
 22 43  1  0
 23 44  1  0
 24 45  1  0
 25 46  1  0
 26 47  1  0
M  END
>  <smiles>  (17) 
CC[C@H](NC(=O)CNC(=O)c1ccc2ccccc2n1)c1ccccc1

>  <score_type>  (17) 
oracle

>  <origin>  (17) 
autodockgpu

>  <m_score__min__energy>  (17) 
-8.6300000000000008

>  <m_primary>  (17) 
energy

>  <rmsd>  (17) 
4.907474792994071

>  <m_score__min__rmsd>  (17) 
4.907474792994071

>  <meeko>  (17) 
{"free_energy": -7.86, "intermolecular_energy": -9.65, "internal_energy": -1.96, "cluster_size": 27, "cluster_id": 5, "rank_in_cluster": 1}

>  <energy>  (17) 
-7.45

>  <cluster_rmsd>  (17) 
1.27

>  <cluster>  (17) 
3

$$$$

     RDKit          3D

 47 49  0  0  0  0  0  0  0  0999 V2000
  139.4870   72.3980  222.3540 C   0  0  0  0  0  0  0  0  0  0  0  0
  140.3810   71.8780  223.4320 C   0  0  0  0  0  0  0  0  0  0  0  0
  139.8640   70.7310  224.2180 C   0  0  2  0  0  0  0  0  0  0  0  0
  138.3900   70.8750  224.2260 N   0  0  0  0  0  0  0  0  0  0  0  0
  137.5360   69.7460  224.2880 C   0  0  0  0  0  0  0  0  0  0  0  0
  138.1160   68.6110  224.3340 O   0  0  0  0  0  0  0  0  0  0  0  0
  136.0790   69.7730  224.3020 C   0  0  0  0  0  0  0  0  0  0  0  0
  135.4800   70.9030  224.9730 N   0  0  0  0  0  0  0  0  0  0  0  0
  135.5620   72.1650  224.2880 C   0  0  0  0  0  0  0  0  0  0  0  0
  136.1300   72.2530  223.1610 O   0  0  0  0  0  0  0  0  0  0  0  0
  134.9760   73.3410  224.9160 C   0  0  0  0  0  0  0  0  0  0  0  0
  135.4400   74.5960  224.5730 C   0  0  0  0  0  0  0  0  0  0  0  0
  134.8790   75.7070  225.1730 C   0  0  0  0  0  0  0  0  0  0  0  0
  133.8550   75.5490  226.1140 C   0  0  0  0  0  0  0  0  0  0  0  0
  133.2910   76.6450  226.7170 C   0  0  0  0  0  0  0  0  0  0  0  0
  132.2830   76.5000  227.6450 C   0  0  0  0  0  0  0  0  0  0  0  0
  131.8580   75.2300  227.9510 C   0  0  0  0  0  0  0  0  0  0  0  0
  132.3980   74.1090  227.3680 C   0  0  0  0  0  0  0  0  0  0  0  0
  133.4220   74.2770  226.4280 C   0  0  0  0  0  0  0  0  0  0  0  0
  133.9770   73.2220  225.8370 N   0  0  0  0  0  0  0  0  0  0  0  0
  140.2360   70.6800  225.6380 C   0  0  0  0  0  0  0  0  0  0  0  0
  140.1770   69.6040  226.4650 C   0  0  0  0  0  0  0  0  0  0  0  0
  140.5460   69.6500  227.8090 C   0  0  0  0  0  0  0  0  0  0  0  0
  140.9950   70.8150  228.3640 C   0  0  0  0  0  0  0  0  0  0  0  0
  141.0610   71.9240  227.5320 C   0  0  0  0  0  0  0  0  0  0  0  0
  140.6960   71.8780  226.2020 C   0  0  0  0  0  0  0  0  0  0  0  0
  138.6207   72.9019  222.8074 H   0  0  0  0  0  0  0  0  0  0  0  0
  140.0426   73.1139  221.7304 H   0  0  0  0  0  0  0  0  0  0  0  0
  139.1394   71.5611  221.7304 H   0  0  0  0  0  0  0  0  0  0  0  0
  141.3249   71.5642  222.9623 H   0  0  0  0  0  0  0  0  0  0  0  0
  140.4843   72.7038  224.1513 H   0  0  0  0  0  0  0  0  0  0  0  0
  140.2866   69.8334  223.7429 H   0  0  0  0  0  0  0  0  0  0  0  0
  137.9820   71.8310  224.1870 H   0  0  0  0  0  0  0  0  0  0  0  0
  135.7310   69.7762  223.2585 H   0  0  0  0  0  0  0  0  0  0  0  0
  135.7681   68.8858  224.8732 H   0  0  0  0  0  0  0  0  0  0  0  0
  135.0080   70.8890  225.8840 H   0  0  0  0  0  0  0  0  0  0  0  0
  136.2452   74.7094  223.8322 H   0  0  0  0  0  0  0  0  0  0  0  0
  135.2365   76.7139  224.9116 H   0  0  0  0  0  0  0  0  0  0  0  0
  133.6482   77.6522  226.4562 H   0  0  0  0  0  0  0  0  0  0  0  0
  131.8303   77.3783  228.1283 H   0  0  0  0  0  0  0  0  0  0  0  0
  131.0542   75.1056  228.6915 H   0  0  0  0  0  0  0  0  0  0  0  0
  132.0350   73.1050  227.6331 H   0  0  0  0  0  0  0  0  0  0  0  0
  139.8202   68.6482  226.0538 H   0  0  0  0  0  0  0  0  0  0  0  0
  140.4751   68.7424  228.4264 H   0  0  0  0  0  0  0  0  0  0  0  0
  141.2907   70.8714  229.4220 H   0  0  0  0  0  0  0  0  0  0  0  0
  141.4183   72.8770  227.9492 H   0  0  0  0  0  0  0  0  0  0  0  0
  140.7662   72.7842  225.5825 H   0  0  0  0  0  0  0  0  0  0  0  0
  1  2  1  0
  2  3  1  0
  3  4  1  0
  4  5  1  0
  5  6  2  0
  5  7  1  0
  7  8  1  0
  8  9  1  0
  9 10  2  0
  9 11  1  0
 11 12  2  0
 12 13  1  0
 13 14  2  0
 14 15  1  0
 15 16  2  0
 16 17  1  0
 17 18  2  0
 18 19  1  0
 19 20  2  0
  3 21  1  0
 21 22  2  0
 22 23  1  0
 23 24  2  0
 24 25  1  0
 25 26  2  0
 20 11  1  0
 26 21  1  0
 19 14  1  0
  1 27  1  0
  1 28  1  0
  1 29  1  0
  2 30  1  0
  2 31  1  0
  3 32  1  6
  4 33  1  0
  7 34  1  0
  7 35  1  0
  8 36  1  0
 12 37  1  0
 13 38  1  0
 15 39  1  0
 16 40  1  0
 17 41  1  0
 18 42  1  0
 22 43  1  0
 23 44  1  0
 24 45  1  0
 25 46  1  0
 26 47  1  0
M  END
>  <smiles>  (18) 
CC[C@H](NC(=O)CNC(=O)c1ccc2ccccc2n1)c1ccccc1

>  <score_type>  (18) 
oracle

>  <origin>  (18) 
autodockgpu

>  <m_score__min__energy>  (18) 
-8.6300000000000008

>  <m_primary>  (18) 
energy

>  <rmsd>  (18) 
9.821015962453354

>  <m_score__min__rmsd>  (18) 
9.821015962453354

>  <meeko>  (18) 
{"free_energy": -7.46, "intermolecular_energy": -9.25, "internal_energy": -2.24, "cluster_size": 14, "cluster_id": 3, "rank_in_cluster": 11}

>  <energy>  (18) 
-7.44

>  <cluster_rmsd>  (18) 
1.26

>  <cluster>  (18) 
3

$$$$

     RDKit          3D

 47 49  0  0  0  0  0  0  0  0999 V2000
  135.4150   74.7360  223.3080 C   0  0  0  0  0  0  0  0  0  0  0  0
  136.4910   75.7700  223.3550 C   0  0  0  0  0  0  0  0  0  0  0  0
  137.4700   75.7520  222.2400 C   0  0  2  0  0  0  0  0  0  0  0  0
  137.9800   74.3630  222.1700 N   0  0  0  0  0  0  0  0  0  0  0  0
  137.8470   73.5840  220.9930 C   0  0  0  0  0  0  0  0  0  0  0  0
  137.2650   74.1530  220.0110 O   0  0  0  0  0  0  0  0  0  0  0  0
  138.3110   72.2140  220.8160 C   0  0  0  0  0  0  0  0  0  0  0  0
  138.5690   71.4780  222.0310 N   0  0  0  0  0  0  0  0  0  0  0  0
  139.6450   71.9660  222.8530 C   0  0  0  0  0  0  0  0  0  0  0  0
  140.3100   72.9860  222.5080 O   0  0  0  0  0  0  0  0  0  0  0  0
  139.9520   71.2640  224.0910 C   0  0  0  0  0  0  0  0  0  0  0  0
  140.7490   71.8760  225.0380 C   0  0  0  0  0  0  0  0  0  0  0  0
  141.0370   71.2050  226.2110 C   0  0  0  0  0  0  0  0  0  0  0  0
  140.5200   69.9220  226.4240 C   0  0  0  0  0  0  0  0  0  0  0  0
  140.7980   69.2450  227.5850 C   0  0  0  0  0  0  0  0  0  0  0  0
  140.2950   67.9820  227.8040 C   0  0  0  0  0  0  0  0  0  0  0  0
  139.5070   67.4170  226.8300 C   0  0  0  0  0  0  0  0  0  0  0  0
  139.2060   68.0640  225.6560 C   0  0  0  0  0  0  0  0  0  0  0  0
  139.7270   69.3470  225.4510 C   0  0  0  0  0  0  0  0  0  0  0  0
  139.4640   70.0130  224.3300 N   0  0  0  0  0  0  0  0  0  0  0  0
  138.6740   76.5780  222.4010 C   0  0  0  0  0  0  0  0  0  0  0  0
  139.9660   76.1830  222.2630 C   0  0  0  0  0  0  0  0  0  0  0  0
  141.0520   77.0400  222.4430 C   0  0  0  0  0  0  0  0  0  0  0  0
  140.8520   78.3490  222.7780 C   0  0  0  0  0  0  0  0  0  0  0  0
  139.5370   78.7680  222.9230 C   0  0  0  0  0  0  0  0  0  0  0  0
  138.4630   77.9210  222.7440 C   0  0  0  0  0  0  0  0  0  0  0  0
  135.1272   74.4594  224.3330 H   0  0  0  0  0  0  0  0  0  0  0  0
  134.5402   75.1410  222.7782 H   0  0  0  0  0  0  0  0  0  0  0  0
  135.7848   73.8458  222.7782 H   0  0  0  0  0  0  0  0  0  0  0  0
  136.0066   76.7576  223.3596 H   0  0  0  0  0  0  0  0  0  0  0  0
  137.0739   75.5454  224.2604 H   0  0  0  0  0  0  0  0  0  0  0  0
  136.9283   76.1423  221.3658 H   0  0  0  0  0  0  0  0  0  0  0  0
  138.4460   73.9600  223.0080 H   0  0  0  0  0  0  0  0  0  0  0  0
  137.5440   71.6684  220.2469 H   0  0  0  0  0  0  0  0  0  0  0  0
  139.2797   72.2900  220.3003 H   0  0  0  0  0  0  0  0  0  0  0  0
  138.0630   70.6470  222.3590 H   0  0  0  0  0  0  0  0  0  0  0  0
  141.1496   72.8850  224.8608 H   0  0  0  0  0  0  0  0  0  0  0  0
  141.6710   71.6780  226.9754 H   0  0  0  0  0  0  0  0  0  0  0  0
  141.4309   69.7175  228.3506 H   0  0  0  0  0  0  0  0  0  0  0  0
  140.5181   67.4393  228.7344 H   0  0  0  0  0  0  0  0  0  0  0  0
  139.1018   66.4081  226.9968 H   0  0  0  0  0  0  0  0  0  0  0  0
  138.5711   67.5856  224.8957 H   0  0  0  0  0  0  0  0  0  0  0  0
  140.1662   75.1349  221.9959 H   0  0  0  0  0  0  0  0  0  0  0  0
  142.0759   76.6591  222.3143 H   0  0  0  0  0  0  0  0  0  0  0  0
  141.6951   79.0398  222.9261 H   0  0  0  0  0  0  0  0  0  0  0  0
  139.3434   79.8171  223.1913 H   0  0  0  0  0  0  0  0  0  0  0  0
  137.4383   78.3003  222.8707 H   0  0  0  0  0  0  0  0  0  0  0  0
  1  2  1  0
  2  3  1  0
  3  4  1  0
  4  5  1  0
  5  6  2  0
  5  7  1  0
  7  8  1  0
  8  9  1  0
  9 10  2  0
  9 11  1  0
 11 12  2  0
 12 13  1  0
 13 14  2  0
 14 15  1  0
 15 16  2  0
 16 17  1  0
 17 18  2  0
 18 19  1  0
 19 20  2  0
  3 21  1  0
 21 22  2  0
 22 23  1  0
 23 24  2  0
 24 25  1  0
 25 26  2  0
 20 11  1  0
 26 21  1  0
 19 14  1  0
  1 27  1  0
  1 28  1  0
  1 29  1  0
  2 30  1  0
  2 31  1  0
  3 32  1  6
  4 33  1  0
  7 34  1  0
  7 35  1  0
  8 36  1  0
 12 37  1  0
 13 38  1  0
 15 39  1  0
 16 40  1  0
 17 41  1  0
 18 42  1  0
 22 43  1  0
 23 44  1  0
 24 45  1  0
 25 46  1  0
 26 47  1  0
M  END
>  <smiles>  (19) 
CC[C@H](NC(=O)CNC(=O)c1ccc2ccccc2n1)c1ccccc1

>  <score_type>  (19) 
oracle

>  <origin>  (19) 
autodockgpu

>  <m_score__min__energy>  (19) 
-8.6300000000000008

>  <m_primary>  (19) 
energy

>  <rmsd>  (19) 
4.806035731313253

>  <m_score__min__rmsd>  (19) 
4.806035731313253

>  <meeko>  (19) 
{"free_energy": -7.46, "intermolecular_energy": -9.25, "internal_energy": -2.28, "cluster_size": 27, "cluster_id": 5, "rank_in_cluster": 22}

>  <energy>  (19) 
-7.91

>  <cluster_rmsd>  (19) 
0.0

>  <cluster>  (19) 
4

$$$$

     RDKit          3D

 47 49  0  0  0  0  0  0  0  0999 V2000
  135.8070   74.4550  223.4120 C   0  0  0  0  0  0  0  0  0  0  0  0
  136.4980   75.7660  223.2220 C   0  0  0  0  0  0  0  0  0  0  0  0
  137.5320   75.8160  222.1600 C   0  0  2  0  0  0  0  0  0  0  0  0
  138.0890   74.4470  222.0690 N   0  0  0  0  0  0  0  0  0  0  0  0
  138.0180   73.6970  220.8690 C   0  0  0  0  0  0  0  0  0  0  0  0
  137.4470   74.2740  219.8840 O   0  0  0  0  0  0  0  0  0  0  0  0
  138.5310   72.3470  220.6690 C   0  0  0  0  0  0  0  0  0  0  0  0
  138.7330   71.5710  221.8700 N   0  0  0  0  0  0  0  0  0  0  0  0
  139.7590   72.0400  222.7640 C   0  0  0  0  0  0  0  0  0  0  0  0
  140.4290   73.0770  222.4910 O   0  0  0  0  0  0  0  0  0  0  0  0
  140.0090   71.2970  223.9920 C   0  0  0  0  0  0  0  0  0  0  0  0
  140.7550   71.8790  224.9970 C   0  0  0  0  0  0  0  0  0  0  0  0
  140.9880   71.1700  226.1590 C   0  0  0  0  0  0  0  0  0  0  0  0
  140.4680   69.8780  226.3030 C   0  0  0  0  0  0  0  0  0  0  0  0
  140.6930   69.1630  227.4520 C   0  0  0  0  0  0  0  0  0  0  0  0
  140.1860   67.8910  227.6030 C   0  0  0  0  0  0  0  0  0  0  0  0
  139.4500   67.3570  226.5730 C   0  0  0  0  0  0  0  0  0  0  0  0
  139.2030   68.0420  225.4080 C   0  0  0  0  0  0  0  0  0  0  0  0
  139.7270   69.3330  225.2730 C   0  0  0  0  0  0  0  0  0  0  0  0
  139.5160   70.0370  224.1640 N   0  0  0  0  0  0  0  0  0  0  0  0
  138.7000   76.6720  222.4110 C   0  0  0  0  0  0  0  0  0  0  0  0
  140.0090   76.3190  222.3360 C   0  0  0  0  0  0  0  0  0  0  0  0
  141.0570   77.2000  222.6000 C   0  0  0  0  0  0  0  0  0  0  0  0
  140.7980   78.4940  222.9580 C   0  0  0  0  0  0  0  0  0  0  0  0
  139.4650   78.8700  223.0400 C   0  0  0  0  0  0  0  0  0  0  0  0
  138.4290   77.9980  222.7780 C   0  0  0  0  0  0  0  0  0  0  0  0
  135.6989   74.2499  224.4873 H   0  0  0  0  0  0  0  0  0  0  0  0
  134.8121   74.4937  222.9443 H   0  0  0  0  0  0  0  0  0  0  0  0
  136.4012   73.6561  222.9443 H   0  0  0  0  0  0  0  0  0  0  0  0
  135.7316   76.5167  222.9791 H   0  0  0  0  0  0  0  0  0  0  0  0
  137.0352   75.9535  224.1634 H   0  0  0  0  0  0  0  0  0  0  0  0
  137.0227   76.2200  221.2726 H   0  0  0  0  0  0  0  0  0  0  0  0
  138.5420   74.0360  222.9100 H   0  0  0  0  0  0  0  0  0  0  0  0
  137.8168   71.8047  220.0320 H   0  0  0  0  0  0  0  0  0  0  0  0
  139.5271   72.4678  220.2182 H   0  0  0  0  0  0  0  0  0  0  0  0
  138.2200   70.7240  222.1420 H   0  0  0  0  0  0  0  0  0  0  0  0
  141.1588   72.8948  224.8739 H   0  0  0  0  0  0  0  0  0  0  0  0
  141.5807   71.6192  226.9695 H   0  0  0  0  0  0  0  0  0  0  0  0
  141.2858   69.6111  228.2631 H   0  0  0  0  0  0  0  0  0  0  0  0
  140.3658   67.3177  228.5244 H   0  0  0  0  0  0  0  0  0  0  0  0
  139.0426   66.3414  226.6855 H   0  0  0  0  0  0  0  0  0  0  0  0
  138.6085   67.5875  224.6018 H   0  0  0  0  0  0  0  0  0  0  0  0
  140.2553   75.2851  222.0525 H   0  0  0  0  0  0  0  0  0  0  0  0
  142.0975   76.8522  222.5199 H   0  0  0  0  0  0  0  0  0  0  0  0
  141.6099   79.2049  223.1714 H   0  0  0  0  0  0  0  0  0  0  0  0
  139.2248   79.9048  223.3253 H   0  0  0  0  0  0  0  0  0  0  0  0
  137.3877   78.3435  222.8571 H   0  0  0  0  0  0  0  0  0  0  0  0
  1  2  1  0
  2  3  1  0
  3  4  1  0
  4  5  1  0
  5  6  2  0
  5  7  1  0
  7  8  1  0
  8  9  1  0
  9 10  2  0
  9 11  1  0
 11 12  2  0
 12 13  1  0
 13 14  2  0
 14 15  1  0
 15 16  2  0
 16 17  1  0
 17 18  2  0
 18 19  1  0
 19 20  2  0
  3 21  1  0
 21 22  2  0
 22 23  1  0
 23 24  2  0
 24 25  1  0
 25 26  2  0
 20 11  1  0
 26 21  1  0
 19 14  1  0
  1 27  1  0
  1 28  1  0
  1 29  1  0
  2 30  1  0
  2 31  1  0
  3 32  1  6
  4 33  1  0
  7 34  1  0
  7 35  1  0
  8 36  1  0
 12 37  1  0
 13 38  1  0
 15 39  1  0
 16 40  1  0
 17 41  1  0
 18 42  1  0
 22 43  1  0
 23 44  1  0
 24 45  1  0
 25 46  1  0
 26 47  1  0
M  END
>  <smiles>  (20) 
CC[C@H](NC(=O)CNC(=O)c1ccc2ccccc2n1)c1ccccc1

>  <score_type>  (20) 
oracle

>  <origin>  (20) 
autodockgpu

>  <m_score__min__energy>  (20) 
-8.6300000000000008

>  <m_primary>  (20) 
energy

>  <rmsd>  (20) 
4.7189254585532705

>  <m_score__min__rmsd>  (20) 
4.7189254585532705

>  <meeko>  (20) 
{"free_energy": -7.47, "intermolecular_energy": -9.26, "internal_energy": -2.31, "cluster_size": 27, "cluster_id": 5, "rank_in_cluster": 20}

>  <energy>  (20) 
-7.87

>  <cluster_rmsd>  (20) 
0.26

>  <cluster>  (20) 
4

$$$$

     RDKit          3D

 47 49  0  0  0  0  0  0  0  0999 V2000
  145.9360   73.8510  220.8950 C   0  0  0  0  0  0  0  0  0  0  0  0
  144.5940   73.4860  220.3500 C   0  0  0  0  0  0  0  0  0  0  0  0
  143.5630   74.5520  220.3730 C   0  0  2  0  0  0  0  0  0  0  0  0
  142.2600   73.8550  220.4780 N   0  0  0  0  0  0  0  0  0  0  0  0
  141.1100   74.5100  220.9850 C   0  0  0  0  0  0  0  0  0  0  0  0
  141.2710   75.7240  221.3420 O   0  0  0  0  0  0  0  0  0  0  0  0
  139.7840   73.9220  221.1310 C   0  0  0  0  0  0  0  0  0  0  0  0
  139.5660   73.1630  222.3400 N   0  0  0  0  0  0  0  0  0  0  0  0
  140.3450   71.9610  222.4850 C   0  0  0  0  0  0  0  0  0  0  0  0
  141.1680   71.6140  221.5900 O   0  0  0  0  0  0  0  0  0  0  0  0
  140.1670   71.1540  223.6830 C   0  0  0  0  0  0  0  0  0  0  0  0
  139.4960   69.9500  223.5970 C   0  0  0  0  0  0  0  0  0  0  0  0
  139.3310   69.1880  224.7380 C   0  0  0  0  0  0  0  0  0  0  0  0
  139.8440   69.6430  225.9590 C   0  0  0  0  0  0  0  0  0  0  0  0
  139.6870   68.8960  227.0990 C   0  0  0  0  0  0  0  0  0  0  0  0
  140.1870   69.3330  228.3050 C   0  0  0  0  0  0  0  0  0  0  0  0
  140.8470   70.5380  228.3380 C   0  0  0  0  0  0  0  0  0  0  0  0
  141.0240   71.3130  227.2170 C   0  0  0  0  0  0  0  0  0  0  0  0
  140.5080   70.8510  226.0010 C   0  0  0  0  0  0  0  0  0  0  0  0
  140.6550   71.5670  224.8880 N   0  0  0  0  0  0  0  0  0  0  0  0
  143.4400   75.3810  219.1660 C   0  0  0  0  0  0  0  0  0  0  0  0
  143.6360   74.9930  217.8790 C   0  0  0  0  0  0  0  0  0  0  0  0
  143.5050   75.8550  216.7910 C   0  0  0  0  0  0  0  0  0  0  0  0
  143.1640   77.1640  216.9830 C   0  0  0  0  0  0  0  0  0  0  0  0
  142.9600   77.5760  218.2920 C   0  0  0  0  0  0  0  0  0  0  0  0
  143.0900   76.7230  219.3680 C   0  0  0  0  0  0  0  0  0  0  0  0
  145.9003   73.8413  221.9944 H   0  0  0  0  0  0  0  0  0  0  0  0
  146.6837   73.1236  220.5460 H   0  0  0  0  0  0  0  0  0  0  0  0
  146.2123   74.8569  220.5460 H   0  0  0  0  0  0  0  0  0  0  0  0
  144.7306   73.1744  219.3039 H   0  0  0  0  0  0  0  0  0  0  0  0
  144.2132   72.6955  221.0135 H   0  0  0  0  0  0  0  0  0  0  0  0
  143.8509   75.2232  221.1956 H   0  0  0  0  0  0  0  0  0  0  0  0
  142.1980   72.8650  220.1680 H   0  0  0  0  0  0  0  0  0  0  0  0
  139.0475   74.7387  221.1071 H   0  0  0  0  0  0  0  0  0  0  0  0
  139.6810   73.2046  220.3035 H   0  0  0  0  0  0  0  0  0  0  0  0
  138.9130   73.3970  223.0960 H   0  0  0  0  0  0  0  0  0  0  0  0
  139.0979   69.6019  222.6324 H   0  0  0  0  0  0  0  0  0  0  0  0
  138.7983   68.2269  224.6873 H   0  0  0  0  0  0  0  0  0  0  0  0
  139.1544   67.9349  227.0488 H   0  0  0  0  0  0  0  0  0  0  0  0
  140.0615   68.7332  229.2185 H   0  0  0  0  0  0  0  0  0  0  0  0
  141.2486   70.8955  229.2976 H   0  0  0  0  0  0  0  0  0  0  0  0
  141.5582   72.2729  227.2741 H   0  0  0  0  0  0  0  0  0  0  0  0
  143.9120   73.9459  217.6855 H   0  0  0  0  0  0  0  0  0  0  0  0
  143.6773   75.4789  215.7718 H   0  0  0  0  0  0  0  0  0  0  0  0
  143.0561   77.8598  216.1379 H   0  0  0  0  0  0  0  0  0  0  0  0
  142.6837   78.6242  218.4791 H   0  0  0  0  0  0  0  0  0  0  0  0
  142.9184   77.0972  220.3881 H   0  0  0  0  0  0  0  0  0  0  0  0
  1  2  1  0
  2  3  1  0
  3  4  1  0
  4  5  1  0
  5  6  2  0
  5  7  1  0
  7  8  1  0
  8  9  1  0
  9 10  2  0
  9 11  1  0
 11 12  2  0
 12 13  1  0
 13 14  2  0
 14 15  1  0
 15 16  2  0
 16 17  1  0
 17 18  2  0
 18 19  1  0
 19 20  2  0
  3 21  1  0
 21 22  2  0
 22 23  1  0
 23 24  2  0
 24 25  1  0
 25 26  2  0
 20 11  1  0
 26 21  1  0
 19 14  1  0
  1 27  1  0
  1 28  1  0
  1 29  1  0
  2 30  1  0
  2 31  1  0
  3 32  1  1
  4 33  1  0
  7 34  1  0
  7 35  1  0
  8 36  1  0
 12 37  1  0
 13 38  1  0
 15 39  1  0
 16 40  1  0
 17 41  1  0
 18 42  1  0
 22 43  1  0
 23 44  1  0
 24 45  1  0
 25 46  1  0
 26 47  1  0
M  END
>  <smiles>  (21) 
CC[C@H](NC(=O)CNC(=O)c1ccc2ccccc2n1)c1ccccc1

>  <score_type>  (21) 
oracle

>  <origin>  (21) 
autodockgpu

>  <m_score__min__energy>  (21) 
-8.6300000000000008

>  <m_primary>  (21) 
energy

>  <rmsd>  (21) 
5.609600170088454

>  <m_score__min__rmsd>  (21) 
5.609600170088454

>  <meeko>  (21) 
{"free_energy": -7.87, "intermolecular_energy": -9.66, "internal_energy": -1.8, "cluster_size": 3, "cluster_id": 4, "rank_in_cluster": 2}

>  <energy>  (21) 
-7.42

>  <cluster_rmsd>  (21) 
1.85

>  <cluster>  (21) 
4

$$$$

     RDKit          3D

 47 49  0  0  0  0  0  0  0  0999 V2000
  139.4600   72.2720  222.3160 C   0  0  0  0  0  0  0  0  0  0  0  0
  140.3990   71.7630  223.3600 C   0  0  0  0  0  0  0  0  0  0  0  0
  139.8670   70.7190  224.2700 C   0  0  2  0  0  0  0  0  0  0  0  0
  138.3940   70.8640  224.2380 N   0  0  0  0  0  0  0  0  0  0  0  0
  137.5380   69.7340  224.2560 C   0  0  0  0  0  0  0  0  0  0  0  0
  138.1170   68.5980  224.3000 O   0  0  0  0  0  0  0  0  0  0  0  0
  136.0810   69.7620  224.2280 C   0  0  0  0  0  0  0  0  0  0  0  0
  135.4640   70.8780  224.9050 N   0  0  0  0  0  0  0  0  0  0  0  0
  135.6220   72.1650  224.2810 C   0  0  0  0  0  0  0  0  0  0  0  0
  136.2690   72.2840  223.2010 O   0  0  0  0  0  0  0  0  0  0  0  0
  135.0210   73.3290  224.9180 C   0  0  0  0  0  0  0  0  0  0  0  0
  135.4670   74.5920  224.5840 C   0  0  0  0  0  0  0  0  0  0  0  0
  134.8930   75.6920  225.1910 C   0  0  0  0  0  0  0  0  0  0  0  0
  133.8710   75.5130  226.1310 C   0  0  0  0  0  0  0  0  0  0  0  0
  133.2920   76.5980  226.7420 C   0  0  0  0  0  0  0  0  0  0  0  0
  132.2870   76.4330  227.6690 C   0  0  0  0  0  0  0  0  0  0  0  0
  131.8790   75.1560  227.9670 C   0  0  0  0  0  0  0  0  0  0  0  0
  132.4340   74.0460  227.3760 C   0  0  0  0  0  0  0  0  0  0  0  0
  133.4550   74.2340  226.4370 C   0  0  0  0  0  0  0  0  0  0  0  0
  134.0230   73.1900  225.8380 N   0  0  0  0  0  0  0  0  0  0  0  0
  140.2180   70.8390  225.6920 C   0  0  0  0  0  0  0  0  0  0  0  0
  139.8000   70.0440  226.7100 C   0  0  0  0  0  0  0  0  0  0  0  0
  140.1800   70.2380  228.0390 C   0  0  0  0  0  0  0  0  0  0  0  0
  141.0130   71.2670  228.3760 C   0  0  0  0  0  0  0  0  0  0  0  0
  141.4490   72.0880  227.3460 C   0  0  0  0  0  0  0  0  0  0  0  0
  141.0730   71.8960  226.0330 C   0  0  0  0  0  0  0  0  0  0  0  0
  138.5922   72.7424  222.8013 H   0  0  0  0  0  0  0  0  0  0  0  0
  139.9762   73.0138  221.6889 H   0  0  0  0  0  0  0  0  0  0  0  0
  139.1201   71.4346  221.6889 H   0  0  0  0  0  0  0  0  0  0  0  0
  141.2765   71.3439  222.8459 H   0  0  0  0  0  0  0  0  0  0  0  0
  140.6194   72.6279  224.0030 H   0  0  0  0  0  0  0  0  0  0  0  0
  140.2940   69.7703  223.9127 H   0  0  0  0  0  0  0  0  0  0  0  0
  137.9870   71.8210  224.2030 H   0  0  0  0  0  0  0  0  0  0  0  0
  135.7635   69.7877  223.1751 H   0  0  0  0  0  0  0  0  0  0  0  0
  135.7529   68.8631  224.7705 H   0  0  0  0  0  0  0  0  0  0  0  0
  134.9290   70.8390  225.7800 H   0  0  0  0  0  0  0  0  0  0  0  0
  136.2699   74.7209  223.8433 H   0  0  0  0  0  0  0  0  0  0  0  0
  135.2377   76.7052  224.9367 H   0  0  0  0  0  0  0  0  0  0  0  0
  133.6353   77.6117  226.4878 H   0  0  0  0  0  0  0  0  0  0  0  0
  131.8229   77.3020  228.1583 H   0  0  0  0  0  0  0  0  0  0  0  0
  131.0773   75.0161  228.7070 H   0  0  0  0  0  0  0  0  0  0  0  0
  132.0847   73.0355  227.6344 H   0  0  0  0  0  0  0  0  0  0  0  0
  139.1283   69.2050  226.4758 H   0  0  0  0  0  0  0  0  0  0  0  0
  139.8066   69.5585  228.8194 H   0  0  0  0  0  0  0  0  0  0  0  0
  141.3241   71.4370  229.4173 H   0  0  0  0  0  0  0  0  0  0  0  0
  142.1211   72.9251  227.5861 H   0  0  0  0  0  0  0  0  0  0  0  0
  141.4452   72.5744  225.2512 H   0  0  0  0  0  0  0  0  0  0  0  0
  1  2  1  0
  2  3  1  0
  3  4  1  0
  4  5  1  0
  5  6  2  0
  5  7  1  0
  7  8  1  0
  8  9  1  0
  9 10  2  0
  9 11  1  0
 11 12  2  0
 12 13  1  0
 13 14  2  0
 14 15  1  0
 15 16  2  0
 16 17  1  0
 17 18  2  0
 18 19  1  0
 19 20  2  0
  3 21  1  0
 21 22  2  0
 22 23  1  0
 23 24  2  0
 24 25  1  0
 25 26  2  0
 20 11  1  0
 26 21  1  0
 19 14  1  0
  1 27  1  0
  1 28  1  0
  1 29  1  0
  2 30  1  0
  2 31  1  0
  3 32  1  6
  4 33  1  0
  7 34  1  0
  7 35  1  0
  8 36  1  0
 12 37  1  0
 13 38  1  0
 15 39  1  0
 16 40  1  0
 17 41  1  0
 18 42  1  0
 22 43  1  0
 23 44  1  0
 24 45  1  0
 25 46  1  0
 26 47  1  0
M  END
>  <smiles>  (22) 
CC[C@H](NC(=O)CNC(=O)c1ccc2ccccc2n1)c1ccccc1

>  <score_type>  (22) 
oracle

>  <origin>  (22) 
autodockgpu

>  <m_score__min__energy>  (22) 
-8.6300000000000008

>  <m_primary>  (22) 
energy

>  <rmsd>  (22) 
9.719699399695681

>  <m_score__min__rmsd>  (22) 
9.719699399695681

>  <meeko>  (22) 
{"free_energy": -7.51, "intermolecular_energy": -9.3, "internal_energy": -2.26, "cluster_size": 14, "cluster_id": 3, "rank_in_cluster": 8}

>  <energy>  (22) 
-7.86

>  <cluster_rmsd>  (22) 
0.0

>  <cluster>  (22) 
5

$$$$

     RDKit          3D

 47 49  0  0  0  0  0  0  0  0999 V2000
  135.3540   76.4810  222.9810 C   0  0  0  0  0  0  0  0  0  0  0  0
  136.5220   75.5730  223.1870 C   0  0  0  0  0  0  0  0  0  0  0  0
  137.5730   75.6070  222.1400 C   0  0  2  0  0  0  0  0  0  0  0  0
  138.1530   74.2450  222.1030 N   0  0  0  0  0  0  0  0  0  0  0  0
  138.2530   73.5150  220.8920 C   0  0  0  0  0  0  0  0  0  0  0  0
  137.8120   74.1030  219.8500 O   0  0  0  0  0  0  0  0  0  0  0  0
  138.8040   72.1740  220.7420 C   0  0  0  0  0  0  0  0  0  0  0  0
  138.9830   71.4310  221.9670 N   0  0  0  0  0  0  0  0  0  0  0  0
  139.9060   71.9890  222.9200 C   0  0  0  0  0  0  0  0  0  0  0  0
  140.5120   73.0710  222.6740 O   0  0  0  0  0  0  0  0  0  0  0  0
  140.1280   71.2820  224.1740 C   0  0  0  0  0  0  0  0  0  0  0  0
  140.8530   71.8930  225.1780 C   0  0  0  0  0  0  0  0  0  0  0  0
  141.0600   71.2180  226.3650 C   0  0  0  0  0  0  0  0  0  0  0  0
  140.5340   69.9320  226.5360 C   0  0  0  0  0  0  0  0  0  0  0  0
  140.7330   69.2510  227.7100 C   0  0  0  0  0  0  0  0  0  0  0  0
  140.2210   67.9850  227.8880 C   0  0  0  0  0  0  0  0  0  0  0  0
  139.5070   67.4210  226.8580 C   0  0  0  0  0  0  0  0  0  0  0  0
  139.2870   68.0720  225.6690 C   0  0  0  0  0  0  0  0  0  0  0  0
  139.8160   69.3580  225.5070 C   0  0  0  0  0  0  0  0  0  0  0  0
  139.6300   70.0280  224.3730 N   0  0  0  0  0  0  0  0  0  0  0  0
  138.7220   76.4900  222.3820 C   0  0  0  0  0  0  0  0  0  0  0  0
  140.0380   76.1650  222.3110 C   0  0  0  0  0  0  0  0  0  0  0  0
  141.0670   77.0710  222.5660 C   0  0  0  0  0  0  0  0  0  0  0  0
  140.7800   78.3630  222.9090 C   0  0  0  0  0  0  0  0  0  0  0  0
  139.4390   78.7110  222.9860 C   0  0  0  0  0  0  0  0  0  0  0  0
  138.4230   77.8140  222.7330 C   0  0  0  0  0  0  0  0  0  0  0  0
  134.9544   76.7917  223.9576 H   0  0  0  0  0  0  0  0  0  0  0  0
  135.6750   77.3691  222.4168 H   0  0  0  0  0  0  0  0  0  0  0  0
  134.5725   75.9509  222.4168 H   0  0  0  0  0  0  0  0  0  0  0  0
  136.9928   75.8440  224.1435 H   0  0  0  0  0  0  0  0  0  0  0  0
  136.1102   74.5534  223.1567 H   0  0  0  0  0  0  0  0  0  0  0  0
  137.0728   75.9741  221.2317 H   0  0  0  0  0  0  0  0  0  0  0  0
  138.4950   73.8240  222.9900 H   0  0  0  0  0  0  0  0  0  0  0  0
  138.1250   71.5999  220.0945 H   0  0  0  0  0  0  0  0  0  0  0  0
  139.8119   72.3087  220.3225 H   0  0  0  0  0  0  0  0  0  0  0  0
  138.5190   70.5500  222.2180 H   0  0  0  0  0  0  0  0  0  0  0  0
  141.2605   72.9046  225.0342 H   0  0  0  0  0  0  0  0  0  0  0  0
  141.6368   71.6898  227.1741 H   0  0  0  0  0  0  0  0  0  0  0  0
  141.3091   69.7223  228.5199 H   0  0  0  0  0  0  0  0  0  0  0  0
  140.3794   67.4395  228.8300 H   0  0  0  0  0  0  0  0  0  0  0  0
  139.0960   66.4094  226.9911 H   0  0  0  0  0  0  0  0  0  0  0  0
  138.7093   67.5947  224.8637 H   0  0  0  0  0  0  0  0  0  0  0  0
  140.3066   75.1338  222.0383 H   0  0  0  0  0  0  0  0  0  0  0  0
  142.1148   76.7446  222.4908 H   0  0  0  0  0  0  0  0  0  0  0  0
  141.5762   79.0936  223.1146 H   0  0  0  0  0  0  0  0  0  0  0  0
  139.1761   79.7434  223.2597 H   0  0  0  0  0  0  0  0  0  0  0  0
  137.3745   78.1382  222.8068 H   0  0  0  0  0  0  0  0  0  0  0  0
  1  2  1  0
  2  3  1  0
  3  4  1  0
  4  5  1  0
  5  6  2  0
  5  7  1  0
  7  8  1  0
  8  9  1  0
  9 10  2  0
  9 11  1  0
 11 12  2  0
 12 13  1  0
 13 14  2  0
 14 15  1  0
 15 16  2  0
 16 17  1  0
 17 18  2  0
 18 19  1  0
 19 20  2  0
  3 21  1  0
 21 22  2  0
 22 23  1  0
 23 24  2  0
 24 25  1  0
 25 26  2  0
 20 11  1  0
 26 21  1  0
 19 14  1  0
  1 27  1  0
  1 28  1  0
  1 29  1  0
  2 30  1  0
  2 31  1  0
  3 32  1  6
  4 33  1  0
  7 34  1  0
  7 35  1  0
  8 36  1  0
 12 37  1  0
 13 38  1  0
 15 39  1  0
 16 40  1  0
 17 41  1  0
 18 42  1  0
 22 43  1  0
 23 44  1  0
 24 45  1  0
 25 46  1  0
 26 47  1  0
M  END
>  <smiles>  (23) 
CC[C@H](NC(=O)CNC(=O)c1ccc2ccccc2n1)c1ccccc1

>  <score_type>  (23) 
oracle

>  <origin>  (23) 
autodockgpu

>  <m_score__min__energy>  (23) 
-8.6300000000000008

>  <m_primary>  (23) 
energy

>  <rmsd>  (23) 
4.8499910836048254

>  <m_score__min__rmsd>  (23) 
4.8499910836048254

>  <meeko>  (23) 
{"free_energy": -7.4, "intermolecular_energy": -9.19, "internal_energy": -2.21, "cluster_size": 27, "cluster_id": 5, "rank_in_cluster": 26}

>  <energy>  (23) 
-7.86

>  <cluster_rmsd>  (23) 
0.17

>  <cluster>  (23) 
5

$$$$

     RDKit          3D

 47 49  0  0  0  0  0  0  0  0999 V2000
  135.8300   74.6550  223.3770 C   0  0  0  0  0  0  0  0  0  0  0  0
  136.4840   75.9920  223.2470 C   0  0  0  0  0  0  0  0  0  0  0  0
  137.5170   76.1180  222.1890 C   0  0  2  0  0  0  0  0  0  0  0  0
  138.0950   74.7650  222.0220 N   0  0  0  0  0  0  0  0  0  0  0  0
  138.2040   74.1590  220.7460 C   0  0  0  0  0  0  0  0  0  0  0  0
  137.7740   74.8490  219.7630 O   0  0  0  0  0  0  0  0  0  0  0  0
  138.7540   72.8380  220.4680 C   0  0  0  0  0  0  0  0  0  0  0  0
  138.8190   71.9370  221.5950 N   0  0  0  0  0  0  0  0  0  0  0  0
  139.7160   72.3110  222.6560 C   0  0  0  0  0  0  0  0  0  0  0  0
  140.3970   73.3740  222.5820 O   0  0  0  0  0  0  0  0  0  0  0  0
  139.8230   71.4410  223.8190 C   0  0  0  0  0  0  0  0  0  0  0  0
  139.3620   70.1420  223.7400 C   0  0  0  0  0  0  0  0  0  0  0  0
  139.4680   69.3210  224.8460 C   0  0  0  0  0  0  0  0  0  0  0  0
  140.0380   69.8130  226.0260 C   0  0  0  0  0  0  0  0  0  0  0  0
  140.1480   69.0080  227.1320 C   0  0  0  0  0  0  0  0  0  0  0  0
  140.7070   69.4820  228.2980 C   0  0  0  0  0  0  0  0  0  0  0  0
  141.1500   70.7830  228.3260 C   0  0  0  0  0  0  0  0  0  0  0  0
  141.0570   71.6180  227.2390 C   0  0  0  0  0  0  0  0  0  0  0  0
  140.4860   71.1180  226.0630 C   0  0  0  0  0  0  0  0  0  0  0  0
  140.3740   71.8890  224.9840 N   0  0  0  0  0  0  0  0  0  0  0  0
  138.6710   76.9770  222.4890 C   0  0  0  0  0  0  0  0  0  0  0  0
  138.6480   78.2790  222.8720 C   0  0  0  0  0  0  0  0  0  0  0  0
  139.8000   79.0220  223.1300 C   0  0  0  0  0  0  0  0  0  0  0  0
  141.0350   78.4510  223.0010 C   0  0  0  0  0  0  0  0  0  0  0  0
  141.0750   77.1200  222.6100 C   0  0  0  0  0  0  0  0  0  0  0  0
  139.9350   76.3860  222.3550 C   0  0  0  0  0  0  0  0  0  0  0  0
  135.7092   74.4079  224.4421 H   0  0  0  0  0  0  0  0  0  0  0  0
  134.8429   74.6810  222.8923 H   0  0  0  0  0  0  0  0  0  0  0  0
  136.4565   73.8917  222.8923 H   0  0  0  0  0  0  0  0  0  0  0  0
  135.6969   76.7312  223.0368 H   0  0  0  0  0  0  0  0  0  0  0  0
  137.0154   76.1524  224.1967 H   0  0  0  0  0  0  0  0  0  0  0  0
  137.0018   76.5629  221.3249 H   0  0  0  0  0  0  0  0  0  0  0  0
  138.4280   74.2570  222.8660 H   0  0  0  0  0  0  0  0  0  0  0  0
  138.1289   72.3675  219.6947 H   0  0  0  0  0  0  0  0  0  0  0  0
  139.7959   73.0061  220.1579 H   0  0  0  0  0  0  0  0  0  0  0  0
  138.2910   71.0640  221.7070 H   0  0  0  0  0  0  0  0  0  0  0  0
  138.9157   69.7654  222.8078 H   0  0  0  0  0  0  0  0  0  0  0  0
  139.1055   68.2835  224.7995 H   0  0  0  0  0  0  0  0  0  0  0  0
  139.7849   67.9706  227.0866 H   0  0  0  0  0  0  0  0  0  0  0  0
  140.7967   68.8362  229.1840 H   0  0  0  0  0  0  0  0  0  0  0  0
  141.5959   71.1702  229.2540 H   0  0  0  0  0  0  0  0  0  0  0  0
  141.4224   72.6542  227.2916 H   0  0  0  0  0  0  0  0  0  0  0  0
  137.6717   78.7731  222.9846 H   0  0  0  0  0  0  0  0  0  0  0  0
  139.7139   80.0741  223.4392 H   0  0  0  0  0  0  0  0  0  0  0  0
  141.9553   79.0204  223.1981 H   0  0  0  0  0  0  0  0  0  0  0  0
  142.0541   76.6311  222.4990 H   0  0  0  0  0  0  0  0  0  0  0  0
  140.0182   75.3337  222.0456 H   0  0  0  0  0  0  0  0  0  0  0  0
  1  2  1  0
  2  3  1  0
  3  4  1  0
  4  5  1  0
  5  6  2  0
  5  7  1  0
  7  8  1  0
  8  9  1  0
  9 10  2  0
  9 11  1  0
 11 12  2  0
 12 13  1  0
 13 14  2  0
 14 15  1  0
 15 16  2  0
 16 17  1  0
 17 18  2  0
 18 19  1  0
 19 20  2  0
  3 21  1  0
 21 22  2  0
 22 23  1  0
 23 24  2  0
 24 25  1  0
 25 26  2  0
 20 11  1  0
 26 21  1  0
 19 14  1  0
  1 27  1  0
  1 28  1  0
  1 29  1  0
  2 30  1  0
  2 31  1  0
  3 32  1  6
  4 33  1  0
  7 34  1  0
  7 35  1  0
  8 36  1  0
 12 37  1  0
 13 38  1  0
 15 39  1  0
 16 40  1  0
 17 41  1  0
 18 42  1  0
 22 43  1  0
 23 44  1  0
 24 45  1  0
 25 46  1  0
 26 47  1  0
M  END
>  <smiles>  (24) 
CC[C@H](NC(=O)CNC(=O)c1ccc2ccccc2n1)c1ccccc1

>  <score_type>  (24) 
oracle

>  <origin>  (24) 
autodockgpu

>  <m_score__min__energy>  (24) 
-8.6300000000000008

>  <m_primary>  (24) 
energy

>  <rmsd>  (24) 
4.922114545025535

>  <m_score__min__rmsd>  (24) 
4.922114545025535

>  <meeko>  (24) 
{"free_energy": -7.84, "intermolecular_energy": -9.63, "internal_energy": -2.0, "cluster_size": 27, "cluster_id": 5, "rank_in_cluster": 8}

>  <energy>  (24) 
-7.85

>  <cluster_rmsd>  (24) 
0.2

>  <cluster>  (24) 
5

$$$$

     RDKit          3D

 47 49  0  0  0  0  0  0  0  0999 V2000
  141.0380   67.5730  226.5100 C   0  0  0  0  0  0  0  0  0  0  0  0
  139.6040   67.7060  226.1140 C   0  0  0  0  0  0  0  0  0  0  0  0
  139.0650   69.0870  226.0510 C   0  0  2  0  0  0  0  0  0  0  0  0
  139.0190   69.4390  224.6130 N   0  0  0  0  0  0  0  0  0  0  0  0
  137.7920   69.6970  223.9530 C   0  0  0  0  0  0  0  0  0  0  0  0
  136.7420   69.6050  224.6720 O   0  0  0  0  0  0  0  0  0  0  0  0
  137.6320   70.0520  222.5480 C   0  0  0  0  0  0  0  0  0  0  0  0
  138.1320   71.3520  222.1700 N   0  0  0  0  0  0  0  0  0  0  0  0
  139.5570   71.5350  222.2590 C   0  0  0  0  0  0  0  0  0  0  0  0
  140.3060   70.5930  222.6480 O   0  0  0  0  0  0  0  0  0  0  0  0
  140.1200   72.8260  221.8900 C   0  0  0  0  0  0  0  0  0  0  0  0
  141.2360   72.8730  221.0790 C   0  0  0  0  0  0  0  0  0  0  0  0
  141.7650   74.1020  220.7330 C   0  0  0  0  0  0  0  0  0  0  0  0
  141.1670   75.2760  221.2050 C   0  0  0  0  0  0  0  0  0  0  0  0
  141.6830   76.5020  220.8690 C   0  0  0  0  0  0  0  0  0  0  0  0
  141.1030   77.6630  221.3290 C   0  0  0  0  0  0  0  0  0  0  0  0
  139.9940   77.5620  222.1340 C   0  0  0  0  0  0  0  0  0  0  0  0
  139.4480   76.3530  222.4910 C   0  0  0  0  0  0  0  0  0  0  0  0
  140.0530   75.1840  222.0140 C   0  0  0  0  0  0  0  0  0  0  0  0
  139.5610   73.9890  222.3330 N   0  0  0  0  0  0  0  0  0  0  0  0
  139.8790   70.1450  226.6630 C   0  0  0  0  0  0  0  0  0  0  0  0
  139.9310   70.4850  227.9770 C   0  0  0  0  0  0  0  0  0  0  0  0
  140.7320   71.5140  228.4710 C   0  0  0  0  0  0  0  0  0  0  0  0
  141.5190   72.2440  227.6250 C   0  0  0  0  0  0  0  0  0  0  0  0
  141.4770   71.9090  226.2790 C   0  0  0  0  0  0  0  0  0  0  0  0
  140.6850   70.8900  225.7920 C   0  0  0  0  0  0  0  0  0  0  0  0
  141.1162   67.5657  227.6072 H   0  0  0  0  0  0  0  0  0  0  0  0
  141.4440   66.6333  226.1072 H   0  0  0  0  0  0  0  0  0  0  0  0
  141.6099   68.4220  226.1072 H   0  0  0  0  0  0  0  0  0  0  0  0
  139.4883   67.2552  225.1173 H   0  0  0  0  0  0  0  0  0  0  0  0
  139.0324   67.2039  226.9085 H   0  0  0  0  0  0  0  0  0  0  0  0
  138.1126   69.0576  226.6007 H   0  0  0  0  0  0  0  0  0  0  0  0
  139.9130   69.4970  224.0850 H   0  0  0  0  0  0  0  0  0  0  0  0
  138.1614   69.2983  221.9466 H   0  0  0  0  0  0  0  0  0  0  0  0
  136.5472   70.0843  222.3686 H   0  0  0  0  0  0  0  0  0  0  0  0
  137.5720   72.1500  221.8480 H   0  0  0  0  0  0  0  0  0  0  0  0
  141.6982   71.9444  220.7129 H   0  0  0  0  0  0  0  0  0  0  0  0
  142.6543   74.1573  220.0879 H   0  0  0  0  0  0  0  0  0  0  0  0
  142.5719   76.5582  220.2235 H   0  0  0  0  0  0  0  0  0  0  0  0
  141.5167   78.6458  221.0590 H   0  0  0  0  0  0  0  0  0  0  0  0
  139.5254   78.4847  222.5069 H   0  0  0  0  0  0  0  0  0  0  0  0
  138.5578   76.3046  223.1354 H   0  0  0  0  0  0  0  0  0  0  0  0
  139.3097   69.9200  228.6875 H   0  0  0  0  0  0  0  0  0  0  0  0
  140.7304   71.7395  229.5476 H   0  0  0  0  0  0  0  0  0  0  0  0
  142.1570   73.0604  227.9944 H   0  0  0  0  0  0  0  0  0  0  0  0
  142.0995   72.4782  225.5729 H   0  0  0  0  0  0  0  0  0  0  0  0
  140.6862   70.6615  224.7160 H   0  0  0  0  0  0  0  0  0  0  0  0
  1  2  1  0
  2  3  1  0
  3  4  1  0
  4  5  1  0
  5  6  2  0
  5  7  1  0
  7  8  1  0
  8  9  1  0
  9 10  2  0
  9 11  1  0
 11 12  2  0
 12 13  1  0
 13 14  2  0
 14 15  1  0
 15 16  2  0
 16 17  1  0
 17 18  2  0
 18 19  1  0
 19 20  2  0
  3 21  1  0
 21 22  2  0
 22 23  1  0
 23 24  2  0
 24 25  1  0
 25 26  2  0
 20 11  1  0
 26 21  1  0
 19 14  1  0
  1 27  1  0
  1 28  1  0
  1 29  1  0
  2 30  1  0
  2 31  1  0
  3 32  1  1
  4 33  1  0
  7 34  1  0
  7 35  1  0
  8 36  1  0
 12 37  1  0
 13 38  1  0
 15 39  1  0
 16 40  1  0
 17 41  1  0
 18 42  1  0
 22 43  1  0
 23 44  1  0
 24 45  1  0
 25 46  1  0
 26 47  1  0
M  END
>  <smiles>  (25) 
CC[C@H](NC(=O)CNC(=O)c1ccc2ccccc2n1)c1ccccc1

>  <score_type>  (25) 
oracle

>  <origin>  (25) 
autodockgpu

>  <m_score__min__energy>  (25) 
-8.6300000000000008

>  <m_primary>  (25) 
energy

>  <rmsd>  (25) 
9.64571513991953

>  <m_score__min__rmsd>  (25) 
9.64571513991953

>  <meeko>  (25) 
{"free_energy": -7.67, "intermolecular_energy": -9.46, "internal_energy": -2.24, "cluster_size": 2, "cluster_id": 6, "rank_in_cluster": 1}

>  <energy>  (25) 
-7.85

>  <cluster_rmsd>  (25) 
0.2

>  <cluster>  (25) 
5

$$$$

     RDKit          3D

 47 49  0  0  0  0  0  0  0  0999 V2000
  135.2490   76.6280  223.1130 C   0  0  0  0  0  0  0  0  0  0  0  0
  136.5520   75.9450  223.3750 C   0  0  0  0  0  0  0  0  0  0  0  0
  137.5650   76.0260  222.2950 C   0  0  2  0  0  0  0  0  0  0  0  0
  138.1400   74.6670  222.1750 N   0  0  0  0  0  0  0  0  0  0  0  0
  137.7030   73.7640  221.1730 C   0  0  0  0  0  0  0  0  0  0  0  0
  136.7920   74.1960  220.3930 O   0  0  0  0  0  0  0  0  0  0  0  0
  138.1990   72.4090  220.9660 C   0  0  0  0  0  0  0  0  0  0  0  0
  138.4650   71.6490  222.1640 N   0  0  0  0  0  0  0  0  0  0  0  0
  139.6240   72.0420  222.9220 C   0  0  0  0  0  0  0  0  0  0  0  0
  140.3500   73.0030  222.5370 O   0  0  0  0  0  0  0  0  0  0  0  0
  139.9430   71.3120  224.1410 C   0  0  0  0  0  0  0  0  0  0  0  0
  140.7480   71.9030  225.0940 C   0  0  0  0  0  0  0  0  0  0  0  0
  141.0470   71.2050  226.2490 C   0  0  0  0  0  0  0  0  0  0  0  0
  140.5330   69.9170  226.4360 C   0  0  0  0  0  0  0  0  0  0  0  0
  140.8220   69.2130  227.5780 C   0  0  0  0  0  0  0  0  0  0  0  0
  140.3220   67.9450  227.7730 C   0  0  0  0  0  0  0  0  0  0  0  0
  139.5250   67.4020  226.7940 C   0  0  0  0  0  0  0  0  0  0  0  0
  139.2130   68.0760  225.6380 C   0  0  0  0  0  0  0  0  0  0  0  0
  139.7320   69.3640  225.4580 C   0  0  0  0  0  0  0  0  0  0  0  0
  139.4580   70.0560  224.3550 N   0  0  0  0  0  0  0  0  0  0  0  0
  138.7240   76.8960  222.5370 C   0  0  0  0  0  0  0  0  0  0  0  0
  140.0340   76.5890  222.3530 C   0  0  0  0  0  0  0  0  0  0  0  0
  141.0740   77.4800  222.6180 C   0  0  0  0  0  0  0  0  0  0  0  0
  140.8060   78.7350  223.0880 C   0  0  0  0  0  0  0  0  0  0  0  0
  139.4720   79.0630  223.2810 C   0  0  0  0  0  0  0  0  0  0  0  0
  138.4440   78.1820  223.0190 C   0  0  0  0  0  0  0  0  0  0  0  0
  134.7682   76.8800  224.0697 H   0  0  0  0  0  0  0  0  0  0  0  0
  135.4268   77.5489  222.5382 H   0  0  0  0  0  0  0  0  0  0  0  0
  134.5928   75.9579  222.5382 H   0  0  0  0  0  0  0  0  0  0  0  0
  136.9895   76.3933  224.2792 H   0  0  0  0  0  0  0  0  0  0  0  0
  136.3092   74.8763  223.4699 H   0  0  0  0  0  0  0  0  0  0  0  0
  137.0341   76.4347  221.4226 H   0  0  0  0  0  0  0  0  0  0  0  0
  138.8820   74.3780  222.8440 H   0  0  0  0  0  0  0  0  0  0  0  0
  137.4484   71.8607  220.3779 H   0  0  0  0  0  0  0  0  0  0  0  0
  139.1694   72.5194  220.4599 H   0  0  0  0  0  0  0  0  0  0  0  0
  137.9110   70.8630  222.5220 H   0  0  0  0  0  0  0  0  0  0  0  0
  141.1463   72.9161  224.9363 H   0  0  0  0  0  0  0  0  0  0  0  0
  141.6871   71.6607  227.0188 H   0  0  0  0  0  0  0  0  0  0  0  0
  141.4620   69.6680  228.3483 H   0  0  0  0  0  0  0  0  0  0  0  0
  140.5545   67.3813  228.6885 H   0  0  0  0  0  0  0  0  0  0  0  0
  139.1215   66.3894  226.9414 H   0  0  0  0  0  0  0  0  0  0  0  0
  138.5712   67.6151  224.8727 H   0  0  0  0  0  0  0  0  0  0  0  0
  140.2877   75.5873  221.9760 H   0  0  0  0  0  0  0  0  0  0  0  0
  142.1158   77.1707  222.4477 H   0  0  0  0  0  0  0  0  0  0  0  0
  141.6115   79.4525  223.3035 H   0  0  0  0  0  0  0  0  0  0  0  0
  139.2243   80.0662  223.6582 H   0  0  0  0  0  0  0  0  0  0  0  0
  137.4015   78.4893  223.1887 H   0  0  0  0  0  0  0  0  0  0  0  0
  1  2  1  0
  2  3  1  0
  3  4  1  0
  4  5  1  0
  5  6  2  0
  5  7  1  0
  7  8  1  0
  8  9  1  0
  9 10  2  0
  9 11  1  0
 11 12  2  0
 12 13  1  0
 13 14  2  0
 14 15  1  0
 15 16  2  0
 16 17  1  0
 17 18  2  0
 18 19  1  0
 19 20  2  0
  3 21  1  0
 21 22  2  0
 22 23  1  0
 23 24  2  0
 24 25  1  0
 25 26  2  0
 20 11  1  0
 26 21  1  0
 19 14  1  0
  1 27  1  0
  1 28  1  0
  1 29  1  0
  2 30  1  0
  2 31  1  0
  3 32  1  6
  4 33  1  0
  7 34  1  0
  7 35  1  0
  8 36  1  0
 12 37  1  0
 13 38  1  0
 15 39  1  0
 16 40  1  0
 17 41  1  0
 18 42  1  0
 22 43  1  0
 23 44  1  0
 24 45  1  0
 25 46  1  0
 26 47  1  0
M  END
>  <smiles>  (26) 
CC[C@H](NC(=O)CNC(=O)c1ccc2ccccc2n1)c1ccccc1

>  <score_type>  (26) 
oracle

>  <origin>  (26) 
autodockgpu

>  <m_score__min__energy>  (26) 
-8.6300000000000008

>  <m_primary>  (26) 
energy

>  <rmsd>  (26) 
4.724341965391533

>  <m_score__min__rmsd>  (26) 
4.724341965391533

>  <meeko>  (26) 
{"free_energy": -7.5, "intermolecular_energy": -9.29, "internal_energy": -2.19, "cluster_size": 27, "cluster_id": 5, "rank_in_cluster": 18}

>  <energy>  (26) 
-7.85

>  <cluster_rmsd>  (26) 
0.19

>  <cluster>  (26) 
5

$$$$

     RDKit          3D

 47 49  0  0  0  0  0  0  0  0999 V2000
  135.9770   74.8690  223.3300 C   0  0  0  0  0  0  0  0  0  0  0  0
  136.4660   76.2650  223.1240 C   0  0  0  0  0  0  0  0  0  0  0  0
  137.5610   76.4390  222.1390 C   0  0  2  0  0  0  0  0  0  0  0  0
  138.1770   75.1030  221.9760 N   0  0  0  0  0  0  0  0  0  0  0  0
  137.9170   74.3020  220.8360 C   0  0  0  0  0  0  0  0  0  0  0  0
  137.1250   74.8050  219.9710 O   0  0  0  0  0  0  0  0  0  0  0  0
  138.4680   72.9780  220.5740 C   0  0  0  0  0  0  0  0  0  0  0  0
  138.5160   72.0860  221.7080 N   0  0  0  0  0  0  0  0  0  0  0  0
  139.5580   72.3350  222.6690 C   0  0  0  0  0  0  0  0  0  0  0  0
  140.3720   73.2890  222.5060 O   0  0  0  0  0  0  0  0  0  0  0  0
  139.6570   71.4660  223.8330 C   0  0  0  0  0  0  0  0  0  0  0  0
  139.1200   70.1950  223.7800 C   0  0  0  0  0  0  0  0  0  0  0  0
  139.2180   69.3760  224.8880 C   0  0  0  0  0  0  0  0  0  0  0  0
  139.8560   69.8410  226.0440 C   0  0  0  0  0  0  0  0  0  0  0  0
  139.9590   69.0380  227.1510 C   0  0  0  0  0  0  0  0  0  0  0  0
  140.5840   69.4850  228.2930 C   0  0  0  0  0  0  0  0  0  0  0  0
  141.1020   70.7590  228.2960 C   0  0  0  0  0  0  0  0  0  0  0  0
  141.0180   71.5920  227.2070 C   0  0  0  0  0  0  0  0  0  0  0  0
  140.3790   71.1180  226.0550 C   0  0  0  0  0  0  0  0  0  0  0  0
  140.2730   71.8880  224.9750 N   0  0  0  0  0  0  0  0  0  0  0  0
  138.6750   77.3120  222.5340 C   0  0  0  0  0  0  0  0  0  0  0  0
  138.5930   78.5550  223.0750 C   0  0  0  0  0  0  0  0  0  0  0  0
  139.7100   79.3190  223.4140 C   0  0  0  0  0  0  0  0  0  0  0  0
  140.9700   78.8300  223.2080 C   0  0  0  0  0  0  0  0  0  0  0  0
  141.0700   77.5610  222.6560 C   0  0  0  0  0  0  0  0  0  0  0  0
  139.9650   76.8060  222.3210 C   0  0  0  0  0  0  0  0  0  0  0  0
  135.9042   74.6613  224.4078 H   0  0  0  0  0  0  0  0  0  0  0  0
  134.9857   74.7557  222.8670 H   0  0  0  0  0  0  0  0  0  0  0  0
  136.6809   74.1618  222.8670 H   0  0  0  0  0  0  0  0  0  0  0  0
  135.6130   76.8727  222.7877 H   0  0  0  0  0  0  0  0  0  0  0  0
  136.8898   76.5731  224.0912 H   0  0  0  0  0  0  0  0  0  0  0  0
  137.0927   76.8964  221.2550 H   0  0  0  0  0  0  0  0  0  0  0  0
  138.8150   74.7530  222.7190 H   0  0  0  0  0  0  0  0  0  0  0  0
  137.8522   72.5032  219.7960 H   0  0  0  0  0  0  0  0  0  0  0  0
  139.5141   73.1414  220.2757 H   0  0  0  0  0  0  0  0  0  0  0  0
  137.8840   71.2970  221.8900 H   0  0  0  0  0  0  0  0  0  0  0  0
  138.6204   69.8391  222.8669 H   0  0  0  0  0  0  0  0  0  0  0  0
  138.7956   68.3606  224.8620 H   0  0  0  0  0  0  0  0  0  0  0  0
  139.5363   68.0228  227.1259 H   0  0  0  0  0  0  0  0  0  0  0  0
  140.6670   68.8400  229.1802 H   0  0  0  0  0  0  0  0  0  0  0  0
  141.6025   71.1247  229.2047 H   0  0  0  0  0  0  0  0  0  0  0  0
  141.4423   72.6064  227.2393 H   0  0  0  0  0  0  0  0  0  0  0  0
  137.5950   78.9811  223.2551 H   0  0  0  0  0  0  0  0  0  0  0  0
  139.5762   80.3203  223.8494 H   0  0  0  0  0  0  0  0  0  0  0  0
  141.8639   79.4160  223.4680 H   0  0  0  0  0  0  0  0  0  0  0  0
  142.0706   77.1400  222.4784 H   0  0  0  0  0  0  0  0  0  0  0  0
  140.0964   75.8044  221.8856 H   0  0  0  0  0  0  0  0  0  0  0  0
  1  2  1  0
  2  3  1  0
  3  4  1  0
  4  5  1  0
  5  6  2  0
  5  7  1  0
  7  8  1  0
  8  9  1  0
  9 10  2  0
  9 11  1  0
 11 12  2  0
 12 13  1  0
 13 14  2  0
 14 15  1  0
 15 16  2  0
 16 17  1  0
 17 18  2  0
 18 19  1  0
 19 20  2  0
  3 21  1  0
 21 22  2  0
 22 23  1  0
 23 24  2  0
 24 25  1  0
 25 26  2  0
 20 11  1  0
 26 21  1  0
 19 14  1  0
  1 27  1  0
  1 28  1  0
  1 29  1  0
  2 30  1  0
  2 31  1  0
  3 32  1  6
  4 33  1  0
  7 34  1  0
  7 35  1  0
  8 36  1  0
 12 37  1  0
 13 38  1  0
 15 39  1  0
 16 40  1  0
 17 41  1  0
 18 42  1  0
 22 43  1  0
 23 44  1  0
 24 45  1  0
 25 46  1  0
 26 47  1  0
M  END
>  <smiles>  (27) 
CC[C@H](NC(=O)CNC(=O)c1ccc2ccccc2n1)c1ccccc1

>  <score_type>  (27) 
oracle

>  <origin>  (27) 
autodockgpu

>  <m_score__min__energy>  (27) 
-8.6300000000000008

>  <m_primary>  (27) 
energy

>  <rmsd>  (27) 
4.80400747291376

>  <m_score__min__rmsd>  (27) 
4.80400747291376

>  <meeko>  (27) 
{"free_energy": -7.77, "intermolecular_energy": -9.56, "internal_energy": -1.97, "cluster_size": 27, "cluster_id": 5, "rank_in_cluster": 11}

>  <energy>  (27) 
-7.84

>  <cluster_rmsd>  (27) 
0.18

>  <cluster>  (27) 
5

$$$$

     RDKit          3D

 47 49  0  0  0  0  0  0  0  0999 V2000
  137.1720   71.1940  221.4730 C   0  0  0  0  0  0  0  0  0  0  0  0
  138.3060   70.7120  222.3170 C   0  0  0  0  0  0  0  0  0  0  0  0
  138.7690   71.6320  223.3850 C   0  0  2  0  0  0  0  0  0  0  0  0
  139.5530   72.6860  222.7010 N   0  0  0  0  0  0  0  0  0  0  0  0
  140.5780   72.3630  221.7770 C   0  0  0  0  0  0  0  0  0  0  0  0
  140.7770   71.1190  221.5780 O   0  0  0  0  0  0  0  0  0  0  0  0
  141.4070   73.3160  221.0500 C   0  0  0  0  0  0  0  0  0  0  0  0
  141.4420   74.6550  221.5890 N   0  0  0  0  0  0  0  0  0  0  0  0
  140.1980   75.3790  221.5720 C   0  0  0  0  0  0  0  0  0  0  0  0
  139.1490   74.8490  221.1050 O   0  0  0  0  0  0  0  0  0  0  0  0
  140.1720   76.7350  222.1030 C   0  0  0  0  0  0  0  0  0  0  0  0
  138.9580   77.3300  222.3840 C   0  0  0  0  0  0  0  0  0  0  0  0
  138.9400   78.6160  222.8880 C   0  0  0  0  0  0  0  0  0  0  0  0
  140.1440   79.2960  223.1060 C   0  0  0  0  0  0  0  0  0  0  0  0
  140.1390   80.5740  223.6060 C   0  0  0  0  0  0  0  0  0  0  0  0
  141.3180   81.2520  223.8240 C   0  0  0  0  0  0  0  0  0  0  0  0
  142.4990   80.6160  223.5280 C   0  0  0  0  0  0  0  0  0  0  0  0
  142.5440   79.3370  223.0270 C   0  0  0  0  0  0  0  0  0  0  0  0
  141.3350   78.6650  222.8110 C   0  0  0  0  0  0  0  0  0  0  0  0
  141.3270   77.4250  222.3270 N   0  0  0  0  0  0  0  0  0  0  0  0
  139.6920   71.0770  224.3840 C   0  0  0  0  0  0  0  0  0  0  0  0
  140.6890   71.7300  225.0340 C   0  0  0  0  0  0  0  0  0  0  0  0
  141.5260   71.1180  225.9670 C   0  0  0  0  0  0  0  0  0  0  0  0
  141.3700   69.7950  226.2720 C   0  0  0  0  0  0  0  0  0  0  0  0
  140.3550   69.1130  225.6150 C   0  0  0  0  0  0  0  0  0  0  0  0
  139.5280   69.7190  224.6930 C   0  0  0  0  0  0  0  0  0  0  0  0
  136.3542   71.5416  222.1214 H   0  0  0  0  0  0  0  0  0  0  0  0
  137.5146   72.0243  220.8380 H   0  0  0  0  0  0  0  0  0  0  0  0
  136.8119   70.3711  220.8380 H   0  0  0  0  0  0  0  0  0  0  0  0
  137.9913   69.7734  222.7966 H   0  0  0  0  0  0  0  0  0  0  0  0
  139.1588   70.6079  221.6301 H   0  0  0  0  0  0  0  0  0  0  0  0
  137.8606   71.9394  223.9238 H   0  0  0  0  0  0  0  0  0  0  0  0
  139.3380   73.6820  222.9090 H   0  0  0  0  0  0  0  0  0  0  0  0
  142.4366   72.9290  221.0395 H   0  0  0  0  0  0  0  0  0  0  0  0
  140.9540   73.4067  220.0517 H   0  0  0  0  0  0  0  0  0  0  0  0
  142.2620   75.1330  221.9790 H   0  0  0  0  0  0  0  0  0  0  0  0
  138.0175   76.7870  222.2088 H   0  0  0  0  0  0  0  0  0  0  0  0
  137.9816   79.1047  223.1175 H   0  0  0  0  0  0  0  0  0  0  0  0
  139.1810   81.0633  223.8357 H   0  0  0  0  0  0  0  0  0  0  0  0
  141.3139   82.2764  224.2248 H   0  0  0  0  0  0  0  0  0  0  0  0
  143.4450   81.1509  223.6985 H   0  0  0  0  0  0  0  0  0  0  0  0
  143.5059   78.8534  222.8014 H   0  0  0  0  0  0  0  0  0  0  0  0
  140.8448   72.7964  224.8136 H   0  0  0  0  0  0  0  0  0  0  0  0
  142.3160   71.7035  226.4600 H   0  0  0  0  0  0  0  0  0  0  0  0
  142.0192   69.2934  227.0048 H   0  0  0  0  0  0  0  0  0  0  0  0
  140.2044   68.0466  225.8389 H   0  0  0  0  0  0  0  0  0  0  0  0
  138.7374   69.1356  224.1984 H   0  0  0  0  0  0  0  0  0  0  0  0
  1  2  1  0
  2  3  1  0
  3  4  1  0
  4  5  1  0
  5  6  2  0
  5  7  1  0
  7  8  1  0
  8  9  1  0
  9 10  2  0
  9 11  1  0
 11 12  2  0
 12 13  1  0
 13 14  2  0
 14 15  1  0
 15 16  2  0
 16 17  1  0
 17 18  2  0
 18 19  1  0
 19 20  2  0
  3 21  1  0
 21 22  2  0
 22 23  1  0
 23 24  2  0
 24 25  1  0
 25 26  2  0
 20 11  1  0
 26 21  1  0
 19 14  1  0
  1 27  1  0
  1 28  1  0
  1 29  1  0
  2 30  1  0
  2 31  1  0
  3 32  1  1
  4 33  1  0
  7 34  1  0
  7 35  1  0
  8 36  1  0
 12 37  1  0
 13 38  1  0
 15 39  1  0
 16 40  1  0
 17 41  1  0
 18 42  1  0
 22 43  1  0
 23 44  1  0
 24 45  1  0
 25 46  1  0
 26 47  1  0
M  END
>  <smiles>  (28) 
CC[C@H](NC(=O)CNC(=O)c1ccc2ccccc2n1)c1ccccc1

>  <score_type>  (28) 
oracle

>  <origin>  (28) 
autodockgpu

>  <m_score__min__energy>  (28) 
-8.6300000000000008

>  <m_primary>  (28) 
energy

>  <rmsd>  (28) 
9.799454820358395

>  <m_score__min__rmsd>  (28) 
9.799454820358395

>  <meeko>  (28) 
{"free_energy": -7.5, "intermolecular_energy": -9.29, "internal_energy": -1.93, "cluster_size": 2, "cluster_id": 2, "rank_in_cluster": 2}

>  <energy>  (28) 
-7.84

>  <cluster_rmsd>  (28) 
0.25

>  <cluster>  (28) 
5

$$$$

     RDKit          3D

 47 49  0  0  0  0  0  0  0  0999 V2000
  135.7240   74.7840  223.4480 C   0  0  0  0  0  0  0  0  0  0  0  0
  136.5710   76.0120  223.5060 C   0  0  0  0  0  0  0  0  0  0  0  0
  137.5150   76.2140  222.3790 C   0  0  2  0  0  0  0  0  0  0  0  0
  138.1360   74.8940  222.1290 N   0  0  0  0  0  0  0  0  0  0  0  0
  137.6660   74.0380  221.1010 C   0  0  0  0  0  0  0  0  0  0  0  0
  136.6830   74.4770  220.4170 O   0  0  0  0  0  0  0  0  0  0  0  0
  138.2020   72.7240  220.7690 C   0  0  0  0  0  0  0  0  0  0  0  0
  138.3160   71.7970  221.8700 N   0  0  0  0  0  0  0  0  0  0  0  0
  139.3880   72.0430  222.7980 C   0  0  0  0  0  0  0  0  0  0  0  0
  140.1710   73.0230  222.6360 O   0  0  0  0  0  0  0  0  0  0  0  0
  139.5540   71.1420  223.9300 C   0  0  0  0  0  0  0  0  0  0  0  0
  139.0890   69.8450  223.8380 C   0  0  0  0  0  0  0  0  0  0  0  0
  139.2490   68.9940  224.9140 C   0  0  0  0  0  0  0  0  0  0  0  0
  139.8780   69.4540  226.0780 C   0  0  0  0  0  0  0  0  0  0  0  0
  140.0430   68.6200  227.1540 C   0  0  0  0  0  0  0  0  0  0  0  0
  140.6590   69.0620  228.3030 C   0  0  0  0  0  0  0  0  0  0  0  0
  141.1040   70.3610  228.3450 C   0  0  0  0  0  0  0  0  0  0  0  0
  140.9570   71.2260  227.2870 C   0  0  0  0  0  0  0  0  0  0  0  0
  140.3280   70.7580  226.1280 C   0  0  0  0  0  0  0  0  0  0  0  0
  140.1620   71.5580  225.0780 N   0  0  0  0  0  0  0  0  0  0  0  0
  138.6500   77.1150  222.6190 C   0  0  0  0  0  0  0  0  0  0  0  0
  138.6020   78.3960  223.0670 C   0  0  0  0  0  0  0  0  0  0  0  0
  139.7370   79.1840  223.2590 C   0  0  0  0  0  0  0  0  0  0  0  0
  140.9800   78.6820  222.9950 C   0  0  0  0  0  0  0  0  0  0  0  0
  141.0460   77.3740  222.5360 C   0  0  0  0  0  0  0  0  0  0  0  0
  139.9230   76.5960  222.3460 C   0  0  0  0  0  0  0  0  0  0  0  0
  135.4931   74.4492  224.4701 H   0  0  0  0  0  0  0  0  0  0  0  0
  134.7881   75.0089  222.9156 H   0  0  0  0  0  0  0  0  0  0  0  0
  136.2667   73.9890  222.9156 H   0  0  0  0  0  0  0  0  0  0  0  0
  135.8983   76.8817  223.5396 H   0  0  0  0  0  0  0  0  0  0  0  0
  137.2021   75.8908  224.3988 H   0  0  0  0  0  0  0  0  0  0  0  0
  136.9179   76.6591  221.5695 H   0  0  0  0  0  0  0  0  0  0  0  0
  138.9360   74.5970  222.7230 H   0  0  0  0  0  0  0  0  0  0  0  0
  137.5431   72.2715  220.0133 H   0  0  0  0  0  0  0  0  0  0  0  0
  139.2295   72.8997  220.4179 H   0  0  0  0  0  0  0  0  0  0  0  0
  137.7110   70.9880  222.0510 H   0  0  0  0  0  0  0  0  0  0  0  0
  138.5971   69.4939  222.9189 H   0  0  0  0  0  0  0  0  0  0  0  0
  138.8835   67.9581  224.8571 H   0  0  0  0  0  0  0  0  0  0  0  0
  139.6782   67.5838  227.0982 H   0  0  0  0  0  0  0  0  0  0  0  0
  140.7915   68.3922  229.1654 H   0  0  0  0  0  0  0  0  0  0  0  0
  141.5965   70.7225  229.2598 H   0  0  0  0  0  0  0  0  0  0  0  0
  141.3248   72.2608  227.3499 H   0  0  0  0  0  0  0  0  0  0  0  0
  137.6182   78.8346  223.2898 H   0  0  0  0  0  0  0  0  0  0  0  0
  139.6306   80.2158  223.6252 H   0  0  0  0  0  0  0  0  0  0  0  0
  141.8872   79.2871  223.1397 H   0  0  0  0  0  0  0  0  0  0  0  0
  142.0326   76.9407  222.3150 H   0  0  0  0  0  0  0  0  0  0  0  0
  140.0269   75.5643  221.9788 H   0  0  0  0  0  0  0  0  0  0  0  0
  1  2  1  0
  2  3  1  0
  3  4  1  0
  4  5  1  0
  5  6  2  0
  5  7  1  0
  7  8  1  0
  8  9  1  0
  9 10  2  0
  9 11  1  0
 11 12  2  0
 12 13  1  0
 13 14  2  0
 14 15  1  0
 15 16  2  0
 16 17  1  0
 17 18  2  0
 18 19  1  0
 19 20  2  0
  3 21  1  0
 21 22  2  0
 22 23  1  0
 23 24  2  0
 24 25  1  0
 25 26  2  0
 20 11  1  0
 26 21  1  0
 19 14  1  0
  1 27  1  0
  1 28  1  0
  1 29  1  0
  2 30  1  0
  2 31  1  0
  3 32  1  6
  4 33  1  0
  7 34  1  0
  7 35  1  0
  8 36  1  0
 12 37  1  0
 13 38  1  0
 15 39  1  0
 16 40  1  0
 17 41  1  0
 18 42  1  0
 22 43  1  0
 23 44  1  0
 24 45  1  0
 25 46  1  0
 26 47  1  0
M  END
>  <smiles>  (29) 
CC[C@H](NC(=O)CNC(=O)c1ccc2ccccc2n1)c1ccccc1

>  <score_type>  (29) 
oracle

>  <origin>  (29) 
autodockgpu

>  <m_score__min__energy>  (29) 
-8.6300000000000008

>  <m_primary>  (29) 
energy

>  <rmsd>  (29) 
4.913997999950573

>  <m_score__min__rmsd>  (29) 
4.913997999950573

>  <meeko>  (29) 
{"free_energy": -7.66, "intermolecular_energy": -9.45, "internal_energy": -1.88, "cluster_size": 27, "cluster_id": 5, "rank_in_cluster": 13}

>  <energy>  (29) 
-7.84

>  <cluster_rmsd>  (29) 
0.31

>  <cluster>  (29) 
5

$$$$

     RDKit          3D

 47 49  0  0  0  0  0  0  0  0999 V2000
  135.7980   74.5230  223.4920 C   0  0  0  0  0  0  0  0  0  0  0  0
  136.5120   75.8250  223.3310 C   0  0  0  0  0  0  0  0  0  0  0  0
  137.5210   75.8910  222.2440 C   0  0  2  0  0  0  0  0  0  0  0  0
  138.1140   74.5370  222.1580 N   0  0  0  0  0  0  0  0  0  0  0  0
  137.8130   73.6640  221.0830 C   0  0  0  0  0  0  0  0  0  0  0  0
  137.0050   74.1180  220.2060 O   0  0  0  0  0  0  0  0  0  0  0  0
  138.3380   72.3170  220.8990 C   0  0  0  0  0  0  0  0  0  0  0  0
  138.5810   71.5690  222.1100 N   0  0  0  0  0  0  0  0  0  0  0  0
  139.6890   72.0070  222.9160 C   0  0  0  0  0  0  0  0  0  0  0  0
  140.3950   72.9950  222.5610 O   0  0  0  0  0  0  0  0  0  0  0  0
  139.9830   71.2910  224.1500 C   0  0  0  0  0  0  0  0  0  0  0  0
  140.7690   71.8920  225.1130 C   0  0  0  0  0  0  0  0  0  0  0  0
  141.0440   71.2070  226.2810 C   0  0  0  0  0  0  0  0  0  0  0  0
  140.5240   69.9220  226.4730 C   0  0  0  0  0  0  0  0  0  0  0  0
  140.7890   69.2320  227.6290 C   0  0  0  0  0  0  0  0  0  0  0  0
  140.2830   67.9670  227.8290 C   0  0  0  0  0  0  0  0  0  0  0  0
  139.5060   67.4130  226.8400 C   0  0  0  0  0  0  0  0  0  0  0  0
  139.2180   68.0730  225.6700 C   0  0  0  0  0  0  0  0  0  0  0  0
  139.7420   69.3580  225.4860 C   0  0  0  0  0  0  0  0  0  0  0  0
  139.4910   70.0380  224.3690 N   0  0  0  0  0  0  0  0  0  0  0  0
  138.6690   76.7820  222.4590 C   0  0  0  0  0  0  0  0  0  0  0  0
  138.6360   78.0900  222.8240 C   0  0  0  0  0  0  0  0  0  0  0  0
  139.7820   78.8660  222.9990 C   0  0  0  0  0  0  0  0  0  0  0  0
  141.0210   78.3230  222.8030 C   0  0  0  0  0  0  0  0  0  0  0  0
  141.0700   76.9870  222.4300 C   0  0  0  0  0  0  0  0  0  0  0  0
  139.9370   76.2210  222.2570 C   0  0  0  0  0  0  0  0  0  0  0  0
  135.6765   74.3014  224.5626 H   0  0  0  0  0  0  0  0  0  0  0  0
  134.8083   74.5862  223.0160 H   0  0  0  0  0  0  0  0  0  0  0  0
  136.3834   73.7225  223.0160 H   0  0  0  0  0  0  0  0  0  0  0  0
  135.7563   76.5997  223.1344 H   0  0  0  0  0  0  0  0  0  0  0  0
  137.0762   75.9679  224.2644 H   0  0  0  0  0  0  0  0  0  0  0  0
  136.9817   76.2693  221.3631 H   0  0  0  0  0  0  0  0  0  0  0  0
  138.7670   74.2290  222.9070 H   0  0  0  0  0  0  0  0  0  0  0  0
  137.6148   71.7523  220.2923 H   0  0  0  0  0  0  0  0  0  0  0  0
  139.3208   72.4409  220.4207 H   0  0  0  0  0  0  0  0  0  0  0  0
  138.0420   70.7620  222.4460 H   0  0  0  0  0  0  0  0  0  0  0  0
  141.1711   72.9032  224.9524 H   0  0  0  0  0  0  0  0  0  0  0  0
  141.6700   71.6704  227.0578 H   0  0  0  0  0  0  0  0  0  0  0  0
  141.4141   69.6956  228.4064 H   0  0  0  0  0  0  0  0  0  0  0  0
  140.4952   67.4144  228.7561 H   0  0  0  0  0  0  0  0  0  0  0  0
  139.0990   66.4023  226.9910 H   0  0  0  0  0  0  0  0  0  0  0  0
  138.5915   67.6036  224.8973 H   0  0  0  0  0  0  0  0  0  0  0  0
  137.6560   78.5612  222.9900 H   0  0  0  0  0  0  0  0  0  0  0  0
  139.6880   79.9209  223.2964 H   0  0  0  0  0  0  0  0  0  0  0  0
  141.9371   78.9175  222.9348 H   0  0  0  0  0  0  0  0  0  0  0  0
  142.0526   76.5206  222.2658 H   0  0  0  0  0  0  0  0  0  0  0  0
  140.0286   75.1660  221.9594 H   0  0  0  0  0  0  0  0  0  0  0  0
  1  2  1  0
  2  3  1  0
  3  4  1  0
  4  5  1  0
  5  6  2  0
  5  7  1  0
  7  8  1  0
  8  9  1  0
  9 10  2  0
  9 11  1  0
 11 12  2  0
 12 13  1  0
 13 14  2  0
 14 15  1  0
 15 16  2  0
 16 17  1  0
 17 18  2  0
 18 19  1  0
 19 20  2  0
  3 21  1  0
 21 22  2  0
 22 23  1  0
 23 24  2  0
 24 25  1  0
 25 26  2  0
 20 11  1  0
 26 21  1  0
 19 14  1  0
  1 27  1  0
  1 28  1  0
  1 29  1  0
  2 30  1  0
  2 31  1  0
  3 32  1  6
  4 33  1  0
  7 34  1  0
  7 35  1  0
  8 36  1  0
 12 37  1  0
 13 38  1  0
 15 39  1  0
 16 40  1  0
 17 41  1  0
 18 42  1  0
 22 43  1  0
 23 44  1  0
 24 45  1  0
 25 46  1  0
 26 47  1  0
M  END
>  <smiles>  (30) 
CC[C@H](NC(=O)CNC(=O)c1ccc2ccccc2n1)c1ccccc1

>  <score_type>  (30) 
oracle

>  <origin>  (30) 
autodockgpu

>  <m_score__min__energy>  (30) 
-8.6300000000000008

>  <m_primary>  (30) 
energy

>  <rmsd>  (30) 
4.700300272351225

>  <m_score__min__rmsd>  (30) 
4.700300272351225

>  <meeko>  (30) 
{"free_energy": -7.51, "intermolecular_energy": -9.3, "internal_energy": -2.29, "cluster_size": 27, "cluster_id": 5, "rank_in_cluster": 15}

>  <energy>  (30) 
-7.83

>  <cluster_rmsd>  (30) 
0.32

>  <cluster>  (30) 
5

$$$$

     RDKit          3D

 47 49  0  0  0  0  0  0  0  0999 V2000
  139.3140   72.0140  222.2980 C   0  0  0  0  0  0  0  0  0  0  0  0
  140.2670   71.6410  223.3860 C   0  0  0  0  0  0  0  0  0  0  0  0
  139.7880   70.6300  224.3610 C   0  0  2  0  0  0  0  0  0  0  0  0
  138.3110   70.7340  224.3630 N   0  0  0  0  0  0  0  0  0  0  0  0
  137.4900   69.6090  224.6270 C   0  0  0  0  0  0  0  0  0  0  0  0
  138.1030   68.5150  224.8590 O   0  0  0  0  0  0  0  0  0  0  0  0
  136.0330   69.5990  224.6540 C   0  0  0  0  0  0  0  0  0  0  0  0
  135.4060   70.8410  225.0380 N   0  0  0  0  0  0  0  0  0  0  0  0
  134.3400   70.7440  226.0000 C   0  0  0  0  0  0  0  0  0  0  0  0
  133.9930   69.6220  226.4680 O   0  0  0  0  0  0  0  0  0  0  0  0
  133.6690   71.9650  226.4260 C   0  0  0  0  0  0  0  0  0  0  0  0
  132.5040   71.8770  227.1620 C   0  0  0  0  0  0  0  0  0  0  0  0
  131.8730   73.0390  227.5630 C   0  0  0  0  0  0  0  0  0  0  0  0
  132.4180   74.2820  227.2210 C   0  0  0  0  0  0  0  0  0  0  0  0
  131.8010   75.4430  227.6130 C   0  0  0  0  0  0  0  0  0  0  0  0
  132.3290   76.6710  227.2820 C   0  0  0  0  0  0  0  0  0  0  0  0
  133.4900   76.7040  226.5480 C   0  0  0  0  0  0  0  0  0  0  0  0
  134.1370   75.5630  226.1380 C   0  0  0  0  0  0  0  0  0  0  0  0
  133.5840   74.3240  226.4840 C   0  0  0  0  0  0  0  0  0  0  0  0
  134.1740   73.1920  226.1100 N   0  0  0  0  0  0  0  0  0  0  0  0
  140.1730   70.8290  225.7650 C   0  0  0  0  0  0  0  0  0  0  0  0
  139.7850   70.0900  226.8360 C   0  0  0  0  0  0  0  0  0  0  0  0
  140.1960   70.3580  228.1410 C   0  0  0  0  0  0  0  0  0  0  0  0
  141.0310   71.4080  228.4010 C   0  0  0  0  0  0  0  0  0  0  0  0
  141.4370   72.1730  227.3170 C   0  0  0  0  0  0  0  0  0  0  0  0
  141.0300   71.9080  226.0260 C   0  0  0  0  0  0  0  0  0  0  0  0
  138.3766   72.3809  222.7415 H   0  0  0  0  0  0  0  0  0  0  0  0
  139.7591   72.8043  221.6756 H   0  0  0  0  0  0  0  0  0  0  0  0
  139.1044   71.1315  221.6756 H   0  0  0  0  0  0  0  0  0  0  0  0
  141.1777   71.2452  222.9128 H   0  0  0  0  0  0  0  0  0  0  0  0
  140.4214   72.5609  223.9690 H   0  0  0  0  0  0  0  0  0  0  0  0
  140.2317   69.6765  224.0386 H   0  0  0  0  0  0  0  0  0  0  0  0
  137.8760   71.6580  224.1660 H   0  0  0  0  0  0  0  0  0  0  0  0
  135.6780   69.3386  223.6460 H   0  0  0  0  0  0  0  0  0  0  0  0
  135.7523   68.8694  225.4279 H   0  0  0  0  0  0  0  0  0  0  0  0
  135.6460   71.7780  224.6920 H   0  0  0  0  0  0  0  0  0  0  0  0
  132.0839   70.8951  227.4255 H   0  0  0  0  0  0  0  0  0  0  0  0
  130.9441   72.9873  228.1499 H   0  0  0  0  0  0  0  0  0  0  0  0
  130.8719   75.3922  228.1997 H   0  0  0  0  0  0  0  0  0  0  0  0
  131.8340   77.6015  227.5971 H   0  0  0  0  0  0  0  0  0  0  0  0
  133.9179   77.6808  226.2783 H   0  0  0  0  0  0  0  0  0  0  0  0
  135.0664   75.6216  225.5525 H   0  0  0  0  0  0  0  0  0  0  0  0
  139.1123   69.2366  226.6653 H   0  0  0  0  0  0  0  0  0  0  0  0
  139.8460   69.7204  228.9663 H   0  0  0  0  0  0  0  0  0  0  0  0
  141.3662   71.6364  229.4235 H   0  0  0  0  0  0  0  0  0  0  0  0
  142.1102   73.0247  227.4942 H   0  0  0  0  0  0  0  0  0  0  0  0
  141.3784   72.5445  225.1992 H   0  0  0  0  0  0  0  0  0  0  0  0
  1  2  1  0
  2  3  1  0
  3  4  1  0
  4  5  1  0
  5  6  2  0
  5  7  1  0
  7  8  1  0
  8  9  1  0
  9 10  2  0
  9 11  1  0
 11 12  2  0
 12 13  1  0
 13 14  2  0
 14 15  1  0
 15 16  2  0
 16 17  1  0
 17 18  2  0
 18 19  1  0
 19 20  2  0
  3 21  1  0
 21 22  2  0
 22 23  1  0
 23 24  2  0
 24 25  1  0
 25 26  2  0
 20 11  1  0
 26 21  1  0
 19 14  1  0
  1 27  1  0
  1 28  1  0
  1 29  1  0
  2 30  1  0
  2 31  1  0
  3 32  1  6
  4 33  1  0
  7 34  1  0
  7 35  1  0
  8 36  1  0
 12 37  1  0
 13 38  1  0
 15 39  1  0
 16 40  1  0
 17 41  1  0
 18 42  1  0
 22 43  1  0
 23 44  1  0
 24 45  1  0
 25 46  1  0
 26 47  1  0
M  END
>  <smiles>  (31) 
CC[C@H](NC(=O)CNC(=O)c1ccc2ccccc2n1)c1ccccc1

>  <score_type>  (31) 
oracle

>  <origin>  (31) 
autodockgpu

>  <m_score__min__energy>  (31) 
-8.6300000000000008

>  <m_primary>  (31) 
energy

>  <rmsd>  (31) 
10.065793129795829

>  <m_score__min__rmsd>  (31) 
10.065793129795829

>  <meeko>  (31) 
{"free_energy": -8.56, "intermolecular_energy": -10.35, "internal_energy": -1.39, "cluster_size": 14, "cluster_id": 3, "rank_in_cluster": 1}

>  <energy>  (31) 
-7.79

>  <cluster_rmsd>  (31) 
0.4

>  <cluster>  (31) 
5

$$$$

     RDKit          3D

 47 49  0  0  0  0  0  0  0  0999 V2000
  140.6440   71.7860  227.7470 C   0  0  0  0  0  0  0  0  0  0  0  0
  141.4620   71.9170  226.5040 C   0  0  0  0  0  0  0  0  0  0  0  0
  141.0780   71.0420  225.3690 C   0  0  2  0  0  0  0  0  0  0  0  0
  140.0970   71.8150  224.5740 N   0  0  0  0  0  0  0  0  0  0  0  0
  140.2960   72.0660  223.1930 C   0  0  0  0  0  0  0  0  0  0  0  0
  141.3660   71.5880  222.6890 O   0  0  0  0  0  0  0  0  0  0  0  0
  139.3990   72.8110  222.3190 C   0  0  0  0  0  0  0  0  0  0  0  0
  139.6010   74.2410  222.2870 N   0  0  0  0  0  0  0  0  0  0  0  0
  140.7780   74.7010  221.5980 C   0  0  0  0  0  0  0  0  0  0  0  0
  141.5730   73.8780  221.0590 O   0  0  0  0  0  0  0  0  0  0  0  0
  141.0350   76.1330  221.5330 C   0  0  0  0  0  0  0  0  0  0  0  0
  141.2490   76.7280  220.3060 C   0  0  0  0  0  0  0  0  0  0  0  0
  141.4920   78.0870  220.2510 C   0  0  0  0  0  0  0  0  0  0  0  0
  141.5170   78.8390  221.4320 C   0  0  0  0  0  0  0  0  0  0  0  0
  141.7570   80.1890  221.3910 C   0  0  0  0  0  0  0  0  0  0  0  0
  141.7840   80.9380  222.5460 C   0  0  0  0  0  0  0  0  0  0  0  0
  141.5650   80.2970  223.7420 C   0  0  0  0  0  0  0  0  0  0  0  0
  141.3210   78.9470  223.8230 C   0  0  0  0  0  0  0  0  0  0  0  0
  141.2980   78.2040  222.6370 C   0  0  0  0  0  0  0  0  0  0  0  0
  141.0660   76.8940  222.6640 N   0  0  0  0  0  0  0  0  0  0  0  0
  140.3800   69.7930  225.7020 C   0  0  0  0  0  0  0  0  0  0  0  0
  139.1140   69.4420  225.3560 C   0  0  0  0  0  0  0  0  0  0  0  0
  138.5270   68.2320  225.7250 C   0  0  0  0  0  0  0  0  0  0  0  0
  139.2240   67.3250  226.4720 C   0  0  0  0  0  0  0  0  0  0  0  0
  140.5190   67.6690  226.8330 C   0  0  0  0  0  0  0  0  0  0  0  0
  141.0990   68.8660  226.4680 C   0  0  0  0  0  0  0  0  0  0  0  0
  141.2953   71.8903  228.6273 H   0  0  0  0  0  0  0  0  0  0  0  0
  139.8751   72.5725  227.7645 H   0  0  0  0  0  0  0  0  0  0  0  0
  140.1592   70.7988  227.7645 H   0  0  0  0  0  0  0  0  0  0  0  0
  141.3884   72.9601  226.1628 H   0  0  0  0  0  0  0  0  0  0  0  0
  142.4774   71.6021  226.7866 H   0  0  0  0  0  0  0  0  0  0  0  0
  142.0226   70.7608  224.8804 H   0  0  0  0  0  0  0  0  0  0  0  0
  139.2450   72.1770  225.0470 H   0  0  0  0  0  0  0  0  0  0  0  0
  139.5288   72.4283  221.2959 H   0  0  0  0  0  0  0  0  0  0  0  0
  138.3886   72.6597  222.7267 H   0  0  0  0  0  0  0  0  0  0  0  0
  138.9900   74.9520  222.7060 H   0  0  0  0  0  0  0  0  0  0  0  0
  141.2263   76.1282  219.3842 H   0  0  0  0  0  0  0  0  0  0  0  0
  141.6655   78.5772  219.2816 H   0  0  0  0  0  0  0  0  0  0  0  0
  141.9303   80.6799  220.4220 H   0  0  0  0  0  0  0  0  0  0  0  0
  141.9757   82.0206  222.5125 H   0  0  0  0  0  0  0  0  0  0  0  0
  141.5859   80.8873  224.6700 H   0  0  0  0  0  0  0  0  0  0  0  0
  141.1481   78.4626  224.7953 H   0  0  0  0  0  0  0  0  0  0  0  0
  138.5222   70.1477  224.7546 H   0  0  0  0  0  0  0  0  0  0  0  0
  137.4966   68.0065  225.4128 H   0  0  0  0  0  0  0  0  0  0  0  0
  138.7788   66.3654  226.7737 H   0  0  0  0  0  0  0  0  0  0  0  0
  141.1062   66.9590  227.4340 H   0  0  0  0  0  0  0  0  0  0  0  0
  142.1292   69.0935  226.7793 H   0  0  0  0  0  0  0  0  0  0  0  0
  1  2  1  0
  2  3  1  0
  3  4  1  0
  4  5  1  0
  5  6  2  0
  5  7  1  0
  7  8  1  0
  8  9  1  0
  9 10  2  0
  9 11  1  0
 11 12  2  0
 12 13  1  0
 13 14  2  0
 14 15  1  0
 15 16  2  0
 16 17  1  0
 17 18  2  0
 18 19  1  0
 19 20  2  0
  3 21  1  0
 21 22  2  0
 22 23  1  0
 23 24  2  0
 24 25  1  0
 25 26  2  0
 20 11  1  0
 26 21  1  0
 19 14  1  0
  1 27  1  0
  1 28  1  0
  1 29  1  0
  2 30  1  0
  2 31  1  0
  3 32  1  6
  4 33  1  0
  7 34  1  0
  7 35  1  0
  8 36  1  0
 12 37  1  0
 13 38  1  0
 15 39  1  0
 16 40  1  0
 17 41  1  0
 18 42  1  0
 22 43  1  0
 23 44  1  0
 24 45  1  0
 25 46  1  0
 26 47  1  0
M  END
>  <smiles>  (32) 
CC[C@H](NC(=O)CNC(=O)c1ccc2ccccc2n1)c1ccccc1

>  <score_type>  (32) 
oracle

>  <origin>  (32) 
autodockgpu

>  <m_score__min__energy>  (32) 
-8.6300000000000008

>  <m_primary>  (32) 
energy

>  <rmsd>  (32) 
10.422031381136943

>  <m_score__min__rmsd>  (32) 
10.422031381136943

>  <meeko>  (32) 
{"free_energy": -8.63, "intermolecular_energy": -10.42, "internal_energy": -1.16, "cluster_size": 2, "cluster_id": 2, "rank_in_cluster": 1}

>  <energy>  (32) 
-7.77

>  <cluster_rmsd>  (32) 
0.17

>  <cluster>  (32) 
5

$$$$

     RDKit          3D

 47 49  0  0  0  0  0  0  0  0999 V2000
  140.3060   71.7670  222.1140 C   0  0  0  0  0  0  0  0  0  0  0  0
  140.1160   71.9330  223.5860 C   0  0  0  0  0  0  0  0  0  0  0  0
  139.7030   70.7210  224.3360 C   0  0  2  0  0  0  0  0  0  0  0  0
  138.2300   70.8020  224.4600 N   0  0  0  0  0  0  0  0  0  0  0  0
  137.4290   69.6360  224.5460 C   0  0  0  0  0  0  0  0  0  0  0  0
  138.0560   68.5250  224.5080 O   0  0  0  0  0  0  0  0  0  0  0  0
  135.9770   69.6000  224.6700 C   0  0  0  0  0  0  0  0  0  0  0  0
  135.3500   70.8480  225.0340 N   0  0  0  0  0  0  0  0  0  0  0  0
  134.3080   70.7710  226.0240 C   0  0  0  0  0  0  0  0  0  0  0  0
  133.9810   69.6590  226.5310 O   0  0  0  0  0  0  0  0  0  0  0  0
  133.6380   71.9980  226.4320 C   0  0  0  0  0  0  0  0  0  0  0  0
  132.4630   71.9220  227.1530 C   0  0  0  0  0  0  0  0  0  0  0  0
  131.8320   73.0900  227.5370 C   0  0  0  0  0  0  0  0  0  0  0  0
  132.3890   74.3270  227.1930 C   0  0  0  0  0  0  0  0  0  0  0  0
  131.7720   75.4940  227.5680 C   0  0  0  0  0  0  0  0  0  0  0  0
  132.3110   76.7170  227.2350 C   0  0  0  0  0  0  0  0  0  0  0  0
  133.4820   76.7380  226.5160 C   0  0  0  0  0  0  0  0  0  0  0  0
  134.1290   75.5910  226.1230 C   0  0  0  0  0  0  0  0  0  0  0  0
  133.5650   74.3580  226.4710 C   0  0  0  0  0  0  0  0  0  0  0  0
  134.1540   73.2200  226.1130 N   0  0  0  0  0  0  0  0  0  0  0  0
  140.1830   70.6030  225.7200 C   0  0  0  0  0  0  0  0  0  0  0  0
  140.5880   71.6080  226.5380 C   0  0  0  0  0  0  0  0  0  0  0  0
  141.0370   71.4010  227.8420 C   0  0  0  0  0  0  0  0  0  0  0  0
  141.0900   70.1390  228.3620 C   0  0  0  0  0  0  0  0  0  0  0  0
  140.6810   69.1000  227.5380 C   0  0  0  0  0  0  0  0  0  0  0  0
  140.2360   69.3050  226.2490 C   0  0  0  0  0  0  0  0  0  0  0  0
  141.1224   71.0537  221.9278 H   0  0  0  0  0  0  0  0  0  0  0  0
  139.3768   71.3861  221.6650 H   0  0  0  0  0  0  0  0  0  0  0  0
  140.5587   72.7389  221.6650 H   0  0  0  0  0  0  0  0  0  0  0  0
  141.0695   72.2809  224.0100 H   0  0  0  0  0  0  0  0  0  0  0  0
  139.2840   72.6440  223.6962 H   0  0  0  0  0  0  0  0  0  0  0  0
  140.1220   69.8711  223.7773 H   0  0  0  0  0  0  0  0  0  0  0  0
  137.7820   71.7400  224.4850 H   0  0  0  0  0  0  0  0  0  0  0  0
  135.5626   69.2831  223.7016 H   0  0  0  0  0  0  0  0  0  0  0  0
  135.7631   68.9045  225.4950 H   0  0  0  0  0  0  0  0  0  0  0  0
  135.5750   71.7760  224.6560 H   0  0  0  0  0  0  0  0  0  0  0  0
  132.0346   70.9442  227.4184 H   0  0  0  0  0  0  0  0  0  0  0  0
  130.8948   73.0476  228.1113 H   0  0  0  0  0  0  0  0  0  0  0  0
  130.8346   75.4522  228.1421 H   0  0  0  0  0  0  0  0  0  0  0  0
  131.8171   77.6524  227.5367 H   0  0  0  0  0  0  0  0  0  0  0  0
  133.9183   77.7106  226.2445 H   0  0  0  0  0  0  0  0  0  0  0  0
  135.0663   75.6406  225.5495 H   0  0  0  0  0  0  0  0  0  0  0  0
  140.5606   72.6379  226.1526 H   0  0  0  0  0  0  0  0  0  0  0  0
  141.3502   72.2588  228.4552 H   0  0  0  0  0  0  0  0  0  0  0  0
  141.4412   69.9546  229.3880 H   0  0  0  0  0  0  0  0  0  0  0  0
  140.7131   68.0722  227.9285 H   0  0  0  0  0  0  0  0  0  0  0  0
  139.9219   68.4486  225.6342 H   0  0  0  0  0  0  0  0  0  0  0  0
  1  2  1  0
  2  3  1  0
  3  4  1  0
  4  5  1  0
  5  6  2  0
  5  7  1  0
  7  8  1  0
  8  9  1  0
  9 10  2  0
  9 11  1  0
 11 12  2  0
 12 13  1  0
 13 14  2  0
 14 15  1  0
 15 16  2  0
 16 17  1  0
 17 18  2  0
 18 19  1  0
 19 20  2  0
  3 21  1  0
 21 22  2  0
 22 23  1  0
 23 24  2  0
 24 25  1  0
 25 26  2  0
 20 11  1  0
 26 21  1  0
 19 14  1  0
  1 27  1  0
  1 28  1  0
  1 29  1  0
  2 30  1  0
  2 31  1  0
  3 32  1  6
  4 33  1  0
  7 34  1  0
  7 35  1  0
  8 36  1  0
 12 37  1  0
 13 38  1  0
 15 39  1  0
 16 40  1  0
 17 41  1  0
 18 42  1  0
 22 43  1  0
 23 44  1  0
 24 45  1  0
 25 46  1  0
 26 47  1  0
M  END
>  <smiles>  (33) 
CC[C@H](NC(=O)CNC(=O)c1ccc2ccccc2n1)c1ccccc1

>  <score_type>  (33) 
oracle

>  <origin>  (33) 
autodockgpu

>  <m_score__min__energy>  (33) 
-8.6300000000000008

>  <m_primary>  (33) 
energy

>  <rmsd>  (33) 
10.411553179204516

>  <m_score__min__rmsd>  (33) 
10.411553179204516

>  <meeko>  (33) 
{"free_energy": -8.48, "intermolecular_energy": -10.27, "internal_energy": -1.36, "cluster_size": 14, "cluster_id": 3, "rank_in_cluster": 3}

>  <energy>  (33) 
-7.69

>  <cluster_rmsd>  (33) 
1.33

>  <cluster>  (33) 
5

$$$$

     RDKit          3D

 47 49  0  0  0  0  0  0  0  0999 V2000
  138.8120   71.9970  222.3880 C   0  0  0  0  0  0  0  0  0  0  0  0
  139.9100   71.6540  223.3400 C   0  0  0  0  0  0  0  0  0  0  0  0
  139.5870   70.6480  224.3810 C   0  0  2  0  0  0  0  0  0  0  0  0
  138.1230   70.7320  224.5870 N   0  0  0  0  0  0  0  0  0  0  0  0
  137.2830   69.6070  224.3930 C   0  0  0  0  0  0  0  0  0  0  0  0
  137.8670   68.5310  224.0320 O   0  0  0  0  0  0  0  0  0  0  0  0
  135.8360   69.5770  224.5670 C   0  0  0  0  0  0  0  0  0  0  0  0
  135.2260   70.8300  224.9440 N   0  0  0  0  0  0  0  0  0  0  0  0
  134.2410   70.7680  225.9910 C   0  0  0  0  0  0  0  0  0  0  0  0
  133.9470   69.6650  226.5360 O   0  0  0  0  0  0  0  0  0  0  0  0
  133.5910   72.0000  226.4140 C   0  0  0  0  0  0  0  0  0  0  0  0
  132.4120   71.9340  227.1300 C   0  0  0  0  0  0  0  0  0  0  0  0
  131.8010   73.1070  227.5290 C   0  0  0  0  0  0  0  0  0  0  0  0
  132.3790   74.3400  227.2040 C   0  0  0  0  0  0  0  0  0  0  0  0
  131.7810   75.5120  227.5940 C   0  0  0  0  0  0  0  0  0  0  0  0
  132.3420   76.7300  227.2800 C   0  0  0  0  0  0  0  0  0  0  0  0
  133.5160   76.7410  226.5650 C   0  0  0  0  0  0  0  0  0  0  0  0
  134.1440   75.5890  226.1580 C   0  0  0  0  0  0  0  0  0  0  0  0
  133.5580   74.3610  226.4870 C   0  0  0  0  0  0  0  0  0  0  0  0
  134.1290   73.2170  226.1150 N   0  0  0  0  0  0  0  0  0  0  0  0
  140.1600   70.8690  225.7160 C   0  0  0  0  0  0  0  0  0  0  0  0
  140.9370   71.9090  226.1150 C   0  0  0  0  0  0  0  0  0  0  0  0
  141.4450   72.0340  227.4080 C   0  0  0  0  0  0  0  0  0  0  0  0
  141.1730   71.0840  228.3520 C   0  0  0  0  0  0  0  0  0  0  0  0
  140.3800   70.0160  227.9600 C   0  0  0  0  0  0  0  0  0  0  0  0
  139.8780   69.8920  226.6820 C   0  0  0  0  0  0  0  0  0  0  0  0
  137.9112   72.2784  222.9532 H   0  0  0  0  0  0  0  0  0  0  0  0
  139.1257   72.8399  221.7547 H   0  0  0  0  0  0  0  0  0  0  0  0
  138.5901   71.1254  221.7547 H   0  0  0  0  0  0  0  0  0  0  0  0
  140.7553   71.2677  222.7515 H   0  0  0  0  0  0  0  0  0  0  0  0
  140.1247   72.5837  223.8873 H   0  0  0  0  0  0  0  0  0  0  0  0
  139.9962   69.6969  224.0096 H   0  0  0  0  0  0  0  0  0  0  0  0
  137.7120   71.6400  224.8820 H   0  0  0  0  0  0  0  0  0  0  0  0
  135.3875   69.2552  223.6155 H   0  0  0  0  0  0  0  0  0  0  0  0
  135.6482   68.8877  225.4034 H   0  0  0  0  0  0  0  0  0  0  0  0
  135.4260   71.7520  224.5370 H   0  0  0  0  0  0  0  0  0  0  0  0
  131.9653   70.9602  227.3794 H   0  0  0  0  0  0  0  0  0  0  0  0
  130.8621   73.0723  228.1010 H   0  0  0  0  0  0  0  0  0  0  0  0
  130.8413   75.4782  228.1649 H   0  0  0  0  0  0  0  0  0  0  0  0
  131.8631   77.6695  227.5932 H   0  0  0  0  0  0  0  0  0  0  0  0
  133.9701   77.7096  226.3089 H   0  0  0  0  0  0  0  0  0  0  0  0
  135.0838   75.6305  225.5879 H   0  0  0  0  0  0  0  0  0  0  0  0
  141.1779   72.6924  225.3813 H   0  0  0  0  0  0  0  0  0  0  0  0
  142.0680   72.9021  227.6693 H   0  0  0  0  0  0  0  0  0  0  0  0
  141.5654   71.1629  229.3766 H   0  0  0  0  0  0  0  0  0  0  0  0
  140.1419   69.2363  228.6986 H   0  0  0  0  0  0  0  0  0  0  0  0
  139.2547   69.0246  226.4192 H   0  0  0  0  0  0  0  0  0  0  0  0
  1  2  1  0
  2  3  1  0
  3  4  1  0
  4  5  1  0
  5  6  2  0
  5  7  1  0
  7  8  1  0
  8  9  1  0
  9 10  2  0
  9 11  1  0
 11 12  2  0
 12 13  1  0
 13 14  2  0
 14 15  1  0
 15 16  2  0
 16 17  1  0
 17 18  2  0
 18 19  1  0
 19 20  2  0
  3 21  1  0
 21 22  2  0
 22 23  1  0
 23 24  2  0
 24 25  1  0
 25 26  2  0
 20 11  1  0
 26 21  1  0
 19 14  1  0
  1 27  1  0
  1 28  1  0
  1 29  1  0
  2 30  1  0
  2 31  1  0
  3 32  1  6
  4 33  1  0
  7 34  1  0
  7 35  1  0
  8 36  1  0
 12 37  1  0
 13 38  1  0
 15 39  1  0
 16 40  1  0
 17 41  1  0
 18 42  1  0
 22 43  1  0
 23 44  1  0
 24 45  1  0
 25 46  1  0
 26 47  1  0
M  END
>  <smiles>  (34) 
CC[C@H](NC(=O)CNC(=O)c1ccc2ccccc2n1)c1ccccc1

>  <score_type>  (34) 
oracle

>  <origin>  (34) 
autodockgpu

>  <m_score__min__energy>  (34) 
-8.6300000000000008

>  <m_primary>  (34) 
energy

>  <rmsd>  (34) 
10.314651106719639

>  <m_score__min__rmsd>  (34) 
10.314651106719639

>  <meeko>  (34) 
{"free_energy": -8.29, "intermolecular_energy": -10.08, "internal_energy": -1.43, "cluster_size": 14, "cluster_id": 3, "rank_in_cluster": 6}

>  <energy>  (34) 
-7.66

>  <cluster_rmsd>  (34) 
0.39

>  <cluster>  (34) 
5

$$$$

     RDKit          3D

 47 49  0  0  0  0  0  0  0  0999 V2000
  136.4820   74.9460  222.6330 C   0  0  0  0  0  0  0  0  0  0  0  0
  137.1550   76.2640  222.8340 C   0  0  0  0  0  0  0  0  0  0  0  0
  138.3930   76.4970  222.0510 C   0  0  2  0  0  0  0  0  0  0  0  0
  139.1170   75.2050  222.0410 N   0  0  0  0  0  0  0  0  0  0  0  0
  140.0690   74.8970  221.0380 C   0  0  0  0  0  0  0  0  0  0  0  0
  140.2570   75.7970  220.1540 O   0  0  0  0  0  0  0  0  0  0  0  0
  140.8360   73.6620  220.9330 C   0  0  0  0  0  0  0  0  0  0  0  0
  140.9080   72.8670  222.1360 N   0  0  0  0  0  0  0  0  0  0  0  0
  139.6680   72.3060  222.6030 C   0  0  0  0  0  0  0  0  0  0  0  0
  138.5900   72.5120  221.9750 O   0  0  0  0  0  0  0  0  0  0  0  0
  139.6790   71.4950  223.8120 C   0  0  0  0  0  0  0  0  0  0  0  0
  138.9770   70.3060  223.8390 C   0  0  0  0  0  0  0  0  0  0  0  0
  138.9910   69.5410  224.9890 C   0  0  0  0  0  0  0  0  0  0  0  0
  139.7140   69.9770  226.1060 C   0  0  0  0  0  0  0  0  0  0  0  0
  139.7360   69.2270  227.2550 C   0  0  0  0  0  0  0  0  0  0  0  0
  140.4430   69.6460  228.3590 C   0  0  0  0  0  0  0  0  0  0  0  0
  141.1250   70.8360  228.2820 C   0  0  0  0  0  0  0  0  0  0  0  0
  141.1270   71.6150  227.1500 C   0  0  0  0  0  0  0  0  0  0  0  0
  140.4020   71.1710  226.0370 C   0  0  0  0  0  0  0  0  0  0  0  0
  140.3730   71.8900  224.9180 N   0  0  0  0  0  0  0  0  0  0  0  0
  139.3590   77.4550  222.6060 C   0  0  0  0  0  0  0  0  0  0  0  0
  140.7040   77.3020  222.7050 C   0  0  0  0  0  0  0  0  0  0  0  0
  141.5470   78.2670  223.2560 C   0  0  0  0  0  0  0  0  0  0  0  0
  141.0340   79.4400  223.7350 C   0  0  0  0  0  0  0  0  0  0  0  0
  139.6600   79.6110  223.6420 C   0  0  0  0  0  0  0  0  0  0  0  0
  138.8280   78.6570  223.0960 C   0  0  0  0  0  0  0  0  0  0  0  0
  136.2533   74.4981  223.6113 H   0  0  0  0  0  0  0  0  0  0  0  0
  135.5486   75.0930  222.0698 H   0  0  0  0  0  0  0  0  0  0  0  0
  137.1484   74.2761  222.0698 H   0  0  0  0  0  0  0  0  0  0  0  0
  136.4357   77.0518  222.5656 H   0  0  0  0  0  0  0  0  0  0  0  0
  137.4689   76.2748  223.8882 H   0  0  0  0  0  0  0  0  0  0  0  0
  138.0581   76.9027  221.0849 H   0  0  0  0  0  0  0  0  0  0  0  0
  138.9160   74.5150  222.7930 H   0  0  0  0  0  0  0  0  0  0  0  0
  140.3771   73.0447  220.1466 H   0  0  0  0  0  0  0  0  0  0  0  0
  141.8694   73.9680  220.7128 H   0  0  0  0  0  0  0  0  0  0  0  0
  141.7530   72.6680  222.6850 H   0  0  0  0  0  0  0  0  0  0  0  0
  138.4135   69.9722  222.9553 H   0  0  0  0  0  0  0  0  0  0  0  0
  138.4358   68.5921  225.0272 H   0  0  0  0  0  0  0  0  0  0  0  0
  139.1810   68.2781  227.2942 H   0  0  0  0  0  0  0  0  0  0  0  0
  140.4615   69.0436  229.2792 H   0  0  0  0  0  0  0  0  0  0  0  0
  141.6914   71.1785  229.1605 H   0  0  0  0  0  0  0  0  0  0  0  0
  141.6838   72.5631  227.1188 H   0  0  0  0  0  0  0  0  0  0  0  0
  141.1521   76.3694  222.3316 H   0  0  0  0  0  0  0  0  0  0  0  0
  142.6304   78.0831  223.3053 H   0  0  0  0  0  0  0  0  0  0  0  0
  141.6811   80.2135  224.1743 H   0  0  0  0  0  0  0  0  0  0  0  0
  139.2172   80.5448  224.0189 H   0  0  0  0  0  0  0  0  0  0  0  0
  137.7444   78.8391  223.0445 H   0  0  0  0  0  0  0  0  0  0  0  0
  1  2  1  0
  2  3  1  0
  3  4  1  0
  4  5  1  0
  5  6  2  0
  5  7  1  0
  7  8  1  0
  8  9  1  0
  9 10  2  0
  9 11  1  0
 11 12  2  0
 12 13  1  0
 13 14  2  0
 14 15  1  0
 15 16  2  0
 16 17  1  0
 17 18  2  0
 18 19  1  0
 19 20  2  0
  3 21  1  0
 21 22  2  0
 22 23  1  0
 23 24  2  0
 24 25  1  0
 25 26  2  0
 20 11  1  0
 26 21  1  0
 19 14  1  0
  1 27  1  0
  1 28  1  0
  1 29  1  0
  2 30  1  0
  2 31  1  0
  3 32  1  6
  4 33  1  0
  7 34  1  0
  7 35  1  0
  8 36  1  0
 12 37  1  0
 13 38  1  0
 15 39  1  0
 16 40  1  0
 17 41  1  0
 18 42  1  0
 22 43  1  0
 23 44  1  0
 24 45  1  0
 25 46  1  0
 26 47  1  0
M  END
>  <smiles>  (35) 
CC[C@H](NC(=O)CNC(=O)c1ccc2ccccc2n1)c1ccccc1

>  <score_type>  (35) 
oracle

>  <origin>  (35) 
autodockgpu

>  <m_score__min__energy>  (35) 
-8.6300000000000008

>  <m_primary>  (35) 
energy

>  <rmsd>  (35) 
4.633090263378456

>  <m_score__min__rmsd>  (35) 
4.633090263378456

>  <meeko>  (35) 
{"free_energy": -7.69, "intermolecular_energy": -9.48, "internal_energy": -1.92, "cluster_size": 27, "cluster_id": 5, "rank_in_cluster": 12}

>  <energy>  (35) 
-7.53

>  <cluster_rmsd>  (35) 
0.86

>  <cluster>  (35) 
5

$$$$

     RDKit          3D

 47 49  0  0  0  0  0  0  0  0999 V2000
  135.7080   74.6410  223.5170 C   0  0  0  0  0  0  0  0  0  0  0  0
  136.4980   75.9070  223.4480 C   0  0  0  0  0  0  0  0  0  0  0  0
  137.4730   76.0140  222.3350 C   0  0  2  0  0  0  0  0  0  0  0  0
  138.0790   74.6700  222.1960 N   0  0  0  0  0  0  0  0  0  0  0  0
  137.6090   73.7430  221.2330 C   0  0  0  0  0  0  0  0  0  0  0  0
  136.6400   74.1390  220.5050 O   0  0  0  0  0  0  0  0  0  0  0  0
  138.1300   72.4000  221.0100 C   0  0  0  0  0  0  0  0  0  0  0  0
  138.4220   71.6370  222.2010 N   0  0  0  0  0  0  0  0  0  0  0  0
  139.5770   72.0500  222.9530 C   0  0  0  0  0  0  0  0  0  0  0  0
  140.2790   73.0300  222.5710 O   0  0  0  0  0  0  0  0  0  0  0  0
  139.9220   71.3170  224.1630 C   0  0  0  0  0  0  0  0  0  0  0  0
  140.7540   71.9020  225.0970 C   0  0  0  0  0  0  0  0  0  0  0  0
  141.0760   71.2020  226.2440 C   0  0  0  0  0  0  0  0  0  0  0  0
  140.5590   69.9170  226.4440 C   0  0  0  0  0  0  0  0  0  0  0  0
  140.8720   69.2110  227.5780 C   0  0  0  0  0  0  0  0  0  0  0  0
  140.3690   67.9460  227.7840 C   0  0  0  0  0  0  0  0  0  0  0  0
  139.5460   67.4080  226.8240 C   0  0  0  0  0  0  0  0  0  0  0  0
  139.2090   68.0840  225.6760 C   0  0  0  0  0  0  0  0  0  0  0  0
  139.7310   69.3690  225.4850 C   0  0  0  0  0  0  0  0  0  0  0  0
  139.4350   70.0630  224.3890 N   0  0  0  0  0  0  0  0  0  0  0  0
  138.6170   76.9140  222.5400 C   0  0  0  0  0  0  0  0  0  0  0  0
  138.5800   78.2120  222.9360 C   0  0  0  0  0  0  0  0  0  0  0  0
  139.7210   78.9970  223.0980 C   0  0  0  0  0  0  0  0  0  0  0  0
  140.9600   78.4730  222.8560 C   0  0  0  0  0  0  0  0  0  0  0  0
  141.0140   77.1470  222.4510 C   0  0  0  0  0  0  0  0  0  0  0  0
  139.8850   76.3720  222.2910 C   0  0  0  0  0  0  0  0  0  0  0  0
  135.5394   74.3709  224.5699 H   0  0  0  0  0  0  0  0  0  0  0  0
  134.7394   74.7854  223.0159 H   0  0  0  0  0  0  0  0  0  0  0  0
  136.2634   73.8345  223.0159 H   0  0  0  0  0  0  0  0  0  0  0  0
  135.7870   76.7408  223.3519 H   0  0  0  0  0  0  0  0  0  0  0  0
  137.1003   75.9272  224.3682 H   0  0  0  0  0  0  0  0  0  0  0  0
  136.9037   76.4086  221.4805 H   0  0  0  0  0  0  0  0  0  0  0  0
  138.8680   74.4110  222.8220 H   0  0  0  0  0  0  0  0  0  0  0  0
  137.3851   71.8412  220.4245 H   0  0  0  0  0  0  0  0  0  0  0  0
  139.0928   72.5330  220.4949 H   0  0  0  0  0  0  0  0  0  0  0  0
  137.8880   70.8350  222.5560 H   0  0  0  0  0  0  0  0  0  0  0  0
  141.1553   72.9125  224.9300 H   0  0  0  0  0  0  0  0  0  0  0  0
  141.7372   71.6537  226.9982 H   0  0  0  0  0  0  0  0  0  0  0  0
  141.5335   69.6616  228.3326 H   0  0  0  0  0  0  0  0  0  0  0  0
  140.6195   67.3805  228.6937 H   0  0  0  0  0  0  0  0  0  0  0  0
  139.1413   66.3972  226.9805 H   0  0  0  0  0  0  0  0  0  0  0  0
  138.5461   67.6272  224.9264 H   0  0  0  0  0  0  0  0  0  0  0  0
  137.5998   78.6678  223.1395 H   0  0  0  0  0  0  0  0  0  0  0  0
  139.6235   80.0436  223.4223 H   0  0  0  0  0  0  0  0  0  0  0  0
  141.8727   79.0751  222.9768 H   0  0  0  0  0  0  0  0  0  0  0  0
  141.9969   76.6961  222.2495 H   0  0  0  0  0  0  0  0  0  0  0  0
  139.9799   75.3251  221.9669 H   0  0  0  0  0  0  0  0  0  0  0  0
  1  2  1  0
  2  3  1  0
  3  4  1  0
  4  5  1  0
  5  6  2  0
  5  7  1  0
  7  8  1  0
  8  9  1  0
  9 10  2  0
  9 11  1  0
 11 12  2  0
 12 13  1  0
 13 14  2  0
 14 15  1  0
 15 16  2  0
 16 17  1  0
 17 18  2  0
 18 19  1  0
 19 20  2  0
  3 21  1  0
 21 22  2  0
 22 23  1  0
 23 24  2  0
 24 25  1  0
 25 26  2  0
 20 11  1  0
 26 21  1  0
 19 14  1  0
  1 27  1  0
  1 28  1  0
  1 29  1  0
  2 30  1  0
  2 31  1  0
  3 32  1  6
  4 33  1  0
  7 34  1  0
  7 35  1  0
  8 36  1  0
 12 37  1  0
 13 38  1  0
 15 39  1  0
 16 40  1  0
 17 41  1  0
 18 42  1  0
 22 43  1  0
 23 44  1  0
 24 45  1  0
 25 46  1  0
 26 47  1  0
M  END
>  <smiles>  (36) 
CC[C@H](NC(=O)CNC(=O)c1ccc2ccccc2n1)c1ccccc1

>  <score_type>  (36) 
oracle

>  <origin>  (36) 
autodockgpu

>  <m_score__min__energy>  (36) 
-8.6300000000000008

>  <m_primary>  (36) 
energy

>  <rmsd>  (36) 
4.661069549077889

>  <m_score__min__rmsd>  (36) 
4.661069549077889

>  <meeko>  (36) 
{"free_energy": -7.53, "intermolecular_energy": -9.32, "internal_energy": -2.19, "cluster_size": 27, "cluster_id": 5, "rank_in_cluster": 14}

>  <energy>  (36) 
-7.51

>  <cluster_rmsd>  (36) 
0.86

>  <cluster>  (36) 
5

$$$$

     RDKit          3D

 47 49  0  0  0  0  0  0  0  0999 V2000
  139.3390   72.2430  222.2710 C   0  0  0  0  0  0  0  0  0  0  0  0
  140.3520   71.6990  223.2240 C   0  0  0  0  0  0  0  0  0  0  0  0
  139.8580   70.7110  224.2150 C   0  0  2  0  0  0  0  0  0  0  0  0
  138.3840   70.8510  224.2280 N   0  0  0  0  0  0  0  0  0  0  0  0
  137.5330   69.7180  224.1830 C   0  0  0  0  0  0  0  0  0  0  0  0
  138.1160   68.5850  224.1280 O   0  0  0  0  0  0  0  0  0  0  0  0
  136.0750   69.7410  224.1910 C   0  0  0  0  0  0  0  0  0  0  0  0
  135.4710   70.8560  224.8800 N   0  0  0  0  0  0  0  0  0  0  0  0
  135.6040   72.1420  224.2480 C   0  0  0  0  0  0  0  0  0  0  0  0
  136.2200   72.2600  223.1490 O   0  0  0  0  0  0  0  0  0  0  0  0
  135.0150   73.3050  224.8970 C   0  0  0  0  0  0  0  0  0  0  0  0
  135.4770   74.5660  224.5790 C   0  0  0  0  0  0  0  0  0  0  0  0
  134.9140   75.6650  225.1980 C   0  0  0  0  0  0  0  0  0  0  0  0
  133.8870   75.4880  226.1330 C   0  0  0  0  0  0  0  0  0  0  0  0
  133.3190   76.5710  226.7550 C   0  0  0  0  0  0  0  0  0  0  0  0
  132.3090   76.4080  227.6760 C   0  0  0  0  0  0  0  0  0  0  0  0
  131.8850   75.1320  227.9570 C   0  0  0  0  0  0  0  0  0  0  0  0
  132.4280   74.0230  227.3550 C   0  0  0  0  0  0  0  0  0  0  0  0
  133.4540   74.2100  226.4210 C   0  0  0  0  0  0  0  0  0  0  0  0
  134.0130   73.1670  225.8120 N   0  0  0  0  0  0  0  0  0  0  0  0
  140.2600   70.9170  225.6130 C   0  0  0  0  0  0  0  0  0  0  0  0
  141.0830   71.8820  226.0970 C   0  0  0  0  0  0  0  0  0  0  0  0
  141.4180   71.9980  227.4460 C   0  0  0  0  0  0  0  0  0  0  0  0
  140.9150   71.1160  228.3610 C   0  0  0  0  0  0  0  0  0  0  0  0
  140.0720   70.1240  227.8810 C   0  0  0  0  0  0  0  0  0  0  0  0
  139.7420   70.0100  226.5470 C   0  0  0  0  0  0  0  0  0  0  0  0
  138.5072   72.6897  222.8355 H   0  0  0  0  0  0  0  0  0  0  0  0
  139.8067   73.0113  221.6378 H   0  0  0  0  0  0  0  0  0  0  0  0
  138.9569   71.4287  221.6378 H   0  0  0  0  0  0  0  0  0  0  0  0
  141.1423   71.2139  222.6323 H   0  0  0  0  0  0  0  0  0  0  0  0
  140.6923   72.5622  223.8148 H   0  0  0  0  0  0  0  0  0  0  0  0
  140.2760   69.7433  223.9006 H   0  0  0  0  0  0  0  0  0  0  0  0
  137.9730   71.8050  224.2740 H   0  0  0  0  0  0  0  0  0  0  0  0
  135.7315   69.7629  223.1462 H   0  0  0  0  0  0  0  0  0  0  0  0
  135.7637   68.8424  224.7438 H   0  0  0  0  0  0  0  0  0  0  0  0
  134.9610   70.8180  225.7710 H   0  0  0  0  0  0  0  0  0  0  0  0
  136.2834   74.6942  223.8419 H   0  0  0  0  0  0  0  0  0  0  0  0
  135.2717   76.6769  224.9569 H   0  0  0  0  0  0  0  0  0  0  0  0
  133.6756   77.5834  226.5144 H   0  0  0  0  0  0  0  0  0  0  0  0
  131.8534   77.2767  228.1738 H   0  0  0  0  0  0  0  0  0  0  0  0
  131.0792   74.9928  228.6928 H   0  0  0  0  0  0  0  0  0  0  0  0
  132.0659   73.0138  227.6005 H   0  0  0  0  0  0  0  0  0  0  0  0
  141.5073   72.6095  225.3893 H   0  0  0  0  0  0  0  0  0  0  0  0
  142.0907   72.8037  227.7753 H   0  0  0  0  0  0  0  0  0  0  0  0
  141.1670   71.1893  229.4292 H   0  0  0  0  0  0  0  0  0  0  0  0
  139.6501   69.3995  228.5931 H   0  0  0  0  0  0  0  0  0  0  0  0
  139.0702   69.2047  226.2151 H   0  0  0  0  0  0  0  0  0  0  0  0
  1  2  1  0
  2  3  1  0
  3  4  1  0
  4  5  1  0
  5  6  2  0
  5  7  1  0
  7  8  1  0
  8  9  1  0
  9 10  2  0
  9 11  1  0
 11 12  2  0
 12 13  1  0
 13 14  2  0
 14 15  1  0
 15 16  2  0
 16 17  1  0
 17 18  2  0
 18 19  1  0
 19 20  2  0
  3 21  1  0
 21 22  2  0
 22 23  1  0
 23 24  2  0
 24 25  1  0
 25 26  2  0
 20 11  1  0
 26 21  1  0
 19 14  1  0
  1 27  1  0
  1 28  1  0
  1 29  1  0
  2 30  1  0
  2 31  1  0
  3 32  1  6
  4 33  1  0
  7 34  1  0
  7 35  1  0
  8 36  1  0
 12 37  1  0
 13 38  1  0
 15 39  1  0
 16 40  1  0
 17 41  1  0
 18 42  1  0
 22 43  1  0
 23 44  1  0
 24 45  1  0
 25 46  1  0
 26 47  1  0
M  END
>  <smiles>  (37) 
CC[C@H](NC(=O)CNC(=O)c1ccc2ccccc2n1)c1ccccc1

>  <score_type>  (37) 
oracle

>  <origin>  (37) 
autodockgpu

>  <m_score__min__energy>  (37) 
-8.6300000000000008

>  <m_primary>  (37) 
energy

>  <rmsd>  (37) 
9.897781263698018

>  <m_score__min__rmsd>  (37) 
9.897781263698018

>  <meeko>  (37) 
{"free_energy": -7.44, "intermolecular_energy": -9.23, "internal_energy": -2.25, "cluster_size": 14, "cluster_id": 3, "rank_in_cluster": 14}

>  <energy>  (37) 
-7.51

>  <cluster_rmsd>  (37) 
0.87

>  <cluster>  (37) 
5

$$$$

     RDKit          3D

 47 49  0  0  0  0  0  0  0  0999 V2000
  135.8340   74.3840  223.3190 C   0  0  0  0  0  0  0  0  0  0  0  0
  136.4940   75.7110  223.1360 C   0  0  0  0  0  0  0  0  0  0  0  0
  137.5420   75.7840  222.0870 C   0  0  2  0  0  0  0  0  0  0  0  0
  138.1540   74.4380  222.0300 N   0  0  0  0  0  0  0  0  0  0  0  0
  137.9180   73.5630  220.9390 C   0  0  0  0  0  0  0  0  0  0  0  0
  137.1510   74.0100  220.0230 O   0  0  0  0  0  0  0  0  0  0  0  0
  138.4680   72.2230  220.7810 C   0  0  0  0  0  0  0  0  0  0  0  0
  138.6980   71.4920  222.0040 N   0  0  0  0  0  0  0  0  0  0  0  0
  139.7540   71.9840  222.8490 C   0  0  0  0  0  0  0  0  0  0  0  0
  140.4270   73.0010  222.5150 O   0  0  0  0  0  0  0  0  0  0  0  0
  140.0330   71.2870  224.0970 C   0  0  0  0  0  0  0  0  0  0  0  0
  140.7980   71.9080  225.0640 C   0  0  0  0  0  0  0  0  0  0  0  0
  141.0590   71.2420  226.2460 C   0  0  0  0  0  0  0  0  0  0  0  0
  140.5470   69.9540  226.4480 C   0  0  0  0  0  0  0  0  0  0  0  0
  140.7990   69.2820  227.6170 C   0  0  0  0  0  0  0  0  0  0  0  0
  140.3000   68.0160  227.8250 C   0  0  0  0  0  0  0  0  0  0  0  0
  139.5450   67.4420  226.8310 C   0  0  0  0  0  0  0  0  0  0  0  0
  139.2710   68.0840  225.6480 C   0  0  0  0  0  0  0  0  0  0  0  0
  139.7870   69.3710  225.4550 C   0  0  0  0  0  0  0  0  0  0  0  0
  139.5490   70.0330  224.3250 N   0  0  0  0  0  0  0  0  0  0  0  0
  138.6700   76.6910  222.3410 C   0  0  0  0  0  0  0  0  0  0  0  0
  138.6080   77.9910  222.7280 C   0  0  0  0  0  0  0  0  0  0  0  0
  139.7370   78.7830  222.9380 C   0  0  0  0  0  0  0  0  0  0  0  0
  140.9880   78.2640  222.7570 C   0  0  0  0  0  0  0  0  0  0  0  0
  141.0680   76.9370  222.3610 C   0  0  0  0  0  0  0  0  0  0  0  0
  139.9510   76.1540  222.1530 C   0  0  0  0  0  0  0  0  0  0  0  0
  135.7285   74.1720  224.3932 H   0  0  0  0  0  0  0  0  0  0  0  0
  134.8395   74.4012  222.8493 H   0  0  0  0  0  0  0  0  0  0  0  0
  136.4478   73.6013  222.8493 H   0  0  0  0  0  0  0  0  0  0  0  0
  135.7125   76.4419  222.8808 H   0  0  0  0  0  0  0  0  0  0  0  0
  137.0129   75.9144  224.0844 H   0  0  0  0  0  0  0  0  0  0  0  0
  137.0317   76.1508  221.1842 H   0  0  0  0  0  0  0  0  0  0  0  0
  138.7710   74.1360  222.8100 H   0  0  0  0  0  0  0  0  0  0  0  0
  137.7665   71.6402  220.1659 H   0  0  0  0  0  0  0  0  0  0  0  0
  139.4585   72.3580  220.3219 H   0  0  0  0  0  0  0  0  0  0  0  0
  138.1840   70.6630  222.3240 H   0  0  0  0  0  0  0  0  0  0  0  0
  141.1947   72.9201  224.8955 H   0  0  0  0  0  0  0  0  0  0  0  0
  141.6674   71.7221  227.0266 H   0  0  0  0  0  0  0  0  0  0  0  0
  141.4076   69.7609  228.3982 H   0  0  0  0  0  0  0  0  0  0  0  0
  140.5006   67.4777  228.7631 H   0  0  0  0  0  0  0  0  0  0  0  0
  139.1446   66.4296  226.9885 H   0  0  0  0  0  0  0  0  0  0  0  0
  138.6613   67.5989  224.8715 H   0  0  0  0  0  0  0  0  0  0  0  0
  137.6172   78.4426  222.8838 H   0  0  0  0  0  0  0  0  0  0  0  0
  139.6195   79.8310  223.2510 H   0  0  0  0  0  0  0  0  0  0  0  0
  141.8910   78.8712  222.9181 H   0  0  0  0  0  0  0  0  0  0  0  0
  142.0616   76.4910  222.2066 H   0  0  0  0  0  0  0  0  0  0  0  0
  140.0661   75.1061  221.8390 H   0  0  0  0  0  0  0  0  0  0  0  0
  1  2  1  0
  2  3  1  0
  3  4  1  0
  4  5  1  0
  5  6  2  0
  5  7  1  0
  7  8  1  0
  8  9  1  0
  9 10  2  0
  9 11  1  0
 11 12  2  0
 12 13  1  0
 13 14  2  0
 14 15  1  0
 15 16  2  0
 16 17  1  0
 17 18  2  0
 18 19  1  0
 19 20  2  0
  3 21  1  0
 21 22  2  0
 22 23  1  0
 23 24  2  0
 24 25  1  0
 25 26  2  0
 20 11  1  0
 26 21  1  0
 19 14  1  0
  1 27  1  0
  1 28  1  0
  1 29  1  0
  2 30  1  0
  2 31  1  0
  3 32  1  6
  4 33  1  0
  7 34  1  0
  7 35  1  0
  8 36  1  0
 12 37  1  0
 13 38  1  0
 15 39  1  0
 16 40  1  0
 17 41  1  0
 18 42  1  0
 22 43  1  0
 23 44  1  0
 24 45  1  0
 25 46  1  0
 26 47  1  0
M  END
>  <smiles>  (38) 
CC[C@H](NC(=O)CNC(=O)c1ccc2ccccc2n1)c1ccccc1

>  <score_type>  (38) 
oracle

>  <origin>  (38) 
autodockgpu

>  <m_score__min__energy>  (38) 
-8.6300000000000008

>  <m_primary>  (38) 
energy

>  <rmsd>  (38) 
4.725323872993096

>  <m_score__min__rmsd>  (38) 
4.725323872993096

>  <meeko>  (38) 
{"free_energy": -7.51, "intermolecular_energy": -9.3, "internal_energy": -2.3, "cluster_size": 27, "cluster_id": 5, "rank_in_cluster": 16}

>  <energy>  (38) 
-7.5

>  <cluster_rmsd>  (38) 
0.91

>  <cluster>  (38) 
5

$$$$

     RDKit          3D

 47 49  0  0  0  0  0  0  0  0999 V2000
  135.2820   76.6410  223.1520 C   0  0  0  0  0  0  0  0  0  0  0  0
  136.4960   75.7950  223.3600 C   0  0  0  0  0  0  0  0  0  0  0  0
  137.4670   75.7520  222.2390 C   0  0  2  0  0  0  0  0  0  0  0  0
  137.9460   74.3530  222.1700 N   0  0  0  0  0  0  0  0  0  0  0  0
  137.8190   73.5840  220.9860 C   0  0  0  0  0  0  0  0  0  0  0  0
  137.2680   74.1720  219.9970 O   0  0  0  0  0  0  0  0  0  0  0  0
  138.2550   72.2050  220.8080 C   0  0  0  0  0  0  0  0  0  0  0  0
  138.5300   71.4750  222.0230 N   0  0  0  0  0  0  0  0  0  0  0  0
  139.6110   71.9720  222.8330 C   0  0  0  0  0  0  0  0  0  0  0  0
  140.2660   72.9940  222.4780 O   0  0  0  0  0  0  0  0  0  0  0  0
  139.9350   71.2760  224.0700 C   0  0  0  0  0  0  0  0  0  0  0  0
  140.7270   71.9010  225.0130 C   0  0  0  0  0  0  0  0  0  0  0  0
  141.0310   71.2350  226.1850 C   0  0  0  0  0  0  0  0  0  0  0  0
  140.5350   69.9440  226.4010 C   0  0  0  0  0  0  0  0  0  0  0  0
  140.8300   69.2720  227.5600 C   0  0  0  0  0  0  0  0  0  0  0  0
  140.3470   68.0010  227.7830 C   0  0  0  0  0  0  0  0  0  0  0  0
  139.5640   67.4230  226.8130 C   0  0  0  0  0  0  0  0  0  0  0  0
  139.2470   68.0650  225.6400 C   0  0  0  0  0  0  0  0  0  0  0  0
  139.7470   69.3560  225.4320 C   0  0  0  0  0  0  0  0  0  0  0  0
  139.4680   70.0170  224.3120 N   0  0  0  0  0  0  0  0  0  0  0  0
  138.6890   76.5540  222.3900 C   0  0  0  0  0  0  0  0  0  0  0  0
  139.9710   76.1320  222.2410 C   0  0  0  0  0  0  0  0  0  0  0  0
  141.0760   76.9650  222.4130 C   0  0  0  0  0  0  0  0  0  0  0  0
  140.9060   78.2790  222.7490 C   0  0  0  0  0  0  0  0  0  0  0  0
  139.6010   78.7250  222.9040 C   0  0  0  0  0  0  0  0  0  0  0  0
  138.5090   77.9000  222.7350 C   0  0  0  0  0  0  0  0  0  0  0  0
  134.8657   76.9311  224.1279 H   0  0  0  0  0  0  0  0  0  0  0  0
  135.5568   77.5442  222.5875 H   0  0  0  0  0  0  0  0  0  0  0  0
  134.5298   76.0705  222.5875 H   0  0  0  0  0  0  0  0  0  0  0  0
  137.0236   76.1780  224.2460 H   0  0  0  0  0  0  0  0  0  0  0  0
  136.1221   74.7657  223.4639 H   0  0  0  0  0  0  0  0  0  0  0  0
  136.9286   76.1501  221.3663 H   0  0  0  0  0  0  0  0  0  0  0  0
  138.3870   73.9350  223.0130 H   0  0  0  0  0  0  0  0  0  0  0  0
  137.4650   71.6682  220.2623 H   0  0  0  0  0  0  0  0  0  0  0  0
  139.2114   72.2596  220.2673 H   0  0  0  0  0  0  0  0  0  0  0  0
  138.0320   70.6420  222.3590 H   0  0  0  0  0  0  0  0  0  0  0  0
  141.1110   72.9161  224.8335 H   0  0  0  0  0  0  0  0  0  0  0  0
  141.6612   71.7181  226.9462 H   0  0  0  0  0  0  0  0  0  0  0  0
  141.4606   69.7543  228.3215 H   0  0  0  0  0  0  0  0  0  0  0  0
  140.5821   67.4631  228.7133 H   0  0  0  0  0  0  0  0  0  0  0  0
  139.1761   66.4076  226.9818 H   0  0  0  0  0  0  0  0  0  0  0  0
  138.6158   67.5765  224.8830 H   0  0  0  0  0  0  0  0  0  0  0  0
  140.1467   75.0802  221.9711 H   0  0  0  0  0  0  0  0  0  0  0  0
  142.0906   76.5622  222.2775 H   0  0  0  0  0  0  0  0  0  0  0  0
  141.7644   78.9522  222.8901 H   0  0  0  0  0  0  0  0  0  0  0  0
  139.4310   79.7781  223.1723 H   0  0  0  0  0  0  0  0  0  0  0  0
  137.4934   78.2999  222.8715 H   0  0  0  0  0  0  0  0  0  0  0  0
  1  2  1  0
  2  3  1  0
  3  4  1  0
  4  5  1  0
  5  6  2  0
  5  7  1  0
  7  8  1  0
  8  9  1  0
  9 10  2  0
  9 11  1  0
 11 12  2  0
 12 13  1  0
 13 14  2  0
 14 15  1  0
 15 16  2  0
 16 17  1  0
 17 18  2  0
 18 19  1  0
 19 20  2  0
  3 21  1  0
 21 22  2  0
 22 23  1  0
 23 24  2  0
 24 25  1  0
 25 26  2  0
 20 11  1  0
 26 21  1  0
 19 14  1  0
  1 27  1  0
  1 28  1  0
  1 29  1  0
  2 30  1  0
  2 31  1  0
  3 32  1  6
  4 33  1  0
  7 34  1  0
  7 35  1  0
  8 36  1  0
 12 37  1  0
 13 38  1  0
 15 39  1  0
 16 40  1  0
 17 41  1  0
 18 42  1  0
 22 43  1  0
 23 44  1  0
 24 45  1  0
 25 46  1  0
 26 47  1  0
M  END
>  <smiles>  (39) 
CC[C@H](NC(=O)CNC(=O)c1ccc2ccccc2n1)c1ccccc1

>  <score_type>  (39) 
oracle

>  <origin>  (39) 
autodockgpu

>  <m_score__min__energy>  (39) 
-8.6300000000000008

>  <m_primary>  (39) 
energy

>  <rmsd>  (39) 
4.848109037143302

>  <m_score__min__rmsd>  (39) 
4.848109037143302

>  <meeko>  (39) 
{"free_energy": -7.43, "intermolecular_energy": -9.22, "internal_energy": -2.22, "cluster_size": 27, "cluster_id": 5, "rank_in_cluster": 25}

>  <energy>  (39) 
-7.5

>  <cluster_rmsd>  (39) 
0.86

>  <cluster>  (39) 
5

$$$$

     RDKit          3D

 47 49  0  0  0  0  0  0  0  0999 V2000
  135.7630   74.3700  223.4010 C   0  0  0  0  0  0  0  0  0  0  0  0
  136.4840   75.6660  223.2250 C   0  0  0  0  0  0  0  0  0  0  0  0
  137.5190   75.7040  222.1620 C   0  0  2  0  0  0  0  0  0  0  0  0
  138.1010   74.3430  222.1130 N   0  0  0  0  0  0  0  0  0  0  0  0
  138.1120   73.5860  220.9150 C   0  0  0  0  0  0  0  0  0  0  0  0
  137.5920   74.1490  219.8950 O   0  0  0  0  0  0  0  0  0  0  0  0
  138.6570   72.2430  220.7550 C   0  0  0  0  0  0  0  0  0  0  0  0
  138.8450   71.4940  221.9750 N   0  0  0  0  0  0  0  0  0  0  0  0
  139.8180   72.0170  222.8970 C   0  0  0  0  0  0  0  0  0  0  0  0
  140.4570   73.0750  222.6310 O   0  0  0  0  0  0  0  0  0  0  0  0
  140.0510   71.3040  224.1460 C   0  0  0  0  0  0  0  0  0  0  0  0
  140.7830   71.9100  225.1470 C   0  0  0  0  0  0  0  0  0  0  0  0
  141.0000   71.2290  226.3290 C   0  0  0  0  0  0  0  0  0  0  0  0
  140.4780   69.9400  226.4960 C   0  0  0  0  0  0  0  0  0  0  0  0
  140.6870   69.2530  227.6650 C   0  0  0  0  0  0  0  0  0  0  0  0
  140.1790   67.9850  227.8400 C   0  0  0  0  0  0  0  0  0  0  0  0
  139.4570   67.4260  226.8120 C   0  0  0  0  0  0  0  0  0  0  0  0
  139.2270   68.0830  225.6280 C   0  0  0  0  0  0  0  0  0  0  0  0
  139.7520   69.3710  225.4700 C   0  0  0  0  0  0  0  0  0  0  0  0
  139.5560   70.0480  224.3410 N   0  0  0  0  0  0  0  0  0  0  0  0
  138.6700   76.5880  222.3880 C   0  0  0  0  0  0  0  0  0  0  0  0
  139.9850   76.2630  222.3030 C   0  0  0  0  0  0  0  0  0  0  0  0
  141.0170   77.1710  222.5430 C   0  0  0  0  0  0  0  0  0  0  0  0
  140.7340   78.4630  222.8860 C   0  0  0  0  0  0  0  0  0  0  0  0
  139.3940   78.8110  222.9770 C   0  0  0  0  0  0  0  0  0  0  0  0
  138.3740   77.9130  222.7390 C   0  0  0  0  0  0  0  0  0  0  0  0
  135.6454   74.1586  224.4741 H   0  0  0  0  0  0  0  0  0  0  0  0
  134.7714   74.4351  222.9293 H   0  0  0  0  0  0  0  0  0  0  0  0
  136.3411   73.5618  222.9293 H   0  0  0  0  0  0  0  0  0  0  0  0
  135.7351   76.4370  222.9912 H   0  0  0  0  0  0  0  0  0  0  0  0
  137.0261   75.8303  224.1680 H   0  0  0  0  0  0  0  0  0  0  0  0
  137.0040   76.0723  221.2625 H   0  0  0  0  0  0  0  0  0  0  0  0
  138.5090   73.9430  222.9810 H   0  0  0  0  0  0  0  0  0  0  0  0
  137.9699   71.6739  220.1116 H   0  0  0  0  0  0  0  0  0  0  0  0
  139.6616   72.3762  220.3272 H   0  0  0  0  0  0  0  0  0  0  0  0
  138.3550   70.6330  222.2420 H   0  0  0  0  0  0  0  0  0  0  0  0
  141.1885   72.9227  225.0052 H   0  0  0  0  0  0  0  0  0  0  0  0
  141.5811   71.6977  227.1369 H   0  0  0  0  0  0  0  0  0  0  0  0
  141.2680   69.7212  228.4732 H   0  0  0  0  0  0  0  0  0  0  0  0
  140.3464   67.4341  228.7772 H   0  0  0  0  0  0  0  0  0  0  0  0
  139.0477   66.4134  226.9429 H   0  0  0  0  0  0  0  0  0  0  0  0
  138.6448   67.6089  224.8240 H   0  0  0  0  0  0  0  0  0  0  0  0
  140.2509   75.2309  222.0309 H   0  0  0  0  0  0  0  0  0  0  0  0
  142.0639   76.8449  222.4556 H   0  0  0  0  0  0  0  0  0  0  0  0
  141.5324   79.1941  223.0811 H   0  0  0  0  0  0  0  0  0  0  0  0
  139.1344   79.8445  223.2499 H   0  0  0  0  0  0  0  0  0  0  0  0
  137.3263   78.2371  222.8247 H   0  0  0  0  0  0  0  0  0  0  0  0
  1  2  1  0
  2  3  1  0
  3  4  1  0
  4  5  1  0
  5  6  2  0
  5  7  1  0
  7  8  1  0
  8  9  1  0
  9 10  2  0
  9 11  1  0
 11 12  2  0
 12 13  1  0
 13 14  2  0
 14 15  1  0
 15 16  2  0
 16 17  1  0
 17 18  2  0
 18 19  1  0
 19 20  2  0
  3 21  1  0
 21 22  2  0
 22 23  1  0
 23 24  2  0
 24 25  1  0
 25 26  2  0
 20 11  1  0
 26 21  1  0
 19 14  1  0
  1 27  1  0
  1 28  1  0
  1 29  1  0
  2 30  1  0
  2 31  1  0
  3 32  1  6
  4 33  1  0
  7 34  1  0
  7 35  1  0
  8 36  1  0
 12 37  1  0
 13 38  1  0
 15 39  1  0
 16 40  1  0
 17 41  1  0
 18 42  1  0
 22 43  1  0
 23 44  1  0
 24 45  1  0
 25 46  1  0
 26 47  1  0
M  END
>  <smiles>  (40) 
CC[C@H](NC(=O)CNC(=O)c1ccc2ccccc2n1)c1ccccc1

>  <score_type>  (40) 
oracle

>  <origin>  (40) 
autodockgpu

>  <m_score__min__energy>  (40) 
-8.6300000000000008

>  <m_primary>  (40) 
energy

>  <rmsd>  (40) 
4.781452846769928

>  <m_score__min__rmsd>  (40) 
4.781452846769928

>  <meeko>  (40) 
{"free_energy": -7.43, "intermolecular_energy": -9.22, "internal_energy": -2.32, "cluster_size": 27, "cluster_id": 5, "rank_in_cluster": 23}

>  <energy>  (40) 
-7.48

>  <cluster_rmsd>  (40) 
0.92

>  <cluster>  (40) 
5

$$$$

     RDKit          3D

 47 49  0  0  0  0  0  0  0  0999 V2000
  140.0470   67.1270  226.4830 C   0  0  0  0  0  0  0  0  0  0  0  0
  139.8880   68.0920  225.3540 C   0  0  0  0  0  0  0  0  0  0  0  0
  139.2080   69.3710  225.6740 C   0  0  2  0  0  0  0  0  0  0  0  0
  138.9980   70.0550  224.3780 N   0  0  0  0  0  0  0  0  0  0  0  0
  137.6980   70.2670  223.8550 C   0  0  0  0  0  0  0  0  0  0  0  0
  136.7340   69.8330  224.5680 O   0  0  0  0  0  0  0  0  0  0  0  0
  137.3780   70.9270  222.5950 C   0  0  0  0  0  0  0  0  0  0  0  0
  137.8890   72.2680  222.4430 N   0  0  0  0  0  0  0  0  0  0  0  0
  139.2790   72.3820  222.0890 C   0  0  0  0  0  0  0  0  0  0  0  0
  139.9900   71.3490  221.9250 O   0  0  0  0  0  0  0  0  0  0  0  0
  139.8520   73.7110  221.9230 C   0  0  0  0  0  0  0  0  0  0  0  0
  141.0900   73.8470  221.3270 C   0  0  0  0  0  0  0  0  0  0  0  0
  141.6270   75.1100  221.1710 C   0  0  0  0  0  0  0  0  0  0  0  0
  140.9140   76.2300  221.6160 C   0  0  0  0  0  0  0  0  0  0  0  0
  141.4360   77.4900  221.4680 C   0  0  0  0  0  0  0  0  0  0  0  0
  140.7440   78.5980  221.9030 C   0  0  0  0  0  0  0  0  0  0  0  0
  139.5160   78.4090  222.4900 C   0  0  0  0  0  0  0  0  0  0  0  0
  138.9600   77.1630  222.6550 C   0  0  0  0  0  0  0  0  0  0  0  0
  139.6790   76.0490  222.2070 C   0  0  0  0  0  0  0  0  0  0  0  0
  139.1830   74.8230  222.3450 N   0  0  0  0  0  0  0  0  0  0  0  0
  139.9640   70.3380  226.4830 C   0  0  0  0  0  0  0  0  0  0  0  0
  139.9330   70.4820  227.8320 C   0  0  0  0  0  0  0  0  0  0  0  0
  140.6820   71.4380  228.5190 C   0  0  0  0  0  0  0  0  0  0  0  0
  141.5000   72.2940  227.8370 C   0  0  0  0  0  0  0  0  0  0  0  0
  141.5420   72.1600  226.4570 C   0  0  0  0  0  0  0  0  0  0  0  0
  140.8010   71.2150  225.7790 C   0  0  0  0  0  0  0  0  0  0  0  0
  139.9586   67.6636  227.4392 H   0  0  0  0  0  0  0  0  0  0  0  0
  139.2635   66.3574  226.4206 H   0  0  0  0  0  0  0  0  0  0  0  0
  141.0359   66.6494  226.4206 H   0  0  0  0  0  0  0  0  0  0  0  0
  140.8921   68.3320  224.9743 H   0  0  0  0  0  0  0  0  0  0  0  0
  139.2361   67.5871  224.6260 H   0  0  0  0  0  0  0  0  0  0  0  0
  138.3158   69.0943  226.2548 H   0  0  0  0  0  0  0  0  0  0  0  0
  139.8300   70.3860  223.8480 H   0  0  0  0  0  0  0  0  0  0  0  0
  137.7887   70.3144  221.7789 H   0  0  0  0  0  0  0  0  0  0  0  0
  136.2821   71.0200  222.5754 H   0  0  0  0  0  0  0  0  0  0  0  0
  137.3590   73.1390  222.5640 H   0  0  0  0  0  0  0  0  0  0  0  0
  141.6417   72.9606  220.9807 H   0  0  0  0  0  0  0  0  0  0  0  0
  142.6123   75.2357  220.6984 H   0  0  0  0  0  0  0  0  0  0  0  0
  142.4211   77.6169  220.9952 H   0  0  0  0  0  0  0  0  0  0  0  0
  141.1632   79.6080  221.7838 H   0  0  0  0  0  0  0  0  0  0  0  0
  138.9566   79.2886  222.8413 H   0  0  0  0  0  0  0  0  0  0  0  0
  137.9739   77.0442  223.1277 H   0  0  0  0  0  0  0  0  0  0  0  0
  139.2842   69.8107  228.4137 H   0  0  0  0  0  0  0  0  0  0  0  0
  140.6136   71.5029  229.6150 H   0  0  0  0  0  0  0  0  0  0  0  0
  142.0984   73.0553  228.3589 H   0  0  0  0  0  0  0  0  0  0  0  0
  142.1923   72.8344  225.8805 H   0  0  0  0  0  0  0  0  0  0  0  0
  140.8669   71.1492  224.6830 H   0  0  0  0  0  0  0  0  0  0  0  0
  1  2  1  0
  2  3  1  0
  3  4  1  0
  4  5  1  0
  5  6  2  0
  5  7  1  0
  7  8  1  0
  8  9  1  0
  9 10  2  0
  9 11  1  0
 11 12  2  0
 12 13  1  0
 13 14  2  0
 14 15  1  0
 15 16  2  0
 16 17  1  0
 17 18  2  0
 18 19  1  0
 19 20  2  0
  3 21  1  0
 21 22  2  0
 22 23  1  0
 23 24  2  0
 24 25  1  0
 25 26  2  0
 20 11  1  0
 26 21  1  0
 19 14  1  0
  1 27  1  0
  1 28  1  0
  1 29  1  0
  2 30  1  0
  2 31  1  0
  3 32  1  1
  4 33  1  0
  7 34  1  0
  7 35  1  0
  8 36  1  0
 12 37  1  0
 13 38  1  0
 15 39  1  0
 16 40  1  0
 17 41  1  0
 18 42  1  0
 22 43  1  0
 23 44  1  0
 24 45  1  0
 25 46  1  0
 26 47  1  0
M  END
>  <smiles>  (41) 
CC[C@H](NC(=O)CNC(=O)c1ccc2ccccc2n1)c1ccccc1

>  <score_type>  (41) 
oracle

>  <origin>  (41) 
autodockgpu

>  <m_score__min__energy>  (41) 
-8.6300000000000008

>  <m_primary>  (41) 
energy

>  <rmsd>  (41) 
9.521295894045535

>  <m_score__min__rmsd>  (41) 
9.521295894045535

>  <meeko>  (41) 
{"free_energy": -7.31, "intermolecular_energy": -9.1, "internal_energy": -2.33, "cluster_size": 2, "cluster_id": 6, "rank_in_cluster": 2}

>  <energy>  (41) 
-7.47

>  <cluster_rmsd>  (41) 
0.83

>  <cluster>  (41) 
5

$$$$

     RDKit          3D

 47 49  0  0  0  0  0  0  0  0999 V2000
  140.3720   71.5570  221.9940 C   0  0  0  0  0  0  0  0  0  0  0  0
  140.0300   71.9350  223.3980 C   0  0  0  0  0  0  0  0  0  0  0  0
  139.6580   70.8220  224.3060 C   0  0  2  0  0  0  0  0  0  0  0  0
  138.1860   70.8910  224.4530 N   0  0  0  0  0  0  0  0  0  0  0  0
  137.3880   69.7200  224.4760 C   0  0  0  0  0  0  0  0  0  0  0  0
  138.0170   68.6160  224.3620 O   0  0  0  0  0  0  0  0  0  0  0  0
  135.9380   69.6730  224.6160 C   0  0  0  0  0  0  0  0  0  0  0  0
  135.3050   70.9170  224.9850 N   0  0  0  0  0  0  0  0  0  0  0  0
  134.2800   70.8340  225.9920 C   0  0  0  0  0  0  0  0  0  0  0  0
  133.9710   69.7220  226.5090 O   0  0  0  0  0  0  0  0  0  0  0  0
  133.6050   72.0570  226.4050 C   0  0  0  0  0  0  0  0  0  0  0  0
  132.4160   71.9730  227.1020 C   0  0  0  0  0  0  0  0  0  0  0  0
  131.7810   73.1370  227.4910 C   0  0  0  0  0  0  0  0  0  0  0  0
  132.3470   74.3780  227.1760 C   0  0  0  0  0  0  0  0  0  0  0  0
  131.7250   75.5410  227.5570 C   0  0  0  0  0  0  0  0  0  0  0  0
  132.2730   76.7670  227.2520 C   0  0  0  0  0  0  0  0  0  0  0  0
  133.4580   76.7960  226.5560 C   0  0  0  0  0  0  0  0  0  0  0  0
  134.1090   75.6530  226.1590 C   0  0  0  0  0  0  0  0  0  0  0  0
  133.5360   74.4160  226.4780 C   0  0  0  0  0  0  0  0  0  0  0  0
  134.1290   73.2820  226.1140 N   0  0  0  0  0  0  0  0  0  0  0  0
  140.1690   70.8900  225.6810 C   0  0  0  0  0  0  0  0  0  0  0  0
  140.8520   71.9150  226.2540 C   0  0  0  0  0  0  0  0  0  0  0  0
  141.3080   71.8900  227.5720 C   0  0  0  0  0  0  0  0  0  0  0  0
  141.0780   70.7990  228.3620 C   0  0  0  0  0  0  0  0  0  0  0  0
  140.3820   69.7440  227.7910 C   0  0  0  0  0  0  0  0  0  0  0  0
  139.9310   69.7690  226.4880 C   0  0  0  0  0  0  0  0  0  0  0  0
  141.1100   70.7413  222.0033 H   0  0  0  0  0  0  0  0  0  0  0  0
  139.4629   71.2231  221.4724 H   0  0  0  0  0  0  0  0  0  0  0  0
  140.7949   72.4282  221.4724 H   0  0  0  0  0  0  0  0  0  0  0  0
  140.9045   72.4428  223.8309 H   0  0  0  0  0  0  0  0  0  0  0  0
  139.1312   72.5645  223.3218 H   0  0  0  0  0  0  0  0  0  0  0  0
  140.0831   69.9155  223.8504 H   0  0  0  0  0  0  0  0  0  0  0  0
  137.7370   71.8250  224.5420 H   0  0  0  0  0  0  0  0  0  0  0  0
  135.5155   69.3513  223.6527 H   0  0  0  0  0  0  0  0  0  0  0  0
  135.7387   68.9773  225.4444 H   0  0  0  0  0  0  0  0  0  0  0  0
  135.5150   71.8450  224.6000 H   0  0  0  0  0  0  0  0  0  0  0  0
  131.9801   70.9926  227.3444 H   0  0  0  0  0  0  0  0  0  0  0  0
  130.8330   73.0886  228.0469 H   0  0  0  0  0  0  0  0  0  0  0  0
  130.7770   75.4930  228.1129 H   0  0  0  0  0  0  0  0  0  0  0  0
  131.7752   77.6991  227.5575 H   0  0  0  0  0  0  0  0  0  0  0  0
  133.9019   77.7713  226.3074 H   0  0  0  0  0  0  0  0  0  0  0  0
  135.0572   75.7084  225.6041 H   0  0  0  0  0  0  0  0  0  0  0  0
  141.0558   72.8100  225.6479 H   0  0  0  0  0  0  0  0  0  0  0  0
  141.8558   72.7533  227.9777 H   0  0  0  0  0  0  0  0  0  0  0  0
  141.4290   70.7593  229.4037 H   0  0  0  0  0  0  0  0  0  0  0  0
  140.1817   68.8515  228.4020 H   0  0  0  0  0  0  0  0  0  0  0  0
  139.3828   68.9066  226.0808 H   0  0  0  0  0  0  0  0  0  0  0  0
  1  2  1  0
  2  3  1  0
  3  4  1  0
  4  5  1  0
  5  6  2  0
  5  7  1  0
  7  8  1  0
  8  9  1  0
  9 10  2  0
  9 11  1  0
 11 12  2  0
 12 13  1  0
 13 14  2  0
 14 15  1  0
 15 16  2  0
 16 17  1  0
 17 18  2  0
 18 19  1  0
 19 20  2  0
  3 21  1  0
 21 22  2  0
 22 23  1  0
 23 24  2  0
 24 25  1  0
 25 26  2  0
 20 11  1  0
 26 21  1  0
 19 14  1  0
  1 27  1  0
  1 28  1  0
  1 29  1  0
  2 30  1  0
  2 31  1  0
  3 32  1  6
  4 33  1  0
  7 34  1  0
  7 35  1  0
  8 36  1  0
 12 37  1  0
 13 38  1  0
 15 39  1  0
 16 40  1  0
 17 41  1  0
 18 42  1  0
 22 43  1  0
 23 44  1  0
 24 45  1  0
 25 46  1  0
 26 47  1  0
M  END
>  <smiles>  (42) 
CC[C@H](NC(=O)CNC(=O)c1ccc2ccccc2n1)c1ccccc1

>  <score_type>  (42) 
oracle

>  <origin>  (42) 
autodockgpu

>  <m_score__min__energy>  (42) 
-8.6300000000000008

>  <m_primary>  (42) 
energy

>  <rmsd>  (42) 
10.29604291389621

>  <m_score__min__rmsd>  (42) 
10.29604291389621

>  <meeko>  (42) 
{"free_energy": -8.47, "intermolecular_energy": -10.26, "internal_energy": -1.37, "cluster_size": 14, "cluster_id": 3, "rank_in_cluster": 4}

>  <energy>  (42) 
-7.47

>  <cluster_rmsd>  (42) 
0.93

>  <cluster>  (42) 
5

$$$$

     RDKit          3D

 47 49  0  0  0  0  0  0  0  0999 V2000
  135.8290   74.6900  223.2600 C   0  0  0  0  0  0  0  0  0  0  0  0
  136.5340   76.0030  223.1610 C   0  0  0  0  0  0  0  0  0  0  0  0
  137.5820   76.1090  222.1170 C   0  0  2  0  0  0  0  0  0  0  0  0
  138.1400   74.7460  221.9610 N   0  0  0  0  0  0  0  0  0  0  0  0
  138.2640   74.1380  220.6860 C   0  0  0  0  0  0  0  0  0  0  0  0
  137.8670   74.8360  219.6950 O   0  0  0  0  0  0  0  0  0  0  0  0
  138.7970   72.8080  220.4190 C   0  0  0  0  0  0  0  0  0  0  0  0
  138.8390   71.9120  221.5510 N   0  0  0  0  0  0  0  0  0  0  0  0
  139.7180   72.2880  222.6260 C   0  0  0  0  0  0  0  0  0  0  0  0
  140.4030   73.3490  222.5600 O   0  0  0  0  0  0  0  0  0  0  0  0
  139.8030   71.4220  223.7950 C   0  0  0  0  0  0  0  0  0  0  0  0
  139.3500   70.1210  223.7090 C   0  0  0  0  0  0  0  0  0  0  0  0
  139.4340   69.3050  224.8200 C   0  0  0  0  0  0  0  0  0  0  0  0
  139.9730   69.8040  226.0120 C   0  0  0  0  0  0  0  0  0  0  0  0
  140.0610   69.0030  227.1230 C   0  0  0  0  0  0  0  0  0  0  0  0
  140.5900   69.4840  228.3000 C   0  0  0  0  0  0  0  0  0  0  0  0
  141.0260   70.7870  228.3340 C   0  0  0  0  0  0  0  0  0  0  0  0
  140.9550   71.6180  227.2420 C   0  0  0  0  0  0  0  0  0  0  0  0
  140.4140   71.1110  226.0540 C   0  0  0  0  0  0  0  0  0  0  0  0
  140.3230   71.8770  224.9700 N   0  0  0  0  0  0  0  0  0  0  0  0
  138.7470   76.9490  222.4290 C   0  0  0  0  0  0  0  0  0  0  0  0
  140.0570   76.6040  222.3400 C   0  0  0  0  0  0  0  0  0  0  0  0
  141.1010   77.4690  222.6660 C   0  0  0  0  0  0  0  0  0  0  0  0
  140.8380   78.7370  223.1020 C   0  0  0  0  0  0  0  0  0  0  0  0
  139.5030   79.1050  223.1980 C   0  0  0  0  0  0  0  0  0  0  0  0
  138.4710   78.2490  222.8750 C   0  0  0  0  0  0  0  0  0  0  0  0
  135.6884   74.4282  224.3191 H   0  0  0  0  0  0  0  0  0  0  0  0
  134.8484   74.7623  222.7669 H   0  0  0  0  0  0  0  0  0  0  0  0
  136.4310   73.9125  222.7669 H   0  0  0  0  0  0  0  0  0  0  0  0
  135.7776   76.7749  222.9562 H   0  0  0  0  0  0  0  0  0  0  0  0
  137.0607   76.1261  224.1188 H   0  0  0  0  0  0  0  0  0  0  0  0
  137.0848   76.5605  221.2458 H   0  0  0  0  0  0  0  0  0  0  0  0
  138.4460   74.2320  222.8110 H   0  0  0  0  0  0  0  0  0  0  0  0
  138.1718   72.3428  219.6426 H   0  0  0  0  0  0  0  0  0  0  0  0
  139.8438   72.9592  220.1169 H   0  0  0  0  0  0  0  0  0  0  0  0
  138.3070   71.0410  221.6570 H   0  0  0  0  0  0  0  0  0  0  0  0
  138.9276   69.7391  222.7678 H   0  0  0  0  0  0  0  0  0  0  0  0
  139.0783   68.2654  224.7686 H   0  0  0  0  0  0  0  0  0  0  0  0
  139.7045   67.9636  227.0727 H   0  0  0  0  0  0  0  0  0  0  0  0
  140.6617   68.8418  229.1902 H   0  0  0  0  0  0  0  0  0  0  0  0
  141.4478   71.1795  229.2710 H   0  0  0  0  0  0  0  0  0  0  0  0
  141.3143   72.6561  227.2996 H   0  0  0  0  0  0  0  0  0  0  0  0
  140.3076   75.5907  221.9931 H   0  0  0  0  0  0  0  0  0  0  0  0
  142.1427   77.1285  222.5716 H   0  0  0  0  0  0  0  0  0  0  0  0
  141.6472   79.4342  223.3649 H   0  0  0  0  0  0  0  0  0  0  0  0
  139.2585   80.1196  223.5455 H   0  0  0  0  0  0  0  0  0  0  0  0
  137.4284   78.5873  222.9676 H   0  0  0  0  0  0  0  0  0  0  0  0
  1  2  1  0
  2  3  1  0
  3  4  1  0
  4  5  1  0
  5  6  2  0
  5  7  1  0
  7  8  1  0
  8  9  1  0
  9 10  2  0
  9 11  1  0
 11 12  2  0
 12 13  1  0
 13 14  2  0
 14 15  1  0
 15 16  2  0
 16 17  1  0
 17 18  2  0
 18 19  1  0
 19 20  2  0
  3 21  1  0
 21 22  2  0
 22 23  1  0
 23 24  2  0
 24 25  1  0
 25 26  2  0
 20 11  1  0
 26 21  1  0
 19 14  1  0
  1 27  1  0
  1 28  1  0
  1 29  1  0
  2 30  1  0
  2 31  1  0
  3 32  1  6
  4 33  1  0
  7 34  1  0
  7 35  1  0
  8 36  1  0
 12 37  1  0
 13 38  1  0
 15 39  1  0
 16 40  1  0
 17 41  1  0
 18 42  1  0
 22 43  1  0
 23 44  1  0
 24 45  1  0
 25 46  1  0
 26 47  1  0
M  END
>  <smiles>  (43) 
CC[C@H](NC(=O)CNC(=O)c1ccc2ccccc2n1)c1ccccc1

>  <score_type>  (43) 
oracle

>  <origin>  (43) 
autodockgpu

>  <m_score__min__energy>  (43) 
-8.6300000000000008

>  <m_primary>  (43) 
energy

>  <rmsd>  (43) 
4.950001424931991

>  <m_score__min__rmsd>  (43) 
4.950001424931991

>  <meeko>  (43) 
{"free_energy": -7.84, "intermolecular_energy": -9.63, "internal_energy": -1.99, "cluster_size": 27, "cluster_id": 5, "rank_in_cluster": 7}

>  <energy>  (43) 
-7.46

>  <cluster_rmsd>  (43) 
0.89

>  <cluster>  (43) 
5

$$$$

     RDKit          3D

 47 49  0  0  0  0  0  0  0  0999 V2000
  135.8610   74.7900  223.1760 C   0  0  0  0  0  0  0  0  0  0  0  0
  136.5590   76.1100  223.1320 C   0  0  0  0  0  0  0  0  0  0  0  0
  137.6350   76.2510  222.1210 C   0  0  2  0  0  0  0  0  0  0  0  0
  138.2320   74.9030  221.9720 N   0  0  0  0  0  0  0  0  0  0  0  0
  138.3030   74.2600  220.7110 C   0  0  0  0  0  0  0  0  0  0  0  0
  137.8220   74.9130  219.7260 O   0  0  0  0  0  0  0  0  0  0  0  0
  138.8670   72.9420  220.4520 C   0  0  0  0  0  0  0  0  0  0  0  0
  138.8660   72.0300  221.5720 N   0  0  0  0  0  0  0  0  0  0  0  0
  139.7560   72.3540  222.6550 C   0  0  0  0  0  0  0  0  0  0  0  0
  140.4860   73.3860  222.6040 O   0  0  0  0  0  0  0  0  0  0  0  0
  139.8000   71.4700  223.8120 C   0  0  0  0  0  0  0  0  0  0  0  0
  139.2420   70.2110  223.7250 C   0  0  0  0  0  0  0  0  0  0  0  0
  139.2870   69.3770  224.8260 C   0  0  0  0  0  0  0  0  0  0  0  0
  139.8950   69.8170  226.0080 C   0  0  0  0  0  0  0  0  0  0  0  0
  139.9460   68.9990  227.1080 C   0  0  0  0  0  0  0  0  0  0  0  0
  140.5410   69.4210  228.2760 C   0  0  0  0  0  0  0  0  0  0  0  0
  141.0820   70.6840  228.3110 C   0  0  0  0  0  0  0  0  0  0  0  0
  141.0500   71.5310  227.2300 C   0  0  0  0  0  0  0  0  0  0  0  0
  140.4410   71.0830  226.0520 C   0  0  0  0  0  0  0  0  0  0  0  0
  140.3850   71.8680  224.9780 N   0  0  0  0  0  0  0  0  0  0  0  0
  138.7680   77.1170  222.4750 C   0  0  0  0  0  0  0  0  0  0  0  0
  140.0900   76.8350  222.3460 C   0  0  0  0  0  0  0  0  0  0  0  0
  141.1020   77.7210  222.7170 C   0  0  0  0  0  0  0  0  0  0  0  0
  140.7920   78.9440  223.2420 C   0  0  0  0  0  0  0  0  0  0  0  0
  139.4450   79.2460  223.3800 C   0  0  0  0  0  0  0  0  0  0  0  0
  138.4440   78.3710  223.0130 C   0  0  0  0  0  0  0  0  0  0  0  0
  135.7039   74.4930  224.2234 H   0  0  0  0  0  0  0  0  0  0  0  0
  134.8886   74.8724  222.6685 H   0  0  0  0  0  0  0  0  0  0  0  0
  136.4765   74.0327  222.6685 H   0  0  0  0  0  0  0  0  0  0  0  0
  135.8030   76.8822  222.9267 H   0  0  0  0  0  0  0  0  0  0  0  0
  137.0579   76.2106  224.1072 H   0  0  0  0  0  0  0  0  0  0  0  0
  137.1534   76.6970  221.2383 H   0  0  0  0  0  0  0  0  0  0  0  0
  138.6060   74.4270  222.8180 H   0  0  0  0  0  0  0  0  0  0  0  0
  138.2874   72.4800  219.6392 H   0  0  0  0  0  0  0  0  0  0  0  0
  139.9252   73.1117  220.2041 H   0  0  0  0  0  0  0  0  0  0  0  0
  138.2970   71.1810  221.6650 H   0  0  0  0  0  0  0  0  0  0  0  0
  138.7674   69.8754  222.7911 H   0  0  0  0  0  0  0  0  0  0  0  0
  138.8464   68.3704  224.7739 H   0  0  0  0  0  0  0  0  0  0  0  0
  139.5056   67.9923  227.0564 H   0  0  0  0  0  0  0  0  0  0  0  0
  140.5822   68.7646  229.1577 H   0  0  0  0  0  0  0  0  0  0  0  0
  141.5588   71.0297  229.2401 H   0  0  0  0  0  0  0  0  0  0  0  0
  141.4921   72.5365  227.2887 H   0  0  0  0  0  0  0  0  0  0  0  0
  140.3775   75.8590  221.9280 H   0  0  0  0  0  0  0  0  0  0  0  0
  142.1556   77.4333  222.5861 H   0  0  0  0  0  0  0  0  0  0  0  0
  141.5748   79.6565  223.5415 H   0  0  0  0  0  0  0  0  0  0  0  0
  139.1638   80.2233  223.7993 H   0  0  0  0  0  0  0  0  0  0  0  0
  137.3898   78.6572  223.1425 H   0  0  0  0  0  0  0  0  0  0  0  0
  1  2  1  0
  2  3  1  0
  3  4  1  0
  4  5  1  0
  5  6  2  0
  5  7  1  0
  7  8  1  0
  8  9  1  0
  9 10  2  0
  9 11  1  0
 11 12  2  0
 12 13  1  0
 13 14  2  0
 14 15  1  0
 15 16  2  0
 16 17  1  0
 17 18  2  0
 18 19  1  0
 19 20  2  0
  3 21  1  0
 21 22  2  0
 22 23  1  0
 23 24  2  0
 24 25  1  0
 25 26  2  0
 20 11  1  0
 26 21  1  0
 19 14  1  0
  1 27  1  0
  1 28  1  0
  1 29  1  0
  2 30  1  0
  2 31  1  0
  3 32  1  6
  4 33  1  0
  7 34  1  0
  7 35  1  0
  8 36  1  0
 12 37  1  0
 13 38  1  0
 15 39  1  0
 16 40  1  0
 17 41  1  0
 18 42  1  0
 22 43  1  0
 23 44  1  0
 24 45  1  0
 25 46  1  0
 26 47  1  0
M  END
>  <smiles>  (44) 
CC[C@H](NC(=O)CNC(=O)c1ccc2ccccc2n1)c1ccccc1

>  <score_type>  (44) 
oracle

>  <origin>  (44) 
autodockgpu

>  <m_score__min__energy>  (44) 
-8.6300000000000008

>  <m_primary>  (44) 
energy

>  <rmsd>  (44) 
4.888444478821288

>  <m_score__min__rmsd>  (44) 
4.888444478821288

>  <meeko>  (44) 
{"free_energy": -7.85, "intermolecular_energy": -9.64, "internal_energy": -1.99, "cluster_size": 27, "cluster_id": 5, "rank_in_cluster": 4}

>  <energy>  (44) 
-7.43

>  <cluster_rmsd>  (44) 
0.87

>  <cluster>  (44) 
5

$$$$

     RDKit          3D

 47 49  0  0  0  0  0  0  0  0999 V2000
  139.4800   72.3810  222.2600 C   0  0  0  0  0  0  0  0  0  0  0  0
  140.3890   71.9000  223.3440 C   0  0  0  0  0  0  0  0  0  0  0  0
  139.8790   70.7880  224.1830 C   0  0  2  0  0  0  0  0  0  0  0  0
  138.4050   70.9250  224.1880 N   0  0  0  0  0  0  0  0  0  0  0  0
  137.5560   69.7910  224.2360 C   0  0  0  0  0  0  0  0  0  0  0  0
  138.1410   68.6580  224.2720 O   0  0  0  0  0  0  0  0  0  0  0  0
  136.0980   69.8110  224.2450 C   0  0  0  0  0  0  0  0  0  0  0  0
  135.4920   70.9240  224.9370 N   0  0  0  0  0  0  0  0  0  0  0  0
  135.5720   72.2000  224.2780 C   0  0  0  0  0  0  0  0  0  0  0  0
  136.1440   72.3130  223.1560 O   0  0  0  0  0  0  0  0  0  0  0  0
  134.9780   73.3610  224.9280 C   0  0  0  0  0  0  0  0  0  0  0  0
  135.4510   74.6230  224.6280 C   0  0  0  0  0  0  0  0  0  0  0  0
  134.8840   75.7190  225.2480 C   0  0  0  0  0  0  0  0  0  0  0  0
  133.8420   75.5390  226.1660 C   0  0  0  0  0  0  0  0  0  0  0  0
  133.2710   76.6200  226.7890 C   0  0  0  0  0  0  0  0  0  0  0  0
  132.2460   76.4530  227.6940 C   0  0  0  0  0  0  0  0  0  0  0  0
  131.8120   75.1770  227.9580 C   0  0  0  0  0  0  0  0  0  0  0  0
  132.3590   74.0700  227.3540 C   0  0  0  0  0  0  0  0  0  0  0  0
  133.4000   74.2600  226.4370 C   0  0  0  0  0  0  0  0  0  0  0  0
  133.9620   73.2200  225.8270 N   0  0  0  0  0  0  0  0  0  0  0  0
  140.2550   70.8030  225.6040 C   0  0  0  0  0  0  0  0  0  0  0  0
  140.7180   71.8600  226.3190 C   0  0  0  0  0  0  0  0  0  0  0  0
  141.0590   71.7810  227.6690 C   0  0  0  0  0  0  0  0  0  0  0  0
  140.9360   70.5990  228.3450 C   0  0  0  0  0  0  0  0  0  0  0  0
  140.4640   69.5100  227.6270 C   0  0  0  0  0  0  0  0  0  0  0  0
  140.1270   69.5890  226.2920 C   0  0  0  0  0  0  0  0  0  0  0  0
  138.5919   72.8509  222.7078 H   0  0  0  0  0  0  0  0  0  0  0  0
  140.0095   73.1169  221.6371 H   0  0  0  0  0  0  0  0  0  0  0  0
  139.1694   71.5292  221.6371 H   0  0  0  0  0  0  0  0  0  0  0  0
  141.3239   71.5629  222.8726 H   0  0  0  0  0  0  0  0  0  0  0  0
  140.5078   72.7533  224.0279 H   0  0  0  0  0  0  0  0  0  0  0  0
  140.3048   69.8717  223.7482 H   0  0  0  0  0  0  0  0  0  0  0  0
  137.9920   71.8790  224.1570 H   0  0  0  0  0  0  0  0  0  0  0  0
  135.7537   69.8343  223.2005 H   0  0  0  0  0  0  0  0  0  0  0  0
  135.7889   68.9106  224.7962 H   0  0  0  0  0  0  0  0  0  0  0  0
  135.0160   70.8890  225.8460 H   0  0  0  0  0  0  0  0  0  0  0  0
  136.2691   74.7538  223.9044 H   0  0  0  0  0  0  0  0  0  0  0  0
  135.2501   76.7312  225.0212 H   0  0  0  0  0  0  0  0  0  0  0  0
  133.6363   77.6326  226.5629 H   0  0  0  0  0  0  0  0  0  0  0  0
  131.7869   77.3194  228.1925 H   0  0  0  0  0  0  0  0  0  0  0  0
  130.9950   75.0354  228.6808 H   0  0  0  0  0  0  0  0  0  0  0  0
  131.9883   73.0605  227.5852 H   0  0  0  0  0  0  0  0  0  0  0  0
  140.8298   72.8276  225.8078 H   0  0  0  0  0  0  0  0  0  0  0  0
  141.4290   72.6747  228.1928 H   0  0  0  0  0  0  0  0  0  0  0  0
  141.1993   70.5154  229.4097 H   0  0  0  0  0  0  0  0  0  0  0  0
  140.3541   68.5448  228.1431 H   0  0  0  0  0  0  0  0  0  0  0  0
  139.7568   68.6967  225.7659 H   0  0  0  0  0  0  0  0  0  0  0  0
  1  2  1  0
  2  3  1  0
  3  4  1  0
  4  5  1  0
  5  6  2  0
  5  7  1  0
  7  8  1  0
  8  9  1  0
  9 10  2  0
  9 11  1  0
 11 12  2  0
 12 13  1  0
 13 14  2  0
 14 15  1  0
 15 16  2  0
 16 17  1  0
 17 18  2  0
 18 19  1  0
 19 20  2  0
  3 21  1  0
 21 22  2  0
 22 23  1  0
 23 24  2  0
 24 25  1  0
 25 26  2  0
 20 11  1  0
 26 21  1  0
 19 14  1  0
  1 27  1  0
  1 28  1  0
  1 29  1  0
  2 30  1  0
  2 31  1  0
  3 32  1  6
  4 33  1  0
  7 34  1  0
  7 35  1  0
  8 36  1  0
 12 37  1  0
 13 38  1  0
 15 39  1  0
 16 40  1  0
 17 41  1  0
 18 42  1  0
 22 43  1  0
 23 44  1  0
 24 45  1  0
 25 46  1  0
 26 47  1  0
M  END
>  <smiles>  (45) 
CC[C@H](NC(=O)CNC(=O)c1ccc2ccccc2n1)c1ccccc1

>  <score_type>  (45) 
oracle

>  <origin>  (45) 
autodockgpu

>  <m_score__min__energy>  (45) 
-8.6300000000000008

>  <m_primary>  (45) 
energy

>  <rmsd>  (45) 
9.965850206395709

>  <m_score__min__rmsd>  (45) 
9.965850206395709

>  <meeko>  (45) 
{"free_energy": -7.47, "intermolecular_energy": -9.26, "internal_energy": -2.21, "cluster_size": 14, "cluster_id": 3, "rank_in_cluster": 10}

>  <energy>  (45) 
-7.43

>  <cluster_rmsd>  (45) 
0.9

>  <cluster>  (45) 
5

$$$$

     RDKit          3D

 47 49  0  0  0  0  0  0  0  0999 V2000
  135.2920   76.7540  222.9850 C   0  0  0  0  0  0  0  0  0  0  0  0
  136.5440   75.9650  223.1920 C   0  0  0  0  0  0  0  0  0  0  0  0
  137.5720   76.0730  222.1280 C   0  0  2  0  0  0  0  0  0  0  0  0
  138.1350   74.7130  221.9670 N   0  0  0  0  0  0  0  0  0  0  0  0
  138.3170   74.1350  220.6860 C   0  0  0  0  0  0  0  0  0  0  0  0
  137.9660   74.8560  219.6940 O   0  0  0  0  0  0  0  0  0  0  0  0
  138.8610   72.8100  220.4130 C   0  0  0  0  0  0  0  0  0  0  0  0
  138.9110   71.9100  221.5410 N   0  0  0  0  0  0  0  0  0  0  0  0
  139.7590   72.3060  222.6330 C   0  0  0  0  0  0  0  0  0  0  0  0
  140.4120   73.3880  222.5840 O   0  0  0  0  0  0  0  0  0  0  0  0
  139.8500   71.4370  223.7990 C   0  0  0  0  0  0  0  0  0  0  0  0
  139.3870   70.1390  223.7150 C   0  0  0  0  0  0  0  0  0  0  0  0
  139.4770   69.3200  224.8240 C   0  0  0  0  0  0  0  0  0  0  0  0
  140.0320   69.8130  226.0110 C   0  0  0  0  0  0  0  0  0  0  0  0
  140.1260   69.0090  227.1190 C   0  0  0  0  0  0  0  0  0  0  0  0
  140.6690   69.4840  228.2920 C   0  0  0  0  0  0  0  0  0  0  0  0
  141.1150   70.7830  228.3240 C   0  0  0  0  0  0  0  0  0  0  0  0
  141.0380   71.6170  227.2350 C   0  0  0  0  0  0  0  0  0  0  0  0
  140.4820   71.1160  226.0520 C   0  0  0  0  0  0  0  0  0  0  0  0
  140.3850   71.8860  224.9700 N   0  0  0  0  0  0  0  0  0  0  0  0
  138.7360   76.9220  222.4160 C   0  0  0  0  0  0  0  0  0  0  0  0
  140.0460   76.5760  222.3300 C   0  0  0  0  0  0  0  0  0  0  0  0
  141.0910   77.4490  222.6320 C   0  0  0  0  0  0  0  0  0  0  0  0
  140.8280   78.7270  223.0390 C   0  0  0  0  0  0  0  0  0  0  0  0
  139.4930   79.0960  223.1320 C   0  0  0  0  0  0  0  0  0  0  0  0
  138.4610   78.2320  222.8330 C   0  0  0  0  0  0  0  0  0  0  0  0
  134.8633   77.0242  223.9613 H   0  0  0  0  0  0  0  0  0  0  0  0
  135.5244   77.6692  222.4207 H   0  0  0  0  0  0  0  0  0  0  0  0
  134.5667   76.1495  222.4207 H   0  0  0  0  0  0  0  0  0  0  0  0
  137.0004   76.3017  224.1345 H   0  0  0  0  0  0  0  0  0  0  0  0
  136.2301   74.9107  223.1908 H   0  0  0  0  0  0  0  0  0  0  0  0
  137.0568   76.5172  221.2636 H   0  0  0  0  0  0  0  0  0  0  0  0
  138.4020   74.1790  222.8180 H   0  0  0  0  0  0  0  0  0  0  0  0
  138.2392   72.3429  219.6350 H   0  0  0  0  0  0  0  0  0  0  0  0
  139.9063   72.9710  220.1108 H   0  0  0  0  0  0  0  0  0  0  0  0
  138.4030   71.0220  221.6340 H   0  0  0  0  0  0  0  0  0  0  0  0
  138.9522   69.7620  222.7776 H   0  0  0  0  0  0  0  0  0  0  0  0
  139.1135   68.2830  224.7745 H   0  0  0  0  0  0  0  0  0  0  0  0
  139.7630   67.9718  227.0696 H   0  0  0  0  0  0  0  0  0  0  0  0
  140.7437   68.8399  229.1805 H   0  0  0  0  0  0  0  0  0  0  0  0
  141.5504   71.1701  229.2571 H   0  0  0  0  0  0  0  0  0  0  0  0
  141.4041   72.6527  227.2912 H   0  0  0  0  0  0  0  0  0  0  0  0
  140.2960   75.5551  222.0056 H   0  0  0  0  0  0  0  0  0  0  0  0
  142.1326   77.1071  222.5421 H   0  0  0  0  0  0  0  0  0  0  0  0
  141.6374   79.4312  223.2818 H   0  0  0  0  0  0  0  0  0  0  0  0
  139.2488   80.1181  223.4571 H   0  0  0  0  0  0  0  0  0  0  0  0
  137.4185   78.5716  222.9219 H   0  0  0  0  0  0  0  0  0  0  0  0
  1  2  1  0
  2  3  1  0
  3  4  1  0
  4  5  1  0
  5  6  2  0
  5  7  1  0
  7  8  1  0
  8  9  1  0
  9 10  2  0
  9 11  1  0
 11 12  2  0
 12 13  1  0
 13 14  2  0
 14 15  1  0
 15 16  2  0
 16 17  1  0
 17 18  2  0
 18 19  1  0
 19 20  2  0
  3 21  1  0
 21 22  2  0
 22 23  1  0
 23 24  2  0
 24 25  1  0
 25 26  2  0
 20 11  1  0
 26 21  1  0
 19 14  1  0
  1 27  1  0
  1 28  1  0
  1 29  1  0
  2 30  1  0
  2 31  1  0
  3 32  1  6
  4 33  1  0
  7 34  1  0
  7 35  1  0
  8 36  1  0
 12 37  1  0
 13 38  1  0
 15 39  1  0
 16 40  1  0
 17 41  1  0
 18 42  1  0
 22 43  1  0
 23 44  1  0
 24 45  1  0
 25 46  1  0
 26 47  1  0
M  END
>  <smiles>  (46) 
CC[C@H](NC(=O)CNC(=O)c1ccc2ccccc2n1)c1ccccc1

>  <score_type>  (46) 
oracle

>  <origin>  (46) 
autodockgpu

>  <m_score__min__energy>  (46) 
-8.6300000000000008

>  <m_primary>  (46) 
energy

>  <rmsd>  (46) 
4.971484192222561

>  <m_score__min__rmsd>  (46) 
4.971484192222561

>  <meeko>  (46) 
{"free_energy": -7.79, "intermolecular_energy": -9.58, "internal_energy": -1.88, "cluster_size": 27, "cluster_id": 5, "rank_in_cluster": 10}

>  <energy>  (46) 
-7.43

>  <cluster_rmsd>  (46) 
0.93

>  <cluster>  (46) 
5

$$$$

     RDKit          3D

 47 49  0  0  0  0  0  0  0  0999 V2000
  141.6970   79.9140  223.4740 C   0  0  0  0  0  0  0  0  0  0  0  0
  141.6160   78.4520  223.1810 C   0  0  0  0  0  0  0  0  0  0  0  0
  140.9080   78.0700  221.9350 C   0  0  2  0  0  0  0  0  0  0  0  0
  141.0480   76.6000  221.8220 N   0  0  0  0  0  0  0  0  0  0  0  0
  140.0060   75.7950  221.2970 C   0  0  0  0  0  0  0  0  0  0  0  0
  138.9520   76.4150  220.9340 O   0  0  0  0  0  0  0  0  0  0  0  0
  140.0380   74.3460  221.1410 C   0  0  0  0  0  0  0  0  0  0  0  0
  139.7990   73.5820  222.3420 N   0  0  0  0  0  0  0  0  0  0  0  0
  140.4530   72.3030  222.4230 C   0  0  0  0  0  0  0  0  0  0  0  0
  141.1920   71.8960  221.4810 O   0  0  0  0  0  0  0  0  0  0  0  0
  140.2490   71.4870  223.6110 C   0  0  0  0  0  0  0  0  0  0  0  0
  139.6040   70.2710  223.4970 C   0  0  0  0  0  0  0  0  0  0  0  0
  139.4140   69.5010  224.6280 C   0  0  0  0  0  0  0  0  0  0  0  0
  139.8740   69.9600  225.8680 C   0  0  0  0  0  0  0  0  0  0  0  0
  139.6910   69.2050  226.9990 C   0  0  0  0  0  0  0  0  0  0  0  0
  140.1400   69.6460  228.2240 C   0  0  0  0  0  0  0  0  0  0  0  0
  140.7760   70.8630  228.2840 C   0  0  0  0  0  0  0  0  0  0  0  0
  140.9780   71.6470  227.1740 C   0  0  0  0  0  0  0  0  0  0  0  0
  140.5140   71.1810  225.9380 C   0  0  0  0  0  0  0  0  0  0  0  0
  140.6860   71.9040  224.8340 N   0  0  0  0  0  0  0  0  0  0  0  0
  141.4560   78.5900  220.6750 C   0  0  0  0  0  0  0  0  0  0  0  0
  141.4510   79.8780  220.2460 C   0  0  0  0  0  0  0  0  0  0  0  0
  141.9910   80.2820  219.0250 C   0  0  0  0  0  0  0  0  0  0  0  0
  142.5640   79.3670  218.1870 C   0  0  0  0  0  0  0  0  0  0  0  0
  142.5770   78.0460  218.6110 C   0  0  0  0  0  0  0  0  0  0  0  0
  142.0430   77.6480  219.8180 C   0  0  0  0  0  0  0  0  0  0  0  0
  141.7056   80.0698  224.5629 H   0  0  0  0  0  0  0  0  0  0  0  0
  142.6193   80.3249  223.0375 H   0  0  0  0  0  0  0  0  0  0  0  0
  140.8258   80.4243  223.0375 H   0  0  0  0  0  0  0  0  0  0  0  0
  142.6439   78.0661  223.1142 H   0  0  0  0  0  0  0  0  0  0  0  0
  141.0215   78.0211  224.0001 H   0  0  0  0  0  0  0  0  0  0  0  0
  139.8921   78.4797  222.0359 H   0  0  0  0  0  0  0  0  0  0  0  0
  141.9350   76.1580  222.1360 H   0  0  0  0  0  0  0  0  0  0  0  0
  139.2691   74.0682  220.4051 H   0  0  0  0  0  0  0  0  0  0  0  0
  141.0637   74.1006  220.8285 H   0  0  0  0  0  0  0  0  0  0  0  0
  139.2110   73.8630  223.1360 H   0  0  0  0  0  0  0  0  0  0  0  0
  139.2461   69.9201  222.5178 H   0  0  0  0  0  0  0  0  0  0  0  0
  138.9027   68.5298  224.5545 H   0  0  0  0  0  0  0  0  0  0  0  0
  139.1787   68.2343  226.9263 H   0  0  0  0  0  0  0  0  0  0  0  0
  139.9935   69.0403  229.1304 H   0  0  0  0  0  0  0  0  0  0  0  0
  141.1373   71.2232  229.2585 H   0  0  0  0  0  0  0  0  0  0  0  0
  141.4914   72.6165  227.2544 H   0  0  0  0  0  0  0  0  0  0  0  0
  140.9979   80.6422  220.8946 H   0  0  0  0  0  0  0  0  0  0  0  0
  141.9555   81.3425  218.7351 H   0  0  0  0  0  0  0  0  0  0  0  0
  142.9955   79.6645  217.2199 H   0  0  0  0  0  0  0  0  0  0  0  0
  143.0314   77.2862  217.9582 H   0  0  0  0  0  0  0  0  0  0  0  0
  142.0775   76.5880  220.1098 H   0  0  0  0  0  0  0  0  0  0  0  0
  1  2  1  0
  2  3  1  0
  3  4  1  0
  4  5  1  0
  5  6  2  0
  5  7  1  0
  7  8  1  0
  8  9  1  0
  9 10  2  0
  9 11  1  0
 11 12  2  0
 12 13  1  0
 13 14  2  0
 14 15  1  0
 15 16  2  0
 16 17  1  0
 17 18  2  0
 18 19  1  0
 19 20  2  0
  3 21  1  0
 21 22  2  0
 22 23  1  0
 23 24  2  0
 24 25  1  0
 25 26  2  0
 20 11  1  0
 26 21  1  0
 19 14  1  0
  1 27  1  0
  1 28  1  0
  1 29  1  0
  2 30  1  0
  2 31  1  0
  3 32  1  1
  4 33  1  0
  7 34  1  0
  7 35  1  0
  8 36  1  0
 12 37  1  0
 13 38  1  0
 15 39  1  0
 16 40  1  0
 17 41  1  0
 18 42  1  0
 22 43  1  0
 23 44  1  0
 24 45  1  0
 25 46  1  0
 26 47  1  0
M  END
>  <smiles>  (47) 
CC[C@H](NC(=O)CNC(=O)c1ccc2ccccc2n1)c1ccccc1

>  <score_type>  (47) 
oracle

>  <origin>  (47) 
autodockgpu

>  <m_score__min__energy>  (47) 
-8.6300000000000008

>  <m_primary>  (47) 
energy

>  <rmsd>  (47) 
3.9301683293792333

>  <m_score__min__rmsd>  (47) 
3.9301683293792333

>  <meeko>  (47) 
{"free_energy": -8.63, "intermolecular_energy": -10.42, "internal_energy": -1.02, "cluster_size": 2, "cluster_id": 1, "rank_in_cluster": 1}

>  <energy>  (47) 
-7.4

>  <cluster_rmsd>  (47) 
0.94

>  <cluster>  (47) 
5

$$$$

     RDKit          3D

 47 49  0  0  0  0  0  0  0  0999 V2000
  139.1590   72.0370  222.3060 C   0  0  0  0  0  0  0  0  0  0  0  0
  140.0980   71.7650  223.4350 C   0  0  0  0  0  0  0  0  0  0  0  0
  139.7090   70.6760  224.3650 C   0  0  2  0  0  0  0  0  0  0  0  0
  138.2370   70.7630  224.5000 N   0  0  0  0  0  0  0  0  0  0  0  0
  137.4280   69.6000  224.5540 C   0  0  0  0  0  0  0  0  0  0  0  0
  138.0470   68.4880  224.4760 O   0  0  0  0  0  0  0  0  0  0  0  0
  135.9770   69.5710  224.6860 C   0  0  0  0  0  0  0  0  0  0  0  0
  135.3570   70.8210  225.0580 N   0  0  0  0  0  0  0  0  0  0  0  0
  134.2940   70.7400  226.0250 C   0  0  0  0  0  0  0  0  0  0  0  0
  133.9430   69.6250  226.5060 O   0  0  0  0  0  0  0  0  0  0  0  0
  133.6310   71.9690  226.4390 C   0  0  0  0  0  0  0  0  0  0  0  0
  132.4650   71.8960  227.1740 C   0  0  0  0  0  0  0  0  0  0  0  0
  131.8410   73.0650  227.5640 C   0  0  0  0  0  0  0  0  0  0  0  0
  132.3950   74.3010  227.2120 C   0  0  0  0  0  0  0  0  0  0  0  0
  131.7840   75.4700  227.5930 C   0  0  0  0  0  0  0  0  0  0  0  0
  132.3200   76.6910  227.2510 C   0  0  0  0  0  0  0  0  0  0  0  0
  133.4820   76.7100  226.5170 C   0  0  0  0  0  0  0  0  0  0  0  0
  134.1220   75.5610  226.1180 C   0  0  0  0  0  0  0  0  0  0  0  0
  133.5610   74.3290  226.4750 C   0  0  0  0  0  0  0  0  0  0  0  0
  134.1440   73.1900  226.1120 N   0  0  0  0  0  0  0  0  0  0  0  0
  140.2120   70.7690  225.7420 C   0  0  0  0  0  0  0  0  0  0  0  0
  140.0320   69.8720  226.7450 C   0  0  0  0  0  0  0  0  0  0  0  0
  140.5420   70.0470  228.0310 C   0  0  0  0  0  0  0  0  0  0  0  0
  141.2650   71.1650  228.3410 C   0  0  0  0  0  0  0  0  0  0  0  0
  141.4570   72.0920  227.3270 C   0  0  0  0  0  0  0  0  0  0  0  0
  140.9520   71.9180  226.0550 C   0  0  0  0  0  0  0  0  0  0  0  0
  138.1754   72.3219  222.7077 H   0  0  0  0  0  0  0  0  0  0  0  0
  139.5549   72.8574  221.6894 H   0  0  0  0  0  0  0  0  0  0  0  0
  139.0551   71.1320  221.6894 H   0  0  0  0  0  0  0  0  0  0  0  0
  141.0752   71.5037  223.0028 H   0  0  0  0  0  0  0  0  0  0  0  0
  140.1010   72.6824  224.0420 H   0  0  0  0  0  0  0  0  0  0  0  0
  140.1280   69.7554  223.9327 H   0  0  0  0  0  0  0  0  0  0  0  0
  137.7960   71.7030  224.5590 H   0  0  0  0  0  0  0  0  0  0  0  0
  135.5558   69.2595  223.7188 H   0  0  0  0  0  0  0  0  0  0  0  0
  135.7648   68.8741  225.5102 H   0  0  0  0  0  0  0  0  0  0  0  0
  135.6010   71.7520  224.7000 H   0  0  0  0  0  0  0  0  0  0  0  0
  132.0381   70.9193  227.4457 H   0  0  0  0  0  0  0  0  0  0  0  0
  130.9109   73.0245  228.1498 H   0  0  0  0  0  0  0  0  0  0  0  0
  130.8540   75.4304  228.1792 H   0  0  0  0  0  0  0  0  0  0  0  0
  131.8309   77.6275  227.5573 H   0  0  0  0  0  0  0  0  0  0  0  0
  133.9161   77.6816  226.2384 H   0  0  0  0  0  0  0  0  0  0  0  0
  135.0521   75.6082  225.5326 H   0  0  0  0  0  0  0  0  0  0  0  0
  139.4542   68.9604  226.5324 H   0  0  0  0  0  0  0  0  0  0  0  0
  140.3616   69.2814  228.8000 H   0  0  0  0  0  0  0  0  0  0  0  0
  141.6760   71.3225  229.3491 H   0  0  0  0  0  0  0  0  0  0  0  0
  142.0349   73.0020  227.5459 H   0  0  0  0  0  0  0  0  0  0  0  0
  141.1303   72.6826  225.2845 H   0  0  0  0  0  0  0  0  0  0  0  0
  1  2  1  0
  2  3  1  0
  3  4  1  0
  4  5  1  0
  5  6  2  0
  5  7  1  0
  7  8  1  0
  8  9  1  0
  9 10  2  0
  9 11  1  0
 11 12  2  0
 12 13  1  0
 13 14  2  0
 14 15  1  0
 15 16  2  0
 16 17  1  0
 17 18  2  0
 18 19  1  0
 19 20  2  0
  3 21  1  0
 21 22  2  0
 22 23  1  0
 23 24  2  0
 24 25  1  0
 25 26  2  0
 20 11  1  0
 26 21  1  0
 19 14  1  0
  1 27  1  0
  1 28  1  0
  1 29  1  0
  2 30  1  0
  2 31  1  0
  3 32  1  6
  4 33  1  0
  7 34  1  0
  7 35  1  0
  8 36  1  0
 12 37  1  0
 13 38  1  0
 15 39  1  0
 16 40  1  0
 17 41  1  0
 18 42  1  0
 22 43  1  0
 23 44  1  0
 24 45  1  0
 25 46  1  0
 26 47  1  0
M  END
>  <smiles>  (48) 
CC[C@H](NC(=O)CNC(=O)c1ccc2ccccc2n1)c1ccccc1

>  <score_type>  (48) 
oracle

>  <origin>  (48) 
autodockgpu

>  <m_score__min__energy>  (48) 
-8.6300000000000008

>  <m_primary>  (48) 
energy

>  <rmsd>  (48) 
10.116468181090044

>  <m_score__min__rmsd>  (48) 
10.116468181090044

>  <meeko>  (48) 
{"free_energy": -8.51, "intermolecular_energy": -10.3, "internal_energy": -1.43, "cluster_size": 14, "cluster_id": 3, "rank_in_cluster": 2}

>  <energy>  (48) 
-7.39

>  <cluster_rmsd>  (48) 
0.94

>  <cluster>  (48) 
5

$$$$

     RDKit          3D

 47 49  0  0  0  0  0  0  0  0999 V2000
  135.3070   76.7800  223.3350 C   0  0  0  0  0  0  0  0  0  0  0  0
  136.5070   75.8970  223.4420 C   0  0  0  0  0  0  0  0  0  0  0  0
  137.5000   76.0010  222.3450 C   0  0  2  0  0  0  0  0  0  0  0  0
  138.0930   74.6520  222.2040 N   0  0  0  0  0  0  0  0  0  0  0  0
  137.6230   73.7330  221.2330 C   0  0  0  0  0  0  0  0  0  0  0  0
  136.6650   74.1430  220.4970 O   0  0  0  0  0  0  0  0  0  0  0  0
  138.1330   72.3860  221.0090 C   0  0  0  0  0  0  0  0  0  0  0  0
  138.4290   71.6240  222.1980 N   0  0  0  0  0  0  0  0  0  0  0  0
  139.5870   72.0350  222.9450 C   0  0  0  0  0  0  0  0  0  0  0  0
  140.2890   73.0150  222.5610 O   0  0  0  0  0  0  0  0  0  0  0  0
  139.9360   71.3030  224.1550 C   0  0  0  0  0  0  0  0  0  0  0  0
  140.7710   71.8880  225.0860 C   0  0  0  0  0  0  0  0  0  0  0  0
  141.0980   71.1880  226.2310 C   0  0  0  0  0  0  0  0  0  0  0  0
  140.5810   69.9030  226.4330 C   0  0  0  0  0  0  0  0  0  0  0  0
  140.8980   69.1970  227.5660 C   0  0  0  0  0  0  0  0  0  0  0  0
  140.3950   67.9320  227.7750 C   0  0  0  0  0  0  0  0  0  0  0  0
  139.5690   67.3940  226.8180 C   0  0  0  0  0  0  0  0  0  0  0  0
  139.2280   68.0700  225.6710 C   0  0  0  0  0  0  0  0  0  0  0  0
  139.7500   69.3550  225.4770 C   0  0  0  0  0  0  0  0  0  0  0  0
  139.4490   70.0490  224.3830 N   0  0  0  0  0  0  0  0  0  0  0  0
  138.6490   76.8870  222.5730 C   0  0  0  0  0  0  0  0  0  0  0  0
  138.6200   78.1810  222.9830 C   0  0  0  0  0  0  0  0  0  0  0  0
  139.7680   78.9530  223.1670 C   0  0  0  0  0  0  0  0  0  0  0  0
  141.0040   78.4190  222.9330 C   0  0  0  0  0  0  0  0  0  0  0  0
  141.0500   77.0980  222.5140 C   0  0  0  0  0  0  0  0  0  0  0  0
  139.9150   76.3350  222.3320 C   0  0  0  0  0  0  0  0  0  0  0  0
  134.9526   77.0408  224.3432 H   0  0  0  0  0  0  0  0  0  0  0  0
  135.5747   77.6981  222.7915 H   0  0  0  0  0  0  0  0  0  0  0  0
  134.5100   76.2513  222.7915 H   0  0  0  0  0  0  0  0  0  0  0  0
  137.0207   76.1424  224.3833 H   0  0  0  0  0  0  0  0  0  0  0  0
  136.1198   74.8687  223.3903 H   0  0  0  0  0  0  0  0  0  0  0  0
  136.9477   76.4077  221.4850 H   0  0  0  0  0  0  0  0  0  0  0  0
  138.8740   74.3820  222.8360 H   0  0  0  0  0  0  0  0  0  0  0  0
  137.3796   71.8311  220.4306 H   0  0  0  0  0  0  0  0  0  0  0  0
  139.0927   72.5115  220.4862 H   0  0  0  0  0  0  0  0  0  0  0  0
  137.8950   70.8220  222.5560 H   0  0  0  0  0  0  0  0  0  0  0  0
  141.1708   72.8989  224.9180 H   0  0  0  0  0  0  0  0  0  0  0  0
  141.7630   71.6392  226.9821 H   0  0  0  0  0  0  0  0  0  0  0  0
  141.5629   69.6475  228.3176 H   0  0  0  0  0  0  0  0  0  0  0  0
  140.6480   67.3672  228.6844 H   0  0  0  0  0  0  0  0  0  0  0  0
  139.1650   66.3831  226.9759 H   0  0  0  0  0  0  0  0  0  0  0  0
  138.5619   67.6133  224.9242 H   0  0  0  0  0  0  0  0  0  0  0  0
  137.6420   78.6444  223.1802 H   0  0  0  0  0  0  0  0  0  0  0  0
  139.6775   79.9968  223.5022 H   0  0  0  0  0  0  0  0  0  0  0  0
  141.9211   79.0105  223.0708 H   0  0  0  0  0  0  0  0  0  0  0  0
  142.0309   76.6400  222.3189 H   0  0  0  0  0  0  0  0  0  0  0  0
  140.0036   75.2910  221.9970 H   0  0  0  0  0  0  0  0  0  0  0  0
  1  2  1  0
  2  3  1  0
  3  4  1  0
  4  5  1  0
  5  6  2  0
  5  7  1  0
  7  8  1  0
  8  9  1  0
  9 10  2  0
  9 11  1  0
 11 12  2  0
 12 13  1  0
 13 14  2  0
 14 15  1  0
 15 16  2  0
 16 17  1  0
 17 18  2  0
 18 19  1  0
 19 20  2  0
  3 21  1  0
 21 22  2  0
 22 23  1  0
 23 24  2  0
 24 25  1  0
 25 26  2  0
 20 11  1  0
 26 21  1  0
 19 14  1  0
  1 27  1  0
  1 28  1  0
  1 29  1  0
  2 30  1  0
  2 31  1  0
  3 32  1  6
  4 33  1  0
  7 34  1  0
  7 35  1  0
  8 36  1  0
 12 37  1  0
 13 38  1  0
 15 39  1  0
 16 40  1  0
 17 41  1  0
 18 42  1  0
 22 43  1  0
 23 44  1  0
 24 45  1  0
 25 46  1  0
 26 47  1  0
M  END
>  <smiles>  (49) 
CC[C@H](NC(=O)CNC(=O)c1ccc2ccccc2n1)c1ccccc1

>  <score_type>  (49) 
oracle

>  <origin>  (49) 
autodockgpu

>  <m_score__min__energy>  (49) 
-8.6300000000000008

>  <m_primary>  (49) 
energy

>  <rmsd>  (49) 
4.707735028753015

>  <m_score__min__rmsd>  (49) 
4.707735028753015

>  <meeko>  (49) 
{"free_energy": -7.5, "intermolecular_energy": -9.29, "internal_energy": -2.21, "cluster_size": 27, "cluster_id": 5, "rank_in_cluster": 17}

>  <energy>  (49) 
-7.67

>  <cluster_rmsd>  (49) 
0.0

>  <cluster>  (49) 
6

$$$$

     RDKit          3D

 47 49  0  0  0  0  0  0  0  0999 V2000
  135.7900   74.6700  223.7760 C   0  0  0  0  0  0  0  0  0  0  0  0
  136.4350   75.9830  223.4750 C   0  0  0  0  0  0  0  0  0  0  0  0
  137.3990   75.9980  222.3470 C   0  0  2  0  0  0  0  0  0  0  0  0
  137.8750   74.6040  222.2010 N   0  0  0  0  0  0  0  0  0  0  0  0
  137.2750   73.7090  221.2790 C   0  0  0  0  0  0  0  0  0  0  0  0
  136.3080   74.1820  220.5950 O   0  0  0  0  0  0  0  0  0  0  0  0
  137.6630   72.3220  221.0550 C   0  0  0  0  0  0  0  0  0  0  0  0
  138.0730   71.5890  222.2290 N   0  0  0  0  0  0  0  0  0  0  0  0
  139.3120   72.0000  222.8340 C   0  0  0  0  0  0  0  0  0  0  0  0
  139.9830   72.9540  222.3460 O   0  0  0  0  0  0  0  0  0  0  0  0
  139.7770   71.2960  224.0210 C   0  0  0  0  0  0  0  0  0  0  0  0
  140.7090   71.8970  224.8440 C   0  0  0  0  0  0  0  0  0  0  0  0
  141.1450   71.2240  225.9690 C   0  0  0  0  0  0  0  0  0  0  0  0
  140.6410   69.9510  226.2600 C   0  0  0  0  0  0  0  0  0  0  0  0
  141.0670   69.2730  227.3740 C   0  0  0  0  0  0  0  0  0  0  0  0
  140.5770   68.0200  227.6690 C   0  0  0  0  0  0  0  0  0  0  0  0
  139.6510   67.4660  226.8170 C   0  0  0  0  0  0  0  0  0  0  0  0
  139.2000   68.1150  225.6930 C   0  0  0  0  0  0  0  0  0  0  0  0
  139.7100   69.3880  225.4110 C   0  0  0  0  0  0  0  0  0  0  0  0
  139.3050   70.0550  224.3330 N   0  0  0  0  0  0  0  0  0  0  0  0
  138.6240   76.7880  222.5340 C   0  0  0  0  0  0  0  0  0  0  0  0
  139.9040   76.3780  222.3350 C   0  0  0  0  0  0  0  0  0  0  0  0
  141.0120   77.1980  222.5460 C   0  0  0  0  0  0  0  0  0  0  0  0
  140.8480   78.4860  222.9740 C   0  0  0  0  0  0  0  0  0  0  0  0
  139.5460   78.9190  223.1810 C   0  0  0  0  0  0  0  0  0  0  0  0
  138.4500   78.1080  222.9730 C   0  0  0  0  0  0  0  0  0  0  0  0
  135.7238   74.5352  224.8657 H   0  0  0  0  0  0  0  0  0  0  0  0
  134.7794   74.6499  223.3420 H   0  0  0  0  0  0  0  0  0  0  0  0
  136.3917   73.8578  223.3420 H   0  0  0  0  0  0  0  0  0  0  0  0
  135.6367   76.7034  223.2434 H   0  0  0  0  0  0  0  0  0  0  0  0
  137.0254   76.2319  224.3691 H   0  0  0  0  0  0  0  0  0  0  0  0
  136.8562   76.4429  221.5000 H   0  0  0  0  0  0  0  0  0  0  0  0
  138.6700   74.2830  222.7900 H   0  0  0  0  0  0  0  0  0  0  0  0
  136.8031   71.7978  220.6126 H   0  0  0  0  0  0  0  0  0  0  0  0
  138.5470   72.3599  220.4014 H   0  0  0  0  0  0  0  0  0  0  0  0
  137.5680   70.8090  222.6660 H   0  0  0  0  0  0  0  0  0  0  0  0
  141.0989   72.8979  224.6070 H   0  0  0  0  0  0  0  0  0  0  0  0
  141.8873   71.6880  226.6352 H   0  0  0  0  0  0  0  0  0  0  0  0
  141.8096   69.7361  228.0403 H   0  0  0  0  0  0  0  0  0  0  0  0
  140.9176   67.4768  228.5628 H   0  0  0  0  0  0  0  0  0  0  0  0
  139.2560   66.4647  227.0439 H   0  0  0  0  0  0  0  0  0  0  0  0
  138.4568   67.6461  225.0313 H   0  0  0  0  0  0  0  0  0  0  0  0
  140.0748   75.3475  221.9902 H   0  0  0  0  0  0  0  0  0  0  0  0
  142.0241   76.8061  222.3670 H   0  0  0  0  0  0  0  0  0  0  0  0
  141.7088   79.1488  223.1464 H   0  0  0  0  0  0  0  0  0  0  0  0
  139.3814   79.9508  223.5249 H   0  0  0  0  0  0  0  0  0  0  0  0
  137.4371   78.4978  223.1520 H   0  0  0  0  0  0  0  0  0  0  0  0
  1  2  1  0
  2  3  1  0
  3  4  1  0
  4  5  1  0
  5  6  2  0
  5  7  1  0
  7  8  1  0
  8  9  1  0
  9 10  2  0
  9 11  1  0
 11 12  2  0
 12 13  1  0
 13 14  2  0
 14 15  1  0
 15 16  2  0
 16 17  1  0
 17 18  2  0
 18 19  1  0
 19 20  2  0
  3 21  1  0
 21 22  2  0
 22 23  1  0
 23 24  2  0
 24 25  1  0
 25 26  2  0
 20 11  1  0
 26 21  1  0
 19 14  1  0
  1 27  1  0
  1 28  1  0
  1 29  1  0
  2 30  1  0
  2 31  1  0
  3 32  1  6
  4 33  1  0
  7 34  1  0
  7 35  1  0
  8 36  1  0
 12 37  1  0
 13 38  1  0
 15 39  1  0
 16 40  1  0
 17 41  1  0
 18 42  1  0
 22 43  1  0
 23 44  1  0
 24 45  1  0
 25 46  1  0
 26 47  1  0
M  END
>  <smiles>  (50) 
CC[C@H](NC(=O)CNC(=O)c1ccc2ccccc2n1)c1ccccc1

>  <score_type>  (50) 
oracle

>  <origin>  (50) 
autodockgpu

>  <m_score__min__energy>  (50) 
-8.6300000000000008

>  <m_primary>  (50) 
energy

>  <rmsd>  (50) 
4.821891418677287

>  <m_score__min__rmsd>  (50) 
4.821891418677287

>  <meeko>  (50) 
{"free_energy": -7.39, "intermolecular_energy": -9.18, "internal_energy": -2.17, "cluster_size": 27, "cluster_id": 5, "rank_in_cluster": 27}

>  <energy>  (50) 
-7.31

>  <cluster_rmsd>  (50) 
0.77

>  <cluster>  (50) 
6

$$$$
