
     RDKit          3D

 49 52  0  0  0  0  0  0  0  0999 V2000
  140.6150   71.3150  221.6760 O   0  0  0  0  0  0  0  0  0  0  0  0
  139.8340   71.5070  222.6410 C   0  0  0  0  0  0  0  0  0  0  0  0
  138.9570   72.6490  222.4970 N   0  0  0  0  0  0  0  0  0  0  0  0
  139.0130   73.4660  221.3310 C   0  0  0  0  0  0  0  0  0  0  0  0
  139.9630   74.5750  221.2830 C   0  0  0  0  0  0  0  0  0  0  0  0
  139.9480   75.3020  222.3630 O   0  0  0  0  0  0  0  0  0  0  0  0
  140.8620   74.9770  220.3030 N   0  0  0  0  0  0  0  0  0  0  0  0
  140.8390   75.2500  218.8890 C   0  0  0  0  0  0  0  0  0  0  0  0
  141.4190   76.6730  218.8970 C   0  0  0  0  0  0  0  0  0  0  0  0
  142.6930   76.3940  219.7120 C   0  0  0  0  0  0  0  0  0  0  0  0
  142.2880   75.2850  220.6280 C   0  0  2  0  0  0  0  0  0  0  0  0
  143.1510   74.0960  220.3500 C   0  0  0  0  0  0  0  0  0  0  0  0
  142.8150   72.8290  220.8220 C   0  0  0  0  0  0  0  0  0  0  0  0
  143.6070   71.7220  220.5960 C   0  0  0  0  0  0  0  0  0  0  0  0
  144.7820   71.8230  219.8850 C   0  0  0  0  0  0  0  0  0  0  0  0
  145.1380   73.0630  219.4070 C   0  0  0  0  0  0  0  0  0  0  0  0
  146.3250   73.1570  218.6910 O   0  0  0  0  0  0  0  0  0  0  0  0
  144.3290   74.1820  219.6410 C   0  0  0  0  0  0  0  0  0  0  0  0
  139.7940   70.6600  223.8270 C   0  0  0  0  0  0  0  0  0  0  0  0
  139.0760   69.4840  223.7230 C   0  0  0  0  0  0  0  0  0  0  0  0
  139.0500   68.6890  224.8700 C   0  0  0  0  0  0  0  0  0  0  0  0
  139.7100   69.0780  226.0230 C   0  0  0  0  0  0  0  0  0  0  0  0
  139.6810   68.2880  227.1560 C   0  0  0  0  0  0  0  0  0  0  0  0
  140.3440   68.6910  228.2990 C   0  0  0  0  0  0  0  0  0  0  0  0
  141.0540   69.8950  228.3380 C   0  0  0  0  0  0  0  0  0  0  0  0
  141.0800   70.6840  227.1990 C   0  0  0  0  0  0  0  0  0  0  0  0
  140.4120   70.2640  226.0710 C   0  0  0  0  0  0  0  0  0  0  0  0
  140.4320   71.0240  224.9630 N   0  0  0  0  0  0  0  0  0  0  0  0
  138.3060   72.7980  223.3130 H   0  0  0  0  0  0  0  0  0  0  0  0
  139.2494   72.8035  220.4853 H   0  0  0  0  0  0  0  0  0  0  0  0
  138.0311   73.9614  221.3111 H   0  0  0  0  0  0  0  0  0  0  0  0
  141.4744   74.5509  218.3256 H   0  0  0  0  0  0  0  0  0  0  0  0
  139.8551   75.1478  218.4080 H   0  0  0  0  0  0  0  0  0  0  0  0
  141.6462   77.0339  217.8830 H   0  0  0  0  0  0  0  0  0  0  0  0
  140.7581   77.4565  219.2962 H   0  0  0  0  0  0  0  0  0  0  0  0
  143.5181   76.0800  219.0559 H   0  0  0  0  0  0  0  0  0  0  0  0
  143.0591   77.2808  220.2501 H   0  0  0  0  0  0  0  0  0  0  0  0
  142.3985   75.5554  221.6885 H   0  0  0  0  0  0  0  0  0  0  0  0
  141.8845   72.7067  221.3957 H   0  0  0  0  0  0  0  0  0  0  0  0
  143.2949   70.7435  220.9899 H   0  0  0  0  0  0  0  0  0  0  0  0
  145.4149   70.9415  219.7052 H   0  0  0  0  0  0  0  0  0  0  0  0
  146.6010   74.1120  218.4330 H   0  0  0  0  0  0  0  0  0  0  0  0
  144.6438   75.1594  219.2466 H   0  0  0  0  0  0  0  0  0  0  0  0
  138.5587   69.1933  222.7968 H   0  0  0  0  0  0  0  0  0  0  0  0
  138.4964   67.7385  224.8575 H   0  0  0  0  0  0  0  0  0  0  0  0
  139.1291   67.3365  227.1480 H   0  0  0  0  0  0  0  0  0  0  0  0
  140.3128   68.0532  229.1947 H   0  0  0  0  0  0  0  0  0  0  0  0
  141.5799   70.2087  229.2518 H   0  0  0  0  0  0  0  0  0  0  0  0
  141.6293   71.6370  227.1963 H   0  0  0  0  0  0  0  0  0  0  0  0
  1  2  2  0
  2  3  1  0
  3  4  1  0
  4  5  1  0
  5  6  2  0
  5  7  1  0
  7  8  1  0
  8  9  1  0
  9 10  1  0
 10 11  1  0
 11 12  1  0
 12 13  2  0
 13 14  1  0
 14 15  2  0
 15 16  1  0
 16 17  1  0
 16 18  2  0
  2 19  1  0
 19 20  2  0
 20 21  1  0
 21 22  2  0
 22 23  1  0
 23 24  2  0
 24 25  1  0
 25 26  2  0
 26 27  1  0
 27 28  2  0
 11  7  1  0
 18 12  1  0
 28 19  1  0
 27 22  1  0
  3 29  1  0
  4 30  1  0
  4 31  1  0
  8 32  1  0
  8 33  1  0
  9 34  1  0
  9 35  1  0
 10 36  1  0
 10 37  1  0
 11 38  1  1
 13 39  1  0
 14 40  1  0
 15 41  1  0
 17 42  1  0
 18 43  1  0
 20 44  1  0
 21 45  1  0
 23 46  1  0
 24 47  1  0
 25 48  1  0
 26 49  1  0
M  END
>  <smiles>  (1) 
O=C(NCC(=O)N1CCCC1c1cccc(O)c1)c1ccc2ccccc2n1

>  <score_type>  (1) 
oracle

>  <origin>  (1) 
autodockgpu

>  <m_score__min__energy>  (1) 
-9.1899999999999995

>  <m_primary>  (1) 
energy

>  <rmsd>  (1) 
2.387782155781569

>  <m_score__min__rmsd>  (1) 
2.387782155781569

>  <meeko>  (1) 
{"free_energy": -9.04, "intermolecular_energy": -10.83, "internal_energy": -1.4, "cluster_size": 13, "cluster_id": 2, "rank_in_cluster": 1}

>  <energy>  (1) 
-9.19

>  <cluster_rmsd>  (1) 
0.0

>  <cluster>  (1) 
1

$$$$

     RDKit          3D

 49 52  0  0  0  0  0  0  0  0999 V2000
  140.8850   71.7130  221.3700 O   0  0  0  0  0  0  0  0  0  0  0  0
  140.3740   72.2000  222.4100 C   0  0  0  0  0  0  0  0  0  0  0  0
  139.9990   73.5950  222.3090 N   0  0  0  0  0  0  0  0  0  0  0  0
  140.2150   74.3200  221.1010 C   0  0  0  0  0  0  0  0  0  0  0  0
  141.5760   74.7040  220.7330 C   0  0  0  0  0  0  0  0  0  0  0  0
  142.4450   73.7590  220.9480 O   0  0  0  0  0  0  0  0  0  0  0  0
  142.0890   75.8810  220.2030 N   0  0  0  0  0  0  0  0  0  0  0  0
  143.3540   76.3580  219.7060 C   0  0  0  0  0  0  0  0  0  0  0  0
  142.9110   76.8480  218.3180 C   0  0  0  0  0  0  0  0  0  0  0  0
  141.7480   77.7530  218.7570 C   0  0  0  0  0  0  0  0  0  0  0  0
  141.2280   77.0840  219.9880 C   0  0  2  0  0  0  0  0  0  0  0  0
  141.3620   78.0290  221.1390 C   0  0  0  0  0  0  0  0  0  0  0  0
  141.1100   77.6210  222.4460 C   0  0  0  0  0  0  0  0  0  0  0  0
  141.2060   78.4810  223.5210 C   0  0  0  0  0  0  0  0  0  0  0  0
  141.5600   79.8000  223.3450 C   0  0  0  0  0  0  0  0  0  0  0  0
  141.8140   80.2310  222.0630 C   0  0  0  0  0  0  0  0  0  0  0  0
  142.1700   81.5620  221.8930 O   0  0  0  0  0  0  0  0  0  0  0  0
  141.7130   79.3520  220.9780 C   0  0  0  0  0  0  0  0  0  0  0  0
  140.1640   71.4420  223.6370 C   0  0  0  0  0  0  0  0  0  0  0  0
  139.4480   70.2660  223.5220 C   0  0  0  0  0  0  0  0  0  0  0  0
  139.2580   69.5570  224.7090 C   0  0  0  0  0  0  0  0  0  0  0  0
  139.7660   70.0250  225.9090 C   0  0  0  0  0  0  0  0  0  0  0  0
  139.5750   69.3190  227.0810 C   0  0  0  0  0  0  0  0  0  0  0  0
  140.0890   69.8000  228.2710 C   0  0  0  0  0  0  0  0  0  0  0  0
  140.8070   70.9990  228.3180 C   0  0  0  0  0  0  0  0  0  0  0  0
  140.9950   71.7020  227.1400 C   0  0  0  0  0  0  0  0  0  0  0  0
  140.4750   71.2060  225.9660 C   0  0  0  0  0  0  0  0  0  0  0  0
  140.6530   71.8840  224.8180 N   0  0  0  0  0  0  0  0  0  0  0  0
  139.5720   73.9910  223.1860 H   0  0  0  0  0  0  0  0  0  0  0  0
  139.8228   73.7012  220.2805 H   0  0  0  0  0  0  0  0  0  0  0  0
  139.7115   75.2815  221.2797 H   0  0  0  0  0  0  0  0  0  0  0  0
  143.7548   77.1766  220.3218 H   0  0  0  0  0  0  0  0  0  0  0  0
  144.1666   75.6166  219.7041 H   0  0  0  0  0  0  0  0  0  0  0  0
  143.7040   77.4117  217.8048 H   0  0  0  0  0  0  0  0  0  0  0  0
  142.6569   76.0615  217.5922 H   0  0  0  0  0  0  0  0  0  0  0  0
  142.1044   78.7689  218.9828 H   0  0  0  0  0  0  0  0  0  0  0  0
  140.9805   77.8711  217.9779 H   0  0  0  0  0  0  0  0  0  0  0  0
  140.1702   76.7971  219.8942 H   0  0  0  0  0  0  0  0  0  0  0  0
  140.8239   76.5747  222.6285 H   0  0  0  0  0  0  0  0  0  0  0  0
  140.9965   78.1071  224.5340 H   0  0  0  0  0  0  0  0  0  0  0  0
  141.6372   80.4866  224.2010 H   0  0  0  0  0  0  0  0  0  0  0  0
  141.4270   82.1650  221.5170 H   0  0  0  0  0  0  0  0  0  0  0  0
  141.9202   79.7290  219.9656 H   0  0  0  0  0  0  0  0  0  0  0  0
  139.0536   69.9118  222.5582 H   0  0  0  0  0  0  0  0  0  0  0  0
  138.6959   68.6116  224.6909 H   0  0  0  0  0  0  0  0  0  0  0  0
  139.0134   68.3732  227.0674 H   0  0  0  0  0  0  0  0  0  0  0  0
  139.9302   69.2291  229.1977 H   0  0  0  0  0  0  0  0  0  0  0  0
  141.2130   71.3750  229.2687 H   0  0  0  0  0  0  0  0  0  0  0  0
  141.5551   72.6487  227.1423 H   0  0  0  0  0  0  0  0  0  0  0  0
  1  2  2  0
  2  3  1  0
  3  4  1  0
  4  5  1  0
  5  6  2  0
  5  7  1  0
  7  8  1  0
  8  9  1  0
  9 10  1  0
 10 11  1  0
 11 12  1  0
 12 13  2  0
 13 14  1  0
 14 15  2  0
 15 16  1  0
 16 17  1  0
 16 18  2  0
  2 19  1  0
 19 20  2  0
 20 21  1  0
 21 22  2  0
 22 23  1  0
 23 24  2  0
 24 25  1  0
 25 26  2  0
 26 27  1  0
 27 28  2  0
 11  7  1  0
 18 12  1  0
 28 19  1  0
 27 22  1  0
  3 29  1  0
  4 30  1  0
  4 31  1  0
  8 32  1  0
  8 33  1  0
  9 34  1  0
  9 35  1  0
 10 36  1  0
 10 37  1  0
 11 38  1  6
 13 39  1  0
 14 40  1  0
 15 41  1  0
 17 42  1  0
 18 43  1  0
 20 44  1  0
 21 45  1  0
 23 46  1  0
 24 47  1  0
 25 48  1  0
 26 49  1  0
M  END
>  <smiles>  (2) 
O=C(NCC(=O)N1CCCC1c1cccc(O)c1)c1ccc2ccccc2n1

>  <score_type>  (2) 
oracle

>  <origin>  (2) 
autodockgpu

>  <m_score__min__energy>  (2) 
-9.1899999999999995

>  <m_primary>  (2) 
energy

>  <rmsd>  (2) 
3.373386671351111

>  <m_score__min__rmsd>  (2) 
3.373386671351111

>  <meeko>  (2) 
{"free_energy": -8.36, "intermolecular_energy": -10.15, "internal_energy": -1.15, "cluster_size": 11, "cluster_id": 3, "rank_in_cluster": 6}

>  <energy>  (2) 
-9.16

>  <cluster_rmsd>  (2) 
1.58

>  <cluster>  (2) 
1

$$$$

     RDKit          3D

 49 52  0  0  0  0  0  0  0  0999 V2000
  140.6630   71.5880  221.7920 O   0  0  0  0  0  0  0  0  0  0  0  0
  139.7860   71.6600  222.6900 C   0  0  0  0  0  0  0  0  0  0  0  0
  138.7960   72.6970  222.4920 N   0  0  0  0  0  0  0  0  0  0  0  0
  138.8530   73.5480  221.3500 C   0  0  0  0  0  0  0  0  0  0  0  0
  139.9640   74.4890  221.2170 C   0  0  0  0  0  0  0  0  0  0  0  0
  140.2120   75.1380  222.3180 O   0  0  0  0  0  0  0  0  0  0  0  0
  140.7840   74.7990  220.1400 N   0  0  0  0  0  0  0  0  0  0  0  0
  140.6780   74.8470  218.7050 C   0  0  0  0  0  0  0  0  0  0  0  0
  141.1370   76.2940  218.4650 C   0  0  0  0  0  0  0  0  0  0  0  0
  142.4640   76.2430  219.2420 C   0  0  0  0  0  0  0  0  0  0  0  0
  142.1920   75.2630  220.3370 C   0  0  2  0  0  0  0  0  0  0  0  0
  143.1390   74.1140  220.1960 C   0  0  0  0  0  0  0  0  0  0  0  0
  142.9250   72.9110  220.8660 C   0  0  0  0  0  0  0  0  0  0  0  0
  143.7960   71.8460  220.7680 C   0  0  0  0  0  0  0  0  0  0  0  0
  144.9320   71.9260  219.9930 C   0  0  0  0  0  0  0  0  0  0  0  0
  145.1680   73.1040  219.3210 C   0  0  0  0  0  0  0  0  0  0  0  0
  146.3160   73.1770  218.5420 O   0  0  0  0  0  0  0  0  0  0  0  0
  144.2790   74.1800  219.4260 C   0  0  0  0  0  0  0  0  0  0  0  0
  139.7470   70.7810  223.8520 C   0  0  0  0  0  0  0  0  0  0  0  0
  139.0370   69.6030  223.7120 C   0  0  0  0  0  0  0  0  0  0  0  0
  139.0120   68.7770  224.8360 C   0  0  0  0  0  0  0  0  0  0  0  0
  139.6640   69.1380  226.0020 C   0  0  0  0  0  0  0  0  0  0  0  0
  139.6350   68.3170  227.1130 C   0  0  0  0  0  0  0  0  0  0  0  0
  140.2910   68.6930  228.2700 C   0  0  0  0  0  0  0  0  0  0  0  0
  140.9930   69.9000  228.3460 C   0  0  0  0  0  0  0  0  0  0  0  0
  141.0180   70.7190  227.2290 C   0  0  0  0  0  0  0  0  0  0  0  0
  140.3580   70.3260  226.0870 C   0  0  0  0  0  0  0  0  0  0  0  0
  140.3780   71.1180  224.9990 N   0  0  0  0  0  0  0  0  0  0  0  0
  138.0660   72.7460  223.2500 H   0  0  0  0  0  0  0  0  0  0  0  0
  138.8760   72.8962  220.4642 H   0  0  0  0  0  0  0  0  0  0  0  0
  137.9722   74.1971  221.4630 H   0  0  0  0  0  0  0  0  0  0  0  0
  141.3448   74.1191  218.2197 H   0  0  0  0  0  0  0  0  0  0  0  0
  139.6862   74.5972  218.3002 H   0  0  0  0  0  0  0  0  0  0  0  0
  141.2898   76.5088  217.3970 H   0  0  0  0  0  0  0  0  0  0  0  0
  140.4305   77.0775  218.7763 H   0  0  0  0  0  0  0  0  0  0  0  0
  143.2837   75.8938  218.5970 H   0  0  0  0  0  0  0  0  0  0  0  0
  142.7776   77.2281  219.6179 H   0  0  0  0  0  0  0  0  0  0  0  0
  142.3236   75.7036  221.3363 H   0  0  0  0  0  0  0  0  0  0  0  0
  142.0291   72.8070  221.4957 H   0  0  0  0  0  0  0  0  0  0  0  0
  143.5800   70.9179  221.3175 H   0  0  0  0  0  0  0  0  0  0  0  0
  145.6271   71.0772  219.9138 H   0  0  0  0  0  0  0  0  0  0  0  0
  146.5770   74.1250  218.2430 H   0  0  0  0  0  0  0  0  0  0  0  0
  144.4977   75.1074  218.8763 H   0  0  0  0  0  0  0  0  0  0  0  0
  138.5254   69.3346  222.7759 H   0  0  0  0  0  0  0  0  0  0  0  0
  138.4652   67.8234  224.7947 H   0  0  0  0  0  0  0  0  0  0  0  0
  139.0890   67.3628  227.0766 H   0  0  0  0  0  0  0  0  0  0  0  0
  140.2603   68.0304  229.1475 H   0  0  0  0  0  0  0  0  0  0  0  0
  141.5128   70.1921  229.2704 H   0  0  0  0  0  0  0  0  0  0  0  0
  141.5608   71.6754  227.2546 H   0  0  0  0  0  0  0  0  0  0  0  0
  1  2  2  0
  2  3  1  0
  3  4  1  0
  4  5  1  0
  5  6  2  0
  5  7  1  0
  7  8  1  0
  8  9  1  0
  9 10  1  0
 10 11  1  0
 11 12  1  0
 12 13  2  0
 13 14  1  0
 14 15  2  0
 15 16  1  0
 16 17  1  0
 16 18  2  0
  2 19  1  0
 19 20  2  0
 20 21  1  0
 21 22  2  0
 22 23  1  0
 23 24  2  0
 24 25  1  0
 25 26  2  0
 26 27  1  0
 27 28  2  0
 11  7  1  0
 18 12  1  0
 28 19  1  0
 27 22  1  0
  3 29  1  0
  4 30  1  0
  4 31  1  0
  8 32  1  0
  8 33  1  0
  9 34  1  0
  9 35  1  0
 10 36  1  0
 10 37  1  0
 11 38  1  1
 13 39  1  0
 14 40  1  0
 15 41  1  0
 17 42  1  0
 18 43  1  0
 20 44  1  0
 21 45  1  0
 23 46  1  0
 24 47  1  0
 25 48  1  0
 26 49  1  0
M  END
>  <smiles>  (3) 
O=C(NCC(=O)N1CCCC1c1cccc(O)c1)c1ccc2ccccc2n1

>  <score_type>  (3) 
oracle

>  <origin>  (3) 
autodockgpu

>  <m_score__min__energy>  (3) 
-9.1899999999999995

>  <m_primary>  (3) 
energy

>  <rmsd>  (3) 
2.3266764126305852

>  <m_score__min__rmsd>  (3) 
2.3266764126305852

>  <meeko>  (3) 
{"free_energy": -8.93, "intermolecular_energy": -10.72, "internal_energy": -1.38, "cluster_size": 13, "cluster_id": 2, "rank_in_cluster": 4}

>  <energy>  (3) 
-9.15

>  <cluster_rmsd>  (3) 
0.33

>  <cluster>  (3) 
1

$$$$

     RDKit          3D

 49 52  0  0  0  0  0  0  0  0999 V2000
  141.1420   74.1070  220.2220 O   0  0  0  0  0  0  0  0  0  0  0  0
  140.6450   74.8640  221.0930 C   0  0  0  0  0  0  0  0  0  0  0  0
  139.6530   74.2440  221.9440 N   0  0  0  0  0  0  0  0  0  0  0  0
  139.2980   72.8750  221.7700 C   0  0  0  0  0  0  0  0  0  0  0  0
  139.6850   71.9030  222.7900 C   0  0  0  0  0  0  0  0  0  0  0  0
  140.9730   71.7340  222.8650 O   0  0  0  0  0  0  0  0  0  0  0  0
  138.9290   71.1460  223.6760 N   0  0  0  0  0  0  0  0  0  0  0  0
  137.5800   71.1380  224.1820 C   0  0  0  0  0  0  0  0  0  0  0  0
  137.1900   69.6920  223.8380 C   0  0  0  0  0  0  0  0  0  0  0  0
  138.3760   68.9730  224.5020 C   0  0  0  0  0  0  0  0  0  0  0  0
  139.4990   69.9500  224.3680 C   0  0  2  0  0  0  0  0  0  0  0  0
  139.9740   70.3220  225.7360 C   0  0  0  0  0  0  0  0  0  0  0  0
  139.6600   69.5460  226.8500 C   0  0  0  0  0  0  0  0  0  0  0  0
  140.0690   69.8820  228.1240 C   0  0  0  0  0  0  0  0  0  0  0  0
  140.8170   71.0150  228.3540 C   0  0  0  0  0  0  0  0  0  0  0  0
  141.1420   71.8000  227.2710 C   0  0  0  0  0  0  0  0  0  0  0  0
  141.8960   72.9410  227.5110 O   0  0  0  0  0  0  0  0  0  0  0  0
  140.7220   71.4530  225.9820 C   0  0  0  0  0  0  0  0  0  0  0  0
  141.0210   76.2640  221.2540 C   0  0  0  0  0  0  0  0  0  0  0  0
  141.2990   76.9660  220.0970 C   0  0  0  0  0  0  0  0  0  0  0  0
  141.6570   78.3030  220.2750 C   0  0  0  0  0  0  0  0  0  0  0  0
  141.7200   78.8630  221.5380 C   0  0  0  0  0  0  0  0  0  0  0  0
  142.0750   80.1880  221.7090 C   0  0  0  0  0  0  0  0  0  0  0  0
  142.1340   80.7320  222.9780 C   0  0  0  0  0  0  0  0  0  0  0  0
  141.8390   79.9650  224.1100 C   0  0  0  0  0  0  0  0  0  0  0  0
  141.4830   78.6370  223.9330 C   0  0  0  0  0  0  0  0  0  0  0  0
  141.4310   78.1160  222.6600 C   0  0  0  0  0  0  0  0  0  0  0  0
  141.0870   76.8280  222.4820 N   0  0  0  0  0  0  0  0  0  0  0  0
  139.2450   74.8900  222.6710 H   0  0  0  0  0  0  0  0  0  0  0  0
  138.2018   72.8352  221.6876 H   0  0  0  0  0  0  0  0  0  0  0  0
  139.8719   72.5666  220.8837 H   0  0  0  0  0  0  0  0  0  0  0  0
  137.5468   71.3255  225.2654 H   0  0  0  0  0  0  0  0  0  0  0  0
  136.9191   71.9131  223.7668 H   0  0  0  0  0  0  0  0  0  0  0  0
  136.2274   69.4045  224.2859 H   0  0  0  0  0  0  0  0  0  0  0  0
  137.0392   69.4789  222.7694 H   0  0  0  0  0  0  0  0  0  0  0  0
  138.1641   68.7610  225.5604 H   0  0  0  0  0  0  0  0  0  0  0  0
  138.5987   67.9998  224.0401 H   0  0  0  0  0  0  0  0  0  0  0  0
  140.3485   69.5381  223.8035 H   0  0  0  0  0  0  0  0  0  0  0  0
  139.0643   68.6322  226.7084 H   0  0  0  0  0  0  0  0  0  0  0  0
  139.7932   69.2346  228.9694 H   0  0  0  0  0  0  0  0  0  0  0  0
  141.1439   71.2838  229.3693 H   0  0  0  0  0  0  0  0  0  0  0  0
  141.3940   73.8280  227.3800 H   0  0  0  0  0  0  0  0  0  0  0  0
  140.9975   72.1034  225.1387 H   0  0  0  0  0  0  0  0  0  0  0  0
  141.2419   76.5018  219.1014 H   0  0  0  0  0  0  0  0  0  0  0  0
  141.8929   78.9215  219.3965 H   0  0  0  0  0  0  0  0  0  0  0  0
  142.3110   80.8105  220.8333 H   0  0  0  0  0  0  0  0  0  0  0  0
  142.4182   81.7876  223.1002 H   0  0  0  0  0  0  0  0  0  0  0  0
  141.8884   80.4052  225.1169 H   0  0  0  0  0  0  0  0  0  0  0  0
  141.2443   78.0056  224.8016 H   0  0  0  0  0  0  0  0  0  0  0  0
  1  2  2  0
  2  3  1  0
  3  4  1  0
  4  5  1  0
  5  6  2  0
  5  7  1  0
  7  8  1  0
  8  9  1  0
  9 10  1  0
 10 11  1  0
 11 12  1  0
 12 13  2  0
 13 14  1  0
 14 15  2  0
 15 16  1  0
 16 17  1  0
 16 18  2  0
  2 19  1  0
 19 20  2  0
 20 21  1  0
 21 22  2  0
 22 23  1  0
 23 24  2  0
 24 25  1  0
 25 26  2  0
 26 27  1  0
 27 28  2  0
 11  7  1  0
 18 12  1  0
 28 19  1  0
 27 22  1  0
  3 29  1  0
  4 30  1  0
  4 31  1  0
  8 32  1  0
  8 33  1  0
  9 34  1  0
  9 35  1  0
 10 36  1  0
 10 37  1  0
 11 38  1  6
 13 39  1  0
 14 40  1  0
 15 41  1  0
 17 42  1  0
 18 43  1  0
 20 44  1  0
 21 45  1  0
 23 46  1  0
 24 47  1  0
 25 48  1  0
 26 49  1  0
M  END
>  <smiles>  (4) 
O=C(NCC(=O)N1CCCC1c1cccc(O)c1)c1ccc2ccccc2n1

>  <score_type>  (4) 
oracle

>  <origin>  (4) 
autodockgpu

>  <m_score__min__energy>  (4) 
-9.1899999999999995

>  <m_primary>  (4) 
energy

>  <rmsd>  (4) 
8.535839709794237

>  <m_score__min__rmsd>  (4) 
8.535839709794237

>  <meeko>  (4) 
{"free_energy": -8.54, "intermolecular_energy": -10.33, "internal_energy": -1.19, "cluster_size": 16, "cluster_id": 1, "rank_in_cluster": 11}

>  <energy>  (4) 
-9.15

>  <cluster_rmsd>  (4) 
1.58

>  <cluster>  (4) 
1

$$$$

     RDKit          3D

 49 52  0  0  0  0  0  0  0  0999 V2000
  139.0290   71.0720  221.4360 O   0  0  0  0  0  0  0  0  0  0  0  0
  139.3040   71.7120  222.4820 C   0  0  0  0  0  0  0  0  0  0  0  0
  139.2930   73.1520  222.3350 N   0  0  0  0  0  0  0  0  0  0  0  0
  138.9880   73.7520  221.0790 C   0  0  0  0  0  0  0  0  0  0  0  0
  139.4050   75.1300  220.8280 C   0  0  0  0  0  0  0  0  0  0  0  0
  138.4020   75.9540  220.7310 O   0  0  0  0  0  0  0  0  0  0  0  0
  140.6640   75.7000  220.6810 N   0  0  0  0  0  0  0  0  0  0  0  0
  142.0370   75.2850  220.8060 C   0  0  0  0  0  0  0  0  0  0  0  0
  142.5520   75.6920  219.4170 C   0  0  0  0  0  0  0  0  0  0  0  0
  142.0780   77.1550  219.4180 C   0  0  0  0  0  0  0  0  0  0  0  0
  140.8340   77.1200  220.2460 C   0  0  2  0  0  0  0  0  0  0  0  0
  141.0270   78.0050  221.4360 C   0  0  0  0  0  0  0  0  0  0  0  0
  140.0240   78.1690  222.3890 C   0  0  0  0  0  0  0  0  0  0  0  0
  140.1720   78.9970  223.4830 C   0  0  0  0  0  0  0  0  0  0  0  0
  141.3340   79.7090  223.6830 C   0  0  0  0  0  0  0  0  0  0  0  0
  142.3410   79.5660  222.7560 C   0  0  0  0  0  0  0  0  0  0  0  0
  143.5100   80.2870  222.9640 O   0  0  0  0  0  0  0  0  0  0  0  0
  142.1830   78.7240  221.6480 C   0  0  0  0  0  0  0  0  0  0  0  0
  139.6160   71.0790  223.7570 C   0  0  0  0  0  0  0  0  0  0  0  0
  139.3370   69.7300  223.8620 C   0  0  0  0  0  0  0  0  0  0  0  0
  139.6430   69.1440  225.0910 C   0  0  0  0  0  0  0  0  0  0  0  0
  140.1900   69.8890  226.1210 C   0  0  0  0  0  0  0  0  0  0  0  0
  140.4900   69.3050  227.3360 C   0  0  0  0  0  0  0  0  0  0  0  0
  141.0360   70.0640  228.3540 C   0  0  0  0  0  0  0  0  0  0  0  0
  141.2950   71.4270  228.1830 C   0  0  0  0  0  0  0  0  0  0  0  0
  140.9920   72.0080  226.9620 C   0  0  0  0  0  0  0  0  0  0  0  0
  140.4490   71.2340  225.9610 C   0  0  0  0  0  0  0  0  0  0  0  0
  140.1510   71.7920  224.7740 N   0  0  0  0  0  0  0  0  0  0  0  0
  139.5250   73.6770  223.2190 H   0  0  0  0  0  0  0  0  0  0  0  0
  139.4553   73.1282  220.3027 H   0  0  0  0  0  0  0  0  0  0  0  0
  137.8893   73.8058  221.0742 H   0  0  0  0  0  0  0  0  0  0  0  0
  142.5572   75.8248  221.6110 H   0  0  0  0  0  0  0  0  0  0  0  0
  142.1844   74.2270  221.0686 H   0  0  0  0  0  0  0  0  0  0  0  0
  143.6463   75.6109  219.3406 H   0  0  0  0  0  0  0  0  0  0  0  0
  142.1986   75.0759  218.5771 H   0  0  0  0  0  0  0  0  0  0  0  0
  142.8339   77.8126  219.8722 H   0  0  0  0  0  0  0  0  0  0  0  0
  141.9071   77.5499  218.4057 H   0  0  0  0  0  0  0  0  0  0  0  0
  139.9508   77.4688  219.6908 H   0  0  0  0  0  0  0  0  0  0  0  0
  139.0798   77.6185  222.2649 H   0  0  0  0  0  0  0  0  0  0  0  0
  139.3489   79.0899  224.2068 H   0  0  0  0  0  0  0  0  0  0  0  0
  141.4531   80.3697  224.5544 H   0  0  0  0  0  0  0  0  0  0  0  0
  144.2960   80.0230  222.3580 H   0  0  0  0  0  0  0  0  0  0  0  0
  143.0070   78.6340  220.9249 H   0  0  0  0  0  0  0  0  0  0  0  0
  138.9020   69.1553  223.0310 H   0  0  0  0  0  0  0  0  0  0  0  0
  139.4462   68.0725  225.2435 H   0  0  0  0  0  0  0  0  0  0  0  0
  140.2941   68.2341  227.4938 H   0  0  0  0  0  0  0  0  0  0  0  0
  141.2711   69.5866  229.3167 H   0  0  0  0  0  0  0  0  0  0  0  0
  141.7291   72.0242  228.9984 H   0  0  0  0  0  0  0  0  0  0  0  0
  141.1836   73.0781  226.7939 H   0  0  0  0  0  0  0  0  0  0  0  0
  1  2  2  0
  2  3  1  0
  3  4  1  0
  4  5  1  0
  5  6  2  0
  5  7  1  0
  7  8  1  0
  8  9  1  0
  9 10  1  0
 10 11  1  0
 11 12  1  0
 12 13  2  0
 13 14  1  0
 14 15  2  0
 15 16  1  0
 16 17  1  0
 16 18  2  0
  2 19  1  0
 19 20  2  0
 20 21  1  0
 21 22  2  0
 22 23  1  0
 23 24  2  0
 24 25  1  0
 25 26  2  0
 26 27  1  0
 27 28  2  0
 11  7  1  0
 18 12  1  0
 28 19  1  0
 27 22  1  0
  3 29  1  0
  4 30  1  0
  4 31  1  0
  8 32  1  0
  8 33  1  0
  9 34  1  0
  9 35  1  0
 10 36  1  0
 10 37  1  0
 11 38  1  6
 13 39  1  0
 14 40  1  0
 15 41  1  0
 17 42  1  0
 18 43  1  0
 20 44  1  0
 21 45  1  0
 23 46  1  0
 24 47  1  0
 25 48  1  0
 26 49  1  0
M  END
>  <smiles>  (5) 
O=C(NCC(=O)N1CCCC1c1cccc(O)c1)c1ccc2ccccc2n1

>  <score_type>  (5) 
oracle

>  <origin>  (5) 
autodockgpu

>  <m_score__min__energy>  (5) 
-9.1899999999999995

>  <m_primary>  (5) 
energy

>  <rmsd>  (5) 
3.1918075803351065

>  <m_score__min__rmsd>  (5) 
3.1918075803351065

>  <meeko>  (5) 
{"free_energy": -8.33, "intermolecular_energy": -10.12, "internal_energy": -1.36, "cluster_size": 11, "cluster_id": 3, "rank_in_cluster": 7}

>  <energy>  (5) 
-9.12

>  <cluster_rmsd>  (5) 
1.58

>  <cluster>  (5) 
1

$$$$

     RDKit          3D

 49 52  0  0  0  0  0  0  0  0999 V2000
  139.8860   73.4320  222.5330 O   0  0  0  0  0  0  0  0  0  0  0  0
  139.9240   72.1760  222.5270 C   0  0  0  0  0  0  0  0  0  0  0  0
  139.8860   71.5710  221.2120 N   0  0  0  0  0  0  0  0  0  0  0  0
  139.8110   72.3810  220.0420 C   0  0  0  0  0  0  0  0  0  0  0  0
  141.0470   72.8610  219.4270 C   0  0  0  0  0  0  0  0  0  0  0  0
  141.1970   72.4470  218.2020 O   0  0  0  0  0  0  0  0  0  0  0  0
  142.0660   73.6690  219.9150 N   0  0  0  0  0  0  0  0  0  0  0  0
  143.1620   73.5510  220.8420 C   0  0  0  0  0  0  0  0  0  0  0  0
  144.3150   73.9920  219.9270 C   0  0  0  0  0  0  0  0  0  0  0  0
  143.7230   75.3250  219.4410 C   0  0  0  0  0  0  0  0  0  0  0  0
  142.2490   75.0730  219.4360 C   0  0  2  0  0  0  0  0  0  0  0  0
  141.5970   76.0310  220.3810 C   0  0  0  0  0  0  0  0  0  0  0  0
  142.0150   77.3570  220.4740 C   0  0  0  0  0  0  0  0  0  0  0  0
  141.4430   78.2530  221.3530 C   0  0  0  0  0  0  0  0  0  0  0  0
  140.4190   77.8700  222.1910 C   0  0  0  0  0  0  0  0  0  0  0  0
  139.9860   76.5650  222.1200 C   0  0  0  0  0  0  0  0  0  0  0  0
  138.9530   76.1860  222.9670 O   0  0  0  0  0  0  0  0  0  0  0  0
  140.5730   75.6620  221.2250 C   0  0  0  0  0  0  0  0  0  0  0  0
  139.9990   71.3650  223.7360 C   0  0  0  0  0  0  0  0  0  0  0  0
  139.5510   70.0620  223.6350 C   0  0  0  0  0  0  0  0  0  0  0  0
  139.6310   69.3040  224.8040 C   0  0  0  0  0  0  0  0  0  0  0  0
  140.1310   69.8480  225.9740 C   0  0  0  0  0  0  0  0  0  0  0  0
  140.2080   69.0940  227.1290 C   0  0  0  0  0  0  0  0  0  0  0  0
  140.7090   69.6520  228.2900 C   0  0  0  0  0  0  0  0  0  0  0  0
  141.1470   70.9800  228.3250 C   0  0  0  0  0  0  0  0  0  0  0  0
  141.0670   71.7320  227.1640 C   0  0  0  0  0  0  0  0  0  0  0  0
  140.5650   71.1560  226.0190 C   0  0  0  0  0  0  0  0  0  0  0  0
  140.4840   71.8800  224.8880 N   0  0  0  0  0  0  0  0  0  0  0  0
  139.9190   70.5180  221.2210 H   0  0  0  0  0  0  0  0  0  0  0  0
  139.2788   71.7945  219.2786 H   0  0  0  0  0  0  0  0  0  0  0  0
  139.3182   73.3003  220.3913 H   0  0  0  0  0  0  0  0  0  0  0  0
  143.0434   74.2221  221.7055 H   0  0  0  0  0  0  0  0  0  0  0  0
  143.2819   72.5591  221.3021 H   0  0  0  0  0  0  0  0  0  0  0  0
  145.2540   74.1334  220.4823 H   0  0  0  0  0  0  0  0  0  0  0  0
  144.5984   73.2794  219.1384 H   0  0  0  0  0  0  0  0  0  0  0  0
  143.9794   76.1432  220.1300 H   0  0  0  0  0  0  0  0  0  0  0  0
  144.1081   75.6306  218.4570 H   0  0  0  0  0  0  0  0  0  0  0  0
  141.8035   75.2087  218.4394 H   0  0  0  0  0  0  0  0  0  0  0  0
  142.8313   77.7020  219.8224 H   0  0  0  0  0  0  0  0  0  0  0  0
  141.8102   79.2894  221.3853 H   0  0  0  0  0  0  0  0  0  0  0  0
  139.9625   78.5829  222.8934 H   0  0  0  0  0  0  0  0  0  0  0  0
  138.8830   75.1760  223.1410 H   0  0  0  0  0  0  0  0  0  0  0  0
  140.2049   74.6259  221.1951 H   0  0  0  0  0  0  0  0  0  0  0  0
  139.1570   69.6490  222.6947 H   0  0  0  0  0  0  0  0  0  0  0  0
  139.2913   68.2578  224.7952 H   0  0  0  0  0  0  0  0  0  0  0  0
  139.8698   68.0473  227.1247 H   0  0  0  0  0  0  0  0  0  0  0  0
  140.7643   69.0408  229.2029 H   0  0  0  0  0  0  0  0  0  0  0  0
  141.5456   71.4170  229.2524 H   0  0  0  0  0  0  0  0  0  0  0  0
  141.4016   72.7798  227.1573 H   0  0  0  0  0  0  0  0  0  0  0  0
  1  2  2  0
  2  3  1  0
  3  4  1  0
  4  5  1  0
  5  6  2  0
  5  7  1  0
  7  8  1  0
  8  9  1  0
  9 10  1  0
 10 11  1  0
 11 12  1  0
 12 13  2  0
 13 14  1  0
 14 15  2  0
 15 16  1  0
 16 17  1  0
 16 18  2  0
  2 19  1  0
 19 20  2  0
 20 21  1  0
 21 22  2  0
 22 23  1  0
 23 24  2  0
 24 25  1  0
 25 26  2  0
 26 27  1  0
 27 28  2  0
 11  7  1  0
 18 12  1  0
 28 19  1  0
 27 22  1  0
  3 29  1  0
  4 30  1  0
  4 31  1  0
  8 32  1  0
  8 33  1  0
  9 34  1  0
  9 35  1  0
 10 36  1  0
 10 37  1  0
 11 38  1  6
 13 39  1  0
 14 40  1  0
 15 41  1  0
 17 42  1  0
 18 43  1  0
 20 44  1  0
 21 45  1  0
 23 46  1  0
 24 47  1  0
 25 48  1  0
 26 49  1  0
M  END
>  <smiles>  (6) 
O=C(NCC(=O)N1CCCC1c1cccc(O)c1)c1ccc2ccccc2n1

>  <score_type>  (6) 
oracle

>  <origin>  (6) 
autodockgpu

>  <m_score__min__energy>  (6) 
-9.1899999999999995

>  <m_primary>  (6) 
energy

>  <rmsd>  (6) 
3.2775300332686608

>  <m_score__min__rmsd>  (6) 
3.2775300332686608

>  <meeko>  (6) 
{"free_energy": -7.89, "intermolecular_energy": -9.68, "internal_energy": -1.95, "cluster_size": 6, "cluster_id": 4, "rank_in_cluster": 5}

>  <energy>  (6) 
-9.02

>  <cluster_rmsd>  (6) 
1.6

>  <cluster>  (6) 
1

$$$$

     RDKit          3D

 49 52  0  0  0  0  0  0  0  0999 V2000
  141.4530   72.9770  221.6880 O   0  0  0  0  0  0  0  0  0  0  0  0
  140.4340   72.8630  222.4160 C   0  0  0  0  0  0  0  0  0  0  0  0
  139.5150   73.9800  222.3560 N   0  0  0  0  0  0  0  0  0  0  0  0
  139.7880   75.1020  221.5210 C   0  0  0  0  0  0  0  0  0  0  0  0
  139.3600   76.4310  221.9510 C   0  0  0  0  0  0  0  0  0  0  0  0
  138.2100   76.4200  222.5600 O   0  0  0  0  0  0  0  0  0  0  0  0
  139.9590   77.6780  221.8250 N   0  0  0  0  0  0  0  0  0  0  0  0
  139.5440   79.0570  221.8010 C   0  0  0  0  0  0  0  0  0  0  0  0
  140.4400   79.6100  222.9210 C   0  0  0  0  0  0  0  0  0  0  0  0
  141.7940   79.0960  222.4030 C   0  0  0  0  0  0  0  0  0  0  0  0
  141.4410   77.8250  221.6990 C   0  0  2  0  0  0  0  0  0  0  0  0
  141.8280   77.9520  220.2600 C   0  0  0  0  0  0  0  0  0  0  0  0
  141.9060   76.8370  219.4290 C   0  0  0  0  0  0  0  0  0  0  0  0
  142.2820   76.9280  218.1040 C   0  0  0  0  0  0  0  0  0  0  0  0
  142.6020   78.1420  217.5380 C   0  0  0  0  0  0  0  0  0  0  0  0
  142.5340   79.2600  218.3380 C   0  0  0  0  0  0  0  0  0  0  0  0
  142.8590   80.4810  217.7600 O   0  0  0  0  0  0  0  0  0  0  0  0
  142.1520   79.1600  219.6810 C   0  0  0  0  0  0  0  0  0  0  0  0
  140.1740   71.7070  223.2650 C   0  0  0  0  0  0  0  0  0  0  0  0
  139.4330   70.6840  222.7060 C   0  0  0  0  0  0  0  0  0  0  0  0
  139.1950   69.5880  223.5370 C   0  0  0  0  0  0  0  0  0  0  0  0
  139.6820   69.5550  224.8320 C   0  0  0  0  0  0  0  0  0  0  0  0
  139.4440   68.4680  225.6500 C   0  0  0  0  0  0  0  0  0  0  0  0
  139.9380   68.4500  226.9410 C   0  0  0  0  0  0  0  0  0  0  0  0
  140.6830   69.5200  227.4460 C   0  0  0  0  0  0  0  0  0  0  0  0
  140.9190   70.6080  226.6210 C   0  0  0  0  0  0  0  0  0  0  0  0
  140.4180   70.6050  225.3390 C   0  0  0  0  0  0  0  0  0  0  0  0
  140.6430   71.6580  224.5330 N   0  0  0  0  0  0  0  0  0  0  0  0
  138.6660   73.8720  222.9690 H   0  0  0  0  0  0  0  0  0  0  0  0
  140.8788   75.1438  221.3853 H   0  0  0  0  0  0  0  0  0  0  0  0
  139.1850   74.9113  220.6210 H   0  0  0  0  0  0  0  0  0  0  0  0
  139.7568   79.5329  220.8324 H   0  0  0  0  0  0  0  0  0  0  0  0
  138.4655   79.2242  221.9381 H   0  0  0  0  0  0  0  0  0  0  0  0
  140.4064   80.7082  222.9747 H   0  0  0  0  0  0  0  0  0  0  0  0
  140.1717   79.3040  223.9429 H   0  0  0  0  0  0  0  0  0  0  0  0
  142.2480   79.8173  221.7075 H   0  0  0  0  0  0  0  0  0  0  0  0
  142.5314   78.9495  223.2060 H   0  0  0  0  0  0  0  0  0  0  0  0
  141.9590   76.9524  222.1236 H   0  0  0  0  0  0  0  0  0  0  0  0
  141.6591   75.8484  219.8435 H   0  0  0  0  0  0  0  0  0  0  0  0
  142.3267   76.0162  217.4903 H   0  0  0  0  0  0  0  0  0  0  0  0
  142.9018   78.2157  216.4822 H   0  0  0  0  0  0  0  0  0  0  0  0
  143.6540   80.4550  217.1110 H   0  0  0  0  0  0  0  0  0  0  0  0
  142.1091   80.0732  220.2927 H   0  0  0  0  0  0  0  0  0  0  0  0
  139.0553   70.7300  221.6739 H   0  0  0  0  0  0  0  0  0  0  0  0
  138.6111   68.7370  223.1565 H   0  0  0  0  0  0  0  0  0  0  0  0
  138.8603   67.6150  225.2736 H   0  0  0  0  0  0  0  0  0  0  0  0
  139.7415   67.5783  227.5824 H   0  0  0  0  0  0  0  0  0  0  0  0
  141.0727   69.4986  228.4744 H   0  0  0  0  0  0  0  0  0  0  0  0
  141.5014   71.4663  226.9873 H   0  0  0  0  0  0  0  0  0  0  0  0
  1  2  2  0
  2  3  1  0
  3  4  1  0
  4  5  1  0
  5  6  2  0
  5  7  1  0
  7  8  1  0
  8  9  1  0
  9 10  1  0
 10 11  1  0
 11 12  1  0
 12 13  2  0
 13 14  1  0
 14 15  2  0
 15 16  1  0
 16 17  1  0
 16 18  2  0
  2 19  1  0
 19 20  2  0
 20 21  1  0
 21 22  2  0
 22 23  1  0
 23 24  2  0
 24 25  1  0
 25 26  2  0
 26 27  1  0
 27 28  2  0
 11  7  1  0
 18 12  1  0
 28 19  1  0
 27 22  1  0
  3 29  1  0
  4 30  1  0
  4 31  1  0
  8 32  1  0
  8 33  1  0
  9 34  1  0
  9 35  1  0
 10 36  1  0
 10 37  1  0
 11 38  1  1
 13 39  1  0
 14 40  1  0
 15 41  1  0
 17 42  1  0
 18 43  1  0
 20 44  1  0
 21 45  1  0
 23 46  1  0
 24 47  1  0
 25 48  1  0
 26 49  1  0
M  END
>  <smiles>  (7) 
O=C(NCC(=O)N1CCCC1c1cccc(O)c1)c1ccc2ccccc2n1

>  <score_type>  (7) 
oracle

>  <origin>  (7) 
autodockgpu

>  <m_score__min__energy>  (7) 
-9.1899999999999995

>  <m_primary>  (7) 
energy

>  <rmsd>  (7) 
3.0080645493725093

>  <m_score__min__rmsd>  (7) 
3.0080645493725093

>  <meeko>  (7) 
{"free_energy": -8.15, "intermolecular_energy": -9.94, "internal_energy": -1.29, "cluster_size": 2, "cluster_id": 5, "rank_in_cluster": 1}

>  <energy>  (7) 
-8.78

>  <cluster_rmsd>  (7) 
1.85

>  <cluster>  (7) 
1

$$$$

     RDKit          3D

 49 52  0  0  0  0  0  0  0  0999 V2000
  139.7950   71.2430  221.2960 O   0  0  0  0  0  0  0  0  0  0  0  0
  139.6780   71.8100  222.4120 C   0  0  0  0  0  0  0  0  0  0  0  0
  139.3550   73.2190  222.3480 N   0  0  0  0  0  0  0  0  0  0  0  0
  139.1920   73.8720  221.0920 C   0  0  0  0  0  0  0  0  0  0  0  0
  139.9210   75.1120  220.8330 C   0  0  0  0  0  0  0  0  0  0  0  0
  139.5070   76.1050  221.5660 O   0  0  0  0  0  0  0  0  0  0  0  0
  140.9600   75.4040  219.9590 N   0  0  0  0  0  0  0  0  0  0  0  0
  141.1380   75.5700  218.5400 C   0  0  0  0  0  0  0  0  0  0  0  0
  141.7780   76.9670  218.5270 C   0  0  0  0  0  0  0  0  0  0  0  0
  142.9180   76.7040  219.5250 C   0  0  0  0  0  0  0  0  0  0  0  0
  142.3430   75.6840  220.4530 C   0  0  2  0  0  0  0  0  0  0  0  0
  143.1790   74.4460  220.3800 C   0  0  0  0  0  0  0  0  0  0  0  0
  142.7020   73.2190  220.8360 C   0  0  0  0  0  0  0  0  0  0  0  0
  143.4630   72.0690  220.7980 C   0  0  0  0  0  0  0  0  0  0  0  0
  144.7470   72.0840  220.3000 C   0  0  0  0  0  0  0  0  0  0  0  0
  145.2440   73.2830  219.8430 C   0  0  0  0  0  0  0  0  0  0  0  0
  146.5400   73.2890  219.3420 O   0  0  0  0  0  0  0  0  0  0  0  0
  144.4650   74.4460  219.8850 C   0  0  0  0  0  0  0  0  0  0  0  0
  139.8510   71.1240  223.6870 C   0  0  0  0  0  0  0  0  0  0  0  0
  139.5090   69.7860  223.7200 C   0  0  0  0  0  0  0  0  0  0  0  0
  139.6820   69.1500  224.9510 C   0  0  0  0  0  0  0  0  0  0  0  0
  140.1660   69.8390  226.0480 C   0  0  0  0  0  0  0  0  0  0  0  0
  140.3350   69.2050  227.2640 C   0  0  0  0  0  0  0  0  0  0  0  0
  140.8190   69.9080  228.3510 C   0  0  0  0  0  0  0  0  0  0  0  0
  141.1470   71.2630  228.2500 C   0  0  0  0  0  0  0  0  0  0  0  0
  140.9760   71.8940  227.0280 C   0  0  0  0  0  0  0  0  0  0  0  0
  140.4920   71.1760  225.9590 C   0  0  0  0  0  0  0  0  0  0  0  0
  140.3230   71.7820  224.7700 N   0  0  0  0  0  0  0  0  0  0  0  0
  139.2590   73.6820  223.2900 H   0  0  0  0  0  0  0  0  0  0  0  0
  139.4931   73.1539  220.3150 H   0  0  0  0  0  0  0  0  0  0  0  0
  138.1373   74.1843  221.0945 H   0  0  0  0  0  0  0  0  0  0  0  0
  141.8091   74.8071  218.1185 H   0  0  0  0  0  0  0  0  0  0  0  0
  140.2229   75.4684  217.9381 H   0  0  0  0  0  0  0  0  0  0  0  0
  142.1544   77.2413  217.5305 H   0  0  0  0  0  0  0  0  0  0  0  0
  141.1073   77.8023  218.7768 H   0  0  0  0  0  0  0  0  0  0  0  0
  143.8073   76.3104  219.0109 H   0  0  0  0  0  0  0  0  0  0  0  0
  143.2509   77.6150  220.0439 H   0  0  0  0  0  0  0  0  0  0  0  0
  142.3234   76.0307  221.4967 H   0  0  0  0  0  0  0  0  0  0  0  0
  141.6808   73.1652  221.2413 H   0  0  0  0  0  0  0  0  0  0  0  0
  143.0378   71.1256  221.1712 H   0  0  0  0  0  0  0  0  0  0  0  0
  145.3550   71.1679  220.2686 H   0  0  0  0  0  0  0  0  0  0  0  0
  146.9020   74.2170  219.0890 H   0  0  0  0  0  0  0  0  0  0  0  0
  144.8927   75.3881  219.5115 H   0  0  0  0  0  0  0  0  0  0  0  0
  139.1258   69.2567  222.8352 H   0  0  0  0  0  0  0  0  0  0  0  0
  139.4293   68.0840  225.0497 H   0  0  0  0  0  0  0  0  0  0  0  0
  140.0839   68.1390  227.3671 H   0  0  0  0  0  0  0  0  0  0  0  0
  140.9485   69.3916  229.3136 H   0  0  0  0  0  0  0  0  0  0  0  0
  141.5318   71.8155  229.1199 H   0  0  0  0  0  0  0  0  0  0  0  0
  141.2250   72.9593  226.9139 H   0  0  0  0  0  0  0  0  0  0  0  0
  1  2  2  0
  2  3  1  0
  3  4  1  0
  4  5  1  0
  5  6  2  0
  5  7  1  0
  7  8  1  0
  8  9  1  0
  9 10  1  0
 10 11  1  0
 11 12  1  0
 12 13  2  0
 13 14  1  0
 14 15  2  0
 15 16  1  0
 16 17  1  0
 16 18  2  0
  2 19  1  0
 19 20  2  0
 20 21  1  0
 21 22  2  0
 22 23  1  0
 23 24  2  0
 24 25  1  0
 25 26  2  0
 26 27  1  0
 27 28  2  0
 11  7  1  0
 18 12  1  0
 28 19  1  0
 27 22  1  0
  3 29  1  0
  4 30  1  0
  4 31  1  0
  8 32  1  0
  8 33  1  0
  9 34  1  0
  9 35  1  0
 10 36  1  0
 10 37  1  0
 11 38  1  1
 13 39  1  0
 14 40  1  0
 15 41  1  0
 17 42  1  0
 18 43  1  0
 20 44  1  0
 21 45  1  0
 23 46  1  0
 24 47  1  0
 25 48  1  0
 26 49  1  0
M  END
>  <smiles>  (8) 
O=C(NCC(=O)N1CCCC1c1cccc(O)c1)c1ccc2ccccc2n1

>  <score_type>  (8) 
oracle

>  <origin>  (8) 
autodockgpu

>  <m_score__min__energy>  (8) 
-9.1899999999999995

>  <m_primary>  (8) 
energy

>  <rmsd>  (8) 
2.537695577790665

>  <m_score__min__rmsd>  (8) 
2.537695577790665

>  <meeko>  (8) 
{"free_energy": -8.75, "intermolecular_energy": -10.54, "internal_energy": -1.65, "cluster_size": 13, "cluster_id": 2, "rank_in_cluster": 6}

>  <energy>  (8) 
-8.68

>  <cluster_rmsd>  (8) 
1.77

>  <cluster>  (8) 
1

$$$$

     RDKit          3D

 49 52  0  0  0  0  0  0  0  0999 V2000
  141.1800   73.9140  220.7880 O   0  0  0  0  0  0  0  0  0  0  0  0
  140.5600   74.8150  221.4060 C   0  0  0  0  0  0  0  0  0  0  0  0
  139.3720   74.3690  222.1030 N   0  0  0  0  0  0  0  0  0  0  0  0
  138.9750   73.0010  222.0600 C   0  0  0  0  0  0  0  0  0  0  0  0
  139.5330   72.0660  223.0350 C   0  0  0  0  0  0  0  0  0  0  0  0
  140.7990   72.2680  223.2630 O   0  0  0  0  0  0  0  0  0  0  0  0
  138.9560   71.0220  223.7460 N   0  0  0  0  0  0  0  0  0  0  0  0
  137.6460   70.6600  224.2230 C   0  0  0  0  0  0  0  0  0  0  0  0
  137.5280   69.2610  223.5990 C   0  0  0  0  0  0  0  0  0  0  0  0
  138.8450   68.6650  224.1250 C   0  0  0  0  0  0  0  0  0  0  0  0
  139.7590   69.8460  224.2000 C   0  0  2  0  0  0  0  0  0  0  0  0
  140.1880   70.0290  225.6200 C   0  0  0  0  0  0  0  0  0  0  0  0
  140.5860   71.2730  226.1030 C   0  0  0  0  0  0  0  0  0  0  0  0
  141.0070   71.4620  227.4040 C   0  0  0  0  0  0  0  0  0  0  0  0
  141.0530   70.4120  228.2940 C   0  0  0  0  0  0  0  0  0  0  0  0
  140.6660   69.1700  227.8430 C   0  0  0  0  0  0  0  0  0  0  0  0
  140.7150   68.1170  228.7460 O   0  0  0  0  0  0  0  0  0  0  0  0
  140.2400   68.9880  226.5210 C   0  0  0  0  0  0  0  0  0  0  0  0
  140.9820   76.2100  221.4360 C   0  0  0  0  0  0  0  0  0  0  0  0
  141.3260   76.7780  220.2240 C   0  0  0  0  0  0  0  0  0  0  0  0
  141.7270   78.1130  220.2760 C   0  0  0  0  0  0  0  0  0  0  0  0
  141.7680   78.8000  221.4760 C   0  0  0  0  0  0  0  0  0  0  0  0
  142.1670   80.1220  221.5220 C   0  0  0  0  0  0  0  0  0  0  0  0
  142.2020   80.7940  222.7290 C   0  0  0  0  0  0  0  0  0  0  0  0
  141.8400   80.1610  223.9220 C   0  0  0  0  0  0  0  0  0  0  0  0
  141.4420   78.8350  223.8700 C   0  0  0  0  0  0  0  0  0  0  0  0
  141.4130   78.1840  222.6570 C   0  0  0  0  0  0  0  0  0  0  0  0
  141.0280   76.8970  222.6000 N   0  0  0  0  0  0  0  0  0  0  0  0
  138.8620   75.1340  222.6170 H   0  0  0  0  0  0  0  0  0  0  0  0
  137.8821   72.9794  222.1829 H   0  0  0  0  0  0  0  0  0  0  0  0
  139.3712   72.6436  221.0981 H   0  0  0  0  0  0  0  0  0  0  0  0
  137.6045   70.6243  225.3216 H   0  0  0  0  0  0  0  0  0  0  0  0
  136.8406   71.3608  223.9581 H   0  0  0  0  0  0  0  0  0  0  0  0
  136.6484   68.7145  223.9700 H   0  0  0  0  0  0  0  0  0  0  0  0
  137.3940   69.2345  222.5075 H   0  0  0  0  0  0  0  0  0  0  0  0
  138.7032   68.2142  225.1183 H   0  0  0  0  0  0  0  0  0  0  0  0
  139.2366   67.8609  223.4846 H   0  0  0  0  0  0  0  0  0  0  0  0
  140.6577   69.7214  223.5781 H   0  0  0  0  0  0  0  0  0  0  0  0
  140.5641   72.1371  225.4226 H   0  0  0  0  0  0  0  0  0  0  0  0
  141.3103   72.4663  227.7348 H   0  0  0  0  0  0  0  0  0  0  0  0
  141.3879   70.5607  229.3312 H   0  0  0  0  0  0  0  0  0  0  0  0
  140.4860   67.1960  228.3520 H   0  0  0  0  0  0  0  0  0  0  0  0
  139.9376   67.9828  226.1921 H   0  0  0  0  0  0  0  0  0  0  0  0
  141.2862   76.2143  219.2802 H   0  0  0  0  0  0  0  0  0  0  0  0
  142.0153   78.6279  219.3477 H   0  0  0  0  0  0  0  0  0  0  0  0
  142.4573   80.6405  220.5963 H   0  0  0  0  0  0  0  0  0  0  0  0
  142.5206   81.8466  222.7516 H   0  0  0  0  0  0  0  0  0  0  0  0
  141.8705   80.7028  224.8788 H   0  0  0  0  0  0  0  0  0  0  0  0
  141.1516   78.3066  224.7901 H   0  0  0  0  0  0  0  0  0  0  0  0
  1  2  2  0
  2  3  1  0
  3  4  1  0
  4  5  1  0
  5  6  2  0
  5  7  1  0
  7  8  1  0
  8  9  1  0
  9 10  1  0
 10 11  1  0
 11 12  1  0
 12 13  2  0
 13 14  1  0
 14 15  2  0
 15 16  1  0
 16 17  1  0
 16 18  2  0
  2 19  1  0
 19 20  2  0
 20 21  1  0
 21 22  2  0
 22 23  1  0
 23 24  2  0
 24 25  1  0
 25 26  2  0
 26 27  1  0
 27 28  2  0
 11  7  1  0
 18 12  1  0
 28 19  1  0
 27 22  1  0
  3 29  1  0
  4 30  1  0
  4 31  1  0
  8 32  1  0
  8 33  1  0
  9 34  1  0
  9 35  1  0
 10 36  1  0
 10 37  1  0
 11 38  1  6
 13 39  1  0
 14 40  1  0
 15 41  1  0
 17 42  1  0
 18 43  1  0
 20 44  1  0
 21 45  1  0
 23 46  1  0
 24 47  1  0
 25 48  1  0
 26 49  1  0
M  END
>  <smiles>  (9) 
O=C(NCC(=O)N1CCCC1c1cccc(O)c1)c1ccc2ccccc2n1

>  <score_type>  (9) 
oracle

>  <origin>  (9) 
autodockgpu

>  <m_score__min__energy>  (9) 
-9.1899999999999995

>  <m_primary>  (9) 
energy

>  <rmsd>  (9) 
9.040427176249322

>  <m_score__min__rmsd>  (9) 
9.040427176249322

>  <meeko>  (9) 
{"free_energy": -8.78, "intermolecular_energy": -10.57, "internal_energy": -1.19, "cluster_size": 16, "cluster_id": 1, "rank_in_cluster": 7}

>  <energy>  (9) 
-8.6

>  <cluster_rmsd>  (9) 
1.19

>  <cluster>  (9) 
1

$$$$

     RDKit          3D

 49 52  0  0  0  0  0  0  0  0999 V2000
  140.2010   71.0160  221.3260 O   0  0  0  0  0  0  0  0  0  0  0  0
  140.0780   71.5400  222.4620 C   0  0  0  0  0  0  0  0  0  0  0  0
  140.0490   72.9870  222.4650 N   0  0  0  0  0  0  0  0  0  0  0  0
  140.1560   73.7190  221.2480 C   0  0  0  0  0  0  0  0  0  0  0  0
  140.9860   74.9220  221.2110 C   0  0  0  0  0  0  0  0  0  0  0  0
  140.7860   75.7070  222.2290 O   0  0  0  0  0  0  0  0  0  0  0  0
  141.9340   75.3590  220.2940 N   0  0  0  0  0  0  0  0  0  0  0  0
  143.3540   75.2250  220.0900 C   0  0  0  0  0  0  0  0  0  0  0  0
  143.3530   74.6890  218.6500 C   0  0  0  0  0  0  0  0  0  0  0  0
  142.4760   75.7750  218.0040 C   0  0  0  0  0  0  0  0  0  0  0  0
  141.5530   76.1830  219.1060 C   0  0  2  0  0  0  0  0  0  0  0  0
  141.7650   77.6350  219.3950 C   0  0  0  0  0  0  0  0  0  0  0  0
  141.4300   78.1860  220.6290 C   0  0  0  0  0  0  0  0  0  0  0  0
  141.5960   79.5270  220.9100 C   0  0  0  0  0  0  0  0  0  0  0  0
  142.1080   80.3910  219.9680 C   0  0  0  0  0  0  0  0  0  0  0  0
  142.4480   79.8730  218.7390 C   0  0  0  0  0  0  0  0  0  0  0  0
  142.9630   80.7510  217.7950 O   0  0  0  0  0  0  0  0  0  0  0  0
  142.2750   78.5110  218.4620 C   0  0  0  0  0  0  0  0  0  0  0  0
  139.9710   70.7720  223.6970 C   0  0  0  0  0  0  0  0  0  0  0  0
  139.3150   69.5600  223.6160 C   0  0  0  0  0  0  0  0  0  0  0  0
  139.2240   68.8420  224.8100 C   0  0  0  0  0  0  0  0  0  0  0  0
  139.7660   69.3370  225.9830 C   0  0  0  0  0  0  0  0  0  0  0  0
  139.6730   68.6240  227.1630 C   0  0  0  0  0  0  0  0  0  0  0  0
  140.2190   69.1320  228.3260 C   0  0  0  0  0  0  0  0  0  0  0  0
  140.8720   70.3690  228.3390 C   0  0  0  0  0  0  0  0  0  0  0  0
  140.9630   71.0800  227.1530 C   0  0  0  0  0  0  0  0  0  0  0  0
  140.4120   70.5550  226.0070 C   0  0  0  0  0  0  0  0  0  0  0  0
  140.4950   71.2410  224.8530 N   0  0  0  0  0  0  0  0  0  0  0  0
  139.9440   73.4130  223.4230 H   0  0  0  0  0  0  0  0  0  0  0  0
  140.5569   73.0283  220.4915 H   0  0  0  0  0  0  0  0  0  0  0  0
  139.1372   74.0982  221.0798 H   0  0  0  0  0  0  0  0  0  0  0  0
  143.8729   76.1918  220.1678 H   0  0  0  0  0  0  0  0  0  0  0  0
  143.8753   74.5936  220.8246 H   0  0  0  0  0  0  0  0  0  0  0  0
  144.3640   74.6609  218.2174 H   0  0  0  0  0  0  0  0  0  0  0  0
  143.0016   73.6541  218.5254 H   0  0  0  0  0  0  0  0  0  0  0  0
  143.0875   76.6257  217.6688 H   0  0  0  0  0  0  0  0  0  0  0  0
  141.9431   75.4183  217.1102 H   0  0  0  0  0  0  0  0  0  0  0  0
  140.4954   76.0300  218.8450 H   0  0  0  0  0  0  0  0  0  0  0  0
  141.0179   77.5284  221.4086 H   0  0  0  0  0  0  0  0  0  0  0  0
  141.3150   79.9114  221.9016 H   0  0  0  0  0  0  0  0  0  0  0  0
  142.2409   81.4601  220.1904 H   0  0  0  0  0  0  0  0  0  0  0  0
  143.6550   80.3420  217.1540 H   0  0  0  0  0  0  0  0  0  0  0  0
  142.5549   78.1291  217.4691 H   0  0  0  0  0  0  0  0  0  0  0  0
  138.8918   69.1846  222.6726 H   0  0  0  0  0  0  0  0  0  0  0  0
  138.7135   67.8677  224.8183 H   0  0  0  0  0  0  0  0  0  0  0  0
  139.1630   67.6495  227.1764 H   0  0  0  0  0  0  0  0  0  0  0  0
  140.1388   68.5535  229.2582 H   0  0  0  0  0  0  0  0  0  0  0  0
  141.3032   70.7681  229.2690 H   0  0  0  0  0  0  0  0  0  0  0  0
  141.4712   72.0553  227.1281 H   0  0  0  0  0  0  0  0  0  0  0  0
  1  2  2  0
  2  3  1  0
  3  4  1  0
  4  5  1  0
  5  6  2  0
  5  7  1  0
  7  8  1  0
  8  9  1  0
  9 10  1  0
 10 11  1  0
 11 12  1  0
 12 13  2  0
 13 14  1  0
 14 15  2  0
 15 16  1  0
 16 17  1  0
 16 18  2  0
  2 19  1  0
 19 20  2  0
 20 21  1  0
 21 22  2  0
 22 23  1  0
 23 24  2  0
 24 25  1  0
 25 26  2  0
 26 27  1  0
 27 28  2  0
 11  7  1  0
 18 12  1  0
 28 19  1  0
 27 22  1  0
  3 29  1  0
  4 30  1  0
  4 31  1  0
  8 32  1  0
  8 33  1  0
  9 34  1  0
  9 35  1  0
 10 36  1  0
 10 37  1  0
 11 38  1  6
 13 39  1  0
 14 40  1  0
 15 41  1  0
 17 42  1  0
 18 43  1  0
 20 44  1  0
 21 45  1  0
 23 46  1  0
 24 47  1  0
 25 48  1  0
 26 49  1  0
M  END
>  <smiles>  (10) 
O=C(NCC(=O)N1CCCC1c1cccc(O)c1)c1ccc2ccccc2n1

>  <score_type>  (10) 
oracle

>  <origin>  (10) 
autodockgpu

>  <m_score__min__energy>  (10) 
-9.1899999999999995

>  <m_primary>  (10) 
energy

>  <rmsd>  (10) 
2.606792571071159

>  <m_score__min__rmsd>  (10) 
2.606792571071159

>  <meeko>  (10) 
{"free_energy": -8.16, "intermolecular_energy": -9.95, "internal_energy": -1.34, "cluster_size": 6, "cluster_id": 4, "rank_in_cluster": 1}

>  <energy>  (10) 
-8.56

>  <cluster_rmsd>  (10) 
0.93

>  <cluster>  (10) 
1

$$$$

     RDKit          3D

 49 52  0  0  0  0  0  0  0  0999 V2000
  139.8770   71.8200  221.3300 O   0  0  0  0  0  0  0  0  0  0  0  0
  139.2210   71.9860  222.3890 C   0  0  0  0  0  0  0  0  0  0  0  0
  138.1500   72.9540  222.2970 N   0  0  0  0  0  0  0  0  0  0  0  0
  137.8960   73.6440  221.0760 C   0  0  0  0  0  0  0  0  0  0  0  0
  138.6950   74.8220  220.7450 C   0  0  0  0  0  0  0  0  0  0  0  0
  137.9990   75.7610  220.1720 O   0  0  0  0  0  0  0  0  0  0  0  0
  140.0420   75.1060  220.9350 N   0  0  0  0  0  0  0  0  0  0  0  0
  141.1720   74.4980  221.5880 C   0  0  0  0  0  0  0  0  0  0  0  0
  142.1540   74.4570  220.4060 C   0  0  0  0  0  0  0  0  0  0  0  0
  142.0750   75.9360  219.9940 C   0  0  0  0  0  0  0  0  0  0  0  0
  140.6760   76.3250  220.3450 C   0  0  2  0  0  0  0  0  0  0  0  0
  140.7250   77.4240  221.3580 C   0  0  0  0  0  0  0  0  0  0  0  0
  139.6710   77.6430  222.2430 C   0  0  0  0  0  0  0  0  0  0  0  0
  139.6860   78.6650  223.1700 C   0  0  0  0  0  0  0  0  0  0  0  0
  140.7570   79.5250  223.2630 C   0  0  0  0  0  0  0  0  0  0  0  0
  141.8120   79.3310  222.4000 C   0  0  0  0  0  0  0  0  0  0  0  0
  142.8890   80.2020  222.5000 O   0  0  0  0  0  0  0  0  0  0  0  0
  141.7900   78.2920  221.4620 C   0  0  0  0  0  0  0  0  0  0  0  0
  139.4980   71.2710  223.6290 C   0  0  0  0  0  0  0  0  0  0  0  0
  139.1210   69.9420  223.6740 C   0  0  0  0  0  0  0  0  0  0  0  0
  139.3940   69.2780  224.8700 C   0  0  0  0  0  0  0  0  0  0  0  0
  140.0040   69.9310  225.9260 C   0  0  0  0  0  0  0  0  0  0  0  0
  140.2720   69.2690  227.1090 C   0  0  0  0  0  0  0  0  0  0  0  0
  140.8820   69.9360  228.1540 C   0  0  0  0  0  0  0  0  0  0  0  0
  141.2400   71.2830  228.0440 C   0  0  0  0  0  0  0  0  0  0  0  0
  140.9680   71.9420  226.8560 C   0  0  0  0  0  0  0  0  0  0  0  0
  140.3600   71.2590  225.8270 C   0  0  0  0  0  0  0  0  0  0  0  0
  140.0940   71.8930  224.6720 N   0  0  0  0  0  0  0  0  0  0  0  0
  137.6070   73.0820  223.1910 H   0  0  0  0  0  0  0  0  0  0  0  0
  138.0388   72.9191  220.2611 H   0  0  0  0  0  0  0  0  0  0  0  0
  136.8800   74.0446  221.2075 H   0  0  0  0  0  0  0  0  0  0  0  0
  141.5504   75.1169  222.4149 H   0  0  0  0  0  0  0  0  0  0  0  0
  140.9715   73.5272  222.0648 H   0  0  0  0  0  0  0  0  0  0  0  0
  143.1679   74.1674  220.7192 H   0  0  0  0  0  0  0  0  0  0  0  0
  141.9212   73.7276  219.6162 H   0  0  0  0  0  0  0  0  0  0  0  0
  142.8030   76.5395  220.5559 H   0  0  0  0  0  0  0  0  0  0  0  0
  142.3090   76.0964  218.9312 H   0  0  0  0  0  0  0  0  0  0  0  0
  140.1077   76.6801  219.4727 H   0  0  0  0  0  0  0  0  0  0  0  0
  138.7961   76.9776  222.2011 H   0  0  0  0  0  0  0  0  0  0  0  0
  138.8279   78.7947  223.8459 H   0  0  0  0  0  0  0  0  0  0  0  0
  140.7694   80.3397  224.0020 H   0  0  0  0  0  0  0  0  0  0  0  0
  143.7280   79.9160  221.9800 H   0  0  0  0  0  0  0  0  0  0  0  0
  142.6494   78.1647  220.7873 H   0  0  0  0  0  0  0  0  0  0  0  0
  138.6374   69.4408  222.8225 H   0  0  0  0  0  0  0  0  0  0  0  0
  139.1198   68.2179  224.9751 H   0  0  0  0  0  0  0  0  0  0  0  0
  139.9992   68.2090  227.2189 H   0  0  0  0  0  0  0  0  0  0  0  0
  141.0899   69.3971  229.0901 H   0  0  0  0  0  0  0  0  0  0  0  0
  141.7258   71.8069  228.8804 H   0  0  0  0  0  0  0  0  0  0  0  0
  141.2357   73.0022  226.7361 H   0  0  0  0  0  0  0  0  0  0  0  0
  1  2  2  0
  2  3  1  0
  3  4  1  0
  4  5  1  0
  5  6  2  0
  5  7  1  0
  7  8  1  0
  8  9  1  0
  9 10  1  0
 10 11  1  0
 11 12  1  0
 12 13  2  0
 13 14  1  0
 14 15  2  0
 15 16  1  0
 16 17  1  0
 16 18  2  0
  2 19  1  0
 19 20  2  0
 20 21  1  0
 21 22  2  0
 22 23  1  0
 23 24  2  0
 24 25  1  0
 25 26  2  0
 26 27  1  0
 27 28  2  0
 11  7  1  0
 18 12  1  0
 28 19  1  0
 27 22  1  0
  3 29  1  0
  4 30  1  0
  4 31  1  0
  8 32  1  0
  8 33  1  0
  9 34  1  0
  9 35  1  0
 10 36  1  0
 10 37  1  0
 11 38  1  6
 13 39  1  0
 14 40  1  0
 15 41  1  0
 17 42  1  0
 18 43  1  0
 20 44  1  0
 21 45  1  0
 23 46  1  0
 24 47  1  0
 25 48  1  0
 26 49  1  0
M  END
>  <smiles>  (11) 
O=C(NCC(=O)N1CCCC1c1cccc(O)c1)c1ccc2ccccc2n1

>  <score_type>  (11) 
oracle

>  <origin>  (11) 
autodockgpu

>  <m_score__min__energy>  (11) 
-9.1899999999999995

>  <m_primary>  (11) 
energy

>  <rmsd>  (11) 
3.022747260444135

>  <m_score__min__rmsd>  (11) 
3.022747260444135

>  <meeko>  (11) 
{"free_energy": -7.92, "intermolecular_energy": -9.71, "internal_energy": -1.37, "cluster_size": 11, "cluster_id": 3, "rank_in_cluster": 10}

>  <energy>  (11) 
-8.54

>  <cluster_rmsd>  (11) 
0.96

>  <cluster>  (11) 
1

$$$$

     RDKit          3D

 49 52  0  0  0  0  0  0  0  0999 V2000
  140.3070   71.3390  221.2450 O   0  0  0  0  0  0  0  0  0  0  0  0
  139.9090   71.8680  222.3130 C   0  0  0  0  0  0  0  0  0  0  0  0
  139.3710   73.2040  222.1670 N   0  0  0  0  0  0  0  0  0  0  0  0
  139.3170   73.8300  220.8890 C   0  0  0  0  0  0  0  0  0  0  0  0
  140.0800   75.0560  220.6630 C   0  0  0  0  0  0  0  0  0  0  0  0
  139.6520   76.0580  221.3750 O   0  0  0  0  0  0  0  0  0  0  0  0
  141.1640   75.3270  219.8370 N   0  0  0  0  0  0  0  0  0  0  0  0
  141.4220   75.4250  218.4240 C   0  0  0  0  0  0  0  0  0  0  0  0
  142.0330   76.8340  218.3750 C   0  0  0  0  0  0  0  0  0  0  0  0
  143.1170   76.6490  219.4510 C   0  0  0  0  0  0  0  0  0  0  0  0
  142.5090   75.6640  220.3960 C   0  0  2  0  0  0  0  0  0  0  0  0
  143.3720   74.4430  220.4350 C   0  0  0  0  0  0  0  0  0  0  0  0
  144.7620   74.5380  220.4720 C   0  0  0  0  0  0  0  0  0  0  0  0
  145.5780   73.4260  220.4870 C   0  0  0  0  0  0  0  0  0  0  0  0
  145.0480   72.1550  220.4660 C   0  0  0  0  0  0  0  0  0  0  0  0
  143.6770   72.0330  220.4300 C   0  0  0  0  0  0  0  0  0  0  0  0
  143.1500   70.7480  220.4090 O   0  0  0  0  0  0  0  0  0  0  0  0
  142.8560   73.1660  220.4140 C   0  0  0  0  0  0  0  0  0  0  0  0
  139.9750   71.2110  223.6130 C   0  0  0  0  0  0  0  0  0  0  0  0
  139.5260   69.9060  223.6690 C   0  0  0  0  0  0  0  0  0  0  0  0
  139.5980   69.2960  224.9220 C   0  0  0  0  0  0  0  0  0  0  0  0
  140.0910   69.9780  226.0200 C   0  0  0  0  0  0  0  0  0  0  0  0
  140.1600   69.3710  227.2590 C   0  0  0  0  0  0  0  0  0  0  0  0
  140.6550   70.0660  228.3460 C   0  0  0  0  0  0  0  0  0  0  0  0
  141.0950   71.3870  228.2210 C   0  0  0  0  0  0  0  0  0  0  0  0
  141.0240   71.9920  226.9770 C   0  0  0  0  0  0  0  0  0  0  0  0
  140.5270   71.2810  225.9080 C   0  0  0  0  0  0  0  0  0  0  0  0
  140.4550   71.8630  224.6970 N   0  0  0  0  0  0  0  0  0  0  0  0
  139.0400   73.6360  223.0700 H   0  0  0  0  0  0  0  0  0  0  0  0
  139.6702   73.0915  220.1542 H   0  0  0  0  0  0  0  0  0  0  0  0
  138.2694   74.1536  220.8001 H   0  0  0  0  0  0  0  0  0  0  0  0
  142.1322   74.6576  218.0823 H   0  0  0  0  0  0  0  0  0  0  0  0
  140.5462   75.2717  217.7764 H   0  0  0  0  0  0  0  0  0  0  0  0
  142.4626   77.0656  217.3892 H   0  0  0  0  0  0  0  0  0  0  0  0
  141.3318   77.6651  218.5408 H   0  0  0  0  0  0  0  0  0  0  0  0
  144.0433   76.2510  219.0110 H   0  0  0  0  0  0  0  0  0  0  0  0
  143.3993   77.5929  219.9403 H   0  0  0  0  0  0  0  0  0  0  0  0
  142.4213   76.0627  221.4174 H   0  0  0  0  0  0  0  0  0  0  0  0
  145.2250   75.5357  220.4899 H   0  0  0  0  0  0  0  0  0  0  0  0
  146.6698   73.5565  220.5162 H   0  0  0  0  0  0  0  0  0  0  0  0
  145.6979   71.2676  220.4776 H   0  0  0  0  0  0  0  0  0  0  0  0
  142.1250   70.6980  220.4740 H   0  0  0  0  0  0  0  0  0  0  0  0
  141.7645   73.0327  220.3837 H   0  0  0  0  0  0  0  0  0  0  0  0
  139.1370   69.3817  222.7836 H   0  0  0  0  0  0  0  0  0  0  0  0
  139.2574   68.2566  225.0385 H   0  0  0  0  0  0  0  0  0  0  0  0
  139.8201   68.3319  227.3806 H   0  0  0  0  0  0  0  0  0  0  0  0
  140.7037   69.5710  229.3271 H   0  0  0  0  0  0  0  0  0  0  0  0
  141.4886   71.9335  229.0907 H   0  0  0  0  0  0  0  0  0  0  0  0
  141.3615   73.0305  226.8445 H   0  0  0  0  0  0  0  0  0  0  0  0
  1  2  2  0
  2  3  1  0
  3  4  1  0
  4  5  1  0
  5  6  2  0
  5  7  1  0
  7  8  1  0
  8  9  1  0
  9 10  1  0
 10 11  1  0
 11 12  1  0
 12 13  2  0
 13 14  1  0
 14 15  2  0
 15 16  1  0
 16 17  1  0
 16 18  2  0
  2 19  1  0
 19 20  2  0
 20 21  1  0
 21 22  2  0
 22 23  1  0
 23 24  2  0
 24 25  1  0
 25 26  2  0
 26 27  1  0
 27 28  2  0
 11  7  1  0
 18 12  1  0
 28 19  1  0
 27 22  1  0
  3 29  1  0
  4 30  1  0
  4 31  1  0
  8 32  1  0
  8 33  1  0
  9 34  1  0
  9 35  1  0
 10 36  1  0
 10 37  1  0
 11 38  1  1
 13 39  1  0
 14 40  1  0
 15 41  1  0
 17 42  1  0
 18 43  1  0
 20 44  1  0
 21 45  1  0
 23 46  1  0
 24 47  1  0
 25 48  1  0
 26 49  1  0
M  END
>  <smiles>  (12) 
O=C(NCC(=O)N1CCCC1c1cccc(O)c1)c1ccc2ccccc2n1

>  <score_type>  (12) 
oracle

>  <origin>  (12) 
autodockgpu

>  <m_score__min__energy>  (12) 
-9.1899999999999995

>  <m_primary>  (12) 
energy

>  <rmsd>  (12) 
2.5934338316562684

>  <m_score__min__rmsd>  (12) 
2.5934338316562684

>  <meeko>  (12) 
{"free_energy": -7.64, "intermolecular_energy": -9.43, "internal_energy": -2.22, "cluster_size": 13, "cluster_id": 2, "rank_in_cluster": 12}

>  <energy>  (12) 
-8.53

>  <cluster_rmsd>  (12) 
1.81

>  <cluster>  (12) 
1

$$$$

     RDKit          3D

 49 52  0  0  0  0  0  0  0  0999 V2000
  137.6520   75.6970  222.2880 O   0  0  0  0  0  0  0  0  0  0  0  0
  138.8710   75.9880  222.3830 C   0  0  0  0  0  0  0  0  0  0  0  0
  139.7800   74.8790  222.1850 N   0  0  0  0  0  0  0  0  0  0  0  0
  139.2830   73.5730  221.9070 C   0  0  0  0  0  0  0  0  0  0  0  0
  139.7540   72.4450  222.7090 C   0  0  0  0  0  0  0  0  0  0  0  0
  141.0520   72.3950  222.7980 O   0  0  0  0  0  0  0  0  0  0  0  0
  139.0690   71.4410  223.3800 N   0  0  0  0  0  0  0  0  0  0  0  0
  137.7190   71.1830  223.8120 C   0  0  0  0  0  0  0  0  0  0  0  0
  137.5000   69.8130  223.1530 C   0  0  0  0  0  0  0  0  0  0  0  0
  138.7440   69.0950  223.7010 C   0  0  0  0  0  0  0  0  0  0  0  0
  139.7540   70.1900  223.8280 C   0  0  2  0  0  0  0  0  0  0  0  0
  140.1560   70.3050  225.2630 C   0  0  0  0  0  0  0  0  0  0  0  0
  140.6600   71.4960  225.7820 C   0  0  0  0  0  0  0  0  0  0  0  0
  141.0580   71.6190  227.0970 C   0  0  0  0  0  0  0  0  0  0  0  0
  140.9730   70.5550  227.9680 C   0  0  0  0  0  0  0  0  0  0  0  0
  140.4780   69.3660  227.4810 C   0  0  0  0  0  0  0  0  0  0  0  0
  140.3950   68.2980  228.3650 O   0  0  0  0  0  0  0  0  0  0  0  0
  140.0770   69.2500  226.1450 C   0  0  0  0  0  0  0  0  0  0  0  0
  139.3600   77.3310  222.6700 C   0  0  0  0  0  0  0  0  0  0  0  0
  138.4030   78.3040  222.8860 C   0  0  0  0  0  0  0  0  0  0  0  0
  138.8920   79.5820  223.1580 C   0  0  0  0  0  0  0  0  0  0  0  0
  140.2530   79.8310  223.2040 C   0  0  0  0  0  0  0  0  0  0  0  0
  140.7330   81.0980  223.4730 C   0  0  0  0  0  0  0  0  0  0  0  0
  142.0950   81.3290  223.5150 C   0  0  0  0  0  0  0  0  0  0  0  0
  143.0120   80.2990  223.2880 C   0  0  0  0  0  0  0  0  0  0  0  0
  142.5250   79.0300  223.0170 C   0  0  0  0  0  0  0  0  0  0  0  0
  141.1650   78.8210  222.9810 C   0  0  0  0  0  0  0  0  0  0  0  0
  140.6860   77.5920  222.7190 N   0  0  0  0  0  0  0  0  0  0  0  0
  140.7980   75.1360  222.2670 H   0  0  0  0  0  0  0  0  0  0  0  0
  138.1897   73.6142  222.0211 H   0  0  0  0  0  0  0  0  0  0  0  0
  139.6670   73.3560  220.8993 H   0  0  0  0  0  0  0  0  0  0  0  0
  137.6421   71.1283  224.9079 H   0  0  0  0  0  0  0  0  0  0  0  0
  136.9847   71.9559  223.5410 H   0  0  0  0  0  0  0  0  0  0  0  0
  136.5661   69.3371  223.4867 H   0  0  0  0  0  0  0  0  0  0  0  0
  137.3966   69.8208  222.0579 H   0  0  0  0  0  0  0  0  0  0  0  0
  138.5347   68.6382  224.6795 H   0  0  0  0  0  0  0  0  0  0  0  0
  139.0834   68.2732  223.0533 H   0  0  0  0  0  0  0  0  0  0  0  0
  140.6561   70.0008  223.2277 H   0  0  0  0  0  0  0  0  0  0  0  0
  140.7435   72.3698  225.1190 H   0  0  0  0  0  0  0  0  0  0  0  0
  141.4496   72.5822  227.4560 H   0  0  0  0  0  0  0  0  0  0  0  0
  141.2898   70.6520  229.0169 H   0  0  0  0  0  0  0  0  0  0  0  0
  140.3050   67.3750  227.9220 H   0  0  0  0  0  0  0  0  0  0  0  0
  139.6863   68.2856  225.7881 H   0  0  0  0  0  0  0  0  0  0  0  0
  137.3257   78.0852  222.8461 H   0  0  0  0  0  0  0  0  0  0  0  0
  138.1848   80.4049  223.3388 H   0  0  0  0  0  0  0  0  0  0  0  0
  140.0301   81.9245  223.6541 H   0  0  0  0  0  0  0  0  0  0  0  0
  142.4642   82.3424  223.7311 H   0  0  0  0  0  0  0  0  0  0  0  0
  144.0945   80.4909  223.3236 H   0  0  0  0  0  0  0  0  0  0  0  0
  143.2193   78.1971  222.8323 H   0  0  0  0  0  0  0  0  0  0  0  0
  1  2  2  0
  2  3  1  0
  3  4  1  0
  4  5  1  0
  5  6  2  0
  5  7  1  0
  7  8  1  0
  8  9  1  0
  9 10  1  0
 10 11  1  0
 11 12  1  0
 12 13  2  0
 13 14  1  0
 14 15  2  0
 15 16  1  0
 16 17  1  0
 16 18  2  0
  2 19  1  0
 19 20  2  0
 20 21  1  0
 21 22  2  0
 22 23  1  0
 23 24  2  0
 24 25  1  0
 25 26  2  0
 26 27  1  0
 27 28  2  0
 11  7  1  0
 18 12  1  0
 28 19  1  0
 27 22  1  0
  3 29  1  0
  4 30  1  0
  4 31  1  0
  8 32  1  0
  8 33  1  0
  9 34  1  0
  9 35  1  0
 10 36  1  0
 10 37  1  0
 11 38  1  6
 13 39  1  0
 14 40  1  0
 15 41  1  0
 17 42  1  0
 18 43  1  0
 20 44  1  0
 21 45  1  0
 23 46  1  0
 24 47  1  0
 25 48  1  0
 26 49  1  0
M  END
>  <smiles>  (13) 
O=C(NCC(=O)N1CCCC1c1cccc(O)c1)c1ccc2ccccc2n1

>  <score_type>  (13) 
oracle

>  <origin>  (13) 
autodockgpu

>  <m_score__min__energy>  (13) 
-9.1899999999999995

>  <m_primary>  (13) 
energy

>  <rmsd>  (13) 
9.093498501025934

>  <m_score__min__rmsd>  (13) 
9.093498501025934

>  <meeko>  (13) 
{"free_energy": -8.53, "intermolecular_energy": -10.32, "internal_energy": -1.47, "cluster_size": 16, "cluster_id": 1, "rank_in_cluster": 12}

>  <energy>  (13) 
-8.53

>  <cluster_rmsd>  (13) 
1.83

>  <cluster>  (13) 
1

$$$$

     RDKit          3D

 49 52  0  0  0  0  0  0  0  0999 V2000
  139.7340   71.2520  221.2320 O   0  0  0  0  0  0  0  0  0  0  0  0
  139.6120   71.8620  222.3250 C   0  0  0  0  0  0  0  0  0  0  0  0
  139.3090   73.2720  222.2050 N   0  0  0  0  0  0  0  0  0  0  0  0
  139.1690   73.8790  220.9230 C   0  0  0  0  0  0  0  0  0  0  0  0
  139.9550   75.0700  220.6100 C   0  0  0  0  0  0  0  0  0  0  0  0
  139.4660   76.1540  221.1410 O   0  0  0  0  0  0  0  0  0  0  0  0
  141.1110   75.2400  219.8590 N   0  0  0  0  0  0  0  0  0  0  0  0
  141.4560   75.5120  218.4870 C   0  0  0  0  0  0  0  0  0  0  0  0
  142.3430   76.7500  218.6900 C   0  0  0  0  0  0  0  0  0  0  0  0
  143.3110   76.1680  219.7340 C   0  0  0  0  0  0  0  0  0  0  0  0
  142.4670   75.1910  220.4880 C   0  0  2  0  0  0  0  0  0  0  0  0
  143.0600   73.8270  220.3310 C   0  0  0  0  0  0  0  0  0  0  0  0
  142.2640   72.6830  220.3480 C   0  0  0  0  0  0  0  0  0  0  0  0
  142.7920   71.4140  220.2270 C   0  0  0  0  0  0  0  0  0  0  0  0
  144.1470   71.2190  220.0830 C   0  0  0  0  0  0  0  0  0  0  0  0
  144.9570   72.3320  220.0630 C   0  0  0  0  0  0  0  0  0  0  0  0
  146.3230   72.1280  219.9180 O   0  0  0  0  0  0  0  0  0  0  0  0
  144.4140   73.6170  220.1870 C   0  0  0  0  0  0  0  0  0  0  0  0
  139.7620   71.2220  223.6270 C   0  0  0  0  0  0  0  0  0  0  0  0
  139.3000   69.9240  223.7340 C   0  0  0  0  0  0  0  0  0  0  0  0
  139.4530   69.3320  224.9890 C   0  0  0  0  0  0  0  0  0  0  0  0
  140.0310   70.0230  226.0380 C   0  0  0  0  0  0  0  0  0  0  0  0
  140.1800   69.4330  227.2790 C   0  0  0  0  0  0  0  0  0  0  0  0
  140.7600   70.1370  228.3170 C   0  0  0  0  0  0  0  0  0  0  0  0
  141.2070   71.4500  228.1410 C   0  0  0  0  0  0  0  0  0  0  0  0
  141.0560   72.0370  226.8950 C   0  0  0  0  0  0  0  0  0  0  0  0
  140.4750   71.3180  225.8750 C   0  0  0  0  0  0  0  0  0  0  0  0
  140.3250   71.8830  224.6640 N   0  0  0  0  0  0  0  0  0  0  0  0
  139.2090   73.7710  223.1270 H   0  0  0  0  0  0  0  0  0  0  0  0
  139.4303   73.1156  220.1754 H   0  0  0  0  0  0  0  0  0  0  0  0
  138.1303   74.2411  220.9164 H   0  0  0  0  0  0  0  0  0  0  0  0
  142.0115   74.6794  218.0306 H   0  0  0  0  0  0  0  0  0  0  0  0
  140.6019   75.6538  217.8084 H   0  0  0  0  0  0  0  0  0  0  0  0
  142.8598   77.0458  217.7651 H   0  0  0  0  0  0  0  0  0  0  0  0
  141.8182   77.6704  218.9858 H   0  0  0  0  0  0  0  0  0  0  0  0
  144.1572   75.6619  219.2462 H   0  0  0  0  0  0  0  0  0  0  0  0
  143.7559   76.9381  220.3813 H   0  0  0  0  0  0  0  0  0  0  0  0
  142.4104   75.4263  221.5611 H   0  0  0  0  0  0  0  0  0  0  0  0
  141.1758   72.7959  220.4620 H   0  0  0  0  0  0  0  0  0  0  0  0
  142.1192   70.5440  220.2459 H   0  0  0  0  0  0  0  0  0  0  0  0
  144.5686   70.2075  219.9871 H   0  0  0  0  0  0  0  0  0  0  0  0
  146.7530   71.5390  220.6420 H   0  0  0  0  0  0  0  0  0  0  0  0
  145.0892   74.4852  220.1689 H   0  0  0  0  0  0  0  0  0  0  0  0
  138.8422   69.3926  222.8866 H   0  0  0  0  0  0  0  0  0  0  0  0
  139.1082   68.2993  225.1459 H   0  0  0  0  0  0  0  0  0  0  0  0
  139.8361   68.4007  227.4407 H   0  0  0  0  0  0  0  0  0  0  0  0
  140.8721   69.6556  229.2997 H   0  0  0  0  0  0  0  0  0  0  0  0
  141.6677   72.0040  228.9722 H   0  0  0  0  0  0  0  0  0  0  0  0
  141.3973   73.0684  226.7224 H   0  0  0  0  0  0  0  0  0  0  0  0
  1  2  2  0
  2  3  1  0
  3  4  1  0
  4  5  1  0
  5  6  2  0
  5  7  1  0
  7  8  1  0
  8  9  1  0
  9 10  1  0
 10 11  1  0
 11 12  1  0
 12 13  2  0
 13 14  1  0
 14 15  2  0
 15 16  1  0
 16 17  1  0
 16 18  2  0
  2 19  1  0
 19 20  2  0
 20 21  1  0
 21 22  2  0
 22 23  1  0
 23 24  2  0
 24 25  1  0
 25 26  2  0
 26 27  1  0
 27 28  2  0
 11  7  1  0
 18 12  1  0
 28 19  1  0
 27 22  1  0
  3 29  1  0
  4 30  1  0
  4 31  1  0
  8 32  1  0
  8 33  1  0
  9 34  1  0
  9 35  1  0
 10 36  1  0
 10 37  1  0
 11 38  1  1
 13 39  1  0
 14 40  1  0
 15 41  1  0
 17 42  1  0
 18 43  1  0
 20 44  1  0
 21 45  1  0
 23 46  1  0
 24 47  1  0
 25 48  1  0
 26 49  1  0
M  END
>  <smiles>  (14) 
O=C(NCC(=O)N1CCCC1c1cccc(O)c1)c1ccc2ccccc2n1

>  <score_type>  (14) 
oracle

>  <origin>  (14) 
autodockgpu

>  <m_score__min__energy>  (14) 
-9.1899999999999995

>  <m_primary>  (14) 
energy

>  <rmsd>  (14) 
2.8747034440970145

>  <m_score__min__rmsd>  (14) 
2.8747034440970145

>  <meeko>  (14) 
{"free_energy": -8.18, "intermolecular_energy": -9.97, "internal_energy": -1.65, "cluster_size": 13, "cluster_id": 2, "rank_in_cluster": 11}

>  <energy>  (14) 
-8.51

>  <cluster_rmsd>  (14) 
1.85

>  <cluster>  (14) 
1

$$$$

     RDKit          3D

 49 52  0  0  0  0  0  0  0  0999 V2000
  140.9900   75.0130  221.2280 O   0  0  0  0  0  0  0  0  0  0  0  0
  140.1380   75.5780  221.9590 C   0  0  0  0  0  0  0  0  0  0  0  0
  139.0210   74.7450  222.3490 N   0  0  0  0  0  0  0  0  0  0  0  0
  138.9370   73.3910  221.9110 C   0  0  0  0  0  0  0  0  0  0  0  0
  139.5090   72.3360  222.7450 C   0  0  0  0  0  0  0  0  0  0  0  0
  140.8000   72.4360  222.8730 O   0  0  0  0  0  0  0  0  0  0  0  0
  138.9210   71.2680  223.4120 N   0  0  0  0  0  0  0  0  0  0  0  0
  137.6040   70.8860  223.8500 C   0  0  0  0  0  0  0  0  0  0  0  0
  137.5050   69.5060  223.1800 C   0  0  0  0  0  0  0  0  0  0  0  0
  138.8130   68.9000  223.7150 C   0  0  0  0  0  0  0  0  0  0  0  0
  139.7200   70.0810  223.8450 C   0  0  2  0  0  0  0  0  0  0  0  0
  140.1200   70.2210  225.2790 C   0  0  0  0  0  0  0  0  0  0  0  0
  140.6450   71.4130  225.7720 C   0  0  0  0  0  0  0  0  0  0  0  0
  141.0410   71.5590  227.0860 C   0  0  0  0  0  0  0  0  0  0  0  0
  140.9330   70.5170  227.9800 C   0  0  0  0  0  0  0  0  0  0  0  0
  140.4180   69.3270  227.5180 C   0  0  0  0  0  0  0  0  0  0  0  0
  140.3120   68.2810  228.4250 O   0  0  0  0  0  0  0  0  0  0  0  0
  140.0190   69.1870  226.1830 C   0  0  0  0  0  0  0  0  0  0  0  0
  140.2420   76.9660  222.3940 C   0  0  0  0  0  0  0  0  0  0  0  0
  139.0540   77.6230  222.6520 C   0  0  0  0  0  0  0  0  0  0  0  0
  139.1760   78.9500  223.0660 C   0  0  0  0  0  0  0  0  0  0  0  0
  140.4190   79.5440  223.2020 C   0  0  0  0  0  0  0  0  0  0  0  0
  140.5350   80.8580  223.6130 C   0  0  0  0  0  0  0  0  0  0  0  0
  141.7840   81.4360  223.7440 C   0  0  0  0  0  0  0  0  0  0  0  0
  142.9490   80.7140  223.4680 C   0  0  0  0  0  0  0  0  0  0  0  0
  142.8270   79.3960  223.0560 C   0  0  0  0  0  0  0  0  0  0  0  0
  141.5740   78.8400  222.9320 C   0  0  0  0  0  0  0  0  0  0  0  0
  141.4480   77.5620  222.5330 N   0  0  0  0  0  0  0  0  0  0  0  0
  138.3150   75.2300  222.9620 H   0  0  0  0  0  0  0  0  0  0  0  0
  137.8690   73.1590  221.7865 H   0  0  0  0  0  0  0  0  0  0  0  0
  139.5559   73.3708  221.0018 H   0  0  0  0  0  0  0  0  0  0  0  0
  137.5402   70.8158  224.9459 H   0  0  0  0  0  0  0  0  0  0  0  0
  136.8010   71.5915  223.5904 H   0  0  0  0  0  0  0  0  0  0  0  0
  136.6204   68.9448  223.5153 H   0  0  0  0  0  0  0  0  0  0  0  0
  137.3936   69.5127  222.0857 H   0  0  0  0  0  0  0  0  0  0  0  0
  138.6525   68.4187  224.6910 H   0  0  0  0  0  0  0  0  0  0  0  0
  139.2215   68.1175  223.0586 H   0  0  0  0  0  0  0  0  0  0  0  0
  140.6314   69.9793  223.2375 H   0  0  0  0  0  0  0  0  0  0  0  0
  140.7478   72.2693  225.0892 H   0  0  0  0  0  0  0  0  0  0  0  0
  141.4493   72.5227  227.4245 H   0  0  0  0  0  0  0  0  0  0  0  0
  141.2476   70.6318  229.0278 H   0  0  0  0  0  0  0  0  0  0  0  0
  140.3120   67.3420  228.0070 H   0  0  0  0  0  0  0  0  0  0  0  0
  139.6126   68.2219  225.8462 H   0  0  0  0  0  0  0  0  0  0  0  0
  138.0762   77.1321  222.5384 H   0  0  0  0  0  0  0  0  0  0  0  0
  138.2701   79.5333  223.2878 H   0  0  0  0  0  0  0  0  0  0  0  0
  139.6321   81.4452  223.8364 H   0  0  0  0  0  0  0  0  0  0  0  0
  141.8626   82.4832  224.0714 H   0  0  0  0  0  0  0  0  0  0  0  0
  143.9392   81.1808  223.5753 H   0  0  0  0  0  0  0  0  0  0  0  0
  143.7235   78.7999  222.8302 H   0  0  0  0  0  0  0  0  0  0  0  0
  1  2  2  0
  2  3  1  0
  3  4  1  0
  4  5  1  0
  5  6  2  0
  5  7  1  0
  7  8  1  0
  8  9  1  0
  9 10  1  0
 10 11  1  0
 11 12  1  0
 12 13  2  0
 13 14  1  0
 14 15  2  0
 15 16  1  0
 16 17  1  0
 16 18  2  0
  2 19  1  0
 19 20  2  0
 20 21  1  0
 21 22  2  0
 22 23  1  0
 23 24  2  0
 24 25  1  0
 25 26  2  0
 26 27  1  0
 27 28  2  0
 11  7  1  0
 18 12  1  0
 28 19  1  0
 27 22  1  0
  3 29  1  0
  4 30  1  0
  4 31  1  0
  8 32  1  0
  8 33  1  0
  9 34  1  0
  9 35  1  0
 10 36  1  0
 10 37  1  0
 11 38  1  6
 13 39  1  0
 14 40  1  0
 15 41  1  0
 17 42  1  0
 18 43  1  0
 20 44  1  0
 21 45  1  0
 23 46  1  0
 24 47  1  0
 25 48  1  0
 26 49  1  0
M  END
>  <smiles>  (15) 
O=C(NCC(=O)N1CCCC1c1cccc(O)c1)c1ccc2ccccc2n1

>  <score_type>  (15) 
oracle

>  <origin>  (15) 
autodockgpu

>  <m_score__min__energy>  (15) 
-9.1899999999999995

>  <m_primary>  (15) 
energy

>  <rmsd>  (15) 
9.019913954039772

>  <m_score__min__rmsd>  (15) 
9.019913954039772

>  <meeko>  (15) 
{"free_energy": -9.16, "intermolecular_energy": -10.95, "internal_energy": -1.06, "cluster_size": 16, "cluster_id": 1, "rank_in_cluster": 2}

>  <energy>  (15) 
-8.32

>  <cluster_rmsd>  (15) 
1.77

>  <cluster>  (15) 
1

$$$$

     RDKit          3D

 49 52  0  0  0  0  0  0  0  0999 V2000
  137.8410   75.3150  222.3100 O   0  0  0  0  0  0  0  0  0  0  0  0
  139.0290   75.7250  222.3070 C   0  0  0  0  0  0  0  0  0  0  0  0
  140.0170   74.7260  221.9600 N   0  0  0  0  0  0  0  0  0  0  0  0
  139.6250   73.3910  221.6530 C   0  0  0  0  0  0  0  0  0  0  0  0
  139.9140   72.3260  222.6110 C   0  0  0  0  0  0  0  0  0  0  0  0
  141.1890   72.1270  222.7790 O   0  0  0  0  0  0  0  0  0  0  0  0
  139.0760   71.5080  223.3590 N   0  0  0  0  0  0  0  0  0  0  0  0
  137.6930   71.4870  223.7590 C   0  0  0  0  0  0  0  0  0  0  0  0
  137.3030   70.0920  223.2460 C   0  0  0  0  0  0  0  0  0  0  0  0
  138.4200   69.2800  223.9240 C   0  0  0  0  0  0  0  0  0  0  0  0
  139.5680   70.2350  223.9720 C   0  0  2  0  0  0  0  0  0  0  0  0
  139.9430   70.4610  225.4010 C   0  0  0  0  0  0  0  0  0  0  0  0
  139.5370   69.5840  226.4050 C   0  0  0  0  0  0  0  0  0  0  0  0
  139.8530   69.7840  227.7330 C   0  0  0  0  0  0  0  0  0  0  0  0
  140.5940   70.8750  228.1310 C   0  0  0  0  0  0  0  0  0  0  0  0
  141.0090   71.7570  227.1590 C   0  0  0  0  0  0  0  0  0  0  0  0
  141.7560   72.8540  227.5670 O   0  0  0  0  0  0  0  0  0  0  0  0
  140.6830   71.5470  225.8130 C   0  0  0  0  0  0  0  0  0  0  0  0
  139.4110   77.0960  222.6260 C   0  0  0  0  0  0  0  0  0  0  0  0
  138.3800   77.9900  222.8400 C   0  0  0  0  0  0  0  0  0  0  0  0
  138.7670   79.2960  223.1430 C   0  0  0  0  0  0  0  0  0  0  0  0
  140.1040   79.6440  223.2180 C   0  0  0  0  0  0  0  0  0  0  0  0
  140.4830   80.9390  223.5180 C   0  0  0  0  0  0  0  0  0  0  0  0
  141.8230   81.2700  223.5900 C   0  0  0  0  0  0  0  0  0  0  0  0
  142.8190   80.3150  223.3630 C   0  0  0  0  0  0  0  0  0  0  0  0
  142.4330   79.0190  223.0620 C   0  0  0  0  0  0  0  0  0  0  0  0
  141.0940   78.7100  222.9960 C   0  0  0  0  0  0  0  0  0  0  0  0
  140.7130   77.4530  222.7040 N   0  0  0  0  0  0  0  0  0  0  0  0
  141.0090   75.0830  221.9600 H   0  0  0  0  0  0  0  0  0  0  0  0
  138.5353   73.4021  221.5036 H   0  0  0  0  0  0  0  0  0  0  0  0
  140.2405   73.1315  220.7791 H   0  0  0  0  0  0  0  0  0  0  0  0
  137.5799   71.5696  224.8500 H   0  0  0  0  0  0  0  0  0  0  0  0
  137.0811   72.3160  223.3738 H   0  0  0  0  0  0  0  0  0  0  0  0
  136.3030   69.7886  223.5894 H   0  0  0  0  0  0  0  0  0  0  0  0
  137.2318   69.9873  222.1533 H   0  0  0  0  0  0  0  0  0  0  0  0
  138.1223   68.9723  224.9373 H   0  0  0  0  0  0  0  0  0  0  0  0
  138.6592   68.3503  223.3869 H   0  0  0  0  0  0  0  0  0  0  0  0
  140.4506   69.8565  223.4356 H   0  0  0  0  0  0  0  0  0  0  0  0
  138.9431   68.7003  226.1287 H   0  0  0  0  0  0  0  0  0  0  0  0
  139.5077   69.0606  228.4862 H   0  0  0  0  0  0  0  0  0  0  0  0
  140.8455   71.0359  229.1897 H   0  0  0  0  0  0  0  0  0  0  0  0
  142.2470   73.3500  226.8130 H   0  0  0  0  0  0  0  0  0  0  0  0
  141.0288   72.2721  225.0616 H   0  0  0  0  0  0  0  0  0  0  0  0
  137.3231   77.6919  222.7758 H   0  0  0  0  0  0  0  0  0  0  0  0
  137.9973   80.0605  223.3250 H   0  0  0  0  0  0  0  0  0  0  0  0
  139.7170   81.7073  223.6997 H   0  0  0  0  0  0  0  0  0  0  0  0
  142.1114   82.3040  223.8303 H   0  0  0  0  0  0  0  0  0  0  0  0
  143.8834   80.5863  223.4220 H   0  0  0  0  0  0  0  0  0  0  0  0
  143.1909   78.2434  222.8773 H   0  0  0  0  0  0  0  0  0  0  0  0
  1  2  2  0
  2  3  1  0
  3  4  1  0
  4  5  1  0
  5  6  2  0
  5  7  1  0
  7  8  1  0
  8  9  1  0
  9 10  1  0
 10 11  1  0
 11 12  1  0
 12 13  2  0
 13 14  1  0
 14 15  2  0
 15 16  1  0
 16 17  1  0
 16 18  2  0
  2 19  1  0
 19 20  2  0
 20 21  1  0
 21 22  2  0
 22 23  1  0
 23 24  2  0
 24 25  1  0
 25 26  2  0
 26 27  1  0
 27 28  2  0
 11  7  1  0
 18 12  1  0
 28 19  1  0
 27 22  1  0
  3 29  1  0
  4 30  1  0
  4 31  1  0
  8 32  1  0
  8 33  1  0
  9 34  1  0
  9 35  1  0
 10 36  1  0
 10 37  1  0
 11 38  1  6
 13 39  1  0
 14 40  1  0
 15 41  1  0
 17 42  1  0
 18 43  1  0
 20 44  1  0
 21 45  1  0
 23 46  1  0
 24 47  1  0
 25 48  1  0
 26 49  1  0
M  END
>  <smiles>  (16) 
O=C(NCC(=O)N1CCCC1c1cccc(O)c1)c1ccc2ccccc2n1

>  <score_type>  (16) 
oracle

>  <origin>  (16) 
autodockgpu

>  <m_score__min__energy>  (16) 
-9.1899999999999995

>  <m_primary>  (16) 
energy

>  <rmsd>  (16) 
8.580672789889107

>  <m_score__min__rmsd>  (16) 
8.580672789889107

>  <meeko>  (16) 
{"free_energy": -8.15, "intermolecular_energy": -9.94, "internal_energy": -1.44, "cluster_size": 16, "cluster_id": 1, "rank_in_cluster": 16}

>  <energy>  (16) 
-8.15

>  <cluster_rmsd>  (16) 
0.97

>  <cluster>  (16) 
1

$$$$

     RDKit          3D

 49 52  0  0  0  0  0  0  0  0999 V2000
  141.0400   74.9950  220.9080 O   0  0  0  0  0  0  0  0  0  0  0  0
  140.2660   75.4150  221.8040 C   0  0  0  0  0  0  0  0  0  0  0  0
  139.3510   74.4260  222.3320 N   0  0  0  0  0  0  0  0  0  0  0  0
  139.3650   73.0880  221.8410 C   0  0  0  0  0  0  0  0  0  0  0  0
  139.7800   72.0060  222.7310 C   0  0  0  0  0  0  0  0  0  0  0  0
  141.0700   71.8330  222.7520 O   0  0  0  0  0  0  0  0  0  0  0  0
  139.0480   71.1500  223.5450 N   0  0  0  0  0  0  0  0  0  0  0  0
  137.6770   70.9900  223.9550 C   0  0  0  0  0  0  0  0  0  0  0  0
  137.4620   69.5230  223.5520 C   0  0  0  0  0  0  0  0  0  0  0  0
  138.6690   68.9080  224.2800 C   0  0  0  0  0  0  0  0  0  0  0  0
  139.6910   69.9980  224.2480 C   0  0  2  0  0  0  0  0  0  0  0  0
  140.0330   70.3750  225.6540 C   0  0  0  0  0  0  0  0  0  0  0  0
  139.5870   69.6210  226.7360 C   0  0  0  0  0  0  0  0  0  0  0  0
  139.8720   69.9610  228.0430 C   0  0  0  0  0  0  0  0  0  0  0  0
  140.6210   71.0790  228.3370 C   0  0  0  0  0  0  0  0  0  0  0  0
  141.0750   71.8430  227.2860 C   0  0  0  0  0  0  0  0  0  0  0  0
  141.8290   72.9680  227.5910 O   0  0  0  0  0  0  0  0  0  0  0  0
  140.7810   71.4900  225.9630 C   0  0  0  0  0  0  0  0  0  0  0  0
  140.2660   76.7890  222.2920 C   0  0  0  0  0  0  0  0  0  0  0  0
  139.0320   77.3500  222.5600 C   0  0  0  0  0  0  0  0  0  0  0  0
  139.0560   78.6660  223.0250 C   0  0  0  0  0  0  0  0  0  0  0  0
  140.2510   79.3410  223.1970 C   0  0  0  0  0  0  0  0  0  0  0  0
  140.2700   80.6430  223.6570 C   0  0  0  0  0  0  0  0  0  0  0  0
  141.4720   81.3030  223.8240 C   0  0  0  0  0  0  0  0  0  0  0  0
  142.6890   80.6770  223.5340 C   0  0  0  0  0  0  0  0  0  0  0  0
  142.6640   79.3700  223.0730 C   0  0  0  0  0  0  0  0  0  0  0  0
  141.4560   78.7320  222.9140 C   0  0  0  0  0  0  0  0  0  0  0  0
  141.4250   77.4640  222.4660 N   0  0  0  0  0  0  0  0  0  0  0  0
  138.7080   74.7900  223.0830 H   0  0  0  0  0  0  0  0  0  0  0  0
  138.3420   72.8567  221.5093 H   0  0  0  0  0  0  0  0  0  0  0  0
  140.1450   73.1023  221.0655 H   0  0  0  0  0  0  0  0  0  0  0  0
  137.5520   71.1408  225.0374 H   0  0  0  0  0  0  0  0  0  0  0  0
  136.9690   71.7060  223.5122 H   0  0  0  0  0  0  0  0  0  0  0  0
  136.5064   69.1263  223.9255 H   0  0  0  0  0  0  0  0  0  0  0  0
  137.4056   69.3277  222.4709 H   0  0  0  0  0  0  0  0  0  0  0  0
  138.4098   68.6429  225.3156 H   0  0  0  0  0  0  0  0  0  0  0  0
  139.0218   67.9772  223.8119 H   0  0  0  0  0  0  0  0  0  0  0  0
  140.6147   69.6918  223.7352 H   0  0  0  0  0  0  0  0  0  0  0  0
  138.9852   68.7209  226.5421 H   0  0  0  0  0  0  0  0  0  0  0  0
  139.4955   69.3301  228.8617 H   0  0  0  0  0  0  0  0  0  0  0  0
  140.8489   71.3523  229.3779 H   0  0  0  0  0  0  0  0  0  0  0  0
  141.4220   73.8600  227.2840 H   0  0  0  0  0  0  0  0  0  0  0  0
  141.1587   72.1221  225.1458 H   0  0  0  0  0  0  0  0  0  0  0  0
  138.0926   76.7961  222.4164 H   0  0  0  0  0  0  0  0  0  0  0  0
  138.1090   79.1746  223.2585 H   0  0  0  0  0  0  0  0  0  0  0  0
  139.3255   81.1559  223.8910 H   0  0  0  0  0  0  0  0  0  0  0  0
  141.4722   82.3397  224.1917 H   0  0  0  0  0  0  0  0  0  0  0  0
  143.6424   81.2089  223.6685 H   0  0  0  0  0  0  0  0  0  0  0  0
  143.6025   78.8474  222.8363 H   0  0  0  0  0  0  0  0  0  0  0  0
  1  2  2  0
  2  3  1  0
  3  4  1  0
  4  5  1  0
  5  6  2  0
  5  7  1  0
  7  8  1  0
  8  9  1  0
  9 10  1  0
 10 11  1  0
 11 12  1  0
 12 13  2  0
 13 14  1  0
 14 15  2  0
 15 16  1  0
 16 17  1  0
 16 18  2  0
  2 19  1  0
 19 20  2  0
 20 21  1  0
 21 22  2  0
 22 23  1  0
 23 24  2  0
 24 25  1  0
 25 26  2  0
 26 27  1  0
 27 28  2  0
 11  7  1  0
 18 12  1  0
 28 19  1  0
 27 22  1  0
  3 29  1  0
  4 30  1  0
  4 31  1  0
  8 32  1  0
  8 33  1  0
  9 34  1  0
  9 35  1  0
 10 36  1  0
 10 37  1  0
 11 38  1  6
 13 39  1  0
 14 40  1  0
 15 41  1  0
 17 42  1  0
 18 43  1  0
 20 44  1  0
 21 45  1  0
 23 46  1  0
 24 47  1  0
 25 48  1  0
 26 49  1  0
M  END
>  <smiles>  (17) 
O=C(NCC(=O)N1CCCC1c1cccc(O)c1)c1ccc2ccccc2n1

>  <score_type>  (17) 
oracle

>  <origin>  (17) 
autodockgpu

>  <m_score__min__energy>  (17) 
-9.1899999999999995

>  <m_primary>  (17) 
energy

>  <rmsd>  (17) 
8.554718165585316

>  <m_score__min__rmsd>  (17) 
8.554718165585316

>  <meeko>  (17) 
{"free_energy": -9.19, "intermolecular_energy": -10.98, "internal_energy": -1.02, "cluster_size": 16, "cluster_id": 1, "rank_in_cluster": 1}

>  <energy>  (17) 
-9.04

>  <cluster_rmsd>  (17) 
0.0

>  <cluster>  (17) 
2

$$$$

     RDKit          3D

 49 52  0  0  0  0  0  0  0  0999 V2000
  141.0840   72.8060  222.3570 O   0  0  0  0  0  0  0  0  0  0  0  0
  140.0130   72.3870  222.8620 C   0  0  0  0  0  0  0  0  0  0  0  0
  138.8130   73.0210  222.3600 N   0  0  0  0  0  0  0  0  0  0  0  0
  138.8910   74.0410  221.3680 C   0  0  0  0  0  0  0  0  0  0  0  0
  139.4610   75.3390  221.7240 C   0  0  0  0  0  0  0  0  0  0  0  0
  138.9220   75.8540  222.7910 O   0  0  0  0  0  0  0  0  0  0  0  0
  140.4610   76.0990  221.1310 N   0  0  0  0  0  0  0  0  0  0  0  0
  141.8220   75.9120  220.7000 C   0  0  0  0  0  0  0  0  0  0  0  0
  141.6900   76.3740  219.2400 C   0  0  0  0  0  0  0  0  0  0  0  0
  141.0350   77.7420  219.4930 C   0  0  0  0  0  0  0  0  0  0  0  0
  140.2300   77.5220  220.7330 C   0  0  2  0  0  0  0  0  0  0  0  0
  140.7300   78.4450  221.7980 C   0  0  0  0  0  0  0  0  0  0  0  0
  139.8980   78.8900  222.8220 C   0  0  0  0  0  0  0  0  0  0  0  0
  140.3310   79.7590  223.8020 C   0  0  0  0  0  0  0  0  0  0  0  0
  141.6250   80.2310  223.8110 C   0  0  0  0  0  0  0  0  0  0  0  0
  142.4690   79.8070  222.8100 C   0  0  0  0  0  0  0  0  0  0  0  0
  143.7720   80.2870  222.8260 O   0  0  0  0  0  0  0  0  0  0  0  0
  142.0210   78.9260  221.8190 C   0  0  0  0  0  0  0  0  0  0  0  0
  139.9540   71.3430  223.8790 C   0  0  0  0  0  0  0  0  0  0  0  0
  139.3140   70.1700  223.5240 C   0  0  0  0  0  0  0  0  0  0  0  0
  139.2700   69.1850  224.5120 C   0  0  0  0  0  0  0  0  0  0  0  0
  139.8380   69.3960  225.7560 C   0  0  0  0  0  0  0  0  0  0  0  0
  139.7910   68.4180  226.7310 C   0  0  0  0  0  0  0  0  0  0  0  0
  140.3630   68.6440  227.9680 C   0  0  0  0  0  0  0  0  0  0  0  0
  140.9970   69.8540  228.2630 C   0  0  0  0  0  0  0  0  0  0  0  0
  141.0420   70.8320  227.2820 C   0  0  0  0  0  0  0  0  0  0  0  0
  140.4660   70.5860  226.0560 C   0  0  0  0  0  0  0  0  0  0  0  0
  140.5050   71.5310  225.1000 N   0  0  0  0  0  0  0  0  0  0  0  0
  137.9220   72.6590  222.7910 H   0  0  0  0  0  0  0  0  0  0  0  0
  139.4960   73.6400  220.5414 H   0  0  0  0  0  0  0  0  0  0  0  0
  137.8386   74.2696  221.1441 H   0  0  0  0  0  0  0  0  0  0  0  0
  142.5227   76.5415  221.2681 H   0  0  0  0  0  0  0  0  0  0  0  0
  142.2213   74.8961  220.8359 H   0  0  0  0  0  0  0  0  0  0  0  0
  142.6678   76.4677  218.7448 H   0  0  0  0  0  0  0  0  0  0  0  0
  141.1383   75.6961  218.5722 H   0  0  0  0  0  0  0  0  0  0  0  0
  141.7972   78.5190  219.6522 H   0  0  0  0  0  0  0  0  0  0  0  0
  140.4269   78.0883  218.6443 H   0  0  0  0  0  0  0  0  0  0  0  0
  139.1586   77.7171  220.5779 H   0  0  0  0  0  0  0  0  0  0  0  0
  138.8571   78.5355  222.8506 H   0  0  0  0  0  0  0  0  0  0  0  0
  139.6321   80.0800  224.5884 H   0  0  0  0  0  0  0  0  0  0  0  0
  141.9721   80.9235  224.5920 H   0  0  0  0  0  0  0  0  0  0  0  0
  144.4570   79.7010  222.3320 H   0  0  0  0  0  0  0  0  0  0  0  0
  142.7212   78.6078  221.0326 H   0  0  0  0  0  0  0  0  0  0  0  0
  138.8690   70.0228  222.5289 H   0  0  0  0  0  0  0  0  0  0  0  0
  138.7759   68.2257  224.2983 H   0  0  0  0  0  0  0  0  0  0  0  0
  139.2972   67.4576  226.5218 H   0  0  0  0  0  0  0  0  0  0  0  0
  140.3186   67.8569  228.7351 H   0  0  0  0  0  0  0  0  0  0  0  0
  141.4497   70.0261  229.2506 H   0  0  0  0  0  0  0  0  0  0  0  0
  141.5334   71.7958  227.4811 H   0  0  0  0  0  0  0  0  0  0  0  0
  1  2  2  0
  2  3  1  0
  3  4  1  0
  4  5  1  0
  5  6  2  0
  5  7  1  0
  7  8  1  0
  8  9  1  0
  9 10  1  0
 10 11  1  0
 11 12  1  0
 12 13  2  0
 13 14  1  0
 14 15  2  0
 15 16  1  0
 16 17  1  0
 16 18  2  0
  2 19  1  0
 19 20  2  0
 20 21  1  0
 21 22  2  0
 22 23  1  0
 23 24  2  0
 24 25  1  0
 25 26  2  0
 26 27  1  0
 27 28  2  0
 11  7  1  0
 18 12  1  0
 28 19  1  0
 27 22  1  0
  3 29  1  0
  4 30  1  0
  4 31  1  0
  8 32  1  0
  8 33  1  0
  9 34  1  0
  9 35  1  0
 10 36  1  0
 10 37  1  0
 11 38  1  6
 13 39  1  0
 14 40  1  0
 15 41  1  0
 17 42  1  0
 18 43  1  0
 20 44  1  0
 21 45  1  0
 23 46  1  0
 24 47  1  0
 25 48  1  0
 26 49  1  0
M  END
>  <smiles>  (18) 
O=C(NCC(=O)N1CCCC1c1cccc(O)c1)c1ccc2ccccc2n1

>  <score_type>  (18) 
oracle

>  <origin>  (18) 
autodockgpu

>  <m_score__min__energy>  (18) 
-9.1899999999999995

>  <m_primary>  (18) 
energy

>  <rmsd>  (18) 
3.242980669322184

>  <m_score__min__rmsd>  (18) 
3.242980669322184

>  <meeko>  (18) 
{"free_energy": -8.7, "intermolecular_energy": -10.49, "internal_energy": -1.15, "cluster_size": 11, "cluster_id": 3, "rank_in_cluster": 1}

>  <energy>  (18) 
-9.03

>  <cluster_rmsd>  (18) 
0.1

>  <cluster>  (18) 
2

$$$$

     RDKit          3D

 49 52  0  0  0  0  0  0  0  0999 V2000
  140.3150   72.9660  220.8070 O   0  0  0  0  0  0  0  0  0  0  0  0
  139.9510   73.1310  221.9980 C   0  0  0  0  0  0  0  0  0  0  0  0
  139.5590   74.4830  222.3340 N   0  0  0  0  0  0  0  0  0  0  0  0
  139.6020   75.5170  221.3540 C   0  0  0  0  0  0  0  0  0  0  0  0
  140.6740   76.5090  221.4110 C   0  0  0  0  0  0  0  0  0  0  0  0
  141.7840   76.0870  220.8790 O   0  0  0  0  0  0  0  0  0  0  0  0
  140.7080   77.8000  221.9240 N   0  0  0  0  0  0  0  0  0  0  0  0
  139.8240   78.6790  222.6450 C   0  0  0  0  0  0  0  0  0  0  0  0
  140.7260   79.0200  223.8410 C   0  0  0  0  0  0  0  0  0  0  0  0
  141.9710   79.4800  223.0620 C   0  0  0  0  0  0  0  0  0  0  0  0
  141.9320   78.6520  221.8180 C   0  0  2  0  0  0  0  0  0  0  0  0
  141.8250   79.5660  220.6390 C   0  0  0  0  0  0  0  0  0  0  0  0
  141.3960   80.8830  220.7790 C   0  0  0  0  0  0  0  0  0  0  0  0
  141.2690   81.7380  219.7030 C   0  0  0  0  0  0  0  0  0  0  0  0
  141.5660   81.3190  218.4250 C   0  0  0  0  0  0  0  0  0  0  0  0
  141.9930   80.0200  218.2580 C   0  0  0  0  0  0  0  0  0  0  0  0
  142.2900   79.6050  216.9670 O   0  0  0  0  0  0  0  0  0  0  0  0
  142.1180   79.1600  219.3560 C   0  0  0  0  0  0  0  0  0  0  0  0
  139.9160   72.0600  222.9870 C   0  0  0  0  0  0  0  0  0  0  0  0
  139.3980   70.8490  222.5690 C   0  0  0  0  0  0  0  0  0  0  0  0
  139.3740   69.8390  223.5320 C   0  0  0  0  0  0  0  0  0  0  0  0
  139.8440   70.0630  224.8140 C   0  0  0  0  0  0  0  0  0  0  0  0
  139.8180   69.0600  225.7630 C   0  0  0  0  0  0  0  0  0  0  0  0
  140.2910   69.3000  227.0390 C   0  0  0  0  0  0  0  0  0  0  0  0
  140.8040   70.5500  227.3980 C   0  0  0  0  0  0  0  0  0  0  0  0
  140.8280   71.5530  226.4420 C   0  0  0  0  0  0  0  0  0  0  0  0
  140.3520   71.2920  225.1770 C   0  0  0  0  0  0  0  0  0  0  0  0
  140.3720   72.2610  224.2450 N   0  0  0  0  0  0  0  0  0  0  0  0
  139.2550   74.6080  223.3350 H   0  0  0  0  0  0  0  0  0  0  0  0
  139.6700   75.0264  220.3718 H   0  0  0  0  0  0  0  0  0  0  0  0
  138.6923   76.1030  221.5517 H   0  0  0  0  0  0  0  0  0  0  0  0
  139.5654   79.5727  222.0581 H   0  0  0  0  0  0  0  0  0  0  0  0
  138.8452   78.2493  222.9042 H   0  0  0  0  0  0  0  0  0  0  0  0
  140.3048   79.8243  224.4620 H   0  0  0  0  0  0  0  0  0  0  0  0
  140.8879   78.2077  224.5648 H   0  0  0  0  0  0  0  0  0  0  0  0
  141.9108   80.5519  222.8225 H   0  0  0  0  0  0  0  0  0  0  0  0
  142.9033   79.3525  223.6317 H   0  0  0  0  0  0  0  0  0  0  0  0
  142.8326   78.0318  221.6984 H   0  0  0  0  0  0  0  0  0  0  0  0
  141.1492   81.2559  221.7840 H   0  0  0  0  0  0  0  0  0  0  0  0
  140.9254   82.7697  219.8686 H   0  0  0  0  0  0  0  0  0  0  0  0
  141.4656   81.9990  217.5662 H   0  0  0  0  0  0  0  0  0  0  0  0
  143.2680   79.7430  216.6810 H   0  0  0  0  0  0  0  0  0  0  0  0
  142.4608   78.1283  219.1886 H   0  0  0  0  0  0  0  0  0  0  0  0
  139.0289   70.6914  221.5448 H   0  0  0  0  0  0  0  0  0  0  0  0
  138.9749   68.8487  223.2675 H   0  0  0  0  0  0  0  0  0  0  0  0
  139.4200   68.0681  225.5026 H   0  0  0  0  0  0  0  0  0  0  0  0
  140.2634   68.4929  227.7859 H   0  0  0  0  0  0  0  0  0  0  0  0
  141.1798   70.7331  228.4155 H   0  0  0  0  0  0  0  0  0  0  0  0
  141.2238   72.5485  226.6917 H   0  0  0  0  0  0  0  0  0  0  0  0
  1  2  2  0
  2  3  1  0
  3  4  1  0
  4  5  1  0
  5  6  2  0
  5  7  1  0
  7  8  1  0
  8  9  1  0
  9 10  1  0
 10 11  1  0
 11 12  1  0
 12 13  2  0
 13 14  1  0
 14 15  2  0
 15 16  1  0
 16 17  1  0
 16 18  2  0
  2 19  1  0
 19 20  2  0
 20 21  1  0
 21 22  2  0
 22 23  1  0
 23 24  2  0
 24 25  1  0
 25 26  2  0
 26 27  1  0
 27 28  2  0
 11  7  1  0
 18 12  1  0
 28 19  1  0
 27 22  1  0
  3 29  1  0
  4 30  1  0
  4 31  1  0
  8 32  1  0
  8 33  1  0
  9 34  1  0
  9 35  1  0
 10 36  1  0
 10 37  1  0
 11 38  1  6
 13 39  1  0
 14 40  1  0
 15 41  1  0
 17 42  1  0
 18 43  1  0
 20 44  1  0
 21 45  1  0
 23 46  1  0
 24 47  1  0
 25 48  1  0
 26 49  1  0
M  END
>  <smiles>  (19) 
O=C(NCC(=O)N1CCCC1c1cccc(O)c1)c1ccc2ccccc2n1

>  <score_type>  (19) 
oracle

>  <origin>  (19) 
autodockgpu

>  <m_score__min__energy>  (19) 
-9.1899999999999995

>  <m_primary>  (19) 
energy

>  <rmsd>  (19) 
2.9620826625345966

>  <m_score__min__rmsd>  (19) 
2.9620826625345966

>  <meeko>  (19) 
{"free_energy": -8.09, "intermolecular_energy": -9.88, "internal_energy": -1.18, "cluster_size": 2, "cluster_id": 5, "rank_in_cluster": 2}

>  <energy>  (19) 
-8.98

>  <cluster_rmsd>  (19) 
0.15

>  <cluster>  (19) 
2

$$$$

     RDKit          3D

 49 52  0  0  0  0  0  0  0  0999 V2000
  140.9900   74.8750  221.3410 O   0  0  0  0  0  0  0  0  0  0  0  0
  140.0800   75.4620  221.9790 C   0  0  0  0  0  0  0  0  0  0  0  0
  138.9310   74.6410  222.2940 N   0  0  0  0  0  0  0  0  0  0  0  0
  138.8790   73.2760  221.8900 C   0  0  0  0  0  0  0  0  0  0  0  0
  139.4760   72.2550  222.7480 C   0  0  0  0  0  0  0  0  0  0  0  0
  140.7650   72.3890  222.8740 O   0  0  0  0  0  0  0  0  0  0  0  0
  138.9150   71.1900  223.4410 N   0  0  0  0  0  0  0  0  0  0  0  0
  137.6110   70.7980  223.9100 C   0  0  0  0  0  0  0  0  0  0  0  0
  137.5150   69.4080  223.2610 C   0  0  0  0  0  0  0  0  0  0  0  0
  138.8410   68.8250  223.7790 C   0  0  0  0  0  0  0  0  0  0  0  0
  139.7360   70.0180  223.8740 C   0  0  2  0  0  0  0  0  0  0  0  0
  140.1620   70.1830  225.2980 C   0  0  0  0  0  0  0  0  0  0  0  0
  140.6120   71.4090  225.7840 C   0  0  0  0  0  0  0  0  0  0  0  0
  141.0300   71.5790  227.0880 C   0  0  0  0  0  0  0  0  0  0  0  0
  141.0210   70.5290  227.9790 C   0  0  0  0  0  0  0  0  0  0  0  0
  140.5810   69.3060  227.5250 C   0  0  0  0  0  0  0  0  0  0  0  0
  140.5740   68.2530  228.4300 O   0  0  0  0  0  0  0  0  0  0  0  0
  140.1580   69.1420  226.2010 C   0  0  0  0  0  0  0  0  0  0  0  0
  140.1510   76.8610  222.3820 C   0  0  0  0  0  0  0  0  0  0  0  0
  138.9470   77.5020  222.6040 C   0  0  0  0  0  0  0  0  0  0  0  0
  139.0380   78.8410  222.9880 C   0  0  0  0  0  0  0  0  0  0  0  0
  140.2670   79.4600  223.1300 C   0  0  0  0  0  0  0  0  0  0  0  0
  140.3530   80.7860  223.5100 C   0  0  0  0  0  0  0  0  0  0  0  0
  141.5880   81.3900  223.6470 C   0  0  0  0  0  0  0  0  0  0  0  0
  142.7710   80.6830  223.4080 C   0  0  0  0  0  0  0  0  0  0  0  0
  142.6790   79.3540  223.0260 C   0  0  0  0  0  0  0  0  0  0  0  0
  141.4390   78.7720  222.8960 C   0  0  0  0  0  0  0  0  0  0  0  0
  141.3440   77.4830  222.5260 N   0  0  0  0  0  0  0  0  0  0  0  0
  138.1760   75.1450  222.8300 H   0  0  0  0  0  0  0  0  0  0  0  0
  137.8167   73.0159  221.7726 H   0  0  0  0  0  0  0  0  0  0  0  0
  139.4983   73.2486  220.9813 H   0  0  0  0  0  0  0  0  0  0  0  0
  137.5695   70.7420  225.0078 H   0  0  0  0  0  0  0  0  0  0  0  0
  136.7947   71.4904  223.6565 H   0  0  0  0  0  0  0  0  0  0  0  0
  136.6438   68.8412  223.6213 H   0  0  0  0  0  0  0  0  0  0  0  0
  137.3819   69.3978  222.1691 H   0  0  0  0  0  0  0  0  0  0  0  0
  138.7054   68.3562  224.7648 H   0  0  0  0  0  0  0  0  0  0  0  0
  139.2459   68.0378  223.1260 H   0  0  0  0  0  0  0  0  0  0  0  0
  140.6360   69.9179  223.2495 H   0  0  0  0  0  0  0  0  0  0  0  0
  140.6348   72.2728  225.1033 H   0  0  0  0  0  0  0  0  0  0  0  0
  141.3758   72.5687  227.4210 H   0  0  0  0  0  0  0  0  0  0  0  0
  141.3542   70.6630  229.0187 H   0  0  0  0  0  0  0  0  0  0  0  0
  140.3670   67.3320  228.0230 H   0  0  0  0  0  0  0  0  0  0  0  0
  139.8116   68.1515  225.8710 H   0  0  0  0  0  0  0  0  0  0  0  0
  137.9803   76.9906  222.4859 H   0  0  0  0  0  0  0  0  0  0  0  0
  138.1182   79.4128  223.1807 H   0  0  0  0  0  0  0  0  0  0  0  0
  139.4360   81.3618  223.7038 H   0  0  0  0  0  0  0  0  0  0  0  0
  141.6419   82.4462  223.9496 H   0  0  0  0  0  0  0  0  0  0  0  0
  143.7508   81.1701  223.5206 H   0  0  0  0  0  0  0  0  0  0  0  0
  143.5896   78.7694  222.8284 H   0  0  0  0  0  0  0  0  0  0  0  0
  1  2  2  0
  2  3  1  0
  3  4  1  0
  4  5  1  0
  5  6  2  0
  5  7  1  0
  7  8  1  0
  8  9  1  0
  9 10  1  0
 10 11  1  0
 11 12  1  0
 12 13  2  0
 13 14  1  0
 14 15  2  0
 15 16  1  0
 16 17  1  0
 16 18  2  0
  2 19  1  0
 19 20  2  0
 20 21  1  0
 21 22  2  0
 22 23  1  0
 23 24  2  0
 24 25  1  0
 25 26  2  0
 26 27  1  0
 27 28  2  0
 11  7  1  0
 18 12  1  0
 28 19  1  0
 27 22  1  0
  3 29  1  0
  4 30  1  0
  4 31  1  0
  8 32  1  0
  8 33  1  0
  9 34  1  0
  9 35  1  0
 10 36  1  0
 10 37  1  0
 11 38  1  6
 13 39  1  0
 14 40  1  0
 15 41  1  0
 17 42  1  0
 18 43  1  0
 20 44  1  0
 21 45  1  0
 23 46  1  0
 24 47  1  0
 25 48  1  0
 26 49  1  0
M  END
>  <smiles>  (20) 
O=C(NCC(=O)N1CCCC1c1cccc(O)c1)c1ccc2ccccc2n1

>  <score_type>  (20) 
oracle

>  <origin>  (20) 
autodockgpu

>  <m_score__min__energy>  (20) 
-9.1899999999999995

>  <m_primary>  (20) 
energy

>  <rmsd>  (20) 
9.001776330767315

>  <m_score__min__rmsd>  (20) 
9.001776330767315

>  <meeko>  (20) 
{"free_energy": -9.12, "intermolecular_energy": -10.91, "internal_energy": -1.06, "cluster_size": 16, "cluster_id": 1, "rank_in_cluster": 5}

>  <energy>  (20) 
-8.93

>  <cluster_rmsd>  (20) 
0.25

>  <cluster>  (20) 
2

$$$$

     RDKit          3D

 49 52  0  0  0  0  0  0  0  0999 V2000
  140.1800   71.5320  221.2160 O   0  0  0  0  0  0  0  0  0  0  0  0
  139.9890   72.0430  222.3480 C   0  0  0  0  0  0  0  0  0  0  0  0
  139.7380   73.4680  222.3390 N   0  0  0  0  0  0  0  0  0  0  0  0
  139.7200   74.1950  221.1140 C   0  0  0  0  0  0  0  0  0  0  0  0
  140.0020   75.6290  221.1320 C   0  0  0  0  0  0  0  0  0  0  0  0
  141.2620   75.9000  220.9490 O   0  0  0  0  0  0  0  0  0  0  0  0
  139.1720   76.7290  221.3050 N   0  0  0  0  0  0  0  0  0  0  0  0
  138.3720   77.5960  220.4790 C   0  0  0  0  0  0  0  0  0  0  0  0
  137.0190   77.4480  221.1930 C   0  0  0  0  0  0  0  0  0  0  0  0
  137.4780   77.7840  222.6220 C   0  0  0  0  0  0  0  0  0  0  0  0
  138.8880   77.2900  222.6620 C   0  0  2  0  0  0  0  0  0  0  0  0
  139.7930   78.4480  222.9420 C   0  0  0  0  0  0  0  0  0  0  0  0
  139.3010   79.6460  223.4550 C   0  0  0  0  0  0  0  0  0  0  0  0
  140.1130   80.7340  223.7010 C   0  0  0  0  0  0  0  0  0  0  0  0
  141.4650   80.6820  223.4460 C   0  0  0  0  0  0  0  0  0  0  0  0
  141.9780   79.5100  222.9380 C   0  0  0  0  0  0  0  0  0  0  0  0
  143.3430   79.4660  222.6830 O   0  0  0  0  0  0  0  0  0  0  0  0
  141.1470   78.4110  222.6910 C   0  0  0  0  0  0  0  0  0  0  0  0
  140.0140   71.2810  223.5910 C   0  0  0  0  0  0  0  0  0  0  0  0
  139.5320   69.9870  223.5330 C   0  0  0  0  0  0  0  0  0  0  0  0
  139.5640   69.2770  224.7340 C   0  0  0  0  0  0  0  0  0  0  0  0
  140.0520   69.8560  225.8920 C   0  0  0  0  0  0  0  0  0  0  0  0
  140.0820   69.1490  227.0790 C   0  0  0  0  0  0  0  0  0  0  0  0
  140.5730   69.7410  228.2270 C   0  0  0  0  0  0  0  0  0  0  0  0
  141.0470   71.0560  228.2180 C   0  0  0  0  0  0  0  0  0  0  0  0
  141.0150   71.7610  227.0250 C   0  0  0  0  0  0  0  0  0  0  0  0
  140.5220   71.1520  225.8930 C   0  0  0  0  0  0  0  0  0  0  0  0
  140.4880   71.8310  224.7320 N   0  0  0  0  0  0  0  0  0  0  0  0
  139.5790   73.8830  223.2940 H   0  0  0  0  0  0  0  0  0  0  0  0
  140.4654   73.7291  220.4527 H   0  0  0  0  0  0  0  0  0  0  0  0
  138.6698   74.1388  220.7917 H   0  0  0  0  0  0  0  0  0  0  0  0
  138.7359   78.6338  220.5002 H   0  0  0  0  0  0  0  0  0  0  0  0
  138.3658   77.3476  219.4074 H   0  0  0  0  0  0  0  0  0  0  0  0
  136.2722   78.1635  220.8185 H   0  0  0  0  0  0  0  0  0  0  0  0
  136.5165   76.4775  221.0682 H   0  0  0  0  0  0  0  0  0  0  0  0
  137.4361   78.8681  222.8035 H   0  0  0  0  0  0  0  0  0  0  0  0
  136.8422   77.3266  223.3944 H   0  0  0  0  0  0  0  0  0  0  0  0
  139.0430   76.5291  223.4411 H   0  0  0  0  0  0  0  0  0  0  0  0
  138.2257   79.7276  223.6719 H   0  0  0  0  0  0  0  0  0  0  0  0
  139.6735   81.6570  224.1071 H   0  0  0  0  0  0  0  0  0  0  0  0
  142.1138   81.5484  223.6418 H   0  0  0  0  0  0  0  0  0  0  0  0
  143.6810   78.5830  222.2810 H   0  0  0  0  0  0  0  0  0  0  0  0
  141.5887   77.4895  222.2839 H   0  0  0  0  0  0  0  0  0  0  0  0
  139.1483   69.5457  222.6013 H   0  0  0  0  0  0  0  0  0  0  0  0
  139.1955   68.2409  224.7604 H   0  0  0  0  0  0  0  0  0  0  0  0
  139.7142   68.1128  227.1100 H   0  0  0  0  0  0  0  0  0  0  0  0
  140.5912   69.1669  229.1651 H   0  0  0  0  0  0  0  0  0  0  0  0
  141.4362   71.5204  229.1361 H   0  0  0  0  0  0  0  0  0  0  0  0
  141.3802   72.7978  226.9831 H   0  0  0  0  0  0  0  0  0  0  0  0
  1  2  2  0
  2  3  1  0
  3  4  1  0
  4  5  1  0
  5  6  2  0
  5  7  1  0
  7  8  1  0
  8  9  1  0
  9 10  1  0
 10 11  1  0
 11 12  1  0
 12 13  2  0
 13 14  1  0
 14 15  2  0
 15 16  1  0
 16 17  1  0
 16 18  2  0
  2 19  1  0
 19 20  2  0
 20 21  1  0
 21 22  2  0
 22 23  1  0
 23 24  2  0
 24 25  1  0
 25 26  2  0
 26 27  1  0
 27 28  2  0
 11  7  1  0
 18 12  1  0
 28 19  1  0
 27 22  1  0
  3 29  1  0
  4 30  1  0
  4 31  1  0
  8 32  1  0
  8 33  1  0
  9 34  1  0
  9 35  1  0
 10 36  1  0
 10 37  1  0
 11 38  1  1
 13 39  1  0
 14 40  1  0
 15 41  1  0
 17 42  1  0
 18 43  1  0
 20 44  1  0
 21 45  1  0
 23 46  1  0
 24 47  1  0
 25 48  1  0
 26 49  1  0
M  END
>  <smiles>  (21) 
O=C(NCC(=O)N1CCCC1c1cccc(O)c1)c1ccc2ccccc2n1

>  <score_type>  (21) 
oracle

>  <origin>  (21) 
autodockgpu

>  <m_score__min__energy>  (21) 
-9.1899999999999995

>  <m_primary>  (21) 
energy

>  <rmsd>  (21) 
3.2855267703179014

>  <m_score__min__rmsd>  (21) 
3.2855267703179014

>  <meeko>  (21) 
{"free_energy": -8.49, "intermolecular_energy": -10.28, "internal_energy": -1.23, "cluster_size": 11, "cluster_id": 3, "rank_in_cluster": 3}

>  <energy>  (21) 
-8.89

>  <cluster_rmsd>  (21) 
0.42

>  <cluster>  (21) 
2

$$$$

     RDKit          3D

 49 52  0  0  0  0  0  0  0  0999 V2000
  137.7620   71.0690  222.3140 O   0  0  0  0  0  0  0  0  0  0  0  0
  138.7810   71.2440  223.0290 C   0  0  0  0  0  0  0  0  0  0  0  0
  139.5620   72.4170  222.7010 N   0  0  0  0  0  0  0  0  0  0  0  0
  139.1660   73.2790  221.6370 C   0  0  0  0  0  0  0  0  0  0  0  0
  139.8920   74.5300  221.4270 C   0  0  0  0  0  0  0  0  0  0  0  0
  139.6700   75.4070  222.3630 O   0  0  0  0  0  0  0  0  0  0  0  0
  140.7600   74.9340  220.4210 N   0  0  0  0  0  0  0  0  0  0  0  0
  140.6950   75.2040  219.0080 C   0  0  0  0  0  0  0  0  0  0  0  0
  141.2680   76.6300  218.9960 C   0  0  0  0  0  0  0  0  0  0  0  0
  142.5670   76.3590  219.7750 C   0  0  0  0  0  0  0  0  0  0  0  0
  142.1940   75.2500  220.7050 C   0  0  2  0  0  0  0  0  0  0  0  0
  143.0550   74.0650  220.4050 C   0  0  0  0  0  0  0  0  0  0  0  0
  142.6710   72.7780  220.7730 C   0  0  0  0  0  0  0  0  0  0  0  0
  143.4580   71.6720  220.5260 C   0  0  0  0  0  0  0  0  0  0  0  0
  144.6770   71.7950  219.8960 C   0  0  0  0  0  0  0  0  0  0  0  0
  145.0810   73.0570  219.5220 C   0  0  0  0  0  0  0  0  0  0  0  0
  146.3110   73.1730  218.8870 O   0  0  0  0  0  0  0  0  0  0  0  0
  144.2760   74.1730  219.7760 C   0  0  0  0  0  0  0  0  0  0  0  0
  139.1700   70.3480  224.1130 C   0  0  0  0  0  0  0  0  0  0  0  0
  138.8420   69.0150  223.9600 C   0  0  0  0  0  0  0  0  0  0  0  0
  139.2230   68.1760  225.0080 C   0  0  0  0  0  0  0  0  0  0  0  0
  139.8850   68.6750  226.1170 C   0  0  0  0  0  0  0  0  0  0  0  0
  140.2600   67.8410  227.1520 C   0  0  0  0  0  0  0  0  0  0  0  0
  140.9200   68.3550  228.2520 C   0  0  0  0  0  0  0  0  0  0  0  0
  141.2230   69.7170  228.3450 C   0  0  0  0  0  0  0  0  0  0  0  0
  140.8440   70.5490  227.3030 C   0  0  0  0  0  0  0  0  0  0  0  0
  140.1880   70.0160  226.2170 C   0  0  0  0  0  0  0  0  0  0  0  0
  139.8170   70.8190  225.2030 N   0  0  0  0  0  0  0  0  0  0  0  0
  140.4120   72.5530  223.3080 H   0  0  0  0  0  0  0  0  0  0  0  0
  139.2480   72.6992  220.7058 H   0  0  0  0  0  0  0  0  0  0  0  0
  138.1568   73.6069  221.9268 H   0  0  0  0  0  0  0  0  0  0  0  0
  141.3173   74.5067  218.4279 H   0  0  0  0  0  0  0  0  0  0  0  0
  139.6980   75.0961  218.5559 H   0  0  0  0  0  0  0  0  0  0  0  0
  141.4641   76.9895  217.9751 H   0  0  0  0  0  0  0  0  0  0  0  0
  140.6150   77.4112  219.4122 H   0  0  0  0  0  0  0  0  0  0  0  0
  143.3744   76.0474  219.0960 H   0  0  0  0  0  0  0  0  0  0  0  0
  142.9440   77.2489  220.3003 H   0  0  0  0  0  0  0  0  0  0  0  0
  142.3331   75.5231  221.7614 H   0  0  0  0  0  0  0  0  0  0  0  0
  141.7045   72.6380  221.2793 H   0  0  0  0  0  0  0  0  0  0  0  0
  143.1068   70.6770  220.8368 H   0  0  0  0  0  0  0  0  0  0  0  0
  145.3063   70.9147  219.6984 H   0  0  0  0  0  0  0  0  0  0  0  0
  146.5650   74.1270  218.6040 H   0  0  0  0  0  0  0  0  0  0  0  0
  144.6289   75.1670  219.4639 H   0  0  0  0  0  0  0  0  0  0  0  0
  138.3150   68.6394  223.0705 H   0  0  0  0  0  0  0  0  0  0  0  0
  138.9939   67.1016  224.9522 H   0  0  0  0  0  0  0  0  0  0  0  0
  140.0330   66.7659  227.1007 H   0  0  0  0  0  0  0  0  0  0  0  0
  141.2125   67.6800  229.0698 H   0  0  0  0  0  0  0  0  0  0  0  0
  141.7493   70.1184  229.2236 H   0  0  0  0  0  0  0  0  0  0  0  0
  141.0656   71.6257  227.3438 H   0  0  0  0  0  0  0  0  0  0  0  0
  1  2  2  0
  2  3  1  0
  3  4  1  0
  4  5  1  0
  5  6  2  0
  5  7  1  0
  7  8  1  0
  8  9  1  0
  9 10  1  0
 10 11  1  0
 11 12  1  0
 12 13  2  0
 13 14  1  0
 14 15  2  0
 15 16  1  0
 16 17  1  0
 16 18  2  0
  2 19  1  0
 19 20  2  0
 20 21  1  0
 21 22  2  0
 22 23  1  0
 23 24  2  0
 24 25  1  0
 25 26  2  0
 26 27  1  0
 27 28  2  0
 11  7  1  0
 18 12  1  0
 28 19  1  0
 27 22  1  0
  3 29  1  0
  4 30  1  0
  4 31  1  0
  8 32  1  0
  8 33  1  0
  9 34  1  0
  9 35  1  0
 10 36  1  0
 10 37  1  0
 11 38  1  1
 13 39  1  0
 14 40  1  0
 15 41  1  0
 17 42  1  0
 18 43  1  0
 20 44  1  0
 21 45  1  0
 23 46  1  0
 24 47  1  0
 25 48  1  0
 26 49  1  0
M  END
>  <smiles>  (22) 
O=C(NCC(=O)N1CCCC1c1cccc(O)c1)c1ccc2ccccc2n1

>  <score_type>  (22) 
oracle

>  <origin>  (22) 
autodockgpu

>  <m_score__min__energy>  (22) 
-9.1899999999999995

>  <m_primary>  (22) 
energy

>  <rmsd>  (22) 
2.453443880743793

>  <m_score__min__rmsd>  (22) 
2.453443880743793

>  <meeko>  (22) 
{"free_energy": -8.51, "intermolecular_energy": -10.3, "internal_energy": -1.38, "cluster_size": 13, "cluster_id": 2, "rank_in_cluster": 9}

>  <energy>  (22) 
-8.75

>  <cluster_rmsd>  (22) 
0.73

>  <cluster>  (22) 
2

$$$$

     RDKit          3D

 49 52  0  0  0  0  0  0  0  0999 V2000
  139.6820   73.4240  222.5730 O   0  0  0  0  0  0  0  0  0  0  0  0
  139.9120   72.1890  222.5610 C   0  0  0  0  0  0  0  0  0  0  0  0
  140.1000   71.6170  221.2450 N   0  0  0  0  0  0  0  0  0  0  0  0
  140.0190   72.4330  220.0800 C   0  0  0  0  0  0  0  0  0  0  0  0
  141.2510   72.9410  219.4790 C   0  0  0  0  0  0  0  0  0  0  0  0
  141.4660   72.4650  218.2870 O   0  0  0  0  0  0  0  0  0  0  0  0
  142.2090   73.8290  219.9520 N   0  0  0  0  0  0  0  0  0  0  0  0
  143.3380   73.7950  220.8450 C   0  0  0  0  0  0  0  0  0  0  0  0
  144.4210   74.3480  219.9060 C   0  0  0  0  0  0  0  0  0  0  0  0
  143.6990   75.6310  219.4590 C   0  0  0  0  0  0  0  0  0  0  0  0
  142.2540   75.2500  219.4910 C   0  0  2  0  0  0  0  0  0  0  0  0
  141.5490   76.1340  220.4700 C   0  0  0  0  0  0  0  0  0  0  0  0
  141.9020   77.4720  220.6250 C   0  0  0  0  0  0  0  0  0  0  0  0
  141.2790   78.3000  221.5370 C   0  0  0  0  0  0  0  0  0  0  0  0
  140.2670   77.8320  222.3460 C   0  0  0  0  0  0  0  0  0  0  0  0
  139.8990   76.5130  222.2130 C   0  0  0  0  0  0  0  0  0  0  0  0
  138.8770   76.0480  223.0320 O   0  0  0  0  0  0  0  0  0  0  0  0
  140.5360   75.6790  221.2860 C   0  0  0  0  0  0  0  0  0  0  0  0
  139.9890   71.3700  223.7660 C   0  0  0  0  0  0  0  0  0  0  0  0
  139.5340   70.0700  223.6590 C   0  0  0  0  0  0  0  0  0  0  0  0
  139.6160   69.3050  224.8230 C   0  0  0  0  0  0  0  0  0  0  0  0
  140.1240   69.8400  225.9940 C   0  0  0  0  0  0  0  0  0  0  0  0
  140.2030   69.0790  227.1440 C   0  0  0  0  0  0  0  0  0  0  0  0
  140.7130   69.6270  228.3060 C   0  0  0  0  0  0  0  0  0  0  0  0
  141.1580   70.9520  228.3460 C   0  0  0  0  0  0  0  0  0  0  0  0
  141.0770   71.7110  227.1900 C   0  0  0  0  0  0  0  0  0  0  0  0
  140.5660   71.1450  226.0440 C   0  0  0  0  0  0  0  0  0  0  0  0
  140.4830   71.8760  224.9180 N   0  0  0  0  0  0  0  0  0  0  0  0
  140.2930   70.5810  221.2490 H   0  0  0  0  0  0  0  0  0  0  0  0
  139.5049   71.8414  219.3082 H   0  0  0  0  0  0  0  0  0  0  0  0
  139.5052   73.3402  220.4307 H   0  0  0  0  0  0  0  0  0  0  0  0
  143.1868   74.4410  221.7224 H   0  0  0  0  0  0  0  0  0  0  0  0
  143.5576   72.8109  221.2847 H   0  0  0  0  0  0  0  0  0  0  0  0
  145.3597   74.5639  220.4372 H   0  0  0  0  0  0  0  0  0  0  0  0
  144.7434   73.6744  219.0984 H   0  0  0  0  0  0  0  0  0  0  0  0
  143.9025   76.4588  220.1543 H   0  0  0  0  0  0  0  0  0  0  0  0
  144.0265   75.9834  218.4698 H   0  0  0  0  0  0  0  0  0  0  0  0
  141.7691   75.3592  218.5097 H   0  0  0  0  0  0  0  0  0  0  0  0
  142.7064   77.8841  219.9980 H   0  0  0  0  0  0  0  0  0  0  0  0
  141.5957   79.3502  221.6191 H   0  0  0  0  0  0  0  0  0  0  0  0
  139.7700   78.4905  223.0736 H   0  0  0  0  0  0  0  0  0  0  0  0
  138.8490   75.0280  223.1550 H   0  0  0  0  0  0  0  0  0  0  0  0
  140.2182   74.6289  221.2067 H   0  0  0  0  0  0  0  0  0  0  0  0
  139.1334   69.6647  222.7181 H   0  0  0  0  0  0  0  0  0  0  0  0
  139.2715   68.2604  224.8098 H   0  0  0  0  0  0  0  0  0  0  0  0
  139.8592   68.0342  227.1351 H   0  0  0  0  0  0  0  0  0  0  0  0
  140.7698   69.0101  229.2150 H   0  0  0  0  0  0  0  0  0  0  0  0
  141.5631   71.3817  229.2740 H   0  0  0  0  0  0  0  0  0  0  0  0
  141.4180   72.7568  227.1879 H   0  0  0  0  0  0  0  0  0  0  0  0
  1  2  2  0
  2  3  1  0
  3  4  1  0
  4  5  1  0
  5  6  2  0
  5  7  1  0
  7  8  1  0
  8  9  1  0
  9 10  1  0
 10 11  1  0
 11 12  1  0
 12 13  2  0
 13 14  1  0
 14 15  2  0
 15 16  1  0
 16 17  1  0
 16 18  2  0
  2 19  1  0
 19 20  2  0
 20 21  1  0
 21 22  2  0
 22 23  1  0
 23 24  2  0
 24 25  1  0
 25 26  2  0
 26 27  1  0
 27 28  2  0
 11  7  1  0
 18 12  1  0
 28 19  1  0
 27 22  1  0
  3 29  1  0
  4 30  1  0
  4 31  1  0
  8 32  1  0
  8 33  1  0
  9 34  1  0
  9 35  1  0
 10 36  1  0
 10 37  1  0
 11 38  1  6
 13 39  1  0
 14 40  1  0
 15 41  1  0
 17 42  1  0
 18 43  1  0
 20 44  1  0
 21 45  1  0
 23 46  1  0
 24 47  1  0
 25 48  1  0
 26 49  1  0
M  END
>  <smiles>  (23) 
O=C(NCC(=O)N1CCCC1c1cccc(O)c1)c1ccc2ccccc2n1

>  <score_type>  (23) 
oracle

>  <origin>  (23) 
autodockgpu

>  <m_score__min__energy>  (23) 
-9.1899999999999995

>  <m_primary>  (23) 
energy

>  <rmsd>  (23) 
3.306037549297165

>  <m_score__min__rmsd>  (23) 
3.306037549297165

>  <meeko>  (23) 
{"free_energy": -7.91, "intermolecular_energy": -9.7, "internal_energy": -1.99, "cluster_size": 6, "cluster_id": 4, "rank_in_cluster": 4}

>  <energy>  (23) 
-8.7

>  <cluster_rmsd>  (23) 
1.27

>  <cluster>  (23) 
2

$$$$

     RDKit          3D

 49 52  0  0  0  0  0  0  0  0999 V2000
  140.6640   77.2680  218.4950 O   0  0  0  0  0  0  0  0  0  0  0  0
  141.8710   77.1430  218.8200 C   0  0  0  0  0  0  0  0  0  0  0  0
  142.5780   78.3880  219.0300 N   0  0  0  0  0  0  0  0  0  0  0  0
  141.9130   79.6380  218.8680 C   0  0  0  0  0  0  0  0  0  0  0  0
  141.7470   80.5120  220.0270 C   0  0  0  0  0  0  0  0  0  0  0  0
  141.6450   81.7690  219.7030 O   0  0  0  0  0  0  0  0  0  0  0  0
  141.6790   80.2370  221.3870 N   0  0  0  0  0  0  0  0  0  0  0  0
  142.5960   80.0940  222.4880 C   0  0  0  0  0  0  0  0  0  0  0  0
  141.9840   81.1130  223.4610 C   0  0  0  0  0  0  0  0  0  0  0  0
  140.5370   80.5920  223.4560 C   0  0  0  0  0  0  0  0  0  0  0  0
  140.3690   80.0350  222.0790 C   0  0  2  0  0  0  0  0  0  0  0  0
  140.0620   78.5750  222.1880 C   0  0  0  0  0  0  0  0  0  0  0  0
  138.8290   78.1260  222.6540 C   0  0  0  0  0  0  0  0  0  0  0  0
  138.5310   76.7850  222.7840 C   0  0  0  0  0  0  0  0  0  0  0  0
  139.4540   75.8180  222.4530 C   0  0  0  0  0  0  0  0  0  0  0  0
  140.6820   76.2340  221.9900 C   0  0  0  0  0  0  0  0  0  0  0  0
  141.6070   75.2530  221.6600 O   0  0  0  0  0  0  0  0  0  0  0  0
  140.9760   77.5970  221.8630 C   0  0  0  0  0  0  0  0  0  0  0  0
  142.5340   75.8540  218.9790 C   0  0  0  0  0  0  0  0  0  0  0  0
  141.9540   74.7770  218.3370 C   0  0  0  0  0  0  0  0  0  0  0  0
  142.6050   73.5530  218.5030 C   0  0  0  0  0  0  0  0  0  0  0  0
  143.7540   73.4540  219.2660 C   0  0  0  0  0  0  0  0  0  0  0  0
  144.3950   72.2410  219.4280 C   0  0  0  0  0  0  0  0  0  0  0  0
  145.5420   72.1590  220.1940 C   0  0  0  0  0  0  0  0  0  0  0  0
  146.0790   73.2890  220.8180 C   0  0  0  0  0  0  0  0  0  0  0  0
  145.4330   74.5040  220.6520 C   0  0  0  0  0  0  0  0  0  0  0  0
  144.2920   74.5630  219.8850 C   0  0  0  0  0  0  0  0  0  0  0  0
  143.6590   75.7390  219.7210 N   0  0  0  0  0  0  0  0  0  0  0  0
  143.5890   78.2690  219.3030 H   0  0  0  0  0  0  0  0  0  0  0  0
  142.4772   80.2070  218.1144 H   0  0  0  0  0  0  0  0  0  0  0  0
  140.8834   79.3546  218.6042 H   0  0  0  0  0  0  0  0  0  0  0  0
  142.5855   79.0746  222.9011 H   0  0  0  0  0  0  0  0  0  0  0  0
  143.6548   80.2603  222.2404 H   0  0  0  0  0  0  0  0  0  0  0  0
  142.4408   81.0582  224.4601 H   0  0  0  0  0  0  0  0  0  0  0  0
  142.1119   82.1708  223.1878 H   0  0  0  0  0  0  0  0  0  0  0  0
  140.3989   79.8089  224.2160 H   0  0  0  0  0  0  0  0  0  0  0  0
  139.8004   81.3736  223.6938 H   0  0  0  0  0  0  0  0  0  0  0  0
  139.5531   80.5228  221.5256 H   0  0  0  0  0  0  0  0  0  0  0  0
  138.0644   78.8676  222.9286 H   0  0  0  0  0  0  0  0  0  0  0  0
  137.5412   76.4838  223.1577 H   0  0  0  0  0  0  0  0  0  0  0  0
  139.2179   74.7485  222.5552 H   0  0  0  0  0  0  0  0  0  0  0  0
  142.5850   75.5680  221.6380 H   0  0  0  0  0  0  0  0  0  0  0  0
  141.9675   77.8961  221.4922 H   0  0  0  0  0  0  0  0  0  0  0  0
  141.0392   74.8772  217.7345 H   0  0  0  0  0  0  0  0  0  0  0  0
  142.1974   72.6532  218.0191 H   0  0  0  0  0  0  0  0  0  0  0  0
  143.9913   71.3384  218.9460 H   0  0  0  0  0  0  0  0  0  0  0  0
  146.0419   71.1867  220.3151 H   0  0  0  0  0  0  0  0  0  0  0  0
  146.9925   73.2156  221.4263 H   0  0  0  0  0  0  0  0  0  0  0  0
  145.8288   75.4128  221.1290 H   0  0  0  0  0  0  0  0  0  0  0  0
  1  2  2  0
  2  3  1  0
  3  4  1  0
  4  5  1  0
  5  6  2  0
  5  7  1  0
  7  8  1  0
  8  9  1  0
  9 10  1  0
 10 11  1  0
 11 12  1  0
 12 13  2  0
 13 14  1  0
 14 15  2  0
 15 16  1  0
 16 17  1  0
 16 18  2  0
  2 19  1  0
 19 20  2  0
 20 21  1  0
 21 22  2  0
 22 23  1  0
 23 24  2  0
 24 25  1  0
 25 26  2  0
 26 27  1  0
 27 28  2  0
 11  7  1  0
 18 12  1  0
 28 19  1  0
 27 22  1  0
  3 29  1  0
  4 30  1  0
  4 31  1  0
  8 32  1  0
  8 33  1  0
  9 34  1  0
  9 35  1  0
 10 36  1  0
 10 37  1  0
 11 38  1  6
 13 39  1  0
 14 40  1  0
 15 41  1  0
 17 42  1  0
 18 43  1  0
 20 44  1  0
 21 45  1  0
 23 46  1  0
 24 47  1  0
 25 48  1  0
 26 49  1  0
M  END
>  <smiles>  (24) 
O=C(NCC(=O)N1CCCC1c1cccc(O)c1)c1ccc2ccccc2n1

>  <score_type>  (24) 
oracle

>  <origin>  (24) 
autodockgpu

>  <m_score__min__energy>  (24) 
-9.1899999999999995

>  <m_primary>  (24) 
energy

>  <rmsd>  (24) 
7.39803886599553

>  <m_score__min__rmsd>  (24) 
7.39803886599553

>  <meeko>  (24) 
{"free_energy": -7.06, "intermolecular_energy": -8.85, "internal_energy": -2.66, "cluster_size": 1, "cluster_id": 6, "rank_in_cluster": 1}

>  <energy>  (24) 
-8.58

>  <cluster_rmsd>  (24) 
0.74

>  <cluster>  (24) 
2

$$$$

     RDKit          3D

 49 52  0  0  0  0  0  0  0  0999 V2000
  140.7400   71.4170  221.7030 O   0  0  0  0  0  0  0  0  0  0  0  0
  139.9100   71.5670  222.6350 C   0  0  0  0  0  0  0  0  0  0  0  0
  138.9790   72.6590  222.4500 N   0  0  0  0  0  0  0  0  0  0  0  0
  139.0370   73.4760  221.2840 C   0  0  0  0  0  0  0  0  0  0  0  0
  140.0280   74.5480  221.2150 C   0  0  0  0  0  0  0  0  0  0  0  0
  140.0870   75.2550  222.3060 O   0  0  0  0  0  0  0  0  0  0  0  0
  140.9000   74.9330  220.2040 N   0  0  0  0  0  0  0  0  0  0  0  0
  140.8510   75.1340  218.7790 C   0  0  0  0  0  0  0  0  0  0  0  0
  141.3780   76.5760  218.7090 C   0  0  0  0  0  0  0  0  0  0  0  0
  142.6710   76.3850  219.5200 C   0  0  0  0  0  0  0  0  0  0  0  0
  142.3170   75.3090  220.4950 C   0  0  2  0  0  0  0  0  0  0  0  0
  143.2210   74.1400  220.2650 C   0  0  0  0  0  0  0  0  0  0  0  0
  142.9990   72.9170  220.8940 C   0  0  0  0  0  0  0  0  0  0  0  0
  143.8320   71.8310  220.7130 C   0  0  0  0  0  0  0  0  0  0  0  0
  144.9340   71.9110  219.8920 C   0  0  0  0  0  0  0  0  0  0  0  0
  145.1770   73.1080  219.2580 C   0  0  0  0  0  0  0  0  0  0  0  0
  146.2900   73.1800  218.4310 O   0  0  0  0  0  0  0  0  0  0  0  0
  144.3270   74.2050  219.4470 C   0  0  0  0  0  0  0  0  0  0  0  0
  139.8680   70.7210  223.8220 C   0  0  0  0  0  0  0  0  0  0  0  0
  139.1900   69.5230  223.7030 C   0  0  0  0  0  0  0  0  0  0  0  0
  139.1620   68.7300  224.8510 C   0  0  0  0  0  0  0  0  0  0  0  0
  139.7810   69.1410  226.0180 C   0  0  0  0  0  0  0  0  0  0  0  0
  139.7490   68.3530  227.1520 C   0  0  0  0  0  0  0  0  0  0  0  0
  140.3730   68.7780  228.3100 C   0  0  0  0  0  0  0  0  0  0  0  0
  141.0440   70.0030  228.3630 C   0  0  0  0  0  0  0  0  0  0  0  0
  141.0720   70.7900  227.2230 C   0  0  0  0  0  0  0  0  0  0  0  0
  140.4450   70.3480  226.0810 C   0  0  0  0  0  0  0  0  0  0  0  0
  140.4680   71.1070  224.9710 N   0  0  0  0  0  0  0  0  0  0  0  0
  138.2880   72.7740  223.2380 H   0  0  0  0  0  0  0  0  0  0  0  0
  139.2268   72.8071  220.4316 H   0  0  0  0  0  0  0  0  0  0  0  0
  138.0744   74.0084  221.2885 H   0  0  0  0  0  0  0  0  0  0  0  0
  141.5055   74.4312  218.2426 H   0  0  0  0  0  0  0  0  0  0  0  0
  139.8662   74.9721  218.3165 H   0  0  0  0  0  0  0  0  0  0  0  0
  141.5800   76.8939  217.6755 H   0  0  0  0  0  0  0  0  0  0  0  0
  140.6930   77.3537  219.0778 H   0  0  0  0  0  0  0  0  0  0  0  0
  143.4998   76.0688  218.8695 H   0  0  0  0  0  0  0  0  0  0  0  0
  143.0105   77.3103  220.0084 H   0  0  0  0  0  0  0  0  0  0  0  0
  142.4284   75.6359  221.5394 H   0  0  0  0  0  0  0  0  0  0  0  0
  142.1288   72.8128  221.5587 H   0  0  0  0  0  0  0  0  0  0  0  0
  143.6116   70.8870  221.2330 H   0  0  0  0  0  0  0  0  0  0  0  0
  145.5986   71.0465  219.7474 H   0  0  0  0  0  0  0  0  0  0  0  0
  146.5610   74.1310  218.1490 H   0  0  0  0  0  0  0  0  0  0  0  0
  144.5497   75.1478  218.9259 H   0  0  0  0  0  0  0  0  0  0  0  0
  138.7044   69.2147  222.7654 H   0  0  0  0  0  0  0  0  0  0  0  0
  138.6393   67.7624  224.8276 H   0  0  0  0  0  0  0  0  0  0  0  0
  139.2260   67.3855  227.1336 H   0  0  0  0  0  0  0  0  0  0  0  0
  140.3409   68.1406  229.2059 H   0  0  0  0  0  0  0  0  0  0  0  0
  141.5383   70.3345  229.2881 H   0  0  0  0  0  0  0  0  0  0  0  0
  141.5911   71.7598  227.2310 H   0  0  0  0  0  0  0  0  0  0  0  0
  1  2  2  0
  2  3  1  0
  3  4  1  0
  4  5  1  0
  5  6  2  0
  5  7  1  0
  7  8  1  0
  8  9  1  0
  9 10  1  0
 10 11  1  0
 11 12  1  0
 12 13  2  0
 13 14  1  0
 14 15  2  0
 15 16  1  0
 16 17  1  0
 16 18  2  0
  2 19  1  0
 19 20  2  0
 20 21  1  0
 21 22  2  0
 22 23  1  0
 23 24  2  0
 24 25  1  0
 25 26  2  0
 26 27  1  0
 27 28  2  0
 11  7  1  0
 18 12  1  0
 28 19  1  0
 27 22  1  0
  3 29  1  0
  4 30  1  0
  4 31  1  0
  8 32  1  0
  8 33  1  0
  9 34  1  0
  9 35  1  0
 10 36  1  0
 10 37  1  0
 11 38  1  1
 13 39  1  0
 14 40  1  0
 15 41  1  0
 17 42  1  0
 18 43  1  0
 20 44  1  0
 21 45  1  0
 23 46  1  0
 24 47  1  0
 25 48  1  0
 26 49  1  0
M  END
>  <smiles>  (25) 
O=C(NCC(=O)N1CCCC1c1cccc(O)c1)c1ccc2ccccc2n1

>  <score_type>  (25) 
oracle

>  <origin>  (25) 
autodockgpu

>  <m_score__min__energy>  (25) 
-9.1899999999999995

>  <m_primary>  (25) 
energy

>  <rmsd>  (25) 
2.340213802880477

>  <m_score__min__rmsd>  (25) 
2.340213802880477

>  <meeko>  (25) 
{"free_energy": -8.98, "intermolecular_energy": -10.77, "internal_energy": -1.42, "cluster_size": 13, "cluster_id": 2, "rank_in_cluster": 3}

>  <energy>  (25) 
-8.51

>  <cluster_rmsd>  (25) 
0.79

>  <cluster>  (25) 
2

$$$$

     RDKit          3D

 49 52  0  0  0  0  0  0  0  0999 V2000
  140.2470   71.1120  221.3480 O   0  0  0  0  0  0  0  0  0  0  0  0
  140.0700   71.5570  222.5100 C   0  0  0  0  0  0  0  0  0  0  0  0
  139.9980   72.9990  222.6060 N   0  0  0  0  0  0  0  0  0  0  0  0
  140.1240   73.8120  221.4420 C   0  0  0  0  0  0  0  0  0  0  0  0
  140.2240   75.2620  221.5930 C   0  0  0  0  0  0  0  0  0  0  0  0
  139.5100   75.7180  222.5820 O   0  0  0  0  0  0  0  0  0  0  0  0
  140.9370   76.2160  220.8790 N   0  0  0  0  0  0  0  0  0  0  0  0
  142.1840   76.2930  220.1630 C   0  0  0  0  0  0  0  0  0  0  0  0
  141.6670   76.8010  218.8080 C   0  0  0  0  0  0  0  0  0  0  0  0
  140.8730   78.0190  219.3110 C   0  0  0  0  0  0  0  0  0  0  0  0
  140.4010   77.5950  220.6640 C   0  0  2  0  0  0  0  0  0  0  0  0
  140.9660   78.5340  221.6820 C   0  0  0  0  0  0  0  0  0  0  0  0
  141.3440   78.0910  222.9470 C   0  0  0  0  0  0  0  0  0  0  0  0
  141.8480   78.9420  223.9090 C   0  0  0  0  0  0  0  0  0  0  0  0
  142.0000   80.2880  223.6570 C   0  0  0  0  0  0  0  0  0  0  0  0
  141.6330   80.7530  222.4150 C   0  0  0  0  0  0  0  0  0  0  0  0
  141.7900   82.1110  222.1680 O   0  0  0  0  0  0  0  0  0  0  0  0
  141.1230   79.8820  221.4440 C   0  0  0  0  0  0  0  0  0  0  0  0
  139.9450   70.7080  223.6890 C   0  0  0  0  0  0  0  0  0  0  0  0
  139.2760   69.5110  223.5200 C   0  0  0  0  0  0  0  0  0  0  0  0
  139.1670   68.7150  224.6610 C   0  0  0  0  0  0  0  0  0  0  0  0
  139.7050   69.1220  225.8700 C   0  0  0  0  0  0  0  0  0  0  0  0
  139.5940   68.3300  226.9970 C   0  0  0  0  0  0  0  0  0  0  0  0
  140.1360   68.7520  228.1960 C   0  0  0  0  0  0  0  0  0  0  0  0
  140.8030   69.9760  228.2990 C   0  0  0  0  0  0  0  0  0  0  0  0
  140.9110   70.7660  227.1660 C   0  0  0  0  0  0  0  0  0  0  0  0
  140.3640   70.3280  225.9810 C   0  0  0  0  0  0  0  0  0  0  0  0
  140.4650   71.0900  224.8780 N   0  0  0  0  0  0  0  0  0  0  0  0
  139.8480   73.3590  223.5840 H   0  0  0  0  0  0  0  0  0  0  0  0
  141.0308   73.4804  220.9149 H   0  0  0  0  0  0  0  0  0  0  0  0
  139.1676   73.6687  220.9179 H   0  0  0  0  0  0  0  0  0  0  0  0
  142.8816   77.0045  220.6290 H   0  0  0  0  0  0  0  0  0  0  0  0
  142.7599   75.3566  220.1234 H   0  0  0  0  0  0  0  0  0  0  0  0
  142.4864   77.0899  218.1333 H   0  0  0  0  0  0  0  0  0  0  0  0
  141.0989   76.0736  218.2096 H   0  0  0  0  0  0  0  0  0  0  0  0
  141.5182   78.9072  219.3804 H   0  0  0  0  0  0  0  0  0  0  0  0
  140.0487   78.2997  218.6388 H   0  0  0  0  0  0  0  0  0  0  0  0
  139.3043   77.6063  220.7484 H   0  0  0  0  0  0  0  0  0  0  0  0
  141.2368   77.0231  223.1882 H   0  0  0  0  0  0  0  0  0  0  0  0
  142.1329   78.5396  224.8923 H   0  0  0  0  0  0  0  0  0  0  0  0
  142.4012   80.9680  224.4229 H   0  0  0  0  0  0  0  0  0  0  0  0
  141.4150   82.4340  221.2680 H   0  0  0  0  0  0  0  0  0  0  0  0
  140.8391   80.2865  220.4613 H   0  0  0  0  0  0  0  0  0  0  0  0
  138.8569   69.2056  222.5499 H   0  0  0  0  0  0  0  0  0  0  0  0
  138.6452   67.7486  224.5988 H   0  0  0  0  0  0  0  0  0  0  0  0
  139.0736   67.3626  226.9396 H   0  0  0  0  0  0  0  0  0  0  0  0
  140.0408   68.1127  229.0861 H   0  0  0  0  0  0  0  0  0  0  0  0
  141.2321   70.3043  229.2572 H   0  0  0  0  0  0  0  0  0  0  0  0
  141.4294   71.7350  227.2129 H   0  0  0  0  0  0  0  0  0  0  0  0
  1  2  2  0
  2  3  1  0
  3  4  1  0
  4  5  1  0
  5  6  2  0
  5  7  1  0
  7  8  1  0
  8  9  1  0
  9 10  1  0
 10 11  1  0
 11 12  1  0
 12 13  2  0
 13 14  1  0
 14 15  2  0
 15 16  1  0
 16 17  1  0
 16 18  2  0
  2 19  1  0
 19 20  2  0
 20 21  1  0
 21 22  2  0
 22 23  1  0
 23 24  2  0
 24 25  1  0
 25 26  2  0
 26 27  1  0
 27 28  2  0
 11  7  1  0
 18 12  1  0
 28 19  1  0
 27 22  1  0
  3 29  1  0
  4 30  1  0
  4 31  1  0
  8 32  1  0
  8 33  1  0
  9 34  1  0
  9 35  1  0
 10 36  1  0
 10 37  1  0
 11 38  1  6
 13 39  1  0
 14 40  1  0
 15 41  1  0
 17 42  1  0
 18 43  1  0
 20 44  1  0
 21 45  1  0
 23 46  1  0
 24 47  1  0
 25 48  1  0
 26 49  1  0
M  END
>  <smiles>  (26) 
O=C(NCC(=O)N1CCCC1c1cccc(O)c1)c1ccc2ccccc2n1

>  <score_type>  (26) 
oracle

>  <origin>  (26) 
autodockgpu

>  <m_score__min__energy>  (26) 
-9.1899999999999995

>  <m_primary>  (26) 
energy

>  <rmsd>  (26) 
3.329082858606754

>  <m_score__min__rmsd>  (26) 
3.329082858606754

>  <meeko>  (26) 
{"free_energy": -8.24, "intermolecular_energy": -10.03, "internal_energy": -1.37, "cluster_size": 11, "cluster_id": 3, "rank_in_cluster": 9}

>  <energy>  (26) 
-8.28

>  <cluster_rmsd>  (26) 
1.0

>  <cluster>  (26) 
2

$$$$

     RDKit          3D

 49 52  0  0  0  0  0  0  0  0999 V2000
  141.0710   74.9590  221.2660 O   0  0  0  0  0  0  0  0  0  0  0  0
  140.1890   75.5120  221.9700 C   0  0  0  0  0  0  0  0  0  0  0  0
  139.0770   74.6600  222.3330 N   0  0  0  0  0  0  0  0  0  0  0  0
  139.0290   73.3030  221.9000 C   0  0  0  0  0  0  0  0  0  0  0  0
  139.5680   72.2580  222.7680 C   0  0  0  0  0  0  0  0  0  0  0  0
  140.8620   72.3170  222.8880 O   0  0  0  0  0  0  0  0  0  0  0  0
  138.9460   71.2360  223.4750 N   0  0  0  0  0  0  0  0  0  0  0  0
  137.6240   70.9310  223.9580 C   0  0  0  0  0  0  0  0  0  0  0  0
  137.4360   69.5450  223.3220 C   0  0  0  0  0  0  0  0  0  0  0  0
  138.7270   68.8830  223.8340 C   0  0  0  0  0  0  0  0  0  0  0  0
  139.6960   70.0190  223.9120 C   0  0  2  0  0  0  0  0  0  0  0  0
  140.1430   70.1690  225.3310 C   0  0  0  0  0  0  0  0  0  0  0  0
  140.6150   71.3850  225.8180 C   0  0  0  0  0  0  0  0  0  0  0  0
  141.0530   71.5410  227.1180 C   0  0  0  0  0  0  0  0  0  0  0  0
  141.0440   70.4850  228.0020 C   0  0  0  0  0  0  0  0  0  0  0  0
  140.5830   69.2710  227.5460 C   0  0  0  0  0  0  0  0  0  0  0  0
  140.5770   68.2110  228.4430 O   0  0  0  0  0  0  0  0  0  0  0  0
  140.1400   69.1210  226.2260 C   0  0  0  0  0  0  0  0  0  0  0  0
  140.2560   76.9030  222.4020 C   0  0  0  0  0  0  0  0  0  0  0  0
  139.0500   77.5310  222.6500 C   0  0  0  0  0  0  0  0  0  0  0  0
  139.1370   78.8620  223.0610 C   0  0  0  0  0  0  0  0  0  0  0  0
  140.3640   79.4870  223.2030 C   0  0  0  0  0  0  0  0  0  0  0  0
  140.4450   80.8040  223.6100 C   0  0  0  0  0  0  0  0  0  0  0  0
  141.6780   81.4140  223.7470 C   0  0  0  0  0  0  0  0  0  0  0  0
  142.8620   80.7200  223.4800 C   0  0  0  0  0  0  0  0  0  0  0  0
  142.7750   79.3980  223.0720 C   0  0  0  0  0  0  0  0  0  0  0  0
  141.5370   78.8110  222.9420 C   0  0  0  0  0  0  0  0  0  0  0  0
  141.4460   77.5290  222.5460 N   0  0  0  0  0  0  0  0  0  0  0  0
  138.3450   75.1350  222.9240 H   0  0  0  0  0  0  0  0  0  0  0  0
  137.9711   73.0595  221.7227 H   0  0  0  0  0  0  0  0  0  0  0  0
  139.6942   73.2843  221.0241 H   0  0  0  0  0  0  0  0  0  0  0  0
  137.5884   70.8868  225.0565 H   0  0  0  0  0  0  0  0  0  0  0  0
  136.8505   71.6712  223.7053 H   0  0  0  0  0  0  0  0  0  0  0  0
  136.5340   69.0371  223.6940 H   0  0  0  0  0  0  0  0  0  0  0  0
  137.2938   69.5349  222.2313 H   0  0  0  0  0  0  0  0  0  0  0  0
  138.5707   68.4311  224.8246 H   0  0  0  0  0  0  0  0  0  0  0  0
  139.0760   68.0667  223.1845 H   0  0  0  0  0  0  0  0  0  0  0  0
  140.5831   69.8577  223.2818 H   0  0  0  0  0  0  0  0  0  0  0  0
  140.6398   72.2528  225.1425 H   0  0  0  0  0  0  0  0  0  0  0  0
  141.4149   72.5243  227.4530 H   0  0  0  0  0  0  0  0  0  0  0  0
  141.3935   70.6077  229.0377 H   0  0  0  0  0  0  0  0  0  0  0  0
  140.3430   67.2980  228.0340 H   0  0  0  0  0  0  0  0  0  0  0  0
  139.7786   68.1367  225.8934 H   0  0  0  0  0  0  0  0  0  0  0  0
  138.0854   77.0158  222.5313 H   0  0  0  0  0  0  0  0  0  0  0  0
  138.2157   79.4234  223.2756 H   0  0  0  0  0  0  0  0  0  0  0  0
  139.5263   81.3691  223.8257 H   0  0  0  0  0  0  0  0  0  0  0  0
  141.7284   82.4638  224.0717 H   0  0  0  0  0  0  0  0  0  0  0  0
  143.8398   81.2115  223.5911 H   0  0  0  0  0  0  0  0  0  0  0  0
  143.6873   78.8233  222.8541 H   0  0  0  0  0  0  0  0  0  0  0  0
  1  2  2  0
  2  3  1  0
  3  4  1  0
  4  5  1  0
  5  6  2  0
  5  7  1  0
  7  8  1  0
  8  9  1  0
  9 10  1  0
 10 11  1  0
 11 12  1  0
 12 13  2  0
 13 14  1  0
 14 15  2  0
 15 16  1  0
 16 17  1  0
 16 18  2  0
  2 19  1  0
 19 20  2  0
 20 21  1  0
 21 22  2  0
 22 23  1  0
 23 24  2  0
 24 25  1  0
 25 26  2  0
 26 27  1  0
 27 28  2  0
 11  7  1  0
 18 12  1  0
 28 19  1  0
 27 22  1  0
  3 29  1  0
  4 30  1  0
  4 31  1  0
  8 32  1  0
  8 33  1  0
  9 34  1  0
  9 35  1  0
 10 36  1  0
 10 37  1  0
 11 38  1  6
 13 39  1  0
 14 40  1  0
 15 41  1  0
 17 42  1  0
 18 43  1  0
 20 44  1  0
 21 45  1  0
 23 46  1  0
 24 47  1  0
 25 48  1  0
 26 49  1  0
M  END
>  <smiles>  (27) 
O=C(NCC(=O)N1CCCC1c1cccc(O)c1)c1ccc2ccccc2n1

>  <score_type>  (27) 
oracle

>  <origin>  (27) 
autodockgpu

>  <m_score__min__energy>  (27) 
-9.1899999999999995

>  <m_primary>  (27) 
energy

>  <rmsd>  (27) 
9.019892554547164

>  <m_score__min__rmsd>  (27) 
9.019892554547164

>  <meeko>  (27) 
{"free_energy": -9.15, "intermolecular_energy": -10.94, "internal_energy": -1.05, "cluster_size": 16, "cluster_id": 1, "rank_in_cluster": 4}

>  <energy>  (27) 
-8.18

>  <cluster_rmsd>  (27) 
1.09

>  <cluster>  (27) 
2

$$$$

     RDKit          3D

 49 52  0  0  0  0  0  0  0  0999 V2000
  141.4960   72.6200  221.9760 O   0  0  0  0  0  0  0  0  0  0  0  0
  140.4450   72.5870  222.6630 C   0  0  0  0  0  0  0  0  0  0  0  0
  139.4490   73.5720  222.3010 N   0  0  0  0  0  0  0  0  0  0  0  0
  139.6870   74.4900  221.2370 C   0  0  0  0  0  0  0  0  0  0  0  0
  140.2360   75.8090  221.5450 C   0  0  0  0  0  0  0  0  0  0  0  0
  139.9230   76.2220  222.7380 O   0  0  0  0  0  0  0  0  0  0  0  0
  141.0210   76.6780  220.7960 N   0  0  0  0  0  0  0  0  0  0  0  0
  142.2870   76.6410  220.1120 C   0  0  0  0  0  0  0  0  0  0  0  0
  141.8330   77.0980  218.7160 C   0  0  0  0  0  0  0  0  0  0  0  0
  141.0990   78.3860  219.1260 C   0  0  0  0  0  0  0  0  0  0  0  0
  140.5710   78.0700  220.4890 C   0  0  2  0  0  0  0  0  0  0  0  0
  141.1650   79.0330  221.4660 C   0  0  0  0  0  0  0  0  0  0  0  0
  141.6780   78.6030  222.6880 C   0  0  0  0  0  0  0  0  0  0  0  0
  142.2110   79.4760  223.6140 C   0  0  0  0  0  0  0  0  0  0  0  0
  142.2590   80.8310  223.3680 C   0  0  0  0  0  0  0  0  0  0  0  0
  141.7590   81.2820  222.1680 C   0  0  0  0  0  0  0  0  0  0  0  0
  141.8110   82.6490  221.9270 O   0  0  0  0  0  0  0  0  0  0  0  0
  141.2200   80.3900  221.2340 C   0  0  0  0  0  0  0  0  0  0  0  0
  140.2210   71.6400  223.7490 C   0  0  0  0  0  0  0  0  0  0  0  0
  139.4980   70.5040  223.4400 C   0  0  0  0  0  0  0  0  0  0  0  0
  139.2950   69.6120  224.4940 C   0  0  0  0  0  0  0  0  0  0  0  0
  139.7960   69.8740  225.7570 C   0  0  0  0  0  0  0  0  0  0  0  0
  139.5920   68.9890  226.7970 C   0  0  0  0  0  0  0  0  0  0  0  0
  140.0990   69.2650  228.0530 C   0  0  0  0  0  0  0  0  0  0  0  0
  140.8240   70.4350  228.3000 C   0  0  0  0  0  0  0  0  0  0  0  0
  141.0260   71.3200  227.2530 C   0  0  0  0  0  0  0  0  0  0  0  0
  140.5120   71.0250  226.0100 C   0  0  0  0  0  0  0  0  0  0  0  0
  140.7040   71.8800  224.9900 N   0  0  0  0  0  0  0  0  0  0  0  0
  138.5720   73.5330  222.8840 H   0  0  0  0  0  0  0  0  0  0  0  0
  140.3884   74.0035  220.5432 H   0  0  0  0  0  0  0  0  0  0  0  0
  138.6812   74.7085  220.8489 H   0  0  0  0  0  0  0  0  0  0  0  0
  143.0139   77.3372  220.5557 H   0  0  0  0  0  0  0  0  0  0  0  0
  142.8078   75.6725  220.1418 H   0  0  0  0  0  0  0  0  0  0  0  0
  142.6839   77.3002  218.0489 H   0  0  0  0  0  0  0  0  0  0  0  0
  141.2381   76.3701  218.1448 H   0  0  0  0  0  0  0  0  0  0  0  0
  141.7925   79.2391  219.1613 H   0  0  0  0  0  0  0  0  0  0  0  0
  140.3084   78.6722  218.4167 H   0  0  0  0  0  0  0  0  0  0  0  0
  139.4752   78.1489  220.5437 H   0  0  0  0  0  0  0  0  0  0  0  0
  141.6573   77.5286  222.9230 H   0  0  0  0  0  0  0  0  0  0  0  0
  142.6039   79.0841  224.5638 H   0  0  0  0  0  0  0  0  0  0  0  0
  142.6826   81.5283  224.1058 H   0  0  0  0  0  0  0  0  0  0  0  0
  141.4330   82.9440  221.0180 H   0  0  0  0  0  0  0  0  0  0  0  0
  140.8280   80.7846  220.2850 H   0  0  0  0  0  0  0  0  0  0  0  0
  139.1078   70.3149  222.4291 H   0  0  0  0  0  0  0  0  0  0  0  0
  138.7278   68.6861  224.3180 H   0  0  0  0  0  0  0  0  0  0  0  0
  139.0247   68.0622  226.6257 H   0  0  0  0  0  0  0  0  0  0  0  0
  139.9291   68.5516  228.8728 H   0  0  0  0  0  0  0  0  0  0  0  0
  141.2246   70.6479  229.3021 H   0  0  0  0  0  0  0  0  0  0  0  0
  141.5917   72.2496  227.4133 H   0  0  0  0  0  0  0  0  0  0  0  0
  1  2  2  0
  2  3  1  0
  3  4  1  0
  4  5  1  0
  5  6  2  0
  5  7  1  0
  7  8  1  0
  8  9  1  0
  9 10  1  0
 10 11  1  0
 11 12  1  0
 12 13  2  0
 13 14  1  0
 14 15  2  0
 15 16  1  0
 16 17  1  0
 16 18  2  0
  2 19  1  0
 19 20  2  0
 20 21  1  0
 21 22  2  0
 22 23  1  0
 23 24  2  0
 24 25  1  0
 25 26  2  0
 26 27  1  0
 27 28  2  0
 11  7  1  0
 18 12  1  0
 28 19  1  0
 27 22  1  0
  3 29  1  0
  4 30  1  0
  4 31  1  0
  8 32  1  0
  8 33  1  0
  9 34  1  0
  9 35  1  0
 10 36  1  0
 10 37  1  0
 11 38  1  6
 13 39  1  0
 14 40  1  0
 15 41  1  0
 17 42  1  0
 18 43  1  0
 20 44  1  0
 21 45  1  0
 23 46  1  0
 24 47  1  0
 25 48  1  0
 26 49  1  0
M  END
>  <smiles>  (28) 
O=C(NCC(=O)N1CCCC1c1cccc(O)c1)c1ccc2ccccc2n1

>  <score_type>  (28) 
oracle

>  <origin>  (28) 
autodockgpu

>  <m_score__min__energy>  (28) 
-9.1899999999999995

>  <m_primary>  (28) 
energy

>  <rmsd>  (28) 
3.499672253482509

>  <m_score__min__rmsd>  (28) 
3.499672253482509

>  <meeko>  (28) 
{"free_energy": -8.51, "intermolecular_energy": -10.3, "internal_energy": -1.12, "cluster_size": 11, "cluster_id": 3, "rank_in_cluster": 2}

>  <energy>  (28) 
-7.64

>  <cluster_rmsd>  (28) 
1.35

>  <cluster>  (28) 
2

$$$$

     RDKit          3D

 49 52  0  0  0  0  0  0  0  0999 V2000
  141.4160   72.5330  221.8700 O   0  0  0  0  0  0  0  0  0  0  0  0
  140.4210   72.5660  222.6360 C   0  0  0  0  0  0  0  0  0  0  0  0
  139.4740   73.6250  222.3590 N   0  0  0  0  0  0  0  0  0  0  0  0
  139.6980   74.5380  221.2880 C   0  0  0  0  0  0  0  0  0  0  0  0
  140.0180   75.9310  221.5950 C   0  0  0  0  0  0  0  0  0  0  0  0
  141.2860   76.1230  221.8140 O   0  0  0  0  0  0  0  0  0  0  0  0
  139.2160   77.0620  221.6870 N   0  0  0  0  0  0  0  0  0  0  0  0
  138.2130   77.7200  220.8900 C   0  0  0  0  0  0  0  0  0  0  0  0
  137.0750   77.7880  221.9220 C   0  0  0  0  0  0  0  0  0  0  0  0
  137.8510   78.4520  223.0720 C   0  0  0  0  0  0  0  0  0  0  0  0
  139.2460   77.9460  222.8930 C   0  0  2  0  0  0  0  0  0  0  0  0
  140.1510   79.1120  222.6560 C   0  0  0  0  0  0  0  0  0  0  0  0
  139.6670   80.3150  222.1470 C   0  0  0  0  0  0  0  0  0  0  0  0
  140.4880   81.3970  221.9010 C   0  0  0  0  0  0  0  0  0  0  0  0
  141.8400   81.3340  222.1510 C   0  0  0  0  0  0  0  0  0  0  0  0
  142.3450   80.1560  222.6540 C   0  0  0  0  0  0  0  0  0  0  0  0
  143.7100   80.1000  222.9040 O   0  0  0  0  0  0  0  0  0  0  0  0
  141.5060   79.0630  222.9010 C   0  0  0  0  0  0  0  0  0  0  0  0
  140.2110   71.6230  223.7280 C   0  0  0  0  0  0  0  0  0  0  0  0
  139.4880   70.4840  223.4300 C   0  0  0  0  0  0  0  0  0  0  0  0
  139.2980   69.5950  224.4900 C   0  0  0  0  0  0  0  0  0  0  0  0
  139.8120   69.8630  225.7460 C   0  0  0  0  0  0  0  0  0  0  0  0
  139.6220   68.9810  226.7920 C   0  0  0  0  0  0  0  0  0  0  0  0
  140.1410   69.2640  228.0410 C   0  0  0  0  0  0  0  0  0  0  0  0
  140.8650   70.4370  228.2760 C   0  0  0  0  0  0  0  0  0  0  0  0
  141.0530   71.3180  227.2240 C   0  0  0  0  0  0  0  0  0  0  0  0
  140.5270   71.0170  225.9880 C   0  0  0  0  0  0  0  0  0  0  0  0
  140.7060   71.8690  224.9620 N   0  0  0  0  0  0  0  0  0  0  0  0
  138.6430   73.6410  223.0070 H   0  0  0  0  0  0  0  0  0  0  0  0
  140.5341   74.1391  220.6949 H   0  0  0  0  0  0  0  0  0  0  0  0
  138.7211   74.5979  220.7859 H   0  0  0  0  0  0  0  0  0  0  0  0
  138.5359   78.7211  220.5683 H   0  0  0  0  0  0  0  0  0  0  0  0
  137.9598   77.2160  219.9456 H   0  0  0  0  0  0  0  0  0  0  0  0
  136.2366   78.4095  221.5744 H   0  0  0  0  0  0  0  0  0  0  0  0
  136.5900   76.8305  222.1627 H   0  0  0  0  0  0  0  0  0  0  0  0
  137.8170   79.5482  222.9873 H   0  0  0  0  0  0  0  0  0  0  0  0
  137.4340   78.2148  224.0619 H   0  0  0  0  0  0  0  0  0  0  0  0
  139.6087   77.3962  223.7740 H   0  0  0  0  0  0  0  0  0  0  0  0
  138.5918   80.4060  221.9334 H   0  0  0  0  0  0  0  0  0  0  0  0
  140.0548   82.3246  221.4987 H   0  0  0  0  0  0  0  0  0  0  0  0
  142.4950   82.1958  221.9555 H   0  0  0  0  0  0  0  0  0  0  0  0
  144.2250   79.4070  222.3460 H   0  0  0  0  0  0  0  0  0  0  0  0
  141.9419   78.1365  223.3030 H   0  0  0  0  0  0  0  0  0  0  0  0
  139.0883   70.2901  222.4237 H   0  0  0  0  0  0  0  0  0  0  0  0
  138.7309   68.6673  224.3237 H   0  0  0  0  0  0  0  0  0  0  0  0
  139.0564   68.0515  226.6304 H   0  0  0  0  0  0  0  0  0  0  0  0
  139.9817   68.5535  228.8655 H   0  0  0  0  0  0  0  0  0  0  0  0
  141.2756   70.6549  229.2730 H   0  0  0  0  0  0  0  0  0  0  0  0
  141.6176   72.2499  227.3748 H   0  0  0  0  0  0  0  0  0  0  0  0
  1  2  2  0
  2  3  1  0
  3  4  1  0
  4  5  1  0
  5  6  2  0
  5  7  1  0
  7  8  1  0
  8  9  1  0
  9 10  1  0
 10 11  1  0
 11 12  1  0
 12 13  2  0
 13 14  1  0
 14 15  2  0
 15 16  1  0
 16 17  1  0
 16 18  2  0
  2 19  1  0
 19 20  2  0
 20 21  1  0
 21 22  2  0
 22 23  1  0
 23 24  2  0
 24 25  1  0
 25 26  2  0
 26 27  1  0
 27 28  2  0
 11  7  1  0
 18 12  1  0
 28 19  1  0
 27 22  1  0
  3 29  1  0
  4 30  1  0
  4 31  1  0
  8 32  1  0
  8 33  1  0
  9 34  1  0
  9 35  1  0
 10 36  1  0
 10 37  1  0
 11 38  1  1
 13 39  1  0
 14 40  1  0
 15 41  1  0
 17 42  1  0
 18 43  1  0
 20 44  1  0
 21 45  1  0
 23 46  1  0
 24 47  1  0
 25 48  1  0
 26 49  1  0
M  END
>  <smiles>  (29) 
O=C(NCC(=O)N1CCCC1c1cccc(O)c1)c1ccc2ccccc2n1

>  <score_type>  (29) 
oracle

>  <origin>  (29) 
autodockgpu

>  <m_score__min__energy>  (29) 
-9.1899999999999995

>  <m_primary>  (29) 
energy

>  <rmsd>  (29) 
3.560340266218211

>  <m_score__min__rmsd>  (29) 
3.560340266218211

>  <meeko>  (29) 
{"free_energy": -8.45, "intermolecular_energy": -10.24, "internal_energy": -1.05, "cluster_size": 11, "cluster_id": 3, "rank_in_cluster": 4}

>  <energy>  (29) 
-7.59

>  <cluster_rmsd>  (29) 
1.39

>  <cluster>  (29) 
2

$$$$

     RDKit          3D

 49 52  0  0  0  0  0  0  0  0999 V2000
  137.6510   75.8130  222.3810 O   0  0  0  0  0  0  0  0  0  0  0  0
  138.8740   76.0950  222.4260 C   0  0  0  0  0  0  0  0  0  0  0  0
  139.7660   74.9790  222.1940 N   0  0  0  0  0  0  0  0  0  0  0  0
  139.2490   73.6760  221.9390 C   0  0  0  0  0  0  0  0  0  0  0  0
  139.7510   72.5450  222.7160 C   0  0  0  0  0  0  0  0  0  0  0  0
  141.0490   72.5390  222.8220 O   0  0  0  0  0  0  0  0  0  0  0  0
  139.0940   71.4980  223.3500 N   0  0  0  0  0  0  0  0  0  0  0  0
  137.7490   71.1770  223.7530 C   0  0  0  0  0  0  0  0  0  0  0  0
  137.5950   69.8160  223.0550 C   0  0  0  0  0  0  0  0  0  0  0  0
  138.8570   69.1330  223.6080 C   0  0  0  0  0  0  0  0  0  0  0  0
  139.8210   70.2630  223.7790 C   0  0  2  0  0  0  0  0  0  0  0  0
  140.1940   70.3580  225.2240 C   0  0  0  0  0  0  0  0  0  0  0  0
  140.7090   71.5340  225.7640 C   0  0  0  0  0  0  0  0  0  0  0  0
  141.0800   71.6380  227.0890 C   0  0  0  0  0  0  0  0  0  0  0  0
  140.9580   70.5670  227.9470 C   0  0  0  0  0  0  0  0  0  0  0  0
  140.4520   69.3920  227.4390 C   0  0  0  0  0  0  0  0  0  0  0  0
  140.3320   68.3180  228.3100 O   0  0  0  0  0  0  0  0  0  0  0  0
  140.0780   69.2950  226.0930 C   0  0  0  0  0  0  0  0  0  0  0  0
  139.3840   77.4350  222.6910 C   0  0  0  0  0  0  0  0  0  0  0  0
  138.4430   78.4320  222.8620 C   0  0  0  0  0  0  0  0  0  0  0  0
  138.9520   79.7060  223.1130 C   0  0  0  0  0  0  0  0  0  0  0  0
  140.3160   79.9290  223.1820 C   0  0  0  0  0  0  0  0  0  0  0  0
  140.8160   81.1920  223.4310 C   0  0  0  0  0  0  0  0  0  0  0  0
  142.1810   81.3980  223.4960 C   0  0  0  0  0  0  0  0  0  0  0  0
  143.0820   80.3440  223.3140 C   0  0  0  0  0  0  0  0  0  0  0  0
  142.5750   79.0790  223.0640 C   0  0  0  0  0  0  0  0  0  0  0  0
  141.2120   78.8960  223.0040 C   0  0  0  0  0  0  0  0  0  0  0  0
  140.7140   77.6710  222.7610 N   0  0  0  0  0  0  0  0  0  0  0  0
  140.7890   75.2290  222.2340 H   0  0  0  0  0  0  0  0  0  0  0  0
  138.1627   73.7231  222.1052 H   0  0  0  0  0  0  0  0  0  0  0  0
  139.5834   73.4580  220.9140 H   0  0  0  0  0  0  0  0  0  0  0  0
  137.6572   71.0908  224.8458 H   0  0  0  0  0  0  0  0  0  0  0  0
  136.9890   71.9275  223.4901 H   0  0  0  0  0  0  0  0  0  0  0  0
  136.6749   69.2957  223.3594 H   0  0  0  0  0  0  0  0  0  0  0  0
  137.5102   69.8480  221.9587 H   0  0  0  0  0  0  0  0  0  0  0  0
  138.6492   68.6446  224.5715 H   0  0  0  0  0  0  0  0  0  0  0  0
  139.2392   68.3410  222.9472 H   0  0  0  0  0  0  0  0  0  0  0  0
  140.7395   70.1240  223.1900 H   0  0  0  0  0  0  0  0  0  0  0  0
  140.8241   72.4115  225.1107 H   0  0  0  0  0  0  0  0  0  0  0  0
  141.4794   72.5910  227.4661 H   0  0  0  0  0  0  0  0  0  0  0  0
  141.2551   70.6482  229.0030 H   0  0  0  0  0  0  0  0  0  0  0  0
  140.2870   67.3960  227.8580 H   0  0  0  0  0  0  0  0  0  0  0  0
  139.6794   68.3409  225.7179 H   0  0  0  0  0  0  0  0  0  0  0  0
  137.3625   78.2339  222.8040 H   0  0  0  0  0  0  0  0  0  0  0  0
  138.2581   80.5470  223.2585 H   0  0  0  0  0  0  0  0  0  0  0  0
  140.1261   82.0361  223.5779 H   0  0  0  0  0  0  0  0  0  0  0  0
  142.5657   82.4092  223.6945 H   0  0  0  0  0  0  0  0  0  0  0  0
  144.1673   80.5152  223.3680 H   0  0  0  0  0  0  0  0  0  0  0  0
  143.2559   78.2281  222.9147 H   0  0  0  0  0  0  0  0  0  0  0  0
  1  2  2  0
  2  3  1  0
  3  4  1  0
  4  5  1  0
  5  6  2  0
  5  7  1  0
  7  8  1  0
  8  9  1  0
  9 10  1  0
 10 11  1  0
 11 12  1  0
 12 13  2  0
 13 14  1  0
 14 15  2  0
 15 16  1  0
 16 17  1  0
 16 18  2  0
  2 19  1  0
 19 20  2  0
 20 21  1  0
 21 22  2  0
 22 23  1  0
 23 24  2  0
 24 25  1  0
 25 26  2  0
 26 27  1  0
 27 28  2  0
 11  7  1  0
 18 12  1  0
 28 19  1  0
 27 22  1  0
  3 29  1  0
  4 30  1  0
  4 31  1  0
  8 32  1  0
  8 33  1  0
  9 34  1  0
  9 35  1  0
 10 36  1  0
 10 37  1  0
 11 38  1  6
 13 39  1  0
 14 40  1  0
 15 41  1  0
 17 42  1  0
 18 43  1  0
 20 44  1  0
 21 45  1  0
 23 46  1  0
 24 47  1  0
 25 48  1  0
 26 49  1  0
M  END
>  <smiles>  (30) 
O=C(NCC(=O)N1CCCC1c1cccc(O)c1)c1ccc2ccccc2n1

>  <score_type>  (30) 
oracle

>  <origin>  (30) 
autodockgpu

>  <m_score__min__energy>  (30) 
-9.1899999999999995

>  <m_primary>  (30) 
energy

>  <rmsd>  (30) 
9.113629527489072

>  <m_score__min__rmsd>  (30) 
9.113629527489072

>  <meeko>  (30) 
{"free_energy": -8.53, "intermolecular_energy": -10.32, "internal_energy": -1.48, "cluster_size": 16, "cluster_id": 1, "rank_in_cluster": 13}

>  <energy>  (30) 
-8.7

>  <cluster_rmsd>  (30) 
0.0

>  <cluster>  (30) 
3

$$$$

     RDKit          3D

 49 52  0  0  0  0  0  0  0  0999 V2000
  140.5050   74.3700  220.2260 O   0  0  0  0  0  0  0  0  0  0  0  0
  140.2930   75.0970  221.2290 C   0  0  0  0  0  0  0  0  0  0  0  0
  139.4590   74.4980  222.2490 N   0  0  0  0  0  0  0  0  0  0  0  0
  138.9400   73.1810  222.0840 C   0  0  0  0  0  0  0  0  0  0  0  0
  139.5480   72.0770  222.8240 C   0  0  0  0  0  0  0  0  0  0  0  0
  140.8490   72.1000  222.7890 O   0  0  0  0  0  0  0  0  0  0  0  0
  138.9860   71.0320  223.5460 N   0  0  0  0  0  0  0  0  0  0  0  0
  137.6760   70.6350  223.9930 C   0  0  0  0  0  0  0  0  0  0  0  0
  137.6270   69.2170  223.4030 C   0  0  0  0  0  0  0  0  0  0  0  0
  138.9470   68.6830  223.9850 C   0  0  0  0  0  0  0  0  0  0  0  0
  139.8160   69.8970  224.0540 C   0  0  2  0  0  0  0  0  0  0  0  0
  140.1950   70.1320  225.4810 C   0  0  0  0  0  0  0  0  0  0  0  0
  140.6130   71.3850  225.9240 C   0  0  0  0  0  0  0  0  0  0  0  0
  140.9890   71.6190  227.2310 C   0  0  0  0  0  0  0  0  0  0  0  0
  140.9670   70.6100  228.1680 C   0  0  0  0  0  0  0  0  0  0  0  0
  140.5580   69.3620  227.7570 C   0  0  0  0  0  0  0  0  0  0  0  0
  140.5380   68.3500  228.7080 O   0  0  0  0  0  0  0  0  0  0  0  0
  140.1790   69.1320  226.4290 C   0  0  0  0  0  0  0  0  0  0  0  0
  140.8310   76.4430  221.3780 C   0  0  0  0  0  0  0  0  0  0  0  0
  141.2380   77.0790  220.2210 C   0  0  0  0  0  0  0  0  0  0  0  0
  141.7510   78.3660  220.3870 C   0  0  0  0  0  0  0  0  0  0  0  0
  141.8340   78.9440  221.6410 C   0  0  0  0  0  0  0  0  0  0  0  0
  142.3430   80.2190  221.8010 C   0  0  0  0  0  0  0  0  0  0  0  0
  142.4200   80.7820  223.0610 C   0  0  0  0  0  0  0  0  0  0  0  0
  141.9890   80.0840  224.1940 C   0  0  0  0  0  0  0  0  0  0  0  0
  141.4800   78.8060  224.0280 C   0  0  0  0  0  0  0  0  0  0  0  0
  141.4130   78.2640  222.7650 C   0  0  0  0  0  0  0  0  0  0  0  0
  140.9200   77.0240  222.5970 N   0  0  0  0  0  0  0  0  0  0  0  0
  139.2890   75.1170  223.0850 H   0  0  0  0  0  0  0  0  0  0  0  0
  137.8790   73.2153  222.3722 H   0  0  0  0  0  0  0  0  0  0  0  0
  139.1593   72.9433  221.0326 H   0  0  0  0  0  0  0  0  0  0  0  0
  137.6020   70.6258  225.0905 H   0  0  0  0  0  0  0  0  0  0  0  0
  136.8547   71.2991  223.6857 H   0  0  0  0  0  0  0  0  0  0  0  0
  136.7560   68.6487  223.7613 H   0  0  0  0  0  0  0  0  0  0  0  0
  137.5283   69.1576  222.3090 H   0  0  0  0  0  0  0  0  0  0  0  0
  138.7903   68.2546  224.9859 H   0  0  0  0  0  0  0  0  0  0  0  0
  139.3862   67.8763  223.3797 H   0  0  0  0  0  0  0  0  0  0  0  0
  140.7364   69.7885  223.4615 H   0  0  0  0  0  0  0  0  0  0  0  0
  140.6445   72.2178  225.2061 H   0  0  0  0  0  0  0  0  0  0  0  0
  141.3114   72.6275  227.5291 H   0  0  0  0  0  0  0  0  0  0  0  0
  141.2663   70.7954  229.2101 H   0  0  0  0  0  0  0  0  0  0  0  0
  140.3880   67.4050  228.3330 H   0  0  0  0  0  0  0  0  0  0  0  0
  139.8586   68.1221  226.1333 H   0  0  0  0  0  0  0  0  0  0  0  0
  141.1625   76.6017  219.2328 H   0  0  0  0  0  0  0  0  0  0  0  0
  142.0947   78.9296  219.5071 H   0  0  0  0  0  0  0  0  0  0  0  0
  142.6874   80.7867  220.9240 H   0  0  0  0  0  0  0  0  0  0  0  0
  142.8276   81.7973  223.1748 H   0  0  0  0  0  0  0  0  0  0  0  0
  142.0527   80.5391  225.1934 H   0  0  0  0  0  0  0  0  0  0  0  0
  141.1325   78.2298  224.8982 H   0  0  0  0  0  0  0  0  0  0  0  0
  1  2  2  0
  2  3  1  0
  3  4  1  0
  4  5  1  0
  5  6  2  0
  5  7  1  0
  7  8  1  0
  8  9  1  0
  9 10  1  0
 10 11  1  0
 11 12  1  0
 12 13  2  0
 13 14  1  0
 14 15  2  0
 15 16  1  0
 16 17  1  0
 16 18  2  0
  2 19  1  0
 19 20  2  0
 20 21  1  0
 21 22  2  0
 22 23  1  0
 23 24  2  0
 24 25  1  0
 25 26  2  0
 26 27  1  0
 27 28  2  0
 11  7  1  0
 18 12  1  0
 28 19  1  0
 27 22  1  0
  3 29  1  0
  4 30  1  0
  4 31  1  0
  8 32  1  0
  8 33  1  0
  9 34  1  0
  9 35  1  0
 10 36  1  0
 10 37  1  0
 11 38  1  6
 13 39  1  0
 14 40  1  0
 15 41  1  0
 17 42  1  0
 18 43  1  0
 20 44  1  0
 21 45  1  0
 23 46  1  0
 24 47  1  0
 25 48  1  0
 26 49  1  0
M  END
>  <smiles>  (31) 
O=C(NCC(=O)N1CCCC1c1cccc(O)c1)c1ccc2ccccc2n1

>  <score_type>  (31) 
oracle

>  <origin>  (31) 
autodockgpu

>  <m_score__min__energy>  (31) 
-9.1899999999999995

>  <m_primary>  (31) 
energy

>  <rmsd>  (31) 
9.007554450611725

>  <m_score__min__rmsd>  (31) 
9.007554450611725

>  <meeko>  (31) 
{"free_energy": -8.68, "intermolecular_energy": -10.47, "internal_energy": -1.33, "cluster_size": 16, "cluster_id": 1, "rank_in_cluster": 8}

>  <energy>  (31) 
-8.51

>  <cluster_rmsd>  (31) 
1.33

>  <cluster>  (31) 
3

$$$$

     RDKit          3D

 49 52  0  0  0  0  0  0  0  0999 V2000
  141.2550   72.0730  221.6250 O   0  0  0  0  0  0  0  0  0  0  0  0
  140.3320   72.2300  222.4630 C   0  0  0  0  0  0  0  0  0  0  0  0
  139.3820   73.2710  222.1360 N   0  0  0  0  0  0  0  0  0  0  0  0
  139.5250   74.0370  220.9430 C   0  0  0  0  0  0  0  0  0  0  0  0
  140.5890   75.0360  220.8600 C   0  0  0  0  0  0  0  0  0  0  0  0
  140.7570   75.6900  221.9720 O   0  0  0  0  0  0  0  0  0  0  0  0
  141.4350   75.3970  219.8190 N   0  0  0  0  0  0  0  0  0  0  0  0
  141.3580   75.5340  218.3880 C   0  0  0  0  0  0  0  0  0  0  0  0
  141.8480   76.9840  218.2460 C   0  0  0  0  0  0  0  0  0  0  0  0
  143.1580   76.8600  219.0420 C   0  0  0  0  0  0  0  0  0  0  0  0
  142.8470   75.8190  220.0690 C   0  0  2  0  0  0  0  0  0  0  0  0
  143.7750   74.6630  219.8740 C   0  0  0  0  0  0  0  0  0  0  0  0
  143.6890   73.8450  218.7500 C   0  0  0  0  0  0  0  0  0  0  0  0
  144.5210   72.7600  218.5600 C   0  0  0  0  0  0  0  0  0  0  0  0
  145.4850   72.4330  219.4870 C   0  0  0  0  0  0  0  0  0  0  0  0
  145.5920   73.2250  220.6080 C   0  0  0  0  0  0  0  0  0  0  0  0
  146.5670   72.8900  221.5380 O   0  0  0  0  0  0  0  0  0  0  0  0
  144.7440   74.3240  220.7930 C   0  0  0  0  0  0  0  0  0  0  0  0
  140.2050   71.4370  223.6800 C   0  0  0  0  0  0  0  0  0  0  0  0
  139.5760   70.2130  223.5580 C   0  0  0  0  0  0  0  0  0  0  0  0
  139.4640   69.4710  224.7350 C   0  0  0  0  0  0  0  0  0  0  0  0
  139.9600   69.9550  225.9330 C   0  0  0  0  0  0  0  0  0  0  0  0
  139.8460   69.2180  227.0950 C   0  0  0  0  0  0  0  0  0  0  0  0
  140.3460   69.7150  228.2840 C   0  0  0  0  0  0  0  0  0  0  0  0
  140.9730   70.9640  228.3400 C   0  0  0  0  0  0  0  0  0  0  0  0
  141.0840   71.6990  227.1710 C   0  0  0  0  0  0  0  0  0  0  0  0
  140.5790   71.1850  225.9980 C   0  0  0  0  0  0  0  0  0  0  0  0
  140.6830   71.8940  224.8600 N   0  0  0  0  0  0  0  0  0  0  0  0
  138.6130   73.3920  222.8460 H   0  0  0  0  0  0  0  0  0  0  0  0
  139.6885   73.3243  220.1212 H   0  0  0  0  0  0  0  0  0  0  0  0
  138.6020   74.6341  220.9033 H   0  0  0  0  0  0  0  0  0  0  0  0
  142.0209   74.8243  217.8715 H   0  0  0  0  0  0  0  0  0  0  0  0
  140.3701   75.3283  217.9502 H   0  0  0  0  0  0  0  0  0  0  0  0
  142.0253   77.2608  217.1963 H   0  0  0  0  0  0  0  0  0  0  0  0
  141.1500   77.7605  218.5922 H   0  0  0  0  0  0  0  0  0  0  0  0
  143.9838   76.5359  218.3916 H   0  0  0  0  0  0  0  0  0  0  0  0
  143.4819   77.8138  219.4841 H   0  0  0  0  0  0  0  0  0  0  0  0
  142.9679   76.1937  221.0961 H   0  0  0  0  0  0  0  0  0  0  0  0
  142.9307   74.0717  217.9861 H   0  0  0  0  0  0  0  0  0  0  0  0
  144.4120   72.1468  217.6533 H   0  0  0  0  0  0  0  0  0  0  0  0
  146.1476   71.5678  219.3370 H   0  0  0  0  0  0  0  0  0  0  0  0
  146.4490   71.9680  221.9760 H   0  0  0  0  0  0  0  0  0  0  0  0
  144.8550   74.9358  221.7004 H   0  0  0  0  0  0  0  0  0  0  0  0
  139.1886   69.8469  222.5958 H   0  0  0  0  0  0  0  0  0  0  0  0
  138.9740   68.4865  224.7100 H   0  0  0  0  0  0  0  0  0  0  0  0
  139.3562   68.2333  227.0745 H   0  0  0  0  0  0  0  0  0  0  0  0
  140.2490   69.1176  229.2025 H   0  0  0  0  0  0  0  0  0  0  0  0
  141.3686   71.3534  229.2897 H   0  0  0  0  0  0  0  0  0  0  0  0
  141.5715   72.6850  227.1800 H   0  0  0  0  0  0  0  0  0  0  0  0
  1  2  2  0
  2  3  1  0
  3  4  1  0
  4  5  1  0
  5  6  2  0
  5  7  1  0
  7  8  1  0
  8  9  1  0
  9 10  1  0
 10 11  1  0
 11 12  1  0
 12 13  2  0
 13 14  1  0
 14 15  2  0
 15 16  1  0
 16 17  1  0
 16 18  2  0
  2 19  1  0
 19 20  2  0
 20 21  1  0
 21 22  2  0
 22 23  1  0
 23 24  2  0
 24 25  1  0
 25 26  2  0
 26 27  1  0
 27 28  2  0
 11  7  1  0
 18 12  1  0
 28 19  1  0
 27 22  1  0
  3 29  1  0
  4 30  1  0
  4 31  1  0
  8 32  1  0
  8 33  1  0
  9 34  1  0
  9 35  1  0
 10 36  1  0
 10 37  1  0
 11 38  1  1
 13 39  1  0
 14 40  1  0
 15 41  1  0
 17 42  1  0
 18 43  1  0
 20 44  1  0
 21 45  1  0
 23 46  1  0
 24 47  1  0
 25 48  1  0
 26 49  1  0
M  END
>  <smiles>  (32) 
O=C(NCC(=O)N1CCCC1c1cccc(O)c1)c1ccc2ccccc2n1

>  <score_type>  (32) 
oracle

>  <origin>  (32) 
autodockgpu

>  <m_score__min__energy>  (32) 
-9.1899999999999995

>  <m_primary>  (32) 
energy

>  <rmsd>  (32) 
3.0755330307989968

>  <m_score__min__rmsd>  (32) 
3.0755330307989968

>  <meeko>  (32) 
{"free_energy": -8.7, "intermolecular_energy": -10.49, "internal_energy": -1.13, "cluster_size": 13, "cluster_id": 2, "rank_in_cluster": 7}

>  <energy>  (32) 
-8.49

>  <cluster_rmsd>  (32) 
1.45

>  <cluster>  (32) 
3

$$$$

     RDKit          3D

 49 52  0  0  0  0  0  0  0  0999 V2000
  140.4000   71.5380  221.3150 O   0  0  0  0  0  0  0  0  0  0  0  0
  140.0270   72.0250  222.4120 C   0  0  0  0  0  0  0  0  0  0  0  0
  139.5660   73.3950  222.3460 N   0  0  0  0  0  0  0  0  0  0  0  0
  139.5560   74.0990  221.1070 C   0  0  0  0  0  0  0  0  0  0  0  0
  140.5470   75.1480  220.8760 C   0  0  0  0  0  0  0  0  0  0  0  0
  140.4730   76.1150  221.7440 O   0  0  0  0  0  0  0  0  0  0  0  0
  141.5360   75.2850  219.9100 N   0  0  0  0  0  0  0  0  0  0  0  0
  141.6090   75.4040  218.4760 C   0  0  0  0  0  0  0  0  0  0  0  0
  142.4250   76.7030  218.3720 C   0  0  0  0  0  0  0  0  0  0  0  0
  143.6030   76.3040  219.2770 C   0  0  0  0  0  0  0  0  0  0  0  0
  142.9810   75.3840  220.2770 C   0  0  2  0  0  0  0  0  0  0  0  0
  143.6360   74.0450  220.1660 C   0  0  0  0  0  0  0  0  0  0  0  0
  145.0230   73.9150  220.1340 C   0  0  0  0  0  0  0  0  0  0  0  0
  145.6480   72.6910  220.0100 C   0  0  0  0  0  0  0  0  0  0  0  0
  144.9190   71.5280  219.9120 C   0  0  0  0  0  0  0  0  0  0  0  0
  143.5460   71.6270  219.9410 C   0  0  0  0  0  0  0  0  0  0  0  0
  142.8170   70.4490  219.8410 O   0  0  0  0  0  0  0  0  0  0  0  0
  142.9190   72.8730  220.0660 C   0  0  0  0  0  0  0  0  0  0  0  0
  140.0460   71.2870  223.6700 C   0  0  0  0  0  0  0  0  0  0  0  0
  139.5630   69.9930  223.6350 C   0  0  0  0  0  0  0  0  0  0  0  0
  139.5910   69.3070  224.8500 C   0  0  0  0  0  0  0  0  0  0  0  0
  140.0760   69.9070  225.9980 C   0  0  0  0  0  0  0  0  0  0  0  0
  140.1010   69.2240  227.1990 C   0  0  0  0  0  0  0  0  0  0  0  0
  140.5890   69.8380  228.3370 C   0  0  0  0  0  0  0  0  0  0  0  0
  141.0650   71.1520  228.3030 C   0  0  0  0  0  0  0  0  0  0  0  0
  141.0370   71.8330  227.0970 C   0  0  0  0  0  0  0  0  0  0  0  0
  140.5470   71.2030  225.9760 C   0  0  0  0  0  0  0  0  0  0  0  0
  140.5170   71.8590  224.8020 N   0  0  0  0  0  0  0  0  0  0  0  0
  139.2550   73.7900  223.2710 H   0  0  0  0  0  0  0  0  0  0  0  0
  139.6879   73.3512  220.3112 H   0  0  0  0  0  0  0  0  0  0  0  0
  138.5990   74.6412  221.1214 H   0  0  0  0  0  0  0  0  0  0  0  0
  142.1337   74.5518  218.0194 H   0  0  0  0  0  0  0  0  0  0  0  0
  140.6394   75.4166  217.9567 H   0  0  0  0  0  0  0  0  0  0  0  0
  142.7461   76.9095  217.3404 H   0  0  0  0  0  0  0  0  0  0  0  0
  141.8952   77.6244  218.6553 H   0  0  0  0  0  0  0  0  0  0  0  0
  144.3841   75.7871  218.7001 H   0  0  0  0  0  0  0  0  0  0  0  0
  144.0976   77.1696  219.7418 H   0  0  0  0  0  0  0  0  0  0  0  0
  143.0986   75.7456  221.3092 H   0  0  0  0  0  0  0  0  0  0  0  0
  145.6422   74.8210  220.2104 H   0  0  0  0  0  0  0  0  0  0  0  0
  146.7468   72.6442  219.9891 H   0  0  0  0  0  0  0  0  0  0  0  0
  145.4165   70.5519  219.8138 H   0  0  0  0  0  0  0  0  0  0  0  0
  141.8100   70.5460  220.0210 H   0  0  0  0  0  0  0  0  0  0  0  0
  141.8201   72.9172  220.0849 H   0  0  0  0  0  0  0  0  0  0  0  0
  139.1817   69.5340  222.7109 H   0  0  0  0  0  0  0  0  0  0  0  0
  139.2212   68.2720  224.8955 H   0  0  0  0  0  0  0  0  0  0  0  0
  139.7316   68.1891  227.2494 H   0  0  0  0  0  0  0  0  0  0  0  0
  140.6031   69.2828  229.2865 H   0  0  0  0  0  0  0  0  0  0  0  0
  141.4527   71.6339  229.2126 H   0  0  0  0  0  0  0  0  0  0  0  0
  141.4033   72.8684  227.0360 H   0  0  0  0  0  0  0  0  0  0  0  0
  1  2  2  0
  2  3  1  0
  3  4  1  0
  4  5  1  0
  5  6  2  0
  5  7  1  0
  7  8  1  0
  8  9  1  0
  9 10  1  0
 10 11  1  0
 11 12  1  0
 12 13  2  0
 13 14  1  0
 14 15  2  0
 15 16  1  0
 16 17  1  0
 16 18  2  0
  2 19  1  0
 19 20  2  0
 20 21  1  0
 21 22  2  0
 22 23  1  0
 23 24  2  0
 24 25  1  0
 25 26  2  0
 26 27  1  0
 27 28  2  0
 11  7  1  0
 18 12  1  0
 28 19  1  0
 27 22  1  0
  3 29  1  0
  4 30  1  0
  4 31  1  0
  8 32  1  0
  8 33  1  0
  9 34  1  0
  9 35  1  0
 10 36  1  0
 10 37  1  0
 11 38  1  1
 13 39  1  0
 14 40  1  0
 15 41  1  0
 17 42  1  0
 18 43  1  0
 20 44  1  0
 21 45  1  0
 23 46  1  0
 24 47  1  0
 25 48  1  0
 26 49  1  0
M  END
>  <smiles>  (33) 
O=C(NCC(=O)N1CCCC1c1cccc(O)c1)c1ccc2ccccc2n1

>  <score_type>  (33) 
oracle

>  <origin>  (33) 
autodockgpu

>  <m_score__min__energy>  (33) 
-9.1899999999999995

>  <m_primary>  (33) 
energy

>  <rmsd>  (33) 
2.6256729311620908

>  <m_score__min__rmsd>  (33) 
2.6256729311620908

>  <meeko>  (33) 
{"free_energy": -7.59, "intermolecular_energy": -9.38, "internal_energy": -2.19, "cluster_size": 13, "cluster_id": 2, "rank_in_cluster": 13}

>  <energy>  (33) 
-8.45

>  <cluster_rmsd>  (33) 
1.46

>  <cluster>  (33) 
3

$$$$

     RDKit          3D

 49 52  0  0  0  0  0  0  0  0999 V2000
  140.4110   74.1120  220.2510 O   0  0  0  0  0  0  0  0  0  0  0  0
  140.1790   74.8570  221.2360 C   0  0  0  0  0  0  0  0  0  0  0  0
  139.3010   74.2890  222.2360 N   0  0  0  0  0  0  0  0  0  0  0  0
  138.7630   72.9800  222.0720 C   0  0  0  0  0  0  0  0  0  0  0  0
  139.3950   71.8570  222.7620 C   0  0  0  0  0  0  0  0  0  0  0  0
  140.6720   71.7710  222.5240 O   0  0  0  0  0  0  0  0  0  0  0  0
  138.8780   70.8890  223.6130 N   0  0  0  0  0  0  0  0  0  0  0  0
  137.5820   70.4760  224.0880 C   0  0  0  0  0  0  0  0  0  0  0  0
  137.6340   68.9890  223.7020 C   0  0  0  0  0  0  0  0  0  0  0  0
  138.9680   68.6260  224.3760 C   0  0  0  0  0  0  0  0  0  0  0  0
  139.7600   69.8900  224.2900 C   0  0  2  0  0  0  0  0  0  0  0  0
  140.0870   70.3450  225.6770 C   0  0  0  0  0  0  0  0  0  0  0  0
  139.6430   69.6410  226.7950 C   0  0  0  0  0  0  0  0  0  0  0  0
  139.9140   70.0540  228.0830 C   0  0  0  0  0  0  0  0  0  0  0  0
  140.6440   71.1960  228.3240 C   0  0  0  0  0  0  0  0  0  0  0  0
  141.0950   71.9110  227.2380 C   0  0  0  0  0  0  0  0  0  0  0  0
  141.8310   73.0610  227.4890 O   0  0  0  0  0  0  0  0  0  0  0  0
  140.8160   71.4850  225.9330 C   0  0  0  0  0  0  0  0  0  0  0  0
  140.7380   76.1960  221.3850 C   0  0  0  0  0  0  0  0  0  0  0  0
  141.6750   76.5820  220.4470 C   0  0  0  0  0  0  0  0  0  0  0  0
  142.1980   77.8660  220.6090 C   0  0  0  0  0  0  0  0  0  0  0  0
  141.7840   78.6780  221.6500 C   0  0  0  0  0  0  0  0  0  0  0  0
  142.3040   79.9490  221.8060 C   0  0  0  0  0  0  0  0  0  0  0  0
  141.8820   80.7470  222.8520 C   0  0  0  0  0  0  0  0  0  0  0  0
  140.9270   80.2960  223.7680 C   0  0  0  0  0  0  0  0  0  0  0  0
  140.4090   79.0210  223.6070 C   0  0  0  0  0  0  0  0  0  0  0  0
  140.8440   78.2420  222.5590 C   0  0  0  0  0  0  0  0  0  0  0  0
  140.3450   77.0030  222.3970 N   0  0  0  0  0  0  0  0  0  0  0  0
  139.1150   74.9230  223.0570 H   0  0  0  0  0  0  0  0  0  0  0  0
  137.7172   73.0177  222.4108 H   0  0  0  0  0  0  0  0  0  0  0  0
  138.9304   72.7602  221.0073 H   0  0  0  0  0  0  0  0  0  0  0  0
  137.4795   70.6148  225.1744 H   0  0  0  0  0  0  0  0  0  0  0  0
  136.7308   71.0378  223.6758 H   0  0  0  0  0  0  0  0  0  0  0  0
  136.7898   68.4220  224.1214 H   0  0  0  0  0  0  0  0  0  0  0  0
  137.5676   68.7719  222.6257 H   0  0  0  0  0  0  0  0  0  0  0  0
  138.8111   68.3313  225.4241 H   0  0  0  0  0  0  0  0  0  0  0  0
  139.4708   67.7729  223.8971 H   0  0  0  0  0  0  0  0  0  0  0  0
  140.7006   69.7580  223.7351 H   0  0  0  0  0  0  0  0  0  0  0  0
  139.0555   68.7232  226.6449 H   0  0  0  0  0  0  0  0  0  0  0  0
  139.5408   69.4613  228.9311 H   0  0  0  0  0  0  0  0  0  0  0  0
  140.8597   71.5262  229.3509 H   0  0  0  0  0  0  0  0  0  0  0  0
  141.2720   73.8940  227.7130 H   0  0  0  0  0  0  0  0  0  0  0  0
  141.1907   72.0794  225.0867 H   0  0  0  0  0  0  0  0  0  0  0  0
  141.9888   75.9208  219.6258 H   0  0  0  0  0  0  0  0  0  0  0  0
  142.9507   78.2379  219.8983 H   0  0  0  0  0  0  0  0  0  0  0  0
  143.0551   80.3259  221.0962 H   0  0  0  0  0  0  0  0  0  0  0  0
  142.3053   81.7559  222.9662 H   0  0  0  0  0  0  0  0  0  0  0  0
  140.5947   80.9382  224.5970 H   0  0  0  0  0  0  0  0  0  0  0  0
  139.6567   78.6348  224.3105 H   0  0  0  0  0  0  0  0  0  0  0  0
  1  2  2  0
  2  3  1  0
  3  4  1  0
  4  5  1  0
  5  6  2  0
  5  7  1  0
  7  8  1  0
  8  9  1  0
  9 10  1  0
 10 11  1  0
 11 12  1  0
 12 13  2  0
 13 14  1  0
 14 15  2  0
 15 16  1  0
 16 17  1  0
 16 18  2  0
  2 19  1  0
 19 20  2  0
 20 21  1  0
 21 22  2  0
 22 23  1  0
 23 24  2  0
 24 25  1  0
 25 26  2  0
 26 27  1  0
 27 28  2  0
 11  7  1  0
 18 12  1  0
 28 19  1  0
 27 22  1  0
  3 29  1  0
  4 30  1  0
  4 31  1  0
  8 32  1  0
  8 33  1  0
  9 34  1  0
  9 35  1  0
 10 36  1  0
 10 37  1  0
 11 38  1  6
 13 39  1  0
 14 40  1  0
 15 41  1  0
 17 42  1  0
 18 43  1  0
 20 44  1  0
 21 45  1  0
 23 46  1  0
 24 47  1  0
 25 48  1  0
 26 49  1  0
M  END
>  <smiles>  (34) 
O=C(NCC(=O)N1CCCC1c1cccc(O)c1)c1ccc2ccccc2n1

>  <score_type>  (34) 
oracle

>  <origin>  (34) 
autodockgpu

>  <m_score__min__energy>  (34) 
-9.1899999999999995

>  <m_primary>  (34) 
energy

>  <rmsd>  (34) 
8.530051461600006

>  <m_score__min__rmsd>  (34) 
8.530051461600006

>  <meeko>  (34) 
{"free_energy": -8.56, "intermolecular_energy": -10.35, "internal_energy": -1.34, "cluster_size": 16, "cluster_id": 1, "rank_in_cluster": 10}

>  <energy>  (34) 
-8.42

>  <cluster_rmsd>  (34) 
1.41

>  <cluster>  (34) 
3

$$$$

     RDKit          3D

 49 52  0  0  0  0  0  0  0  0999 V2000
  139.3290   71.1720  221.4870 O   0  0  0  0  0  0  0  0  0  0  0  0
  139.5730   71.5970  222.6440 C   0  0  0  0  0  0  0  0  0  0  0  0
  139.7450   73.0300  222.7430 N   0  0  0  0  0  0  0  0  0  0  0  0
  139.6380   73.8570  221.5880 C   0  0  0  0  0  0  0  0  0  0  0  0
  140.0060   75.2680  221.6840 C   0  0  0  0  0  0  0  0  0  0  0  0
  141.2610   75.4450  221.9780 O   0  0  0  0  0  0  0  0  0  0  0  0
  139.2610   76.4290  221.5170 N   0  0  0  0  0  0  0  0  0  0  0  0
  138.7150   77.1910  220.4240 C   0  0  0  0  0  0  0  0  0  0  0  0
  137.2430   77.2430  220.8620 C   0  0  0  0  0  0  0  0  0  0  0  0
  137.4490   77.7850  222.2870 C   0  0  0  0  0  0  0  0  0  0  0  0
  138.7750   77.2230  222.6870 C   0  0  2  0  0  0  0  0  0  0  0  0
  139.7100   78.3560  222.9670 C   0  0  0  0  0  0  0  0  0  0  0  0
  139.2480   79.5720  223.4650 C   0  0  0  0  0  0  0  0  0  0  0  0
  140.0890   80.6380  223.7110 C   0  0  0  0  0  0  0  0  0  0  0  0
  141.4420   80.5450  223.4690 C   0  0  0  0  0  0  0  0  0  0  0  0
  141.9250   79.3540  222.9750 C   0  0  0  0  0  0  0  0  0  0  0  0
  143.2900   79.2690  222.7340 O   0  0  0  0  0  0  0  0  0  0  0  0
  141.0650   78.2780  222.7290 C   0  0  0  0  0  0  0  0  0  0  0  0
  139.6810   70.7340  223.8140 C   0  0  0  0  0  0  0  0  0  0  0  0
  139.1770   69.4540  223.6870 C   0  0  0  0  0  0  0  0  0  0  0  0
  139.2900   68.6450  224.8190 C   0  0  0  0  0  0  0  0  0  0  0  0
  139.8740   69.1210  225.9800 C   0  0  0  0  0  0  0  0  0  0  0  0
  139.9840   68.3170  227.0980 C   0  0  0  0  0  0  0  0  0  0  0  0
  140.5690   68.8060  228.2500 C   0  0  0  0  0  0  0  0  0  0  0  0
  141.0610   70.1140  228.3130 C   0  0  0  0  0  0  0  0  0  0  0  0
  140.9480   70.9160  227.1890 C   0  0  0  0  0  0  0  0  0  0  0  0
  140.3620   70.4080  226.0520 C   0  0  0  0  0  0  0  0  0  0  0  0
  140.2490   71.1820  224.9570 N   0  0  0  0  0  0  0  0  0  0  0  0
  139.9480   73.3740  223.7190 H   0  0  0  0  0  0  0  0  0  0  0  0
  140.2777   73.4102  220.8126 H   0  0  0  0  0  0  0  0  0  0  0  0
  138.5574   73.8821  221.3839 H   0  0  0  0  0  0  0  0  0  0  0  0
  139.1601   78.1949  220.3609 H   0  0  0  0  0  0  0  0  0  0  0  0
  138.8914   76.7681  219.4240 H   0  0  0  0  0  0  0  0  0  0  0  0
  136.6492   77.9285  220.2395 H   0  0  0  0  0  0  0  0  0  0  0  0
  136.6880   76.2963  220.7863 H   0  0  0  0  0  0  0  0  0  0  0  0
  137.4713   78.8848  222.2897 H   0  0  0  0  0  0  0  0  0  0  0  0
  136.6387   77.5006  222.9744 H   0  0  0  0  0  0  0  0  0  0  0  0
  138.7091   76.5943  223.5872 H   0  0  0  0  0  0  0  0  0  0  0  0
  138.1733   79.6868  223.6697 H   0  0  0  0  0  0  0  0  0  0  0  0
  139.6727   81.5763  224.1064 H   0  0  0  0  0  0  0  0  0  0  0  0
  142.1140   81.3938  223.6639 H   0  0  0  0  0  0  0  0  0  0  0  0
  143.5560   78.6490  221.9580 H   0  0  0  0  0  0  0  0  0  0  0  0
  141.4836   77.3408  222.3334 H   0  0  0  0  0  0  0  0  0  0  0  0
  138.7166   69.0956  222.7545 H   0  0  0  0  0  0  0  0  0  0  0  0
  138.9091   67.6135  224.7878 H   0  0  0  0  0  0  0  0  0  0  0  0
  139.6048   67.2848  227.0709 H   0  0  0  0  0  0  0  0  0  0  0  0
  140.6494   68.1554  229.1333 H   0  0  0  0  0  0  0  0  0  0  0  0
  141.5266   70.4967  229.2332 H   0  0  0  0  0  0  0  0  0  0  0  0
  141.3234   71.9498  227.2051 H   0  0  0  0  0  0  0  0  0  0  0  0
  1  2  2  0
  2  3  1  0
  3  4  1  0
  4  5  1  0
  5  6  2  0
  5  7  1  0
  7  8  1  0
  8  9  1  0
  9 10  1  0
 10 11  1  0
 11 12  1  0
 12 13  2  0
 13 14  1  0
 14 15  2  0
 15 16  1  0
 16 17  1  0
 16 18  2  0
  2 19  1  0
 19 20  2  0
 20 21  1  0
 21 22  2  0
 22 23  1  0
 23 24  2  0
 24 25  1  0
 25 26  2  0
 26 27  1  0
 27 28  2  0
 11  7  1  0
 18 12  1  0
 28 19  1  0
 27 22  1  0
  3 29  1  0
  4 30  1  0
  4 31  1  0
  8 32  1  0
  8 33  1  0
  9 34  1  0
  9 35  1  0
 10 36  1  0
 10 37  1  0
 11 38  1  1
 13 39  1  0
 14 40  1  0
 15 41  1  0
 17 42  1  0
 18 43  1  0
 20 44  1  0
 21 45  1  0
 23 46  1  0
 24 47  1  0
 25 48  1  0
 26 49  1  0
M  END
>  <smiles>  (35) 
O=C(NCC(=O)N1CCCC1c1cccc(O)c1)c1ccc2ccccc2n1

>  <score_type>  (35) 
oracle

>  <origin>  (35) 
autodockgpu

>  <m_score__min__energy>  (35) 
-9.1899999999999995

>  <m_primary>  (35) 
energy

>  <rmsd>  (35) 
3.182161034449022

>  <m_score__min__rmsd>  (35) 
3.182161034449022

>  <meeko>  (35) 
{"free_energy": -8.42, "intermolecular_energy": -10.21, "internal_energy": -1.3, "cluster_size": 11, "cluster_id": 3, "rank_in_cluster": 5}

>  <energy>  (35) 
-8.36

>  <cluster_rmsd>  (35) 
1.43

>  <cluster>  (35) 
3

$$$$

     RDKit          3D

 49 52  0  0  0  0  0  0  0  0999 V2000
  140.9160   74.8850  221.3690 O   0  0  0  0  0  0  0  0  0  0  0  0
  139.9970   75.4780  221.9880 C   0  0  0  0  0  0  0  0  0  0  0  0
  138.8410   74.6630  222.2910 N   0  0  0  0  0  0  0  0  0  0  0  0
  138.7930   73.2940  221.8960 C   0  0  0  0  0  0  0  0  0  0  0  0
  139.4150   72.2840  222.7490 C   0  0  0  0  0  0  0  0  0  0  0  0
  140.7100   72.3990  222.8100 O   0  0  0  0  0  0  0  0  0  0  0  0
  138.8710   71.2440  223.4930 N   0  0  0  0  0  0  0  0  0  0  0  0
  137.5640   70.8170  223.9220 C   0  0  0  0  0  0  0  0  0  0  0  0
  137.5780   69.3790  223.3810 C   0  0  0  0  0  0  0  0  0  0  0  0
  138.9010   68.9110  224.0120 C   0  0  0  0  0  0  0  0  0  0  0  0
  139.7260   70.1570  224.0600 C   0  0  2  0  0  0  0  0  0  0  0  0
  140.0610   70.4530  225.4870 C   0  0  0  0  0  0  0  0  0  0  0  0
  139.6270   69.6270  226.5210 C   0  0  0  0  0  0  0  0  0  0  0  0
  139.9060   69.8920  227.8460 C   0  0  0  0  0  0  0  0  0  0  0  0
  140.6360   71.0020  228.2090 C   0  0  0  0  0  0  0  0  0  0  0  0
  141.0770   71.8360  227.2070 C   0  0  0  0  0  0  0  0  0  0  0  0
  141.8130   72.9530  227.5810 O   0  0  0  0  0  0  0  0  0  0  0  0
  140.7890   71.5600  225.8650 C   0  0  0  0  0  0  0  0  0  0  0  0
  140.0650   76.8810  222.3820 C   0  0  0  0  0  0  0  0  0  0  0  0
  138.8600   77.5190  222.6030 C   0  0  0  0  0  0  0  0  0  0  0  0
  138.9480   78.8610  222.9780 C   0  0  0  0  0  0  0  0  0  0  0  0
  140.1750   79.4850  223.1120 C   0  0  0  0  0  0  0  0  0  0  0  0
  140.2580   80.8130  223.4840 C   0  0  0  0  0  0  0  0  0  0  0  0
  141.4910   81.4220  223.6140 C   0  0  0  0  0  0  0  0  0  0  0  0
  142.6760   80.7170  223.3750 C   0  0  0  0  0  0  0  0  0  0  0  0
  142.5870   79.3860  223.0030 C   0  0  0  0  0  0  0  0  0  0  0  0
  141.3490   78.7990  222.8800 C   0  0  0  0  0  0  0  0  0  0  0  0
  141.2560   77.5070  222.5180 N   0  0  0  0  0  0  0  0  0  0  0  0
  138.0790   75.1720  222.8110 H   0  0  0  0  0  0  0  0  0  0  0  0
  137.7309   73.0241  221.8004 H   0  0  0  0  0  0  0  0  0  0  0  0
  139.3948   73.2659  220.9757 H   0  0  0  0  0  0  0  0  0  0  0  0
  137.4626   70.8427  225.0170 H   0  0  0  0  0  0  0  0  0  0  0  0
  136.7287   71.4413  223.5719 H   0  0  0  0  0  0  0  0  0  0  0  0
  136.7183   68.7933  223.7385 H   0  0  0  0  0  0  0  0  0  0  0  0
  137.5085   69.2792  222.2877 H   0  0  0  0  0  0  0  0  0  0  0  0
  138.7343   68.5108  225.0230 H   0  0  0  0  0  0  0  0  0  0  0  0
  139.3824   68.1005  223.4452 H   0  0  0  0  0  0  0  0  0  0  0  0
  140.6643   70.0612  223.4939 H   0  0  0  0  0  0  0  0  0  0  0  0
  139.0402   68.7304  226.2722 H   0  0  0  0  0  0  0  0  0  0  0  0
  139.5398   69.2063  228.6243 H   0  0  0  0  0  0  0  0  0  0  0  0
  140.8592   71.2149  229.2649 H   0  0  0  0  0  0  0  0  0  0  0  0
  141.4450   73.8490  227.2390 H   0  0  0  0  0  0  0  0  0  0  0  0
  141.1551   72.2480  225.0887 H   0  0  0  0  0  0  0  0  0  0  0  0
  137.8946   77.0037  222.4909 H   0  0  0  0  0  0  0  0  0  0  0  0
  138.0270   79.4310  223.1699 H   0  0  0  0  0  0  0  0  0  0  0  0
  139.3397   81.3869  223.6772 H   0  0  0  0  0  0  0  0  0  0  0  0
  141.5423   82.4800  223.9107 H   0  0  0  0  0  0  0  0  0  0  0  0
  143.6546   81.2082  223.4801 H   0  0  0  0  0  0  0  0  0  0  0  0
  143.4990   78.8028  222.8075 H   0  0  0  0  0  0  0  0  0  0  0  0
  1  2  2  0
  2  3  1  0
  3  4  1  0
  4  5  1  0
  5  6  2  0
  5  7  1  0
  7  8  1  0
  8  9  1  0
  9 10  1  0
 10 11  1  0
 11 12  1  0
 12 13  2  0
 13 14  1  0
 14 15  2  0
 15 16  1  0
 16 17  1  0
 16 18  2  0
  2 19  1  0
 19 20  2  0
 20 21  1  0
 21 22  2  0
 22 23  1  0
 23 24  2  0
 24 25  1  0
 25 26  2  0
 26 27  1  0
 27 28  2  0
 11  7  1  0
 18 12  1  0
 28 19  1  0
 27 22  1  0
  3 29  1  0
  4 30  1  0
  4 31  1  0
  8 32  1  0
  8 33  1  0
  9 34  1  0
  9 35  1  0
 10 36  1  0
 10 37  1  0
 11 38  1  6
 13 39  1  0
 14 40  1  0
 15 41  1  0
 17 42  1  0
 18 43  1  0
 20 44  1  0
 21 45  1  0
 23 46  1  0
 24 47  1  0
 25 48  1  0
 26 49  1  0
M  END
>  <smiles>  (36) 
O=C(NCC(=O)N1CCCC1c1cccc(O)c1)c1ccc2ccccc2n1

>  <score_type>  (36) 
oracle

>  <origin>  (36) 
autodockgpu

>  <m_score__min__energy>  (36) 
-9.1899999999999995

>  <m_primary>  (36) 
energy

>  <rmsd>  (36) 
8.583063747703893

>  <m_score__min__rmsd>  (36) 
8.583063747703893

>  <meeko>  (36) 
{"free_energy": -9.15, "intermolecular_energy": -10.94, "internal_energy": -1.02, "cluster_size": 16, "cluster_id": 1, "rank_in_cluster": 3}

>  <energy>  (36) 
-8.33

>  <cluster_rmsd>  (36) 
1.01

>  <cluster>  (36) 
3

$$$$

     RDKit          3D

 49 52  0  0  0  0  0  0  0  0999 V2000
  140.6970   73.9910  220.3460 O   0  0  0  0  0  0  0  0  0  0  0  0
  140.3970   74.7870  221.2710 C   0  0  0  0  0  0  0  0  0  0  0  0
  139.5220   74.2410  222.2850 N   0  0  0  0  0  0  0  0  0  0  0  0
  139.0610   72.8950  222.2000 C   0  0  0  0  0  0  0  0  0  0  0  0
  139.5150   71.9220  223.1910 C   0  0  0  0  0  0  0  0  0  0  0  0
  140.7470   72.1160  223.5630 O   0  0  0  0  0  0  0  0  0  0  0  0
  138.8690   70.8490  223.7920 N   0  0  0  0  0  0  0  0  0  0  0  0
  137.5320   70.5110  224.2050 C   0  0  0  0  0  0  0  0  0  0  0  0
  137.3630   69.1810  223.4530 C   0  0  0  0  0  0  0  0  0  0  0  0
  138.6350   68.4750  223.9520 C   0  0  0  0  0  0  0  0  0  0  0  0
  139.6020   69.5970  224.1530 C   0  0  2  0  0  0  0  0  0  0  0  0
  140.0030   69.6300  225.5940 C   0  0  0  0  0  0  0  0  0  0  0  0
  140.0070   68.4750  226.3720 C   0  0  0  0  0  0  0  0  0  0  0  0
  140.3520   68.4860  227.7080 C   0  0  0  0  0  0  0  0  0  0  0  0
  140.7130   69.6560  228.3390 C   0  0  0  0  0  0  0  0  0  0  0  0
  140.7170   70.8120  227.5930 C   0  0  0  0  0  0  0  0  0  0  0  0
  141.0820   71.9880  228.2360 O   0  0  0  0  0  0  0  0  0  0  0  0
  140.3650   70.7930  226.2380 C   0  0  0  0  0  0  0  0  0  0  0  0
  140.8780   76.1620  221.3390 C   0  0  0  0  0  0  0  0  0  0  0  0
  141.2470   76.7480  220.1440 C   0  0  0  0  0  0  0  0  0  0  0  0
  141.7050   78.0630  220.2320 C   0  0  0  0  0  0  0  0  0  0  0  0
  141.7740   78.7140  221.4520 C   0  0  0  0  0  0  0  0  0  0  0  0
  142.2280   80.0160  221.5350 C   0  0  0  0  0  0  0  0  0  0  0  0
  142.2910   80.6520  222.7600 C   0  0  0  0  0  0  0  0  0  0  0  0
  141.9010   80.0020  223.9350 C   0  0  0  0  0  0  0  0  0  0  0  0
  141.4460   78.6960  223.8460 C   0  0  0  0  0  0  0  0  0  0  0  0
  141.3910   78.0810  222.6150 C   0  0  0  0  0  0  0  0  0  0  0  0
  140.9510   76.8140  222.5220 N   0  0  0  0  0  0  0  0  0  0  0  0
  139.2780   74.9180  223.0550 H   0  0  0  0  0  0  0  0  0  0  0  0
  137.9631   72.9269  222.2605 H   0  0  0  0  0  0  0  0  0  0  0  0
  139.4938   72.5294  221.2571 H   0  0  0  0  0  0  0  0  0  0  0  0
  137.4602   70.3784  225.2946 H   0  0  0  0  0  0  0  0  0  0  0  0
  136.7682   71.2722  223.9876 H   0  0  0  0  0  0  0  0  0  0  0  0
  136.4484   68.6484  223.7529 H   0  0  0  0  0  0  0  0  0  0  0  0
  137.2569   69.2594  222.3609 H   0  0  0  0  0  0  0  0  0  0  0  0
  138.4454   67.9454  224.8973 H   0  0  0  0  0  0  0  0  0  0  0  0
  139.0042   67.7121  223.2508 H   0  0  0  0  0  0  0  0  0  0  0  0
  140.5086   69.4834  223.5405 H   0  0  0  0  0  0  0  0  0  0  0  0
  139.7251   67.5199  225.9049 H   0  0  0  0  0  0  0  0  0  0  0  0
  140.3385   67.5454  228.2782 H   0  0  0  0  0  0  0  0  0  0  0  0
  140.9889   69.6658  229.4038 H   0  0  0  0  0  0  0  0  0  0  0  0
  140.2990   72.5990  228.4980 H   0  0  0  0  0  0  0  0  0  0  0  0
  140.3779   71.7351  225.6704 H   0  0  0  0  0  0  0  0  0  0  0  0
  141.1839   76.2127  219.1851 H   0  0  0  0  0  0  0  0  0  0  0  0
  142.0160   78.5905  219.3182 H   0  0  0  0  0  0  0  0  0  0  0  0
  142.5400   80.5476  220.6239 H   0  0  0  0  0  0  0  0  0  0  0  0
  142.6547   81.6888  222.8119 H   0  0  0  0  0  0  0  0  0  0  0  0
  141.9541   80.5149  224.9066 H   0  0  0  0  0  0  0  0  0  0  0  0
  141.1315   78.1553  224.7508 H   0  0  0  0  0  0  0  0  0  0  0  0
  1  2  2  0
  2  3  1  0
  3  4  1  0
  4  5  1  0
  5  6  2  0
  5  7  1  0
  7  8  1  0
  8  9  1  0
  9 10  1  0
 10 11  1  0
 11 12  1  0
 12 13  2  0
 13 14  1  0
 14 15  2  0
 15 16  1  0
 16 17  1  0
 16 18  2  0
  2 19  1  0
 19 20  2  0
 20 21  1  0
 21 22  2  0
 22 23  1  0
 23 24  2  0
 24 25  1  0
 25 26  2  0
 26 27  1  0
 27 28  2  0
 11  7  1  0
 18 12  1  0
 28 19  1  0
 27 22  1  0
  3 29  1  0
  4 30  1  0
  4 31  1  0
  8 32  1  0
  8 33  1  0
  9 34  1  0
  9 35  1  0
 10 36  1  0
 10 37  1  0
 11 38  1  6
 13 39  1  0
 14 40  1  0
 15 41  1  0
 17 42  1  0
 18 43  1  0
 20 44  1  0
 21 45  1  0
 23 46  1  0
 24 47  1  0
 25 48  1  0
 26 49  1  0
M  END
>  <smiles>  (37) 
O=C(NCC(=O)N1CCCC1c1cccc(O)c1)c1ccc2ccccc2n1

>  <score_type>  (37) 
oracle

>  <origin>  (37) 
autodockgpu

>  <m_score__min__energy>  (37) 
-9.1899999999999995

>  <m_primary>  (37) 
energy

>  <rmsd>  (37) 
8.706663294619887

>  <m_score__min__rmsd>  (37) 
8.706663294619887

>  <meeko>  (37) 
{"free_energy": -8.6, "intermolecular_energy": -10.39, "internal_energy": -1.26, "cluster_size": 16, "cluster_id": 1, "rank_in_cluster": 9}

>  <energy>  (37) 
-8.26

>  <cluster_rmsd>  (37) 
1.99

>  <cluster>  (37) 
3

$$$$

     RDKit          3D

 49 52  0  0  0  0  0  0  0  0999 V2000
  139.9700   73.0080  222.5590 O   0  0  0  0  0  0  0  0  0  0  0  0
  140.0940   71.7680  222.7220 C   0  0  0  0  0  0  0  0  0  0  0  0
  140.0640   70.9880  221.5030 N   0  0  0  0  0  0  0  0  0  0  0  0
  139.9020   71.6220  220.2380 C   0  0  0  0  0  0  0  0  0  0  0  0
  141.0860   72.0880  219.5170 C   0  0  0  0  0  0  0  0  0  0  0  0
  141.1330   71.6590  218.2900 O   0  0  0  0  0  0  0  0  0  0  0  0
  142.1450   72.8950  219.9110 N   0  0  0  0  0  0  0  0  0  0  0  0
  143.2470   72.8250  220.8360 C   0  0  0  0  0  0  0  0  0  0  0  0
  144.4070   73.1160  219.8710 C   0  0  0  0  0  0  0  0  0  0  0  0
  143.8670   74.4170  219.2540 C   0  0  0  0  0  0  0  0  0  0  0  0
  142.3840   74.2320  219.2870 C   0  0  2  0  0  0  0  0  0  0  0  0
  141.7870   75.3120  220.1310 C   0  0  0  0  0  0  0  0  0  0  0  0
  142.2570   76.6220  220.0740 C   0  0  0  0  0  0  0  0  0  0  0  0
  141.7350   77.6300  220.8600 C   0  0  0  0  0  0  0  0  0  0  0  0
  140.7130   77.3800  221.7480 C   0  0  0  0  0  0  0  0  0  0  0  0
  140.2300   76.0930  221.8260 C   0  0  0  0  0  0  0  0  0  0  0  0
  139.2000   75.8500  222.7250 O   0  0  0  0  0  0  0  0  0  0  0  0
  140.7650   75.0770  221.0250 C   0  0  0  0  0  0  0  0  0  0  0  0
  140.2560   71.1370  224.0260 C   0  0  0  0  0  0  0  0  0  0  0  0
  140.8230   71.9110  225.0210 C   0  0  0  0  0  0  0  0  0  0  0  0
  140.9690   71.2880  226.2610 C   0  0  0  0  0  0  0  0  0  0  0  0
  140.5650   69.9790  226.4540 C   0  0  0  0  0  0  0  0  0  0  0  0
  140.7120   69.3650  227.6830 C   0  0  0  0  0  0  0  0  0  0  0  0
  140.3040   68.0570  227.8590 C   0  0  0  0  0  0  0  0  0  0  0  0
  139.7360   67.3280  226.8090 C   0  0  0  0  0  0  0  0  0  0  0  0
  139.5910   67.9480  225.5780 C   0  0  0  0  0  0  0  0  0  0  0  0
  140.0040   69.2510  225.4250 C   0  0  0  0  0  0  0  0  0  0  0  0
  139.8660   69.8580  224.2330 N   0  0  0  0  0  0  0  0  0  0  0  0
  140.1700   69.9500  221.6530 H   0  0  0  0  0  0  0  0  0  0  0  0
  139.3881   70.9039  219.5820 H   0  0  0  0  0  0  0  0  0  0  0  0
  139.3596   72.5486  220.4772 H   0  0  0  0  0  0  0  0  0  0  0  0
  143.1690   73.5869  221.6255 H   0  0  0  0  0  0  0  0  0  0  0  0
  143.3291   71.8817  221.3959 H   0  0  0  0  0  0  0  0  0  0  0  0
  145.3582   73.2719  220.4010 H   0  0  0  0  0  0  0  0  0  0  0  0
  144.6495   72.3135  219.1588 H   0  0  0  0  0  0  0  0  0  0  0  0
  144.1674   75.2898  219.8523 H   0  0  0  0  0  0  0  0  0  0  0  0
  144.2524   74.6018  218.2404 H   0  0  0  0  0  0  0  0  0  0  0  0
  141.9323   74.2825  218.2853 H   0  0  0  0  0  0  0  0  0  0  0  0
  143.0738   76.8622  219.3774 H   0  0  0  0  0  0  0  0  0  0  0  0
  142.1419   78.6485  220.7754 H   0  0  0  0  0  0  0  0  0  0  0  0
  140.2960   78.1822  222.3746 H   0  0  0  0  0  0  0  0  0  0  0  0
  139.1240   74.8760  223.0440 H   0  0  0  0  0  0  0  0  0  0  0  0
  140.3568   74.0593  221.1120 H   0  0  0  0  0  0  0  0  0  0  0  0
  141.1385   72.9503  224.8467 H   0  0  0  0  0  0  0  0  0  0  0  0
  141.4124   71.8466  227.0985 H   0  0  0  0  0  0  0  0  0  0  0  0
  141.1551   69.9192  228.5235 H   0  0  0  0  0  0  0  0  0  0  0  0
  140.4280   67.5802  228.8425 H   0  0  0  0  0  0  0  0  0  0  0  0
  139.4120   66.2872  226.9568 H   0  0  0  0  0  0  0  0  0  0  0  0
  139.1495   67.4028  224.7308 H   0  0  0  0  0  0  0  0  0  0  0  0
  1  2  2  0
  2  3  1  0
  3  4  1  0
  4  5  1  0
  5  6  2  0
  5  7  1  0
  7  8  1  0
  8  9  1  0
  9 10  1  0
 10 11  1  0
 11 12  1  0
 12 13  2  0
 13 14  1  0
 14 15  2  0
 15 16  1  0
 16 17  1  0
 16 18  2  0
  2 19  1  0
 19 20  2  0
 20 21  1  0
 21 22  2  0
 22 23  1  0
 23 24  2  0
 24 25  1  0
 25 26  2  0
 26 27  1  0
 27 28  2  0
 11  7  1  0
 18 12  1  0
 28 19  1  0
 27 22  1  0
  3 29  1  0
  4 30  1  0
  4 31  1  0
  8 32  1  0
  8 33  1  0
  9 34  1  0
  9 35  1  0
 10 36  1  0
 10 37  1  0
 11 38  1  6
 13 39  1  0
 14 40  1  0
 15 41  1  0
 17 42  1  0
 18 43  1  0
 20 44  1  0
 21 45  1  0
 23 46  1  0
 24 47  1  0
 25 48  1  0
 26 49  1  0
M  END
>  <smiles>  (38) 
O=C(NCC(=O)N1CCCC1c1cccc(O)c1)c1ccc2ccccc2n1

>  <score_type>  (38) 
oracle

>  <origin>  (38) 
autodockgpu

>  <m_score__min__energy>  (38) 
-9.1899999999999995

>  <m_primary>  (38) 
energy

>  <rmsd>  (38) 
4.0682574190274785

>  <m_score__min__rmsd>  (38) 
4.0682574190274785

>  <meeko>  (38) 
{"free_energy": -7.51, "intermolecular_energy": -9.3, "internal_energy": -2.24, "cluster_size": 6, "cluster_id": 4, "rank_in_cluster": 6}

>  <energy>  (38) 
-8.24

>  <cluster_rmsd>  (38) 
1.3

>  <cluster>  (38) 
3

$$$$

     RDKit          3D

 49 52  0  0  0  0  0  0  0  0999 V2000
  141.4570   72.3710  221.4990 O   0  0  0  0  0  0  0  0  0  0  0  0
  140.5950   72.6170  222.3790 C   0  0  0  0  0  0  0  0  0  0  0  0
  139.9570   73.9100  222.2620 N   0  0  0  0  0  0  0  0  0  0  0  0
  140.3130   74.8040  221.2100 C   0  0  0  0  0  0  0  0  0  0  0  0
  139.5460   76.0360  221.0320 C   0  0  0  0  0  0  0  0  0  0  0  0
  138.5010   75.8760  220.2730 O   0  0  0  0  0  0  0  0  0  0  0  0
  139.7370   77.3200  221.5270 N   0  0  0  0  0  0  0  0  0  0  0  0
  138.9190   78.4240  221.9570 C   0  0  0  0  0  0  0  0  0  0  0  0
  139.5050   78.6410  223.3610 C   0  0  0  0  0  0  0  0  0  0  0  0
  140.9890   78.7530  222.9730 C   0  0  0  0  0  0  0  0  0  0  0  0
  141.1060   77.8670  221.7750 C   0  0  2  0  0  0  0  0  0  0  0  0
  141.5520   78.6930  220.6110 C   0  0  0  0  0  0  0  0  0  0  0  0
  141.4720   80.0840  220.6360 C   0  0  0  0  0  0  0  0  0  0  0  0
  141.8570   80.8650  219.5660 C   0  0  0  0  0  0  0  0  0  0  0  0
  142.3440   80.2970  218.4100 C   0  0  0  0  0  0  0  0  0  0  0  0
  142.4340   78.9240  218.3590 C   0  0  0  0  0  0  0  0  0  0  0  0
  142.9260   78.3580  217.1900 O   0  0  0  0  0  0  0  0  0  0  0  0
  142.0400   78.1380  219.4490 C   0  0  0  0  0  0  0  0  0  0  0  0
  140.2460   71.6890  223.4480 C   0  0  0  0  0  0  0  0  0  0  0  0
  139.3970   70.6520  223.1140 C   0  0  0  0  0  0  0  0  0  0  0  0
  139.0750   69.7770  224.1530 C   0  0  0  0  0  0  0  0  0  0  0  0
  139.5890   69.9590  225.4250 C   0  0  0  0  0  0  0  0  0  0  0  0
  139.2680   69.0910  226.4500 C   0  0  0  0  0  0  0  0  0  0  0  0
  139.7900   69.2870  227.7140 C   0  0  0  0  0  0  0  0  0  0  0  0
  140.6470   70.3580  227.9860 C   0  0  0  0  0  0  0  0  0  0  0  0
  140.9650   71.2260  226.9550 C   0  0  0  0  0  0  0  0  0  0  0  0
  140.4350   71.0120  225.7030 C   0  0  0  0  0  0  0  0  0  0  0  0
  140.7400   71.8520  224.6970 N   0  0  0  0  0  0  0  0  0  0  0  0
  139.2350   74.1040  223.0050 H   0  0  0  0  0  0  0  0  0  0  0  0
  141.3595   75.0982  221.3783 H   0  0  0  0  0  0  0  0  0  0  0  0
  140.1025   74.2298  220.2957 H   0  0  0  0  0  0  0  0  0  0  0  0
  139.0520   79.3077  221.3156 H   0  0  0  0  0  0  0  0  0  0  0  0
  137.8343   78.2439  221.9247 H   0  0  0  0  0  0  0  0  0  0  0  0
  139.1284   79.5622  223.8296 H   0  0  0  0  0  0  0  0  0  0  0  0
  139.2625   77.8678  224.1049 H   0  0  0  0  0  0  0  0  0  0  0  0
  141.2520   79.7910  222.7212 H   0  0  0  0  0  0  0  0  0  0  0  0
  141.6675   78.4617  223.7884 H   0  0  0  0  0  0  0  0  0  0  0  0
  141.8319   77.0540  221.9239 H   0  0  0  0  0  0  0  0  0  0  0  0
  141.0881   80.5769  221.5414 H   0  0  0  0  0  0  0  0  0  0  0  0
  141.7736   81.9595  219.6374 H   0  0  0  0  0  0  0  0  0  0  0  0
  142.6507   80.9191  217.5562 H   0  0  0  0  0  0  0  0  0  0  0  0
  143.6670   78.8970  216.7260 H   0  0  0  0  0  0  0  0  0  0  0  0
  142.1229   77.0436  219.3747 H   0  0  0  0  0  0  0  0  0  0  0  0
  139.0005   70.5240  222.0959 H   0  0  0  0  0  0  0  0  0  0  0  0
  138.4019   68.9292  223.9575 H   0  0  0  0  0  0  0  0  0  0  0  0
  138.5953   68.2418  226.2596 H   0  0  0  0  0  0  0  0  0  0  0  0
  139.5266   68.5878  228.5213 H   0  0  0  0  0  0  0  0  0  0  0  0
  141.0588   70.5074  228.9950 H   0  0  0  0  0  0  0  0  0  0  0  0
  141.6355   72.0792  227.1351 H   0  0  0  0  0  0  0  0  0  0  0  0
  1  2  2  0
  2  3  1  0
  3  4  1  0
  4  5  1  0
  5  6  2  0
  5  7  1  0
  7  8  1  0
  8  9  1  0
  9 10  1  0
 10 11  1  0
 11 12  1  0
 12 13  2  0
 13 14  1  0
 14 15  2  0
 15 16  1  0
 16 17  1  0
 16 18  2  0
  2 19  1  0
 19 20  2  0
 20 21  1  0
 21 22  2  0
 22 23  1  0
 23 24  2  0
 24 25  1  0
 25 26  2  0
 26 27  1  0
 27 28  2  0
 11  7  1  0
 18 12  1  0
 28 19  1  0
 27 22  1  0
  3 29  1  0
  4 30  1  0
  4 31  1  0
  8 32  1  0
  8 33  1  0
  9 34  1  0
  9 35  1  0
 10 36  1  0
 10 37  1  0
 11 38  1  1
 13 39  1  0
 14 40  1  0
 15 41  1  0
 17 42  1  0
 18 43  1  0
 20 44  1  0
 21 45  1  0
 23 46  1  0
 24 47  1  0
 25 48  1  0
 26 49  1  0
M  END
>  <smiles>  (39) 
O=C(NCC(=O)N1CCCC1c1cccc(O)c1)c1ccc2ccccc2n1

>  <score_type>  (39) 
oracle

>  <origin>  (39) 
autodockgpu

>  <m_score__min__energy>  (39) 
-9.1899999999999995

>  <m_primary>  (39) 
energy

>  <rmsd>  (39) 
2.6494850917082076

>  <m_score__min__rmsd>  (39) 
2.6494850917082076

>  <meeko>  (39) 
{"free_energy": -8.14, "intermolecular_energy": -9.93, "internal_energy": -1.06, "cluster_size": 6, "cluster_id": 4, "rank_in_cluster": 2}

>  <energy>  (39) 
-7.92

>  <cluster_rmsd>  (39) 
1.1

>  <cluster>  (39) 
3

$$$$

     RDKit          3D

 49 52  0  0  0  0  0  0  0  0999 V2000
  141.1880   71.7070  222.1510 O   0  0  0  0  0  0  0  0  0  0  0  0
  140.3100   71.7890  223.0460 C   0  0  0  0  0  0  0  0  0  0  0  0
  139.1490   72.5760  222.6890 N   0  0  0  0  0  0  0  0  0  0  0  0
  139.0540   73.1920  221.4080 C   0  0  0  0  0  0  0  0  0  0  0  0
  140.1450   74.0470  220.9460 C   0  0  0  0  0  0  0  0  0  0  0  0
  140.5600   74.8770  221.8580 O   0  0  0  0  0  0  0  0  0  0  0  0
  140.8040   74.1220  219.7250 N   0  0  0  0  0  0  0  0  0  0  0  0
  140.6630   73.5580  218.4070 C   0  0  0  0  0  0  0  0  0  0  0  0
  140.6300   74.8530  217.5800 C   0  0  0  0  0  0  0  0  0  0  0  0
  141.9160   75.5000  218.1200 C   0  0  0  0  0  0  0  0  0  0  0  0
  141.9920   75.0080  219.5290 C   0  0  2  0  0  0  0  0  0  0  0  0
  143.2550   74.2230  219.6940 C   0  0  0  0  0  0  0  0  0  0  0  0
  143.5660   73.5930  220.8960 C   0  0  0  0  0  0  0  0  0  0  0  0
  144.7340   72.8820  221.0780 C   0  0  0  0  0  0  0  0  0  0  0  0
  145.6580   72.7630  220.0630 C   0  0  0  0  0  0  0  0  0  0  0  0
  145.3760   73.3770  218.8640 C   0  0  0  0  0  0  0  0  0  0  0  0
  146.3120   73.2530  217.8450 O   0  0  0  0  0  0  0  0  0  0  0  0
  144.1880   74.0970  218.6880 C   0  0  0  0  0  0  0  0  0  0  0  0
  140.4270   71.1530  224.3520 C   0  0  0  0  0  0  0  0  0  0  0  0
  141.0590   71.8820  225.3410 C   0  0  0  0  0  0  0  0  0  0  0  0
  141.1600   71.2540  226.5830 C   0  0  0  0  0  0  0  0  0  0  0  0
  140.6520   69.9830  226.7830 C   0  0  0  0  0  0  0  0  0  0  0  0
  140.7550   69.3640  228.0140 C   0  0  0  0  0  0  0  0  0  0  0  0
  140.2420   68.0940  228.1980 C   0  0  0  0  0  0  0  0  0  0  0  0
  139.6130   67.4090  227.1540 C   0  0  0  0  0  0  0  0  0  0  0  0
  139.5120   68.0340  225.9210 C   0  0  0  0  0  0  0  0  0  0  0  0
  140.0300   69.2990  225.7600 C   0  0  0  0  0  0  0  0  0  0  0  0
  139.9350   69.9110  224.5660 N   0  0  0  0  0  0  0  0  0  0  0  0
  138.4200   72.6370  223.4480 H   0  0  0  0  0  0  0  0  0  0  0  0
  138.9444   72.3837  220.6700 H   0  0  0  0  0  0  0  0  0  0  0  0
  138.2054   73.8840  221.5126 H   0  0  0  0  0  0  0  0  0  0  0  0
  141.5193   72.9216  218.1391 H   0  0  0  0  0  0  0  0  0  0  0  0
  139.7967   72.8937  218.2719 H   0  0  0  0  0  0  0  0  0  0  0  0
  140.6871   74.6563  216.4992 H   0  0  0  0  0  0  0  0  0  0  0  0
  139.7153   75.4568  217.6737 H   0  0  0  0  0  0  0  0  0  0  0  0
  142.7929   75.1729  217.5419 H   0  0  0  0  0  0  0  0  0  0  0  0
  141.9039   76.5977  218.0506 H   0  0  0  0  0  0  0  0  0  0  0  0
  141.9935   75.8297  220.2604 H   0  0  0  0  0  0  0  0  0  0  0  0
  142.8540   73.6649  221.7314 H   0  0  0  0  0  0  0  0  0  0  0  0
  144.9307   72.4027  222.0484 H   0  0  0  0  0  0  0  0  0  0  0  0
  146.5898   72.1963  220.2061 H   0  0  0  0  0  0  0  0  0  0  0  0
  146.7000   74.1400  217.5030 H   0  0  0  0  0  0  0  0  0  0  0  0
  143.9937   74.5765  217.7173 H   0  0  0  0  0  0  0  0  0  0  0  0
  141.4567   72.8917  225.1610 H   0  0  0  0  0  0  0  0  0  0  0  0
  141.6513   71.7779  227.4161 H   0  0  0  0  0  0  0  0  0  0  0  0
  141.2466   69.8834  228.8498 H   0  0  0  0  0  0  0  0  0  0  0  0
  140.3301   67.6134  229.1835 H   0  0  0  0  0  0  0  0  0  0  0  0
  139.2079   66.3979  227.3076 H   0  0  0  0  0  0  0  0  0  0  0  0
  139.0222   67.5236  225.0786 H   0  0  0  0  0  0  0  0  0  0  0  0
  1  2  2  0
  2  3  1  0
  3  4  1  0
  4  5  1  0
  5  6  2  0
  5  7  1  0
  7  8  1  0
  8  9  1  0
  9 10  1  0
 10 11  1  0
 11 12  1  0
 12 13  2  0
 13 14  1  0
 14 15  2  0
 15 16  1  0
 16 17  1  0
 16 18  2  0
  2 19  1  0
 19 20  2  0
 20 21  1  0
 21 22  2  0
 22 23  1  0
 23 24  2  0
 24 25  1  0
 25 26  2  0
 26 27  1  0
 27 28  2  0
 11  7  1  0
 18 12  1  0
 28 19  1  0
 27 22  1  0
  3 29  1  0
  4 30  1  0
  4 31  1  0
  8 32  1  0
  8 33  1  0
  9 34  1  0
  9 35  1  0
 10 36  1  0
 10 37  1  0
 11 38  1  1
 13 39  1  0
 14 40  1  0
 15 41  1  0
 17 42  1  0
 18 43  1  0
 20 44  1  0
 21 45  1  0
 23 46  1  0
 24 47  1  0
 25 48  1  0
 26 49  1  0
M  END
>  <smiles>  (40) 
O=C(NCC(=O)N1CCCC1c1cccc(O)c1)c1ccc2ccccc2n1

>  <score_type>  (40) 
oracle

>  <origin>  (40) 
autodockgpu

>  <m_score__min__energy>  (40) 
-9.1899999999999995

>  <m_primary>  (40) 
energy

>  <rmsd>  (40) 
3.2840846236887855

>  <m_score__min__rmsd>  (40) 
3.2840846236887855

>  <meeko>  (40) 
{"free_energy": -8.28, "intermolecular_energy": -10.07, "internal_energy": -1.38, "cluster_size": 13, "cluster_id": 2, "rank_in_cluster": 10}

>  <energy>  (40) 
-7.62

>  <cluster_rmsd>  (40) 
1.87

>  <cluster>  (40) 
3

$$$$

     RDKit          3D

 49 52  0  0  0  0  0  0  0  0999 V2000
  139.8080   73.4600  222.3270 O   0  0  0  0  0  0  0  0  0  0  0  0
  140.3560   72.3420  222.4960 C   0  0  0  0  0  0  0  0  0  0  0  0
  141.2120   71.9130  221.4110 N   0  0  0  0  0  0  0  0  0  0  0  0
  141.3890   72.7300  220.2580 C   0  0  0  0  0  0  0  0  0  0  0  0
  142.5310   73.6400  220.1970 C   0  0  0  0  0  0  0  0  0  0  0  0
  143.6420   73.0850  220.5860 O   0  0  0  0  0  0  0  0  0  0  0  0
  142.6310   74.9680  219.8020 N   0  0  0  0  0  0  0  0  0  0  0  0
  143.6510   75.9830  219.7380 C   0  0  0  0  0  0  0  0  0  0  0  0
  143.5350   76.3660  218.2550 C   0  0  0  0  0  0  0  0  0  0  0  0
  142.0230   76.6440  218.2100 C   0  0  0  0  0  0  0  0  0  0  0  0
  141.4630   75.7040  219.2280 C   0  0  2  0  0  0  0  0  0  0  0  0
  140.7810   76.5030  220.2920 C   0  0  0  0  0  0  0  0  0  0  0  0
  140.9990   77.8720  220.4240 C   0  0  0  0  0  0  0  0  0  0  0  0
  140.3970   78.6250  221.4120 C   0  0  0  0  0  0  0  0  0  0  0  0
  139.5440   78.0470  222.3250 C   0  0  0  0  0  0  0  0  0  0  0  0
  139.3110   76.6940  222.2180 C   0  0  0  0  0  0  0  0  0  0  0  0
  138.4490   76.1180  223.1420 O   0  0  0  0  0  0  0  0  0  0  0  0
  139.9260   75.9380  221.2130 C   0  0  0  0  0  0  0  0  0  0  0  0
  140.1600   71.5190  223.6840 C   0  0  0  0  0  0  0  0  0  0  0  0
  139.4090   70.3700  223.5230 C   0  0  0  0  0  0  0  0  0  0  0  0
  139.2340   69.5980  224.6720 C   0  0  0  0  0  0  0  0  0  0  0  0
  139.7880   69.9810  225.8810 C   0  0  0  0  0  0  0  0  0  0  0  0
  139.6120   69.2140  227.0160 C   0  0  0  0  0  0  0  0  0  0  0  0
  140.1720   69.6110  228.2150 C   0  0  0  0  0  0  0  0  0  0  0  0
  140.9240   70.7860  228.3100 C   0  0  0  0  0  0  0  0  0  0  0  0
  141.0970   71.5520  227.1690 C   0  0  0  0  0  0  0  0  0  0  0  0
  140.5310   71.1390  225.9840 C   0  0  0  0  0  0  0  0  0  0  0  0
  140.6950   71.8780  224.8730 N   0  0  0  0  0  0  0  0  0  0  0  0
  141.6660   70.9740  221.5660 H   0  0  0  0  0  0  0  0  0  0  0  0
  141.4707   72.0536  219.3944 H   0  0  0  0  0  0  0  0  0  0  0  0
  140.5192   73.4031  220.2785 H   0  0  0  0  0  0  0  0  0  0  0  0
  143.4267   76.8324  220.3999 H   0  0  0  0  0  0  0  0  0  0  0  0
  144.6520   75.6618  220.0617 H   0  0  0  0  0  0  0  0  0  0  0  0
  144.1283   77.2593  218.0098 H   0  0  0  0  0  0  0  0  0  0  0  0
  143.9052   75.6186  217.5379 H   0  0  0  0  0  0  0  0  0  0  0  0
  141.8074   77.6885  218.4792 H   0  0  0  0  0  0  0  0  0  0  0  0
  141.5908   76.4974  217.2091 H   0  0  0  0  0  0  0  0  0  0  0  0
  140.7329   75.0039  218.7957 H   0  0  0  0  0  0  0  0  0  0  0  0
  141.6756   78.3716  219.7151 H   0  0  0  0  0  0  0  0  0  0  0  0
  140.6021   79.7041  221.4707 H   0  0  0  0  0  0  0  0  0  0  0  0
  139.0647   78.6458  223.1135 H   0  0  0  0  0  0  0  0  0  0  0  0
  138.5390   75.1000  223.2430 H   0  0  0  0  0  0  0  0  0  0  0  0
  139.7201   74.8589  221.1568 H   0  0  0  0  0  0  0  0  0  0  0  0
  138.9776   70.0830  222.5527 H   0  0  0  0  0  0  0  0  0  0  0  0
  138.6462   68.6699  224.6160 H   0  0  0  0  0  0  0  0  0  0  0  0
  139.0248   68.2852  226.9653 H   0  0  0  0  0  0  0  0  0  0  0  0
  140.0235   68.9912  229.1115 H   0  0  0  0  0  0  0  0  0  0  0  0
  141.3676   71.0947  229.2681 H   0  0  0  0  0  0  0  0  0  0  0  0
  141.6819   72.4827  227.2094 H   0  0  0  0  0  0  0  0  0  0  0  0
  1  2  2  0
  2  3  1  0
  3  4  1  0
  4  5  1  0
  5  6  2  0
  5  7  1  0
  7  8  1  0
  8  9  1  0
  9 10  1  0
 10 11  1  0
 11 12  1  0
 12 13  2  0
 13 14  1  0
 14 15  2  0
 15 16  1  0
 16 17  1  0
 16 18  2  0
  2 19  1  0
 19 20  2  0
 20 21  1  0
 21 22  2  0
 22 23  1  0
 23 24  2  0
 24 25  1  0
 25 26  2  0
 26 27  1  0
 27 28  2  0
 11  7  1  0
 18 12  1  0
 28 19  1  0
 27 22  1  0
  3 29  1  0
  4 30  1  0
  4 31  1  0
  8 32  1  0
  8 33  1  0
  9 34  1  0
  9 35  1  0
 10 36  1  0
 10 37  1  0
 11 38  1  6
 13 39  1  0
 14 40  1  0
 15 41  1  0
 17 42  1  0
 18 43  1  0
 20 44  1  0
 21 45  1  0
 23 46  1  0
 24 47  1  0
 25 48  1  0
 26 49  1  0
M  END
>  <smiles>  (41) 
O=C(NCC(=O)N1CCCC1c1cccc(O)c1)c1ccc2ccccc2n1

>  <score_type>  (41) 
oracle

>  <origin>  (41) 
autodockgpu

>  <m_score__min__energy>  (41) 
-9.1899999999999995

>  <m_primary>  (41) 
energy

>  <rmsd>  (41) 
3.421458224141133

>  <m_score__min__rmsd>  (41) 
3.421458224141133

>  <meeko>  (41) 
{"free_energy": -7.62, "intermolecular_energy": -9.41, "internal_energy": -1.82, "cluster_size": 11, "cluster_id": 3, "rank_in_cluster": 11}

>  <energy>  (41) 
-8.16

>  <cluster_rmsd>  (41) 
0.0

>  <cluster>  (41) 
4

$$$$

     RDKit          3D

 49 52  0  0  0  0  0  0  0  0999 V2000
  140.8340   71.2790  221.7170 O   0  0  0  0  0  0  0  0  0  0  0  0
  140.2310   71.7140  222.7300 C   0  0  0  0  0  0  0  0  0  0  0  0
  139.4190   72.8890  222.4980 N   0  0  0  0  0  0  0  0  0  0  0  0
  139.3390   73.4740  221.2010 C   0  0  0  0  0  0  0  0  0  0  0  0
  140.0360   74.7320  220.9430 C   0  0  0  0  0  0  0  0  0  0  0  0
  139.6830   75.6830  221.7590 O   0  0  0  0  0  0  0  0  0  0  0  0
  140.9920   75.0790  219.9970 N   0  0  0  0  0  0  0  0  0  0  0  0
  141.0650   75.2230  218.5650 C   0  0  0  0  0  0  0  0  0  0  0  0
  141.5940   76.6630  218.4820 C   0  0  0  0  0  0  0  0  0  0  0  0
  142.8130   76.5110  219.4080 C   0  0  0  0  0  0  0  0  0  0  0  0
  142.3780   75.4740  220.3930 C   0  0  2  0  0  0  0  0  0  0  0  0
  143.2990   74.3000  220.2890 C   0  0  0  0  0  0  0  0  0  0  0  0
  142.9280   73.0420  220.7590 C   0  0  0  0  0  0  0  0  0  0  0  0
  143.7690   71.9510  220.6930 C   0  0  0  0  0  0  0  0  0  0  0  0
  145.0310   72.0580  220.1530 C   0  0  0  0  0  0  0  0  0  0  0  0
  145.4240   73.2900  219.6810 C   0  0  0  0  0  0  0  0  0  0  0  0
  146.6990   73.3910  219.1380 O   0  0  0  0  0  0  0  0  0  0  0  0
  144.5650   74.3930  219.7520 C   0  0  0  0  0  0  0  0  0  0  0  0
  140.3270   71.1030  224.0500 C   0  0  0  0  0  0  0  0  0  0  0  0
  140.8850   71.8760  225.0510 C   0  0  0  0  0  0  0  0  0  0  0  0
  140.9680   71.2710  226.3050 C   0  0  0  0  0  0  0  0  0  0  0  0
  140.5130   69.9790  226.5060 C   0  0  0  0  0  0  0  0  0  0  0  0
  140.5970   69.3840  227.7500 C   0  0  0  0  0  0  0  0  0  0  0  0
  140.1390   68.0940  227.9350 C   0  0  0  0  0  0  0  0  0  0  0  0
  139.5830   67.3650  226.8790 C   0  0  0  0  0  0  0  0  0  0  0  0
  139.5010   67.9660  225.6330 C   0  0  0  0  0  0  0  0  0  0  0  0
  139.9640   69.2520  225.4720 C   0  0  0  0  0  0  0  0  0  0  0  0
  139.8880   69.8420  224.2650 N   0  0  0  0  0  0  0  0  0  0  0  0
  138.9190   73.2430  223.3560 H   0  0  0  0  0  0  0  0  0  0  0  0
  139.7360   72.7347  220.4898 H   0  0  0  0  0  0  0  0  0  0  0  0
  138.2760   73.7375  221.0976 H   0  0  0  0  0  0  0  0  0  0  0  0
  141.7639   74.5025  218.1152 H   0  0  0  0  0  0  0  0  0  0  0  0
  140.1234   75.0382  218.0271 H   0  0  0  0  0  0  0  0  0  0  0  0
  141.8835   76.9399  217.4575 H   0  0  0  0  0  0  0  0  0  0  0  0
  140.8788   77.4516  218.7588 H   0  0  0  0  0  0  0  0  0  0  0  0
  143.6947   76.1721  218.8444 H   0  0  0  0  0  0  0  0  0  0  0  0
  143.1083   77.4571  219.8852 H   0  0  0  0  0  0  0  0  0  0  0  0
  142.3995   75.8445  221.4285 H   0  0  0  0  0  0  0  0  0  0  0  0
  141.9278   72.9143  221.1988 H   0  0  0  0  0  0  0  0  0  0  0  0
  143.4259   70.9794  221.0781 H   0  0  0  0  0  0  0  0  0  0  0  0
  145.7026   71.1884  220.1005 H   0  0  0  0  0  0  0  0  0  0  0  0
  147.0120   74.3500  218.9420 H   0  0  0  0  0  0  0  0  0  0  0  0
  144.9110   75.3638  219.3674 H   0  0  0  0  0  0  0  0  0  0  0  0
  141.2403   72.9012  224.8704 H   0  0  0  0  0  0  0  0  0  0  0  0
  141.4019   71.8293  227.1476 H   0  0  0  0  0  0  0  0  0  0  0  0
  141.0297   69.9390  228.5954 H   0  0  0  0  0  0  0  0  0  0  0  0
  140.2129   67.6320  228.9305 H   0  0  0  0  0  0  0  0  0  0  0  0
  139.2192   66.3385  227.0338 H   0  0  0  0  0  0  0  0  0  0  0  0
  139.0699   67.4203  224.7807 H   0  0  0  0  0  0  0  0  0  0  0  0
  1  2  2  0
  2  3  1  0
  3  4  1  0
  4  5  1  0
  5  6  2  0
  5  7  1  0
  7  8  1  0
  8  9  1  0
  9 10  1  0
 10 11  1  0
 11 12  1  0
 12 13  2  0
 13 14  1  0
 14 15  2  0
 15 16  1  0
 16 17  1  0
 16 18  2  0
  2 19  1  0
 19 20  2  0
 20 21  1  0
 21 22  2  0
 22 23  1  0
 23 24  2  0
 24 25  1  0
 25 26  2  0
 26 27  1  0
 27 28  2  0
 11  7  1  0
 18 12  1  0
 28 19  1  0
 27 22  1  0
  3 29  1  0
  4 30  1  0
  4 31  1  0
  8 32  1  0
  8 33  1  0
  9 34  1  0
  9 35  1  0
 10 36  1  0
 10 37  1  0
 11 38  1  1
 13 39  1  0
 14 40  1  0
 15 41  1  0
 17 42  1  0
 18 43  1  0
 20 44  1  0
 21 45  1  0
 23 46  1  0
 24 47  1  0
 25 48  1  0
 26 49  1  0
M  END
>  <smiles>  (42) 
O=C(NCC(=O)N1CCCC1c1cccc(O)c1)c1ccc2ccccc2n1

>  <score_type>  (42) 
oracle

>  <origin>  (42) 
autodockgpu

>  <m_score__min__energy>  (42) 
-9.1899999999999995

>  <m_primary>  (42) 
energy

>  <rmsd>  (42) 
3.3915377497020787

>  <m_score__min__rmsd>  (42) 
3.3915377497020787

>  <meeko>  (42) 
{"free_energy": -8.58, "intermolecular_energy": -10.37, "internal_energy": -1.43, "cluster_size": 13, "cluster_id": 2, "rank_in_cluster": 8}

>  <energy>  (42) 
-8.14

>  <cluster_rmsd>  (42) 
1.91

>  <cluster>  (42) 
4

$$$$

     RDKit          3D

 49 52  0  0  0  0  0  0  0  0999 V2000
  137.9960   75.2390  221.8550 O   0  0  0  0  0  0  0  0  0  0  0  0
  139.1640   75.6320  222.1020 C   0  0  0  0  0  0  0  0  0  0  0  0
  140.1890   74.6190  221.9740 N   0  0  0  0  0  0  0  0  0  0  0  0
  139.8510   73.2880  221.5930 C   0  0  0  0  0  0  0  0  0  0  0  0
  140.0810   72.1970  222.5370 C   0  0  0  0  0  0  0  0  0  0  0  0
  141.3430   71.9130  222.6870 O   0  0  0  0  0  0  0  0  0  0  0  0
  139.2020   71.4280  223.2890 N   0  0  0  0  0  0  0  0  0  0  0  0
  137.8320   71.5050  223.7280 C   0  0  0  0  0  0  0  0  0  0  0  0
  137.3180   70.1600  223.1930 C   0  0  0  0  0  0  0  0  0  0  0  0
  138.3850   69.2440  223.8180 C   0  0  0  0  0  0  0  0  0  0  0  0
  139.6070   70.1050  223.8560 C   0  0  2  0  0  0  0  0  0  0  0  0
  140.0370   70.2610  225.2790 C   0  0  0  0  0  0  0  0  0  0  0  0
  140.5520   71.4660  225.7530 C   0  0  0  0  0  0  0  0  0  0  0  0
  140.9750   71.6270  227.0570 C   0  0  0  0  0  0  0  0  0  0  0  0
  140.9060   70.5890  227.9590 C   0  0  0  0  0  0  0  0  0  0  0  0
  140.4020   69.3870  227.5170 C   0  0  0  0  0  0  0  0  0  0  0  0
  140.3360   68.3450  228.4320 O   0  0  0  0  0  0  0  0  0  0  0  0
  139.9750   69.2320  226.1920 C   0  0  0  0  0  0  0  0  0  0  0  0
  139.4890   76.9990  222.4930 C   0  0  0  0  0  0  0  0  0  0  0  0
  138.4220   77.8460  222.7260 C   0  0  0  0  0  0  0  0  0  0  0  0
  138.7550   79.1490  223.0980 C   0  0  0  0  0  0  0  0  0  0  0  0
  140.0770   79.5400  223.2170 C   0  0  0  0  0  0  0  0  0  0  0  0
  140.4020   80.8320  223.5850 C   0  0  0  0  0  0  0  0  0  0  0  0
  141.7270   81.2070  223.7000 C   0  0  0  0  0  0  0  0  0  0  0  0
  142.7620   80.3000  223.4500 C   0  0  0  0  0  0  0  0  0  0  0  0
  142.4300   79.0060  223.0810 C   0  0  0  0  0  0  0  0  0  0  0  0
  141.1040   78.6530  222.9730 C   0  0  0  0  0  0  0  0  0  0  0  0
  140.7750   77.3990  222.6150 N   0  0  0  0  0  0  0  0  0  0  0  0
  141.1630   74.9620  222.1830 H   0  0  0  0  0  0  0  0  0  0  0  0
  138.7774   73.2849  221.3534 H   0  0  0  0  0  0  0  0  0  0  0  0
  140.5422   73.0688  220.7659 H   0  0  0  0  0  0  0  0  0  0  0  0
  137.7551   71.5672  224.8235 H   0  0  0  0  0  0  0  0  0  0  0  0
  137.2781   72.3895  223.3804 H   0  0  0  0  0  0  0  0  0  0  0  0
  136.3067   69.9277  223.5582 H   0  0  0  0  0  0  0  0  0  0  0  0
  137.2087   70.0904  222.1006 H   0  0  0  0  0  0  0  0  0  0  0  0
  138.0914   68.9334  224.8316 H   0  0  0  0  0  0  0  0  0  0  0  0
  138.5348   68.3130  223.2515 H   0  0  0  0  0  0  0  0  0  0  0  0
  140.4422   69.6736  223.2848 H   0  0  0  0  0  0  0  0  0  0  0  0
  140.6240   72.3197  225.0631 H   0  0  0  0  0  0  0  0  0  0  0  0
  141.3735   72.5999  227.3807 H   0  0  0  0  0  0  0  0  0  0  0  0
  141.2426   70.7162  228.9985 H   0  0  0  0  0  0  0  0  0  0  0  0
  140.2940   67.4050  228.0180 H   0  0  0  0  0  0  0  0  0  0  0  0
  139.5777   68.2579  225.8707 H   0  0  0  0  0  0  0  0  0  0  0  0
  137.3780   77.5145  222.6248 H   0  0  0  0  0  0  0  0  0  0  0  0
  137.9547   79.8762  223.2997 H   0  0  0  0  0  0  0  0  0  0  0  0
  139.6049   81.5627  223.7866 H   0  0  0  0  0  0  0  0  0  0  0  0
  141.9724   82.2383  223.9937 H   0  0  0  0  0  0  0  0  0  0  0  0
  143.8143   80.6064  223.5440 H   0  0  0  0  0  0  0  0  0  0  0  0
  143.2192   78.2676  222.8762 H   0  0  0  0  0  0  0  0  0  0  0  0
  1  2  2  0
  2  3  1  0
  3  4  1  0
  4  5  1  0
  5  6  2  0
  5  7  1  0
  7  8  1  0
  8  9  1  0
  9 10  1  0
 10 11  1  0
 11 12  1  0
 12 13  2  0
 13 14  1  0
 14 15  2  0
 15 16  1  0
 16 17  1  0
 16 18  2  0
  2 19  1  0
 19 20  2  0
 20 21  1  0
 21 22  2  0
 22 23  1  0
 23 24  2  0
 24 25  1  0
 25 26  2  0
 26 27  1  0
 27 28  2  0
 11  7  1  0
 18 12  1  0
 28 19  1  0
 27 22  1  0
  3 29  1  0
  4 30  1  0
  4 31  1  0
  8 32  1  0
  8 33  1  0
  9 34  1  0
  9 35  1  0
 10 36  1  0
 10 37  1  0
 11 38  1  6
 13 39  1  0
 14 40  1  0
 15 41  1  0
 17 42  1  0
 18 43  1  0
 20 44  1  0
 21 45  1  0
 23 46  1  0
 24 47  1  0
 25 48  1  0
 26 49  1  0
M  END
>  <smiles>  (43) 
O=C(NCC(=O)N1CCCC1c1cccc(O)c1)c1ccc2ccccc2n1

>  <score_type>  (43) 
oracle

>  <origin>  (43) 
autodockgpu

>  <m_score__min__energy>  (43) 
-9.1899999999999995

>  <m_primary>  (43) 
energy

>  <rmsd>  (43) 
8.967481220371996

>  <m_score__min__rmsd>  (43) 
8.967481220371996

>  <meeko>  (43) 
{"free_energy": -8.32, "intermolecular_energy": -10.11, "internal_energy": -1.45, "cluster_size": 16, "cluster_id": 1, "rank_in_cluster": 15}

>  <energy>  (43) 
-8.13

>  <cluster_rmsd>  (43) 
1.82

>  <cluster>  (43) 
4

$$$$

     RDKit          3D

 49 52  0  0  0  0  0  0  0  0999 V2000
  136.1440   70.5080  222.8570 O   0  0  0  0  0  0  0  0  0  0  0  0
  137.0750   71.2440  223.2720 C   0  0  0  0  0  0  0  0  0  0  0  0
  136.9170   72.6510  222.9730 N   0  0  0  0  0  0  0  0  0  0  0  0
  135.7770   73.1200  222.2580 C   0  0  0  0  0  0  0  0  0  0  0  0
  134.8890   74.0930  222.8910 C   0  0  0  0  0  0  0  0  0  0  0  0
  134.3160   74.8880  222.0350 O   0  0  0  0  0  0  0  0  0  0  0  0
  134.5570   74.3070  224.2230 N   0  0  0  0  0  0  0  0  0  0  0  0
  135.0690   75.0660  225.3350 C   0  0  0  0  0  0  0  0  0  0  0  0
  133.8030   75.8540  225.7070 C   0  0  0  0  0  0  0  0  0  0  0  0
  132.8270   74.6710  225.8320 C   0  0  0  0  0  0  0  0  0  0  0  0
  133.3460   73.6820  224.8380 C   0  0  2  0  0  0  0  0  0  0  0  0
  133.7220   72.4290  225.5630 C   0  0  0  0  0  0  0  0  0  0  0  0
  133.5950   72.3250  226.9460 C   0  0  0  0  0  0  0  0  0  0  0  0
  133.9560   71.1860  227.6380 C   0  0  0  0  0  0  0  0  0  0  0  0
  134.4660   70.0880  226.9810 C   0  0  0  0  0  0  0  0  0  0  0  0
  134.6030   70.1650  225.6140 C   0  0  0  0  0  0  0  0  0  0  0  0
  135.1180   69.0540  224.9590 O   0  0  0  0  0  0  0  0  0  0  0  0
  134.2340   71.3240  224.9200 C   0  0  0  0  0  0  0  0  0  0  0  0
  138.2350   70.7450  224.0010 C   0  0  0  0  0  0  0  0  0  0  0  0
  139.3780   71.5190  223.9490 C   0  0  0  0  0  0  0  0  0  0  0  0
  140.4760   71.0220  224.6520 C   0  0  0  0  0  0  0  0  0  0  0  0
  140.3970   69.8290  225.3490 C   0  0  0  0  0  0  0  0  0  0  0  0
  141.4870   69.3410  226.0430 C   0  0  0  0  0  0  0  0  0  0  0  0
  141.3910   68.1480  226.7340 C   0  0  0  0  0  0  0  0  0  0  0  0
  140.2030   67.4110  226.7470 C   0  0  0  0  0  0  0  0  0  0  0  0
  139.1130   67.9050  226.0480 C   0  0  0  0  0  0  0  0  0  0  0  0
  139.2290   69.0960  225.3680 C   0  0  0  0  0  0  0  0  0  0  0  0
  138.1750   69.5810  224.6870 N   0  0  0  0  0  0  0  0  0  0  0  0
  137.7030   73.2570  223.3280 H   0  0  0  0  0  0  0  0  0  0  0  0
  136.1466   73.5789  221.3291 H   0  0  0  0  0  0  0  0  0  0  0  0
  135.1486   72.2236  222.1504 H   0  0  0  0  0  0  0  0  0  0  0  0
  135.4040   74.4156  226.1565 H   0  0  0  0  0  0  0  0  0  0  0  0
  135.9552   75.6795  225.1153 H   0  0  0  0  0  0  0  0  0  0  0  0
  133.9176   76.3988  226.6557 H   0  0  0  0  0  0  0  0  0  0  0  0
  133.5077   76.6446  225.0015 H   0  0  0  0  0  0  0  0  0  0  0  0
  132.8452   74.2524  226.8491 H   0  0  0  0  0  0  0  0  0  0  0  0
  131.7815   74.9572  225.6449 H   0  0  0  0  0  0  0  0  0  0  0  0
  132.6015   73.4300  224.0685 H   0  0  0  0  0  0  0  0  0  0  0  0
  133.1926   73.1812  227.5073 H   0  0  0  0  0  0  0  0  0  0  0  0
  133.8344   71.1550  228.7308 H   0  0  0  0  0  0  0  0  0  0  0  0
  134.7542   69.1799  227.5308 H   0  0  0  0  0  0  0  0  0  0  0  0
  136.0510   69.1850  224.5490 H   0  0  0  0  0  0  0  0  0  0  0  0
  134.3569   71.3527  223.8273 H   0  0  0  0  0  0  0  0  0  0  0  0
  139.4198   72.4654  223.3899 H   0  0  0  0  0  0  0  0  0  0  0  0
  141.4195   71.5875  224.6522 H   0  0  0  0  0  0  0  0  0  0  0  0
  142.4328   69.9027  226.0457 H   0  0  0  0  0  0  0  0  0  0  0  0
  142.2658   67.7712  227.2842 H   0  0  0  0  0  0  0  0  0  0  0  0
  140.1351   66.4618  227.2988 H   0  0  0  0  0  0  0  0  0  0  0  0
  138.1633   67.3500  226.0368 H   0  0  0  0  0  0  0  0  0  0  0  0
  1  2  2  0
  2  3  1  0
  3  4  1  0
  4  5  1  0
  5  6  2  0
  5  7  1  0
  7  8  1  0
  8  9  1  0
  9 10  1  0
 10 11  1  0
 11 12  1  0
 12 13  2  0
 13 14  1  0
 14 15  2  0
 15 16  1  0
 16 17  1  0
 16 18  2  0
  2 19  1  0
 19 20  2  0
 20 21  1  0
 21 22  2  0
 22 23  1  0
 23 24  2  0
 24 25  1  0
 25 26  2  0
 26 27  1  0
 27 28  2  0
 11  7  1  0
 18 12  1  0
 28 19  1  0
 27 22  1  0
  3 29  1  0
  4 30  1  0
  4 31  1  0
  8 32  1  0
  8 33  1  0
  9 34  1  0
  9 35  1  0
 10 36  1  0
 10 37  1  0
 11 38  1  6
 13 39  1  0
 14 40  1  0
 15 41  1  0
 17 42  1  0
 18 43  1  0
 20 44  1  0
 21 45  1  0
 23 46  1  0
 24 47  1  0
 25 48  1  0
 26 49  1  0
M  END
>  <smiles>  (44) 
O=C(NCC(=O)N1CCCC1c1cccc(O)c1)c1ccc2ccccc2n1

>  <score_type>  (44) 
oracle

>  <origin>  (44) 
autodockgpu

>  <m_score__min__energy>  (44) 
-9.1899999999999995

>  <m_primary>  (44) 
energy

>  <rmsd>  (44) 
6.58037484241833

>  <m_score__min__rmsd>  (44) 
6.58037484241833

>  <meeko>  (44) 
{"free_energy": -6.59, "intermolecular_energy": -8.38, "internal_energy": -2.98, "cluster_size": 1, "cluster_id": 7, "rank_in_cluster": 1}

>  <energy>  (44) 
-7.91

>  <cluster_rmsd>  (44) 
1.74

>  <cluster>  (44) 
4

$$$$

     RDKit          3D

 49 52  0  0  0  0  0  0  0  0999 V2000
  141.4920   72.0990  221.6120 O   0  0  0  0  0  0  0  0  0  0  0  0
  140.5940   72.3980  222.4390 C   0  0  0  0  0  0  0  0  0  0  0  0
  139.8870   73.6280  222.1510 N   0  0  0  0  0  0  0  0  0  0  0  0
  140.2200   74.4070  221.0060 C   0  0  0  0  0  0  0  0  0  0  0  0
  139.5110   75.6630  220.7680 C   0  0  0  0  0  0  0  0  0  0  0  0
  138.5220   75.5360  219.9310 O   0  0  0  0  0  0  0  0  0  0  0  0
  139.7080   76.9420  221.2730 N   0  0  0  0  0  0  0  0  0  0  0  0
  138.8960   78.0650  221.6640 C   0  0  0  0  0  0  0  0  0  0  0  0
  139.4170   78.2670  223.0960 C   0  0  0  0  0  0  0  0  0  0  0  0
  140.9210   78.3450  222.7810 C   0  0  0  0  0  0  0  0  0  0  0  0
  141.0760   77.4570  221.5890 C   0  0  2  0  0  0  0  0  0  0  0  0
  141.5970   78.2740  220.4490 C   0  0  0  0  0  0  0  0  0  0  0  0
  141.5540   79.6660  220.4750 C   0  0  0  0  0  0  0  0  0  0  0  0
  142.0090   80.4390  219.4270 C   0  0  0  0  0  0  0  0  0  0  0  0
  142.5320   79.8600  218.2920 C   0  0  0  0  0  0  0  0  0  0  0  0
  142.5850   78.4850  218.2400 C   0  0  0  0  0  0  0  0  0  0  0  0
  143.1140   77.9080  217.0920 O   0  0  0  0  0  0  0  0  0  0  0  0
  142.1210   77.7080  219.3080 C   0  0  0  0  0  0  0  0  0  0  0  0
  140.2690   71.5880  223.6070 C   0  0  0  0  0  0  0  0  0  0  0  0
  139.4480   70.4980  223.3940 C   0  0  0  0  0  0  0  0  0  0  0  0
  139.1500   69.7370  224.5250 C   0  0  0  0  0  0  0  0  0  0  0  0
  139.6580   70.0760  225.7670 C   0  0  0  0  0  0  0  0  0  0  0  0
  139.3590   69.3200  226.8840 C   0  0  0  0  0  0  0  0  0  0  0  0
  139.8740   69.6720  228.1180 C   0  0  0  0  0  0  0  0  0  0  0  0
  140.7010   70.7900  228.2650 C   0  0  0  0  0  0  0  0  0  0  0  0
  140.9970   71.5440  227.1410 C   0  0  0  0  0  0  0  0  0  0  0  0
  140.4740   71.1760  225.9230 C   0  0  0  0  0  0  0  0  0  0  0  0
  140.7570   71.9050  224.8280 N   0  0  0  0  0  0  0  0  0  0  0  0
  139.1360   73.8670  222.8510 H   0  0  0  0  0  0  0  0  0  0  0  0
  141.2897   74.6513  221.0834 H   0  0  0  0  0  0  0  0  0  0  0  0
  139.9184   73.7716  220.1602 H   0  0  0  0  0  0  0  0  0  0  0  0
  139.0815   78.9457  221.0316 H   0  0  0  0  0  0  0  0  0  0  0  0
  137.8103   77.9108  221.5778 H   0  0  0  0  0  0  0  0  0  0  0  0
  139.0392   79.1962  223.5476 H   0  0  0  0  0  0  0  0  0  0  0  0
  139.1204   77.4990  223.8256 H   0  0  0  0  0  0  0  0  0  0  0  0
  141.2198   79.3767  222.5438 H   0  0  0  0  0  0  0  0  0  0  0  0
  141.5520   78.0379  223.6281 H   0  0  0  0  0  0  0  0  0  0  0  0
  141.7747   76.6273  221.7721 H   0  0  0  0  0  0  0  0  0  0  0  0
  141.1423   80.1671  221.3635 H   0  0  0  0  0  0  0  0  0  0  0  0
  141.9533   81.5352  219.4989 H   0  0  0  0  0  0  0  0  0  0  0  0
  142.8950   80.4751  217.4554 H   0  0  0  0  0  0  0  0  0  0  0  0
  143.7150   78.5270  216.5330 H   0  0  0  0  0  0  0  0  0  0  0  0
  142.1766   76.6119  219.2336 H   0  0  0  0  0  0  0  0  0  0  0  0
  139.0548   70.2463  222.3980 H   0  0  0  0  0  0  0  0  0  0  0  0
  138.5013   68.8540  224.4280 H   0  0  0  0  0  0  0  0  0  0  0  0
  138.7101   68.4366  226.7915 H   0  0  0  0  0  0  0  0  0  0  0  0
  139.6288   69.0617  228.9997 H   0  0  0  0  0  0  0  0  0  0  0  0
  141.1070   71.0643  229.2498 H   0  0  0  0  0  0  0  0  0  0  0  0
  141.6447   72.4294  227.2218 H   0  0  0  0  0  0  0  0  0  0  0  0
  1  2  2  0
  2  3  1  0
  3  4  1  0
  4  5  1  0
  5  6  2  0
  5  7  1  0
  7  8  1  0
  8  9  1  0
  9 10  1  0
 10 11  1  0
 11 12  1  0
 12 13  2  0
 13 14  1  0
 14 15  2  0
 15 16  1  0
 16 17  1  0
 16 18  2  0
  2 19  1  0
 19 20  2  0
 20 21  1  0
 21 22  2  0
 22 23  1  0
 23 24  2  0
 24 25  1  0
 25 26  2  0
 26 27  1  0
 27 28  2  0
 11  7  1  0
 18 12  1  0
 28 19  1  0
 27 22  1  0
  3 29  1  0
  4 30  1  0
  4 31  1  0
  8 32  1  0
  8 33  1  0
  9 34  1  0
  9 35  1  0
 10 36  1  0
 10 37  1  0
 11 38  1  1
 13 39  1  0
 14 40  1  0
 15 41  1  0
 17 42  1  0
 18 43  1  0
 20 44  1  0
 21 45  1  0
 23 46  1  0
 24 47  1  0
 25 48  1  0
 26 49  1  0
M  END
>  <smiles>  (45) 
O=C(NCC(=O)N1CCCC1c1cccc(O)c1)c1ccc2ccccc2n1

>  <score_type>  (45) 
oracle

>  <origin>  (45) 
autodockgpu

>  <m_score__min__energy>  (45) 
-9.1899999999999995

>  <m_primary>  (45) 
energy

>  <rmsd>  (45) 
2.4400289477598536

>  <m_score__min__rmsd>  (45) 
2.4400289477598536

>  <meeko>  (45) 
{"free_energy": -8.13, "intermolecular_energy": -9.92, "internal_energy": -1.08, "cluster_size": 6, "cluster_id": 4, "rank_in_cluster": 3}

>  <energy>  (45) 
-7.89

>  <cluster_rmsd>  (45) 
1.74

>  <cluster>  (45) 
4

$$$$

     RDKit          3D

 49 52  0  0  0  0  0  0  0  0999 V2000
  140.5920   75.3060  220.4930 O   0  0  0  0  0  0  0  0  0  0  0  0
  140.1270   75.6540  221.6070 C   0  0  0  0  0  0  0  0  0  0  0  0
  139.4780   74.5980  222.3530 N   0  0  0  0  0  0  0  0  0  0  0  0
  139.3960   73.2780  221.8230 C   0  0  0  0  0  0  0  0  0  0  0  0
  139.7760   72.1460  222.6660 C   0  0  0  0  0  0  0  0  0  0  0  0
  141.0640   71.9650  222.7200 O   0  0  0  0  0  0  0  0  0  0  0  0
  139.0140   71.2510  223.4060 N   0  0  0  0  0  0  0  0  0  0  0  0
  137.6590   71.1540  223.8850 C   0  0  0  0  0  0  0  0  0  0  0  0
  137.2830   69.7820  223.3040 C   0  0  0  0  0  0  0  0  0  0  0  0
  138.4650   68.9690  223.8570 C   0  0  0  0  0  0  0  0  0  0  0  0
  139.5830   69.9600  223.9000 C   0  0  2  0  0  0  0  0  0  0  0  0
  140.0390   70.1050  225.3170 C   0  0  0  0  0  0  0  0  0  0  0  0
  140.5730   71.3020  225.7890 C   0  0  0  0  0  0  0  0  0  0  0  0
  141.0200   71.4510  227.0860 C   0  0  0  0  0  0  0  0  0  0  0  0
  140.9570   70.4090  227.9830 C   0  0  0  0  0  0  0  0  0  0  0  0
  140.4340   69.2140  227.5430 C   0  0  0  0  0  0  0  0  0  0  0  0
  140.3740   68.1670  228.4540 O   0  0  0  0  0  0  0  0  0  0  0  0
  139.9830   69.0700  226.2250 C   0  0  0  0  0  0  0  0  0  0  0  0
  140.2190   77.0120  222.1320 C   0  0  0  0  0  0  0  0  0  0  0  0
  139.0250   77.6540  222.3970 C   0  0  0  0  0  0  0  0  0  0  0  0
  139.1370   78.9520  222.8970 C   0  0  0  0  0  0  0  0  0  0  0  0
  140.3750   79.5330  223.1050 C   0  0  0  0  0  0  0  0  0  0  0  0
  140.4810   80.8190  223.6000 C   0  0  0  0  0  0  0  0  0  0  0  0
  141.7250   81.3850  223.8010 C   0  0  0  0  0  0  0  0  0  0  0  0
  142.8970   80.6790  223.5120 C   0  0  0  0  0  0  0  0  0  0  0  0
  142.7860   79.3900  223.0160 C   0  0  0  0  0  0  0  0  0  0  0  0
  141.5370   78.8460  222.8230 C   0  0  0  0  0  0  0  0  0  0  0  0
  141.4220   77.5950  222.3410 N   0  0  0  0  0  0  0  0  0  0  0  0
  139.0930   74.9030  223.2860 H   0  0  0  0  0  0  0  0  0  0  0  0
  138.3505   73.1172  221.5213 H   0  0  0  0  0  0  0  0  0  0  0  0
  140.1487   73.2710  221.0209 H   0  0  0  0  0  0  0  0  0  0  0  0
  137.6106   71.1616  224.9839 H   0  0  0  0  0  0  0  0  0  0  0  0
  136.9983   71.9835  223.5927 H   0  0  0  0  0  0  0  0  0  0  0  0
  136.3167   69.4208  223.6859 H   0  0  0  0  0  0  0  0  0  0  0  0
  137.1472   69.7461  222.2130 H   0  0  0  0  0  0  0  0  0  0  0  0
  138.2412   68.5853  224.8633 H   0  0  0  0  0  0  0  0  0  0  0  0
  138.6999   68.0856  223.2451 H   0  0  0  0  0  0  0  0  0  0  0  0
  140.4419   69.6498  223.2867 H   0  0  0  0  0  0  0  0  0  0  0  0
  140.6408   72.1593  225.1031 H   0  0  0  0  0  0  0  0  0  0  0  0
  141.4333   72.4181  227.4082 H   0  0  0  0  0  0  0  0  0  0  0  0
  141.3127   70.5272  229.0172 H   0  0  0  0  0  0  0  0  0  0  0  0
  140.2780   67.2330  228.0360 H   0  0  0  0  0  0  0  0  0  0  0  0
  139.5716   68.1014  225.9049 H   0  0  0  0  0  0  0  0  0  0  0  0
  138.0503   77.1738  222.2253 H   0  0  0  0  0  0  0  0  0  0  0  0
  138.2258   79.5226  223.1296 H   0  0  0  0  0  0  0  0  0  0  0  0
  139.5726   81.3933  223.8345 H   0  0  0  0  0  0  0  0  0  0  0  0
  141.7949   82.4095  224.1955 H   0  0  0  0  0  0  0  0  0  0  0  0
  143.8841   81.1364  223.6746 H   0  0  0  0  0  0  0  0  0  0  0  0
  143.6881   78.8070  222.7787 H   0  0  0  0  0  0  0  0  0  0  0  0
  1  2  2  0
  2  3  1  0
  3  4  1  0
  4  5  1  0
  5  6  2  0
  5  7  1  0
  7  8  1  0
  8  9  1  0
  9 10  1  0
 10 11  1  0
 11 12  1  0
 12 13  2  0
 13 14  1  0
 14 15  2  0
 15 16  1  0
 16 17  1  0
 16 18  2  0
  2 19  1  0
 19 20  2  0
 20 21  1  0
 21 22  2  0
 22 23  1  0
 23 24  2  0
 24 25  1  0
 25 26  2  0
 26 27  1  0
 27 28  2  0
 11  7  1  0
 18 12  1  0
 28 19  1  0
 27 22  1  0
  3 29  1  0
  4 30  1  0
  4 31  1  0
  8 32  1  0
  8 33  1  0
  9 34  1  0
  9 35  1  0
 10 36  1  0
 10 37  1  0
 11 38  1  6
 13 39  1  0
 14 40  1  0
 15 41  1  0
 17 42  1  0
 18 43  1  0
 20 44  1  0
 21 45  1  0
 23 46  1  0
 24 47  1  0
 25 48  1  0
 26 49  1  0
M  END
>  <smiles>  (46) 
O=C(NCC(=O)N1CCCC1c1cccc(O)c1)c1ccc2ccccc2n1

>  <score_type>  (46) 
oracle

>  <origin>  (46) 
autodockgpu

>  <m_score__min__energy>  (46) 
-9.1899999999999995

>  <m_primary>  (46) 
energy

>  <rmsd>  (46) 
9.049259346594974

>  <m_score__min__rmsd>  (46) 
9.049259346594974

>  <meeko>  (46) 
{"free_energy": -9.02, "intermolecular_energy": -10.81, "internal_energy": -1.04, "cluster_size": 16, "cluster_id": 1, "rank_in_cluster": 6}

>  <energy>  (46) 
-7.51

>  <cluster_rmsd>  (46) 
1.95

>  <cluster>  (46) 
4

$$$$

     RDKit          3D

 49 52  0  0  0  0  0  0  0  0999 V2000
  140.5860   71.3710  221.6480 O   0  0  0  0  0  0  0  0  0  0  0  0
  139.8170   71.5390  222.6280 C   0  0  0  0  0  0  0  0  0  0  0  0
  138.9170   72.6660  222.5110 N   0  0  0  0  0  0  0  0  0  0  0  0
  138.9390   73.4960  221.3520 C   0  0  0  0  0  0  0  0  0  0  0  0
  139.9330   74.5640  221.2580 C   0  0  0  0  0  0  0  0  0  0  0  0
  140.0020   75.2870  222.3380 O   0  0  0  0  0  0  0  0  0  0  0  0
  140.7990   74.9280  220.2360 N   0  0  0  0  0  0  0  0  0  0  0  0
  140.7400   75.1110  218.8090 C   0  0  0  0  0  0  0  0  0  0  0  0
  141.2760   76.5480  218.7150 C   0  0  0  0  0  0  0  0  0  0  0  0
  142.5740   76.3590  219.5180 C   0  0  0  0  0  0  0  0  0  0  0  0
  142.2220   75.2990  220.5100 C   0  0  2  0  0  0  0  0  0  0  0  0
  143.1150   74.1200  220.2890 C   0  0  0  0  0  0  0  0  0  0  0  0
  142.8200   72.8730  220.8350 C   0  0  0  0  0  0  0  0  0  0  0  0
  143.6410   71.7780  220.6610 C   0  0  0  0  0  0  0  0  0  0  0  0
  144.8050   71.8710  219.9310 C   0  0  0  0  0  0  0  0  0  0  0  0
  145.1210   73.0920  219.3810 C   0  0  0  0  0  0  0  0  0  0  0  0
  146.2960   73.1780  218.6460 O   0  0  0  0  0  0  0  0  0  0  0  0
  144.2830   74.1990  219.5620 C   0  0  0  0  0  0  0  0  0  0  0  0
  139.8120   70.6800  223.8060 C   0  0  0  0  0  0  0  0  0  0  0  0
  139.1700   69.4630  223.6800 C   0  0  0  0  0  0  0  0  0  0  0  0
  139.1770   68.6570  224.8200 C   0  0  0  0  0  0  0  0  0  0  0  0
  139.7950   69.0740  225.9850 C   0  0  0  0  0  0  0  0  0  0  0  0
  139.7980   68.2730  227.1110 C   0  0  0  0  0  0  0  0  0  0  0  0
  140.4200   68.7040  228.2670 C   0  0  0  0  0  0  0  0  0  0  0  0
  141.0540   69.9490  228.3280 C   0  0  0  0  0  0  0  0  0  0  0  0
  141.0470   70.7490  227.1960 C   0  0  0  0  0  0  0  0  0  0  0  0
  140.4220   70.3000  226.0550 C   0  0  0  0  0  0  0  0  0  0  0  0
  140.4120   71.0710  224.9530 N   0  0  0  0  0  0  0  0  0  0  0  0
  138.2780   72.7960  223.3380 H   0  0  0  0  0  0  0  0  0  0  0  0
  139.0945   72.8352  220.4865 H   0  0  0  0  0  0  0  0  0  0  0  0
  137.9806   74.0340  221.3975 H   0  0  0  0  0  0  0  0  0  0  0  0
  141.3854   74.3967  218.2767 H   0  0  0  0  0  0  0  0  0  0  0  0
  139.7502   74.9501  218.3569 H   0  0  0  0  0  0  0  0  0  0  0  0
  141.4717   76.8504  217.6756 H   0  0  0  0  0  0  0  0  0  0  0  0
  140.5993   77.3354  219.0785 H   0  0  0  0  0  0  0  0  0  0  0  0
  143.3953   76.0287  218.8650 H   0  0  0  0  0  0  0  0  0  0  0  0
  142.9230   77.2886  219.9914 H   0  0  0  0  0  0  0  0  0  0  0  0
  142.3457   75.6401  221.5484 H   0  0  0  0  0  0  0  0  0  0  0  0
  141.8996   72.7571  221.4261 H   0  0  0  0  0  0  0  0  0  0  0  0
  143.3613   70.8149  221.1128 H   0  0  0  0  0  0  0  0  0  0  0  0
  145.4602   70.9984  219.7922 H   0  0  0  0  0  0  0  0  0  0  0  0
  146.5830   74.1330  218.3970 H   0  0  0  0  0  0  0  0  0  0  0  0
  144.5656   75.1612  219.1100 H   0  0  0  0  0  0  0  0  0  0  0  0
  138.6854   69.1499  222.7434 H   0  0  0  0  0  0  0  0  0  0  0  0
  138.6831   67.6745  224.7912 H   0  0  0  0  0  0  0  0  0  0  0  0
  139.3042   67.2903  227.0869 H   0  0  0  0  0  0  0  0  0  0  0  0
  140.4164   68.0559  229.1558 H   0  0  0  0  0  0  0  0  0  0  0  0
  141.5465   70.2854  229.2523 H   0  0  0  0  0  0  0  0  0  0  0  0
  141.5366   71.7339  227.2095 H   0  0  0  0  0  0  0  0  0  0  0  0
  1  2  2  0
  2  3  1  0
  3  4  1  0
  4  5  1  0
  5  6  2  0
  5  7  1  0
  7  8  1  0
  8  9  1  0
  9 10  1  0
 10 11  1  0
 11 12  1  0
 12 13  2  0
 13 14  1  0
 14 15  2  0
 15 16  1  0
 16 17  1  0
 16 18  2  0
  2 19  1  0
 19 20  2  0
 20 21  1  0
 21 22  2  0
 22 23  1  0
 23 24  2  0
 24 25  1  0
 25 26  2  0
 26 27  1  0
 27 28  2  0
 11  7  1  0
 18 12  1  0
 28 19  1  0
 27 22  1  0
  3 29  1  0
  4 30  1  0
  4 31  1  0
  8 32  1  0
  8 33  1  0
  9 34  1  0
  9 35  1  0
 10 36  1  0
 10 37  1  0
 11 38  1  1
 13 39  1  0
 14 40  1  0
 15 41  1  0
 17 42  1  0
 18 43  1  0
 20 44  1  0
 21 45  1  0
 23 46  1  0
 24 47  1  0
 25 48  1  0
 26 49  1  0
M  END
>  <smiles>  (47) 
O=C(NCC(=O)N1CCCC1c1cccc(O)c1)c1ccc2ccccc2n1

>  <score_type>  (47) 
oracle

>  <origin>  (47) 
autodockgpu

>  <m_score__min__energy>  (47) 
-9.1899999999999995

>  <m_primary>  (47) 
energy

>  <rmsd>  (47) 
2.3407519533559347

>  <m_score__min__rmsd>  (47) 
2.3407519533559347

>  <meeko>  (47) 
{"free_energy": -9.03, "intermolecular_energy": -10.82, "internal_energy": -1.42, "cluster_size": 13, "cluster_id": 2, "rank_in_cluster": 2}

>  <energy>  (47) 
-8.15

>  <cluster_rmsd>  (47) 
0.0

>  <cluster>  (47) 
5

$$$$

     RDKit          3D

 49 52  0  0  0  0  0  0  0  0999 V2000
  139.3180   70.6480  221.5010 O   0  0  0  0  0  0  0  0  0  0  0  0
  139.3980   71.1310  222.6580 C   0  0  0  0  0  0  0  0  0  0  0  0
  139.3270   72.5750  222.7220 N   0  0  0  0  0  0  0  0  0  0  0  0
  139.1790   73.3490  221.5350 C   0  0  0  0  0  0  0  0  0  0  0  0
  139.9890   74.5530  221.3640 C   0  0  0  0  0  0  0  0  0  0  0  0
  139.8660   75.3910  222.3530 O   0  0  0  0  0  0  0  0  0  0  0  0
  140.8510   74.9480  220.3490 N   0  0  0  0  0  0  0  0  0  0  0  0
  140.7800   75.1940  218.9320 C   0  0  0  0  0  0  0  0  0  0  0  0
  141.3410   76.6250  218.8960 C   0  0  0  0  0  0  0  0  0  0  0  0
  142.6440   76.3770  219.6740 C   0  0  0  0  0  0  0  0  0  0  0  0
  142.2830   75.2800  220.6230 C   0  0  2  0  0  0  0  0  0  0  0  0
  143.1520   74.0970  220.3390 C   0  0  0  0  0  0  0  0  0  0  0  0
  142.8260   72.8270  220.8110 C   0  0  0  0  0  0  0  0  0  0  0  0
  143.6240   71.7250  220.5800 C   0  0  0  0  0  0  0  0  0  0  0  0
  144.7950   71.8340  219.8630 C   0  0  0  0  0  0  0  0  0  0  0  0
  145.1410   73.0780  219.3850 C   0  0  0  0  0  0  0  0  0  0  0  0
  146.3220   73.1800  218.6620 O   0  0  0  0  0  0  0  0  0  0  0  0
  144.3260   74.1910  219.6240 C   0  0  0  0  0  0  0  0  0  0  0  0
  139.5510   70.3220  223.8620 C   0  0  0  0  0  0  0  0  0  0  0  0
  139.0710   69.0270  223.8010 C   0  0  0  0  0  0  0  0  0  0  0  0
  139.2270   68.2710  224.9640 C   0  0  0  0  0  0  0  0  0  0  0  0
  139.8280   68.8080  226.0890 C   0  0  0  0  0  0  0  0  0  0  0  0
  139.9800   68.0550  227.2370 C   0  0  0  0  0  0  0  0  0  0  0  0
  140.5820   68.6060  228.3530 C   0  0  0  0  0  0  0  0  0  0  0  0
  141.0480   69.9250  228.3480 C   0  0  0  0  0  0  0  0  0  0  0  0
  140.8930   70.6750  227.1930 C   0  0  0  0  0  0  0  0  0  0  0  0
  140.2900   70.1070  226.0940 C   0  0  0  0  0  0  0  0  0  0  0  0
  140.1360   70.8300  224.9700 N   0  0  0  0  0  0  0  0  0  0  0  0
  139.3940   72.9670  223.6980 H   0  0  0  0  0  0  0  0  0  0  0  0
  139.4069   72.6853  220.6879 H   0  0  0  0  0  0  0  0  0  0  0  0
  138.1501   73.7326  221.5992 H   0  0  0  0  0  0  0  0  0  0  0  0
  141.4068   74.4928  218.3616 H   0  0  0  0  0  0  0  0  0  0  0  0
  139.7830   75.0700  218.4841 H   0  0  0  0  0  0  0  0  0  0  0  0
  141.5306   76.9704  217.8690 H   0  0  0  0  0  0  0  0  0  0  0  0
  140.6828   77.4071  219.3024 H   0  0  0  0  0  0  0  0  0  0  0  0
  143.4515   76.0610  218.9972 H   0  0  0  0  0  0  0  0  0  0  0  0
  143.0158   77.2781  220.1837 H   0  0  0  0  0  0  0  0  0  0  0  0
  142.4237   75.5714  221.6743 H   0  0  0  0  0  0  0  0  0  0  0  0
  141.8989   72.6982  221.3888 H   0  0  0  0  0  0  0  0  0  0  0  0
  143.3201   70.7442  220.9747 H   0  0  0  0  0  0  0  0  0  0  0  0
  145.4323   70.9566  219.6785 H   0  0  0  0  0  0  0  0  0  0  0  0
  146.5930   74.1370  218.4060 H   0  0  0  0  0  0  0  0  0  0  0  0
  144.6324   75.1707  219.2287 H   0  0  0  0  0  0  0  0  0  0  0  0
  138.5974   68.6193  222.8958 H   0  0  0  0  0  0  0  0  0  0  0  0
  138.8665   67.2320  224.9866 H   0  0  0  0  0  0  0  0  0  0  0  0
  139.6215   67.0154  227.2633 H   0  0  0  0  0  0  0  0  0  0  0  0
  140.6966   67.9962  229.2613 H   0  0  0  0  0  0  0  0  0  0  0  0
  141.5261   70.3566  229.2397 H   0  0  0  0  0  0  0  0  0  0  0  0
  141.2488   71.7152  227.1550 H   0  0  0  0  0  0  0  0  0  0  0  0
  1  2  2  0
  2  3  1  0
  3  4  1  0
  4  5  1  0
  5  6  2  0
  5  7  1  0
  7  8  1  0
  8  9  1  0
  9 10  1  0
 10 11  1  0
 11 12  1  0
 12 13  2  0
 13 14  1  0
 14 15  2  0
 15 16  1  0
 16 17  1  0
 16 18  2  0
  2 19  1  0
 19 20  2  0
 20 21  1  0
 21 22  2  0
 22 23  1  0
 23 24  2  0
 24 25  1  0
 25 26  2  0
 26 27  1  0
 27 28  2  0
 11  7  1  0
 18 12  1  0
 28 19  1  0
 27 22  1  0
  3 29  1  0
  4 30  1  0
  4 31  1  0
  8 32  1  0
  8 33  1  0
  9 34  1  0
  9 35  1  0
 10 36  1  0
 10 37  1  0
 11 38  1  1
 13 39  1  0
 14 40  1  0
 15 41  1  0
 17 42  1  0
 18 43  1  0
 20 44  1  0
 21 45  1  0
 23 46  1  0
 24 47  1  0
 25 48  1  0
 26 49  1  0
M  END
>  <smiles>  (48) 
O=C(NCC(=O)N1CCCC1c1cccc(O)c1)c1ccc2ccccc2n1

>  <score_type>  (48) 
oracle

>  <origin>  (48) 
autodockgpu

>  <m_score__min__energy>  (48) 
-9.1899999999999995

>  <m_primary>  (48) 
energy

>  <rmsd>  (48) 
2.373868480747328

>  <m_score__min__rmsd>  (48) 
2.373868480747328

>  <meeko>  (48) 
{"free_energy": -8.89, "intermolecular_energy": -10.68, "internal_energy": -1.57, "cluster_size": 13, "cluster_id": 2, "rank_in_cluster": 5}

>  <energy>  (48) 
-8.09

>  <cluster_rmsd>  (48) 
1.25

>  <cluster>  (48) 
5

$$$$

     RDKit          3D

 49 52  0  0  0  0  0  0  0  0999 V2000
  137.7160   75.6970  222.4100 O   0  0  0  0  0  0  0  0  0  0  0  0
  138.9270   76.0280  222.3510 C   0  0  0  0  0  0  0  0  0  0  0  0
  139.8330   74.9610  221.9860 N   0  0  0  0  0  0  0  0  0  0  0  0
  139.3430   73.6490  221.7230 C   0  0  0  0  0  0  0  0  0  0  0  0
  139.7750   72.5430  222.5750 C   0  0  0  0  0  0  0  0  0  0  0  0
  141.0660   72.5070  222.7440 O   0  0  0  0  0  0  0  0  0  0  0  0
  139.0590   71.5450  223.2250 N   0  0  0  0  0  0  0  0  0  0  0  0
  137.7010   71.3170  223.6460 C   0  0  0  0  0  0  0  0  0  0  0  0
  137.4470   69.9660  222.9600 C   0  0  0  0  0  0  0  0  0  0  0  0
  138.6680   69.2030  223.5000 C   0  0  0  0  0  0  0  0  0  0  0  0
  139.7070   70.2670  223.6510 C   0  0  2  0  0  0  0  0  0  0  0  0
  140.1060   70.3440  225.0900 C   0  0  0  0  0  0  0  0  0  0  0  0
  140.6350   71.5120  225.6350 C   0  0  0  0  0  0  0  0  0  0  0  0
  141.0290   71.6000  226.9540 C   0  0  0  0  0  0  0  0  0  0  0  0
  140.9170   70.5210  227.8020 C   0  0  0  0  0  0  0  0  0  0  0  0
  140.3970   69.3540  227.2900 C   0  0  0  0  0  0  0  0  0  0  0  0
  140.2870   68.2700  228.1510 O   0  0  0  0  0  0  0  0  0  0  0  0
  140.0000   69.2730  225.9500 C   0  0  0  0  0  0  0  0  0  0  0  0
  139.4090   77.3760  222.6260 C   0  0  0  0  0  0  0  0  0  0  0  0
  138.4470   78.3520  222.8060 C   0  0  0  0  0  0  0  0  0  0  0  0
  138.9300   79.6350  223.0670 C   0  0  0  0  0  0  0  0  0  0  0  0
  140.2890   79.8850  223.1360 C   0  0  0  0  0  0  0  0  0  0  0  0
  140.7630   81.1570  223.3940 C   0  0  0  0  0  0  0  0  0  0  0  0
  142.1240   81.3900  223.4600 C   0  0  0  0  0  0  0  0  0  0  0  0
  143.0460   80.3570  223.2680 C   0  0  0  0  0  0  0  0  0  0  0  0
  142.5650   79.0830  223.0090 C   0  0  0  0  0  0  0  0  0  0  0  0
  141.2070   78.8730  222.9480 C   0  0  0  0  0  0  0  0  0  0  0  0
  140.7340   77.6390  222.6970 N   0  0  0  0  0  0  0  0  0  0  0  0
  140.8450   75.2510  221.9400 H   0  0  0  0  0  0  0  0  0  0  0  0
  138.2460   73.6963  221.7892 H   0  0  0  0  0  0  0  0  0  0  0  0
  139.7684   73.4030  220.7389 H   0  0  0  0  0  0  0  0  0  0  0  0
  137.6173   71.2438  224.7404 H   0  0  0  0  0  0  0  0  0  0  0  0
  136.9899   72.1151  223.3866 H   0  0  0  0  0  0  0  0  0  0  0  0
  136.4985   69.5103  223.2805 H   0  0  0  0  0  0  0  0  0  0  0  0
  137.3494   69.9973  221.8648 H   0  0  0  0  0  0  0  0  0  0  0  0
  138.4415   68.7345  224.4691 H   0  0  0  0  0  0  0  0  0  0  0  0
  138.9873   68.3837  222.8391 H   0  0  0  0  0  0  0  0  0  0  0  0
  140.6056   70.0640  223.0499 H   0  0  0  0  0  0  0  0  0  0  0  0
  140.7424   72.3964  224.9898 H   0  0  0  0  0  0  0  0  0  0  0  0
  141.4392   72.5471  227.3344 H   0  0  0  0  0  0  0  0  0  0  0  0
  141.2326   70.5894  228.8535 H   0  0  0  0  0  0  0  0  0  0  0  0
  140.1350   67.3640  227.6910 H   0  0  0  0  0  0  0  0  0  0  0  0
  139.5906   68.3246  225.5720 H   0  0  0  0  0  0  0  0  0  0  0  0
  137.3709   78.1318  222.7473 H   0  0  0  0  0  0  0  0  0  0  0  0
  138.2192   80.4604  223.2203 H   0  0  0  0  0  0  0  0  0  0  0  0
  140.0561   81.9857  223.5471 H   0  0  0  0  0  0  0  0  0  0  0  0
  142.4882   82.4070  223.6674 H   0  0  0  0  0  0  0  0  0  0  0  0
  144.1275   80.5505  223.3212 H   0  0  0  0  0  0  0  0  0  0  0  0
  143.2632   78.2473  222.8536 H   0  0  0  0  0  0  0  0  0  0  0  0
  1  2  2  0
  2  3  1  0
  3  4  1  0
  4  5  1  0
  5  6  2  0
  5  7  1  0
  7  8  1  0
  8  9  1  0
  9 10  1  0
 10 11  1  0
 11 12  1  0
 12 13  2  0
 13 14  1  0
 14 15  2  0
 15 16  1  0
 16 17  1  0
 16 18  2  0
  2 19  1  0
 19 20  2  0
 20 21  1  0
 21 22  2  0
 22 23  1  0
 23 24  2  0
 24 25  1  0
 25 26  2  0
 26 27  1  0
 27 28  2  0
 11  7  1  0
 18 12  1  0
 28 19  1  0
 27 22  1  0
  3 29  1  0
  4 30  1  0
  4 31  1  0
  8 32  1  0
  8 33  1  0
  9 34  1  0
  9 35  1  0
 10 36  1  0
 10 37  1  0
 11 38  1  6
 13 39  1  0
 14 40  1  0
 15 41  1  0
 17 42  1  0
 18 43  1  0
 20 44  1  0
 21 45  1  0
 23 46  1  0
 24 47  1  0
 25 48  1  0
 26 49  1  0
M  END
>  <smiles>  (49) 
O=C(NCC(=O)N1CCCC1c1cccc(O)c1)c1ccc2ccccc2n1

>  <score_type>  (49) 
oracle

>  <origin>  (49) 
autodockgpu

>  <m_score__min__energy>  (49) 
-9.1899999999999995

>  <m_primary>  (49) 
energy

>  <rmsd>  (49) 
9.063164571194328

>  <m_score__min__rmsd>  (49) 
9.063164571194328

>  <meeko>  (49) 
{"free_energy": -8.51, "intermolecular_energy": -10.3, "internal_energy": -1.45, "cluster_size": 16, "cluster_id": 1, "rank_in_cluster": 14}

>  <energy>  (49) 
-7.06

>  <cluster_rmsd>  (49) 
0.0

>  <cluster>  (49) 
6

$$$$

     RDKit          3D

 49 52  0  0  0  0  0  0  0  0999 V2000
  141.4120   72.3660  221.7970 O   0  0  0  0  0  0  0  0  0  0  0  0
  140.4260   72.4290  222.5730 C   0  0  0  0  0  0  0  0  0  0  0  0
  139.4670   73.4660  222.2560 N   0  0  0  0  0  0  0  0  0  0  0  0
  139.6690   74.3260  221.1390 C   0  0  0  0  0  0  0  0  0  0  0  0
  140.7130   75.3470  221.2050 C   0  0  0  0  0  0  0  0  0  0  0  0
  140.7360   75.9750  222.3450 O   0  0  0  0  0  0  0  0  0  0  0  0
  141.6670   75.7510  220.2800 N   0  0  0  0  0  0  0  0  0  0  0  0
  143.0870   75.6080  220.0880 C   0  0  0  0  0  0  0  0  0  0  0  0
  143.0930   75.0230  218.6670 C   0  0  0  0  0  0  0  0  0  0  0  0
  142.2220   76.0880  217.9790 C   0  0  0  0  0  0  0  0  0  0  0  0
  141.2940   76.5340  219.0620 C   0  0  2  0  0  0  0  0  0  0  0  0
  141.5070   77.9950  219.3020 C   0  0  0  0  0  0  0  0  0  0  0  0
  140.8630   78.6610  220.3420 C   0  0  0  0  0  0  0  0  0  0  0  0
  141.0280   80.0120  220.5680 C   0  0  0  0  0  0  0  0  0  0  0  0
  141.8470   80.7730  219.7640 C   0  0  0  0  0  0  0  0  0  0  0  0
  142.4960   80.1390  218.7280 C   0  0  0  0  0  0  0  0  0  0  0  0
  143.3200   80.9120  217.9210 O   0  0  0  0  0  0  0  0  0  0  0  0
  142.3230   78.7680  218.5050 C   0  0  0  0  0  0  0  0  0  0  0  0
  140.2380   71.5400  223.7130 C   0  0  0  0  0  0  0  0  0  0  0  0
  139.5760   70.3520  223.4680 C   0  0  0  0  0  0  0  0  0  0  0  0
  139.4070   69.5170  224.5730 C   0  0  0  0  0  0  0  0  0  0  0  0
  139.8810   69.8800  225.8220 C   0  0  0  0  0  0  0  0  0  0  0  0
  139.7110   69.0500  226.9130 C   0  0  0  0  0  0  0  0  0  0  0  0
  140.1900   69.4270  228.1530 C   0  0  0  0  0  0  0  0  0  0  0  0
  140.8530   70.6450  228.3330 C   0  0  0  0  0  0  0  0  0  0  0  0
  141.0210   71.4740  227.2360 C   0  0  0  0  0  0  0  0  0  0  0  0
  140.5360   71.0790  226.0100 C   0  0  0  0  0  0  0  0  0  0  0  0
  140.6950   71.8790  224.9410 N   0  0  0  0  0  0  0  0  0  0  0  0
  138.6450   73.5080  222.9140 H   0  0  0  0  0  0  0  0  0  0  0  0
  139.9016   73.6837  220.2768 H   0  0  0  0  0  0  0  0  0  0  0  0
  138.7370   74.9078  221.0847 H   0  0  0  0  0  0  0  0  0  0  0  0
  143.6071   76.5761  220.1354 H   0  0  0  0  0  0  0  0  0  0  0  0
  143.6033   75.0011  220.8464 H   0  0  0  0  0  0  0  0  0  0  0  0
  144.1064   74.9781  218.2415 H   0  0  0  0  0  0  0  0  0  0  0  0
  142.7400   73.9852  218.5759 H   0  0  0  0  0  0  0  0  0  0  0  0
  142.8370   76.9258  217.6187 H   0  0  0  0  0  0  0  0  0  0  0  0
  141.6937   75.7027  217.0944 H   0  0  0  0  0  0  0  0  0  0  0  0
  140.2377   76.3728  218.8010 H   0  0  0  0  0  0  0  0  0  0  0  0
  140.1990   78.0893  221.0070 H   0  0  0  0  0  0  0  0  0  0  0  0
  140.4964   80.4893  221.4044 H   0  0  0  0  0  0  0  0  0  0  0  0
  141.9783   81.8503  219.9432 H   0  0  0  0  0  0  0  0  0  0  0  0
  143.6830   80.4340  217.0870 H   0  0  0  0  0  0  0  0  0  0  0  0
  142.8550   78.2930  217.6675 H   0  0  0  0  0  0  0  0  0  0  0  0
  139.2066   70.0824  222.4676 H   0  0  0  0  0  0  0  0  0  0  0  0
  138.8887   68.5546  224.4497 H   0  0  0  0  0  0  0  0  0  0  0  0
  139.1931   68.0868  226.7944 H   0  0  0  0  0  0  0  0  0  0  0  0
  140.0473   68.7572  229.0138 H   0  0  0  0  0  0  0  0  0  0  0  0
  141.2324   70.9381  229.3230 H   0  0  0  0  0  0  0  0  0  0  0  0
  141.5374   72.4393  227.3437 H   0  0  0  0  0  0  0  0  0  0  0  0
  1  2  2  0
  2  3  1  0
  3  4  1  0
  4  5  1  0
  5  6  2  0
  5  7  1  0
  7  8  1  0
  8  9  1  0
  9 10  1  0
 10 11  1  0
 11 12  1  0
 12 13  2  0
 13 14  1  0
 14 15  2  0
 15 16  1  0
 16 17  1  0
 16 18  2  0
  2 19  1  0
 19 20  2  0
 20 21  1  0
 21 22  2  0
 22 23  1  0
 23 24  2  0
 24 25  1  0
 25 26  2  0
 26 27  1  0
 27 28  2  0
 11  7  1  0
 18 12  1  0
 28 19  1  0
 27 22  1  0
  3 29  1  0
  4 30  1  0
  4 31  1  0
  8 32  1  0
  8 33  1  0
  9 34  1  0
  9 35  1  0
 10 36  1  0
 10 37  1  0
 11 38  1  6
 13 39  1  0
 14 40  1  0
 15 41  1  0
 17 42  1  0
 18 43  1  0
 20 44  1  0
 21 45  1  0
 23 46  1  0
 24 47  1  0
 25 48  1  0
 26 49  1  0
M  END
>  <smiles>  (50) 
O=C(NCC(=O)N1CCCC1c1cccc(O)c1)c1ccc2ccccc2n1

>  <score_type>  (50) 
oracle

>  <origin>  (50) 
autodockgpu

>  <m_score__min__energy>  (50) 
-9.1899999999999995

>  <m_primary>  (50) 
energy

>  <rmsd>  (50) 
2.6823863644557857

>  <m_score__min__rmsd>  (50) 
2.6823863644557857

>  <meeko>  (50) 
{"free_energy": -8.26, "intermolecular_energy": -10.05, "internal_energy": -1.22, "cluster_size": 11, "cluster_id": 3, "rank_in_cluster": 8}

>  <energy>  (50) 
-6.59

>  <cluster_rmsd>  (50) 
0.0

>  <cluster>  (50) 
7

$$$$

     RDKit          3D

 49 52  0  0  0  0  0  0  0  0999 V2000
  140.8300   71.7130  221.3780 O   0  0  0  0  0  0  0  0  0  0  0  0
  140.2570   72.1610  222.4210 C   0  0  0  0  0  0  0  0  0  0  0  0
  139.6830   73.4620  222.2930 N   0  0  0  0  0  0  0  0  0  0  0  0
  139.8090   74.1180  221.0210 C   0  0  0  0  0  0  0  0  0  0  0  0
  140.4020   75.4760  221.1290 C   0  0  0  0  0  0  0  0  0  0  0  0
  139.9990   76.2400  222.0340 O   0  0  0  0  0  0  0  0  0  0  0  0
  141.4040   75.8190  220.1810 N   0  0  0  0  0  0  0  0  0  0  0  0
  142.2540   76.9950  220.1150 C   0  0  0  0  0  0  0  0  0  0  0  0
  142.4390   77.3030  218.6230 C   0  0  0  0  0  0  0  0  0  0  0  0
  141.9150   76.0740  217.9080 C   0  0  0  0  0  0  0  0  0  0  0  0
  141.8240   75.0290  218.9960 C   0  0  1  0  0  0  0  0  0  0  0  0
  143.0590   74.2990  219.2700 C   0  0  0  0  0  0  0  0  0  0  0  0
  143.1760   73.6960  220.5290 C   0  0  0  0  0  0  0  0  0  0  0  0
  144.2980   72.9820  220.8920 C   0  0  0  0  0  0  0  0  0  0  0  0
  145.3660   72.8230  220.0350 C   0  0  0  0  0  0  0  0  0  0  0  0
  145.2650   73.4100  218.7930 C   0  0  0  0  0  0  0  0  0  0  0  0
  146.3280   73.2650  217.9090 O   0  0  0  0  0  0  0  0  0  0  0  0
  144.1250   74.1360  218.4260 C   0  0  0  0  0  0  0  0  0  0  0  0
  140.1900   71.4030  223.6640 C   0  0  0  0  0  0  0  0  0  0  0  0
  139.6140   70.1500  223.6120 C   0  0  0  0  0  0  0  0  0  0  0  0
  139.5250   69.3910  224.7570 C   0  0  0  0  0  0  0  0  0  0  0  0
  140.0170   69.9060  225.9360 C   0  0  0  0  0  0  0  0  0  0  0  0
  139.9170   69.1320  227.0660 C   0  0  0  0  0  0  0  0  0  0  0  0
  140.4170   69.6670  228.2390 C   0  0  0  0  0  0  0  0  0  0  0  0
  140.9920   70.9190  228.2860 C   0  0  0  0  0  0  0  0  0  0  0  0
  141.0930   71.7040  227.1410 C   0  0  0  0  0  0  0  0  0  0  0  0
  140.5910   71.1590  225.9790 C   0  0  0  0  0  0  0  0  0  0  0  0
  140.6520   71.8530  224.8370 N   0  0  0  0  0  0  0  0  0  0  0  0
  139.1870   73.9070  223.1120 H   0  0  0  0  0  0  0  0  0  0  0  0
  140.4512   73.5049  220.3716 H   0  0  0  0  0  0  0  0  0  0  0  0
  138.7969   74.2310  220.6053 H   0  0  0  0  0  0  0  0  0  0  0  0
  141.7722   77.8433  220.6231 H   0  0  0  0  0  0  0  0  0  0  0  0
  143.2197   76.8214  220.6123 H   0  0  0  0  0  0  0  0  0  0  0  0
  141.8613   78.1942  218.3365 H   0  0  0  0  0  0  0  0  0  0  0  0
  143.4879   77.5163  218.3693 H   0  0  0  0  0  0  0  0  0  0  0  0
  140.9252   76.2690  217.4695 H   0  0  0  0  0  0  0  0  0  0  0  0
  142.5608   75.7618  217.0741 H   0  0  0  0  0  0  0  0  0  0  0  0
  141.1327   74.2258  218.7011 H   0  0  0  0  0  0  0  0  0  0  0  0
  142.3495   73.7950  221.2481 H   0  0  0  0  0  0  0  0  0  0  0  0
  144.3423   72.5269  221.8925 H   0  0  0  0  0  0  0  0  0  0  0  0
  146.2592   72.2527  220.3299 H   0  0  0  0  0  0  0  0  0  0  0  0
  146.7820   74.0760  217.4900 H   0  0  0  0  0  0  0  0  0  0  0  0
  144.0845   74.5910  217.4253 H   0  0  0  0  0  0  0  0  0  0  0  0
  139.2274   69.7592  222.6592 H   0  0  0  0  0  0  0  0  0  0  0  0
  139.0688   68.3904  224.7309 H   0  0  0  0  0  0  0  0  0  0  0  0
  139.4599   68.1318  227.0392 H   0  0  0  0  0  0  0  0  0  0  0  0
  140.3539   69.0748  229.1638 H   0  0  0  0  0  0  0  0  0  0  0  0
  141.3766   71.3033  229.2423 H   0  0  0  0  0  0  0  0  0  0  0  0
  141.5487   72.7049  227.1625 H   0  0  0  0  0  0  0  0  0  0  0  0
  1  2  2  0
  2  3  1  0
  3  4  1  0
  4  5  1  0
  5  6  2  0
  5  7  1  0
  7  8  1  0
  8  9  1  0
  9 10  1  0
 10 11  1  0
 11 12  1  0
 12 13  2  0
 13 14  1  0
 14 15  2  0
 15 16  1  0
 16 17  1  0
 16 18  2  0
  2 19  1  0
 19 20  2  0
 20 21  1  0
 21 22  2  0
 22 23  1  0
 23 24  2  0
 24 25  1  0
 25 26  2  0
 26 27  1  0
 27 28  2  0
 11  7  1  0
 18 12  1  0
 28 19  1  0
 27 22  1  0
  3 29  1  0
  4 30  1  0
  4 31  1  0
  8 32  1  0
  8 33  1  0
  9 34  1  0
  9 35  1  0
 10 36  1  0
 10 37  1  0
 11 38  1  6
 13 39  1  0
 14 40  1  0
 15 41  1  0
 17 42  1  0
 18 43  1  0
 20 44  1  0
 21 45  1  0
 23 46  1  0
 24 47  1  0
 25 48  1  0
 26 49  1  0
M  END
>  <smiles>  (51) 
O=C(NCC(=O)N1CCCC1c1cccc(O)c1)c1ccc2ccccc2n1

>  <score_type>  (51) 
oracle

>  <origin>  (51) 
autodockgpu

>  <m_score__min__energy>  (51) 
-9

>  <m_primary>  (51) 
energy

>  <rmsd>  (51) 
2.7119686963888463

>  <m_score__min__rmsd>  (51) 
2.7119686963888463

>  <meeko>  (51) 
{"free_energy": -8.77, "intermolecular_energy": -10.56, "internal_energy": -1.57, "cluster_size": 16, "cluster_id": 2, "rank_in_cluster": 4}

>  <energy>  (51) 
-9.0

>  <cluster_rmsd>  (51) 
0.0

>  <cluster>  (51) 
1

$$$$

     RDKit          3D

 49 52  0  0  0  0  0  0  0  0999 V2000
  141.4650   72.4810  221.7130 O   0  0  0  0  0  0  0  0  0  0  0  0
  140.4830   72.5300  222.5200 C   0  0  0  0  0  0  0  0  0  0  0  0
  139.6070   73.6450  222.3500 N   0  0  0  0  0  0  0  0  0  0  0  0
  139.9190   74.5770  221.3020 C   0  0  0  0  0  0  0  0  0  0  0  0
  139.6190   75.9840  221.6740 C   0  0  0  0  0  0  0  0  0  0  0  0
  138.8850   76.2030  222.6640 O   0  0  0  0  0  0  0  0  0  0  0  0
  140.1970   77.0010  220.8680 N   0  0  0  0  0  0  0  0  0  0  0  0
  139.5930   77.8120  219.8240 C   0  0  0  0  0  0  0  0  0  0  0  0
  140.6890   78.0310  218.7710 C   0  0  0  0  0  0  0  0  0  0  0  0
  141.9670   77.5720  219.4420 C   0  0  0  0  0  0  0  0  0  0  0  0
  141.6000   77.4850  220.9060 C   0  0  1  0  0  0  0  0  0  0  0  0
  141.6990   78.7350  221.6530 C   0  0  0  0  0  0  0  0  0  0  0  0
  141.8020   78.6380  223.0470 C   0  0  0  0  0  0  0  0  0  0  0  0
  141.9020   79.7540  223.8500 C   0  0  0  0  0  0  0  0  0  0  0  0
  141.9050   81.0290  223.3230 C   0  0  0  0  0  0  0  0  0  0  0  0
  141.8040   81.1410  221.9540 C   0  0  0  0  0  0  0  0  0  0  0  0
  141.8060   82.4140  221.3970 O   0  0  0  0  0  0  0  0  0  0  0  0
  141.7030   80.0050  221.1400 C   0  0  0  0  0  0  0  0  0  0  0  0
  140.2660   71.5230  223.5490 C   0  0  0  0  0  0  0  0  0  0  0  0
  139.5660   70.3890  223.1900 C   0  0  0  0  0  0  0  0  0  0  0  0
  139.3320   69.4050  224.1230 C   0  0  0  0  0  0  0  0  0  0  0  0
  139.8070   69.5790  225.4050 C   0  0  0  0  0  0  0  0  0  0  0  0
  139.5620   68.5850  226.3200 C   0  0  0  0  0  0  0  0  0  0  0  0
  140.0460   68.7780  227.6010 C   0  0  0  0  0  0  0  0  0  0  0  0
  140.7460   69.9110  227.9560 C   0  0  0  0  0  0  0  0  0  0  0  0
  140.9940   70.9190  227.0290 C   0  0  0  0  0  0  0  0  0  0  0  0
  140.5060   70.7140  225.7560 C   0  0  0  0  0  0  0  0  0  0  0  0
  140.7050   71.6380  224.8090 N   0  0  0  0  0  0  0  0  0  0  0  0
  138.7670   73.7600  222.9780 H   0  0  0  0  0  0  0  0  0  0  0  0
  140.9907   74.4964  221.0677 H   0  0  0  0  0  0  0  0  0  0  0  0
  139.2913   74.3227  220.4352 H   0  0  0  0  0  0  0  0  0  0  0  0
  138.7354   77.2859  219.3794 H   0  0  0  0  0  0  0  0  0  0  0  0
  139.2193   78.7672  220.2213 H   0  0  0  0  0  0  0  0  0  0  0  0
  140.4870   77.4317  217.8710 H   0  0  0  0  0  0  0  0  0  0  0  0
  140.7457   79.0792  218.4424 H   0  0  0  0  0  0  0  0  0  0  0  0
  142.2793   76.5896  219.0581 H   0  0  0  0  0  0  0  0  0  0  0  0
  142.8108   78.2528  219.2566 H   0  0  0  0  0  0  0  0  0  0  0  0
  142.3047   76.8319  221.4416 H   0  0  0  0  0  0  0  0  0  0  0  0
  141.8031   77.6422  223.5143 H   0  0  0  0  0  0  0  0  0  0  0  0
  141.9815   79.6246  224.9395 H   0  0  0  0  0  0  0  0  0  0  0  0
  141.9845   81.9168  223.9676 H   0  0  0  0  0  0  0  0  0  0  0  0
  140.9350   82.9140  221.2170 H   0  0  0  0  0  0  0  0  0  0  0  0
  141.6242   80.1377  220.0509 H   0  0  0  0  0  0  0  0  0  0  0  0
  139.1961   70.2721  222.1607 H   0  0  0  0  0  0  0  0  0  0  0  0
  138.7759   68.4959  223.8505 H   0  0  0  0  0  0  0  0  0  0  0  0
  139.0058   67.6762  226.0465 H   0  0  0  0  0  0  0  0  0  0  0  0
  139.8667   68.0028  228.3606 H   0  0  0  0  0  0  0  0  0  0  0  0
  141.1140   70.0201  228.9869 H   0  0  0  0  0  0  0  0  0  0  0  0
  141.5493   71.8298  227.2975 H   0  0  0  0  0  0  0  0  0  0  0  0
  1  2  2  0
  2  3  1  0
  3  4  1  0
  4  5  1  0
  5  6  2  0
  5  7  1  0
  7  8  1  0
  8  9  1  0
  9 10  1  0
 10 11  1  0
 11 12  1  0
 12 13  2  0
 13 14  1  0
 14 15  2  0
 15 16  1  0
 16 17  1  0
 16 18  2  0
  2 19  1  0
 19 20  2  0
 20 21  1  0
 21 22  2  0
 22 23  1  0
 23 24  2  0
 24 25  1  0
 25 26  2  0
 26 27  1  0
 27 28  2  0
 11  7  1  0
 18 12  1  0
 28 19  1  0
 27 22  1  0
  3 29  1  0
  4 30  1  0
  4 31  1  0
  8 32  1  0
  8 33  1  0
  9 34  1  0
  9 35  1  0
 10 36  1  0
 10 37  1  0
 11 38  1  1
 13 39  1  0
 14 40  1  0
 15 41  1  0
 17 42  1  0
 18 43  1  0
 20 44  1  0
 21 45  1  0
 23 46  1  0
 24 47  1  0
 25 48  1  0
 26 49  1  0
M  END
>  <smiles>  (52) 
O=C(NCC(=O)N1CCCC1c1cccc(O)c1)c1ccc2ccccc2n1

>  <score_type>  (52) 
oracle

>  <origin>  (52) 
autodockgpu

>  <m_score__min__energy>  (52) 
-9

>  <m_primary>  (52) 
energy

>  <rmsd>  (52) 
3.328675230782538

>  <m_score__min__rmsd>  (52) 
3.328675230782538

>  <meeko>  (52) 
{"free_energy": -8.31, "intermolecular_energy": -10.1, "internal_energy": -1.34, "cluster_size": 9, "cluster_id": 3, "rank_in_cluster": 4}

>  <energy>  (52) 
-8.98

>  <cluster_rmsd>  (52) 
0.4

>  <cluster>  (52) 
1

$$$$

     RDKit          3D

 49 52  0  0  0  0  0  0  0  0999 V2000
  140.2260   75.6290  220.3890 O   0  0  0  0  0  0  0  0  0  0  0  0
  139.9330   75.9110  221.5940 C   0  0  0  0  0  0  0  0  0  0  0  0
  139.3380   74.8500  222.3430 N   0  0  0  0  0  0  0  0  0  0  0  0
  139.1360   73.5970  221.6690 C   0  0  0  0  0  0  0  0  0  0  0  0
  139.8410   72.4680  222.3290 C   0  0  0  0  0  0  0  0  0  0  0  0
  141.0820   72.5370  222.4810 O   0  0  0  0  0  0  0  0  0  0  0  0
  139.0450   71.3680  222.7480 N   0  0  0  0  0  0  0  0  0  0  0  0
  138.7090   70.1440  222.0400 C   0  0  0  0  0  0  0  0  0  0  0  0
  137.2760   69.7920  222.4620 C   0  0  0  0  0  0  0  0  0  0  0  0
  136.9870   70.6950  223.6430 C   0  0  0  0  0  0  0  0  0  0  0  0
  138.3480   71.2110  224.0490 C   0  0  1  0  0  0  0  0  0  0  0  0
  139.1070   70.3430  224.9440 C   0  0  0  0  0  0  0  0  0  0  0  0
  140.2780   70.8720  225.5030 C   0  0  0  0  0  0  0  0  0  0  0  0
  141.0700   70.1400  226.3620 C   0  0  0  0  0  0  0  0  0  0  0  0
  140.7520   68.8460  226.7180 C   0  0  0  0  0  0  0  0  0  0  0  0
  139.6030   68.3130  226.1770 C   0  0  0  0  0  0  0  0  0  0  0  0
  139.2590   67.0110  226.5200 O   0  0  0  0  0  0  0  0  0  0  0  0
  138.7990   69.0580  225.3040 C   0  0  0  0  0  0  0  0  0  0  0  0
  140.1840   77.2230  222.1740 C   0  0  0  0  0  0  0  0  0  0  0  0
  139.0910   77.9480  222.6010 C   0  0  0  0  0  0  0  0  0  0  0  0
  139.2710   79.1950  223.1570 C   0  0  0  0  0  0  0  0  0  0  0  0
  140.5510   79.6920  223.2730 C   0  0  0  0  0  0  0  0  0  0  0  0
  140.7080   80.9360  223.8300 C   0  0  0  0  0  0  0  0  0  0  0  0
  142.0000   81.4180  223.9380 C   0  0  0  0  0  0  0  0  0  0  0  0
  143.0900   80.6890  223.5110 C   0  0  0  0  0  0  0  0  0  0  0  0
  142.9320   79.4270  222.9460 C   0  0  0  0  0  0  0  0  0  0  0  0
  141.6390   78.9610  222.8440 C   0  0  0  0  0  0  0  0  0  0  0  0
  141.4050   77.7550  222.3120 N   0  0  0  0  0  0  0  0  0  0  0  0
  139.0650   75.0010  223.3510 H   0  0  0  0  0  0  0  0  0  0  0  0
  138.0584   73.3767  221.6521 H   0  0  0  0  0  0  0  0  0  0  0  0
  139.5481   73.6967  220.6540 H   0  0  0  0  0  0  0  0  0  0  0  0
  138.7588   70.3051  220.9530 H   0  0  0  0  0  0  0  0  0  0  0  0
  139.4113   69.3326  222.2816 H   0  0  0  0  0  0  0  0  0  0  0  0
  136.5708   69.9899  221.6413 H   0  0  0  0  0  0  0  0  0  0  0  0
  137.1683   68.7275  222.7174 H   0  0  0  0  0  0  0  0  0  0  0  0
  136.3261   71.5238  223.3492 H   0  0  0  0  0  0  0  0  0  0  0  0
  136.4712   70.1708  224.4610 H   0  0  0  0  0  0  0  0  0  0  0  0
  138.2492   72.1335  224.6400 H   0  0  0  0  0  0  0  0  0  0  0  0
  140.5738   71.9006  225.2493 H   0  0  0  0  0  0  0  0  0  0  0  0
  141.9799   70.6004  226.7745 H   0  0  0  0  0  0  0  0  0  0  0  0
  141.3875   68.2658  227.4032 H   0  0  0  0  0  0  0  0  0  0  0  0
  139.8090   66.4790  227.1950 H   0  0  0  0  0  0  0  0  0  0  0  0
  137.8894   68.5949  224.8938 H   0  0  0  0  0  0  0  0  0  0  0  0
  138.0783   77.5312  222.4977 H   0  0  0  0  0  0  0  0  0  0  0  0
  138.4084   79.7838  223.5023 H   0  0  0  0  0  0  0  0  0  0  0  0
  139.8448   81.5239  224.1753 H   0  0  0  0  0  0  0  0  0  0  0  0
  142.1630   82.4130  224.3778 H   0  0  0  0  0  0  0  0  0  0  0  0
  144.0999   81.1115  223.6187 H   0  0  0  0  0  0  0  0  0  0  0  0
  143.7916   78.8342  222.6000 H   0  0  0  0  0  0  0  0  0  0  0  0
  1  2  2  0
  2  3  1  0
  3  4  1  0
  4  5  1  0
  5  6  2  0
  5  7  1  0
  7  8  1  0
  8  9  1  0
  9 10  1  0
 10 11  1  0
 11 12  1  0
 12 13  2  0
 13 14  1  0
 14 15  2  0
 15 16  1  0
 16 17  1  0
 16 18  2  0
  2 19  1  0
 19 20  2  0
 20 21  1  0
 21 22  2  0
 22 23  1  0
 23 24  2  0
 24 25  1  0
 25 26  2  0
 26 27  1  0
 27 28  2  0
 11  7  1  0
 18 12  1  0
 28 19  1  0
 27 22  1  0
  3 29  1  0
  4 30  1  0
  4 31  1  0
  8 32  1  0
  8 33  1  0
  9 34  1  0
  9 35  1  0
 10 36  1  0
 10 37  1  0
 11 38  1  1
 13 39  1  0
 14 40  1  0
 15 41  1  0
 17 42  1  0
 18 43  1  0
 20 44  1  0
 21 45  1  0
 23 46  1  0
 24 47  1  0
 25 48  1  0
 26 49  1  0
M  END
>  <smiles>  (53) 
O=C(NCC(=O)N1CCCC1c1cccc(O)c1)c1ccc2ccccc2n1

>  <score_type>  (53) 
oracle

>  <origin>  (53) 
autodockgpu

>  <m_score__min__energy>  (53) 
-9

>  <m_primary>  (53) 
energy

>  <rmsd>  (53) 
8.869852511316568

>  <m_score__min__rmsd>  (53) 
8.869852511316568

>  <meeko>  (53) 
{"free_energy": -8.88, "intermolecular_energy": -10.67, "internal_energy": -1.08, "cluster_size": 14, "cluster_id": 1, "rank_in_cluster": 4}

>  <energy>  (53) 
-8.92

>  <cluster_rmsd>  (53) 
0.31

>  <cluster>  (53) 
1

$$$$

     RDKit          3D

 49 52  0  0  0  0  0  0  0  0999 V2000
  141.4400   72.5310  221.7330 O   0  0  0  0  0  0  0  0  0  0  0  0
  140.4780   72.6370  222.5570 C   0  0  0  0  0  0  0  0  0  0  0  0
  139.6150   73.7560  222.3490 N   0  0  0  0  0  0  0  0  0  0  0  0
  139.9180   74.6290  221.2490 C   0  0  0  0  0  0  0  0  0  0  0  0
  139.3530   75.9920  221.4220 C   0  0  0  0  0  0  0  0  0  0  0  0
  138.2700   76.1230  222.0350 O   0  0  0  0  0  0  0  0  0  0  0  0
  140.0940   77.0720  220.8690 N   0  0  0  0  0  0  0  0  0  0  0  0
  139.7400   77.9850  219.7960 C   0  0  0  0  0  0  0  0  0  0  0  0
  141.0460   78.2860  219.0480 C   0  0  0  0  0  0  0  0  0  0  0  0
  142.1400   77.7470  219.9480 C   0  0  0  0  0  0  0  0  0  0  0  0
  141.4470   77.5290  221.2730 C   0  0  1  0  0  0  0  0  0  0  0  0
  141.3630   78.7020  222.1380 C   0  0  0  0  0  0  0  0  0  0  0  0
  142.5530   79.3970  222.3870 C   0  0  0  0  0  0  0  0  0  0  0  0
  142.5880   80.5190  223.1880 C   0  0  0  0  0  0  0  0  0  0  0  0
  141.4510   81.0180  223.7880 C   0  0  0  0  0  0  0  0  0  0  0  0
  140.2720   80.3450  223.5520 C   0  0  0  0  0  0  0  0  0  0  0  0
  139.1110   80.8280  224.1440 O   0  0  0  0  0  0  0  0  0  0  0  0
  140.2390   79.2050  222.7380 C   0  0  0  0  0  0  0  0  0  0  0  0
  140.2670   71.6860  223.6410 C   0  0  0  0  0  0  0  0  0  0  0  0
  139.6100   70.5120  223.3370 C   0  0  0  0  0  0  0  0  0  0  0  0
  139.3840   69.5790  224.3230 C   0  0  0  0  0  0  0  0  0  0  0  0
  139.8250   69.8440  225.6010 C   0  0  0  0  0  0  0  0  0  0  0  0
  139.5890   68.9000  226.5700 C   0  0  0  0  0  0  0  0  0  0  0  0
  140.0390   69.1840  227.8470 C   0  0  0  0  0  0  0  0  0  0  0  0
  140.6950   70.3590  228.1460 C   0  0  0  0  0  0  0  0  0  0  0  0
  140.9340   71.3160  227.1650 C   0  0  0  0  0  0  0  0  0  0  0  0
  140.4810   71.0200  225.8980 C   0  0  0  0  0  0  0  0  0  0  0  0
  140.6740   71.8910  224.9000 N   0  0  0  0  0  0  0  0  0  0  0  0
  138.7910   73.9170  222.9890 H   0  0  0  0  0  0  0  0  0  0  0  0
  141.0110   74.7110  221.1564 H   0  0  0  0  0  0  0  0  0  0  0  0
  139.4630   74.1944  220.3467 H   0  0  0  0  0  0  0  0  0  0  0  0
  139.0115   77.5149  219.1190 H   0  0  0  0  0  0  0  0  0  0  0  0
  139.2778   78.9041  220.1853 H   0  0  0  0  0  0  0  0  0  0  0  0
  141.0604   77.7770  218.0729 H   0  0  0  0  0  0  0  0  0  0  0  0
  141.1688   79.3595  218.8419 H   0  0  0  0  0  0  0  0  0  0  0  0
  142.5391   76.8004  219.5548 H   0  0  0  0  0  0  0  0  0  0  0  0
  142.9992   78.4293  220.0262 H   0  0  0  0  0  0  0  0  0  0  0  0
  142.0144   76.8180  221.8915 H   0  0  0  0  0  0  0  0  0  0  0  0
  143.4869   79.0375  221.9304 H   0  0  0  0  0  0  0  0  0  0  0  0
  143.5483   81.0295  223.3527 H   0  0  0  0  0  0  0  0  0  0  0  0
  141.4838   81.9132  224.4264 H   0  0  0  0  0  0  0  0  0  0  0  0
  138.1960   80.6670  223.7220 H   0  0  0  0  0  0  0  0  0  0  0  0
  139.2773   78.6964  222.5752 H   0  0  0  0  0  0  0  0  0  0  0  0
  139.2676   70.3220  222.3091 H   0  0  0  0  0  0  0  0  0  0  0  0
  138.8607   68.6387  224.0949 H   0  0  0  0  0  0  0  0  0  0  0  0
  139.0655   67.9600  226.3411 H   0  0  0  0  0  0  0  0  0  0  0  0
  139.8682   68.4499  228.6482 H   0  0  0  0  0  0  0  0  0  0  0  0
  141.0347   70.5427  229.1760 H   0  0  0  0  0  0  0  0  0  0  0  0
  141.4563   72.2579  227.3888 H   0  0  0  0  0  0  0  0  0  0  0  0
  1  2  2  0
  2  3  1  0
  3  4  1  0
  4  5  1  0
  5  6  2  0
  5  7  1  0
  7  8  1  0
  8  9  1  0
  9 10  1  0
 10 11  1  0
 11 12  1  0
 12 13  2  0
 13 14  1  0
 14 15  2  0
 15 16  1  0
 16 17  1  0
 16 18  2  0
  2 19  1  0
 19 20  2  0
 20 21  1  0
 21 22  2  0
 22 23  1  0
 23 24  2  0
 24 25  1  0
 25 26  2  0
 26 27  1  0
 27 28  2  0
 11  7  1  0
 18 12  1  0
 28 19  1  0
 27 22  1  0
  3 29  1  0
  4 30  1  0
  4 31  1  0
  8 32  1  0
  8 33  1  0
  9 34  1  0
  9 35  1  0
 10 36  1  0
 10 37  1  0
 11 38  1  1
 13 39  1  0
 14 40  1  0
 15 41  1  0
 17 42  1  0
 18 43  1  0
 20 44  1  0
 21 45  1  0
 23 46  1  0
 24 47  1  0
 25 48  1  0
 26 49  1  0
M  END
>  <smiles>  (54) 
O=C(NCC(=O)N1CCCC1c1cccc(O)c1)c1ccc2ccccc2n1

>  <score_type>  (54) 
oracle

>  <origin>  (54) 
autodockgpu

>  <m_score__min__energy>  (54) 
-9

>  <m_primary>  (54) 
energy

>  <rmsd>  (54) 
3.645882322706519

>  <m_score__min__rmsd>  (54) 
3.645882322706519

>  <meeko>  (54) 
{"free_energy": -8.33, "intermolecular_energy": -10.12, "internal_energy": -1.34, "cluster_size": 9, "cluster_id": 3, "rank_in_cluster": 3}

>  <energy>  (54) 
-8.88

>  <cluster_rmsd>  (54) 
0.3

>  <cluster>  (54) 
1

$$$$

     RDKit          3D

 49 52  0  0  0  0  0  0  0  0999 V2000
  138.0720   71.9710  222.7210 O   0  0  0  0  0  0  0  0  0  0  0  0
  139.2360   71.5770  223.0470 C   0  0  0  0  0  0  0  0  0  0  0  0
  140.3000   72.0750  222.2350 N   0  0  0  0  0  0  0  0  0  0  0  0
  139.9500   72.9530  221.1530 C   0  0  0  0  0  0  0  0  0  0  0  0
  140.3800   74.3560  221.3860 C   0  0  0  0  0  0  0  0  0  0  0  0
  139.9000   74.9800  222.3600 O   0  0  0  0  0  0  0  0  0  0  0  0
  141.3210   74.9030  220.4730 N   0  0  0  0  0  0  0  0  0  0  0  0
  141.9340   76.2200  220.4510 C   0  0  0  0  0  0  0  0  0  0  0  0
  142.0940   76.5880  218.9690 C   0  0  0  0  0  0  0  0  0  0  0  0
  141.8320   75.2970  218.2200 C   0  0  0  0  0  0  0  0  0  0  0  0
  141.9140   74.2310  219.2890 C   0  0  1  0  0  0  0  0  0  0  0  0
  143.2570   73.7440  219.5870 C   0  0  0  0  0  0  0  0  0  0  0  0
  143.4530   73.1360  220.8350 C   0  0  0  0  0  0  0  0  0  0  0  0
  144.6800   72.6390  221.2180 C   0  0  0  0  0  0  0  0  0  0  0  0
  145.7830   72.7140  220.3940 C   0  0  0  0  0  0  0  0  0  0  0  0
  145.6070   73.3080  219.1640 C   0  0  0  0  0  0  0  0  0  0  0  0
  146.7020   73.3950  218.3140 O   0  0  0  0  0  0  0  0  0  0  0  0
  144.3590   73.8120  218.7760 C   0  0  0  0  0  0  0  0  0  0  0  0
  139.4730   70.6810  224.1710 C   0  0  0  0  0  0  0  0  0  0  0  0
  138.9970   69.3910  224.0650 C   0  0  0  0  0  0  0  0  0  0  0  0
  139.1930   68.5020  225.0970 C   0  0  0  0  0  0  0  0  0  0  0  0
  139.8670   68.9270  226.2210 C   0  0  0  0  0  0  0  0  0  0  0  0
  140.0520   68.0250  227.2390 C   0  0  0  0  0  0  0  0  0  0  0  0
  140.7300   68.4700  228.3590 C   0  0  0  0  0  0  0  0  0  0  0  0
  141.2050   69.7610  228.4600 C   0  0  0  0  0  0  0  0  0  0  0  0
  141.0180   70.6760  227.4290 C   0  0  0  0  0  0  0  0  0  0  0  0
  140.3410   70.2180  226.3200 C   0  0  0  0  0  0  0  0  0  0  0  0
  140.1220   71.0400  225.2860 N   0  0  0  0  0  0  0  0  0  0  0  0
  141.2980   71.7980  222.4380 H   0  0  0  0  0  0  0  0  0  0  0  0
  140.4305   72.5865  220.2339 H   0  0  0  0  0  0  0  0  0  0  0  0
  138.8532   72.9531  221.0689 H   0  0  0  0  0  0  0  0  0  0  0  0
  141.2875   76.9510  220.9586 H   0  0  0  0  0  0  0  0  0  0  0  0
  142.9020   76.2225  220.9734 H   0  0  0  0  0  0  0  0  0  0  0  0
  141.3643   77.3587  218.6800 H   0  0  0  0  0  0  0  0  0  0  0  0
  143.0891   77.0017  218.7486 H   0  0  0  0  0  0  0  0  0  0  0  0
  140.8347   75.3096  217.7560 H   0  0  0  0  0  0  0  0  0  0  0  0
  142.5465   75.1305  217.4003 H   0  0  0  0  0  0  0  0  0  0  0  0
  141.3963   73.3171  218.9623 H   0  0  0  0  0  0  0  0  0  0  0  0
  142.6030   73.0533  221.5284 H   0  0  0  0  0  0  0  0  0  0  0  0
  144.7822   72.1699  222.2077 H   0  0  0  0  0  0  0  0  0  0  0  0
  146.7604   72.3169  220.7053 H   0  0  0  0  0  0  0  0  0  0  0  0
  146.9920   74.2870  217.9140 H   0  0  0  0  0  0  0  0  0  0  0  0
  144.2603   74.2790  217.7849 H   0  0  0  0  0  0  0  0  0  0  0  0
  138.4620   69.0735  223.1578 H   0  0  0  0  0  0  0  0  0  0  0  0
  138.8182   67.4703  225.0258 H   0  0  0  0  0  0  0  0  0  0  0  0
  139.6773   66.9933  227.1670 H   0  0  0  0  0  0  0  0  0  0  0  0
  140.8955   67.7737  229.1943 H   0  0  0  0  0  0  0  0  0  0  0  0
  141.7398   70.0718  229.3696 H   0  0  0  0  0  0  0  0  0  0  0  0
  141.3904   71.7089  227.4956 H   0  0  0  0  0  0  0  0  0  0  0  0
  1  2  2  0
  2  3  1  0
  3  4  1  0
  4  5  1  0
  5  6  2  0
  5  7  1  0
  7  8  1  0
  8  9  1  0
  9 10  1  0
 10 11  1  0
 11 12  1  0
 12 13  2  0
 13 14  1  0
 14 15  2  0
 15 16  1  0
 16 17  1  0
 16 18  2  0
  2 19  1  0
 19 20  2  0
 20 21  1  0
 21 22  2  0
 22 23  1  0
 23 24  2  0
 24 25  1  0
 25 26  2  0
 26 27  1  0
 27 28  2  0
 11  7  1  0
 18 12  1  0
 28 19  1  0
 27 22  1  0
  3 29  1  0
  4 30  1  0
  4 31  1  0
  8 32  1  0
  8 33  1  0
  9 34  1  0
  9 35  1  0
 10 36  1  0
 10 37  1  0
 11 38  1  6
 13 39  1  0
 14 40  1  0
 15 41  1  0
 17 42  1  0
 18 43  1  0
 20 44  1  0
 21 45  1  0
 23 46  1  0
 24 47  1  0
 25 48  1  0
 26 49  1  0
M  END
>  <smiles>  (55) 
O=C(NCC(=O)N1CCCC1c1cccc(O)c1)c1ccc2ccccc2n1

>  <score_type>  (55) 
oracle

>  <origin>  (55) 
autodockgpu

>  <m_score__min__energy>  (55) 
-9

>  <m_primary>  (55) 
energy

>  <rmsd>  (55) 
2.8515883259331876

>  <m_score__min__rmsd>  (55) 
2.8515883259331876

>  <meeko>  (55) 
{"free_energy": -8.44, "intermolecular_energy": -10.23, "internal_energy": -1.22, "cluster_size": 16, "cluster_id": 2, "rank_in_cluster": 11}

>  <energy>  (55) 
-8.72

>  <cluster_rmsd>  (55) 
0.58

>  <cluster>  (55) 
1

$$$$

     RDKit          3D

 49 52  0  0  0  0  0  0  0  0999 V2000
  141.1670   72.0740  221.6260 O   0  0  0  0  0  0  0  0  0  0  0  0
  140.3260   72.3130  222.5500 C   0  0  0  0  0  0  0  0  0  0  0  0
  139.4920   73.4530  222.3370 N   0  0  0  0  0  0  0  0  0  0  0  0
  139.6860   74.1970  221.1240 C   0  0  0  0  0  0  0  0  0  0  0  0
  140.4620   75.4470  221.3310 C   0  0  0  0  0  0  0  0  0  0  0  0
  140.2580   76.1190  222.3670 O   0  0  0  0  0  0  0  0  0  0  0  0
  141.3980   75.7990  220.3220 N   0  0  0  0  0  0  0  0  0  0  0  0
  142.1690   77.0200  220.1580 C   0  0  0  0  0  0  0  0  0  0  0  0
  142.2700   77.2570  218.6450 C   0  0  0  0  0  0  0  0  0  0  0  0
  141.7960   75.9610  218.0190 C   0  0  0  0  0  0  0  0  0  0  0  0
  141.8180   74.9730  219.1620 C   0  0  1  0  0  0  0  0  0  0  0  0
  143.1070   74.3370  219.4170 C   0  0  0  0  0  0  0  0  0  0  0  0
  143.3470   73.8810  220.7190 C   0  0  0  0  0  0  0  0  0  0  0  0
  144.5290   73.2640  221.0690 C   0  0  0  0  0  0  0  0  0  0  0  0
  145.5410   73.0630  220.1550 C   0  0  0  0  0  0  0  0  0  0  0  0
  145.3200   73.5060  218.8690 C   0  0  0  0  0  0  0  0  0  0  0  0
  146.3240   73.3150  217.9270 O   0  0  0  0  0  0  0  0  0  0  0  0
  144.1180   74.1330  218.5150 C   0  0  0  0  0  0  0  0  0  0  0  0
  140.2180   71.4850  223.7430 C   0  0  0  0  0  0  0  0  0  0  0  0
  139.6070   70.2560  223.6100 C   0  0  0  0  0  0  0  0  0  0  0  0
  139.4790   69.4330  224.7060 C   0  0  0  0  0  0  0  0  0  0  0  0
  139.9690   69.8620  225.9200 C   0  0  0  0  0  0  0  0  0  0  0  0
  139.8310   69.0260  227.0000 C   0  0  0  0  0  0  0  0  0  0  0  0
  140.3290   69.4750  228.2100 C   0  0  0  0  0  0  0  0  0  0  0  0
  140.9390   70.7050  228.3390 C   0  0  0  0  0  0  0  0  0  0  0  0
  141.0790   71.5530  227.2440 C   0  0  0  0  0  0  0  0  0  0  0  0
  140.5790   71.0920  226.0450 C   0  0  0  0  0  0  0  0  0  0  0  0
  140.6770   71.8510  224.9470 N   0  0  0  0  0  0  0  0  0  0  0  0
  138.7670   73.7210  223.0560 H   0  0  0  0  0  0  0  0  0  0  0  0
  140.2266   73.5630  220.4059 H   0  0  0  0  0  0  0  0  0  0  0  0
  138.6921   74.4833  220.7495 H   0  0  0  0  0  0  0  0  0  0  0  0
  141.6566   77.8636  220.6436 H   0  0  0  0  0  0  0  0  0  0  0  0
  143.1638   76.9332  220.6194 H   0  0  0  0  0  0  0  0  0  0  0  0
  141.6246   78.0938  218.3397 H   0  0  0  0  0  0  0  0  0  0  0  0
  143.2913   77.5204  218.3327 H   0  0  0  0  0  0  0  0  0  0  0  0
  140.7782   76.0706  217.6165 H   0  0  0  0  0  0  0  0  0  0  0  0
  142.4248   75.6444  217.1738 H   0  0  0  0  0  0  0  0  0  0  0  0
  141.1682   74.1135  218.9406 H   0  0  0  0  0  0  0  0  0  0  0  0
  142.5696   74.0191  221.4849 H   0  0  0  0  0  0  0  0  0  0  0  0
  144.6683   72.9229  222.1055 H   0  0  0  0  0  0  0  0  0  0  0  0
  146.4828   72.5710  220.4394 H   0  0  0  0  0  0  0  0  0  0  0  0
  146.7980   74.1060  217.4920 H   0  0  0  0  0  0  0  0  0  0  0  0
  143.9814   74.4730  217.4778 H   0  0  0  0  0  0  0  0  0  0  0  0
  139.2229   69.9341  222.6308 H   0  0  0  0  0  0  0  0  0  0  0  0
  138.9940   68.4500  224.6141 H   0  0  0  0  0  0  0  0  0  0  0  0
  139.3461   68.0430  226.9074 H   0  0  0  0  0  0  0  0  0  0  0  0
  140.2355   68.8309  229.0968 H   0  0  0  0  0  0  0  0  0  0  0  0
  141.3204   71.0206  229.3213 H   0  0  0  0  0  0  0  0  0  0  0  0
  141.5623   72.5373  227.3308 H   0  0  0  0  0  0  0  0  0  0  0  0
  1  2  2  0
  2  3  1  0
  3  4  1  0
  4  5  1  0
  5  6  2  0
  5  7  1  0
  7  8  1  0
  8  9  1  0
  9 10  1  0
 10 11  1  0
 11 12  1  0
 12 13  2  0
 13 14  1  0
 14 15  2  0
 15 16  1  0
 16 17  1  0
 16 18  2  0
  2 19  1  0
 19 20  2  0
 20 21  1  0
 21 22  2  0
 22 23  1  0
 23 24  2  0
 24 25  1  0
 25 26  2  0
 26 27  1  0
 27 28  2  0
 11  7  1  0
 18 12  1  0
 28 19  1  0
 27 22  1  0
  3 29  1  0
  4 30  1  0
  4 31  1  0
  8 32  1  0
  8 33  1  0
  9 34  1  0
  9 35  1  0
 10 36  1  0
 10 37  1  0
 11 38  1  6
 13 39  1  0
 14 40  1  0
 15 41  1  0
 17 42  1  0
 18 43  1  0
 20 44  1  0
 21 45  1  0
 23 46  1  0
 24 47  1  0
 25 48  1  0
 26 49  1  0
M  END
>  <smiles>  (56) 
O=C(NCC(=O)N1CCCC1c1cccc(O)c1)c1ccc2ccccc2n1

>  <score_type>  (56) 
oracle

>  <origin>  (56) 
autodockgpu

>  <m_score__min__energy>  (56) 
-9

>  <m_primary>  (56) 
energy

>  <rmsd>  (56) 
2.710400427974635

>  <m_score__min__rmsd>  (56) 
2.710400427974635

>  <meeko>  (56) 
{"free_energy": -8.94, "intermolecular_energy": -10.73, "internal_energy": -1.49, "cluster_size": 16, "cluster_id": 2, "rank_in_cluster": 1}

>  <energy>  (56) 
-8.5

>  <cluster_rmsd>  (56) 
1.14

>  <cluster>  (56) 
1

$$$$

     RDKit          3D

 49 52  0  0  0  0  0  0  0  0999 V2000
  141.0690   71.3700  221.8980 O   0  0  0  0  0  0  0  0  0  0  0  0
  140.4470   71.8390  222.9030 C   0  0  0  0  0  0  0  0  0  0  0  0
  139.7650   73.0740  222.6790 N   0  0  0  0  0  0  0  0  0  0  0  0
  139.8500   73.6470  221.3640 C   0  0  0  0  0  0  0  0  0  0  0  0
  140.2470   75.0780  221.3840 C   0  0  0  0  0  0  0  0  0  0  0  0
  139.6930   75.8470  222.2020 O   0  0  0  0  0  0  0  0  0  0  0  0
  141.2440   75.4830  220.4560 N   0  0  0  0  0  0  0  0  0  0  0  0
  142.0810   76.6710  220.4540 C   0  0  0  0  0  0  0  0  0  0  0  0
  142.2620   77.0590  218.9800 C   0  0  0  0  0  0  0  0  0  0  0  0
  141.7530   75.8640  218.2010 C   0  0  0  0  0  0  0  0  0  0  0  0
  141.6750   74.7620  219.2320 C   0  0  1  0  0  0  0  0  0  0  0  0
  142.9170   74.0330  219.4680 C   0  0  0  0  0  0  0  0  0  0  0  0
  142.9770   73.2280  220.6130 C   0  0  0  0  0  0  0  0  0  0  0  0
  144.1000   72.4960  220.9310 C   0  0  0  0  0  0  0  0  0  0  0  0
  145.2290   72.5170  220.1380 C   0  0  0  0  0  0  0  0  0  0  0  0
  145.1860   73.3040  219.0080 C   0  0  0  0  0  0  0  0  0  0  0  0
  146.3090   73.3420  218.1910 O   0  0  0  0  0  0  0  0  0  0  0  0
  144.0420   74.0480  218.6860 C   0  0  0  0  0  0  0  0  0  0  0  0
  140.4300   71.1670  224.1960 C   0  0  0  0  0  0  0  0  0  0  0  0
  140.9130   71.8680  225.2820 C   0  0  0  0  0  0  0  0  0  0  0  0
  140.9200   71.2810  226.5270 C   0  0  0  0  0  0  0  0  0  0  0  0
  140.4410   69.9960  226.6580 C   0  0  0  0  0  0  0  0  0  0  0  0
  140.4580   69.4290  227.9080 C   0  0  0  0  0  0  0  0  0  0  0  0
  139.9730   68.1390  228.0200 C   0  0  0  0  0  0  0  0  0  0  0  0
  139.4910   67.4420  226.9320 C   0  0  0  0  0  0  0  0  0  0  0  0
  139.4740   68.0160  225.6640 C   0  0  0  0  0  0  0  0  0  0  0  0
  139.9600   69.3020  225.5680 C   0  0  0  0  0  0  0  0  0  0  0  0
  139.9760   69.9220  224.3820 N   0  0  0  0  0  0  0  0  0  0  0  0
  139.2240   73.5300  223.4620 H   0  0  0  0  0  0  0  0  0  0  0  0
  140.5949   73.0838  220.7827 H   0  0  0  0  0  0  0  0  0  0  0  0
  138.8491   73.5874  220.9116 H   0  0  0  0  0  0  0  0  0  0  0  0
  141.5895   77.4857  221.0060 H   0  0  0  0  0  0  0  0  0  0  0  0
  143.0484   76.4829  220.9427 H   0  0  0  0  0  0  0  0  0  0  0  0
  141.6737   77.9570  218.7405 H   0  0  0  0  0  0  0  0  0  0  0  0
  143.3083   77.2975  218.7385 H   0  0  0  0  0  0  0  0  0  0  0  0
  140.7608   76.0700  217.7730 H   0  0  0  0  0  0  0  0  0  0  0  0
  142.4023   75.6043  217.3519 H   0  0  0  0  0  0  0  0  0  0  0  0
  140.9943   73.9667  218.8941 H   0  0  0  0  0  0  0  0  0  0  0  0
  142.1018   73.1789  221.2776 H   0  0  0  0  0  0  0  0  0  0  0  0
  144.0965   71.8784  221.8413 H   0  0  0  0  0  0  0  0  0  0  0  0
  146.1236   71.9314  220.3965 H   0  0  0  0  0  0  0  0  0  0  0  0
  146.6110   74.2100  217.7470 H   0  0  0  0  0  0  0  0  0  0  0  0
  144.0479   74.6644  217.7750 H   0  0  0  0  0  0  0  0  0  0  0  0
  141.2913   72.8928  225.1532 H   0  0  0  0  0  0  0  0  0  0  0  0
  141.3013   71.8282  227.4017 H   0  0  0  0  0  0  0  0  0  0  0  0
  140.8405   69.9767  228.7819 H   0  0  0  0  0  0  0  0  0  0  0  0
  139.9716   67.6538  229.0072 H   0  0  0  0  0  0  0  0  0  0  0  0
  139.1145   66.4175  227.0682 H   0  0  0  0  0  0  0  0  0  0  0  0
  139.0934   67.4728  224.7865 H   0  0  0  0  0  0  0  0  0  0  0  0
  1  2  2  0
  2  3  1  0
  3  4  1  0
  4  5  1  0
  5  6  2  0
  5  7  1  0
  7  8  1  0
  8  9  1  0
  9 10  1  0
 10 11  1  0
 11 12  1  0
 12 13  2  0
 13 14  1  0
 14 15  2  0
 15 16  1  0
 16 17  1  0
 16 18  2  0
  2 19  1  0
 19 20  2  0
 20 21  1  0
 21 22  2  0
 22 23  1  0
 23 24  2  0
 24 25  1  0
 25 26  2  0
 26 27  1  0
 27 28  2  0
 11  7  1  0
 18 12  1  0
 28 19  1  0
 27 22  1  0
  3 29  1  0
  4 30  1  0
  4 31  1  0
  8 32  1  0
  8 33  1  0
  9 34  1  0
  9 35  1  0
 10 36  1  0
 10 37  1  0
 11 38  1  6
 13 39  1  0
 14 40  1  0
 15 41  1  0
 17 42  1  0
 18 43  1  0
 20 44  1  0
 21 45  1  0
 23 46  1  0
 24 47  1  0
 25 48  1  0
 26 49  1  0
M  END
>  <smiles>  (57) 
O=C(NCC(=O)N1CCCC1c1cccc(O)c1)c1ccc2ccccc2n1

>  <score_type>  (57) 
oracle

>  <origin>  (57) 
autodockgpu

>  <m_score__min__energy>  (57) 
-9

>  <m_primary>  (57) 
energy

>  <rmsd>  (57) 
3.5167584293335534

>  <m_score__min__rmsd>  (57) 
3.5167584293335534

>  <meeko>  (57) 
{"free_energy": -8.63, "intermolecular_energy": -10.42, "internal_energy": -1.49, "cluster_size": 16, "cluster_id": 2, "rank_in_cluster": 8}

>  <energy>  (57) 
-8.47

>  <cluster_rmsd>  (57) 
1.31

>  <cluster>  (57) 
1

$$$$

     RDKit          3D

 49 52  0  0  0  0  0  0  0  0999 V2000
  139.9620   71.0370  221.2750 O   0  0  0  0  0  0  0  0  0  0  0  0
  139.6380   71.6230  222.3560 C   0  0  0  0  0  0  0  0  0  0  0  0
  138.9470   72.8620  222.1970 N   0  0  0  0  0  0  0  0  0  0  0  0
  138.6940   73.3100  220.8550 C   0  0  0  0  0  0  0  0  0  0  0  0
  138.6740   74.7910  220.7360 C   0  0  0  0  0  0  0  0  0  0  0  0
  137.6230   75.3510  220.3510 O   0  0  0  0  0  0  0  0  0  0  0  0
  139.8710   75.4800  221.0710 N   0  0  0  0  0  0  0  0  0  0  0  0
  140.3020   76.0200  222.3490 C   0  0  0  0  0  0  0  0  0  0  0  0
  141.0770   77.3050  222.0270 C   0  0  0  0  0  0  0  0  0  0  0  0
  141.3010   77.2550  220.5290 C   0  0  0  0  0  0  0  0  0  0  0  0
  140.9930   75.8220  220.1610 C   0  0  1  0  0  0  0  0  0  0  0  0
  142.0970   74.8810  220.3210 C   0  0  0  0  0  0  0  0  0  0  0  0
  143.3880   75.3650  220.0740 C   0  0  0  0  0  0  0  0  0  0  0  0
  144.5020   74.5630  220.1960 C   0  0  0  0  0  0  0  0  0  0  0  0
  144.4060   73.2390  220.5690 C   0  0  0  0  0  0  0  0  0  0  0  0
  143.1430   72.7480  220.8170 C   0  0  0  0  0  0  0  0  0  0  0  0
  143.0180   71.4170  221.1960 O   0  0  0  0  0  0  0  0  0  0  0  0
  142.0110   73.5650  220.6920 C   0  0  0  0  0  0  0  0  0  0  0  0
  139.9500   71.0720  223.6680 C   0  0  0  0  0  0  0  0  0  0  0  0
  140.6960   71.8540  224.5250 C   0  0  0  0  0  0  0  0  0  0  0  0
  141.0180   71.3820  225.7770 C   0  0  0  0  0  0  0  0  0  0  0  0
  140.5840   70.1280  226.1460 C   0  0  0  0  0  0  0  0  0  0  0  0
  140.9170   69.6770  227.3990 C   0  0  0  0  0  0  0  0  0  0  0  0
  140.4720   68.4160  227.7520 C   0  0  0  0  0  0  0  0  0  0  0  0
  139.7260   67.6370  226.8930 C   0  0  0  0  0  0  0  0  0  0  0  0
  139.3880   68.0940  225.6220 C   0  0  0  0  0  0  0  0  0  0  0  0
  139.8380   69.3520  225.2850 C   0  0  0  0  0  0  0  0  0  0  0  0
  139.5530   69.8610  224.0800 N   0  0  0  0  0  0  0  0  0  0  0  0
  138.6420   73.4120  223.0440 H   0  0  0  0  0  0  0  0  0  0  0  0
  139.4832   72.9154  220.1982 H   0  0  0  0  0  0  0  0  0  0  0  0
  137.6991   72.9412  220.5650 H   0  0  0  0  0  0  0  0  0  0  0  0
  139.4308   76.2475  222.9809 H   0  0  0  0  0  0  0  0  0  0  0  0
  140.9262   75.3009  222.8998 H   0  0  0  0  0  0  0  0  0  0  0  0
  140.4877   78.1923  222.3015 H   0  0  0  0  0  0  0  0  0  0  0  0
  142.0216   77.3723  222.5867 H   0  0  0  0  0  0  0  0  0  0  0  0
  140.6222   77.9468  220.0088 H   0  0  0  0  0  0  0  0  0  0  0  0
  142.3196   77.5560  220.2429 H   0  0  0  0  0  0  0  0  0  0  0  0
  140.7658   75.7408  219.0878 H   0  0  0  0  0  0  0  0  0  0  0  0
  143.5163   76.4155  219.7740 H   0  0  0  0  0  0  0  0  0  0  0  0
  145.4944   74.9905  219.9903 H   0  0  0  0  0  0  0  0  0  0  0  0
  145.2984   72.6030  220.6643 H   0  0  0  0  0  0  0  0  0  0  0  0
  142.1180   70.9390  221.1610 H   0  0  0  0  0  0  0  0  0  0  0  0
  141.0199   73.1349  220.8988 H   0  0  0  0  0  0  0  0  0  0  0  0
  141.0327   72.8523  224.2086 H   0  0  0  0  0  0  0  0  0  0  0  0
  141.6116   71.9955  226.4708 H   0  0  0  0  0  0  0  0  0  0  0  0
  141.5113   70.2912  228.0915 H   0  0  0  0  0  0  0  0  0  0  0  0
  140.7208   68.0224  228.7486 H   0  0  0  0  0  0  0  0  0  0  0  0
  139.3930   66.6398  227.2166 H   0  0  0  0  0  0  0  0  0  0  0  0
  138.7943   67.4842  224.9251 H   0  0  0  0  0  0  0  0  0  0  0  0
  1  2  2  0
  2  3  1  0
  3  4  1  0
  4  5  1  0
  5  6  2  0
  5  7  1  0
  7  8  1  0
  8  9  1  0
  9 10  1  0
 10 11  1  0
 11 12  1  0
 12 13  2  0
 13 14  1  0
 14 15  2  0
 15 16  1  0
 16 17  1  0
 16 18  2  0
  2 19  1  0
 19 20  2  0
 20 21  1  0
 21 22  2  0
 22 23  1  0
 23 24  2  0
 24 25  1  0
 25 26  2  0
 26 27  1  0
 27 28  2  0
 11  7  1  0
 18 12  1  0
 28 19  1  0
 27 22  1  0
  3 29  1  0
  4 30  1  0
  4 31  1  0
  8 32  1  0
  8 33  1  0
  9 34  1  0
  9 35  1  0
 10 36  1  0
 10 37  1  0
 11 38  1  6
 13 39  1  0
 14 40  1  0
 15 41  1  0
 17 42  1  0
 18 43  1  0
 20 44  1  0
 21 45  1  0
 23 46  1  0
 24 47  1  0
 25 48  1  0
 26 49  1  0
M  END
>  <smiles>  (58) 
O=C(NCC(=O)N1CCCC1c1cccc(O)c1)c1ccc2ccccc2n1

>  <score_type>  (58) 
oracle

>  <origin>  (58) 
autodockgpu

>  <m_score__min__energy>  (58) 
-9

>  <m_primary>  (58) 
energy

>  <rmsd>  (58) 
3.503078103280223

>  <m_score__min__rmsd>  (58) 
3.503078103280223

>  <meeko>  (58) 
{"free_energy": -7.14, "intermolecular_energy": -8.93, "internal_energy": -2.26, "cluster_size": 16, "cluster_id": 2, "rank_in_cluster": 16}

>  <energy>  (58) 
-8.42

>  <cluster_rmsd>  (58) 
0.91

>  <cluster>  (58) 
1

$$$$

     RDKit          3D

 49 52  0  0  0  0  0  0  0  0999 V2000
  140.5700   71.4840  221.3170 O   0  0  0  0  0  0  0  0  0  0  0  0
  140.2170   72.0560  222.3970 C   0  0  0  0  0  0  0  0  0  0  0  0
  139.8490   73.4300  222.2690 N   0  0  0  0  0  0  0  0  0  0  0  0
  139.9120   74.0120  220.9570 C   0  0  0  0  0  0  0  0  0  0  0  0
  140.4110   75.4110  220.9710 C   0  0  0  0  0  0  0  0  0  0  0  0
  141.5310   75.6580  220.4700 O   0  0  0  0  0  0  0  0  0  0  0  0
  139.5690   76.3900  221.5640 N   0  0  0  0  0  0  0  0  0  0  0  0
  138.6990   76.2860  222.7240 C   0  0  0  0  0  0  0  0  0  0  0  0
  137.4760   77.1610  222.4160 C   0  0  0  0  0  0  0  0  0  0  0  0
  137.8750   77.9680  221.1970 C   0  0  0  0  0  0  0  0  0  0  0  0
  139.3750   77.7930  221.1180 C   0  0  1  0  0  0  0  0  0  0  0  0
  140.1580   78.7120  221.9380 C   0  0  0  0  0  0  0  0  0  0  0  0
  139.4500   79.5450  222.8140 C   0  0  0  0  0  0  0  0  0  0  0  0
  140.0900   80.4490  223.6350 C   0  0  0  0  0  0  0  0  0  0  0  0
  141.4620   80.5830  223.6370 C   0  0  0  0  0  0  0  0  0  0  0  0
  142.1720   79.7700  222.7810 C   0  0  0  0  0  0  0  0  0  0  0  0
  143.5570   79.8850  222.7640 O   0  0  0  0  0  0  0  0  0  0  0  0
  141.5200   78.8520  221.9470 C   0  0  0  0  0  0  0  0  0  0  0  0
  140.1910   71.3620  223.6780 C   0  0  0  0  0  0  0  0  0  0  0  0
  139.6490   70.0930  223.7010 C   0  0  0  0  0  0  0  0  0  0  0  0
  139.5990   69.3930  224.8850 C   0  0  0  0  0  0  0  0  0  0  0  0
  140.0970   69.9810  226.0270 C   0  0  0  0  0  0  0  0  0  0  0  0
  140.0370   69.2650  227.1970 C   0  0  0  0  0  0  0  0  0  0  0  0
  140.5420   69.8730  228.3320 C   0  0  0  0  0  0  0  0  0  0  0  0
  141.0830   71.1400  228.3040 C   0  0  0  0  0  0  0  0  0  0  0  0
  141.1440   71.8670  227.1190 C   0  0  0  0  0  0  0  0  0  0  0  0
  140.6380   71.2490  225.9950 C   0  0  0  0  0  0  0  0  0  0  0  0
  140.6610   71.8840  224.8180 N   0  0  0  0  0  0  0  0  0  0  0  0
  139.5430   73.9780  223.1180 H   0  0  0  0  0  0  0  0  0  0  0  0
  140.5861   73.4047  220.3352 H   0  0  0  0  0  0  0  0  0  0  0  0
  138.8890   74.0294  220.5531 H   0  0  0  0  0  0  0  0  0  0  0  0
  138.3920   75.2411  222.8790 H   0  0  0  0  0  0  0  0  0  0  0  0
  139.2094   76.6156  223.6410 H   0  0  0  0  0  0  0  0  0  0  0  0
  136.5977   76.5361  222.1966 H   0  0  0  0  0  0  0  0  0  0  0  0
  137.1991   77.8019  223.2660 H   0  0  0  0  0  0  0  0  0  0  0  0
  137.3874   77.5765  220.2920 H   0  0  0  0  0  0  0  0  0  0  0  0
  137.5750   79.0237  221.2712 H   0  0  0  0  0  0  0  0  0  0  0  0
  139.7356   78.0144  220.1026 H   0  0  0  0  0  0  0  0  0  0  0  0
  138.3527   79.4759  222.8477 H   0  0  0  0  0  0  0  0  0  0  0  0
  139.4896   81.0803  224.3065 H   0  0  0  0  0  0  0  0  0  0  0  0
  141.9675   81.3070  224.2930 H   0  0  0  0  0  0  0  0  0  0  0  0
  144.1140   79.4590  222.0230 H   0  0  0  0  0  0  0  0  0  0  0  0
  142.1231   78.2222  221.2765 H   0  0  0  0  0  0  0  0  0  0  0  0
  139.2584   69.6427  222.7765 H   0  0  0  0  0  0  0  0  0  0  0  0
  139.1687   68.3812  224.9188 H   0  0  0  0  0  0  0  0  0  0  0  0
  139.6066   68.2532  227.2302 H   0  0  0  0  0  0  0  0  0  0  0  0
  140.5108   69.3280  229.2870 H   0  0  0  0  0  0  0  0  0  0  0  0
  141.4725   71.5834  229.2323 H   0  0  0  0  0  0  0  0  0  0  0  0
  141.5725   72.8794  227.0810 H   0  0  0  0  0  0  0  0  0  0  0  0
  1  2  2  0
  2  3  1  0
  3  4  1  0
  4  5  1  0
  5  6  2  0
  5  7  1  0
  7  8  1  0
  8  9  1  0
  9 10  1  0
 10 11  1  0
 11 12  1  0
 12 13  2  0
 13 14  1  0
 14 15  2  0
 15 16  1  0
 16 17  1  0
 16 18  2  0
  2 19  1  0
 19 20  2  0
 20 21  1  0
 21 22  2  0
 22 23  1  0
 23 24  2  0
 24 25  1  0
 25 26  2  0
 26 27  1  0
 27 28  2  0
 11  7  1  0
 18 12  1  0
 28 19  1  0
 27 22  1  0
  3 29  1  0
  4 30  1  0
  4 31  1  0
  8 32  1  0
  8 33  1  0
  9 34  1  0
  9 35  1  0
 10 36  1  0
 10 37  1  0
 11 38  1  6
 13 39  1  0
 14 40  1  0
 15 41  1  0
 17 42  1  0
 18 43  1  0
 20 44  1  0
 21 45  1  0
 23 46  1  0
 24 47  1  0
 25 48  1  0
 26 49  1  0
M  END
>  <smiles>  (59) 
O=C(NCC(=O)N1CCCC1c1cccc(O)c1)c1ccc2ccccc2n1

>  <score_type>  (59) 
oracle

>  <origin>  (59) 
autodockgpu

>  <m_score__min__energy>  (59) 
-9

>  <m_primary>  (59) 
energy

>  <rmsd>  (59) 
3.315235342521328

>  <m_score__min__rmsd>  (59) 
3.315235342521328

>  <meeko>  (59) 
{"free_energy": -8.62, "intermolecular_energy": -10.41, "internal_energy": -1.1, "cluster_size": 9, "cluster_id": 3, "rank_in_cluster": 2}

>  <energy>  (59) 
-8.41

>  <cluster_rmsd>  (59) 
0.93

>  <cluster>  (59) 
1

$$$$

     RDKit          3D

 49 52  0  0  0  0  0  0  0  0999 V2000
  141.4060   72.4560  221.6550 O   0  0  0  0  0  0  0  0  0  0  0  0
  140.4800   72.5950  222.5160 C   0  0  0  0  0  0  0  0  0  0  0  0
  139.6620   73.7540  222.3520 N   0  0  0  0  0  0  0  0  0  0  0  0
  139.9640   74.6270  221.2520 C   0  0  0  0  0  0  0  0  0  0  0  0
  139.5850   76.0390  221.5150 C   0  0  0  0  0  0  0  0  0  0  0  0
  138.7030   76.2770  222.3700 O   0  0  0  0  0  0  0  0  0  0  0  0
  140.2600   77.0390  220.7640 N   0  0  0  0  0  0  0  0  0  0  0  0
  139.7720   77.8710  219.6780 C   0  0  0  0  0  0  0  0  0  0  0  0
  140.9570   78.0570  218.7200 C   0  0  0  0  0  0  0  0  0  0  0  0
  142.1600   77.5550  219.4930 C   0  0  0  0  0  0  0  0  0  0  0  0
  141.6700   77.4760  220.9210 C   0  0  1  0  0  0  0  0  0  0  0  0
  141.7470   78.7200  221.6800 C   0  0  0  0  0  0  0  0  0  0  0  0
  141.8270   78.6120  223.0740 C   0  0  0  0  0  0  0  0  0  0  0  0
  141.9050   79.7220  223.8870 C   0  0  0  0  0  0  0  0  0  0  0  0
  141.9080   81.0010  223.3720 C   0  0  0  0  0  0  0  0  0  0  0  0
  141.8300   81.1240  222.0020 C   0  0  0  0  0  0  0  0  0  0  0  0
  141.8330   82.4020  221.4560 O   0  0  0  0  0  0  0  0  0  0  0  0
  141.7510   79.9940  221.1770 C   0  0  0  0  0  0  0  0  0  0  0  0
  140.2660   71.6400  223.5950 C   0  0  0  0  0  0  0  0  0  0  0  0
  139.5910   70.4770  223.2890 C   0  0  0  0  0  0  0  0  0  0  0  0
  139.3620   69.5410  224.2720 C   0  0  0  0  0  0  0  0  0  0  0  0
  139.8160   69.7920  225.5480 C   0  0  0  0  0  0  0  0  0  0  0  0
  139.5760   68.8450  226.5130 C   0  0  0  0  0  0  0  0  0  0  0  0
  140.0400   69.1150  227.7880 C   0  0  0  0  0  0  0  0  0  0  0  0
  140.7140   70.2790  228.0890 C   0  0  0  0  0  0  0  0  0  0  0  0
  140.9580   71.2400  227.1110 C   0  0  0  0  0  0  0  0  0  0  0  0
  140.4900   70.9570  225.8460 C   0  0  0  0  0  0  0  0  0  0  0  0
  140.6860   71.8320  224.8520 N   0  0  0  0  0  0  0  0  0  0  0  0
  138.8700   73.9430  223.0240 H   0  0  0  0  0  0  0  0  0  0  0  0
  141.0456   74.5843  221.0565 H   0  0  0  0  0  0  0  0  0  0  0  0
  139.3783   74.2832  220.3867 H   0  0  0  0  0  0  0  0  0  0  0  0
  138.9376   77.3741  219.1614 H   0  0  0  0  0  0  0  0  0  0  0  0
  139.3984   78.8372  220.0480 H   0  0  0  0  0  0  0  0  0  0  0  0
  140.8110   77.4666  217.8034 H   0  0  0  0  0  0  0  0  0  0  0  0
  141.0742   79.1034  218.4017 H   0  0  0  0  0  0  0  0  0  0  0  0
  142.4716   76.5641  219.1311 H   0  0  0  0  0  0  0  0  0  0  0  0
  143.0376   78.2089  219.3820 H   0  0  0  0  0  0  0  0  0  0  0  0
  142.3060   76.7985  221.5096 H   0  0  0  0  0  0  0  0  0  0  0  0
  141.8276   77.6124  223.5332 H   0  0  0  0  0  0  0  0  0  0  0  0
  141.9665   79.5839  224.9765 H   0  0  0  0  0  0  0  0  0  0  0  0
  141.9699   81.8836  224.0256 H   0  0  0  0  0  0  0  0  0  0  0  0
  141.8120   83.2310  222.0510 H   0  0  0  0  0  0  0  0  0  0  0  0
  141.6901   80.1350  220.0878 H   0  0  0  0  0  0  0  0  0  0  0  0
  139.2369   70.2980  222.2631 H   0  0  0  0  0  0  0  0  0  0  0  0
  138.8256   68.6085  224.0424 H   0  0  0  0  0  0  0  0  0  0  0  0
  139.0388   67.9132  226.2825 H   0  0  0  0  0  0  0  0  0  0  0  0
  139.8657   68.3782  228.5860 H   0  0  0  0  0  0  0  0  0  0  0  0
  141.0645   70.4515  229.1173 H   0  0  0  0  0  0  0  0  0  0  0  0
  141.4947   72.1735  227.3358 H   0  0  0  0  0  0  0  0  0  0  0  0
  1  2  2  0
  2  3  1  0
  3  4  1  0
  4  5  1  0
  5  6  2  0
  5  7  1  0
  7  8  1  0
  8  9  1  0
  9 10  1  0
 10 11  1  0
 11 12  1  0
 12 13  2  0
 13 14  1  0
 14 15  2  0
 15 16  1  0
 16 17  1  0
 16 18  2  0
  2 19  1  0
 19 20  2  0
 20 21  1  0
 21 22  2  0
 22 23  1  0
 23 24  2  0
 24 25  1  0
 25 26  2  0
 26 27  1  0
 27 28  2  0
 11  7  1  0
 18 12  1  0
 28 19  1  0
 27 22  1  0
  3 29  1  0
  4 30  1  0
  4 31  1  0
  8 32  1  0
  8 33  1  0
  9 34  1  0
  9 35  1  0
 10 36  1  0
 10 37  1  0
 11 38  1  1
 13 39  1  0
 14 40  1  0
 15 41  1  0
 17 42  1  0
 18 43  1  0
 20 44  1  0
 21 45  1  0
 23 46  1  0
 24 47  1  0
 25 48  1  0
 26 49  1  0
M  END
>  <smiles>  (60) 
O=C(NCC(=O)N1CCCC1c1cccc(O)c1)c1ccc2ccccc2n1

>  <score_type>  (60) 
oracle

>  <origin>  (60) 
autodockgpu

>  <m_score__min__energy>  (60) 
-9

>  <m_primary>  (60) 
energy

>  <rmsd>  (60) 
3.4073897091632124

>  <m_score__min__rmsd>  (60) 
3.4073897091632124

>  <meeko>  (60) 
{"free_energy": -8.26, "intermolecular_energy": -10.05, "internal_energy": -1.38, "cluster_size": 9, "cluster_id": 3, "rank_in_cluster": 7}

>  <energy>  (60) 
-8.38

>  <cluster_rmsd>  (60) 
1.31

>  <cluster>  (60) 
1

$$$$

     RDKit          3D

 49 52  0  0  0  0  0  0  0  0999 V2000
  141.4080   72.5560  221.9840 O   0  0  0  0  0  0  0  0  0  0  0  0
  140.3360   72.5780  222.6680 C   0  0  0  0  0  0  0  0  0  0  0  0
  139.3600   73.5300  222.2450 N   0  0  0  0  0  0  0  0  0  0  0  0
  139.6840   74.3490  221.1100 C   0  0  0  0  0  0  0  0  0  0  0  0
  139.0820   75.7060  221.1880 C   0  0  0  0  0  0  0  0  0  0  0  0
  137.9270   75.8270  221.6540 O   0  0  0  0  0  0  0  0  0  0  0  0
  139.8730   76.7890  220.7200 N   0  0  0  0  0  0  0  0  0  0  0  0
  139.6040   77.7400  219.6540 C   0  0  0  0  0  0  0  0  0  0  0  0
  140.9620   78.0420  219.0040 C   0  0  0  0  0  0  0  0  0  0  0  0
  141.9850   77.4600  219.9580 C   0  0  0  0  0  0  0  0  0  0  0  0
  141.2020   77.2130  221.2270 C   0  0  1  0  0  0  0  0  0  0  0  0
  141.0760   78.3600  222.1200 C   0  0  0  0  0  0  0  0  0  0  0  0
  142.2360   79.1060  222.3670 C   0  0  0  0  0  0  0  0  0  0  0  0
  142.2300   80.2090  223.1930 C   0  0  0  0  0  0  0  0  0  0  0  0
  141.0810   80.6390  223.8220 C   0  0  0  0  0  0  0  0  0  0  0  0
  139.9320   79.9160  223.5890 C   0  0  0  0  0  0  0  0  0  0  0  0
  138.7590   80.3290  224.2110 O   0  0  0  0  0  0  0  0  0  0  0  0
  139.9400   78.7950  222.7490 C   0  0  0  0  0  0  0  0  0  0  0  0
  140.1170   71.6950  223.8060 C   0  0  0  0  0  0  0  0  0  0  0  0
  139.2700   70.6210  223.6230 C   0  0  0  0  0  0  0  0  0  0  0  0
  139.0270   69.7560  224.6650 C   0  0  0  0  0  0  0  0  0  0  0  0
  139.6420   69.9850  225.8760 C   0  0  0  0  0  0  0  0  0  0  0  0
  139.3850   69.1100  226.9020 C   0  0  0  0  0  0  0  0  0  0  0  0
  140.0110   69.3570  228.1110 C   0  0  0  0  0  0  0  0  0  0  0  0
  140.8570   70.4310  228.2900 C   0  0  0  0  0  0  0  0  0  0  0  0
  141.1170   71.3190  227.2500 C   0  0  0  0  0  0  0  0  0  0  0  0
  140.4870   71.0600  226.0520 C   0  0  0  0  0  0  0  0  0  0  0  0
  140.6870   71.8690  225.0050 N   0  0  0  0  0  0  0  0  0  0  0  0
  138.4420   73.6120  222.7590 H   0  0  0  0  0  0  0  0  0  0  0  0
  140.7776   74.4525  221.0520 H   0  0  0  0  0  0  0  0  0  0  0  0
  139.2729   73.8552  220.2172 H   0  0  0  0  0  0  0  0  0  0  0  0
  138.9158   77.3023  218.9159 H   0  0  0  0  0  0  0  0  0  0  0  0
  139.1296   78.6544  220.0399 H   0  0  0  0  0  0  0  0  0  0  0  0
  141.0348   77.5614  218.0172 H   0  0  0  0  0  0  0  0  0  0  0  0
  141.1133   79.1190  218.8390 H   0  0  0  0  0  0  0  0  0  0  0  0
  142.3971   76.5195  219.5634 H   0  0  0  0  0  0  0  0  0  0  0  0
  142.8457   78.1268  220.1144 H   0  0  0  0  0  0  0  0  0  0  0  0
  141.7173   76.4752  221.8595 H   0  0  0  0  0  0  0  0  0  0  0  0
  143.1785   78.8025  221.8878 H   0  0  0  0  0  0  0  0  0  0  0  0
  143.1674   80.7614  223.3549 H   0  0  0  0  0  0  0  0  0  0  0  0
  141.0818   81.5201  224.4805 H   0  0  0  0  0  0  0  0  0  0  0  0
  138.7670   80.6980  225.1620 H   0  0  0  0  0  0  0  0  0  0  0  0
  139.0010   78.2449  222.5890 H   0  0  0  0  0  0  0  0  0  0  0  0
  138.7904   70.4569  222.6467 H   0  0  0  0  0  0  0  0  0  0  0  0
  138.3533   68.8965  224.5332 H   0  0  0  0  0  0  0  0  0  0  0  0
  138.7113   68.2507  226.7689 H   0  0  0  0  0  0  0  0  0  0  0  0
  139.8282   68.6758  228.9551 H   0  0  0  0  0  0  0  0  0  0  0  0
  141.3334   70.5884  229.2689 H   0  0  0  0  0  0  0  0  0  0  0  0
  141.7888   72.1806  227.3775 H   0  0  0  0  0  0  0  0  0  0  0  0
  1  2  2  0
  2  3  1  0
  3  4  1  0
  4  5  1  0
  5  6  2  0
  5  7  1  0
  7  8  1  0
  8  9  1  0
  9 10  1  0
 10 11  1  0
 11 12  1  0
 12 13  2  0
 13 14  1  0
 14 15  2  0
 15 16  1  0
 16 17  1  0
 16 18  2  0
  2 19  1  0
 19 20  2  0
 20 21  1  0
 21 22  2  0
 22 23  1  0
 23 24  2  0
 24 25  1  0
 25 26  2  0
 26 27  1  0
 27 28  2  0
 11  7  1  0
 18 12  1  0
 28 19  1  0
 27 22  1  0
  3 29  1  0
  4 30  1  0
  4 31  1  0
  8 32  1  0
  8 33  1  0
  9 34  1  0
  9 35  1  0
 10 36  1  0
 10 37  1  0
 11 38  1  1
 13 39  1  0
 14 40  1  0
 15 41  1  0
 17 42  1  0
 18 43  1  0
 20 44  1  0
 21 45  1  0
 23 46  1  0
 24 47  1  0
 25 48  1  0
 26 49  1  0
M  END
>  <smiles>  (61) 
O=C(NCC(=O)N1CCCC1c1cccc(O)c1)c1ccc2ccccc2n1

>  <score_type>  (61) 
oracle

>  <origin>  (61) 
autodockgpu

>  <m_score__min__energy>  (61) 
-9

>  <m_primary>  (61) 
energy

>  <rmsd>  (61) 
3.6557628558727164

>  <m_score__min__rmsd>  (61) 
3.6557628558727164

>  <meeko>  (61) 
{"free_energy": -8.04, "intermolecular_energy": -9.83, "internal_energy": -1.31, "cluster_size": 9, "cluster_id": 3, "rank_in_cluster": 8}

>  <energy>  (61) 
-8.35

>  <cluster_rmsd>  (61) 
0.9

>  <cluster>  (61) 
1

$$$$

     RDKit          3D

 49 52  0  0  0  0  0  0  0  0999 V2000
  140.6410   74.5060  220.2880 O   0  0  0  0  0  0  0  0  0  0  0  0
  140.3450   75.2140  221.3020 C   0  0  0  0  0  0  0  0  0  0  0  0
  139.4780   74.5920  222.2510 N   0  0  0  0  0  0  0  0  0  0  0  0
  139.0400   73.2530  221.9680 C   0  0  0  0  0  0  0  0  0  0  0  0
  139.9970   72.2200  222.4430 C   0  0  0  0  0  0  0  0  0  0  0  0
  141.2240   72.4290  222.3120 O   0  0  0  0  0  0  0  0  0  0  0  0
  139.4440   71.0470  223.0230 N   0  0  0  0  0  0  0  0  0  0  0  0
  139.5460   69.6630  222.5920 C   0  0  0  0  0  0  0  0  0  0  0  0
  138.1970   69.0140  222.9310 C   0  0  0  0  0  0  0  0  0  0  0  0
  137.5010   70.0150  223.8310 C   0  0  0  0  0  0  0  0  0  0  0  0
  138.6050   70.9620  224.2450 C   0  0  1  0  0  0  0  0  0  0  0  0
  139.3990   70.5370  225.3930 C   0  0  0  0  0  0  0  0  0  0  0  0
  140.3230   71.4570  225.9040 C   0  0  0  0  0  0  0  0  0  0  0  0
  141.1240   71.1600  226.9870 C   0  0  0  0  0  0  0  0  0  0  0  0
  141.0580   69.9390  227.6250 C   0  0  0  0  0  0  0  0  0  0  0  0
  140.1530   69.0240  227.1340 C   0  0  0  0  0  0  0  0  0  0  0  0
  140.0660   67.7860  227.7600 O   0  0  0  0  0  0  0  0  0  0  0  0
  139.3400   69.3270  226.0340 C   0  0  0  0  0  0  0  0  0  0  0  0
  140.8510   76.5680  221.4850 C   0  0  0  0  0  0  0  0  0  0  0  0
  141.1370   77.2980  220.3490 C   0  0  0  0  0  0  0  0  0  0  0  0
  141.6170   78.5820  220.4650 C   0  0  0  0  0  0  0  0  0  0  0  0
  141.8030   79.1120  221.7230 C   0  0  0  0  0  0  0  0  0  0  0  0
  142.2830   80.3950  221.8160 C   0  0  0  0  0  0  0  0  0  0  0  0
  142.4630   80.9080  223.0870 C   0  0  0  0  0  0  0  0  0  0  0  0
  142.1750   80.1760  224.2190 C   0  0  0  0  0  0  0  0  0  0  0  0
  141.6880   78.8750  224.1260 C   0  0  0  0  0  0  0  0  0  0  0  0
  141.5140   78.3760  222.8530 C   0  0  0  0  0  0  0  0  0  0  0  0
  141.0490   77.1330  222.6820 N   0  0  0  0  0  0  0  0  0  0  0  0
  139.1840   75.1110  223.1220 H   0  0  0  0  0  0  0  0  0  0  0  0
  138.0714   73.0884  222.4627 H   0  0  0  0  0  0  0  0  0  0  0  0
  138.9628   73.1545  220.8751 H   0  0  0  0  0  0  0  0  0  0  0  0
  139.7330   69.6127  221.5092 H   0  0  0  0  0  0  0  0  0  0  0  0
  140.3787   69.1458  223.0911 H   0  0  0  0  0  0  0  0  0  0  0  0
  137.6098   68.8408  222.0171 H   0  0  0  0  0  0  0  0  0  0  0  0
  138.3179   68.0339  223.4155 H   0  0  0  0  0  0  0  0  0  0  0  0
  136.7112   70.5503  223.2836 H   0  0  0  0  0  0  0  0  0  0  0  0
  137.0057   69.5397  224.6905 H   0  0  0  0  0  0  0  0  0  0  0  0
  138.1836   71.9179  224.5895 H   0  0  0  0  0  0  0  0  0  0  0  0
  140.4126   72.4447  225.4281 H   0  0  0  0  0  0  0  0  0  0  0  0
  141.8341   71.9169  227.3514 H   0  0  0  0  0  0  0  0  0  0  0  0
  141.6996   69.7062  228.4876 H   0  0  0  0  0  0  0  0  0  0  0  0
  140.2410   66.9210  227.2480 H   0  0  0  0  0  0  0  0  0  0  0  0
  138.6304   68.5682  225.6726 H   0  0  0  0  0  0  0  0  0  0  0  0
  140.9816   76.8546  219.3544 H   0  0  0  0  0  0  0  0  0  0  0  0
  141.8485   79.1756  219.5683 H   0  0  0  0  0  0  0  0  0  0  0  0
  142.5141   80.9883  220.9190 H   0  0  0  0  0  0  0  0  0  0  0  0
  142.8481   81.9323  223.1985 H   0  0  0  0  0  0  0  0  0  0  0  0
  142.3322   80.6263  225.2102 H   0  0  0  0  0  0  0  0  0  0  0  0
  141.4548   78.2778  225.0199 H   0  0  0  0  0  0  0  0  0  0  0  0
  1  2  2  0
  2  3  1  0
  3  4  1  0
  4  5  1  0
  5  6  2  0
  5  7  1  0
  7  8  1  0
  8  9  1  0
  9 10  1  0
 10 11  1  0
 11 12  1  0
 12 13  2  0
 13 14  1  0
 14 15  2  0
 15 16  1  0
 16 17  1  0
 16 18  2  0
  2 19  1  0
 19 20  2  0
 20 21  1  0
 21 22  2  0
 22 23  1  0
 23 24  2  0
 24 25  1  0
 25 26  2  0
 26 27  1  0
 27 28  2  0
 11  7  1  0
 18 12  1  0
 28 19  1  0
 27 22  1  0
  3 29  1  0
  4 30  1  0
  4 31  1  0
  8 32  1  0
  8 33  1  0
  9 34  1  0
  9 35  1  0
 10 36  1  0
 10 37  1  0
 11 38  1  1
 13 39  1  0
 14 40  1  0
 15 41  1  0
 17 42  1  0
 18 43  1  0
 20 44  1  0
 21 45  1  0
 23 46  1  0
 24 47  1  0
 25 48  1  0
 26 49  1  0
M  END
>  <smiles>  (62) 
O=C(NCC(=O)N1CCCC1c1cccc(O)c1)c1ccc2ccccc2n1

>  <score_type>  (62) 
oracle

>  <origin>  (62) 
autodockgpu

>  <m_score__min__energy>  (62) 
-9

>  <m_primary>  (62) 
energy

>  <rmsd>  (62) 
8.876057393413825

>  <m_score__min__rmsd>  (62) 
8.876057393413825

>  <meeko>  (62) 
{"free_energy": -8.5, "intermolecular_energy": -10.29, "internal_energy": -1.23, "cluster_size": 14, "cluster_id": 1, "rank_in_cluster": 6}

>  <energy>  (62) 
-8.34

>  <cluster_rmsd>  (62) 
0.91

>  <cluster>  (62) 
1

$$$$

     RDKit          3D

 49 52  0  0  0  0  0  0  0  0999 V2000
  141.2600   72.2240  221.6710 O   0  0  0  0  0  0  0  0  0  0  0  0
  140.3880   72.4170  222.5760 C   0  0  0  0  0  0  0  0  0  0  0  0
  139.5310   73.5410  222.3700 N   0  0  0  0  0  0  0  0  0  0  0  0
  139.7390   74.3210  221.1820 C   0  0  0  0  0  0  0  0  0  0  0  0
  139.2190   75.7080  221.3050 C   0  0  0  0  0  0  0  0  0  0  0  0
  138.0950   75.8870  221.8250 O   0  0  0  0  0  0  0  0  0  0  0  0
  140.0480   76.7530  220.8150 N   0  0  0  0  0  0  0  0  0  0  0  0
  139.8580   77.6280  219.6700 C   0  0  0  0  0  0  0  0  0  0  0  0
  141.2570   77.8780  219.0920 C   0  0  0  0  0  0  0  0  0  0  0  0
  142.2110   77.3600  220.1490 C   0  0  0  0  0  0  0  0  0  0  0  0
  141.3440   77.2060  221.3780 C   0  0  1  0  0  0  0  0  0  0  0  0
  141.1700   78.4140  222.1780 C   0  0  0  0  0  0  0  0  0  0  0  0
  142.2750   79.2670  222.2950 C   0  0  0  0  0  0  0  0  0  0  0  0
  142.2200   80.4350  223.0250 C   0  0  0  0  0  0  0  0  0  0  0  0
  141.0730   80.8270  223.6820 C   0  0  0  0  0  0  0  0  0  0  0  0
  139.9770   79.9990  223.5760 C   0  0  0  0  0  0  0  0  0  0  0  0
  138.8070   80.3720  224.2280 O   0  0  0  0  0  0  0  0  0  0  0  0
  140.0350   78.8120  222.8340 C   0  0  0  0  0  0  0  0  0  0  0  0
  140.2690   71.5550  223.7440 C   0  0  0  0  0  0  0  0  0  0  0  0
  139.6720   70.3240  223.5670 C   0  0  0  0  0  0  0  0  0  0  0  0
  139.5340   69.4700  224.6370 C   0  0  0  0  0  0  0  0  0  0  0  0
  140.0000   69.8690  225.8710 C   0  0  0  0  0  0  0  0  0  0  0  0
  139.8520   69.0030  226.9250 C   0  0  0  0  0  0  0  0  0  0  0  0
  140.3250   69.4220  228.1550 C   0  0  0  0  0  0  0  0  0  0  0  0
  140.9210   70.6530  228.3280 C   0  0  0  0  0  0  0  0  0  0  0  0
  141.0710   71.5330  227.2600 C   0  0  0  0  0  0  0  0  0  0  0  0
  140.5950   71.1020  226.0400 C   0  0  0  0  0  0  0  0  0  0  0  0
  140.7030   71.8910  224.9650 N   0  0  0  0  0  0  0  0  0  0  0  0
  138.7800   73.7710  223.0740 H   0  0  0  0  0  0  0  0  0  0  0  0
  140.8187   74.3674  220.9766 H   0  0  0  0  0  0  0  0  0  0  0  0
  139.1886   73.8323  220.3645 H   0  0  0  0  0  0  0  0  0  0  0  0
  139.2159   77.1425  218.9203 H   0  0  0  0  0  0  0  0  0  0  0  0
  139.3675   78.5691  219.9592 H   0  0  0  0  0  0  0  0  0  0  0  0
  141.3899   77.3294  218.1479 H   0  0  0  0  0  0  0  0  0  0  0  0
  141.4279   78.9403  218.8633 H   0  0  0  0  0  0  0  0  0  0  0  0
  142.6397   76.3925  219.8488 H   0  0  0  0  0  0  0  0  0  0  0  0
  143.0658   78.0322  220.3147 H   0  0  0  0  0  0  0  0  0  0  0  0
  141.8097   76.5124  222.0936 H   0  0  0  0  0  0  0  0  0  0  0  0
  143.2139   78.9969  221.7896 H   0  0  0  0  0  0  0  0  0  0  0  0
  143.1152   81.0714  223.0850 H   0  0  0  0  0  0  0  0  0  0  0  0
  141.0347   81.7592  224.2648 H   0  0  0  0  0  0  0  0  0  0  0  0
  138.3320   81.2450  224.0020 H   0  0  0  0  0  0  0  0  0  0  0  0
  139.1382   78.1776  222.7761 H   0  0  0  0  0  0  0  0  0  0  0  0
  139.3072   70.0259  222.5730 H   0  0  0  0  0  0  0  0  0  0  0  0
  139.0598   68.4857  224.5096 H   0  0  0  0  0  0  0  0  0  0  0  0
  139.3779   68.0187  226.7971 H   0  0  0  0  0  0  0  0  0  0  0  0
  140.2226   68.7526  229.0219 H   0  0  0  0  0  0  0  0  0  0  0  0
  141.2834   70.9442  229.3249 H   0  0  0  0  0  0  0  0  0  0  0  0
  141.5436   72.5187  227.3827 H   0  0  0  0  0  0  0  0  0  0  0  0
  1  2  2  0
  2  3  1  0
  3  4  1  0
  4  5  1  0
  5  6  2  0
  5  7  1  0
  7  8  1  0
  8  9  1  0
  9 10  1  0
 10 11  1  0
 11 12  1  0
 12 13  2  0
 13 14  1  0
 14 15  2  0
 15 16  1  0
 16 17  1  0
 16 18  2  0
  2 19  1  0
 19 20  2  0
 20 21  1  0
 21 22  2  0
 22 23  1  0
 23 24  2  0
 24 25  1  0
 25 26  2  0
 26 27  1  0
 27 28  2  0
 11  7  1  0
 18 12  1  0
 28 19  1  0
 27 22  1  0
  3 29  1  0
  4 30  1  0
  4 31  1  0
  8 32  1  0
  8 33  1  0
  9 34  1  0
  9 35  1  0
 10 36  1  0
 10 37  1  0
 11 38  1  1
 13 39  1  0
 14 40  1  0
 15 41  1  0
 17 42  1  0
 18 43  1  0
 20 44  1  0
 21 45  1  0
 23 46  1  0
 24 47  1  0
 25 48  1  0
 26 49  1  0
M  END
>  <smiles>  (63) 
O=C(NCC(=O)N1CCCC1c1cccc(O)c1)c1ccc2ccccc2n1

>  <score_type>  (63) 
oracle

>  <origin>  (63) 
autodockgpu

>  <m_score__min__energy>  (63) 
-9

>  <m_primary>  (63) 
energy

>  <rmsd>  (63) 
3.5906294837260133

>  <m_score__min__rmsd>  (63) 
3.5906294837260133

>  <meeko>  (63) 
{"free_energy": -8.29, "intermolecular_energy": -10.08, "internal_energy": -1.31, "cluster_size": 9, "cluster_id": 3, "rank_in_cluster": 5}

>  <energy>  (63) 
-8.34

>  <cluster_rmsd>  (63) 
0.98

>  <cluster>  (63) 
1

$$$$

     RDKit          3D

 49 52  0  0  0  0  0  0  0  0999 V2000
  140.8030   71.7780  221.3650 O   0  0  0  0  0  0  0  0  0  0  0  0
  140.1990   72.1950  222.4040 C   0  0  0  0  0  0  0  0  0  0  0  0
  139.5770   73.4740  222.2780 N   0  0  0  0  0  0  0  0  0  0  0  0
  139.6970   74.1460  221.0130 C   0  0  0  0  0  0  0  0  0  0  0  0
  140.3250   75.4870  221.1300 C   0  0  0  0  0  0  0  0  0  0  0  0
  139.9260   76.2640  222.0270 O   0  0  0  0  0  0  0  0  0  0  0  0
  141.3520   75.8020  220.2000 N   0  0  0  0  0  0  0  0  0  0  0  0
  142.2400   76.9510  220.1530 C   0  0  0  0  0  0  0  0  0  0  0  0
  142.4590   77.2560  218.6640 C   0  0  0  0  0  0  0  0  0  0  0  0
  141.9090   76.0460  217.9370 C   0  0  0  0  0  0  0  0  0  0  0  0
  141.7680   75.0020  219.0210 C   0  0  1  0  0  0  0  0  0  0  0  0
  142.9740   74.2330  219.3130 C   0  0  0  0  0  0  0  0  0  0  0  0
  143.0010   73.5250  220.5210 C   0  0  0  0  0  0  0  0  0  0  0  0
  144.0890   72.7660  220.8960 C   0  0  0  0  0  0  0  0  0  0  0  0
  145.2110   72.6630  220.1010 C   0  0  0  0  0  0  0  0  0  0  0  0
  145.1990   73.3530  218.9080 C   0  0  0  0  0  0  0  0  0  0  0  0
  146.3160   73.2650  218.0870 O   0  0  0  0  0  0  0  0  0  0  0  0
  144.0920   74.1240  218.5290 C   0  0  0  0  0  0  0  0  0  0  0  0
  140.1420   71.4230  223.6380 C   0  0  0  0  0  0  0  0  0  0  0  0
  139.5650   70.1720  223.5790 C   0  0  0  0  0  0  0  0  0  0  0  0
  139.4860   69.4000  224.7160 C   0  0  0  0  0  0  0  0  0  0  0  0
  139.9890   69.9030  225.8970 C   0  0  0  0  0  0  0  0  0  0  0  0
  139.9000   69.1170  227.0190 C   0  0  0  0  0  0  0  0  0  0  0  0
  140.4110   69.6390  228.1930 C   0  0  0  0  0  0  0  0  0  0  0  0
  140.9870   70.8900  228.2480 C   0  0  0  0  0  0  0  0  0  0  0  0
  141.0780   71.6870  227.1110 C   0  0  0  0  0  0  0  0  0  0  0  0
  140.5650   71.1550  225.9480 C   0  0  0  0  0  0  0  0  0  0  0  0
  140.6160   71.8610  224.8120 N   0  0  0  0  0  0  0  0  0  0  0  0
  139.0540   73.8930  223.0930 H   0  0  0  0  0  0  0  0  0  0  0  0
  140.3124   73.5271  220.3434 H   0  0  0  0  0  0  0  0  0  0  0  0
  138.6809   74.2900  220.6171 H   0  0  0  0  0  0  0  0  0  0  0  0
  141.7768   77.8129  220.6556 H   0  0  0  0  0  0  0  0  0  0  0  0
  143.1910   76.7465  220.6665 H   0  0  0  0  0  0  0  0  0  0  0  0
  141.9142   78.1654  218.3704 H   0  0  0  0  0  0  0  0  0  0  0  0
  143.5182   77.4365  218.4282 H   0  0  0  0  0  0  0  0  0  0  0  0
  140.9331   76.2727  217.4830 H   0  0  0  0  0  0  0  0  0  0  0  0
  142.5581   75.7158  217.1126 H   0  0  0  0  0  0  0  0  0  0  0  0
  141.0576   74.2207  218.7129 H   0  0  0  0  0  0  0  0  0  0  0  0
  142.1291   73.5760  221.1897 H   0  0  0  0  0  0  0  0  0  0  0  0
  144.0614   72.2281  221.8551 H   0  0  0  0  0  0  0  0  0  0  0  0
  146.0771   72.0571  220.4055 H   0  0  0  0  0  0  0  0  0  0  0  0
  146.7190   74.0940  217.6510 H   0  0  0  0  0  0  0  0  0  0  0  0
  144.1218   74.6601  217.5690 H   0  0  0  0  0  0  0  0  0  0  0  0
  139.1689   69.7919  222.6258 H   0  0  0  0  0  0  0  0  0  0  0  0
  139.0297   68.3997  224.6829 H   0  0  0  0  0  0  0  0  0  0  0  0
  139.4428   68.1171  226.9856 H   0  0  0  0  0  0  0  0  0  0  0  0
  140.3561   69.0370  229.1120 H   0  0  0  0  0  0  0  0  0  0  0  0
  141.3805   71.2638  229.2048 H   0  0  0  0  0  0  0  0  0  0  0  0
  141.5346   72.6873  227.1391 H   0  0  0  0  0  0  0  0  0  0  0  0
  1  2  2  0
  2  3  1  0
  3  4  1  0
  4  5  1  0
  5  6  2  0
  5  7  1  0
  7  8  1  0
  8  9  1  0
  9 10  1  0
 10 11  1  0
 11 12  1  0
 12 13  2  0
 13 14  1  0
 14 15  2  0
 15 16  1  0
 16 17  1  0
 16 18  2  0
  2 19  1  0
 19 20  2  0
 20 21  1  0
 21 22  2  0
 22 23  1  0
 23 24  2  0
 24 25  1  0
 25 26  2  0
 26 27  1  0
 27 28  2  0
 11  7  1  0
 18 12  1  0
 28 19  1  0
 27 22  1  0
  3 29  1  0
  4 30  1  0
  4 31  1  0
  8 32  1  0
  8 33  1  0
  9 34  1  0
  9 35  1  0
 10 36  1  0
 10 37  1  0
 11 38  1  6
 13 39  1  0
 14 40  1  0
 15 41  1  0
 17 42  1  0
 18 43  1  0
 20 44  1  0
 21 45  1  0
 23 46  1  0
 24 47  1  0
 25 48  1  0
 26 49  1  0
M  END
>  <smiles>  (64) 
O=C(NCC(=O)N1CCCC1c1cccc(O)c1)c1ccc2ccccc2n1

>  <score_type>  (64) 
oracle

>  <origin>  (64) 
autodockgpu

>  <m_score__min__energy>  (64) 
-9

>  <m_primary>  (64) 
energy

>  <rmsd>  (64) 
2.701515978415021

>  <m_score__min__rmsd>  (64) 
2.701515978415021

>  <meeko>  (64) 
{"free_energy": -8.8, "intermolecular_energy": -10.59, "internal_energy": -1.56, "cluster_size": 16, "cluster_id": 2, "rank_in_cluster": 2}

>  <energy>  (64) 
-8.15

>  <cluster_rmsd>  (64) 
1.18

>  <cluster>  (64) 
1

$$$$

     RDKit          3D

 49 52  0  0  0  0  0  0  0  0999 V2000
  139.8790   73.3770  222.3410 O   0  0  0  0  0  0  0  0  0  0  0  0
  140.4210   72.2340  222.4710 C   0  0  0  0  0  0  0  0  0  0  0  0
  141.1480   71.7680  221.3330 N   0  0  0  0  0  0  0  0  0  0  0  0
  141.1910   72.6250  220.1810 C   0  0  0  0  0  0  0  0  0  0  0  0
  142.3110   73.6000  220.2290 C   0  0  0  0  0  0  0  0  0  0  0  0
  142.0460   74.8200  220.3210 O   0  0  0  0  0  0  0  0  0  0  0  0
  143.6290   73.0720  220.1640 N   0  0  0  0  0  0  0  0  0  0  0  0
  144.6630   73.0330  221.1850 C   0  0  0  0  0  0  0  0  0  0  0  0
  145.9950   73.2180  220.4450 C   0  0  0  0  0  0  0  0  0  0  0  0
  145.6500   73.0460  218.9800 C   0  0  0  0  0  0  0  0  0  0  0  0
  144.2760   72.4180  218.9990 C   0  0  1  0  0  0  0  0  0  0  0  0
  144.2510   70.9660  219.1380 C   0  0  0  0  0  0  0  0  0  0  0  0
  143.0050   70.3350  219.0220 C   0  0  0  0  0  0  0  0  0  0  0  0
  142.8670   68.9690  219.1350 C   0  0  0  0  0  0  0  0  0  0  0  0
  143.9500   68.1470  219.3690 C   0  0  0  0  0  0  0  0  0  0  0  0
  145.1820   68.7520  219.4850 C   0  0  0  0  0  0  0  0  0  0  0  0
  146.2890   67.9460  219.7190 O   0  0  0  0  0  0  0  0  0  0  0  0
  145.3200   70.1410  219.3700 C   0  0  0  0  0  0  0  0  0  0  0  0
  140.3100   71.4500  223.6940 C   0  0  0  0  0  0  0  0  0  0  0  0
  139.7330   70.2010  223.5970 C   0  0  0  0  0  0  0  0  0  0  0  0
  139.6030   69.4180  224.7210 C   0  0  0  0  0  0  0  0  0  0  0  0
  140.0570   69.9060  225.9270 C   0  0  0  0  0  0  0  0  0  0  0  0
  139.9170   69.1090  227.0360 C   0  0  0  0  0  0  0  0  0  0  0  0
  140.3790   69.6170  228.2370 C   0  0  0  0  0  0  0  0  0  0  0  0
  140.9560   70.8660  228.3300 C   0  0  0  0  0  0  0  0  0  0  0  0
  141.0970   71.6740  227.2060 C   0  0  0  0  0  0  0  0  0  0  0  0
  140.6330   71.1560  226.0160 C   0  0  0  0  0  0  0  0  0  0  0  0
  140.7340   71.8740  224.8910 N   0  0  0  0  0  0  0  0  0  0  0  0
  141.6290   70.8290  221.3590 H   0  0  0  0  0  0  0  0  0  0  0  0
  141.3071   72.0006  219.2828 H   0  0  0  0  0  0  0  0  0  0  0  0
  140.2531   73.1994  220.1609 H   0  0  0  0  0  0  0  0  0  0  0  0
  144.5134   73.8451  221.9117 H   0  0  0  0  0  0  0  0  0  0  0  0
  144.6411   72.0864  221.7449 H   0  0  0  0  0  0  0  0  0  0  0  0
  146.4058   74.2212  220.6313 H   0  0  0  0  0  0  0  0  0  0  0  0
  146.7590   72.5006  220.7790 H   0  0  0  0  0  0  0  0  0  0  0  0
  145.6282   74.0186  218.4667 H   0  0  0  0  0  0  0  0  0  0  0  0
  146.3877   72.4338  218.4405 H   0  0  0  0  0  0  0  0  0  0  0  0
  143.7689   72.5725  218.0352 H   0  0  0  0  0  0  0  0  0  0  0  0
  142.1112   70.9484  218.8353 H   0  0  0  0  0  0  0  0  0  0  0  0
  141.8669   68.5218  219.0360 H   0  0  0  0  0  0  0  0  0  0  0  0
  143.8347   67.0568  219.4590 H   0  0  0  0  0  0  0  0  0  0  0  0
  146.1960   67.0400  220.1790 H   0  0  0  0  0  0  0  0  0  0  0  0
  146.3215   70.5850  219.4694 H   0  0  0  0  0  0  0  0  0  0  0  0
  139.3777   69.8318  222.6236 H   0  0  0  0  0  0  0  0  0  0  0  0
  139.1447   68.4200  224.6579 H   0  0  0  0  0  0  0  0  0  0  0  0
  139.4581   68.1113  226.9725 H   0  0  0  0  0  0  0  0  0  0  0  0
  140.2831   69.0054  229.1463 H   0  0  0  0  0  0  0  0  0  0  0  0
  141.3097   71.2286  229.3064 H   0  0  0  0  0  0  0  0  0  0  0  0
  141.5543   72.6727  227.2640 H   0  0  0  0  0  0  0  0  0  0  0  0
  1  2  2  0
  2  3  1  0
  3  4  1  0
  4  5  1  0
  5  6  2  0
  5  7  1  0
  7  8  1  0
  8  9  1  0
  9 10  1  0
 10 11  1  0
 11 12  1  0
 12 13  2  0
 13 14  1  0
 14 15  2  0
 15 16  1  0
 16 17  1  0
 16 18  2  0
  2 19  1  0
 19 20  2  0
 20 21  1  0
 21 22  2  0
 22 23  1  0
 23 24  2  0
 24 25  1  0
 25 26  2  0
 26 27  1  0
 27 28  2  0
 11  7  1  0
 18 12  1  0
 28 19  1  0
 27 22  1  0
  3 29  1  0
  4 30  1  0
  4 31  1  0
  8 32  1  0
  8 33  1  0
  9 34  1  0
  9 35  1  0
 10 36  1  0
 10 37  1  0
 11 38  1  6
 13 39  1  0
 14 40  1  0
 15 41  1  0
 17 42  1  0
 18 43  1  0
 20 44  1  0
 21 45  1  0
 23 46  1  0
 24 47  1  0
 25 48  1  0
 26 49  1  0
M  END
>  <smiles>  (65) 
O=C(NCC(=O)N1CCCC1c1cccc(O)c1)c1ccc2ccccc2n1

>  <score_type>  (65) 
oracle

>  <origin>  (65) 
autodockgpu

>  <m_score__min__energy>  (65) 
-9

>  <m_primary>  (65) 
energy

>  <rmsd>  (65) 
4.705866742026392

>  <m_score__min__rmsd>  (65) 
4.705866742026392

>  <meeko>  (65) 
{"free_energy": -8.08, "intermolecular_energy": -9.87, "internal_energy": -1.3, "cluster_size": 1, "cluster_id": 5, "rank_in_cluster": 1}

>  <energy>  (65) 
-8.94

>  <cluster_rmsd>  (65) 
0.0

>  <cluster>  (65) 
2

$$$$

     RDKit          3D

 49 52  0  0  0  0  0  0  0  0999 V2000
  141.4150   73.3200  221.7250 O   0  0  0  0  0  0  0  0  0  0  0  0
  140.3280   73.1110  222.3510 C   0  0  0  0  0  0  0  0  0  0  0  0
  139.3920   74.1900  222.3290 N   0  0  0  0  0  0  0  0  0  0  0  0
  139.7700   75.3780  221.6140 C   0  0  0  0  0  0  0  0  0  0  0  0
  139.3380   76.6240  222.2980 C   0  0  0  0  0  0  0  0  0  0  0  0
  138.2110   76.6550  222.8410 O   0  0  0  0  0  0  0  0  0  0  0  0
  140.2500   77.7140  222.2870 N   0  0  0  0  0  0  0  0  0  0  0  0
  141.4470   77.9290  223.0810 C   0  0  0  0  0  0  0  0  0  0  0  0
  141.5140   79.4400  223.3460 C   0  0  0  0  0  0  0  0  0  0  0  0
  140.4880   80.0420  222.4080 C   0  0  0  0  0  0  0  0  0  0  0  0
  140.1850   78.9270  221.4340 C   0  0  1  0  0  0  0  0  0  0  0  0
  141.1010   78.8160  220.3020 C   0  0  0  0  0  0  0  0  0  0  0  0
  141.4180   77.5240  219.8640 C   0  0  0  0  0  0  0  0  0  0  0  0
  142.2710   77.3040  218.8040 C   0  0  0  0  0  0  0  0  0  0  0  0
  142.8590   78.3450  218.1170 C   0  0  0  0  0  0  0  0  0  0  0  0
  142.5560   79.6220  218.5360 C   0  0  0  0  0  0  0  0  0  0  0  0
  143.1340   80.6890  217.8590 O   0  0  0  0  0  0  0  0  0  0  0  0
  141.6890   79.8440  219.6140 C   0  0  0  0  0  0  0  0  0  0  0  0
  140.0520   71.8600  223.0450 C   0  0  0  0  0  0  0  0  0  0  0  0
  139.3630   70.8880  222.3510 C   0  0  0  0  0  0  0  0  0  0  0  0
  139.0770   69.6870  222.9590 C   0  0  0  0  0  0  0  0  0  0  0  0
  139.4890   69.4840  224.2580 C   0  0  0  0  0  0  0  0  0  0  0  0
  139.1920   68.2790  224.8460 C   0  0  0  0  0  0  0  0  0  0  0  0
  139.6140   68.0950  226.1500 C   0  0  0  0  0  0  0  0  0  0  0  0
  140.3030   69.0700  226.8400 C   0  0  0  0  0  0  0  0  0  0  0  0
  140.6040   70.2920  226.2450 C   0  0  0  0  0  0  0  0  0  0  0  0
  140.1780   70.4610  224.9450 C   0  0  0  0  0  0  0  0  0  0  0  0
  140.4300   71.6090  224.3050 N   0  0  0  0  0  0  0  0  0  0  0  0
  138.4650   74.0980  222.8250 H   0  0  0  0  0  0  0  0  0  0  0  0
  140.8653   75.3940  221.5134 H   0  0  0  0  0  0  0  0  0  0  0  0
  139.2704   75.3479  220.6344 H   0  0  0  0  0  0  0  0  0  0  0  0
  141.3801   77.3772  224.0302 H   0  0  0  0  0  0  0  0  0  0  0  0
  142.3465   77.5715  222.5584 H   0  0  0  0  0  0  0  0  0  0  0  0
  141.2594   79.6617  224.3929 H   0  0  0  0  0  0  0  0  0  0  0  0
  142.5216   79.8475  223.1767 H   0  0  0  0  0  0  0  0  0  0  0  0
  139.5822   80.3383  222.9573 H   0  0  0  0  0  0  0  0  0  0  0  0
  140.8525   80.9523  221.9096 H   0  0  0  0  0  0  0  0  0  0  0  0
  139.2170   79.0996  220.9408 H   0  0  0  0  0  0  0  0  0  0  0  0
  140.9736   76.6605  220.3806 H   0  0  0  0  0  0  0  0  0  0  0  0
  142.4886   76.2701  218.4978 H   0  0  0  0  0  0  0  0  0  0  0  0
  143.5397   78.1639  217.2721 H   0  0  0  0  0  0  0  0  0  0  0  0
  143.6970   80.5420  217.0210 H   0  0  0  0  0  0  0  0  0  0  0  0
  141.4733   80.8789  219.9181 H   0  0  0  0  0  0  0  0  0  0  0  0
  139.0430   71.0719  221.3148 H   0  0  0  0  0  0  0  0  0  0  0  0
  138.5287   68.9023  222.4171 H   0  0  0  0  0  0  0  0  0  0  0  0
  138.6429   67.4951  224.3038 H   0  0  0  0  0  0  0  0  0  0  0  0
  139.3933   67.1416  226.6522 H   0  0  0  0  0  0  0  0  0  0  0  0
  140.6195   68.8793  227.8761 H   0  0  0  0  0  0  0  0  0  0  0  0
  141.1519   71.0797  226.7829 H   0  0  0  0  0  0  0  0  0  0  0  0
  1  2  2  0
  2  3  1  0
  3  4  1  0
  4  5  1  0
  5  6  2  0
  5  7  1  0
  7  8  1  0
  8  9  1  0
  9 10  1  0
 10 11  1  0
 11 12  1  0
 12 13  2  0
 13 14  1  0
 14 15  2  0
 15 16  1  0
 16 17  1  0
 16 18  2  0
  2 19  1  0
 19 20  2  0
 20 21  1  0
 21 22  2  0
 22 23  1  0
 23 24  2  0
 24 25  1  0
 25 26  2  0
 26 27  1  0
 27 28  2  0
 11  7  1  0
 18 12  1  0
 28 19  1  0
 27 22  1  0
  3 29  1  0
  4 30  1  0
  4 31  1  0
  8 32  1  0
  8 33  1  0
  9 34  1  0
  9 35  1  0
 10 36  1  0
 10 37  1  0
 11 38  1  6
 13 39  1  0
 14 40  1  0
 15 41  1  0
 17 42  1  0
 18 43  1  0
 20 44  1  0
 21 45  1  0
 23 46  1  0
 24 47  1  0
 25 48  1  0
 26 49  1  0
M  END
>  <smiles>  (66) 
O=C(NCC(=O)N1CCCC1c1cccc(O)c1)c1ccc2ccccc2n1

>  <score_type>  (66) 
oracle

>  <origin>  (66) 
autodockgpu

>  <m_score__min__energy>  (66) 
-9

>  <m_primary>  (66) 
energy

>  <rmsd>  (66) 
3.392452943630222

>  <m_score__min__rmsd>  (66) 
3.392452943630222

>  <meeko>  (66) 
{"free_energy": -8.02, "intermolecular_energy": -9.81, "internal_energy": -1.29, "cluster_size": 9, "cluster_id": 4, "rank_in_cluster": 6}

>  <energy>  (66) 
-8.8

>  <cluster_rmsd>  (66) 
0.27

>  <cluster>  (66) 
2

$$$$

     RDKit          3D

 49 52  0  0  0  0  0  0  0  0999 V2000
  140.6010   75.2940  220.8220 O   0  0  0  0  0  0  0  0  0  0  0  0
  139.9310   75.7710  221.7920 C   0  0  0  0  0  0  0  0  0  0  0  0
  138.9340   74.9030  222.3320 N   0  0  0  0  0  0  0  0  0  0  0  0
  138.7950   73.6040  221.7350 C   0  0  0  0  0  0  0  0  0  0  0  0
  139.7690   72.6170  222.2680 C   0  0  0  0  0  0  0  0  0  0  0  0
  140.9220   73.0050  222.5610 O   0  0  0  0  0  0  0  0  0  0  0  0
  139.3170   71.2770  222.4120 N   0  0  0  0  0  0  0  0  0  0  0  0
  139.6840   70.0900  221.6590 C   0  0  0  0  0  0  0  0  0  0  0  0
  138.4110   69.2360  221.5680 C   0  0  0  0  0  0  0  0  0  0  0  0
  137.4520   69.8670  222.5580 C   0  0  0  0  0  0  0  0  0  0  0  0
  138.3310   70.7660  223.3960 C   0  0  1  0  0  0  0  0  0  0  0  0
  139.0040   70.1170  224.5170 C   0  0  0  0  0  0  0  0  0  0  0  0
  139.9680   70.8670  225.2030 C   0  0  0  0  0  0  0  0  0  0  0  0
  140.6630   70.3540  226.2770 C   0  0  0  0  0  0  0  0  0  0  0  0
  140.4460   69.0710  226.7350 C   0  0  0  0  0  0  0  0  0  0  0  0
  139.5010   68.3200  226.0710 C   0  0  0  0  0  0  0  0  0  0  0  0
  139.2630   67.0240  226.5130 O   0  0  0  0  0  0  0  0  0  0  0  0
  138.7960   68.8440  224.9800 C   0  0  0  0  0  0  0  0  0  0  0  0
  140.1600   77.1110  222.3170 C   0  0  0  0  0  0  0  0  0  0  0  0
  139.0550   77.8370  222.7090 C   0  0  0  0  0  0  0  0  0  0  0  0
  139.2150   79.1070  223.2130 C   0  0  0  0  0  0  0  0  0  0  0  0
  140.4860   79.6280  223.3130 C   0  0  0  0  0  0  0  0  0  0  0  0
  140.6230   80.8970  223.8180 C   0  0  0  0  0  0  0  0  0  0  0  0
  141.9080   81.4010  223.9110 C   0  0  0  0  0  0  0  0  0  0  0  0
  143.0100   80.6720  223.5190 C   0  0  0  0  0  0  0  0  0  0  0  0
  142.8720   79.3850  223.0070 C   0  0  0  0  0  0  0  0  0  0  0  0
  141.5870   78.8950  222.9200 C   0  0  0  0  0  0  0  0  0  0  0  0
  141.3730   77.6650  222.4380 N   0  0  0  0  0  0  0  0  0  0  0  0
  138.3340   75.2220  223.1400 H   0  0  0  0  0  0  0  0  0  0  0  0
  137.7776   73.2345  221.9309 H   0  0  0  0  0  0  0  0  0  0  0  0
  138.9900   73.7125  220.6579 H   0  0  0  0  0  0  0  0  0  0  0  0
  140.0306   70.3678  220.6527 H   0  0  0  0  0  0  0  0  0  0  0  0
  140.5034   69.5411  222.1462 H   0  0  0  0  0  0  0  0  0  0  0  0
  137.9945   69.2679  220.5504 H   0  0  0  0  0  0  0  0  0  0  0  0
  138.6038   68.1767  221.7931 H   0  0  0  0  0  0  0  0  0  0  0  0
  136.6797   70.4512  222.0362 H   0  0  0  0  0  0  0  0  0  0  0  0
  136.9133   69.1206  223.1603 H   0  0  0  0  0  0  0  0  0  0  0  0
  137.7271   71.5379  223.8955 H   0  0  0  0  0  0  0  0  0  0  0  0
  140.1765   71.8960  224.8748 H   0  0  0  0  0  0  0  0  0  0  0  0
  141.4101   70.9840  226.7820 H   0  0  0  0  0  0  0  0  0  0  0  0
  141.0029   68.6655  227.5925 H   0  0  0  0  0  0  0  0  0  0  0  0
  139.8540   66.5910  227.2220 H   0  0  0  0  0  0  0  0  0  0  0  0
  138.0494   68.2117  224.4773 H   0  0  0  0  0  0  0  0  0  0  0  0
  138.0487   77.4019  222.6190 H   0  0  0  0  0  0  0  0  0  0  0  0
  138.3424   79.6965  223.5308 H   0  0  0  0  0  0  0  0  0  0  0  0
  139.7501   81.4868  224.1346 H   0  0  0  0  0  0  0  0  0  0  0  0
  142.0548   82.4154  224.3103 H   0  0  0  0  0  0  0  0  0  0  0  0
  144.0131   81.1136  223.6121 H   0  0  0  0  0  0  0  0  0  0  0  0
  143.7417   78.7912  222.6890 H   0  0  0  0  0  0  0  0  0  0  0  0
  1  2  2  0
  2  3  1  0
  3  4  1  0
  4  5  1  0
  5  6  2  0
  5  7  1  0
  7  8  1  0
  8  9  1  0
  9 10  1  0
 10 11  1  0
 11 12  1  0
 12 13  2  0
 13 14  1  0
 14 15  2  0
 15 16  1  0
 16 17  1  0
 16 18  2  0
  2 19  1  0
 19 20  2  0
 20 21  1  0
 21 22  2  0
 22 23  1  0
 23 24  2  0
 24 25  1  0
 25 26  2  0
 26 27  1  0
 27 28  2  0
 11  7  1  0
 18 12  1  0
 28 19  1  0
 27 22  1  0
  3 29  1  0
  4 30  1  0
  4 31  1  0
  8 32  1  0
  8 33  1  0
  9 34  1  0
  9 35  1  0
 10 36  1  0
 10 37  1  0
 11 38  1  1
 13 39  1  0
 14 40  1  0
 15 41  1  0
 17 42  1  0
 18 43  1  0
 20 44  1  0
 21 45  1  0
 23 46  1  0
 24 47  1  0
 25 48  1  0
 26 49  1  0
M  END
>  <smiles>  (67) 
O=C(NCC(=O)N1CCCC1c1cccc(O)c1)c1ccc2ccccc2n1

>  <score_type>  (67) 
oracle

>  <origin>  (67) 
autodockgpu

>  <m_score__min__energy>  (67) 
-9

>  <m_primary>  (67) 
energy

>  <rmsd>  (67) 
8.813709738670777

>  <m_score__min__rmsd>  (67) 
8.813709738670777

>  <meeko>  (67) 
{"free_energy": -8.92, "intermolecular_energy": -10.71, "internal_energy": -1.11, "cluster_size": 14, "cluster_id": 1, "rank_in_cluster": 3}

>  <energy>  (67) 
-8.78

>  <cluster_rmsd>  (67) 
0.47

>  <cluster>  (67) 
2

$$$$

     RDKit          3D

 49 52  0  0  0  0  0  0  0  0999 V2000
  141.4140   72.1440  221.8310 O   0  0  0  0  0  0  0  0  0  0  0  0
  140.3940   72.2540  222.5830 C   0  0  0  0  0  0  0  0  0  0  0  0
  139.4550   73.2590  222.1970 N   0  0  0  0  0  0  0  0  0  0  0  0
  139.7550   74.0270  221.0200 C   0  0  0  0  0  0  0  0  0  0  0  0
  140.4680   75.2950  221.3260 C   0  0  0  0  0  0  0  0  0  0  0  0
  140.1830   75.9080  222.3790 O   0  0  0  0  0  0  0  0  0  0  0  0
  141.4400   75.7310  220.3860 N   0  0  0  0  0  0  0  0  0  0  0  0
  142.2010   76.9680  220.3450 C   0  0  0  0  0  0  0  0  0  0  0  0
  142.3610   77.3180  218.8600 C   0  0  0  0  0  0  0  0  0  0  0  0
  141.9280   76.0690  218.1190 C   0  0  0  0  0  0  0  0  0  0  0  0
  141.9170   74.9980  219.1860 C   0  0  1  0  0  0  0  0  0  0  0  0
  143.2020   74.3560  219.4450 C   0  0  0  0  0  0  0  0  0  0  0  0
  143.5110   74.0640  220.7800 C   0  0  0  0  0  0  0  0  0  0  0  0
  144.6960   73.4580  221.1370 C   0  0  0  0  0  0  0  0  0  0  0  0
  145.6430   73.1060  220.1990 C   0  0  0  0  0  0  0  0  0  0  0  0
  145.3540   73.3870  218.8810 C   0  0  0  0  0  0  0  0  0  0  0  0
  146.2910   73.0420  217.9150 O   0  0  0  0  0  0  0  0  0  0  0  0
  144.1480   74.0030  218.5200 C   0  0  0  0  0  0  0  0  0  0  0  0
  140.1930   71.4150  223.7570 C   0  0  0  0  0  0  0  0  0  0  0  0
  139.4710   70.2510  223.5900 C   0  0  0  0  0  0  0  0  0  0  0  0
  139.2520   69.4220  224.6660 C   0  0  0  0  0  0  0  0  0  0  0  0
  139.7630   69.7780  225.8950 C   0  0  0  0  0  0  0  0  0  0  0  0
  139.5330   68.9370  226.9550 C   0  0  0  0  0  0  0  0  0  0  0  0
  140.0540   69.3120  228.1800 C   0  0  0  0  0  0  0  0  0  0  0  0
  140.7750   70.4760  228.3420 C   0  0  0  0  0  0  0  0  0  0  0  0
  141.0090   71.3300  227.2680 C   0  0  0  0  0  0  0  0  0  0  0  0
  140.4840   70.9430  226.0540 C   0  0  0  0  0  0  0  0  0  0  0  0
  140.6670   71.7120  224.9730 N   0  0  0  0  0  0  0  0  0  0  0  0
  138.5800   73.4140  222.7660 H   0  0  0  0  0  0  0  0  0  0  0  0
  140.3874   73.4197  220.3557 H   0  0  0  0  0  0  0  0  0  0  0  0
  138.7990   74.2910  220.5441 H   0  0  0  0  0  0  0  0  0  0  0  0
  141.6583   77.7680  220.8698 H   0  0  0  0  0  0  0  0  0  0  0  0
  143.1771   76.8567  220.8398 H   0  0  0  0  0  0  0  0  0  0  0  0
  141.7192   78.1700  218.5914 H   0  0  0  0  0  0  0  0  0  0  0  0
  143.3914   77.6120  218.6114 H   0  0  0  0  0  0  0  0  0  0  0  0
  140.9257   76.1992  217.6850 H   0  0  0  0  0  0  0  0  0  0  0  0
  142.5930   75.8229  217.2780 H   0  0  0  0  0  0  0  0  0  0  0  0
  141.2877   74.1511  218.8751 H   0  0  0  0  0  0  0  0  0  0  0  0
  142.7870   74.3260  221.5656 H   0  0  0  0  0  0  0  0  0  0  0  0
  144.8916   73.2495  222.1992 H   0  0  0  0  0  0  0  0  0  0  0  0
  146.5873   72.6224  220.4896 H   0  0  0  0  0  0  0  0  0  0  0  0
  146.4110   73.6010  217.0710 H   0  0  0  0  0  0  0  0  0  0  0  0
  143.9547   74.2100  217.4571 H   0  0  0  0  0  0  0  0  0  0  0  0
  139.0718   69.9867  222.5997 H   0  0  0  0  0  0  0  0  0  0  0  0
  138.6787   68.4908  224.5471 H   0  0  0  0  0  0  0  0  0  0  0  0
  138.9596   68.0059  226.8355 H   0  0  0  0  0  0  0  0  0  0  0  0
  139.8881   68.6618  229.0516 H   0  0  0  0  0  0  0  0  0  0  0  0
  141.1714   70.7337  229.3352 H   0  0  0  0  0  0  0  0  0  0  0  0
  141.5814   72.2624  227.3820 H   0  0  0  0  0  0  0  0  0  0  0  0
  1  2  2  0
  2  3  1  0
  3  4  1  0
  4  5  1  0
  5  6  2  0
  5  7  1  0
  7  8  1  0
  8  9  1  0
  9 10  1  0
 10 11  1  0
 11 12  1  0
 12 13  2  0
 13 14  1  0
 14 15  2  0
 15 16  1  0
 16 17  1  0
 16 18  2  0
  2 19  1  0
 19 20  2  0
 20 21  1  0
 21 22  2  0
 22 23  1  0
 23 24  2  0
 24 25  1  0
 25 26  2  0
 26 27  1  0
 27 28  2  0
 11  7  1  0
 18 12  1  0
 28 19  1  0
 27 22  1  0
  3 29  1  0
  4 30  1  0
  4 31  1  0
  8 32  1  0
  8 33  1  0
  9 34  1  0
  9 35  1  0
 10 36  1  0
 10 37  1  0
 11 38  1  6
 13 39  1  0
 14 40  1  0
 15 41  1  0
 17 42  1  0
 18 43  1  0
 20 44  1  0
 21 45  1  0
 23 46  1  0
 24 47  1  0
 25 48  1  0
 26 49  1  0
M  END
>  <smiles>  (68) 
O=C(NCC(=O)N1CCCC1c1cccc(O)c1)c1ccc2ccccc2n1

>  <score_type>  (68) 
oracle

>  <origin>  (68) 
autodockgpu

>  <m_score__min__energy>  (68) 
-9

>  <m_primary>  (68) 
energy

>  <rmsd>  (68) 
2.720491458584195

>  <m_score__min__rmsd>  (68) 
2.720491458584195

>  <meeko>  (68) 
{"free_energy": -8.71, "intermolecular_energy": -10.5, "internal_energy": -1.43, "cluster_size": 16, "cluster_id": 2, "rank_in_cluster": 5}

>  <energy>  (68) 
-8.77

>  <cluster_rmsd>  (68) 
0.23

>  <cluster>  (68) 
2

$$$$

     RDKit          3D

 49 52  0  0  0  0  0  0  0  0999 V2000
  139.0370   74.9680  221.4120 O   0  0  0  0  0  0  0  0  0  0  0  0
  140.2540   75.2760  221.6170 C   0  0  0  0  0  0  0  0  0  0  0  0
  140.4690   76.5600  222.2040 N   0  0  0  0  0  0  0  0  0  0  0  0
  139.3090   77.3560  222.4970 C   0  0  0  0  0  0  0  0  0  0  0  0
  139.6500   78.6840  223.0680 C   0  0  0  0  0  0  0  0  0  0  0  0
  138.8180   79.2540  223.8100 O   0  0  0  0  0  0  0  0  0  0  0  0
  140.9190   79.2260  222.7280 N   0  0  0  0  0  0  0  0  0  0  0  0
  142.2300   78.9390  223.2850 C   0  0  0  0  0  0  0  0  0  0  0  0
  143.0000   80.2660  223.2610 C   0  0  0  0  0  0  0  0  0  0  0  0
  142.1640   81.1830  222.3930 C   0  0  0  0  0  0  0  0  0  0  0  0
  141.2070   80.2470  221.6890 C   0  0  1  0  0  0  0  0  0  0  0  0
  141.7200   79.6220  220.4740 C   0  0  0  0  0  0  0  0  0  0  0  0
  142.0630   80.4740  219.4160 C   0  0  0  0  0  0  0  0  0  0  0  0
  142.5580   79.9910  218.2230 C   0  0  0  0  0  0  0  0  0  0  0  0
  142.7410   78.6410  218.0070 C   0  0  0  0  0  0  0  0  0  0  0  0
  142.4080   77.7910  219.0390 C   0  0  0  0  0  0  0  0  0  0  0  0
  142.5850   76.4260  218.8470 O   0  0  0  0  0  0  0  0  0  0  0  0
  141.9060   78.2840  220.2500 C   0  0  0  0  0  0  0  0  0  0  0  0
  141.3550   74.3840  221.2780 C   0  0  0  0  0  0  0  0  0  0  0  0
  141.0780   73.0350  221.2030 C   0  0  0  0  0  0  0  0  0  0  0  0
  142.0820   72.1480  220.8860 C   0  0  0  0  0  0  0  0  0  0  0  0
  143.3490   72.6340  220.6510 C   0  0  0  0  0  0  0  0  0  0  0  0
  144.3350   71.7320  220.3370 C   0  0  0  0  0  0  0  0  0  0  0  0
  145.6000   72.2390  220.1040 C   0  0  0  0  0  0  0  0  0  0  0  0
  145.8720   73.5890  220.1800 C   0  0  0  0  0  0  0  0  0  0  0  0
  144.8730   74.5040  220.4980 C   0  0  0  0  0  0  0  0  0  0  0  0
  143.6170   73.9840  220.7280 C   0  0  0  0  0  0  0  0  0  0  0  0
  142.6040   74.8010  221.0390 N   0  0  0  0  0  0  0  0  0  0  0  0
  141.4490   76.8930  222.4080 H   0  0  0  0  0  0  0  0  0  0  0  0
  138.7435   77.5087  221.5659 H   0  0  0  0  0  0  0  0  0  0  0  0
  138.7179   76.8142  223.2500 H   0  0  0  0  0  0  0  0  0  0  0  0
  142.1344   78.5713  224.3173 H   0  0  0  0  0  0  0  0  0  0  0  0
  142.7510   78.1606  222.7082 H   0  0  0  0  0  0  0  0  0  0  0  0
  143.0968   80.6762  224.2771 H   0  0  0  0  0  0  0  0  0  0  0  0
  144.0224   80.1457  222.8734 H   0  0  0  0  0  0  0  0  0  0  0  0
  141.6164   81.9121  223.0083 H   0  0  0  0  0  0  0  0  0  0  0  0
  142.7721   81.7733  221.6918 H   0  0  0  0  0  0  0  0  0  0  0  0
  140.3299   80.7986  221.3197 H   0  0  0  0  0  0  0  0  0  0  0  0
  141.9338   81.5593  219.5405 H   0  0  0  0  0  0  0  0  0  0  0  0
  142.8136   80.7009  217.4226 H   0  0  0  0  0  0  0  0  0  0  0  0
  143.1352   78.2600  217.0534 H   0  0  0  0  0  0  0  0  0  0  0  0
  141.9240   75.7490  219.2290 H   0  0  0  0  0  0  0  0  0  0  0  0
  141.6524   77.5716  221.0489 H   0  0  0  0  0  0  0  0  0  0  0  0
  140.0587   72.6692  221.3958 H   0  0  0  0  0  0  0  0  0  0  0  0
  141.8757   71.0694  220.8215 H   0  0  0  0  0  0  0  0  0  0  0  0
  144.1278   70.6536  220.2736 H   0  0  0  0  0  0  0  0  0  0  0  0
  146.4144   71.5445  219.8503 H   0  0  0  0  0  0  0  0  0  0  0  0
  146.8937   73.9477  219.9864 H   0  0  0  0  0  0  0  0  0  0  0  0
  145.0744   75.5835  220.5624 H   0  0  0  0  0  0  0  0  0  0  0  0
  1  2  2  0
  2  3  1  0
  3  4  1  0
  4  5  1  0
  5  6  2  0
  5  7  1  0
  7  8  1  0
  8  9  1  0
  9 10  1  0
 10 11  1  0
 11 12  1  0
 12 13  2  0
 13 14  1  0
 14 15  2  0
 15 16  1  0
 16 17  1  0
 16 18  2  0
  2 19  1  0
 19 20  2  0
 20 21  1  0
 21 22  2  0
 22 23  1  0
 23 24  2  0
 24 25  1  0
 25 26  2  0
 26 27  1  0
 27 28  2  0
 11  7  1  0
 18 12  1  0
 28 19  1  0
 27 22  1  0
  3 29  1  0
  4 30  1  0
  4 31  1  0
  8 32  1  0
  8 33  1  0
  9 34  1  0
  9 35  1  0
 10 36  1  0
 10 37  1  0
 11 38  1  6
 13 39  1  0
 14 40  1  0
 15 41  1  0
 17 42  1  0
 18 43  1  0
 20 44  1  0
 21 45  1  0
 23 46  1  0
 24 47  1  0
 25 48  1  0
 26 49  1  0
M  END
>  <smiles>  (69) 
O=C(NCC(=O)N1CCCC1c1cccc(O)c1)c1ccc2ccccc2n1

>  <score_type>  (69) 
oracle

>  <origin>  (69) 
autodockgpu

>  <m_score__min__energy>  (69) 
-9

>  <m_primary>  (69) 
energy

>  <rmsd>  (69) 
5.9912544267540015

>  <m_score__min__rmsd>  (69) 
5.9912544267540015

>  <meeko>  (69) 
{"free_energy": -6.72, "intermolecular_energy": -8.51, "internal_energy": -2.44, "cluster_size": 1, "cluster_id": 6, "rank_in_cluster": 1}

>  <energy>  (69) 
-8.71

>  <cluster_rmsd>  (69) 
0.26

>  <cluster>  (69) 
2

$$$$

     RDKit          3D

 49 52  0  0  0  0  0  0  0  0999 V2000
  140.2930   71.4720  221.3300 O   0  0  0  0  0  0  0  0  0  0  0  0
  139.6400   71.8910  222.3370 C   0  0  0  0  0  0  0  0  0  0  0  0
  138.7680   72.9940  222.0850 N   0  0  0  0  0  0  0  0  0  0  0  0
  138.7210   73.5050  220.7430 C   0  0  0  0  0  0  0  0  0  0  0  0
  138.6860   74.9900  220.6930 C   0  0  0  0  0  0  0  0  0  0  0  0
  137.6300   75.5570  220.3320 O   0  0  0  0  0  0  0  0  0  0  0  0
  139.8750   75.6750  221.0630 N   0  0  0  0  0  0  0  0  0  0  0  0
  140.2840   76.1860  222.3600 C   0  0  0  0  0  0  0  0  0  0  0  0
  141.0600   77.4810  222.0800 C   0  0  0  0  0  0  0  0  0  0  0  0
  141.3070   77.4670  220.5850 C   0  0  0  0  0  0  0  0  0  0  0  0
  141.0100   76.0420  220.1790 C   0  0  1  0  0  0  0  0  0  0  0  0
  142.1140   75.1010  220.3340 C   0  0  0  0  0  0  0  0  0  0  0  0
  143.4040   75.5850  220.0800 C   0  0  0  0  0  0  0  0  0  0  0  0
  144.5190   74.7830  220.1970 C   0  0  0  0  0  0  0  0  0  0  0  0
  144.4250   73.4600  220.5720 C   0  0  0  0  0  0  0  0  0  0  0  0
  143.1630   72.9690  220.8260 C   0  0  0  0  0  0  0  0  0  0  0  0
  143.0410   71.6380  221.2060 O   0  0  0  0  0  0  0  0  0  0  0  0
  142.0310   73.7850  220.7060 C   0  0  0  0  0  0  0  0  0  0  0  0
  139.7680   71.2910  223.6590 C   0  0  0  0  0  0  0  0  0  0  0  0
  139.2270   70.0360  223.8420 C   0  0  0  0  0  0  0  0  0  0  0  0
  139.3200   69.4230  225.0700 C   0  0  0  0  0  0  0  0  0  0  0  0
  139.9580   70.0850  226.0970 C   0  0  0  0  0  0  0  0  0  0  0  0
  140.0400   69.4560  227.3140 C   0  0  0  0  0  0  0  0  0  0  0  0
  140.6840   70.1360  228.3310 C   0  0  0  0  0  0  0  0  0  0  0  0
  141.2250   71.3910  228.1440 C   0  0  0  0  0  0  0  0  0  0  0  0
  141.1420   72.0300  226.9100 C   0  0  0  0  0  0  0  0  0  0  0  0
  140.4980   71.3400  225.9060 C   0  0  0  0  0  0  0  0  0  0  0  0
  140.3780   71.8880  224.6910 N   0  0  0  0  0  0  0  0  0  0  0  0
  138.1880   73.4020  222.8670 H   0  0  0  0  0  0  0  0  0  0  0  0
  139.6133   73.1561  220.2026 H   0  0  0  0  0  0  0  0  0  0  0  0
  137.7936   73.1361  220.2805 H   0  0  0  0  0  0  0  0  0  0  0  0
  139.4023   76.3961  222.9832 H   0  0  0  0  0  0  0  0  0  0  0  0
  140.9017   75.4561  222.9037 H   0  0  0  0  0  0  0  0  0  0  0  0
  140.4637   78.3599  222.3663 H   0  0  0  0  0  0  0  0  0  0  0  0
  141.9957   77.5377  222.6555 H   0  0  0  0  0  0  0  0  0  0  0  0
  140.6336   78.1686  220.0708 H   0  0  0  0  0  0  0  0  0  0  0  0
  142.3287   77.7782  220.3217 H   0  0  0  0  0  0  0  0  0  0  0  0
  140.8001   75.9856  219.1007 H   0  0  0  0  0  0  0  0  0  0  0  0
  143.5307   76.6353  219.7785 H   0  0  0  0  0  0  0  0  0  0  0  0
  145.5103   75.2103  219.9854 H   0  0  0  0  0  0  0  0  0  0  0  0
  145.3180   72.8243  220.6644 H   0  0  0  0  0  0  0  0  0  0  0  0
  142.1270   71.1890  221.2710 H   0  0  0  0  0  0  0  0  0  0  0  0
  141.0412   73.3544  220.9177 H   0  0  0  0  0  0  0  0  0  0  0  0
  138.7223   69.5262  223.0081 H   0  0  0  0  0  0  0  0  0  0  0  0
  138.8927   68.4220  225.2296 H   0  0  0  0  0  0  0  0  0  0  0  0
  139.6123   68.4552  227.4732 H   0  0  0  0  0  0  0  0  0  0  0  0
  140.7676   69.6615  229.3199 H   0  0  0  0  0  0  0  0  0  0  0  0
  141.7293   71.8942  228.9821 H   0  0  0  0  0  0  0  0  0  0  0  0
  141.5673   73.0310  226.7454 H   0  0  0  0  0  0  0  0  0  0  0  0
  1  2  2  0
  2  3  1  0
  3  4  1  0
  4  5  1  0
  5  6  2  0
  5  7  1  0
  7  8  1  0
  8  9  1  0
  9 10  1  0
 10 11  1  0
 11 12  1  0
 12 13  2  0
 13 14  1  0
 14 15  2  0
 15 16  1  0
 16 17  1  0
 16 18  2  0
  2 19  1  0
 19 20  2  0
 20 21  1  0
 21 22  2  0
 22 23  1  0
 23 24  2  0
 24 25  1  0
 25 26  2  0
 26 27  1  0
 27 28  2  0
 11  7  1  0
 18 12  1  0
 28 19  1  0
 27 22  1  0
  3 29  1  0
  4 30  1  0
  4 31  1  0
  8 32  1  0
  8 33  1  0
  9 34  1  0
  9 35  1  0
 10 36  1  0
 10 37  1  0
 11 38  1  6
 13 39  1  0
 14 40  1  0
 15 41  1  0
 17 42  1  0
 18 43  1  0
 20 44  1  0
 21 45  1  0
 23 46  1  0
 24 47  1  0
 25 48  1  0
 26 49  1  0
M  END
>  <smiles>  (70) 
O=C(NCC(=O)N1CCCC1c1cccc(O)c1)c1ccc2ccccc2n1

>  <score_type>  (70) 
oracle

>  <origin>  (70) 
autodockgpu

>  <m_score__min__energy>  (70) 
-9

>  <m_primary>  (70) 
energy

>  <rmsd>  (70) 
2.779794396424601

>  <m_score__min__rmsd>  (70) 
2.779794396424601

>  <meeko>  (70) 
{"free_energy": -7.4, "intermolecular_energy": -9.19, "internal_energy": -2.24, "cluster_size": 16, "cluster_id": 2, "rank_in_cluster": 15}

>  <energy>  (70) 
-8.64

>  <cluster_rmsd>  (70) 
0.8

>  <cluster>  (70) 
2

$$$$

     RDKit          3D

 49 52  0  0  0  0  0  0  0  0999 V2000
  141.2900   72.3100  221.7100 O   0  0  0  0  0  0  0  0  0  0  0  0
  140.3720   72.4480  222.5790 C   0  0  0  0  0  0  0  0  0  0  0  0
  139.4710   73.5330  222.3500 N   0  0  0  0  0  0  0  0  0  0  0  0
  139.6910   74.3390  221.1820 C   0  0  0  0  0  0  0  0  0  0  0  0
  139.0770   75.6880  221.2880 C   0  0  0  0  0  0  0  0  0  0  0  0
  137.8390   75.8010  221.1410 O   0  0  0  0  0  0  0  0  0  0  0  0
  139.9520   76.7760  221.5540 N   0  0  0  0  0  0  0  0  0  0  0  0
  141.0610   76.8670  222.4890 C   0  0  0  0  0  0  0  0  0  0  0  0
  141.0560   78.3100  223.0110 C   0  0  0  0  0  0  0  0  0  0  0  0
  140.1070   79.0510  222.0930 C   0  0  0  0  0  0  0  0  0  0  0  0
  139.9320   78.1170  220.9170 C   0  0  1  0  0  0  0  0  0  0  0  0
  140.9550   78.2150  219.8800 C   0  0  0  0  0  0  0  0  0  0  0  0
  141.4500   77.0130  219.3580 C   0  0  0  0  0  0  0  0  0  0  0  0
  142.4160   76.9890  218.3750 C   0  0  0  0  0  0  0  0  0  0  0  0
  142.9480   78.1490  217.8520 C   0  0  0  0  0  0  0  0  0  0  0  0
  142.4710   79.3390  218.3550 C   0  0  0  0  0  0  0  0  0  0  0  0
  142.9890   80.5230  217.8440 O   0  0  0  0  0  0  0  0  0  0  0  0
  141.4890   79.3610  219.3540 C   0  0  0  0  0  0  0  0  0  0  0  0
  140.2450   71.5650  223.7310 C   0  0  0  0  0  0  0  0  0  0  0  0
  139.6330   70.3450  223.5300 C   0  0  0  0  0  0  0  0  0  0  0  0
  139.4880   69.4720  224.5840 C   0  0  0  0  0  0  0  0  0  0  0  0
  139.9610   69.8410  225.8240 C   0  0  0  0  0  0  0  0  0  0  0  0
  139.8050   68.9560  226.8620 C   0  0  0  0  0  0  0  0  0  0  0  0
  140.2870   69.3450  228.0980 C   0  0  0  0  0  0  0  0  0  0  0  0
  140.8990   70.5650  228.2930 C   0  0  0  0  0  0  0  0  0  0  0  0
  141.0570   71.4640  227.2420 C   0  0  0  0  0  0  0  0  0  0  0  0
  140.5720   71.0630  226.0160 C   0  0  0  0  0  0  0  0  0  0  0  0
  140.6880   71.8720  224.9560 N   0  0  0  0  0  0  0  0  0  0  0  0
  138.6800   73.7170  223.0240 H   0  0  0  0  0  0  0  0  0  0  0  0
  140.7748   74.4569  221.0356 H   0  0  0  0  0  0  0  0  0  0  0  0
  139.2173   73.8259  220.3321 H   0  0  0  0  0  0  0  0  0  0  0  0
  140.9200   76.1595  223.3194 H   0  0  0  0  0  0  0  0  0  0  0  0
  142.0170   76.6163  222.0061 H   0  0  0  0  0  0  0  0  0  0  0  0
  140.6962   78.3448  224.0499 H   0  0  0  0  0  0  0  0  0  0  0  0
  142.0625   78.7539  223.0131 H   0  0  0  0  0  0  0  0  0  0  0  0
  139.1444   79.2357  222.5923 H   0  0  0  0  0  0  0  0  0  0  0  0
  140.4898   80.0386  221.7961 H   0  0  0  0  0  0  0  0  0  0  0  0
  139.0112   78.3592  220.3661 H   0  0  0  0  0  0  0  0  0  0  0  0
  141.0565   76.0609  219.7436 H   0  0  0  0  0  0  0  0  0  0  0  0
  142.7720   76.0190  217.9977 H   0  0  0  0  0  0  0  0  0  0  0  0
  143.7191   78.1248  217.0679 H   0  0  0  0  0  0  0  0  0  0  0  0
  143.6800   80.5170  217.0930 H   0  0  0  0  0  0  0  0  0  0  0  0
  141.1346   80.3326  219.7288 H   0  0  0  0  0  0  0  0  0  0  0  0
  139.2624   70.0711  222.5312 H   0  0  0  0  0  0  0  0  0  0  0  0
  139.0025   68.4957  224.4386 H   0  0  0  0  0  0  0  0  0  0  0  0
  139.3180   67.9805  226.7166 H   0  0  0  0  0  0  0  0  0  0  0  0
  140.1789   68.6602  228.9520 H   0  0  0  0  0  0  0  0  0  0  0  0
  141.2680   70.8320  229.2943 H   0  0  0  0  0  0  0  0  0  0  0  0
  141.5425   72.4410  227.3824 H   0  0  0  0  0  0  0  0  0  0  0  0
  1  2  2  0
  2  3  1  0
  3  4  1  0
  4  5  1  0
  5  6  2  0
  5  7  1  0
  7  8  1  0
  8  9  1  0
  9 10  1  0
 10 11  1  0
 11 12  1  0
 12 13  2  0
 13 14  1  0
 14 15  2  0
 15 16  1  0
 16 17  1  0
 16 18  2  0
  2 19  1  0
 19 20  2  0
 20 21  1  0
 21 22  2  0
 22 23  1  0
 23 24  2  0
 24 25  1  0
 25 26  2  0
 26 27  1  0
 27 28  2  0
 11  7  1  0
 18 12  1  0
 28 19  1  0
 27 22  1  0
  3 29  1  0
  4 30  1  0
  4 31  1  0
  8 32  1  0
  8 33  1  0
  9 34  1  0
  9 35  1  0
 10 36  1  0
 10 37  1  0
 11 38  1  6
 13 39  1  0
 14 40  1  0
 15 41  1  0
 17 42  1  0
 18 43  1  0
 20 44  1  0
 21 45  1  0
 23 46  1  0
 24 47  1  0
 25 48  1  0
 26 49  1  0
M  END
>  <smiles>  (71) 
O=C(NCC(=O)N1CCCC1c1cccc(O)c1)c1ccc2ccccc2n1

>  <score_type>  (71) 
oracle

>  <origin>  (71) 
autodockgpu

>  <m_score__min__energy>  (71) 
-9

>  <m_primary>  (71) 
energy

>  <rmsd>  (71) 
2.804692469472558

>  <m_score__min__rmsd>  (71) 
2.804692469472558

>  <meeko>  (71) 
{"free_energy": -8.28, "intermolecular_energy": -10.07, "internal_energy": -1.16, "cluster_size": 9, "cluster_id": 4, "rank_in_cluster": 3}

>  <energy>  (71) 
-8.63

>  <cluster_rmsd>  (71) 
0.61

>  <cluster>  (71) 
2

$$$$

     RDKit          3D

 49 52  0  0  0  0  0  0  0  0999 V2000
  140.9050   72.3270  221.6850 O   0  0  0  0  0  0  0  0  0  0  0  0
  139.9990   72.3650  222.5770 C   0  0  0  0  0  0  0  0  0  0  0  0
  138.9460   73.3000  222.3400 N   0  0  0  0  0  0  0  0  0  0  0  0
  139.0180   74.0860  221.1400 C   0  0  0  0  0  0  0  0  0  0  0  0
  138.7840   75.5330  221.3850 C   0  0  0  0  0  0  0  0  0  0  0  0
  137.7350   75.8850  221.9690 O   0  0  0  0  0  0  0  0  0  0  0  0
  139.7850   76.4340  220.9300 N   0  0  0  0  0  0  0  0  0  0  0  0
  139.8160   77.2590  219.7340 C   0  0  0  0  0  0  0  0  0  0  0  0
  141.2830   77.2930  219.2820 C   0  0  0  0  0  0  0  0  0  0  0  0
  142.0610   76.7190  220.4480 C   0  0  0  0  0  0  0  0  0  0  0  0
  141.0750   76.7480  221.5940 C   0  0  1  0  0  0  0  0  0  0  0  0
  140.9920   78.0120  222.3190 C   0  0  0  0  0  0  0  0  0  0  0  0
  139.7410   78.3690  222.8360 C   0  0  0  0  0  0  0  0  0  0  0  0
  139.5500   79.5400  223.5380 C   0  0  0  0  0  0  0  0  0  0  0  0
  140.5820   80.4250  223.7680 C   0  0  0  0  0  0  0  0  0  0  0  0
  141.8200   80.0880  223.2660 C   0  0  0  0  0  0  0  0  0  0  0  0
  142.8780   80.9620  223.4850 O   0  0  0  0  0  0  0  0  0  0  0  0
  142.0120   78.8970  222.5530 C   0  0  0  0  0  0  0  0  0  0  0  0
  140.0310   71.5150  223.7600 C   0  0  0  0  0  0  0  0  0  0  0  0
  139.5330   70.2350  223.6350 C   0  0  0  0  0  0  0  0  0  0  0  0
  139.5390   69.3900  224.7220 C   0  0  0  0  0  0  0  0  0  0  0  0
  140.0460   69.8480  225.9180 C   0  0  0  0  0  0  0  0  0  0  0  0
  140.0420   68.9890  226.9890 C   0  0  0  0  0  0  0  0  0  0  0  0
  140.5550   69.4680  228.1800 C   0  0  0  0  0  0  0  0  0  0  0  0
  141.0520   70.7490  228.3010 C   0  0  0  0  0  0  0  0  0  0  0  0
  141.0560   71.6200  227.2150 C   0  0  0  0  0  0  0  0  0  0  0  0
  140.5420   71.1300  226.0350 C   0  0  0  0  0  0  0  0  0  0  0  0
  140.5120   71.9080  224.9460 N   0  0  0  0  0  0  0  0  0  0  0  0
  138.1540   73.3930  223.0320 H   0  0  0  0  0  0  0  0  0  0  0  0
  140.0174   73.9615  220.6976 H   0  0  0  0  0  0  0  0  0  0  0  0
  138.2258   73.7320  220.4639 H   0  0  0  0  0  0  0  0  0  0  0  0
  139.1842   76.8181  218.9489 H   0  0  0  0  0  0  0  0  0  0  0  0
  139.4315   78.2705  219.9318 H   0  0  0  0  0  0  0  0  0  0  0  0
  141.4252   76.6780  218.3811 H   0  0  0  0  0  0  0  0  0  0  0  0
  141.6139   78.3094  219.0224 H   0  0  0  0  0  0  0  0  0  0  0  0
  142.3825   75.6889  220.2346 H   0  0  0  0  0  0  0  0  0  0  0  0
  142.9791   77.2849  220.6645 H   0  0  0  0  0  0  0  0  0  0  0  0
  141.3791   76.0422  222.3810 H   0  0  0  0  0  0  0  0  0  0  0  0
  138.8857   77.6957  222.6775 H   0  0  0  0  0  0  0  0  0  0  0  0
  138.5474   79.7746  223.9250 H   0  0  0  0  0  0  0  0  0  0  0  0
  140.4239   81.3588  224.3275 H   0  0  0  0  0  0  0  0  0  0  0  0
  142.7920   81.7420  224.1360 H   0  0  0  0  0  0  0  0  0  0  0  0
  143.0158   78.6644  222.1679 H   0  0  0  0  0  0  0  0  0  0  0  0
  139.1324   69.8904  222.6702 H   0  0  0  0  0  0  0  0  0  0  0  0
  139.1455   68.3663  224.6368 H   0  0  0  0  0  0  0  0  0  0  0  0
  139.6483   67.9655  226.9032 H   0  0  0  0  0  0  0  0  0  0  0  0
  140.5672   68.8067  229.0589 H   0  0  0  0  0  0  0  0  0  0  0  0
  141.4507   71.0870  229.2689 H   0  0  0  0  0  0  0  0  0  0  0  0
  141.4486   72.6444  227.2951 H   0  0  0  0  0  0  0  0  0  0  0  0
  1  2  2  0
  2  3  1  0
  3  4  1  0
  4  5  1  0
  5  6  2  0
  5  7  1  0
  7  8  1  0
  8  9  1  0
  9 10  1  0
 10 11  1  0
 11 12  1  0
 12 13  2  0
 13 14  1  0
 14 15  2  0
 15 16  1  0
 16 17  1  0
 16 18  2  0
  2 19  1  0
 19 20  2  0
 20 21  1  0
 21 22  2  0
 22 23  1  0
 23 24  2  0
 24 25  1  0
 25 26  2  0
 26 27  1  0
 27 28  2  0
 11  7  1  0
 18 12  1  0
 28 19  1  0
 27 22  1  0
  3 29  1  0
  4 30  1  0
  4 31  1  0
  8 32  1  0
  8 33  1  0
  9 34  1  0
  9 35  1  0
 10 36  1  0
 10 37  1  0
 11 38  1  1
 13 39  1  0
 14 40  1  0
 15 41  1  0
 17 42  1  0
 18 43  1  0
 20 44  1  0
 21 45  1  0
 23 46  1  0
 24 47  1  0
 25 48  1  0
 26 49  1  0
M  END
>  <smiles>  (72) 
O=C(NCC(=O)N1CCCC1c1cccc(O)c1)c1ccc2ccccc2n1

>  <score_type>  (72) 
oracle

>  <origin>  (72) 
autodockgpu

>  <m_score__min__energy>  (72) 
-9

>  <m_primary>  (72) 
energy

>  <rmsd>  (72) 
3.4843278900306403

>  <m_score__min__rmsd>  (72) 
3.4843278900306403

>  <meeko>  (72) 
{"free_energy": -7.96, "intermolecular_energy": -9.75, "internal_energy": -1.29, "cluster_size": 9, "cluster_id": 3, "rank_in_cluster": 9}

>  <energy>  (72) 
-8.63

>  <cluster_rmsd>  (72) 
0.83

>  <cluster>  (72) 
2

$$$$

     RDKit          3D

 49 52  0  0  0  0  0  0  0  0999 V2000
  140.3260   71.4370  221.3040 O   0  0  0  0  0  0  0  0  0  0  0  0
  139.9910   72.0170  222.3850 C   0  0  0  0  0  0  0  0  0  0  0  0
  139.5860   73.3800  222.2490 N   0  0  0  0  0  0  0  0  0  0  0  0
  139.5990   73.9440  220.9270 C   0  0  0  0  0  0  0  0  0  0  0  0
  139.9660   75.3840  220.9190 C   0  0  0  0  0  0  0  0  0  0  0  0
  139.2280   76.1970  221.5180 O   0  0  0  0  0  0  0  0  0  0  0  0
  141.1480   75.7440  220.2180 N   0  0  0  0  0  0  0  0  0  0  0  0
  142.0770   76.8340  220.4650 C   0  0  0  0  0  0  0  0  0  0  0  0
  142.5580   77.3010  219.0850 C   0  0  0  0  0  0  0  0  0  0  0  0
  142.0930   76.2230  218.1280 C   0  0  0  0  0  0  0  0  0  0  0  0
  141.7270   75.0670  219.0300 C   0  0  1  0  0  0  0  0  0  0  0  0
  142.8340   74.1970  219.4160 C   0  0  0  0  0  0  0  0  0  0  0  0
  142.6060   73.3060  220.4730 C   0  0  0  0  0  0  0  0  0  0  0  0
  143.5810   72.4390  220.9170 C   0  0  0  0  0  0  0  0  0  0  0  0
  144.8350   72.4010  220.3450 C   0  0  0  0  0  0  0  0  0  0  0  0
  145.0740   73.2710  219.3040 C   0  0  0  0  0  0  0  0  0  0  0  0
  146.3300   73.2530  218.7080 O   0  0  0  0  0  0  0  0  0  0  0  0
  144.0820   74.1520  218.8530 C   0  0  0  0  0  0  0  0  0  0  0  0
  140.0170   71.3410  223.6760 C   0  0  0  0  0  0  0  0  0  0  0  0
  139.4700   70.0770  223.7420 C   0  0  0  0  0  0  0  0  0  0  0  0
  139.4680   69.3940  224.9370 C   0  0  0  0  0  0  0  0  0  0  0  0
  140.0190   69.9950  226.0470 C   0  0  0  0  0  0  0  0  0  0  0  0
  140.0070   69.2960  227.2290 C   0  0  0  0  0  0  0  0  0  0  0  0
  140.5640   69.9170  228.3320 C   0  0  0  0  0  0  0  0  0  0  0  0
  141.1110   71.1810  228.2610 C   0  0  0  0  0  0  0  0  0  0  0  0
  141.1240   71.8900  227.0640 C   0  0  0  0  0  0  0  0  0  0  0  0
  140.5650   71.2590  225.9730 C   0  0  0  0  0  0  0  0  0  0  0  0
  140.5400   71.8770  224.7860 N   0  0  0  0  0  0  0  0  0  0  0  0
  139.2920   73.9330  223.0980 H   0  0  0  0  0  0  0  0  0  0  0  0
  140.3287   73.3919  220.3165 H   0  0  0  0  0  0  0  0  0  0  0  0
  138.5802   73.8595  220.5208 H   0  0  0  0  0  0  0  0  0  0  0  0
  141.5702   77.6562  220.9914 H   0  0  0  0  0  0  0  0  0  0  0  0
  142.9178   76.5113  221.0966 H   0  0  0  0  0  0  0  0  0  0  0  0
  142.1076   78.2704  218.8252 H   0  0  0  0  0  0  0  0  0  0  0  0
  143.6482   77.4438  219.0517 H   0  0  0  0  0  0  0  0  0  0  0  0
  141.2191   76.5617  217.5522 H   0  0  0  0  0  0  0  0  0  0  0  0
  142.8602   75.9552  217.3865 H   0  0  0  0  0  0  0  0  0  0  0  0
  141.0493   74.3733  218.5109 H   0  0  0  0  0  0  0  0  0  0  0  0
  141.6209   73.2983  220.9624 H   0  0  0  0  0  0  0  0  0  0  0  0
  143.3525   71.7586  221.7506 H   0  0  0  0  0  0  0  0  0  0  0  0
  145.6096   71.7073  220.7037 H   0  0  0  0  0  0  0  0  0  0  0  0
  146.7370   74.0980  218.3080 H   0  0  0  0  0  0  0  0  0  0  0  0
  144.3133   74.8304  218.0186 H   0  0  0  0  0  0  0  0  0  0  0  0
  139.0365   69.6159  222.8423 H   0  0  0  0  0  0  0  0  0  0  0  0
  139.0338   68.3856  225.0043 H   0  0  0  0  0  0  0  0  0  0  0  0
  139.5737   68.2871  227.2955 H   0  0  0  0  0  0  0  0  0  0  0  0
  140.5710   69.3865  229.2956 H   0  0  0  0  0  0  0  0  0  0  0  0
  141.5436   71.6355  229.1645 H   0  0  0  0  0  0  0  0  0  0  0  0
  141.5566   72.8988  226.9920 H   0  0  0  0  0  0  0  0  0  0  0  0
  1  2  2  0
  2  3  1  0
  3  4  1  0
  4  5  1  0
  5  6  2  0
  5  7  1  0
  7  8  1  0
  8  9  1  0
  9 10  1  0
 10 11  1  0
 11 12  1  0
 12 13  2  0
 13 14  1  0
 14 15  2  0
 15 16  1  0
 16 17  1  0
 16 18  2  0
  2 19  1  0
 19 20  2  0
 20 21  1  0
 21 22  2  0
 22 23  1  0
 23 24  2  0
 24 25  1  0
 25 26  2  0
 26 27  1  0
 27 28  2  0
 11  7  1  0
 18 12  1  0
 28 19  1  0
 27 22  1  0
  3 29  1  0
  4 30  1  0
  4 31  1  0
  8 32  1  0
  8 33  1  0
  9 34  1  0
  9 35  1  0
 10 36  1  0
 10 37  1  0
 11 38  1  6
 13 39  1  0
 14 40  1  0
 15 41  1  0
 17 42  1  0
 18 43  1  0
 20 44  1  0
 21 45  1  0
 23 46  1  0
 24 47  1  0
 25 48  1  0
 26 49  1  0
M  END
>  <smiles>  (73) 
O=C(NCC(=O)N1CCCC1c1cccc(O)c1)c1ccc2ccccc2n1

>  <score_type>  (73) 
oracle

>  <origin>  (73) 
autodockgpu

>  <m_score__min__energy>  (73) 
-9

>  <m_primary>  (73) 
energy

>  <rmsd>  (73) 
2.735141031346552

>  <m_score__min__rmsd>  (73) 
2.735141031346552

>  <meeko>  (73) 
{"free_energy": -8.63, "intermolecular_energy": -10.42, "internal_energy": -1.53, "cluster_size": 16, "cluster_id": 2, "rank_in_cluster": 7}

>  <energy>  (73) 
-8.6

>  <cluster_rmsd>  (73) 
0.73

>  <cluster>  (73) 
2

$$$$

     RDKit          3D

 49 52  0  0  0  0  0  0  0  0999 V2000
  140.5990   75.3980  220.7610 O   0  0  0  0  0  0  0  0  0  0  0  0
  139.9600   75.8570  221.7600 C   0  0  0  0  0  0  0  0  0  0  0  0
  138.9830   74.9780  222.3180 N   0  0  0  0  0  0  0  0  0  0  0  0
  138.8260   73.6890  221.7040 C   0  0  0  0  0  0  0  0  0  0  0  0
  139.6410   72.6340  222.3620 C   0  0  0  0  0  0  0  0  0  0  0  0
  140.8330   72.8840  222.6480 O   0  0  0  0  0  0  0  0  0  0  0  0
  138.9990   71.3940  222.6240 N   0  0  0  0  0  0  0  0  0  0  0  0
  138.9740   70.1770  221.8300 C   0  0  0  0  0  0  0  0  0  0  0  0
  137.5800   69.5660  222.0350 C   0  0  0  0  0  0  0  0  0  0  0  0
  136.9890   70.3350  223.2000 C   0  0  0  0  0  0  0  0  0  0  0  0
  138.1770   71.0440  223.8100 C   0  0  1  0  0  0  0  0  0  0  0  0
  138.9520   70.2610  224.7670 C   0  0  0  0  0  0  0  0  0  0  0  0
  140.0700   70.8800  225.3410 C   0  0  0  0  0  0  0  0  0  0  0  0
  140.8700   70.2330  226.2570 C   0  0  0  0  0  0  0  0  0  0  0  0
  140.6140   68.9390  226.6590 C   0  0  0  0  0  0  0  0  0  0  0  0
  139.5180   68.3160  226.1040 C   0  0  0  0  0  0  0  0  0  0  0  0
  139.2370   67.0120  226.4920 O   0  0  0  0  0  0  0  0  0  0  0  0
  138.7050   68.9760  225.1720 C   0  0  0  0  0  0  0  0  0  0  0  0
  140.2050   77.1880  222.3000 C   0  0  0  0  0  0  0  0  0  0  0  0
  139.1070   77.9250  222.6930 C   0  0  0  0  0  0  0  0  0  0  0  0
  139.2820   79.1890  223.2100 C   0  0  0  0  0  0  0  0  0  0  0  0
  140.5600   79.6900  223.3240 C   0  0  0  0  0  0  0  0  0  0  0  0
  140.7110   80.9520  223.8420 C   0  0  0  0  0  0  0  0  0  0  0  0
  142.0020   81.4380  223.9480 C   0  0  0  0  0  0  0  0  0  0  0  0
  143.0960   80.6970  223.5540 C   0  0  0  0  0  0  0  0  0  0  0  0
  142.9440   79.4180  223.0280 C   0  0  0  0  0  0  0  0  0  0  0  0
  141.6520   78.9470  222.9290 C   0  0  0  0  0  0  0  0  0  0  0  0
  141.4250   77.7240  222.4340 N   0  0  0  0  0  0  0  0  0  0  0  0
  138.4090   75.2820  223.1500 H   0  0  0  0  0  0  0  0  0  0  0  0
  137.7661   73.4001  221.7596 H   0  0  0  0  0  0  0  0  0  0  0  0
  139.1720   73.7737  220.6633 H   0  0  0  0  0  0  0  0  0  0  0  0
  139.1364   70.4106  220.7674 H   0  0  0  0  0  0  0  0  0  0  0  0
  139.7682   69.4801  222.1359 H   0  0  0  0  0  0  0  0  0  0  0  0
  136.9638   69.6947  221.1329 H   0  0  0  0  0  0  0  0  0  0  0  0
  137.6248   68.4845  222.2307 H   0  0  0  0  0  0  0  0  0  0  0  0
  136.2387   71.0593  222.8501 H   0  0  0  0  0  0  0  0  0  0  0  0
  136.4702   69.6831  223.9182 H   0  0  0  0  0  0  0  0  0  0  0  0
  137.8449   71.8991  224.4170 H   0  0  0  0  0  0  0  0  0  0  0  0
  140.3161   71.9124  225.0519 H   0  0  0  0  0  0  0  0  0  0  0  0
  141.7365   70.7630  226.6792 H   0  0  0  0  0  0  0  0  0  0  0  0
  141.2565   68.4270  227.3904 H   0  0  0  0  0  0  0  0  0  0  0  0
  139.8020   66.5360  227.1960 H   0  0  0  0  0  0  0  0  0  0  0  0
  137.8391   68.4437  224.7515 H   0  0  0  0  0  0  0  0  0  0  0  0
  138.0955   77.5044  222.5936 H   0  0  0  0  0  0  0  0  0  0  0  0
  138.4159   79.7886  223.5267 H   0  0  0  0  0  0  0  0  0  0  0  0
  139.8441   81.5504  224.1588 H   0  0  0  0  0  0  0  0  0  0  0  0
  142.1604   82.4460  224.3590 H   0  0  0  0  0  0  0  0  0  0  0  0
  144.1046   81.1237  223.6572 H   0  0  0  0  0  0  0  0  0  0  0  0
  143.8072   78.8156  222.7086 H   0  0  0  0  0  0  0  0  0  0  0  0
  1  2  2  0
  2  3  1  0
  3  4  1  0
  4  5  1  0
  5  6  2  0
  5  7  1  0
  7  8  1  0
  8  9  1  0
  9 10  1  0
 10 11  1  0
 11 12  1  0
 12 13  2  0
 13 14  1  0
 14 15  2  0
 15 16  1  0
 16 17  1  0
 16 18  2  0
  2 19  1  0
 19 20  2  0
 20 21  1  0
 21 22  2  0
 22 23  1  0
 23 24  2  0
 24 25  1  0
 25 26  2  0
 26 27  1  0
 27 28  2  0
 11  7  1  0
 18 12  1  0
 28 19  1  0
 27 22  1  0
  3 29  1  0
  4 30  1  0
  4 31  1  0
  8 32  1  0
  8 33  1  0
  9 34  1  0
  9 35  1  0
 10 36  1  0
 10 37  1  0
 11 38  1  1
 13 39  1  0
 14 40  1  0
 15 41  1  0
 17 42  1  0
 18 43  1  0
 20 44  1  0
 21 45  1  0
 23 46  1  0
 24 47  1  0
 25 48  1  0
 26 49  1  0
M  END
>  <smiles>  (74) 
O=C(NCC(=O)N1CCCC1c1cccc(O)c1)c1ccc2ccccc2n1

>  <score_type>  (74) 
oracle

>  <origin>  (74) 
autodockgpu

>  <m_score__min__energy>  (74) 
-9

>  <m_primary>  (74) 
energy

>  <rmsd>  (74) 
8.851201860483108

>  <m_score__min__rmsd>  (74) 
8.851201860483108

>  <meeko>  (74) 
{"free_energy": -9.0, "intermolecular_energy": -10.79, "internal_energy": -1.11, "cluster_size": 14, "cluster_id": 1, "rank_in_cluster": 1}

>  <energy>  (74) 
-8.57

>  <cluster_rmsd>  (74) 
1.27

>  <cluster>  (74) 
2

$$$$

     RDKit          3D

 49 52  0  0  0  0  0  0  0  0999 V2000
  140.6240   71.2960  221.3670 O   0  0  0  0  0  0  0  0  0  0  0  0
  140.2310   71.8360  222.4490 C   0  0  0  0  0  0  0  0  0  0  0  0
  139.8750   73.2160  222.3500 N   0  0  0  0  0  0  0  0  0  0  0  0
  139.9970   73.8390  221.0610 C   0  0  0  0  0  0  0  0  0  0  0  0
  140.6800   75.1580  221.1200 C   0  0  0  0  0  0  0  0  0  0  0  0
  140.7490   75.7520  222.2190 O   0  0  0  0  0  0  0  0  0  0  0  0
  141.2150   75.6610  219.9040 N   0  0  0  0  0  0  0  0  0  0  0  0
  140.6710   75.6070  218.5580 C   0  0  0  0  0  0  0  0  0  0  0  0
  141.8750   75.4460  217.6200 C   0  0  0  0  0  0  0  0  0  0  0  0
  143.0830   75.7290  218.4900 C   0  0  0  0  0  0  0  0  0  0  0  0
  142.5000   76.3820  219.7230 C   0  0  1  0  0  0  0  0  0  0  0  0
  142.2800   77.8220  219.6250 C   0  0  0  0  0  0  0  0  0  0  0  0
  141.7090   78.4560  220.7360 C   0  0  0  0  0  0  0  0  0  0  0  0
  141.4580   79.8110  220.7520 C   0  0  0  0  0  0  0  0  0  0  0  0
  141.7550   80.6170  219.6730 C   0  0  0  0  0  0  0  0  0  0  0  0
  142.3170   80.0080  218.5720 C   0  0  0  0  0  0  0  0  0  0  0  0
  142.6270   80.7980  217.4710 O   0  0  0  0  0  0  0  0  0  0  0  0
  142.5710   78.6300  218.5580 C   0  0  0  0  0  0  0  0  0  0  0  0
  140.1470   71.1020  223.7040 C   0  0  0  0  0  0  0  0  0  0  0  0
  139.5470   69.8600  223.6750 C   0  0  0  0  0  0  0  0  0  0  0  0
  139.4420   69.1240  224.8330 C   0  0  0  0  0  0  0  0  0  0  0  0
  139.9430   69.6500  226.0030 C   0  0  0  0  0  0  0  0  0  0  0  0
  139.8270   68.9000  227.1470 C   0  0  0  0  0  0  0  0  0  0  0  0
  140.3360   69.4450  228.3110 C   0  0  0  0  0  0  0  0  0  0  0  0
  140.9360   70.6870  228.3360 C   0  0  0  0  0  0  0  0  0  0  0  0
  141.0530   71.4490  227.1770 C   0  0  0  0  0  0  0  0  0  0  0  0
  140.5420   70.8920  226.0250 C   0  0  0  0  0  0  0  0  0  0  0  0
  140.6170   71.5650  224.8700 N   0  0  0  0  0  0  0  0  0  0  0  0
  139.5380   73.7390  223.2020 H   0  0  0  0  0  0  0  0  0  0  0  0
  140.5745   73.1735  220.4025 H   0  0  0  0  0  0  0  0  0  0  0  0
  138.9798   74.0100  220.6787 H   0  0  0  0  0  0  0  0  0  0  0  0
  139.9896   74.7496  218.4555 H   0  0  0  0  0  0  0  0  0  0  0  0
  140.0941   76.5130  218.3205 H   0  0  0  0  0  0  0  0  0  0  0  0
  141.9185   74.4234  217.2171 H   0  0  0  0  0  0  0  0  0  0  0  0
  141.8198   76.1211  216.7533 H   0  0  0  0  0  0  0  0  0  0  0  0
  143.6043   74.7961  218.7509 H   0  0  0  0  0  0  0  0  0  0  0  0
  143.8281   76.3629  217.9871 H   0  0  0  0  0  0  0  0  0  0  0  0
  143.2005   76.3056  220.5677 H   0  0  0  0  0  0  0  0  0  0  0  0
  141.4536   77.8550  221.6212 H   0  0  0  0  0  0  0  0  0  0  0  0
  141.0088   80.2617  221.6493 H   0  0  0  0  0  0  0  0  0  0  0  0
  141.5523   81.6980  219.6905 H   0  0  0  0  0  0  0  0  0  0  0  0
  143.3250   80.5030  216.7890 H   0  0  0  0  0  0  0  0  0  0  0  0
  143.0195   78.1818  217.6592 H   0  0  0  0  0  0  0  0  0  0  0  0
  139.1537   69.4593  222.7291 H   0  0  0  0  0  0  0  0  0  0  0  0
  138.9660   68.1324  224.8243 H   0  0  0  0  0  0  0  0  0  0  0  0
  139.3500   67.9089  227.1378 H   0  0  0  0  0  0  0  0  0  0  0  0
  140.2603   68.8707  229.2461 H   0  0  0  0  0  0  0  0  0  0  0  0
  141.3276   71.0808  229.2855 H   0  0  0  0  0  0  0  0  0  0  0  0
  141.5274   72.4414  227.1806 H   0  0  0  0  0  0  0  0  0  0  0  0
  1  2  2  0
  2  3  1  0
  3  4  1  0
  4  5  1  0
  5  6  2  0
  5  7  1  0
  7  8  1  0
  8  9  1  0
  9 10  1  0
 10 11  1  0
 11 12  1  0
 12 13  2  0
 13 14  1  0
 14 15  2  0
 15 16  1  0
 16 17  1  0
 16 18  2  0
  2 19  1  0
 19 20  2  0
 20 21  1  0
 21 22  2  0
 22 23  1  0
 23 24  2  0
 24 25  1  0
 25 26  2  0
 26 27  1  0
 27 28  2  0
 11  7  1  0
 18 12  1  0
 28 19  1  0
 27 22  1  0
  3 29  1  0
  4 30  1  0
  4 31  1  0
  8 32  1  0
  8 33  1  0
  9 34  1  0
  9 35  1  0
 10 36  1  0
 10 37  1  0
 11 38  1  1
 13 39  1  0
 14 40  1  0
 15 41  1  0
 17 42  1  0
 18 43  1  0
 20 44  1  0
 21 45  1  0
 23 46  1  0
 24 47  1  0
 25 48  1  0
 26 49  1  0
M  END
>  <smiles>  (75) 
O=C(NCC(=O)N1CCCC1c1cccc(O)c1)c1ccc2ccccc2n1

>  <score_type>  (75) 
oracle

>  <origin>  (75) 
autodockgpu

>  <m_score__min__energy>  (75) 
-9

>  <m_primary>  (75) 
energy

>  <rmsd>  (75) 
2.2414083528137296

>  <m_score__min__rmsd>  (75) 
2.2414083528137296

>  <meeko>  (75) 
{"free_energy": -8.24, "intermolecular_energy": -10.03, "internal_energy": -1.37, "cluster_size": 9, "cluster_id": 4, "rank_in_cluster": 4}

>  <energy>  (75) 
-8.44

>  <cluster_rmsd>  (75) 
1.21

>  <cluster>  (75) 
2

$$$$

     RDKit          3D

 49 52  0  0  0  0  0  0  0  0999 V2000
  140.7790   75.1990  220.8630 O   0  0  0  0  0  0  0  0  0  0  0  0
  140.0730   75.6680  221.8110 C   0  0  0  0  0  0  0  0  0  0  0  0
  139.0930   74.7770  222.3430 N   0  0  0  0  0  0  0  0  0  0  0  0
  139.0080   73.4650  221.7630 C   0  0  0  0  0  0  0  0  0  0  0  0
  139.8560   72.4680  222.4660 C   0  0  0  0  0  0  0  0  0  0  0  0
  141.0610   72.7380  222.6710 O   0  0  0  0  0  0  0  0  0  0  0  0
  139.2300   71.2550  222.8630 N   0  0  0  0  0  0  0  0  0  0  0  0
  139.1580   69.9800  222.1710 C   0  0  0  0  0  0  0  0  0  0  0  0
  137.7780   69.3940  222.5050 C   0  0  0  0  0  0  0  0  0  0  0  0
  137.2580   70.2560  223.6380 C   0  0  0  0  0  0  0  0  0  0  0  0
  138.4800   71.0040  224.1190 C   0  0  1  0  0  0  0  0  0  0  0  0
  139.3090   70.2950  225.0880 C   0  0  0  0  0  0  0  0  0  0  0  0
  140.2440   71.0550  225.8040 C   0  0  0  0  0  0  0  0  0  0  0  0
  141.0770   70.4870  226.7440 C   0  0  0  0  0  0  0  0  0  0  0  0
  141.0360   69.1390  227.0300 C   0  0  0  0  0  0  0  0  0  0  0  0
  140.1220   68.3780  226.3340 C   0  0  0  0  0  0  0  0  0  0  0  0
  140.0600   67.0170  226.6040 O   0  0  0  0  0  0  0  0  0  0  0  0
  139.2760   68.9570  225.3790 C   0  0  0  0  0  0  0  0  0  0  0  0
  140.2490   77.0220  222.3210 C   0  0  0  0  0  0  0  0  0  0  0  0
  139.1120   77.7190  222.6740 C   0  0  0  0  0  0  0  0  0  0  0  0
  139.2210   79.0020  223.1620 C   0  0  0  0  0  0  0  0  0  0  0  0
  140.4740   79.5620  223.2850 C   0  0  0  0  0  0  0  0  0  0  0  0
  140.5590   80.8420  223.7730 C   0  0  0  0  0  0  0  0  0  0  0  0
  141.8250   81.3870  223.8900 C   0  0  0  0  0  0  0  0  0  0  0  0
  142.9580   80.6860  223.5360 C   0  0  0  0  0  0  0  0  0  0  0  0
  142.8720   79.3880  223.0400 C   0  0  0  0  0  0  0  0  0  0  0  0
  141.6050   78.8580  222.9300 C   0  0  0  0  0  0  0  0  0  0  0  0
  141.4410   77.6150  222.4620 N   0  0  0  0  0  0  0  0  0  0  0  0
  138.4660   75.0880  223.1330 H   0  0  0  0  0  0  0  0  0  0  0  0
  137.9615   73.1289  221.8062 H   0  0  0  0  0  0  0  0  0  0  0  0
  139.3714   73.5369  220.7273 H   0  0  0  0  0  0  0  0  0  0  0  0
  139.2578   70.1281  221.0856 H   0  0  0  0  0  0  0  0  0  0  0  0
  139.9685   69.3055  222.4841 H   0  0  0  0  0  0  0  0  0  0  0  0
  137.1096   69.4543  221.6334 H   0  0  0  0  0  0  0  0  0  0  0  0
  137.8333   68.3310  222.7824 H   0  0  0  0  0  0  0  0  0  0  0  0
  136.4891   70.9546  223.2766 H   0  0  0  0  0  0  0  0  0  0  0  0
  136.7821   69.6657  224.4349 H   0  0  0  0  0  0  0  0  0  0  0  0
  138.1855   71.9062  224.6751 H   0  0  0  0  0  0  0  0  0  0  0  0
  140.3151   72.1355  225.6103 H   0  0  0  0  0  0  0  0  0  0  0  0
  141.7936   71.1264  227.2803 H   0  0  0  0  0  0  0  0  0  0  0  0
  141.7034   68.6907  227.7807 H   0  0  0  0  0  0  0  0  0  0  0  0
  140.2130   66.6570  227.5470 H   0  0  0  0  0  0  0  0  0  0  0  0
  138.5606   68.3148  224.8444 H   0  0  0  0  0  0  0  0  0  0  0  0
  138.1221   77.2516  222.5660 H   0  0  0  0  0  0  0  0  0  0  0  0
  138.3236   79.5699  223.4486 H   0  0  0  0  0  0  0  0  0  0  0  0
  139.6606   81.4091  224.0583 H   0  0  0  0  0  0  0  0  0  0  0  0
  141.9309   82.4111  224.2774 H   0  0  0  0  0  0  0  0  0  0  0  0
  143.9447   81.1593  223.6471 H   0  0  0  0  0  0  0  0  0  0  0  0
  143.7667   78.8168  222.7517 H   0  0  0  0  0  0  0  0  0  0  0  0
  1  2  2  0
  2  3  1  0
  3  4  1  0
  4  5  1  0
  5  6  2  0
  5  7  1  0
  7  8  1  0
  8  9  1  0
  9 10  1  0
 10 11  1  0
 11 12  1  0
 12 13  2  0
 13 14  1  0
 14 15  2  0
 15 16  1  0
 16 17  1  0
 16 18  2  0
  2 19  1  0
 19 20  2  0
 20 21  1  0
 21 22  2  0
 22 23  1  0
 23 24  2  0
 24 25  1  0
 25 26  2  0
 26 27  1  0
 27 28  2  0
 11  7  1  0
 18 12  1  0
 28 19  1  0
 27 22  1  0
  3 29  1  0
  4 30  1  0
  4 31  1  0
  8 32  1  0
  8 33  1  0
  9 34  1  0
  9 35  1  0
 10 36  1  0
 10 37  1  0
 11 38  1  1
 13 39  1  0
 14 40  1  0
 15 41  1  0
 17 42  1  0
 18 43  1  0
 20 44  1  0
 21 45  1  0
 23 46  1  0
 24 47  1  0
 25 48  1  0
 26 49  1  0
M  END
>  <smiles>  (76) 
O=C(NCC(=O)N1CCCC1c1cccc(O)c1)c1ccc2ccccc2n1

>  <score_type>  (76) 
oracle

>  <origin>  (76) 
autodockgpu

>  <m_score__min__energy>  (76) 
-9

>  <m_primary>  (76) 
energy

>  <rmsd>  (76) 
8.841687970949344

>  <m_score__min__rmsd>  (76) 
8.841687970949344

>  <meeko>  (76) 
{"free_energy": -8.98, "intermolecular_energy": -10.77, "internal_energy": -1.08, "cluster_size": 14, "cluster_id": 1, "rank_in_cluster": 2}

>  <energy>  (76) 
-8.31

>  <cluster_rmsd>  (76) 
0.83

>  <cluster>  (76) 
2

$$$$

     RDKit          3D

 49 52  0  0  0  0  0  0  0  0999 V2000
  140.0370   71.3720  221.2950 O   0  0  0  0  0  0  0  0  0  0  0  0
  139.8980   71.9700  222.4090 C   0  0  0  0  0  0  0  0  0  0  0  0
  139.6500   73.3740  222.3220 N   0  0  0  0  0  0  0  0  0  0  0  0
  139.5850   73.9540  221.0100 C   0  0  0  0  0  0  0  0  0  0  0  0
  139.9980   75.3810  220.9880 C   0  0  0  0  0  0  0  0  0  0  0  0
  139.3020   76.2190  221.6040 O   0  0  0  0  0  0  0  0  0  0  0  0
  141.1740   75.7010  220.2580 N   0  0  0  0  0  0  0  0  0  0  0  0
  142.1110   76.7960  220.4430 C   0  0  0  0  0  0  0  0  0  0  0  0
  142.5780   77.1950  219.0370 C   0  0  0  0  0  0  0  0  0  0  0  0
  142.0960   76.0760  218.1370 C   0  0  0  0  0  0  0  0  0  0  0  0
  141.7350   74.9660  219.0970 C   0  0  1  0  0  0  0  0  0  0  0  0
  142.8410   74.1080  219.5100 C   0  0  0  0  0  0  0  0  0  0  0  0
  142.5560   73.1040  220.4450 C   0  0  0  0  0  0  0  0  0  0  0  0
  143.5250   72.2380  220.9020 C   0  0  0  0  0  0  0  0  0  0  0  0
  144.8300   72.3130  220.4650 C   0  0  0  0  0  0  0  0  0  0  0  0
  145.1270   73.2950  219.5450 C   0  0  0  0  0  0  0  0  0  0  0  0
  146.4360   73.3910  219.0870 O   0  0  0  0  0  0  0  0  0  0  0  0
  144.1410   74.1750  219.0810 C   0  0  0  0  0  0  0  0  0  0  0  0
  139.9850   71.2750  223.6860 C   0  0  0  0  0  0  0  0  0  0  0  0
  139.5600   69.9630  223.7260 C   0  0  0  0  0  0  0  0  0  0  0  0
  139.6210   69.2600  224.9070 C   0  0  0  0  0  0  0  0  0  0  0  0
  140.1090   69.8890  226.0310 C   0  0  0  0  0  0  0  0  0  0  0  0
  140.1600   69.1700  227.1990 C   0  0  0  0  0  0  0  0  0  0  0  0
  140.6530   69.8190  228.3170 C   0  0  0  0  0  0  0  0  0  0  0  0
  141.0770   71.1300  228.2730 C   0  0  0  0  0  0  0  0  0  0  0  0
  141.0240   71.8610  227.0890 C   0  0  0  0  0  0  0  0  0  0  0  0
  140.5320   71.2010  225.9840 C   0  0  0  0  0  0  0  0  0  0  0  0
  140.4510   71.8370  224.8090 N   0  0  0  0  0  0  0  0  0  0  0  0
  139.5220   73.9450  223.2000 H   0  0  0  0  0  0  0  0  0  0  0  0
  140.2490   73.3860  220.3418 H   0  0  0  0  0  0  0  0  0  0  0  0
  138.5366   73.9085  220.6803 H   0  0  0  0  0  0  0  0  0  0  0  0
  141.6145   77.6447  220.9360 H   0  0  0  0  0  0  0  0  0  0  0  0
  142.9575   76.4988  221.0795 H   0  0  0  0  0  0  0  0  0  0  0  0
  142.1296   78.1537  218.7373 H   0  0  0  0  0  0  0  0  0  0  0  0
  143.6685   77.3297  218.9843 H   0  0  0  0  0  0  0  0  0  0  0  0
  141.2170   76.3922  217.5562 H   0  0  0  0  0  0  0  0  0  0  0  0
  142.8526   75.7694  217.3997 H   0  0  0  0  0  0  0  0  0  0  0  0
  141.0474   74.2527  218.6191 H   0  0  0  0  0  0  0  0  0  0  0  0
  141.5286   73.0044  220.8252 H   0  0  0  0  0  0  0  0  0  0  0  0
  143.2498   71.4658  221.6355 H   0  0  0  0  0  0  0  0  0  0  0  0
  145.6002   71.6198  220.8342 H   0  0  0  0  0  0  0  0  0  0  0  0
  146.9150   74.2910  219.0420 H   0  0  0  0  0  0  0  0  0  0  0  0
  144.4194   74.9460  218.3475 H   0  0  0  0  0  0  0  0  0  0  0  0
  139.1735   69.4804  222.8162 H   0  0  0  0  0  0  0  0  0  0  0  0
  139.2857   68.2133  224.9529 H   0  0  0  0  0  0  0  0  0  0  0  0
  139.8237   68.1237  227.2442 H   0  0  0  0  0  0  0  0  0  0  0  0
  140.7083   69.2723  229.2699 H   0  0  0  0  0  0  0  0  0  0  0  0
  141.4629   71.6057  229.1867 H   0  0  0  0  0  0  0  0  0  0  0  0
  141.3568   72.9082  227.0386 H   0  0  0  0  0  0  0  0  0  0  0  0
  1  2  2  0
  2  3  1  0
  3  4  1  0
  4  5  1  0
  5  6  2  0
  5  7  1  0
  7  8  1  0
  8  9  1  0
  9 10  1  0
 10 11  1  0
 11 12  1  0
 12 13  2  0
 13 14  1  0
 14 15  2  0
 15 16  1  0
 16 17  1  0
 16 18  2  0
  2 19  1  0
 19 20  2  0
 20 21  1  0
 21 22  2  0
 22 23  1  0
 23 24  2  0
 24 25  1  0
 25 26  2  0
 26 27  1  0
 27 28  2  0
 11  7  1  0
 18 12  1  0
 28 19  1  0
 27 22  1  0
  3 29  1  0
  4 30  1  0
  4 31  1  0
  8 32  1  0
  8 33  1  0
  9 34  1  0
  9 35  1  0
 10 36  1  0
 10 37  1  0
 11 38  1  6
 13 39  1  0
 14 40  1  0
 15 41  1  0
 17 42  1  0
 18 43  1  0
 20 44  1  0
 21 45  1  0
 23 46  1  0
 24 47  1  0
 25 48  1  0
 26 49  1  0
M  END
>  <smiles>  (77) 
O=C(NCC(=O)N1CCCC1c1cccc(O)c1)c1ccc2ccccc2n1

>  <score_type>  (77) 
oracle

>  <origin>  (77) 
autodockgpu

>  <m_score__min__energy>  (77) 
-9

>  <m_primary>  (77) 
energy

>  <rmsd>  (77) 
2.789950794394759

>  <m_score__min__rmsd>  (77) 
2.789950794394759

>  <meeko>  (77) 
{"free_energy": -8.6, "intermolecular_energy": -10.39, "internal_energy": -1.58, "cluster_size": 16, "cluster_id": 2, "rank_in_cluster": 9}

>  <energy>  (77) 
-8.19

>  <cluster_rmsd>  (77) 
1.06

>  <cluster>  (77) 
2

$$$$

     RDKit          3D

 49 52  0  0  0  0  0  0  0  0999 V2000
  139.5830   70.4950  221.7700 O   0  0  0  0  0  0  0  0  0  0  0  0
  139.7060   71.3380  222.7140 C   0  0  0  0  0  0  0  0  0  0  0  0
  139.4900   72.7020  222.3480 N   0  0  0  0  0  0  0  0  0  0  0  0
  139.1610   72.9740  220.9770 C   0  0  0  0  0  0  0  0  0  0  0  0
  139.0480   74.4280  220.6880 C   0  0  0  0  0  0  0  0  0  0  0  0
  137.9400   74.8880  220.3350 O   0  0  0  0  0  0  0  0  0  0  0  0
  140.2270   75.2080  220.8360 N   0  0  0  0  0  0  0  0  0  0  0  0
  140.6640   76.0230  221.9560 C   0  0  0  0  0  0  0  0  0  0  0  0
  141.3890   77.2300  221.3440 C   0  0  0  0  0  0  0  0  0  0  0  0
  141.5860   76.8640  219.8870 C   0  0  0  0  0  0  0  0  0  0  0  0
  141.3190   75.3770  219.8450 C   0  0  1  0  0  0  0  0  0  0  0  0
  142.4570   74.5250  220.1750 C   0  0  0  0  0  0  0  0  0  0  0  0
  142.1820   73.1880  220.4900 C   0  0  0  0  0  0  0  0  0  0  0  0
  143.1820   72.2960  220.8160 C   0  0  0  0  0  0  0  0  0  0  0  0
  144.5080   72.6730  220.8500 C   0  0  0  0  0  0  0  0  0  0  0  0
  144.7940   73.9850  220.5430 C   0  0  0  0  0  0  0  0  0  0  0  0
  146.1230   74.3900  220.5690 O   0  0  0  0  0  0  0  0  0  0  0  0
  143.7770   74.8900  220.2120 C   0  0  0  0  0  0  0  0  0  0  0  0
  140.0440   70.9450  224.0750 C   0  0  0  0  0  0  0  0  0  0  0  0
  140.6500   71.8900  224.8770 C   0  0  0  0  0  0  0  0  0  0  0  0
  140.9910   71.5710  226.1720 C   0  0  0  0  0  0  0  0  0  0  0  0
  140.7170   70.3040  226.6390 C   0  0  0  0  0  0  0  0  0  0  0  0
  141.0650   70.0070  227.9330 C   0  0  0  0  0  0  0  0  0  0  0  0
  140.7820   68.7300  228.3830 C   0  0  0  0  0  0  0  0  0  0  0  0
  140.1760   67.7890  227.5780 C   0  0  0  0  0  0  0  0  0  0  0  0
  139.8230   68.0890  226.2660 C   0  0  0  0  0  0  0  0  0  0  0  0
  140.1110   69.3650  225.8310 C   0  0  0  0  0  0  0  0  0  0  0  0
  139.8010   69.7290  224.5810 N   0  0  0  0  0  0  0  0  0  0  0  0
  139.5720   73.4650  223.0730 H   0  0  0  0  0  0  0  0  0  0  0  0
  139.9472   72.5486  220.3360 H   0  0  0  0  0  0  0  0  0  0  0  0
  138.1796   72.5197  220.7760 H   0  0  0  0  0  0  0  0  0  0  0  0
  139.7981   76.3566  222.5467 H   0  0  0  0  0  0  0  0  0  0  0  0
  141.3224   75.4582  222.6324 H   0  0  0  0  0  0  0  0  0  0  0  0
  140.7754   78.1383  221.4360 H   0  0  0  0  0  0  0  0  0  0  0  0
  142.3414   77.4438  221.8512 H   0  0  0  0  0  0  0  0  0  0  0  0
  140.8747   77.4073  219.2476 H   0  0  0  0  0  0  0  0  0  0  0  0
  142.5882   77.1251  219.5163 H   0  0  0  0  0  0  0  0  0  0  0  0
  141.0737   75.0589  218.8209 H   0  0  0  0  0  0  0  0  0  0  0  0
  141.1387   72.8397  220.4770 H   0  0  0  0  0  0  0  0  0  0  0  0
  142.9148   71.2561  221.0552 H   0  0  0  0  0  0  0  0  0  0  0  0
  145.3020   71.9578  221.1107 H   0  0  0  0  0  0  0  0  0  0  0  0
  146.5850   74.7430  219.7310 H   0  0  0  0  0  0  0  0  0  0  0  0
  144.0476   75.9292  219.9737 H   0  0  0  0  0  0  0  0  0  0  0  0
  140.8600   72.8953  224.4829 H   0  0  0  0  0  0  0  0  0  0  0  0
  141.4739   72.3148  226.8228 H   0  0  0  0  0  0  0  0  0  0  0  0
  141.5475   70.7514  228.5834 H   0  0  0  0  0  0  0  0  0  0  0  0
  141.0486   68.4569  229.4147 H   0  0  0  0  0  0  0  0  0  0  0  0
  139.9684   66.7859  227.9790 H   0  0  0  0  0  0  0  0  0  0  0  0
  139.3404   67.3483  225.6115 H   0  0  0  0  0  0  0  0  0  0  0  0
  1  2  2  0
  2  3  1  0
  3  4  1  0
  4  5  1  0
  5  6  2  0
  5  7  1  0
  7  8  1  0
  8  9  1  0
  9 10  1  0
 10 11  1  0
 11 12  1  0
 12 13  2  0
 13 14  1  0
 14 15  2  0
 15 16  1  0
 16 17  1  0
 16 18  2  0
  2 19  1  0
 19 20  2  0
 20 21  1  0
 21 22  2  0
 22 23  1  0
 23 24  2  0
 24 25  1  0
 25 26  2  0
 26 27  1  0
 27 28  2  0
 11  7  1  0
 18 12  1  0
 28 19  1  0
 27 22  1  0
  3 29  1  0
  4 30  1  0
  4 31  1  0
  8 32  1  0
  8 33  1  0
  9 34  1  0
  9 35  1  0
 10 36  1  0
 10 37  1  0
 11 38  1  6
 13 39  1  0
 14 40  1  0
 15 41  1  0
 17 42  1  0
 18 43  1  0
 20 44  1  0
 21 45  1  0
 23 46  1  0
 24 47  1  0
 25 48  1  0
 26 49  1  0
M  END
>  <smiles>  (78) 
O=C(NCC(=O)N1CCCC1c1cccc(O)c1)c1ccc2ccccc2n1

>  <score_type>  (78) 
oracle

>  <origin>  (78) 
autodockgpu

>  <m_score__min__energy>  (78) 
-9

>  <m_primary>  (78) 
energy

>  <rmsd>  (78) 
3.514808296044535

>  <m_score__min__rmsd>  (78) 
3.514808296044535

>  <meeko>  (78) 
{"free_energy": -8.05, "intermolecular_energy": -9.84, "internal_energy": -1.38, "cluster_size": 16, "cluster_id": 2, "rank_in_cluster": 14}

>  <energy>  (78) 
-8.05

>  <cluster_rmsd>  (78) 
1.45

>  <cluster>  (78) 
2

$$$$

     RDKit          3D

 49 52  0  0  0  0  0  0  0  0999 V2000
  137.6810   75.8140  222.6690 O   0  0  0  0  0  0  0  0  0  0  0  0
  138.9000   76.1100  222.4640 C   0  0  0  0  0  0  0  0  0  0  0  0
  139.7160   75.0440  221.9770 N   0  0  0  0  0  0  0  0  0  0  0  0
  139.0850   73.7690  221.7740 C   0  0  0  0  0  0  0  0  0  0  0  0
  139.8730   72.6400  222.3320 C   0  0  0  0  0  0  0  0  0  0  0  0
  141.0970   72.8020  222.5380 O   0  0  0  0  0  0  0  0  0  0  0  0
  139.1720   71.4330  222.5970 N   0  0  0  0  0  0  0  0  0  0  0  0
  139.0600   70.2290  221.7910 C   0  0  0  0  0  0  0  0  0  0  0  0
  137.6410   69.6930  222.0250 C   0  0  0  0  0  0  0  0  0  0  0  0
  137.1220   70.4780  223.2120 C   0  0  0  0  0  0  0  0  0  0  0  0
  138.3610   71.1140  223.8000 C   0  0  1  0  0  0  0  0  0  0  0  0
  139.1160   70.2780  224.7280 C   0  0  0  0  0  0  0  0  0  0  0  0
  140.2960   70.8170  225.2560 C   0  0  0  0  0  0  0  0  0  0  0  0
  141.0850   70.1150  226.1430 C   0  0  0  0  0  0  0  0  0  0  0  0
  140.7540   68.8430  226.5570 C   0  0  0  0  0  0  0  0  0  0  0  0
  139.5960   68.2990  226.0470 C   0  0  0  0  0  0  0  0  0  0  0  0
  139.2400   67.0170  226.4500 O   0  0  0  0  0  0  0  0  0  0  0  0
  138.7960   69.0130  225.1460 C   0  0  0  0  0  0  0  0  0  0  0  0
  139.4320   77.4450  222.7070 C   0  0  0  0  0  0  0  0  0  0  0  0
  138.5250   78.4740  222.8460 C   0  0  0  0  0  0  0  0  0  0  0  0
  138.9730   79.7550  223.0780 C   0  0  0  0  0  0  0  0  0  0  0  0
  140.3300   79.9780  223.1650 C   0  0  0  0  0  0  0  0  0  0  0  0
  140.7560   81.2630  223.3950 C   0  0  0  0  0  0  0  0  0  0  0  0
  142.1210   81.4660  223.4790 C   0  0  0  0  0  0  0  0  0  0  0  0
  143.0250   80.4340  223.3400 C   0  0  0  0  0  0  0  0  0  0  0  0
  142.5940   79.1320  223.1050 C   0  0  0  0  0  0  0  0  0  0  0  0
  141.2310   78.9440  223.0240 C   0  0  0  0  0  0  0  0  0  0  0  0
  140.7390   77.7190  222.8010 N   0  0  0  0  0  0  0  0  0  0  0  0
  140.7400   75.2060  221.7800 H   0  0  0  0  0  0  0  0  0  0  0  0
  138.0989   73.7836  222.2611 H   0  0  0  0  0  0  0  0  0  0  0  0
  139.0024   73.6100  220.6887 H   0  0  0  0  0  0  0  0  0  0  0  0
  139.2083   70.4662  220.7272 H   0  0  0  0  0  0  0  0  0  0  0  0
  139.8220   69.4860  222.0690 H   0  0  0  0  0  0  0  0  0  0  0  0
  137.0106   69.8661  221.1403 H   0  0  0  0  0  0  0  0  0  0  0  0
  137.6317   68.6084  222.2082 H   0  0  0  0  0  0  0  0  0  0  0  0
  136.4039   71.2461  222.8890 H   0  0  0  0  0  0  0  0  0  0  0  0
  136.5863   69.8462  223.9358 H   0  0  0  0  0  0  0  0  0  0  0  0
  138.0906   71.9781  224.4247 H   0  0  0  0  0  0  0  0  0  0  0  0
  140.6023   71.8295  224.9545 H   0  0  0  0  0  0  0  0  0  0  0  0
  142.0024   70.5826  226.5300 H   0  0  0  0  0  0  0  0  0  0  0  0
  141.3869   68.2865  227.2639 H   0  0  0  0  0  0  0  0  0  0  0  0
  139.7250   66.5500  227.2160 H   0  0  0  0  0  0  0  0  0  0  0  0
  137.8795   68.5421  224.7608 H   0  0  0  0  0  0  0  0  0  0  0  0
  137.4462   78.2720  222.7717 H   0  0  0  0  0  0  0  0  0  0  0  0
  138.2606   80.5854  223.1919 H   0  0  0  0  0  0  0  0  0  0  0  0
  140.0434   82.0934  223.5074 H   0  0  0  0  0  0  0  0  0  0  0  0
  142.4979   82.4830  223.6625 H   0  0  0  0  0  0  0  0  0  0  0  0
  144.1023   80.6430  223.4160 H   0  0  0  0  0  0  0  0  0  0  0  0
  143.3024   78.2983  222.9901 H   0  0  0  0  0  0  0  0  0  0  0  0
  1  2  2  0
  2  3  1  0
  3  4  1  0
  4  5  1  0
  5  6  2  0
  5  7  1  0
  7  8  1  0
  8  9  1  0
  9 10  1  0
 10 11  1  0
 11 12  1  0
 12 13  2  0
 13 14  1  0
 14 15  2  0
 15 16  1  0
 16 17  1  0
 16 18  2  0
  2 19  1  0
 19 20  2  0
 20 21  1  0
 21 22  2  0
 22 23  1  0
 23 24  2  0
 24 25  1  0
 25 26  2  0
 26 27  1  0
 27 28  2  0
 11  7  1  0
 18 12  1  0
 28 19  1  0
 27 22  1  0
  3 29  1  0
  4 30  1  0
  4 31  1  0
  8 32  1  0
  8 33  1  0
  9 34  1  0
  9 35  1  0
 10 36  1  0
 10 37  1  0
 11 38  1  1
 13 39  1  0
 14 40  1  0
 15 41  1  0
 17 42  1  0
 18 43  1  0
 20 44  1  0
 21 45  1  0
 23 46  1  0
 24 47  1  0
 25 48  1  0
 26 49  1  0
M  END
>  <smiles>  (79) 
O=C(NCC(=O)N1CCCC1c1cccc(O)c1)c1ccc2ccccc2n1

>  <score_type>  (79) 
oracle

>  <origin>  (79) 
autodockgpu

>  <m_score__min__energy>  (79) 
-9

>  <m_primary>  (79) 
energy

>  <rmsd>  (79) 
8.960566951308241

>  <m_score__min__rmsd>  (79) 
8.960566951308241

>  <meeko>  (79) 
{"free_energy": -8.41, "intermolecular_energy": -10.2, "internal_energy": -1.5, "cluster_size": 14, "cluster_id": 1, "rank_in_cluster": 9}

>  <energy>  (79) 
-7.4

>  <cluster_rmsd>  (79) 
1.5

>  <cluster>  (79) 
2

$$$$

     RDKit          3D

 49 52  0  0  0  0  0  0  0  0999 V2000
  140.6680   71.1480  221.3340 O   0  0  0  0  0  0  0  0  0  0  0  0
  140.2800   71.7440  222.3890 C   0  0  0  0  0  0  0  0  0  0  0  0
  139.9420   73.1220  222.2240 N   0  0  0  0  0  0  0  0  0  0  0  0
  140.0730   73.6810  220.9070 C   0  0  0  0  0  0  0  0  0  0  0  0
  140.3810   75.1350  220.9260 C   0  0  0  0  0  0  0  0  0  0  0  0
  140.1990   75.7760  221.9850 O   0  0  0  0  0  0  0  0  0  0  0  0
  140.8700   75.7060  219.7200 N   0  0  0  0  0  0  0  0  0  0  0  0
  140.2080   75.8680  218.4370 C   0  0  0  0  0  0  0  0  0  0  0  0
  141.2970   75.6750  217.3720 C   0  0  0  0  0  0  0  0  0  0  0  0
  142.6010   75.7140  218.1420 C   0  0  0  0  0  0  0  0  0  0  0  0
  142.2150   76.2880  219.4860 C   0  0  1  0  0  0  0  0  0  0  0  0
  142.1710   77.7450  219.5560 C   0  0  0  0  0  0  0  0  0  0  0  0
  141.6630   78.3110  220.7330 C   0  0  0  0  0  0  0  0  0  0  0  0
  141.5770   79.6760  220.9070 C   0  0  0  0  0  0  0  0  0  0  0  0
  141.9870   80.5590  219.9300 C   0  0  0  0  0  0  0  0  0  0  0  0
  142.4890   80.0180  218.7670 C   0  0  0  0  0  0  0  0  0  0  0  0
  142.9100   80.8860  217.7670 O   0  0  0  0  0  0  0  0  0  0  0  0
  142.5750   78.6300  218.5920 C   0  0  0  0  0  0  0  0  0  0  0  0
  140.1860   71.0710  223.6770 C   0  0  0  0  0  0  0  0  0  0  0  0
  139.5390   69.8540  223.7120 C   0  0  0  0  0  0  0  0  0  0  0  0
  139.4220   69.1750  224.9040 C   0  0  0  0  0  0  0  0  0  0  0  0
  139.9590   69.7340  226.0430 C   0  0  0  0  0  0  0  0  0  0  0  0
  139.8300   69.0410  227.2210 C   0  0  0  0  0  0  0  0  0  0  0  0
  140.3760   69.6190  228.3530 C   0  0  0  0  0  0  0  0  0  0  0  0
  141.0230   70.8360  228.3130 C   0  0  0  0  0  0  0  0  0  0  0  0
  141.1530   71.5400  227.1190 C   0  0  0  0  0  0  0  0  0  0  0  0
  140.6050   70.9520  226.0000 C   0  0  0  0  0  0  0  0  0  0  0  0
  140.6900   71.5680  224.8140 N   0  0  0  0  0  0  0  0  0  0  0  0
  139.6100   73.6890  223.0490 H   0  0  0  0  0  0  0  0  0  0  0  0
  140.8850   73.1567  220.3819 H   0  0  0  0  0  0  0  0  0  0  0  0
  139.1073   73.5539  220.3959 H   0  0  0  0  0  0  0  0  0  0  0  0
  139.4175   75.1126  218.3167 H   0  0  0  0  0  0  0  0  0  0  0  0
  139.7310   76.8555  218.3514 H   0  0  0  0  0  0  0  0  0  0  0  0
  141.1754   74.7068  216.8642 H   0  0  0  0  0  0  0  0  0  0  0  0
  141.2536   76.4461  216.5887 H   0  0  0  0  0  0  0  0  0  0  0  0
  143.0192   74.7028  218.2542 H   0  0  0  0  0  0  0  0  0  0  0  0
  143.3749   76.3084  217.6343 H   0  0  0  0  0  0  0  0  0  0  0  0
  142.9709   76.0366  220.2446 H   0  0  0  0  0  0  0  0  0  0  0  0
  141.3230   77.6470  221.5414 H   0  0  0  0  0  0  0  0  0  0  0  0
  141.1707   80.0712  221.8497 H   0  0  0  0  0  0  0  0  0  0  0  0
  141.9162   81.6473  220.0733 H   0  0  0  0  0  0  0  0  0  0  0  0
  143.5650   80.5840  217.0460 H   0  0  0  0  0  0  0  0  0  0  0  0
  142.9810   78.2380  217.6478 H   0  0  0  0  0  0  0  0  0  0  0  0
  139.1175   69.4267  222.7902 H   0  0  0  0  0  0  0  0  0  0  0  0
  138.9087   68.2030  224.9462 H   0  0  0  0  0  0  0  0  0  0  0  0
  139.3155   68.0696  227.2629 H   0  0  0  0  0  0  0  0  0  0  0  0
  140.2914   69.0915  229.3146 H   0  0  0  0  0  0  0  0  0  0  0  0
  141.4428   71.2570  229.2385 H   0  0  0  0  0  0  0  0  0  0  0  0
  141.6651   72.5124  227.0716 H   0  0  0  0  0  0  0  0  0  0  0  0
  1  2  2  0
  2  3  1  0
  3  4  1  0
  4  5  1  0
  5  6  2  0
  5  7  1  0
  7  8  1  0
  8  9  1  0
  9 10  1  0
 10 11  1  0
 11 12  1  0
 12 13  2  0
 13 14  1  0
 14 15  2  0
 15 16  1  0
 16 17  1  0
 16 18  2  0
  2 19  1  0
 19 20  2  0
 20 21  1  0
 21 22  2  0
 22 23  1  0
 23 24  2  0
 24 25  1  0
 25 26  2  0
 26 27  1  0
 27 28  2  0
 11  7  1  0
 18 12  1  0
 28 19  1  0
 27 22  1  0
  3 29  1  0
  4 30  1  0
  4 31  1  0
  8 32  1  0
  8 33  1  0
  9 34  1  0
  9 35  1  0
 10 36  1  0
 10 37  1  0
 11 38  1  1
 13 39  1  0
 14 40  1  0
 15 41  1  0
 17 42  1  0
 18 43  1  0
 20 44  1  0
 21 45  1  0
 23 46  1  0
 24 47  1  0
 25 48  1  0
 26 49  1  0
M  END
>  <smiles>  (80) 
O=C(NCC(=O)N1CCCC1c1cccc(O)c1)c1ccc2ccccc2n1

>  <score_type>  (80) 
oracle

>  <origin>  (80) 
autodockgpu

>  <m_score__min__energy>  (80) 
-9

>  <m_primary>  (80) 
energy

>  <rmsd>  (80) 
2.2810498961669152

>  <m_score__min__rmsd>  (80) 
2.2810498961669152

>  <meeko>  (80) 
{"free_energy": -7.95, "intermolecular_energy": -9.74, "internal_energy": -1.47, "cluster_size": 9, "cluster_id": 4, "rank_in_cluster": 7}

>  <energy>  (80) 
-7.14

>  <cluster_rmsd>  (80) 
1.66

>  <cluster>  (80) 
2

$$$$

     RDKit          3D

 49 52  0  0  0  0  0  0  0  0999 V2000
  139.7910   73.3820  222.4480 O   0  0  0  0  0  0  0  0  0  0  0  0
  140.1810   72.1720  222.4850 C   0  0  0  0  0  0  0  0  0  0  0  0
  140.6210   71.6330  221.2380 N   0  0  0  0  0  0  0  0  0  0  0  0
  140.5780   72.4980  220.0920 C   0  0  0  0  0  0  0  0  0  0  0  0
  141.9180   73.0140  219.7090 C   0  0  0  0  0  0  0  0  0  0  0  0
  142.8920   72.2280  219.7180 O   0  0  0  0  0  0  0  0  0  0  0  0
  142.0030   74.3870  219.3530 N   0  0  0  0  0  0  0  0  0  0  0  0
  141.4880   75.0750  218.1820 C   0  0  0  0  0  0  0  0  0  0  0  0
  142.5140   76.1660  217.8460 C   0  0  0  0  0  0  0  0  0  0  0  0
  143.4220   76.2280  219.0580 C   0  0  0  0  0  0  0  0  0  0  0  0
  142.6610   75.4720  220.1230 C   0  0  1  0  0  0  0  0  0  0  0  0
  141.6770   76.2540  220.8660 C   0  0  0  0  0  0  0  0  0  0  0  0
  141.8060   77.6480  220.8220 C   0  0  0  0  0  0  0  0  0  0  0  0
  140.9320   78.4820  221.4850 C   0  0  0  0  0  0  0  0  0  0  0  0
  139.8810   77.9870  222.2290 C   0  0  0  0  0  0  0  0  0  0  0  0
  139.7410   76.6180  222.2820 C   0  0  0  0  0  0  0  0  0  0  0  0
  138.6900   76.0940  223.0240 O   0  0  0  0  0  0  0  0  0  0  0  0
  140.6310   75.7720  221.6070 C   0  0  0  0  0  0  0  0  0  0  0  0
  140.1790   71.3870  223.7120 C   0  0  0  0  0  0  0  0  0  0  0  0
  139.6870   70.1000  223.6420 C   0  0  0  0  0  0  0  0  0  0  0  0
  139.6630   69.3150  224.7720 C   0  0  0  0  0  0  0  0  0  0  0  0
  140.1350   69.8380  225.9560 C   0  0  0  0  0  0  0  0  0  0  0  0
  140.1010   69.0380  227.0700 C   0  0  0  0  0  0  0  0  0  0  0  0
  140.5790   69.5810  228.2490 C   0  0  0  0  0  0  0  0  0  0  0  0
  141.0700   70.8670  228.3150 C   0  0  0  0  0  0  0  0  0  0  0  0
  141.1040   71.6800  227.1850 C   0  0  0  0  0  0  0  0  0  0  0  0
  140.6250   71.1250  226.0180 C   0  0  0  0  0  0  0  0  0  0  0  0
  140.6260   71.8440  224.8890 N   0  0  0  0  0  0  0  0  0  0  0  0
  140.9610   70.6350  221.1820 H   0  0  0  0  0  0  0  0  0  0  0  0
  140.1620   71.9359  219.2429 H   0  0  0  0  0  0  0  0  0  0  0  0
  139.9523   73.3639  220.3541 H   0  0  0  0  0  0  0  0  0  0  0  0
  141.3866   74.3737  217.3406 H   0  0  0  0  0  0  0  0  0  0  0  0
  140.4927   75.5031  218.3719 H   0  0  0  0  0  0  0  0  0  0  0  0
  143.0863   75.8962  216.9462 H   0  0  0  0  0  0  0  0  0  0  0  0
  142.0370   77.1342  217.6338 H   0  0  0  0  0  0  0  0  0  0  0  0
  144.3872   75.7437  218.8488 H   0  0  0  0  0  0  0  0  0  0  0  0
  143.6585   77.2596  219.3579 H   0  0  0  0  0  0  0  0  0  0  0  0
  143.3430   75.1334  220.9169 H   0  0  0  0  0  0  0  0  0  0  0  0
  142.6290   78.0900  220.2412 H   0  0  0  0  0  0  0  0  0  0  0  0
  141.0761   79.5705  221.4193 H   0  0  0  0  0  0  0  0  0  0  0  0
  139.1855   78.6562  222.7566 H   0  0  0  0  0  0  0  0  0  0  0  0
  138.6040   75.0900  223.1830 H   0  0  0  0  0  0  0  0  0  0  0  0
  140.4845   74.6839  221.6746 H   0  0  0  0  0  0  0  0  0  0  0  0
  139.3151   69.7026  222.6861 H   0  0  0  0  0  0  0  0  0  0  0  0
  139.2735   68.2871  224.7306 H   0  0  0  0  0  0  0  0  0  0  0  0
  139.7109   68.0104  227.0275 H   0  0  0  0  0  0  0  0  0  0  0  0
  140.5668   68.9675  229.1619 H   0  0  0  0  0  0  0  0  0  0  0  0
  141.4405   71.2570  229.2745 H   0  0  0  0  0  0  0  0  0  0  0  0
  141.4919   72.7087  227.2218 H   0  0  0  0  0  0  0  0  0  0  0  0
  1  2  2  0
  2  3  1  0
  3  4  1  0
  4  5  1  0
  5  6  2  0
  5  7  1  0
  7  8  1  0
  8  9  1  0
  9 10  1  0
 10 11  1  0
 11 12  1  0
 12 13  2  0
 13 14  1  0
 14 15  2  0
 15 16  1  0
 16 17  1  0
 16 18  2  0
  2 19  1  0
 19 20  2  0
 20 21  1  0
 21 22  2  0
 22 23  1  0
 23 24  2  0
 24 25  1  0
 25 26  2  0
 26 27  1  0
 27 28  2  0
 11  7  1  0
 18 12  1  0
 28 19  1  0
 27 22  1  0
  3 29  1  0
  4 30  1  0
  4 31  1  0
  8 32  1  0
  8 33  1  0
  9 34  1  0
  9 35  1  0
 10 36  1  0
 10 37  1  0
 11 38  1  1
 13 39  1  0
 14 40  1  0
 15 41  1  0
 17 42  1  0
 18 43  1  0
 20 44  1  0
 21 45  1  0
 23 46  1  0
 24 47  1  0
 25 48  1  0
 26 49  1  0
M  END
>  <smiles>  (81) 
O=C(NCC(=O)N1CCCC1c1cccc(O)c1)c1ccc2ccccc2n1

>  <score_type>  (81) 
oracle

>  <origin>  (81) 
autodockgpu

>  <m_score__min__energy>  (81) 
-9

>  <m_primary>  (81) 
energy

>  <rmsd>  (81) 
3.0857695440385897

>  <m_score__min__rmsd>  (81) 
3.0857695440385897

>  <meeko>  (81) 
{"free_energy": -7.7, "intermolecular_energy": -9.49, "internal_energy": -1.92, "cluster_size": 9, "cluster_id": 4, "rank_in_cluster": 9}

>  <energy>  (81) 
-8.72

>  <cluster_rmsd>  (81) 
0.0

>  <cluster>  (81) 
3

$$$$

     RDKit          3D

 49 52  0  0  0  0  0  0  0  0999 V2000
  141.0500   74.5630  221.3930 O   0  0  0  0  0  0  0  0  0  0  0  0
  140.0760   75.1240  221.9870 C   0  0  0  0  0  0  0  0  0  0  0  0
  138.9640   74.2750  222.2740 N   0  0  0  0  0  0  0  0  0  0  0  0
  139.0610   72.9000  221.8710 C   0  0  0  0  0  0  0  0  0  0  0  0
  138.0670   72.0280  222.5500 C   0  0  0  0  0  0  0  0  0  0  0  0
  136.9400   72.4990  222.8240 O   0  0  0  0  0  0  0  0  0  0  0  0
  138.4710   70.6990  222.8460 N   0  0  0  0  0  0  0  0  0  0  0  0
  139.3870   69.8270  222.1300 C   0  0  0  0  0  0  0  0  0  0  0  0
  138.8240   68.4070  222.2790 C   0  0  0  0  0  0  0  0  0  0  0  0
  137.7590   68.5240  223.3490 C   0  0  0  0  0  0  0  0  0  0  0  0
  138.0330   69.8640  223.9930 C   0  0  1  0  0  0  0  0  0  0  0  0
  139.0420   69.8590  225.0470 C   0  0  0  0  0  0  0  0  0  0  0  0
  139.7940   71.0290  225.2150 C   0  0  0  0  0  0  0  0  0  0  0  0
  140.7720   71.1340  226.1810 C   0  0  0  0  0  0  0  0  0  0  0  0
  141.0620   70.0920  227.0350 C   0  0  0  0  0  0  0  0  0  0  0  0
  140.3310   68.9350  226.8840 C   0  0  0  0  0  0  0  0  0  0  0  0
  140.6030   67.8700  227.7330 O   0  0  0  0  0  0  0  0  0  0  0  0
  139.3380   68.8300  225.9010 C   0  0  0  0  0  0  0  0  0  0  0  0
  140.0880   76.5350  222.3490 C   0  0  0  0  0  0  0  0  0  0  0  0
  138.8690   77.1660  222.4860 C   0  0  0  0  0  0  0  0  0  0  0  0
  138.8230   78.4980  222.8270 C   0  0  0  0  0  0  0  0  0  0  0  0
  140.0060   79.1760  223.0250 C   0  0  0  0  0  0  0  0  0  0  0  0
  139.9370   80.5040  223.3640 C   0  0  0  0  0  0  0  0  0  0  0  0
  141.1360   81.1660  223.5570 C   0  0  0  0  0  0  0  0  0  0  0  0
  142.3520   80.5320  223.4190 C   0  0  0  0  0  0  0  0  0  0  0  0
  142.4230   79.1850  223.0750 C   0  0  0  0  0  0  0  0  0  0  0  0
  141.2210   78.5380  222.8860 C   0  0  0  0  0  0  0  0  0  0  0  0
  141.2070   77.2420  222.5530 N   0  0  0  0  0  0  0  0  0  0  0  0
  138.1140   74.6620  222.7660 H   0  0  0  0  0  0  0  0  0  0  0  0
  138.8971   72.8399  220.7850 H   0  0  0  0  0  0  0  0  0  0  0  0
  140.0622   72.5425  222.1536 H   0  0  0  0  0  0  0  0  0  0  0  0
  139.4329   70.1103  221.0681 H   0  0  0  0  0  0  0  0  0  0  0  0
  140.4085   69.8993  222.5316 H   0  0  0  0  0  0  0  0  0  0  0  0
  138.3848   68.0627  221.3311 H   0  0  0  0  0  0  0  0  0  0  0  0
  139.6027   67.6773  222.5459 H   0  0  0  0  0  0  0  0  0  0  0  0
  136.7534   68.5026  222.9037 H   0  0  0  0  0  0  0  0  0  0  0  0
  137.7901   67.6937  224.0698 H   0  0  0  0  0  0  0  0  0  0  0  0
  137.1393   70.2274  224.5214 H   0  0  0  0  0  0  0  0  0  0  0  0
  139.5985   71.8887  224.5572 H   0  0  0  0  0  0  0  0  0  0  0  0
  141.3357   72.0742  226.2725 H   0  0  0  0  0  0  0  0  0  0  0  0
  141.8436   70.1808  227.8039 H   0  0  0  0  0  0  0  0  0  0  0  0
  140.2910   66.9240  227.5130 H   0  0  0  0  0  0  0  0  0  0  0  0
  138.7766   67.8882  225.8121 H   0  0  0  0  0  0  0  0  0  0  0  0
  137.9365   76.6058  222.3231 H   0  0  0  0  0  0  0  0  0  0  0  0
  137.8577   79.0132  222.9397 H   0  0  0  0  0  0  0  0  0  0  0  0
  138.9715   81.0189  223.4771 H   0  0  0  0  0  0  0  0  0  0  0  0
  141.1185   82.2317  223.8291 H   0  0  0  0  0  0  0  0  0  0  0  0
  143.2803   81.0989  223.5832 H   0  0  0  0  0  0  0  0  0  0  0  0
  143.3858   78.6655  222.9603 H   0  0  0  0  0  0  0  0  0  0  0  0
  1  2  2  0
  2  3  1  0
  3  4  1  0
  4  5  1  0
  5  6  2  0
  5  7  1  0
  7  8  1  0
  8  9  1  0
  9 10  1  0
 10 11  1  0
 11 12  1  0
 12 13  2  0
 13 14  1  0
 14 15  2  0
 15 16  1  0
 16 17  1  0
 16 18  2  0
  2 19  1  0
 19 20  2  0
 20 21  1  0
 21 22  2  0
 22 23  1  0
 23 24  2  0
 24 25  1  0
 25 26  2  0
 26 27  1  0
 27 28  2  0
 11  7  1  0
 18 12  1  0
 28 19  1  0
 27 22  1  0
  3 29  1  0
  4 30  1  0
  4 31  1  0
  8 32  1  0
  8 33  1  0
  9 34  1  0
  9 35  1  0
 10 36  1  0
 10 37  1  0
 11 38  1  1
 13 39  1  0
 14 40  1  0
 15 41  1  0
 17 42  1  0
 18 43  1  0
 20 44  1  0
 21 45  1  0
 23 46  1  0
 24 47  1  0
 25 48  1  0
 26 49  1  0
M  END
>  <smiles>  (82) 
O=C(NCC(=O)N1CCCC1c1cccc(O)c1)c1ccc2ccccc2n1

>  <score_type>  (82) 
oracle

>  <origin>  (82) 
autodockgpu

>  <m_score__min__energy>  (82) 
-9

>  <m_primary>  (82) 
energy

>  <rmsd>  (82) 
8.876546620669988

>  <m_score__min__rmsd>  (82) 
8.876546620669988

>  <meeko>  (82) 
{"free_energy": -8.15, "intermolecular_energy": -9.94, "internal_energy": -1.4, "cluster_size": 14, "cluster_id": 1, "rank_in_cluster": 14}

>  <energy>  (82) 
-8.62

>  <cluster_rmsd>  (82) 
0.45

>  <cluster>  (82) 
3

$$$$

     RDKit          3D

 49 52  0  0  0  0  0  0  0  0999 V2000
  137.6410   75.8040  222.4340 O   0  0  0  0  0  0  0  0  0  0  0  0
  138.8820   76.0750  222.3730 C   0  0  0  0  0  0  0  0  0  0  0  0
  139.7290   74.9840  222.0100 N   0  0  0  0  0  0  0  0  0  0  0  0
  139.1020   73.7170  221.7560 C   0  0  0  0  0  0  0  0  0  0  0  0
  139.8620   72.5730  222.3230 C   0  0  0  0  0  0  0  0  0  0  0  0
  141.0960   72.6940  222.4940 O   0  0  0  0  0  0  0  0  0  0  0  0
  139.1230   71.4000  222.6370 N   0  0  0  0  0  0  0  0  0  0  0  0
  138.9900   70.1610  221.8910 C   0  0  0  0  0  0  0  0  0  0  0  0
  137.5540   69.6750  222.1290 C   0  0  0  0  0  0  0  0  0  0  0  0
  137.0400   70.5330  223.2670 C   0  0  0  0  0  0  0  0  0  0  0  0
  138.2870   71.1640  223.8410 C   0  0  1  0  0  0  0  0  0  0  0  0
  139.0050   70.3560  224.8220 C   0  0  0  0  0  0  0  0  0  0  0  0
  140.0730   70.9670  225.4930 C   0  0  0  0  0  0  0  0  0  0  0  0
  140.8170   70.2970  226.4390 C   0  0  0  0  0  0  0  0  0  0  0  0
  140.5520   68.9870  226.7770 C   0  0  0  0  0  0  0  0  0  0  0  0
  139.5040   68.3720  226.1260 C   0  0  0  0  0  0  0  0  0  0  0  0
  139.2150   67.0520  226.4490 O   0  0  0  0  0  0  0  0  0  0  0  0
  138.7490   69.0550  225.1650 C   0  0  0  0  0  0  0  0  0  0  0  0
  139.4070   77.4050  222.6540 C   0  0  0  0  0  0  0  0  0  0  0  0
  138.4950   78.4240  222.8280 C   0  0  0  0  0  0  0  0  0  0  0  0
  138.9370   79.7000  223.0950 C   0  0  0  0  0  0  0  0  0  0  0  0
  140.2930   79.9290  223.1840 C   0  0  0  0  0  0  0  0  0  0  0  0
  140.7120   81.2080  223.4510 C   0  0  0  0  0  0  0  0  0  0  0  0
  142.0770   81.4170  223.5360 C   0  0  0  0  0  0  0  0  0  0  0  0
  142.9850   80.3950  223.3630 C   0  0  0  0  0  0  0  0  0  0  0  0
  142.5610   79.0980  223.0910 C   0  0  0  0  0  0  0  0  0  0  0  0
  141.1990   78.9040  223.0100 C   0  0  0  0  0  0  0  0  0  0  0  0
  140.7130   77.6830  222.7520 N   0  0  0  0  0  0  0  0  0  0  0  0
  140.7720   75.1240  221.9360 H   0  0  0  0  0  0  0  0  0  0  0  0
  138.0968   73.7268  222.2027 H   0  0  0  0  0  0  0  0  0  0  0  0
  139.0633   73.5801  220.6652 H   0  0  0  0  0  0  0  0  0  0  0  0
  139.1600   70.3403  220.8191 H   0  0  0  0  0  0  0  0  0  0  0  0
  139.7275   69.4132  222.2179 H   0  0  0  0  0  0  0  0  0  0  0  0
  136.9412   69.8196  221.2270 H   0  0  0  0  0  0  0  0  0  0  0  0
  137.5123   68.6016  222.3659 H   0  0  0  0  0  0  0  0  0  0  0  0
  136.3481   71.3028  222.8946 H   0  0  0  0  0  0  0  0  0  0  0  0
  136.4768   69.9534  224.0133 H   0  0  0  0  0  0  0  0  0  0  0  0
  138.0321   72.0658  224.4170 H   0  0  0  0  0  0  0  0  0  0  0  0
  140.3243   72.0117  225.2574 H   0  0  0  0  0  0  0  0  0  0  0  0
  141.6451   70.8214  226.9383 H   0  0  0  0  0  0  0  0  0  0  0  0
  141.1501   68.4562  227.5324 H   0  0  0  0  0  0  0  0  0  0  0  0
  139.6890   66.5800  227.2200 H   0  0  0  0  0  0  0  0  0  0  0  0
  137.9211   68.5282  224.6679 H   0  0  0  0  0  0  0  0  0  0  0  0
  137.4170   78.2180  222.7537 H   0  0  0  0  0  0  0  0  0  0  0  0
  138.2202   80.5226  223.2349 H   0  0  0  0  0  0  0  0  0  0  0  0
  139.9949   82.0302  223.5912 H   0  0  0  0  0  0  0  0  0  0  0  0
  142.4489   82.4302  223.7482 H   0  0  0  0  0  0  0  0  0  0  0  0
  144.0614   80.6078  223.4411 H   0  0  0  0  0  0  0  0  0  0  0  0
  143.2740   78.2726  222.9484 H   0  0  0  0  0  0  0  0  0  0  0  0
  1  2  2  0
  2  3  1  0
  3  4  1  0
  4  5  1  0
  5  6  2  0
  5  7  1  0
  7  8  1  0
  8  9  1  0
  9 10  1  0
 10 11  1  0
 11 12  1  0
 12 13  2  0
 13 14  1  0
 14 15  2  0
 15 16  1  0
 16 17  1  0
 16 18  2  0
  2 19  1  0
 19 20  2  0
 20 21  1  0
 21 22  2  0
 22 23  1  0
 23 24  2  0
 24 25  1  0
 25 26  2  0
 26 27  1  0
 27 28  2  0
 11  7  1  0
 18 12  1  0
 28 19  1  0
 27 22  1  0
  3 29  1  0
  4 30  1  0
  4 31  1  0
  8 32  1  0
  8 33  1  0
  9 34  1  0
  9 35  1  0
 10 36  1  0
 10 37  1  0
 11 38  1  1
 13 39  1  0
 14 40  1  0
 15 41  1  0
 17 42  1  0
 18 43  1  0
 20 44  1  0
 21 45  1  0
 23 46  1  0
 24 47  1  0
 25 48  1  0
 26 49  1  0
M  END
>  <smiles>  (83) 
O=C(NCC(=O)N1CCCC1c1cccc(O)c1)c1ccc2ccccc2n1

>  <score_type>  (83) 
oracle

>  <origin>  (83) 
autodockgpu

>  <m_score__min__energy>  (83) 
-9

>  <m_primary>  (83) 
energy

>  <rmsd>  (83) 
8.938846958666613

>  <m_score__min__rmsd>  (83) 
8.938846958666613

>  <meeko>  (83) 
{"free_energy": -8.42, "intermolecular_energy": -10.21, "internal_energy": -1.52, "cluster_size": 14, "cluster_id": 1, "rank_in_cluster": 8}

>  <energy>  (83) 
-8.33

>  <cluster_rmsd>  (83) 
1.85

>  <cluster>  (83) 
3

$$$$

     RDKit          3D

 49 52  0  0  0  0  0  0  0  0999 V2000
  140.7170   71.0410  221.8810 O   0  0  0  0  0  0  0  0  0  0  0  0
  140.3350   71.6850  222.9080 C   0  0  0  0  0  0  0  0  0  0  0  0
  139.9090   73.0270  222.6660 N   0  0  0  0  0  0  0  0  0  0  0  0
  139.9570   73.5010  221.3100 C   0  0  0  0  0  0  0  0  0  0  0  0
  140.0620   74.9800  221.2200 C   0  0  0  0  0  0  0  0  0  0  0  0
  139.6930   75.6720  222.1960 O   0  0  0  0  0  0  0  0  0  0  0  0
  140.5810   75.5170  220.0110 N   0  0  0  0  0  0  0  0  0  0  0  0
  139.9330   75.7010  218.7240 C   0  0  0  0  0  0  0  0  0  0  0  0
  141.0130   75.4450  217.6650 C   0  0  0  0  0  0  0  0  0  0  0  0
  142.3160   75.4250  218.4380 C   0  0  0  0  0  0  0  0  0  0  0  0
  141.9550   76.0290  219.7760 C   0  0  1  0  0  0  0  0  0  0  0  0
  141.9830   77.4870  219.8360 C   0  0  0  0  0  0  0  0  0  0  0  0
  141.7300   78.0790  221.0800 C   0  0  0  0  0  0  0  0  0  0  0  0
  141.7340   79.4470  221.2490 C   0  0  0  0  0  0  0  0  0  0  0  0
  141.9860   80.3070  220.2020 C   0  0  0  0  0  0  0  0  0  0  0  0
  142.2370   79.7400  218.9710 C   0  0  0  0  0  0  0  0  0  0  0  0
  142.4960   80.5850  217.8990 O   0  0  0  0  0  0  0  0  0  0  0  0
  142.2330   78.3490  218.8010 C   0  0  0  0  0  0  0  0  0  0  0  0
  140.3300   71.0990  224.2420 C   0  0  0  0  0  0  0  0  0  0  0  0
  140.7830   71.8840  225.2820 C   0  0  0  0  0  0  0  0  0  0  0  0
  140.8000   71.3800  226.5630 C   0  0  0  0  0  0  0  0  0  0  0  0
  140.3600   70.0920  226.7760 C   0  0  0  0  0  0  0  0  0  0  0  0
  140.3850   69.6090  228.0610 C   0  0  0  0  0  0  0  0  0  0  0  0
  139.9390   68.3140  228.2540 C   0  0  0  0  0  0  0  0  0  0  0  0
  139.4870   67.5330  227.2120 C   0  0  0  0  0  0  0  0  0  0  0  0
  139.4610   68.0220  225.9090 C   0  0  0  0  0  0  0  0  0  0  0  0
  139.9080   69.3140  225.7310 C   0  0  0  0  0  0  0  0  0  0  0  0
  139.9130   69.8550  224.5070 N   0  0  0  0  0  0  0  0  0  0  0  0
  139.5760   73.6300  223.4650 H   0  0  0  0  0  0  0  0  0  0  0  0
  140.8315   73.0558  220.8129 H   0  0  0  0  0  0  0  0  0  0  0  0
  139.0160   73.2058  220.8227 H   0  0  0  0  0  0  0  0  0  0  0  0
  139.1059   74.9853  218.6069 H   0  0  0  0  0  0  0  0  0  0  0  0
  139.5071   76.7107  218.6286 H   0  0  0  0  0  0  0  0  0  0  0  0
  140.8443   74.4799  217.1649 H   0  0  0  0  0  0  0  0  0  0  0  0
  141.0103   76.2110  216.8755 H   0  0  0  0  0  0  0  0  0  0  0  0
  142.6829   74.3952  218.5598 H   0  0  0  0  0  0  0  0  0  0  0  0
  143.1202   75.9752  217.9276 H   0  0  0  0  0  0  0  0  0  0  0  0
  142.6963   75.7461  220.5378 H   0  0  0  0  0  0  0  0  0  0  0  0
  141.5223   77.4340  221.9465 H   0  0  0  0  0  0  0  0  0  0  0  0
  141.5305   79.8635  222.2465 H   0  0  0  0  0  0  0  0  0  0  0  0
  141.9868   81.3980  220.3425 H   0  0  0  0  0  0  0  0  0  0  0  0
  143.2800   80.4160  217.2700 H   0  0  0  0  0  0  0  0  0  0  0  0
  142.4376   77.9352  217.8025 H   0  0  0  0  0  0  0  0  0  0  0  0
  141.1297   72.9098  225.0883 H   0  0  0  0  0  0  0  0  0  0  0  0
  141.1586   71.9949  227.4017 H   0  0  0  0  0  0  0  0  0  0  0  0
  140.7436   70.2243  228.8994 H   0  0  0  0  0  0  0  0  0  0  0  0
  139.9452   67.8943  229.2708 H   0  0  0  0  0  0  0  0  0  0  0  0
  139.1417   66.5081  227.4131 H   0  0  0  0  0  0  0  0  0  0  0  0
  139.1033   67.4109  225.0672 H   0  0  0  0  0  0  0  0  0  0  0  0
  1  2  2  0
  2  3  1  0
  3  4  1  0
  4  5  1  0
  5  6  2  0
  5  7  1  0
  7  8  1  0
  8  9  1  0
  9 10  1  0
 10 11  1  0
 11 12  1  0
 12 13  2  0
 13 14  1  0
 14 15  2  0
 15 16  1  0
 16 17  1  0
 16 18  2  0
  2 19  1  0
 19 20  2  0
 20 21  1  0
 21 22  2  0
 22 23  1  0
 23 24  2  0
 24 25  1  0
 25 26  2  0
 26 27  1  0
 27 28  2  0
 11  7  1  0
 18 12  1  0
 28 19  1  0
 27 22  1  0
  3 29  1  0
  4 30  1  0
  4 31  1  0
  8 32  1  0
  8 33  1  0
  9 34  1  0
  9 35  1  0
 10 36  1  0
 10 37  1  0
 11 38  1  1
 13 39  1  0
 14 40  1  0
 15 41  1  0
 17 42  1  0
 18 43  1  0
 20 44  1  0
 21 45  1  0
 23 46  1  0
 24 47  1  0
 25 48  1  0
 26 49  1  0
M  END
>  <smiles>  (84) 
O=C(NCC(=O)N1CCCC1c1cccc(O)c1)c1ccc2ccccc2n1

>  <score_type>  (84) 
oracle

>  <origin>  (84) 
autodockgpu

>  <m_score__min__energy>  (84) 
-9

>  <m_primary>  (84) 
energy

>  <rmsd>  (84) 
3.128924393146143

>  <m_score__min__rmsd>  (84) 
3.128924393146143

>  <meeko>  (84) 
{"free_energy": -7.75, "intermolecular_energy": -9.54, "internal_energy": -1.41, "cluster_size": 9, "cluster_id": 4, "rank_in_cluster": 8}

>  <energy>  (84) 
-8.31

>  <cluster_rmsd>  (84) 
1.63

>  <cluster>  (84) 
3

$$$$

     RDKit          3D

 49 52  0  0  0  0  0  0  0  0999 V2000
  140.1600   71.2450  221.2620 O   0  0  0  0  0  0  0  0  0  0  0  0
  139.8500   71.8420  222.3410 C   0  0  0  0  0  0  0  0  0  0  0  0
  139.3960   73.1870  222.1880 N   0  0  0  0  0  0  0  0  0  0  0  0
  139.3370   73.7170  220.8540 C   0  0  0  0  0  0  0  0  0  0  0  0
  139.4920   75.1940  220.8120 C   0  0  0  0  0  0  0  0  0  0  0  0
  138.5170   75.9120  221.1290 O   0  0  0  0  0  0  0  0  0  0  0  0
  140.7570   75.6990  220.4090 N   0  0  0  0  0  0  0  0  0  0  0  0
  141.5250   76.8110  220.9430 C   0  0  0  0  0  0  0  0  0  0  0  0
  142.2330   77.4520  219.7410 C   0  0  0  0  0  0  0  0  0  0  0  0
  142.0580   76.4560  218.6130 C   0  0  0  0  0  0  0  0  0  0  0  0
  141.6150   75.1900  219.3090 C   0  0  1  0  0  0  0  0  0  0  0  0
  142.6900   74.3530  219.8340 C   0  0  0  0  0  0  0  0  0  0  0  0
  142.3310   73.0970  220.3400 C   0  0  0  0  0  0  0  0  0  0  0  0
  143.2650   72.2260  220.8580 C   0  0  0  0  0  0  0  0  0  0  0  0
  144.6060   72.5440  220.9070 C   0  0  0  0  0  0  0  0  0  0  0  0
  144.9750   73.7760  220.4130 C   0  0  0  0  0  0  0  0  0  0  0  0
  146.3210   74.1220  220.4490 O   0  0  0  0  0  0  0  0  0  0  0  0
  144.0240   74.6600  219.8860 C   0  0  0  0  0  0  0  0  0  0  0  0
  139.9510   71.2010  223.6460 C   0  0  0  0  0  0  0  0  0  0  0  0
  139.5280   69.8920  223.7440 C   0  0  0  0  0  0  0  0  0  0  0  0
  139.6010   69.2390  224.9540 C   0  0  0  0  0  0  0  0  0  0  0  0
  140.0990   69.9150  226.0460 C   0  0  0  0  0  0  0  0  0  0  0  0
  140.1620   69.2450  227.2420 C   0  0  0  0  0  0  0  0  0  0  0  0
  140.6650   69.9410  228.3260 C   0  0  0  0  0  0  0  0  0  0  0  0
  141.0880   71.2500  228.2230 C   0  0  0  0  0  0  0  0  0  0  0  0
  141.0230   71.9300  227.0100 C   0  0  0  0  0  0  0  0  0  0  0  0
  140.5200   71.2240  225.9390 C   0  0  0  0  0  0  0  0  0  0  0  0
  140.4270   71.8100  224.7390 N   0  0  0  0  0  0  0  0  0  0  0  0
  139.1190   73.7530  223.0340 H   0  0  0  0  0  0  0  0  0  0  0  0
  140.1432   73.2623  220.2596 H   0  0  0  0  0  0  0  0  0  0  0  0
  138.3436   73.4774  220.4469 H   0  0  0  0  0  0  0  0  0  0  0  0
  140.8574   77.5394  221.4264 H   0  0  0  0  0  0  0  0  0  0  0  0
  142.2457   76.4749  221.7030 H   0  0  0  0  0  0  0  0  0  0  0  0
  141.7662   78.4143  219.4842 H   0  0  0  0  0  0  0  0  0  0  0  0
  143.2925   77.6638  219.9475 H   0  0  0  0  0  0  0  0  0  0  0  0
  141.2919   76.8003  217.9027 H   0  0  0  0  0  0  0  0  0  0  0  0
  142.9770   76.3165  218.0248 H   0  0  0  0  0  0  0  0  0  0  0  0
  141.1137   74.5159  218.5989 H   0  0  0  0  0  0  0  0  0  0  0  0
  141.2728   72.7972  220.3234 H   0  0  0  0  0  0  0  0  0  0  0  0
  142.9319   71.2508  221.2428 H   0  0  0  0  0  0  0  0  0  0  0  0
  145.3476   71.8455  221.3218 H   0  0  0  0  0  0  0  0  0  0  0  0
  146.7060   74.8130  219.8060 H   0  0  0  0  0  0  0  0  0  0  0  0
  144.3602   75.6340  219.5008 H   0  0  0  0  0  0  0  0  0  0  0  0
  139.1337   69.3715  222.8588 H   0  0  0  0  0  0  0  0  0  0  0  0
  139.2672   68.1950  225.0471 H   0  0  0  0  0  0  0  0  0  0  0  0
  139.8274   68.2012  227.3343 H   0  0  0  0  0  0  0  0  0  0  0  0
  140.7298   69.4351  229.3006 H   0  0  0  0  0  0  0  0  0  0  0  0
  141.4823   71.7638  229.1121 H   0  0  0  0  0  0  0  0  0  0  0  0
  141.3551   72.9741  226.9119 H   0  0  0  0  0  0  0  0  0  0  0  0
  1  2  2  0
  2  3  1  0
  3  4  1  0
  4  5  1  0
  5  6  2  0
  5  7  1  0
  7  8  1  0
  8  9  1  0
  9 10  1  0
 10 11  1  0
 11 12  1  0
 12 13  2  0
 13 14  1  0
 14 15  2  0
 15 16  1  0
 16 17  1  0
 16 18  2  0
  2 19  1  0
 19 20  2  0
 20 21  1  0
 21 22  2  0
 22 23  1  0
 23 24  2  0
 24 25  1  0
 25 26  2  0
 26 27  1  0
 27 28  2  0
 11  7  1  0
 18 12  1  0
 28 19  1  0
 27 22  1  0
  3 29  1  0
  4 30  1  0
  4 31  1  0
  8 32  1  0
  8 33  1  0
  9 34  1  0
  9 35  1  0
 10 36  1  0
 10 37  1  0
 11 38  1  6
 13 39  1  0
 14 40  1  0
 15 41  1  0
 17 42  1  0
 18 43  1  0
 20 44  1  0
 21 45  1  0
 23 46  1  0
 24 47  1  0
 25 48  1  0
 26 49  1  0
M  END
>  <smiles>  (85) 
O=C(NCC(=O)N1CCCC1c1cccc(O)c1)c1ccc2ccccc2n1

>  <score_type>  (85) 
oracle

>  <origin>  (85) 
autodockgpu

>  <m_score__min__energy>  (85) 
-9

>  <m_primary>  (85) 
energy

>  <rmsd>  (85) 
2.81440204979973

>  <m_score__min__rmsd>  (85) 
2.81440204979973

>  <meeko>  (85) 
{"free_energy": -8.19, "intermolecular_energy": -9.98, "internal_energy": -1.5, "cluster_size": 16, "cluster_id": 2, "rank_in_cluster": 13}

>  <energy>  (85) 
-8.29

>  <cluster_rmsd>  (85) 
1.89

>  <cluster>  (85) 
3

$$$$

     RDKit          3D

 49 52  0  0  0  0  0  0  0  0999 V2000
  137.5510   75.9300  222.4390 O   0  0  0  0  0  0  0  0  0  0  0  0
  138.8020   76.1600  222.4480 C   0  0  0  0  0  0  0  0  0  0  0  0
  139.6340   75.0290  222.1890 N   0  0  0  0  0  0  0  0  0  0  0  0
  138.9830   73.7710  221.9490 C   0  0  0  0  0  0  0  0  0  0  0  0
  139.8280   72.6050  222.3150 C   0  0  0  0  0  0  0  0  0  0  0  0
  141.0680   72.7570  222.3860 O   0  0  0  0  0  0  0  0  0  0  0  0
  139.1590   71.3760  222.5630 N   0  0  0  0  0  0  0  0  0  0  0  0
  139.1660   70.1450  221.7920 C   0  0  0  0  0  0  0  0  0  0  0  0
  137.7560   69.5520  221.9280 C   0  0  0  0  0  0  0  0  0  0  0  0
  137.1080   70.3490  223.0420 C   0  0  0  0  0  0  0  0  0  0  0  0
  138.2670   71.0570  223.7060 C   0  0  1  0  0  0  0  0  0  0  0  0
  138.9770   70.2840  224.7200 C   0  0  0  0  0  0  0  0  0  0  0  0
  140.0260   70.9260  225.3920 C   0  0  0  0  0  0  0  0  0  0  0  0
  140.7620   70.2910  226.3680 C   0  0  0  0  0  0  0  0  0  0  0  0
  140.5070   68.9870  226.7370 C   0  0  0  0  0  0  0  0  0  0  0  0
  139.4780   68.3420  226.0850 C   0  0  0  0  0  0  0  0  0  0  0  0
  139.2000   67.0270  226.4390 O   0  0  0  0  0  0  0  0  0  0  0  0
  138.7310   68.9890  225.0930 C   0  0  0  0  0  0  0  0  0  0  0  0
  139.3520   77.4850  222.7050 C   0  0  0  0  0  0  0  0  0  0  0  0
  138.4580   78.5220  222.8710 C   0  0  0  0  0  0  0  0  0  0  0  0
  138.9240   79.7930  223.1170 C   0  0  0  0  0  0  0  0  0  0  0  0
  140.2840   80.0010  223.1900 C   0  0  0  0  0  0  0  0  0  0  0  0
  140.7270   81.2770  223.4350 C   0  0  0  0  0  0  0  0  0  0  0  0
  142.0950   81.4640  223.5060 C   0  0  0  0  0  0  0  0  0  0  0  0
  142.9850   80.4250  223.3390 C   0  0  0  0  0  0  0  0  0  0  0  0
  142.5370   79.1300  223.0900 C   0  0  0  0  0  0  0  0  0  0  0  0
  141.1710   78.9590  223.0230 C   0  0  0  0  0  0  0  0  0  0  0  0
  140.6630   77.7430  222.7870 N   0  0  0  0  0  0  0  0  0  0  0  0
  140.6840   75.1340  222.1770 H   0  0  0  0  0  0  0  0  0  0  0  0
  138.0583   73.7350  222.5436 H   0  0  0  0  0  0  0  0  0  0  0  0
  138.7781   73.7052  220.8703 H   0  0  0  0  0  0  0  0  0  0  0  0
  139.3914   70.3565  220.7363 H   0  0  0  0  0  0  0  0  0  0  0  0
  139.9337   69.4462  222.1559 H   0  0  0  0  0  0  0  0  0  0  0  0
  137.1939   69.6693  220.9898 H   0  0  0  0  0  0  0  0  0  0  0  0
  137.7776   68.4741  222.1463 H   0  0  0  0  0  0  0  0  0  0  0  0
  136.3874   71.0742  222.6360 H   0  0  0  0  0  0  0  0  0  0  0  0
  136.5412   69.7165  223.7411 H   0  0  0  0  0  0  0  0  0  0  0  0
  137.9108   71.9269  224.2773 H   0  0  0  0  0  0  0  0  0  0  0  0
  140.2686   71.9671  225.1326 H   0  0  0  0  0  0  0  0  0  0  0  0
  141.5751   70.8389  226.8665 H   0  0  0  0  0  0  0  0  0  0  0  0
  141.0982   68.4842  227.5166 H   0  0  0  0  0  0  0  0  0  0  0  0
  139.6710   66.5790  227.2250 H   0  0  0  0  0  0  0  0  0  0  0  0
  137.9186   68.4384  224.5961 H   0  0  0  0  0  0  0  0  0  0  0  0
  137.3761   78.3336  222.8069 H   0  0  0  0  0  0  0  0  0  0  0  0
  138.2224   80.6292  223.2531 H   0  0  0  0  0  0  0  0  0  0  0  0
  140.0250   82.1132  223.5688 H   0  0  0  0  0  0  0  0  0  0  0  0
  142.4853   82.4736  223.7019 H   0  0  0  0  0  0  0  0  0  0  0  0
  144.0654   80.6215  223.4034 H   0  0  0  0  0  0  0  0  0  0  0  0
  143.2346   78.2904  222.9543 H   0  0  0  0  0  0  0  0  0  0  0  0
  1  2  2  0
  2  3  1  0
  3  4  1  0
  4  5  1  0
  5  6  2  0
  5  7  1  0
  7  8  1  0
  8  9  1  0
  9 10  1  0
 10 11  1  0
 11 12  1  0
 12 13  2  0
 13 14  1  0
 14 15  2  0
 15 16  1  0
 16 17  1  0
 16 18  2  0
  2 19  1  0
 19 20  2  0
 20 21  1  0
 21 22  2  0
 22 23  1  0
 23 24  2  0
 24 25  1  0
 25 26  2  0
 26 27  1  0
 27 28  2  0
 11  7  1  0
 18 12  1  0
 28 19  1  0
 27 22  1  0
  3 29  1  0
  4 30  1  0
  4 31  1  0
  8 32  1  0
  8 33  1  0
  9 34  1  0
  9 35  1  0
 10 36  1  0
 10 37  1  0
 11 38  1  1
 13 39  1  0
 14 40  1  0
 15 41  1  0
 17 42  1  0
 18 43  1  0
 20 44  1  0
 21 45  1  0
 23 46  1  0
 24 47  1  0
 25 48  1  0
 26 49  1  0
M  END
>  <smiles>  (86) 
O=C(NCC(=O)N1CCCC1c1cccc(O)c1)c1ccc2ccccc2n1

>  <score_type>  (86) 
oracle

>  <origin>  (86) 
autodockgpu

>  <m_score__min__energy>  (86) 
-9

>  <m_primary>  (86) 
energy

>  <rmsd>  (86) 
8.973472391641726

>  <m_score__min__rmsd>  (86) 
8.973472391641726

>  <meeko>  (86) 
{"free_energy": -8.34, "intermolecular_energy": -10.13, "internal_energy": -1.61, "cluster_size": 14, "cluster_id": 1, "rank_in_cluster": 12}

>  <energy>  (86) 
-8.26

>  <cluster_rmsd>  (86) 
1.6

>  <cluster>  (86) 
3

$$$$

     RDKit          3D

 49 52  0  0  0  0  0  0  0  0999 V2000
  141.0650   71.8340  221.5610 O   0  0  0  0  0  0  0  0  0  0  0  0
  140.2440   72.1140  222.4910 C   0  0  0  0  0  0  0  0  0  0  0  0
  139.3920   73.2330  222.2380 N   0  0  0  0  0  0  0  0  0  0  0  0
  139.5490   73.9130  220.9820 C   0  0  0  0  0  0  0  0  0  0  0  0
  140.2570   75.2120  221.1140 C   0  0  0  0  0  0  0  0  0  0  0  0
  140.1230   75.8680  222.1720 O   0  0  0  0  0  0  0  0  0  0  0  0
  141.0500   75.6290  220.0120 N   0  0  0  0  0  0  0  0  0  0  0  0
  140.7960   75.5040  218.5860 C   0  0  0  0  0  0  0  0  0  0  0  0
  142.1630   75.2610  217.9320 C   0  0  0  0  0  0  0  0  0  0  0  0
  143.1720   75.5700  219.0190 C   0  0  0  0  0  0  0  0  0  0  0  0
  142.3680   76.3100  220.0630 C   0  0  1  0  0  0  0  0  0  0  0  0
  142.2210   77.7450  219.8410 C   0  0  0  0  0  0  0  0  0  0  0  0
  141.7680   78.5140  220.9210 C   0  0  0  0  0  0  0  0  0  0  0  0
  141.5940   79.8780  220.8230 C   0  0  0  0  0  0  0  0  0  0  0  0
  141.8560   80.5600  219.6530 C   0  0  0  0  0  0  0  0  0  0  0  0
  142.3030   79.8180  218.5820 C   0  0  0  0  0  0  0  0  0  0  0  0
  142.5760   80.4820  217.3920 O   0  0  0  0  0  0  0  0  0  0  0  0
  142.4790   78.4320  218.6850 C   0  0  0  0  0  0  0  0  0  0  0  0
  140.1740   71.3510  223.7290 C   0  0  0  0  0  0  0  0  0  0  0  0
  139.5690   70.1120  223.6780 C   0  0  0  0  0  0  0  0  0  0  0  0
  139.4770   69.3480  224.8190 C   0  0  0  0  0  0  0  0  0  0  0  0
  139.9950   69.8450  225.9960 C   0  0  0  0  0  0  0  0  0  0  0  0
  139.8910   69.0670  227.1220 C   0  0  0  0  0  0  0  0  0  0  0  0
  140.4170   69.5830  228.2920 C   0  0  0  0  0  0  0  0  0  0  0  0
  141.0210   70.8220  228.3390 C   0  0  0  0  0  0  0  0  0  0  0  0
  141.1260   71.6110  227.1970 C   0  0  0  0  0  0  0  0  0  0  0  0
  140.5980   71.0840  226.0390 C   0  0  0  0  0  0  0  0  0  0  0  0
  140.6610   71.7830  224.8990 N   0  0  0  0  0  0  0  0  0  0  0  0
  138.6820   73.5320  222.9590 H   0  0  0  0  0  0  0  0  0  0  0  0
  140.1241   73.2670  220.3023 H   0  0  0  0  0  0  0  0  0  0  0  0
  138.5423   74.1233  220.5917 H   0  0  0  0  0  0  0  0  0  0  0  0
  140.1228   74.6562  218.3906 H   0  0  0  0  0  0  0  0  0  0  0  0
  140.3112   76.4053  218.1828 H   0  0  0  0  0  0  0  0  0  0  0  0
  142.2551   74.2152  217.6036 H   0  0  0  0  0  0  0  0  0  0  0  0
  142.3121   75.8837  217.0376 H   0  0  0  0  0  0  0  0  0  0  0  0
  143.5949   74.6437  219.4350 H   0  0  0  0  0  0  0  0  0  0  0  0
  144.0272   76.1549  218.6495 H   0  0  0  0  0  0  0  0  0  0  0  0
  142.8755   76.2713  221.0381 H   0  0  0  0  0  0  0  0  0  0  0  0
  141.5446   78.0146  221.8753 H   0  0  0  0  0  0  0  0  0  0  0  0
  141.2370   80.4370  221.7005 H   0  0  0  0  0  0  0  0  0  0  0  0
  141.7143   81.6483  219.5785 H   0  0  0  0  0  0  0  0  0  0  0  0
  143.2920   80.1420  216.7500 H   0  0  0  0  0  0  0  0  0  0  0  0
  142.8372   77.8759  217.8061 H   0  0  0  0  0  0  0  0  0  0  0  0
  139.1614   69.7359  222.7280 H   0  0  0  0  0  0  0  0  0  0  0  0
  138.9984   68.3579  224.7923 H   0  0  0  0  0  0  0  0  0  0  0  0
  139.4109   68.0777  227.0948 H   0  0  0  0  0  0  0  0  0  0  0  0
  140.3517   68.9867  229.2141 H   0  0  0  0  0  0  0  0  0  0  0  0
  141.4256   71.1920  229.2926 H   0  0  0  0  0  0  0  0  0  0  0  0
  141.6045   72.6013  227.2181 H   0  0  0  0  0  0  0  0  0  0  0  0
  1  2  2  0
  2  3  1  0
  3  4  1  0
  4  5  1  0
  5  6  2  0
  5  7  1  0
  7  8  1  0
  8  9  1  0
  9 10  1  0
 10 11  1  0
 11 12  1  0
 12 13  2  0
 13 14  1  0
 14 15  2  0
 15 16  1  0
 16 17  1  0
 16 18  2  0
  2 19  1  0
 19 20  2  0
 20 21  1  0
 21 22  2  0
 22 23  1  0
 23 24  2  0
 24 25  1  0
 25 26  2  0
 26 27  1  0
 27 28  2  0
 11  7  1  0
 18 12  1  0
 28 19  1  0
 27 22  1  0
  3 29  1  0
  4 30  1  0
  4 31  1  0
  8 32  1  0
  8 33  1  0
  9 34  1  0
  9 35  1  0
 10 36  1  0
 10 37  1  0
 11 38  1  1
 13 39  1  0
 14 40  1  0
 15 41  1  0
 17 42  1  0
 18 43  1  0
 20 44  1  0
 21 45  1  0
 23 46  1  0
 24 47  1  0
 25 48  1  0
 26 49  1  0
M  END
>  <smiles>  (87) 
O=C(NCC(=O)N1CCCC1c1cccc(O)c1)c1ccc2ccccc2n1

>  <score_type>  (87) 
oracle

>  <origin>  (87) 
autodockgpu

>  <m_score__min__energy>  (87) 
-9

>  <m_primary>  (87) 
energy

>  <rmsd>  (87) 
2.1566718288076827

>  <m_score__min__rmsd>  (87) 
2.1566718288076827

>  <meeko>  (87) 
{"free_energy": -8.43, "intermolecular_energy": -10.22, "internal_energy": -1.21, "cluster_size": 9, "cluster_id": 4, "rank_in_cluster": 2}

>  <energy>  (87) 
-8.26

>  <cluster_rmsd>  (87) 
1.6

>  <cluster>  (87) 
3

$$$$

     RDKit          3D

 49 52  0  0  0  0  0  0  0  0999 V2000
  141.2780   72.7060  221.9460 O   0  0  0  0  0  0  0  0  0  0  0  0
  140.2410   72.5950  222.6740 C   0  0  0  0  0  0  0  0  0  0  0  0
  139.1630   73.4700  222.3410 N   0  0  0  0  0  0  0  0  0  0  0  0
  139.3570   74.3680  221.2360 C   0  0  0  0  0  0  0  0  0  0  0  0
  139.2920   75.7970  221.6370 C   0  0  0  0  0  0  0  0  0  0  0  0
  138.5740   76.1190  222.6100 O   0  0  0  0  0  0  0  0  0  0  0  0
  140.0620   76.7170  220.8750 N   0  0  0  0  0  0  0  0  0  0  0  0
  139.7080   77.4480  219.6700 C   0  0  0  0  0  0  0  0  0  0  0  0
  140.9920   77.5320  218.8330 C   0  0  0  0  0  0  0  0  0  0  0  0
  142.0960   77.0950  219.7740 C   0  0  0  0  0  0  0  0  0  0  0  0
  141.4550   77.1550  221.1420 C   0  0  1  0  0  0  0  0  0  0  0  0
  141.4730   78.4650  221.7860 C   0  0  0  0  0  0  0  0  0  0  0  0
  141.4160   78.4870  223.1860 C   0  0  0  0  0  0  0  0  0  0  0  0
  141.4280   79.6670  223.8970 C   0  0  0  0  0  0  0  0  0  0  0  0
  141.4970   80.8930  223.2680 C   0  0  0  0  0  0  0  0  0  0  0  0
  141.5550   80.8880  221.8910 C   0  0  0  0  0  0  0  0  0  0  0  0
  141.6260   82.1090  221.2330 O   0  0  0  0  0  0  0  0  0  0  0  0
  141.5420   79.6860  221.1710 C   0  0  0  0  0  0  0  0  0  0  0  0
  140.1560   71.6430  223.7740 C   0  0  0  0  0  0  0  0  0  0  0  0
  139.5690   70.4220  223.5130 C   0  0  0  0  0  0  0  0  0  0  0  0
  139.4630   69.4860  224.5160 C   0  0  0  0  0  0  0  0  0  0  0  0
  139.9490   69.7950  225.7680 C   0  0  0  0  0  0  0  0  0  0  0  0
  139.8330   68.8470  226.7540 C   0  0  0  0  0  0  0  0  0  0  0  0
  140.3270   69.1760  228.0030 C   0  0  0  0  0  0  0  0  0  0  0  0
  140.9120   70.3970  228.2600 C   0  0  0  0  0  0  0  0  0  0  0  0
  141.0310   71.3590  227.2610 C   0  0  0  0  0  0  0  0  0  0  0  0
  140.5340   71.0180  226.0210 C   0  0  0  0  0  0  0  0  0  0  0  0
  140.6120   71.8900  225.0090 N   0  0  0  0  0  0  0  0  0  0  0  0
  138.2660   73.4420  222.8960 H   0  0  0  0  0  0  0  0  0  0  0  0
  140.3446   74.1719  220.7930 H   0  0  0  0  0  0  0  0  0  0  0  0
  138.5442   74.1886  220.5169 H   0  0  0  0  0  0  0  0  0  0  0  0
  138.9241   76.9123  219.1145 H   0  0  0  0  0  0  0  0  0  0  0  0
  139.3152   78.4479  219.9063 H   0  0  0  0  0  0  0  0  0  0  0  0
  140.9336   76.8589  217.9650 H   0  0  0  0  0  0  0  0  0  0  0  0
  141.1623   78.5427  218.4337 H   0  0  0  0  0  0  0  0  0  0  0  0
  142.4260   76.0718  219.5413 H   0  0  0  0  0  0  0  0  0  0  0  0
  142.9924   77.7280  219.6982 H   0  0  0  0  0  0  0  0  0  0  0  0
  142.0121   76.5307  221.8561 H   0  0  0  0  0  0  0  0  0  0  0  0
  141.3600   77.5344  223.7332 H   0  0  0  0  0  0  0  0  0  0  0  0
  141.3813   79.6307  224.9954 H   0  0  0  0  0  0  0  0  0  0  0  0
  141.5053   81.8325  223.8400 H   0  0  0  0  0  0  0  0  0  0  0  0
  141.4000   82.9810  221.7110 H   0  0  0  0  0  0  0  0  0  0  0  0
  141.5889   79.7249  220.0727 H   0  0  0  0  0  0  0  0  0  0  0  0
  139.1869   70.1975  222.5062 H   0  0  0  0  0  0  0  0  0  0  0  0
  138.9984   68.5080  224.3219 H   0  0  0  0  0  0  0  0  0  0  0  0
  139.3679   67.8694  226.5593 H   0  0  0  0  0  0  0  0  0  0  0  0
  140.2506   68.4400  228.8169 H   0  0  0  0  0  0  0  0  0  0  0  0
  141.2906   70.6146  229.2696 H   0  0  0  0  0  0  0  0  0  0  0  0
  141.4961   72.3377  227.4505 H   0  0  0  0  0  0  0  0  0  0  0  0
  1  2  2  0
  2  3  1  0
  3  4  1  0
  4  5  1  0
  5  6  2  0
  5  7  1  0
  7  8  1  0
  8  9  1  0
  9 10  1  0
 10 11  1  0
 11 12  1  0
 12 13  2  0
 13 14  1  0
 14 15  2  0
 15 16  1  0
 16 17  1  0
 16 18  2  0
  2 19  1  0
 19 20  2  0
 20 21  1  0
 21 22  2  0
 22 23  1  0
 23 24  2  0
 24 25  1  0
 25 26  2  0
 26 27  1  0
 27 28  2  0
 11  7  1  0
 18 12  1  0
 28 19  1  0
 27 22  1  0
  3 29  1  0
  4 30  1  0
  4 31  1  0
  8 32  1  0
  8 33  1  0
  9 34  1  0
  9 35  1  0
 10 36  1  0
 10 37  1  0
 11 38  1  1
 13 39  1  0
 14 40  1  0
 15 41  1  0
 17 42  1  0
 18 43  1  0
 20 44  1  0
 21 45  1  0
 23 46  1  0
 24 47  1  0
 25 48  1  0
 26 49  1  0
M  END
>  <smiles>  (88) 
O=C(NCC(=O)N1CCCC1c1cccc(O)c1)c1ccc2ccccc2n1

>  <score_type>  (88) 
oracle

>  <origin>  (88) 
autodockgpu

>  <m_score__min__energy>  (88) 
-9

>  <m_primary>  (88) 
energy

>  <rmsd>  (88) 
3.21332995294002

>  <m_score__min__rmsd>  (88) 
3.21332995294002

>  <meeko>  (88) 
{"free_energy": -8.26, "intermolecular_energy": -10.05, "internal_energy": -1.22, "cluster_size": 9, "cluster_id": 3, "rank_in_cluster": 6}

>  <energy>  (88) 
-8.04

>  <cluster_rmsd>  (88) 
1.89

>  <cluster>  (88) 
3

$$$$

     RDKit          3D

 49 52  0  0  0  0  0  0  0  0999 V2000
  140.4960   71.3640  221.2770 O   0  0  0  0  0  0  0  0  0  0  0  0
  139.9770   71.9050  222.3030 C   0  0  0  0  0  0  0  0  0  0  0  0
  139.3340   73.1600  222.0740 N   0  0  0  0  0  0  0  0  0  0  0  0
  139.3400   73.6710  220.7310 C   0  0  0  0  0  0  0  0  0  0  0  0
  139.4170   75.1530  220.6790 C   0  0  0  0  0  0  0  0  0  0  0  0
  138.3760   75.8190  220.8760 O   0  0  0  0  0  0  0  0  0  0  0  0
  140.6890   75.7230  220.4020 N   0  0  0  0  0  0  0  0  0  0  0  0
  141.4480   76.7060  221.1570 C   0  0  0  0  0  0  0  0  0  0  0  0
  142.1770   77.5680  220.1160 C   0  0  0  0  0  0  0  0  0  0  0  0
  142.0200   76.8140  218.8120 C   0  0  0  0  0  0  0  0  0  0  0  0
  141.5650   75.4370  219.2380 C   0  0  1  0  0  0  0  0  0  0  0  0
  142.6310   74.5100  219.6050 C   0  0  0  0  0  0  0  0  0  0  0  0
  142.3870   73.6550  220.6880 C   0  0  0  0  0  0  0  0  0  0  0  0
  143.3240   72.7400  221.1180 C   0  0  0  0  0  0  0  0  0  0  0  0
  144.5520   72.6160  220.5050 C   0  0  0  0  0  0  0  0  0  0  0  0
  144.8070   73.4490  219.4380 C   0  0  0  0  0  0  0  0  0  0  0  0
  146.0380   73.3440  218.8020 O   0  0  0  0  0  0  0  0  0  0  0  0
  143.8540   74.3790  219.0020 C   0  0  0  0  0  0  0  0  0  0  0  0
  140.0320   71.2920  223.6240 C   0  0  0  0  0  0  0  0  0  0  0  0
  139.5610   70.0010  223.7440 C   0  0  0  0  0  0  0  0  0  0  0  0
  139.5900   69.3740  224.9690 C   0  0  0  0  0  0  0  0  0  0  0  0
  140.0940   70.0580  226.0540 C   0  0  0  0  0  0  0  0  0  0  0  0
  140.1130   69.4140  227.2660 C   0  0  0  0  0  0  0  0  0  0  0  0
  140.6220   70.1170  228.3430 C   0  0  0  0  0  0  0  0  0  0  0  0
  141.0920   71.4070  228.2180 C   0  0  0  0  0  0  0  0  0  0  0  0
  141.0720   72.0600  226.9900 C   0  0  0  0  0  0  0  0  0  0  0  0
  140.5630   71.3480  225.9260 C   0  0  0  0  0  0  0  0  0  0  0  0
  140.5110   71.9090  224.7110 N   0  0  0  0  0  0  0  0  0  0  0  0
  138.8770   73.6750  222.8740 H   0  0  0  0  0  0  0  0  0  0  0  0
  140.2094   73.2552  220.2007 H   0  0  0  0  0  0  0  0  0  0  0  0
  138.3925   73.3721  220.2589 H   0  0  0  0  0  0  0  0  0  0  0  0
  140.7723   77.3278  221.7626 H   0  0  0  0  0  0  0  0  0  0  0  0
  142.1554   76.2247  221.8484 H   0  0  0  0  0  0  0  0  0  0  0  0
  141.7155   78.5640  220.0458 H   0  0  0  0  0  0  0  0  0  0  0  0
  143.2331   77.7307  220.3773 H   0  0  0  0  0  0  0  0  0  0  0  0
  141.2658   77.2941  218.1712 H   0  0  0  0  0  0  0  0  0  0  0  0
  142.9486   76.7895  218.2228 H   0  0  0  0  0  0  0  0  0  0  0  0
  141.0752   74.9170  218.4016 H   0  0  0  0  0  0  0  0  0  0  0  0
  141.4205   73.7157  221.2097 H   0  0  0  0  0  0  0  0  0  0  0  0
  143.0851   72.0912  221.9736 H   0  0  0  0  0  0  0  0  0  0  0  0
  145.2959   71.8840  220.8525 H   0  0  0  0  0  0  0  0  0  0  0  0
  146.4810   74.1550  218.3710 H   0  0  0  0  0  0  0  0  0  0  0  0
  144.0962   75.0261  218.1461 H   0  0  0  0  0  0  0  0  0  0  0  0
  139.1636   69.4744  222.8638 H   0  0  0  0  0  0  0  0  0  0  0  0
  139.2174   68.3450  225.0800 H   0  0  0  0  0  0  0  0  0  0  0  0
  139.7402   68.3850  227.3759 H   0  0  0  0  0  0  0  0  0  0  0  0
  140.6527   69.6318  229.3297 H   0  0  0  0  0  0  0  0  0  0  0  0
  141.4886   71.9274  229.1022 H   0  0  0  0  0  0  0  0  0  0  0  0
  141.4426   73.0893  226.8746 H   0  0  0  0  0  0  0  0  0  0  0  0
  1  2  2  0
  2  3  1  0
  3  4  1  0
  4  5  1  0
  5  6  2  0
  5  7  1  0
  7  8  1  0
  8  9  1  0
  9 10  1  0
 10 11  1  0
 11 12  1  0
 12 13  2  0
 13 14  1  0
 14 15  2  0
 15 16  1  0
 16 17  1  0
 16 18  2  0
  2 19  1  0
 19 20  2  0
 20 21  1  0
 21 22  2  0
 22 23  1  0
 23 24  2  0
 24 25  1  0
 25 26  2  0
 26 27  1  0
 27 28  2  0
 11  7  1  0
 18 12  1  0
 28 19  1  0
 27 22  1  0
  3 29  1  0
  4 30  1  0
  4 31  1  0
  8 32  1  0
  8 33  1  0
  9 34  1  0
  9 35  1  0
 10 36  1  0
 10 37  1  0
 11 38  1  6
 13 39  1  0
 14 40  1  0
 15 41  1  0
 17 42  1  0
 18 43  1  0
 20 44  1  0
 21 45  1  0
 23 46  1  0
 24 47  1  0
 25 48  1  0
 26 49  1  0
M  END
>  <smiles>  (89) 
O=C(NCC(=O)N1CCCC1c1cccc(O)c1)c1ccc2ccccc2n1

>  <score_type>  (89) 
oracle

>  <origin>  (89) 
autodockgpu

>  <m_score__min__energy>  (89) 
-9

>  <m_primary>  (89) 
energy

>  <rmsd>  (89) 
2.6255503433353713

>  <m_score__min__rmsd>  (89) 
2.6255503433353713

>  <meeko>  (89) 
{"free_energy": -8.31, "intermolecular_energy": -10.1, "internal_energy": -1.44, "cluster_size": 16, "cluster_id": 2, "rank_in_cluster": 12}

>  <energy>  (89) 
-7.96

>  <cluster_rmsd>  (89) 
1.35

>  <cluster>  (89) 
3

$$$$

     RDKit          3D

 49 52  0  0  0  0  0  0  0  0999 V2000
  140.5030   71.3540  221.4180 O   0  0  0  0  0  0  0  0  0  0  0  0
  140.1280   71.8250  222.5380 C   0  0  0  0  0  0  0  0  0  0  0  0
  139.7500   73.2020  222.5260 N   0  0  0  0  0  0  0  0  0  0  0  0
  139.8310   73.8990  221.2730 C   0  0  0  0  0  0  0  0  0  0  0  0
  140.5780   75.1790  221.3710 C   0  0  0  0  0  0  0  0  0  0  0  0
  140.3680   75.9260  222.3540 O   0  0  0  0  0  0  0  0  0  0  0  0
  141.4950   75.4730  220.3260 N   0  0  0  0  0  0  0  0  0  0  0  0
  142.2110   76.7050  220.0400 C   0  0  0  0  0  0  0  0  0  0  0  0
  142.2970   76.7990  218.5100 C   0  0  0  0  0  0  0  0  0  0  0  0
  141.8770   75.4300  218.0150 C   0  0  0  0  0  0  0  0  0  0  0  0
  141.9460   74.5580  219.2480 C   0  0  1  0  0  0  0  0  0  0  0  0
  143.2620   74.0050  219.5520 C   0  0  0  0  0  0  0  0  0  0  0  0
  143.4370   73.4390  220.8220 C   0  0  0  0  0  0  0  0  0  0  0  0
  144.6380   72.8870  221.2140 C   0  0  0  0  0  0  0  0  0  0  0  0
  145.7330   72.8630  220.3760 C   0  0  0  0  0  0  0  0  0  0  0  0
  145.5770   73.4160  219.1240 C   0  0  0  0  0  0  0  0  0  0  0  0
  146.6650   73.4030  218.2600 O   0  0  0  0  0  0  0  0  0  0  0  0
  144.3560   73.9760  218.7280 C   0  0  0  0  0  0  0  0  0  0  0  0
  140.0860   71.0200  223.7520 C   0  0  0  0  0  0  0  0  0  0  0  0
  139.5300   69.7610  223.6590 C   0  0  0  0  0  0  0  0  0  0  0  0
  139.4650   68.9590  224.7760 C   0  0  0  0  0  0  0  0  0  0  0  0
  139.9620   69.4370  225.9680 C   0  0  0  0  0  0  0  0  0  0  0  0
  139.8880   68.6200  227.0690 C   0  0  0  0  0  0  0  0  0  0  0  0
  140.3920   69.1180  228.2560 C   0  0  0  0  0  0  0  0  0  0  0  0
  140.9490   70.3760  228.3440 C   0  0  0  0  0  0  0  0  0  0  0  0
  141.0240   71.2050  227.2280 C   0  0  0  0  0  0  0  0  0  0  0  0
  140.5180   70.6960  226.0520 C   0  0  0  0  0  0  0  0  0  0  0  0
  140.5550   71.4330  224.9360 N   0  0  0  0  0  0  0  0  0  0  0  0
  139.4260   73.6710  223.4140 H   0  0  0  0  0  0  0  0  0  0  0  0
  140.3388   73.2513  220.5432 H   0  0  0  0  0  0  0  0  0  0  0  0
  138.8036   74.1393  220.9619 H   0  0  0  0  0  0  0  0  0  0  0  0
  141.6634   77.5684  220.4458 H   0  0  0  0  0  0  0  0  0  0  0  0
  143.2099   76.7067  220.5006 H   0  0  0  0  0  0  0  0  0  0  0  0
  141.6154   77.5744  218.1303 H   0  0  0  0  0  0  0  0  0  0  0  0
  143.3052   77.0739  218.1665 H   0  0  0  0  0  0  0  0  0  0  0  0
  140.8539   75.4569  217.6120 H   0  0  0  0  0  0  0  0  0  0  0  0
  142.5156   75.0606  217.1991 H   0  0  0  0  0  0  0  0  0  0  0  0
  141.3332   73.6541  219.1159 H   0  0  0  0  0  0  0  0  0  0  0  0
  142.5920   73.4350  221.5262 H   0  0  0  0  0  0  0  0  0  0  0  0
  144.7251   72.4544  222.2216 H   0  0  0  0  0  0  0  0  0  0  0  0
  146.6892   72.4216  220.6935 H   0  0  0  0  0  0  0  0  0  0  0  0
  147.2070   74.2490  218.0810 H   0  0  0  0  0  0  0  0  0  0  0  0
  144.2725   74.4078  217.7197 H   0  0  0  0  0  0  0  0  0  0  0  0
  139.1401   69.3993  222.6961 H   0  0  0  0  0  0  0  0  0  0  0  0
  139.0235   67.9532  224.7174 H   0  0  0  0  0  0  0  0  0  0  0  0
  139.4473   67.6139  227.0092 H   0  0  0  0  0  0  0  0  0  0  0  0
  140.3472   68.4908  229.1586 H   0  0  0  0  0  0  0  0  0  0  0  0
  141.3397   70.7297  229.3095 H   0  0  0  0  0  0  0  0  0  0  0  0
  141.4635   72.2119  227.2823 H   0  0  0  0  0  0  0  0  0  0  0  0
  1  2  2  0
  2  3  1  0
  3  4  1  0
  4  5  1  0
  5  6  2  0
  5  7  1  0
  7  8  1  0
  8  9  1  0
  9 10  1  0
 10 11  1  0
 11 12  1  0
 12 13  2  0
 13 14  1  0
 14 15  2  0
 15 16  1  0
 16 17  1  0
 16 18  2  0
  2 19  1  0
 19 20  2  0
 20 21  1  0
 21 22  2  0
 22 23  1  0
 23 24  2  0
 24 25  1  0
 25 26  2  0
 26 27  1  0
 27 28  2  0
 11  7  1  0
 18 12  1  0
 28 19  1  0
 27 22  1  0
  3 29  1  0
  4 30  1  0
  4 31  1  0
  8 32  1  0
  8 33  1  0
  9 34  1  0
  9 35  1  0
 10 36  1  0
 10 37  1  0
 11 38  1  6
 13 39  1  0
 14 40  1  0
 15 41  1  0
 17 42  1  0
 18 43  1  0
 20 44  1  0
 21 45  1  0
 23 46  1  0
 24 47  1  0
 25 48  1  0
 26 49  1  0
M  END
>  <smiles>  (90) 
O=C(NCC(=O)N1CCCC1c1cccc(O)c1)c1ccc2ccccc2n1

>  <score_type>  (90) 
oracle

>  <origin>  (90) 
autodockgpu

>  <m_score__min__energy>  (90) 
-9

>  <m_primary>  (90) 
energy

>  <rmsd>  (90) 
2.7790663942562848

>  <m_score__min__rmsd>  (90) 
2.7790663942562848

>  <meeko>  (90) 
{"free_energy": -8.78, "intermolecular_energy": -10.57, "internal_energy": -1.59, "cluster_size": 16, "cluster_id": 2, "rank_in_cluster": 3}

>  <energy>  (90) 
-8.52

>  <cluster_rmsd>  (90) 
0.0

>  <cluster>  (90) 
4

$$$$

     RDKit          3D

 49 52  0  0  0  0  0  0  0  0999 V2000
  140.6060   74.2910  220.2220 O   0  0  0  0  0  0  0  0  0  0  0  0
  140.3390   75.0080  221.2370 C   0  0  0  0  0  0  0  0  0  0  0  0
  139.5150   74.3880  222.2250 N   0  0  0  0  0  0  0  0  0  0  0  0
  139.0830   73.0410  221.9740 C   0  0  0  0  0  0  0  0  0  0  0  0
  140.0280   72.0230  222.5020 C   0  0  0  0  0  0  0  0  0  0  0  0
  141.2550   72.1920  222.3260 O   0  0  0  0  0  0  0  0  0  0  0  0
  139.4640   70.9100  223.1810 N   0  0  0  0  0  0  0  0  0  0  0  0
  139.5500   69.4930  222.8710 C   0  0  0  0  0  0  0  0  0  0  0  0
  138.1950   68.8900  223.2660 C   0  0  0  0  0  0  0  0  0  0  0  0
  137.5120   69.9730  224.0770 C   0  0  0  0  0  0  0  0  0  0  0  0
  138.6260   70.9390  224.4070 C   0  0  1  0  0  0  0  0  0  0  0  0
  139.4180   70.6060  225.5860 C   0  0  0  0  0  0  0  0  0  0  0  0
  140.3920   71.5310  225.9820 C   0  0  0  0  0  0  0  0  0  0  0  0
  141.1950   71.3180  227.0820 C   0  0  0  0  0  0  0  0  0  0  0  0
  141.0830   70.1800  227.8530 C   0  0  0  0  0  0  0  0  0  0  0  0
  140.1290   69.2600  227.4760 C   0  0  0  0  0  0  0  0  0  0  0  0
  139.9940   68.1050  228.2370 O   0  0  0  0  0  0  0  0  0  0  0  0
  139.3130   69.4790  226.3580 C   0  0  0  0  0  0  0  0  0  0  0  0
  140.8360   76.3700  221.3860 C   0  0  0  0  0  0  0  0  0  0  0  0
  141.1760   77.0500  220.2350 C   0  0  0  0  0  0  0  0  0  0  0  0
  141.6510   78.3400  220.3180 C   0  0  0  0  0  0  0  0  0  0  0  0
  141.7750   78.9240  221.5600 C   0  0  0  0  0  0  0  0  0  0  0  0
  142.2510   80.2100  221.6200 C   0  0  0  0  0  0  0  0  0  0  0  0
  142.3690   80.7780  222.8760 C   0  0  0  0  0  0  0  0  0  0  0  0
  142.0270   80.0950  224.0230 C   0  0  0  0  0  0  0  0  0  0  0  0
  141.5450   78.7900  223.9630 C   0  0  0  0  0  0  0  0  0  0  0  0
  141.4330   78.2370  222.7060 C   0  0  0  0  0  0  0  0  0  0  0  0
  140.9760   76.9860  222.5660 N   0  0  0  0  0  0  0  0  0  0  0  0
  139.2470   74.9140  223.1000 H   0  0  0  0  0  0  0  0  0  0  0  0
  138.1034   72.8918  222.4516 H   0  0  0  0  0  0  0  0  0  0  0  0
  139.0308   72.9088  220.8832 H   0  0  0  0  0  0  0  0  0  0  0  0
  139.7343   69.3474  221.7964 H   0  0  0  0  0  0  0  0  0  0  0  0
  140.3780   69.0119  223.4122 H   0  0  0  0  0  0  0  0  0  0  0  0
  137.6041   68.6449  222.3711 H   0  0  0  0  0  0  0  0  0  0  0  0
  138.3061   67.9539  223.8329 H   0  0  0  0  0  0  0  0  0  0  0  0
  136.7273   70.4680  223.4860 H   0  0  0  0  0  0  0  0  0  0  0  0
  137.0131   69.5790  224.9747 H   0  0  0  0  0  0  0  0  0  0  0  0
  138.2149   71.9251  224.6689 H   0  0  0  0  0  0  0  0  0  0  0  0
  140.5200   72.4545  225.3982 H   0  0  0  0  0  0  0  0  0  0  0  0
  141.9451   72.0759  227.3520 H   0  0  0  0  0  0  0  0  0  0  0  0
  141.7264   70.0142  228.7296 H   0  0  0  0  0  0  0  0  0  0  0  0
  140.1530   67.1830  227.8300 H   0  0  0  0  0  0  0  0  0  0  0  0
  138.5626   68.7202  226.0911 H   0  0  0  0  0  0  0  0  0  0  0  0
  141.0681   76.5636  219.2543 H   0  0  0  0  0  0  0  0  0  0  0  0
  141.9266   78.8945  219.4088 H   0  0  0  0  0  0  0  0  0  0  0  0
  142.5263   80.7640  220.7104 H   0  0  0  0  0  0  0  0  0  0  0  0
  142.7477   81.8072  222.9618 H   0  0  0  0  0  0  0  0  0  0  0  0
  142.1364   80.5879  225.0003 H   0  0  0  0  0  0  0  0  0  0  0  0
  141.2688   78.2313  224.8694 H   0  0  0  0  0  0  0  0  0  0  0  0
  1  2  2  0
  2  3  1  0
  3  4  1  0
  4  5  1  0
  5  6  2  0
  5  7  1  0
  7  8  1  0
  8  9  1  0
  9 10  1  0
 10 11  1  0
 11 12  1  0
 12 13  2  0
 13 14  1  0
 14 15  2  0
 15 16  1  0
 16 17  1  0
 16 18  2  0
  2 19  1  0
 19 20  2  0
 20 21  1  0
 21 22  2  0
 22 23  1  0
 23 24  2  0
 24 25  1  0
 25 26  2  0
 26 27  1  0
 27 28  2  0
 11  7  1  0
 18 12  1  0
 28 19  1  0
 27 22  1  0
  3 29  1  0
  4 30  1  0
  4 31  1  0
  8 32  1  0
  8 33  1  0
  9 34  1  0
  9 35  1  0
 10 36  1  0
 10 37  1  0
 11 38  1  1
 13 39  1  0
 14 40  1  0
 15 41  1  0
 17 42  1  0
 18 43  1  0
 20 44  1  0
 21 45  1  0
 23 46  1  0
 24 47  1  0
 25 48  1  0
 26 49  1  0
M  END
>  <smiles>  (91) 
O=C(NCC(=O)N1CCCC1c1cccc(O)c1)c1ccc2ccccc2n1

>  <score_type>  (91) 
oracle

>  <origin>  (91) 
autodockgpu

>  <m_score__min__energy>  (91) 
-9

>  <m_primary>  (91) 
energy

>  <rmsd>  (91) 
8.906088037550637

>  <m_score__min__rmsd>  (91) 
8.906088037550637

>  <meeko>  (91) 
{"free_energy": -8.38, "intermolecular_energy": -10.17, "internal_energy": -1.26, "cluster_size": 14, "cluster_id": 1, "rank_in_cluster": 10}

>  <energy>  (91) 
-8.43

>  <cluster_rmsd>  (91) 
0.21

>  <cluster>  (91) 
4

$$$$

     RDKit          3D

 49 52  0  0  0  0  0  0  0  0999 V2000
  141.2930   72.2410  221.7620 O   0  0  0  0  0  0  0  0  0  0  0  0
  140.3130   72.3150  222.5690 C   0  0  0  0  0  0  0  0  0  0  0  0
  139.3090   73.2720  222.2260 N   0  0  0  0  0  0  0  0  0  0  0  0
  139.5080   74.0360  221.0260 C   0  0  0  0  0  0  0  0  0  0  0  0
  140.4440   75.1750  221.2160 C   0  0  0  0  0  0  0  0  0  0  0  0
  140.5140   75.7160  222.3420 O   0  0  0  0  0  0  0  0  0  0  0  0
  141.2060   75.5770  220.0870 N   0  0  0  0  0  0  0  0  0  0  0  0
  140.9590   75.3530  218.6730 C   0  0  0  0  0  0  0  0  0  0  0  0
  142.3380   75.1620  218.0260 C   0  0  0  0  0  0  0  0  0  0  0  0
  143.3260   75.6000  219.0880 C   0  0  0  0  0  0  0  0  0  0  0  0
  142.4770   76.3450  220.0920 C   0  0  1  0  0  0  0  0  0  0  0  0
  142.2350   77.7520  219.7880 C   0  0  0  0  0  0  0  0  0  0  0  0
  141.6820   78.5390  220.8070 C   0  0  0  0  0  0  0  0  0  0  0  0
  141.4140   79.8790  220.6280 C   0  0  0  0  0  0  0  0  0  0  0  0
  141.6760   80.5190  219.4350 C   0  0  0  0  0  0  0  0  0  0  0  0
  142.2210   79.7590  218.4230 C   0  0  0  0  0  0  0  0  0  0  0  0
  142.4950   80.3800  217.2110 O   0  0  0  0  0  0  0  0  0  0  0  0
  142.4920   78.3970  218.6070 C   0  0  0  0  0  0  0  0  0  0  0  0
  140.2170   71.4840  223.7620 C   0  0  0  0  0  0  0  0  0  0  0  0
  139.6030   70.2560  223.6330 C   0  0  0  0  0  0  0  0  0  0  0  0
  139.4860   69.4310  224.7280 C   0  0  0  0  0  0  0  0  0  0  0  0
  139.9890   69.8570  225.9380 C   0  0  0  0  0  0  0  0  0  0  0  0
  139.8610   69.0190  227.0180 C   0  0  0  0  0  0  0  0  0  0  0  0
  140.3730   69.4650  228.2230 C   0  0  0  0  0  0  0  0  0  0  0  0
  140.9870   70.6930  228.3480 C   0  0  0  0  0  0  0  0  0  0  0  0
  141.1170   71.5430  227.2540 C   0  0  0  0  0  0  0  0  0  0  0  0
  140.6020   71.0860  226.0590 C   0  0  0  0  0  0  0  0  0  0  0  0
  140.6890   71.8470  224.9610 N   0  0  0  0  0  0  0  0  0  0  0  0
  138.4620   73.3960  222.8430 H   0  0  0  0  0  0  0  0  0  0  0  0
  139.9161   73.3716  220.2501 H   0  0  0  0  0  0  0  0  0  0  0  0
  138.5332   74.4540  220.7344 H   0  0  0  0  0  0  0  0  0  0  0  0
  140.3425   74.4532  218.5308 H   0  0  0  0  0  0  0  0  0  0  0  0
  140.4159   76.1960  218.2210 H   0  0  0  0  0  0  0  0  0  0  0  0
  142.4982   74.1070  217.7588 H   0  0  0  0  0  0  0  0  0  0  0  0
  142.4444   75.7392  217.0956 H   0  0  0  0  0  0  0  0  0  0  0  0
  143.8100   74.7294  219.5547 H   0  0  0  0  0  0  0  0  0  0  0  0
  144.1397   76.2178  218.6803 H   0  0  0  0  0  0  0  0  0  0  0  0
  142.9878   76.3963  221.0649 H   0  0  0  0  0  0  0  0  0  0  0  0
  141.4553   78.0739  221.7777 H   0  0  0  0  0  0  0  0  0  0  0  0
  140.9794   80.4535  221.4593 H   0  0  0  0  0  0  0  0  0  0  0  0
  141.4595   81.5887  219.2973 H   0  0  0  0  0  0  0  0  0  0  0  0
  143.3140   80.1230  216.6590 H   0  0  0  0  0  0  0  0  0  0  0  0
  142.9265   77.8252  217.7738 H   0  0  0  0  0  0  0  0  0  0  0  0
  139.2078   69.9368  222.6573 H   0  0  0  0  0  0  0  0  0  0  0  0
  138.9994   68.4485  224.6390 H   0  0  0  0  0  0  0  0  0  0  0  0
  139.3732   68.0371  226.9290 H   0  0  0  0  0  0  0  0  0  0  0  0
  140.2876   68.8195  229.1096 H   0  0  0  0  0  0  0  0  0  0  0  0
  141.3798   71.0054  229.3268 H   0  0  0  0  0  0  0  0  0  0  0  0
  141.6040   72.5258  227.3377 H   0  0  0  0  0  0  0  0  0  0  0  0
  1  2  2  0
  2  3  1  0
  3  4  1  0
  4  5  1  0
  5  6  2  0
  5  7  1  0
  7  8  1  0
  8  9  1  0
  9 10  1  0
 10 11  1  0
 11 12  1  0
 12 13  2  0
 13 14  1  0
 14 15  2  0
 15 16  1  0
 16 17  1  0
 16 18  2  0
  2 19  1  0
 19 20  2  0
 20 21  1  0
 21 22  2  0
 22 23  1  0
 23 24  2  0
 24 25  1  0
 25 26  2  0
 26 27  1  0
 27 28  2  0
 11  7  1  0
 18 12  1  0
 28 19  1  0
 27 22  1  0
  3 29  1  0
  4 30  1  0
  4 31  1  0
  8 32  1  0
  8 33  1  0
  9 34  1  0
  9 35  1  0
 10 36  1  0
 10 37  1  0
 11 38  1  1
 13 39  1  0
 14 40  1  0
 15 41  1  0
 17 42  1  0
 18 43  1  0
 20 44  1  0
 21 45  1  0
 23 46  1  0
 24 47  1  0
 25 48  1  0
 26 49  1  0
M  END
>  <smiles>  (92) 
O=C(NCC(=O)N1CCCC1c1cccc(O)c1)c1ccc2ccccc2n1

>  <score_type>  (92) 
oracle

>  <origin>  (92) 
autodockgpu

>  <m_score__min__energy>  (92) 
-9

>  <m_primary>  (92) 
energy

>  <rmsd>  (92) 
2.167092085906219

>  <m_score__min__rmsd>  (92) 
2.167092085906219

>  <meeko>  (92) 
{"free_energy": -8.52, "intermolecular_energy": -10.31, "internal_energy": -1.22, "cluster_size": 9, "cluster_id": 4, "rank_in_cluster": 1}

>  <energy>  (92) 
-8.28

>  <cluster_rmsd>  (92) 
1.51

>  <cluster>  (92) 
4

$$$$

     RDKit          3D

 49 52  0  0  0  0  0  0  0  0999 V2000
  137.5680   75.9750  222.3700 O   0  0  0  0  0  0  0  0  0  0  0  0
  138.8200   76.1910  222.4150 C   0  0  0  0  0  0  0  0  0  0  0  0
  139.6460   75.0510  222.1750 N   0  0  0  0  0  0  0  0  0  0  0  0
  138.9870   73.8010  221.9130 C   0  0  0  0  0  0  0  0  0  0  0  0
  139.8060   72.6250  222.3040 C   0  0  0  0  0  0  0  0  0  0  0  0
  141.0500   72.7480  222.3620 O   0  0  0  0  0  0  0  0  0  0  0  0
  139.1090   71.4200  222.5900 N   0  0  0  0  0  0  0  0  0  0  0  0
  139.0030   70.2020  221.8050 C   0  0  0  0  0  0  0  0  0  0  0  0
  137.5860   69.6640  222.0470 C   0  0  0  0  0  0  0  0  0  0  0  0
  137.0630   70.4680  223.2200 C   0  0  0  0  0  0  0  0  0  0  0  0
  138.2990   71.1190  223.7970 C   0  0  1  0  0  0  0  0  0  0  0  0
  139.0560   70.3020  224.7410 C   0  0  0  0  0  0  0  0  0  0  0  0
  140.1950   70.8820  225.3140 C   0  0  0  0  0  0  0  0  0  0  0  0
  140.9820   70.2010  226.2180 C   0  0  0  0  0  0  0  0  0  0  0  0
  140.6900   68.9110  226.6070 C   0  0  0  0  0  0  0  0  0  0  0  0
  139.5720   68.3270  226.0520 C   0  0  0  0  0  0  0  0  0  0  0  0
  139.2550   67.0270  226.4280 O   0  0  0  0  0  0  0  0  0  0  0  0
  138.7740   69.0210  225.1330 C   0  0  0  0  0  0  0  0  0  0  0  0
  139.3780   77.5080  222.6910 C   0  0  0  0  0  0  0  0  0  0  0  0
  138.4900   78.5470  222.8770 C   0  0  0  0  0  0  0  0  0  0  0  0
  138.9630   79.8120  223.1420 C   0  0  0  0  0  0  0  0  0  0  0  0
  140.3240   80.0110  223.2140 C   0  0  0  0  0  0  0  0  0  0  0  0
  140.7750   81.2810  223.4780 C   0  0  0  0  0  0  0  0  0  0  0  0
  142.1450   81.4600  223.5460 C   0  0  0  0  0  0  0  0  0  0  0  0
  143.0290   80.4190  223.3600 C   0  0  0  0  0  0  0  0  0  0  0  0
  142.5730   79.1310  223.0910 C   0  0  0  0  0  0  0  0  0  0  0  0
  141.2060   78.9670  223.0270 C   0  0  0  0  0  0  0  0  0  0  0  0
  140.6910   77.7580  222.7730 N   0  0  0  0  0  0  0  0  0  0  0  0
  140.6970   75.1440  222.1930 H   0  0  0  0  0  0  0  0  0  0  0  0
  138.0437   73.7758  222.4783 H   0  0  0  0  0  0  0  0  0  0  0  0
  138.8148   73.7386  220.8284 H   0  0  0  0  0  0  0  0  0  0  0  0
  139.1513   70.4214  220.7373 H   0  0  0  0  0  0  0  0  0  0  0  0
  139.7679   69.4672  222.0965 H   0  0  0  0  0  0  0  0  0  0  0  0
  136.9556   69.8189  221.1590 H   0  0  0  0  0  0  0  0  0  0  0  0
  137.5808   68.5827  222.2489 H   0  0  0  0  0  0  0  0  0  0  0  0
  136.3421   71.2275  222.8831 H   0  0  0  0  0  0  0  0  0  0  0  0
  136.5293   69.8471  223.9546 H   0  0  0  0  0  0  0  0  0  0  0  0
  138.0254   71.9934  224.4058 H   0  0  0  0  0  0  0  0  0  0  0  0
  140.4693   71.9100  225.0347 H   0  0  0  0  0  0  0  0  0  0  0  0
  141.8666   70.7002  226.6403 H   0  0  0  0  0  0  0  0  0  0  0  0
  141.3215   68.3718  227.3284 H   0  0  0  0  0  0  0  0  0  0  0  0
  139.4540   66.6860  227.3690 H   0  0  0  0  0  0  0  0  0  0  0  0
  137.8903   68.5192  224.7119 H   0  0  0  0  0  0  0  0  0  0  0  0
  137.4070   78.3650  222.8137 H   0  0  0  0  0  0  0  0  0  0  0  0
  138.2662   80.6496  223.2937 H   0  0  0  0  0  0  0  0  0  0  0  0
  140.0779   82.1185  223.6286 H   0  0  0  0  0  0  0  0  0  0  0  0
  142.5413   82.4646  223.7551 H   0  0  0  0  0  0  0  0  0  0  0  0
  144.1106   80.6084  223.4250 H   0  0  0  0  0  0  0  0  0  0  0  0
  143.2659   78.2905  222.9380 H   0  0  0  0  0  0  0  0  0  0  0  0
  1  2  2  0
  2  3  1  0
  3  4  1  0
  4  5  1  0
  5  6  2  0
  5  7  1  0
  7  8  1  0
  8  9  1  0
  9 10  1  0
 10 11  1  0
 11 12  1  0
 12 13  2  0
 13 14  1  0
 14 15  2  0
 15 16  1  0
 16 17  1  0
 16 18  2  0
  2 19  1  0
 19 20  2  0
 20 21  1  0
 21 22  2  0
 22 23  1  0
 23 24  2  0
 24 25  1  0
 25 26  2  0
 26 27  1  0
 27 28  2  0
 11  7  1  0
 18 12  1  0
 28 19  1  0
 27 22  1  0
  3 29  1  0
  4 30  1  0
  4 31  1  0
  8 32  1  0
  8 33  1  0
  9 34  1  0
  9 35  1  0
 10 36  1  0
 10 37  1  0
 11 38  1  1
 13 39  1  0
 14 40  1  0
 15 41  1  0
 17 42  1  0
 18 43  1  0
 20 44  1  0
 21 45  1  0
 23 46  1  0
 24 47  1  0
 25 48  1  0
 26 49  1  0
M  END
>  <smiles>  (93) 
O=C(NCC(=O)N1CCCC1c1cccc(O)c1)c1ccc2ccccc2n1

>  <score_type>  (93) 
oracle

>  <origin>  (93) 
autodockgpu

>  <m_score__min__energy>  (93) 
-9

>  <m_primary>  (93) 
energy

>  <rmsd>  (93) 
8.974814981020778

>  <m_score__min__rmsd>  (93) 
8.974814981020778

>  <meeko>  (93) 
{"free_energy": -8.35, "intermolecular_energy": -10.14, "internal_energy": -1.6, "cluster_size": 14, "cluster_id": 1, "rank_in_cluster": 11}

>  <energy>  (93) 
-8.24

>  <cluster_rmsd>  (93) 
0.47

>  <cluster>  (93) 
4

$$$$

     RDKit          3D

 49 52  0  0  0  0  0  0  0  0999 V2000
  139.1630   74.9360  222.6410 O   0  0  0  0  0  0  0  0  0  0  0  0
  139.9740   75.3050  221.7340 C   0  0  0  0  0  0  0  0  0  0  0  0
  140.2720   74.3200  220.7430 N   0  0  0  0  0  0  0  0  0  0  0  0
  139.6350   73.0380  220.8720 C   0  0  0  0  0  0  0  0  0  0  0  0
  140.0440   72.3130  222.1030 C   0  0  0  0  0  0  0  0  0  0  0  0
  141.0780   72.6810  222.7050 O   0  0  0  0  0  0  0  0  0  0  0  0
  139.2200   71.2330  222.5190 N   0  0  0  0  0  0  0  0  0  0  0  0
  138.9190   69.9820  221.8420 C   0  0  0  0  0  0  0  0  0  0  0  0
  137.4620   69.6510  222.1930 C   0  0  0  0  0  0  0  0  0  0  0  0
  137.1100   70.6020  223.3190 C   0  0  0  0  0  0  0  0  0  0  0  0
  138.4480   71.1300  223.7830 C   0  0  1  0  0  0  0  0  0  0  0  0
  139.1500   70.2970  224.7540 C   0  0  0  0  0  0  0  0  0  0  0  0
  140.2700   70.8560  225.3830 C   0  0  0  0  0  0  0  0  0  0  0  0
  141.0050   70.1580  226.3160 C   0  0  0  0  0  0  0  0  0  0  0  0
  140.6770   68.8700  226.6830 C   0  0  0  0  0  0  0  0  0  0  0  0
  139.5780   68.3060  226.0740 C   0  0  0  0  0  0  0  0  0  0  0  0
  139.2260   67.0080  226.4260 O   0  0  0  0  0  0  0  0  0  0  0  0
  138.8320   69.0170  225.1240 C   0  0  0  0  0  0  0  0  0  0  0  0
  140.5610   76.6370  221.7030 C   0  0  0  0  0  0  0  0  0  0  0  0
  140.7890   77.2020  220.4660 C   0  0  0  0  0  0  0  0  0  0  0  0
  141.3420   78.4600  220.3790 C   0  0  0  0  0  0  0  0  0  0  0  0
  141.6570   79.1290  221.5420 C   0  0  0  0  0  0  0  0  0  0  0  0
  142.2080   80.3810  221.4330 C   0  0  0  0  0  0  0  0  0  0  0  0
  142.5170   81.0360  222.6110 C   0  0  0  0  0  0  0  0  0  0  0  0
  142.2870   80.4680  223.8460 C   0  0  0  0  0  0  0  0  0  0  0  0
  141.7290   79.1980  223.9570 C   0  0  0  0  0  0  0  0  0  0  0  0
  141.4260   78.5570  222.7750 C   0  0  0  0  0  0  0  0  0  0  0  0
  140.8860   77.3330  222.8000 N   0  0  0  0  0  0  0  0  0  0  0  0
  140.9360   74.5450  219.9540 H   0  0  0  0  0  0  0  0  0  0  0  0
  138.5456   73.1879  220.8980 H   0  0  0  0  0  0  0  0  0  0  0  0
  139.9424   72.4272  220.0103 H   0  0  0  0  0  0  0  0  0  0  0  0
  139.0330   70.0990  220.7542 H   0  0  0  0  0  0  0  0  0  0  0  0
  139.6017   69.1790  222.1569 H   0  0  0  0  0  0  0  0  0  0  0  0
  136.8068   69.8181  221.3254 H   0  0  0  0  0  0  0  0  0  0  0  0
  137.3336   68.5978  222.4833 H   0  0  0  0  0  0  0  0  0  0  0  0
  136.4717   71.4204  222.9545 H   0  0  0  0  0  0  0  0  0  0  0  0
  136.5451   70.1123  224.1259 H   0  0  0  0  0  0  0  0  0  0  0  0
  138.3194   72.0752  224.3307 H   0  0  0  0  0  0  0  0  0  0  0  0
  140.5713   71.8819  225.1245 H   0  0  0  0  0  0  0  0  0  0  0  0
  141.8771   70.6412  226.7807 H   0  0  0  0  0  0  0  0  0  0  0  0
  141.2669   68.3175  227.4291 H   0  0  0  0  0  0  0  0  0  0  0  0
  139.6980   66.5200  227.1860 H   0  0  0  0  0  0  0  0  0  0  0  0
  137.9615   68.5305  224.6597 H   0  0  0  0  0  0  0  0  0  0  0  0
  140.5298   76.6491  219.5510 H   0  0  0  0  0  0  0  0  0  0  0  0
  141.5290   78.9228  219.3988 H   0  0  0  0  0  0  0  0  0  0  0  0
  142.3955   80.8429  220.4524 H   0  0  0  0  0  0  0  0  0  0  0  0
  142.9601   82.0416  222.5611 H   0  0  0  0  0  0  0  0  0  0  0  0
  142.5483   81.0268  224.7568 H   0  0  0  0  0  0  0  0  0  0  0  0
  141.5400   78.7311  224.9349 H   0  0  0  0  0  0  0  0  0  0  0  0
  1  2  2  0
  2  3  1  0
  3  4  1  0
  4  5  1  0
  5  6  2  0
  5  7  1  0
  7  8  1  0
  8  9  1  0
  9 10  1  0
 10 11  1  0
 11 12  1  0
 12 13  2  0
 13 14  1  0
 14 15  2  0
 15 16  1  0
 16 17  1  0
 16 18  2  0
  2 19  1  0
 19 20  2  0
 20 21  1  0
 21 22  2  0
 22 23  1  0
 23 24  2  0
 24 25  1  0
 25 26  2  0
 26 27  1  0
 27 28  2  0
 11  7  1  0
 18 12  1  0
 28 19  1  0
 27 22  1  0
  3 29  1  0
  4 30  1  0
  4 31  1  0
  8 32  1  0
  8 33  1  0
  9 34  1  0
  9 35  1  0
 10 36  1  0
 10 37  1  0
 11 38  1  1
 13 39  1  0
 14 40  1  0
 15 41  1  0
 17 42  1  0
 18 43  1  0
 20 44  1  0
 21 45  1  0
 23 46  1  0
 24 47  1  0
 25 48  1  0
 26 49  1  0
M  END
>  <smiles>  (94) 
O=C(NCC(=O)N1CCCC1c1cccc(O)c1)c1ccc2ccccc2n1

>  <score_type>  (94) 
oracle

>  <origin>  (94) 
autodockgpu

>  <m_score__min__energy>  (94) 
-9

>  <m_primary>  (94) 
energy

>  <rmsd>  (94) 
8.808218490383862

>  <m_score__min__rmsd>  (94) 
8.808218490383862

>  <meeko>  (94) 
{"free_energy": -8.47, "intermolecular_energy": -10.26, "internal_energy": -1.14, "cluster_size": 14, "cluster_id": 1, "rank_in_cluster": 7}

>  <energy>  (94) 
-8.07

>  <cluster_rmsd>  (94) 
1.86

>  <cluster>  (94) 
4

$$$$

     RDKit          3D

 49 52  0  0  0  0  0  0  0  0999 V2000
  140.4470   74.6830  220.2270 O   0  0  0  0  0  0  0  0  0  0  0  0
  140.1890   75.4180  221.2320 C   0  0  0  0  0  0  0  0  0  0  0  0
  139.3350   74.8310  222.2150 N   0  0  0  0  0  0  0  0  0  0  0  0
  138.8650   73.4960  221.9710 C   0  0  0  0  0  0  0  0  0  0  0  0
  139.8540   72.4570  222.3600 C   0  0  0  0  0  0  0  0  0  0  0  0
  141.0630   72.7710  222.4320 O   0  0  0  0  0  0  0  0  0  0  0  0
  139.3500   71.1560  222.6280 N   0  0  0  0  0  0  0  0  0  0  0  0
  139.5480   69.9160  221.8970 C   0  0  0  0  0  0  0  0  0  0  0  0
  138.2280   69.1400  222.0120 C   0  0  0  0  0  0  0  0  0  0  0  0
  137.4420   69.8720  223.0810 C   0  0  0  0  0  0  0  0  0  0  0  0
  138.4720   70.7500  223.7550 C   0  0  1  0  0  0  0  0  0  0  0  0
  139.2460   70.1100  224.8130 C   0  0  0  0  0  0  0  0  0  0  0  0
  140.1350   70.9200  225.5310 C   0  0  0  0  0  0  0  0  0  0  0  0
  140.9150   70.4200  226.5520 C   0  0  0  0  0  0  0  0  0  0  0  0
  140.8620   69.0930  226.9220 C   0  0  0  0  0  0  0  0  0  0  0  0
  139.9920   68.2830  226.2250 C   0  0  0  0  0  0  0  0  0  0  0  0
  139.9190   66.9410  226.5780 O   0  0  0  0  0  0  0  0  0  0  0  0
  139.2010   68.7930  225.1880 C   0  0  0  0  0  0  0  0  0  0  0  0
  140.7240   76.7660  221.3740 C   0  0  0  0  0  0  0  0  0  0  0  0
  141.2890   77.3450  220.2570 C   0  0  0  0  0  0  0  0  0  0  0  0
  141.8100   78.6170  220.3360 C   0  0  0  0  0  0  0  0  0  0  0  0
  141.7540   79.2850  221.5400 C   0  0  0  0  0  0  0  0  0  0  0  0
  142.2790   80.5520  221.5970 C   0  0  0  0  0  0  0  0  0  0  0  0
  142.2130   81.2060  222.8130 C   0  0  0  0  0  0  0  0  0  0  0  0
  141.6470   80.6230  223.9270 C   0  0  0  0  0  0  0  0  0  0  0  0
  141.1150   79.3380  223.8710 C   0  0  0  0  0  0  0  0  0  0  0  0
  141.1870   78.6990  222.6520 C   0  0  0  0  0  0  0  0  0  0  0  0
  140.6960   77.4610  222.5180 N   0  0  0  0  0  0  0  0  0  0  0  0
  139.0720   75.3740  223.0810 H   0  0  0  0  0  0  0  0  0  0  0  0
  137.9426   73.3371  222.5488 H   0  0  0  0  0  0  0  0  0  0  0  0
  138.6908   73.3988  220.8892 H   0  0  0  0  0  0  0  0  0  0  0  0
  139.7764   70.1269  220.8419 H   0  0  0  0  0  0  0  0  0  0  0  0
  140.3910   69.3388  222.3047 H   0  0  0  0  0  0  0  0  0  0  0  0
  137.6859   69.1530  221.0549 H   0  0  0  0  0  0  0  0  0  0  0  0
  138.3886   68.0817  222.2654 H   0  0  0  0  0  0  0  0  0  0  0  0
  136.6434   70.4804  222.6315 H   0  0  0  0  0  0  0  0  0  0  0  0
  136.9438   69.1878  223.7836 H   0  0  0  0  0  0  0  0  0  0  0  0
  137.9826   71.5788  224.2875 H   0  0  0  0  0  0  0  0  0  0  0  0
  140.2131   71.9864  225.2727 H   0  0  0  0  0  0  0  0  0  0  0  0
  141.5976   71.0978  227.0855 H   0  0  0  0  0  0  0  0  0  0  0  0
  141.4863   68.6984  227.7372 H   0  0  0  0  0  0  0  0  0  0  0  0
  139.8600   66.6540  227.5550 H   0  0  0  0  0  0  0  0  0  0  0  0
  138.5199   68.1125  224.6560 H   0  0  0  0  0  0  0  0  0  0  0  0
  141.3233   76.7925  219.3064 H   0  0  0  0  0  0  0  0  0  0  0  0
  142.2631   79.0918  219.4533 H   0  0  0  0  0  0  0  0  0  0  0  0
  142.7323   81.0260  220.7139 H   0  0  0  0  0  0  0  0  0  0  0  0
  142.6247   82.2228  222.8945 H   0  0  0  0  0  0  0  0  0  0  0  0
  141.6154   81.1817  224.8740 H   0  0  0  0  0  0  0  0  0  0  0  0
  140.6620   78.8588  224.7514 H   0  0  0  0  0  0  0  0  0  0  0  0
  1  2  2  0
  2  3  1  0
  3  4  1  0
  4  5  1  0
  5  6  2  0
  5  7  1  0
  7  8  1  0
  8  9  1  0
  9 10  1  0
 10 11  1  0
 11 12  1  0
 12 13  2  0
 13 14  1  0
 14 15  2  0
 15 16  1  0
 16 17  1  0
 16 18  2  0
  2 19  1  0
 19 20  2  0
 20 21  1  0
 21 22  2  0
 22 23  1  0
 23 24  2  0
 24 25  1  0
 25 26  2  0
 26 27  1  0
 27 28  2  0
 11  7  1  0
 18 12  1  0
 28 19  1  0
 27 22  1  0
  3 29  1  0
  4 30  1  0
  4 31  1  0
  8 32  1  0
  8 33  1  0
  9 34  1  0
  9 35  1  0
 10 36  1  0
 10 37  1  0
 11 38  1  1
 13 39  1  0
 14 40  1  0
 15 41  1  0
 17 42  1  0
 18 43  1  0
 20 44  1  0
 21 45  1  0
 23 46  1  0
 24 47  1  0
 25 48  1  0
 26 49  1  0
M  END
>  <smiles>  (95) 
O=C(NCC(=O)N1CCCC1c1cccc(O)c1)c1ccc2ccccc2n1

>  <score_type>  (95) 
oracle

>  <origin>  (95) 
autodockgpu

>  <m_score__min__energy>  (95) 
-9

>  <m_primary>  (95) 
energy

>  <rmsd>  (95) 
8.918271660228495

>  <m_score__min__rmsd>  (95) 
8.918271660228495

>  <meeko>  (95) 
{"free_energy": -8.34, "intermolecular_energy": -10.13, "internal_energy": -1.28, "cluster_size": 14, "cluster_id": 1, "rank_in_cluster": 13}

>  <energy>  (95) 
-8.02

>  <cluster_rmsd>  (95) 
1.91

>  <cluster>  (95) 
4

$$$$

     RDKit          3D

 49 52  0  0  0  0  0  0  0  0999 V2000
  140.6740   75.2430  220.7380 O   0  0  0  0  0  0  0  0  0  0  0  0
  140.0310   75.6840  221.7430 C   0  0  0  0  0  0  0  0  0  0  0  0
  139.1090   74.7640  222.3300 N   0  0  0  0  0  0  0  0  0  0  0  0
  139.0060   73.4600  221.7350 C   0  0  0  0  0  0  0  0  0  0  0  0
  139.9470   72.4780  222.3340 C   0  0  0  0  0  0  0  0  0  0  0  0
  141.1680   72.7530  222.3630 O   0  0  0  0  0  0  0  0  0  0  0  0
  139.3870   71.2740  222.8390 N   0  0  0  0  0  0  0  0  0  0  0  0
  139.4910   69.9180  222.3280 C   0  0  0  0  0  0  0  0  0  0  0  0
  138.1380   69.2520  222.6170 C   0  0  0  0  0  0  0  0  0  0  0  0
  137.4360   70.2010  223.5670 C   0  0  0  0  0  0  0  0  0  0  0  0
  138.5360   71.1200  224.0460 C   0  0  1  0  0  0  0  0  0  0  0  0
  139.3190   70.6270  225.1740 C   0  0  0  0  0  0  0  0  0  0  0  0
  140.3540   71.4490  225.6400 C   0  0  0  0  0  0  0  0  0  0  0  0
  141.1540   71.0810  226.7010 C   0  0  0  0  0  0  0  0  0  0  0  0
  140.9800   69.8830  227.3610 C   0  0  0  0  0  0  0  0  0  0  0  0
  139.9660   69.0640  226.9140 C   0  0  0  0  0  0  0  0  0  0  0  0
  139.7690   67.8510  227.5630 O   0  0  0  0  0  0  0  0  0  0  0  0
  139.1540   69.4390  225.8360 C   0  0  0  0  0  0  0  0  0  0  0  0
  140.2170   77.0320  222.2610 C   0  0  0  0  0  0  0  0  0  0  0  0
  139.0890   77.7240  222.6510 C   0  0  0  0  0  0  0  0  0  0  0  0
  139.2090   79.0020  223.1480 C   0  0  0  0  0  0  0  0  0  0  0  0
  140.4630   79.5630  223.2450 C   0  0  0  0  0  0  0  0  0  0  0  0
  140.5600   80.8390  223.7430 C   0  0  0  0  0  0  0  0  0  0  0  0
  141.8270   81.3850  223.8330 C   0  0  0  0  0  0  0  0  0  0  0  0
  142.9520   80.6890  223.4420 C   0  0  0  0  0  0  0  0  0  0  0  0
  142.8550   79.3960  222.9370 C   0  0  0  0  0  0  0  0  0  0  0  0
  141.5860   78.8650  222.8540 C   0  0  0  0  0  0  0  0  0  0  0  0
  141.4120   77.6260  222.3780 N   0  0  0  0  0  0  0  0  0  0  0  0
  138.5350   75.0510  223.1680 H   0  0  0  0  0  0  0  0  0  0  0  0
  137.9788   73.0912  221.8721 H   0  0  0  0  0  0  0  0  0  0  0  0
  139.2648   73.5601  220.6706 H   0  0  0  0  0  0  0  0  0  0  0  0
  139.6870   69.9314  221.2457 H   0  0  0  0  0  0  0  0  0  0  0  0
  140.3189   69.3709  222.8026 H   0  0  0  0  0  0  0  0  0  0  0  0
  137.5586   69.1327  221.6896 H   0  0  0  0  0  0  0  0  0  0  0  0
  138.2532   68.2452  223.0448 H   0  0  0  0  0  0  0  0  0  0  0  0
  136.6523   70.7688  223.0441 H   0  0  0  0  0  0  0  0  0  0  0  0
  136.9326   69.6773  224.3930 H   0  0  0  0  0  0  0  0  0  0  0  0
  138.1121   72.0547  224.4418 H   0  0  0  0  0  0  0  0  0  0  0  0
  140.5332   72.4150  225.1454 H   0  0  0  0  0  0  0  0  0  0  0  0
  141.9529   71.7618  227.0299 H   0  0  0  0  0  0  0  0  0  0  0  0
  141.6218   69.5940  228.2063 H   0  0  0  0  0  0  0  0  0  0  0  0
  140.2560   67.0060  227.2640 H   0  0  0  0  0  0  0  0  0  0  0  0
  138.3561   68.7558  225.5096 H   0  0  0  0  0  0  0  0  0  0  0  0
  138.0972   77.2561  222.5651 H   0  0  0  0  0  0  0  0  0  0  0  0
  138.3183   79.5657  223.4624 H   0  0  0  0  0  0  0  0  0  0  0  0
  139.6686   81.4021  224.0566 H   0  0  0  0  0  0  0  0  0  0  0  0
  141.9414   82.4051  224.2283 H   0  0  0  0  0  0  0  0  0  0  0  0
  143.9405   81.1632  223.5308 H   0  0  0  0  0  0  0  0  0  0  0  0
  143.7429   78.8286  222.6212 H   0  0  0  0  0  0  0  0  0  0  0  0
  1  2  2  0
  2  3  1  0
  3  4  1  0
  4  5  1  0
  5  6  2  0
  5  7  1  0
  7  8  1  0
  8  9  1  0
  9 10  1  0
 10 11  1  0
 11 12  1  0
 12 13  2  0
 13 14  1  0
 14 15  2  0
 15 16  1  0
 16 17  1  0
 16 18  2  0
  2 19  1  0
 19 20  2  0
 20 21  1  0
 21 22  2  0
 22 23  1  0
 23 24  2  0
 24 25  1  0
 25 26  2  0
 26 27  1  0
 27 28  2  0
 11  7  1  0
 18 12  1  0
 28 19  1  0
 27 22  1  0
  3 29  1  0
  4 30  1  0
  4 31  1  0
  8 32  1  0
  8 33  1  0
  9 34  1  0
  9 35  1  0
 10 36  1  0
 10 37  1  0
 11 38  1  1
 13 39  1  0
 14 40  1  0
 15 41  1  0
 17 42  1  0
 18 43  1  0
 20 44  1  0
 21 45  1  0
 23 46  1  0
 24 47  1  0
 25 48  1  0
 26 49  1  0
M  END
>  <smiles>  (96) 
O=C(NCC(=O)N1CCCC1c1cccc(O)c1)c1ccc2ccccc2n1

>  <score_type>  (96) 
oracle

>  <origin>  (96) 
autodockgpu

>  <m_score__min__energy>  (96) 
-9

>  <m_primary>  (96) 
energy

>  <rmsd>  (96) 
8.854120123326041

>  <m_score__min__rmsd>  (96) 
8.854120123326041

>  <meeko>  (96) 
{"free_energy": -8.72, "intermolecular_energy": -10.51, "internal_energy": -1.12, "cluster_size": 14, "cluster_id": 1, "rank_in_cluster": 5}

>  <energy>  (96) 
-7.95

>  <cluster_rmsd>  (96) 
0.61

>  <cluster>  (96) 
4

$$$$

     RDKit          3D

 49 52  0  0  0  0  0  0  0  0999 V2000
  141.4010   72.2250  221.7490 O   0  0  0  0  0  0  0  0  0  0  0  0
  140.4350   72.3790  222.5610 C   0  0  0  0  0  0  0  0  0  0  0  0
  139.5250   73.4320  222.2380 N   0  0  0  0  0  0  0  0  0  0  0  0
  139.7920   74.1930  221.0490 C   0  0  0  0  0  0  0  0  0  0  0  0
  140.4620   75.4890  221.3330 C   0  0  0  0  0  0  0  0  0  0  0  0
  141.7060   75.5610  221.2260 O   0  0  0  0  0  0  0  0  0  0  0  0
  139.6280   76.5760  221.7120 N   0  0  0  0  0  0  0  0  0  0  0  0
  138.6130   76.6480  222.7490 C   0  0  0  0  0  0  0  0  0  0  0  0
  137.5100   77.5630  222.1990 C   0  0  0  0  0  0  0  0  0  0  0  0
  138.1210   78.2110  220.9740 C   0  0  0  0  0  0  0  0  0  0  0  0
  139.6000   77.9340  221.1130 C   0  0  1  0  0  0  0  0  0  0  0  0
  140.3410   78.8820  221.9400 C   0  0  0  0  0  0  0  0  0  0  0  0
  139.5900   79.7690  222.7220 C   0  0  0  0  0  0  0  0  0  0  0  0
  140.1870   80.7030  223.5410 C   0  0  0  0  0  0  0  0  0  0  0  0
  141.5580   80.8160  223.6340 C   0  0  0  0  0  0  0  0  0  0  0  0
  142.3110   79.9510  222.8710 C   0  0  0  0  0  0  0  0  0  0  0  0
  143.6950   80.0440  222.9470 O   0  0  0  0  0  0  0  0  0  0  0  0
  141.7020   79.0020  222.0400 C   0  0  0  0  0  0  0  0  0  0  0  0
  140.2640   71.5420  223.7410 C   0  0  0  0  0  0  0  0  0  0  0  0
  139.5930   70.3470  223.5810 C   0  0  0  0  0  0  0  0  0  0  0  0
  139.4040   69.5180  224.6630 C   0  0  0  0  0  0  0  0  0  0  0  0
  139.8930   69.9060  225.8910 C   0  0  0  0  0  0  0  0  0  0  0  0
  139.6930   69.0650  226.9570 C   0  0  0  0  0  0  0  0  0  0  0  0
  140.1910   69.4720  228.1810 C   0  0  0  0  0  0  0  0  0  0  0  0
  140.8610   70.6670  228.3380 C   0  0  0  0  0  0  0  0  0  0  0  0
  141.0640   71.5210  227.2570 C   0  0  0  0  0  0  0  0  0  0  0  0
  140.5620   71.1020  226.0440 C   0  0  0  0  0  0  0  0  0  0  0  0
  140.7180   71.8690  224.9580 N   0  0  0  0  0  0  0  0  0  0  0  0
  138.6960   73.6260  222.8600 H   0  0  0  0  0  0  0  0  0  0  0  0
  140.4416   73.5986  220.3897 H   0  0  0  0  0  0  0  0  0  0  0  0
  138.8250   74.4170  220.5750 H   0  0  0  0  0  0  0  0  0  0  0  0
  138.2094   75.6465  222.9589 H   0  0  0  0  0  0  0  0  0  0  0  0
  139.0266   77.0371  223.6911 H   0  0  0  0  0  0  0  0  0  0  0  0
  136.6208   76.9764  221.9245 H   0  0  0  0  0  0  0  0  0  0  0  0
  137.1781   78.3053  222.9398 H   0  0  0  0  0  0  0  0  0  0  0  0
  137.7234   77.7591  220.0533 H   0  0  0  0  0  0  0  0  0  0  0  0
  137.8961   79.2857  220.9069 H   0  0  0  0  0  0  0  0  0  0  0  0
  140.1021   78.0252  220.1385 H   0  0  0  0  0  0  0  0  0  0  0  0
  138.4919   79.7186  222.6812 H   0  0  0  0  0  0  0  0  0  0  0  0
  139.5528   81.3763  224.1364 H   0  0  0  0  0  0  0  0  0  0  0  0
  142.0296   81.5638  224.2885 H   0  0  0  0  0  0  0  0  0  0  0  0
  144.2950   79.5510  222.2850 H   0  0  0  0  0  0  0  0  0  0  0  0
  142.3390   78.3294  221.4468 H   0  0  0  0  0  0  0  0  0  0  0  0
  139.2102   70.0578  222.5912 H   0  0  0  0  0  0  0  0  0  0  0  0
  138.8717   68.5621  224.5493 H   0  0  0  0  0  0  0  0  0  0  0  0
  139.1601   68.1095  226.8427 H   0  0  0  0  0  0  0  0  0  0  0  0
  140.0483   68.8222  229.0570 H   0  0  0  0  0  0  0  0  0  0  0  0
  141.2404   70.9496  229.3311 H   0  0  0  0  0  0  0  0  0  0  0  0
  141.5959   72.4777  227.3654 H   0  0  0  0  0  0  0  0  0  0  0  0
  1  2  2  0
  2  3  1  0
  3  4  1  0
  4  5  1  0
  5  6  2  0
  5  7  1  0
  7  8  1  0
  8  9  1  0
  9 10  1  0
 10 11  1  0
 11 12  1  0
 12 13  2  0
 13 14  1  0
 14 15  2  0
 15 16  1  0
 16 17  1  0
 16 18  2  0
  2 19  1  0
 19 20  2  0
 20 21  1  0
 21 22  2  0
 22 23  1  0
 23 24  2  0
 24 25  1  0
 25 26  2  0
 26 27  1  0
 27 28  2  0
 11  7  1  0
 18 12  1  0
 28 19  1  0
 27 22  1  0
  3 29  1  0
  4 30  1  0
  4 31  1  0
  8 32  1  0
  8 33  1  0
  9 34  1  0
  9 35  1  0
 10 36  1  0
 10 37  1  0
 11 38  1  6
 13 39  1  0
 14 40  1  0
 15 41  1  0
 17 42  1  0
 18 43  1  0
 20 44  1  0
 21 45  1  0
 23 46  1  0
 24 47  1  0
 25 48  1  0
 26 49  1  0
M  END
>  <smiles>  (97) 
O=C(NCC(=O)N1CCCC1c1cccc(O)c1)c1ccc2ccccc2n1

>  <score_type>  (97) 
oracle

>  <origin>  (97) 
autodockgpu

>  <m_score__min__energy>  (97) 
-9

>  <m_primary>  (97) 
energy

>  <rmsd>  (97) 
3.4116707050537514

>  <m_score__min__rmsd>  (97) 
3.4116707050537514

>  <meeko>  (97) 
{"free_energy": -8.72, "intermolecular_energy": -10.51, "internal_energy": -1.03, "cluster_size": 9, "cluster_id": 3, "rank_in_cluster": 1}

>  <energy>  (97) 
-7.75

>  <cluster_rmsd>  (97) 
0.95

>  <cluster>  (97) 
4

$$$$

     RDKit          3D

 49 52  0  0  0  0  0  0  0  0999 V2000
  141.4520   72.2510  221.7820 O   0  0  0  0  0  0  0  0  0  0  0  0
  140.4610   72.4050  222.5640 C   0  0  0  0  0  0  0  0  0  0  0  0
  139.5620   73.4570  222.2120 N   0  0  0  0  0  0  0  0  0  0  0  0
  139.8650   74.2190  221.0320 C   0  0  0  0  0  0  0  0  0  0  0  0
  140.7780   75.3600  221.3000 C   0  0  0  0  0  0  0  0  0  0  0  0
  140.6900   75.9580  222.3960 O   0  0  0  0  0  0  0  0  0  0  0  0
  141.7040   75.6990  220.2780 N   0  0  0  0  0  0  0  0  0  0  0  0
  142.4680   76.9210  220.0870 C   0  0  0  0  0  0  0  0  0  0  0  0
  142.5550   77.1330  218.5690 C   0  0  0  0  0  0  0  0  0  0  0  0
  142.0800   75.8250  217.9680 C   0  0  0  0  0  0  0  0  0  0  0  0
  142.1170   74.8560  219.1280 C   0  0  1  0  0  0  0  0  0  0  0  0
  143.4110   74.2290  219.3810 C   0  0  0  0  0  0  0  0  0  0  0  0
  144.1690   73.8570  218.2630 C   0  0  0  0  0  0  0  0  0  0  0  0
  145.4040   73.2590  218.3860 C   0  0  0  0  0  0  0  0  0  0  0  0
  145.9620   72.9940  219.6190 C   0  0  0  0  0  0  0  0  0  0  0  0
  145.2290   73.3540  220.7290 C   0  0  0  0  0  0  0  0  0  0  0  0
  145.7690   73.0980  221.9840 O   0  0  0  0  0  0  0  0  0  0  0  0
  143.9730   73.9620  220.6010 C   0  0  0  0  0  0  0  0  0  0  0  0
  140.2540   71.5680  223.7380 C   0  0  0  0  0  0  0  0  0  0  0  0
  139.5520   70.3940  223.5650 C   0  0  0  0  0  0  0  0  0  0  0  0
  139.3270   69.5660  224.6420 C   0  0  0  0  0  0  0  0  0  0  0  0
  139.8140   69.9350  225.8770 C   0  0  0  0  0  0  0  0  0  0  0  0
  139.5790   69.0950  226.9370 C   0  0  0  0  0  0  0  0  0  0  0  0
  140.0760   69.4830  228.1680 C   0  0  0  0  0  0  0  0  0  0  0  0
  140.7780   70.6570  228.3370 C   0  0  0  0  0  0  0  0  0  0  0  0
  141.0160   71.5100  227.2620 C   0  0  0  0  0  0  0  0  0  0  0  0
  140.5160   71.1110  226.0420 C   0  0  0  0  0  0  0  0  0  0  0  0
  140.7050   71.8770  224.9610 N   0  0  0  0  0  0  0  0  0  0  0  0
  138.7130   73.6510  222.8080 H   0  0  0  0  0  0  0  0  0  0  0  0
  140.3412   73.5535  220.2969 H   0  0  0  0  0  0  0  0  0  0  0  0
  138.9188   74.6345  220.6550 H   0  0  0  0  0  0  0  0  0  0  0  0
  141.9558   77.7703  220.5628 H   0  0  0  0  0  0  0  0  0  0  0  0
  143.4671   76.8466  220.5413 H   0  0  0  0  0  0  0  0  0  0  0  0
  141.9041   77.9625  218.2556 H   0  0  0  0  0  0  0  0  0  0  0  0
  143.5728   77.3943  218.2437 H   0  0  0  0  0  0  0  0  0  0  0  0
  141.0580   75.9241  217.5735 H   0  0  0  0  0  0  0  0  0  0  0  0
  142.7015   75.4970  217.1218 H   0  0  0  0  0  0  0  0  0  0  0  0
  141.4687   73.9903  218.9273 H   0  0  0  0  0  0  0  0  0  0  0  0
  143.7662   74.0480  217.2574 H   0  0  0  0  0  0  0  0  0  0  0  0
  145.9596   72.9857  217.4768 H   0  0  0  0  0  0  0  0  0  0  0  0
  146.9485   72.5164  219.7123 H   0  0  0  0  0  0  0  0  0  0  0  0
  145.8560   72.1460  222.3370 H   0  0  0  0  0  0  0  0  0  0  0  0
  143.4194   74.2342  221.5117 H   0  0  0  0  0  0  0  0  0  0  0  0
  139.1728   70.1196  222.5696 H   0  0  0  0  0  0  0  0  0  0  0  0
  138.7683   68.6265  224.5186 H   0  0  0  0  0  0  0  0  0  0  0  0
  139.0205   68.1555  226.8129 H   0  0  0  0  0  0  0  0  0  0  0  0
  139.9056   68.8341  229.0397 H   0  0  0  0  0  0  0  0  0  0  0  0
  141.1556   70.9241  229.3350 H   0  0  0  0  0  0  0  0  0  0  0  0
  141.5730   72.4511  227.3807 H   0  0  0  0  0  0  0  0  0  0  0  0
  1  2  2  0
  2  3  1  0
  3  4  1  0
  4  5  1  0
  5  6  2  0
  5  7  1  0
  7  8  1  0
  8  9  1  0
  9 10  1  0
 10 11  1  0
 11 12  1  0
 12 13  2  0
 13 14  1  0
 14 15  2  0
 15 16  1  0
 16 17  1  0
 16 18  2  0
  2 19  1  0
 19 20  2  0
 20 21  1  0
 21 22  2  0
 22 23  1  0
 23 24  2  0
 24 25  1  0
 25 26  2  0
 26 27  1  0
 27 28  2  0
 11  7  1  0
 18 12  1  0
 28 19  1  0
 27 22  1  0
  3 29  1  0
  4 30  1  0
  4 31  1  0
  8 32  1  0
  8 33  1  0
  9 34  1  0
  9 35  1  0
 10 36  1  0
 10 37  1  0
 11 38  1  6
 13 39  1  0
 14 40  1  0
 15 41  1  0
 17 42  1  0
 18 43  1  0
 20 44  1  0
 21 45  1  0
 23 46  1  0
 24 47  1  0
 25 48  1  0
 26 49  1  0
M  END
>  <smiles>  (98) 
O=C(NCC(=O)N1CCCC1c1cccc(O)c1)c1ccc2ccccc2n1

>  <score_type>  (98) 
oracle

>  <origin>  (98) 
autodockgpu

>  <m_score__min__energy>  (98) 
-9

>  <m_primary>  (98) 
energy

>  <rmsd>  (98) 
3.284447111551736

>  <m_score__min__rmsd>  (98) 
3.284447111551736

>  <meeko>  (98) 
{"free_energy": -8.57, "intermolecular_energy": -10.36, "internal_energy": -1.4, "cluster_size": 16, "cluster_id": 2, "rank_in_cluster": 10}

>  <energy>  (98) 
-7.7

>  <cluster_rmsd>  (98) 
1.71

>  <cluster>  (98) 
4

$$$$

     RDKit          3D

 49 52  0  0  0  0  0  0  0  0999 V2000
  141.1510   71.3610  221.9350 O   0  0  0  0  0  0  0  0  0  0  0  0
  140.5080   71.8330  222.9260 C   0  0  0  0  0  0  0  0  0  0  0  0
  139.8260   73.0640  222.6820 N   0  0  0  0  0  0  0  0  0  0  0  0
  139.9350   73.6310  221.3660 C   0  0  0  0  0  0  0  0  0  0  0  0
  140.2730   75.0770  221.3880 C   0  0  0  0  0  0  0  0  0  0  0  0
  139.6940   75.8200  222.2130 O   0  0  0  0  0  0  0  0  0  0  0  0
  141.2450   75.5260  220.4540 N   0  0  0  0  0  0  0  0  0  0  0  0
  141.9890   76.7740  220.4180 C   0  0  0  0  0  0  0  0  0  0  0  0
  142.1540   77.1260  218.9330 C   0  0  0  0  0  0  0  0  0  0  0  0
  141.7450   75.8700  218.1910 C   0  0  0  0  0  0  0  0  0  0  0  0
  141.7410   74.8000  219.2580 C   0  0  1  0  0  0  0  0  0  0  0  0
  143.0330   74.1760  219.5270 C   0  0  0  0  0  0  0  0  0  0  0  0
  143.2350   73.6580  220.8130 C   0  0  0  0  0  0  0  0  0  0  0  0
  144.4170   73.0480  221.1740 C   0  0  0  0  0  0  0  0  0  0  0  0
  145.4660   72.9150  220.2890 C   0  0  0  0  0  0  0  0  0  0  0  0
  145.2820   73.4190  219.0200 C   0  0  0  0  0  0  0  0  0  0  0  0
  146.3230   73.2970  218.1080 O   0  0  0  0  0  0  0  0  0  0  0  0
  144.0800   74.0390  218.6550 C   0  0  0  0  0  0  0  0  0  0  0  0
  140.4680   71.1680  224.2210 C   0  0  0  0  0  0  0  0  0  0  0  0
  140.8970   71.8870  225.3170 C   0  0  0  0  0  0  0  0  0  0  0  0
  140.8800   71.3060  226.5650 C   0  0  0  0  0  0  0  0  0  0  0  0
  140.4310   70.0090  226.6890 C   0  0  0  0  0  0  0  0  0  0  0  0
  140.4230   69.4490  227.9430 C   0  0  0  0  0  0  0  0  0  0  0  0
  139.9690   68.1470  228.0460 C   0  0  0  0  0  0  0  0  0  0  0  0
  139.5400   67.4320  226.9480 C   0  0  0  0  0  0  0  0  0  0  0  0
  139.5490   67.9990  225.6770 C   0  0  0  0  0  0  0  0  0  0  0  0
  140.0030   69.2970  225.5880 C   0  0  0  0  0  0  0  0  0  0  0  0
  140.0410   69.9110  224.4000 N   0  0  0  0  0  0  0  0  0  0  0  0
  139.2680   73.5230  223.4510 H   0  0  0  0  0  0  0  0  0  0  0  0
  140.7224   73.0944  220.8164 H   0  0  0  0  0  0  0  0  0  0  0  0
  138.9542   73.5277  220.8789 H   0  0  0  0  0  0  0  0  0  0  0  0
  141.4315   77.5664  220.9389 H   0  0  0  0  0  0  0  0  0  0  0  0
  142.9632   76.6767  220.9195 H   0  0  0  0  0  0  0  0  0  0  0  0
  141.5012   77.9680  218.6593 H   0  0  0  0  0  0  0  0  0  0  0  0
  143.1813   77.4359  218.6909 H   0  0  0  0  0  0  0  0  0  0  0  0
  140.7443   75.9853  217.7491 H   0  0  0  0  0  0  0  0  0  0  0  0
  142.4205   75.6327  217.3559 H   0  0  0  0  0  0  0  0  0  0  0  0
  141.1257   73.9445  218.9425 H   0  0  0  0  0  0  0  0  0  0  0  0
  142.4275   73.7405  221.5554 H   0  0  0  0  0  0  0  0  0  0  0  0
  144.5266   72.6565  222.1961 H   0  0  0  0  0  0  0  0  0  0  0  0
  146.4076   72.4283  220.5830 H   0  0  0  0  0  0  0  0  0  0  0  0
  146.7260   74.1160  217.6530 H   0  0  0  0  0  0  0  0  0  0  0  0
  143.9734   74.4295  217.6322 H   0  0  0  0  0  0  0  0  0  0  0  0
  141.2515   72.9211  225.1944 H   0  0  0  0  0  0  0  0  0  0  0  0
  141.2190   71.8674  227.4481 H   0  0  0  0  0  0  0  0  0  0  0  0
  140.7625   70.0109  228.8256 H   0  0  0  0  0  0  0  0  0  0  0  0
  139.9495   67.6665  229.0353 H   0  0  0  0  0  0  0  0  0  0  0  0
  139.1856   66.3988  227.0784 H   0  0  0  0  0  0  0  0  0  0  0  0
  139.2118   67.4410  224.7911 H   0  0  0  0  0  0  0  0  0  0  0  0
  1  2  2  0
  2  3  1  0
  3  4  1  0
  4  5  1  0
  5  6  2  0
  5  7  1  0
  7  8  1  0
  8  9  1  0
  9 10  1  0
 10 11  1  0
 11 12  1  0
 12 13  2  0
 13 14  1  0
 14 15  2  0
 15 16  1  0
 16 17  1  0
 16 18  2  0
  2 19  1  0
 19 20  2  0
 20 21  1  0
 21 22  2  0
 22 23  1  0
 23 24  2  0
 24 25  1  0
 25 26  2  0
 26 27  1  0
 27 28  2  0
 11  7  1  0
 18 12  1  0
 28 19  1  0
 27 22  1  0
  3 29  1  0
  4 30  1  0
  4 31  1  0
  8 32  1  0
  8 33  1  0
  9 34  1  0
  9 35  1  0
 10 36  1  0
 10 37  1  0
 11 38  1  6
 13 39  1  0
 14 40  1  0
 15 41  1  0
 17 42  1  0
 18 43  1  0
 20 44  1  0
 21 45  1  0
 23 46  1  0
 24 47  1  0
 25 48  1  0
 26 49  1  0
M  END
>  <smiles>  (99) 
O=C(NCC(=O)N1CCCC1c1cccc(O)c1)c1ccc2ccccc2n1

>  <score_type>  (99) 
oracle

>  <origin>  (99) 
autodockgpu

>  <m_score__min__energy>  (99) 
-9

>  <m_primary>  (99) 
energy

>  <rmsd>  (99) 
3.5285884053202508

>  <m_score__min__rmsd>  (99) 
3.5285884053202508

>  <meeko>  (99) 
{"free_energy": -8.64, "intermolecular_energy": -10.43, "internal_energy": -1.51, "cluster_size": 16, "cluster_id": 2, "rank_in_cluster": 6}

>  <energy>  (99) 
-8.08

>  <cluster_rmsd>  (99) 
0.0

>  <cluster>  (99) 
5

$$$$

     RDKit          3D

 49 52  0  0  0  0  0  0  0  0999 V2000
  141.4640   73.1430  221.6270 O   0  0  0  0  0  0  0  0  0  0  0  0
  140.4150   73.0040  222.3320 C   0  0  0  0  0  0  0  0  0  0  0  0
  139.5320   74.1270  222.3450 N   0  0  0  0  0  0  0  0  0  0  0  0
  139.9150   75.2770  221.5730 C   0  0  0  0  0  0  0  0  0  0  0  0
  139.3840   76.5480  222.1290 C   0  0  0  0  0  0  0  0  0  0  0  0
  138.2000   76.5810  222.5340 O   0  0  0  0  0  0  0  0  0  0  0  0
  140.2710   77.6570  222.1630 N   0  0  0  0  0  0  0  0  0  0  0  0
  141.4500   77.8770  222.9840 C   0  0  0  0  0  0  0  0  0  0  0  0
  141.4790   79.3810  223.2890 C   0  0  0  0  0  0  0  0  0  0  0  0
  140.4550   79.9860  222.3500 C   0  0  0  0  0  0  0  0  0  0  0  0
  140.1930   78.8910  221.3410 C   0  0  1  0  0  0  0  0  0  0  0  0
  141.1300   78.8310  220.2230 C   0  0  0  0  0  0  0  0  0  0  0  0
  141.5750   77.5610  219.8330 C   0  0  0  0  0  0  0  0  0  0  0  0
  142.4580   77.3890  218.7890 C   0  0  0  0  0  0  0  0  0  0  0  0
  142.9530   78.4580  218.0720 C   0  0  0  0  0  0  0  0  0  0  0  0
  142.5240   79.7130  218.4450 C   0  0  0  0  0  0  0  0  0  0  0  0
  143.0070   80.8080  217.7380 O   0  0  0  0  0  0  0  0  0  0  0  0
  141.6260   79.8870  219.5060 C   0  0  0  0  0  0  0  0  0  0  0  0
  140.1290   71.7850  223.0780 C   0  0  0  0  0  0  0  0  0  0  0  0
  139.3500   70.8300  222.4590 C   0  0  0  0  0  0  0  0  0  0  0  0
  139.0500   69.6600  223.1180 C   0  0  0  0  0  0  0  0  0  0  0  0
  139.5390   69.4700  224.3920 C   0  0  0  0  0  0  0  0  0  0  0  0
  139.2280   68.2960  225.0310 C   0  0  0  0  0  0  0  0  0  0  0  0
  139.7290   68.1240  226.3090 C   0  0  0  0  0  0  0  0  0  0  0  0
  140.5080   69.0810  226.9240 C   0  0  0  0  0  0  0  0  0  0  0  0
  140.8240   70.2720  226.2760 C   0  0  0  0  0  0  0  0  0  0  0  0
  140.3180   70.4290  225.0040 C   0  0  0  0  0  0  0  0  0  0  0  0
  140.5790   71.5480  224.3170 N   0  0  0  0  0  0  0  0  0  0  0  0
  138.6390   74.0930  222.9050 H   0  0  0  0  0  0  0  0  0  0  0  0
  141.0132   75.3351  221.5507 H   0  0  0  0  0  0  0  0  0  0  0  0
  139.4916   75.1546  220.5652 H   0  0  0  0  0  0  0  0  0  0  0  0
  141.3790   77.2991  223.9173 H   0  0  0  0  0  0  0  0  0  0  0  0
  142.3660   77.5529  222.4684 H   0  0  0  0  0  0  0  0  0  0  0  0
  141.2028   79.5693  224.3370 H   0  0  0  0  0  0  0  0  0  0  0  0
  142.4800   79.8144  223.1468 H   0  0  0  0  0  0  0  0  0  0  0  0
  139.5339   80.2473  222.8916 H   0  0  0  0  0  0  0  0  0  0  0  0
  140.8071   80.9174  221.8825 H   0  0  0  0  0  0  0  0  0  0  0  0
  139.2298   79.0552  220.8357 H   0  0  0  0  0  0  0  0  0  0  0  0
  141.2094   76.6765  220.3752 H   0  0  0  0  0  0  0  0  0  0  0  0
  142.7767   76.3711  218.5202 H   0  0  0  0  0  0  0  0  0  0  0  0
  143.6583   78.3152  217.2401 H   0  0  0  0  0  0  0  0  0  0  0  0
  143.6860   80.6940  216.9850 H   0  0  0  0  0  0  0  0  0  0  0  0
  141.3086   80.9061  219.7721 H   0  0  0  0  0  0  0  0  0  0  0  0
  138.9697   71.0031  221.4415 H   0  0  0  0  0  0  0  0  0  0  0  0
  138.4304   68.8895  222.6359 H   0  0  0  0  0  0  0  0  0  0  0  0
  138.6080   67.5261  224.5485 H   0  0  0  0  0  0  0  0  0  0  0  0
  139.4988   67.1950  226.8512 H   0  0  0  0  0  0  0  0  0  0  0  0
  140.8853   68.9009  227.9414 H   0  0  0  0  0  0  0  0  0  0  0  0
  141.4437   71.0454  226.7533 H   0  0  0  0  0  0  0  0  0  0  0  0
  1  2  2  0
  2  3  1  0
  3  4  1  0
  4  5  1  0
  5  6  2  0
  5  7  1  0
  7  8  1  0
  8  9  1  0
  9 10  1  0
 10 11  1  0
 11 12  1  0
 12 13  2  0
 13 14  1  0
 14 15  2  0
 15 16  1  0
 16 17  1  0
 16 18  2  0
  2 19  1  0
 19 20  2  0
 20 21  1  0
 21 22  2  0
 22 23  1  0
 23 24  2  0
 24 25  1  0
 25 26  2  0
 26 27  1  0
 27 28  2  0
 11  7  1  0
 18 12  1  0
 28 19  1  0
 27 22  1  0
  3 29  1  0
  4 30  1  0
  4 31  1  0
  8 32  1  0
  8 33  1  0
  9 34  1  0
  9 35  1  0
 10 36  1  0
 10 37  1  0
 11 38  1  6
 13 39  1  0
 14 40  1  0
 15 41  1  0
 17 42  1  0
 18 43  1  0
 20 44  1  0
 21 45  1  0
 23 46  1  0
 24 47  1  0
 25 48  1  0
 26 49  1  0
M  END
>  <smiles>  (100) 
O=C(NCC(=O)N1CCCC1c1cccc(O)c1)c1ccc2ccccc2n1

>  <score_type>  (100) 
oracle

>  <origin>  (100) 
autodockgpu

>  <m_score__min__energy>  (100) 
-9

>  <m_primary>  (100) 
energy

>  <rmsd>  (100) 
3.3452216508113874

>  <m_score__min__rmsd>  (100) 
3.3452216508113874

>  <meeko>  (100) 
{"free_energy": -8.07, "intermolecular_energy": -9.86, "internal_energy": -1.29, "cluster_size": 9, "cluster_id": 4, "rank_in_cluster": 5}

>  <energy>  (100) 
-6.72

>  <cluster_rmsd>  (100) 
0.0

>  <cluster>  (100) 
6

$$$$
